0:0:0
     RDKit          3D

 92101  0  0  1  0  0  0  0  0999 V2000
  -27.6010  -20.7000   19.7760 C   0  0  0  0  0  3  0  0  0  0  0  0
  -27.2930  -19.3380   19.5870 C   0  0  0  0  0  3  0  0  0  0  0  0
  -29.6470  -20.0320   20.8740 C   0  0  0  0  0  3  0  0  0  0  0  0
  -28.7950  -21.1060   20.3990 C   0  0  0  0  0  0  0  0  0  0  0  0
  -29.3540  -18.6170   20.7090 C   0  0  0  0  0  0  0  0  0  0  0  0
  -28.1630  -18.3010   20.0080 C   0  0  0  0  0  0  0  0  0  0  0  0
  -28.7350  -23.5220   21.6330 C   0  0  0  0  0  2  0  0  0  0  0  0
  -29.1300  -22.6450   20.4610 C   0  0  0  0  0  3  0  0  0  0  0  0
  -28.1410  -23.8800   20.2910 C   0  0  0  0  0  3  0  0  0  0  0  0
  -28.4670  -25.2440   19.5520 C   0  0  0  0  0  2  0  0  0  0  0  0
  -28.3510  -26.5850   20.1830 O   0  0  0  0  0  0  0  0  0  0  0  0
  -24.6010  -31.9360   23.2210 C   0  0  0  0  0  0  0  0  0  0  0  0
  -27.2020  -27.3910   20.1250 C   0  0  0  0  0  0  0  0  0  0  0  0
  -23.3840  -30.5340   21.5900 C   0  0  0  0  0  3  0  0  0  0  0  0
  -24.8250  -28.9900   20.1440 C   0  0  0  0  0  0  0  0  0  0  0  0
  -25.9180  -30.8670   21.3750 C   0  0  0  0  0  2  0  0  0  0  0  0
  -25.9960  -29.4860   20.7290 C   0  0  0  0  0  0  0  0  0  0  0  0
  -27.1810  -28.6960   20.7140 C   0  0  0  0  0  3  0  0  0  0  0  0
  -26.0040  -26.9390   19.5300 C   0  0  0  0  0  3  0  0  0  0  0  0
  -24.8300  -27.7220   19.5370 C   0  0  0  0  0  3  0  0  0  0  0  0
  -23.5880  -29.8660   20.2030 C   0  0  0  0  0  2  0  0  0  0  0  0
  -24.6540  -31.1310   22.1200 N   0  0  0  0  0  0  0  0  0  0  0  0
  -23.5240  -32.2060   23.7720 O   0  0  0  0  0  0  0  0  0  0  0  0
  -22.7400  -29.5130   22.5570 C   0  0  0  0  0  0  0  0  0  0  0  0
  -21.4130  -29.3270   22.4450 N   0  0  0  0  0  0  0  0  0  0  0  0
  -23.4310  -28.8930   23.3700 O   0  0  0  0  0  0  0  0  0  0  0  0
  -20.9100  -29.8830   21.7670 H   0  0  0  0  0  0  0  0  0  0  0  0
  -18.0510  -28.0980   22.9670 C   0  0  0  0  0  0  0  0  0  0  0  0
  -20.6070  -28.3830   23.2260 C   0  0  0  0  0  3  0  0  0  0  0  0
  -20.7220  -26.9500   22.6560 C   0  0  0  0  0  2  0  0  0  0  0  0
  -19.6180  -26.6140   21.6490 C   0  0  0  0  0  2  0  0  0  0  0  0
  -18.2370  -26.7480   22.2960 C   0  0  0  0  0  2  0  0  0  0  0  0
  -19.1640  -28.8720   23.3900 C   0  0  0  0  0  0  0  0  0  0  0  0
  -18.9340  -30.1350   23.9780 C   0  0  0  0  0  3  0  0  0  0  0  0
  -17.6240  -30.6230   24.1480 C   0  0  0  0  0  3  0  0  0  0  0  0
  -16.5260  -29.8460   23.7420 C   0  0  0  0  0  3  0  0  0  0  0  0
  -16.7400  -28.5860   23.1560 C   0  0  0  0  0  3  0  0  0  0  0  0
  -25.8890  -32.5760   23.8270 C   0  0  0  0  0  3  0  0  0  0  0  0
  -26.4250  -31.8030   25.0950 C   0  0  1  0  0  0  0  0  0  0  0  0
  -25.3470  -31.5630   26.1770 C   0  0  0  0  0  1  0  0  0  0  0  0
  -27.0070  -30.4290   24.6930 C   0  0  0  0  0  1  0  0  0  0  0  0
  -27.5790  -32.6010   25.7470 C   0  0  0  0  0  1  0  0  0  0  0  0
  -25.5740  -33.9710   24.1670 N   0  0  0  0  0  0  0  0  0  0  0  0
  -25.9030  -35.0300   23.4160 C   0  0  0  0  0  0  0  0  0  0  0  0
  -26.5720  -34.9360   22.3840 O   0  0  0  0  0  0  0  0  0  0  0  0
  -24.9830  -34.1160   24.9710 H   0  0  0  0  0  0  0  0  0  0  0  0
  -24.1820  -36.8300   23.0620 C   0  0  0  0  0  1  0  0  0  0  0  0
  -25.4130  -36.4140   23.8830 C   0  0  0  0  0  3  0  0  0  0  0  0
  -27.5400  -37.2860   24.7470 C   0  0  0  0  0  1  0  0  0  0  0  0
  -26.4470  -37.4670   23.7940 N   0  0  0  0  0  0  0  0  0  0  0  0
  -26.0390  -38.3840   23.9510 H   0  0  0  0  0  0  0  0  0  0  0  0
  -27.4600  -16.7200   18.3900 C   0  0  0  0  0  1  0  0  0  0  0  0
  -27.8720  -16.9870   19.7280 O   0  0  0  0  0  0  0  0  0  0  0  0
  -30.3510  -17.4710   21.1920 C   0  0  0  0  0  2  0  0  0  0  0  0
  -30.7630  -14.8900   21.1490 C   0  0  0  0  0  0  0  0  0  0  0  0
  -30.7160  -12.5840   20.2070 C   0  0  0  0  0  2  0  0  0  0  0  0
  -29.9160  -12.6010   18.8890 C   0  0  0  0  0  2  0  0  0  0  0  0
  -28.4130  -12.4010   19.1660 C   0  0  0  0  0  2  0  0  0  0  0  0
  -27.8870  -13.3150   20.3050 C   0  0  0  0  0  3  0  0  0  0  0  0
  -28.8210  -13.3000   21.5330 C   0  0  0  0  0  2  0  0  0  0  0  0
  -30.1660  -13.6560   21.0650 N   0  0  0  0  0  0  0  0  0  0  0  0
  -31.9750  -15.0120   20.9540 O   0  0  0  0  0  0  0  0  0  0  0  0
  -29.9560  -16.0010   21.2420 N   0  0  0  0  0  0  0  0  0  0  0  0
  -28.9650  -15.8260   21.2850 H   0  0  0  0  0  0  0  0  0  0  0  0
  -25.4220  -13.8700   20.7730 C   0  0  0  0  0  0  0  0  0  0  0  0
  -24.3380  -13.0800   21.0380 C   0  0  0  0  0  0  0  0  0  0  0  0
  -24.8280  -11.7400   21.0790 C   0  0  0  0  0  0  0  0  0  0  0  0
  -26.5030  -13.0100   20.6580 N   0  0  0  0  0  0  0  0  0  0  0  0
  -26.1460  -11.7230   20.9060 N   0  0  0  0  0  0  0  0  0  0  0  0
  -24.1110  -10.4660   21.2180 C   0  0  0  0  0  0  0  0  0  0  0  0
  -24.4730   -9.5200   22.2030 C   0  0  0  0  0  3  0  0  0  0  0  0
  -23.7590   -8.3100   22.3310 C   0  0  0  0  0  3  0  0  0  0  0  0
  -22.6680   -8.0360   21.4710 C   0  0  0  0  0  0  0  0  0  0  0  0
  -22.3240   -8.9720   20.4810 C   0  0  0  0  0  3  0  0  0  0  0  0
  -23.0390  -10.1750   20.3520 C   0  0  0  0  0  3  0  0  0  0  0  0
  -21.9320   -6.8770   21.5050 O   0  0  0  0  0  0  0  0  0  0  0  0
  -21.7910   -6.1460   22.6570 C   0  0  0  0  0  0  0  0  0  0  0  0
  -21.2320   -6.7030   23.8280 C   0  0  0  0  0  3  0  0  0  0  0  0
  -21.0390   -5.8970   24.9670 C   0  0  0  0  0  3  0  0  0  0  0  0
  -21.3980   -4.5350   24.9370 C   0  0  0  0  0  0  0  0  0  0  0  0
  -21.9490   -3.9790   23.7700 C   0  0  0  0  0  3  0  0  0  0  0  0
  -22.1420   -4.7810   22.6320 C   0  0  0  0  0  0  0  0  0  0  0  0
  -22.6550   -4.2340   21.5030 F   0  0  0  0  0  0  0  0  0  0  0  0
  -21.2050   -3.7590   26.0280 F   0  0  0  0  0  0  0  0  0  0  0  0
  -22.9120  -13.5340   21.1500 C   0  0  0  0  0  0  0  0  0  0  0  0
  -22.1080  -12.8470   21.9560 N   0  0  0  0  0  0  0  0  0  0  0  0
  -22.5110  -14.5360   20.5600 O   0  0  0  0  0  0  0  0  0  0  0  0
  -22.4380  -12.0430   22.4660 H   0  0  0  0  0  0  0  0  0  0  0  0
  -21.1460  -13.1400   22.0660 H   0  0  0  0  0  0  0  0  0  0  0  0
  -25.5690  -15.2430   20.6030 N   0  0  0  0  0  0  0  0  0  0  0  0
  -24.7680  -15.8640   20.6270 H   0  0  0  0  0  0  0  0  0  0  0  0
  -26.4380  -15.7270   20.4120 H   0  0  0  0  0  0  0  0  0  0  0  0
  1  4  1  0
  2  1  2  0
  2  6  1  0
  4  3  2  0
  5  3  1  0
  5 54  1  0
  6  5  2  0
  8  4  1  0
  8  7  1  0
  9 10  1  0
  9  8  1  0
  9  7  1  0
 10 11  1  0
 12 23  2  0
 13 11  1  0
 13 18  1  0
 14 22  1  0
 14 24  1  0
 15 21  1  0
 15 17  1  0
 16 22  1  0
 17 16  1  0
 18 17  2  0
 19 20  1  0
 19 13  2  0
 20 15  2  0
 21 14  1  0
 22 12  1  0
 24 26  2  0
 25 24  1  0
 27 25  1  0
 28 37  2  0
 28 33  1  0
 29 25  1  0
 29 33  1  0
 30 29  1  0
 31 32  1  0
 31 30  1  0
 32 28  1  0
 33 34  2  0
 34 35  1  0
 36 35  2  0
 37 36  1  0
 38 12  1  0
 38 43  1  0
 38 39  1  0
 39 42  1  1
 39 40  1  0
 41 39  1  0
 43 46  1  0
 44 48  1  0
 44 43  1  0
 45 44  2  0
 48 47  1  0
 50 48  1  0
 50 51  1  0
 50 49  1  0
 52 53  1  0
 53  6  1  0
 54 63  1  0
 55 63  1  0
 56 61  1  0
 57 58  1  0
 57 56  1  0
 59 58  1  0
 59 68  1  0
 59 60  1  0
 61 55  1  0
 61 60  1  0
 62 55  2  0
 63 64  1  0
 65 66  2  0
 66 67  1  0
 66 85  1  0
 67 70  1  0
 68 65  1  0
 68 69  1  0
 69 67  2  0
 70 71  1  0
 71 72  2  0
 73 76  1  0
 73 72  1  0
 74 73  2  0
 75 74  1  0
 75 70  2  0
 76 77  1  0
 77 78  1  0
 78 79  2  0
 80 79  1  0
 80 84  1  0
 81 80  2  0
 82 77  2  0
 82 81  1  0
 83 82  1  0
 85 86  1  0
 86 89  1  0
 86 88  1  0
 87 85  2  0
 90 91  1  0
 90 65  1  0
 92 90  1  0
M  ISO  4  10 101  11 101  55 100  63 100
M  END
>  <TORSDO>  (1) 
F 20

>  <SCORE>  (1) 
-12.940

>  <name>  (1) 
0

>  <ligand_id>  (1) 
0

>  <original_smiles>  (1) 
[H]c1c([H])c([H])c2c(c1[H])C([H])([H])C([H])([H])C([H])([H])C2([H])N([H])C(=O)C1([H])N(C(=O)C([H])(N([H])C(=O)C([H])(N([H])C([H])([H])[H])C([H])([H])[H])C(C([H])([H])[H])(C([H])([H])[H])C([H])([H])[H])C([H])([H])c2c([H])c(OC([H])([H])C3([H])C([H])([H])C3([H])c3c([H])c([H])c(OC([H])([H])[H])c(C([H])([H])N([H])C(=O)N4C([H])([H])C([H])([H])C([H])([H])C([H])(n5nc(-c6c([H])c([H])c(Oc7c([H])c([H])c(F)c([H])c7F)c([H])c6[H])c(C(=O)N([H])[H])c5N([H])[H])C4([H])[H])c3[H])c([H])c([H])c2C1([H])[H]

>  <smiles>  (1) 
[H]c1c([H])c([H])c2c(c1[H])C([H])([H])C([H])([H])C([H])([H])C2([H])N([H])C(=O)C1([H])N(C(=O)C([H])(N([H])C(=O)C([H])(N([H])C([H])([H])[H])C([H])([H])[H])C(C([H])([H])[H])(C([H])([H])[H])C([H])([H])[H])C([H])([H])c2c([H])c(OC([H])([H])C3([H])C([H])([H])C3([H])c3c([H])c([H])c(OC([H])([H])[H])c(C([H])([H])N([H])C(=O)N4C([H])([H])C([H])([H])C([H])([H])C([H])(n5nc(-c6c([H])c([H])c(Oc7c([H])c([H])c(F)c([H])c7F)c([H])c6[H])c(C(=O)N([H])[H])c5N([H])[H])C4([H])[H])c3[H])c([H])c([H])c2C1([H])[H]

$$$$
1:0:0
     RDKit          3D

 97106  0  0  1  0  0  0  0  0999 V2000
  -31.6060  -21.9640   20.9970 C   0  0  0  0  0  2  0  0  0  0  0  0
  -31.4830  -23.4360   20.6000 C   0  0  0  0  0  2  0  0  0  0  0  0
  -29.4170  -22.3350   20.1440 C   0  0  0  0  0  2  0  0  0  0  0  0
  -30.5780  -21.3020   20.0780 C   0  0  0  0  0  3  0  0  0  0  0  0
  -30.0390  -23.6900   20.3380 N   0  0  2  0  0  4  0  0  0  0  0  0
  -29.6670  -24.0360   21.2120 H   0  0  0  0  0  0  0  0  0  0  0  0
  -30.5420  -19.1880   21.5710 C   0  0  0  0  0  3  0  0  0  0  0  0
  -29.7590  -17.5360   19.4580 C   0  0  0  0  0  3  0  0  0  0  0  0
  -30.2940  -19.7890   20.3070 C   0  0  0  0  0  0  0  0  0  0  0  0
  -29.8880  -18.9320   19.2460 C   0  0  0  0  0  0  0  0  0  0  0  0
  -30.0480  -16.9510   20.7110 C   0  0  0  0  0  0  0  0  0  0  0  0
  -30.4260  -17.7840   21.7870 C   0  0  0  0  0  0  0  0  0  0  0  0
  -29.6060  -19.4740   17.8540 C   0  0  0  0  0  1  0  0  0  0  0  0
  -30.5950  -14.5530   20.3620 C   0  0  0  0  0  0  0  0  0  0  0  0
  -30.3300  -12.3890   19.2030 C   0  0  0  0  0  2  0  0  0  0  0  0
  -29.3820  -12.6000   18.0020 C   0  0  0  0  0  2  0  0  0  0  0  0
  -27.9090  -12.4510   18.4300 C   0  0  0  0  0  2  0  0  0  0  0  0
  -27.5710  -13.2680   19.7060 C   0  0  0  0  0  3  0  0  0  0  0  0
  -28.6310  -13.0320   20.8080 C   0  0  0  0  0  2  0  0  0  0  0  0
  -29.9520  -13.3570   20.2440 N   0  0  0  0  0  0  0  0  0  0  0  0
  -31.7190  -14.7550   19.8900 O   0  0  0  0  0  0  0  0  0  0  0  0
  -29.8640  -15.5460   20.9100 N   0  0  0  0  0  0  0  0  0  0  0  0
  -28.9780  -15.2660   21.3010 H   0  0  0  0  0  0  0  0  0  0  0  0
  -25.1620  -13.8610   20.3920 C   0  0  0  0  0  0  0  0  0  0  0  0
  -24.1020  -13.0840   20.7730 C   0  0  0  0  0  0  0  0  0  0  0  0
  -24.5770  -11.7370   20.7710 C   0  0  0  0  0  0  0  0  0  0  0  0
  -26.2170  -12.9870   20.1840 N   0  0  0  0  0  0  0  0  0  0  0  0
  -25.8690  -11.7050   20.4680 N   0  0  0  0  0  0  0  0  0  0  0  0
  -23.8650  -10.4700   20.9860 C   0  0  0  0  0  0  0  0  0  0  0  0
  -24.3150   -9.5200   21.9290 C   0  0  0  0  0  3  0  0  0  0  0  0
  -23.6040   -8.3190   22.1300 C   0  0  0  0  0  3  0  0  0  0  0  0
  -22.4270   -8.0570   21.3880 C   0  0  0  0  0  0  0  0  0  0  0  0
  -21.9960   -8.9960   20.4340 C   0  0  0  0  0  3  0  0  0  0  0  0
  -22.7080  -10.1900   20.2320 C   0  0  0  0  0  3  0  0  0  0  0  0
  -21.6860   -6.9060   21.4980 O   0  0  0  0  0  0  0  0  0  0  0  0
  -21.6720   -6.1650   22.6520 C   0  0  0  0  0  0  0  0  0  0  0  0
  -21.2870   -6.7230   23.8910 C   0  0  0  0  0  3  0  0  0  0  0  0
  -21.2200   -5.9080   25.0390 C   0  0  0  0  0  3  0  0  0  0  0  0
  -21.5290   -4.5380   24.9490 C   0  0  0  0  0  0  0  0  0  0  0  0
  -21.9080   -3.9800   23.7150 C   0  0  0  0  0  3  0  0  0  0  0  0
  -21.9760   -4.7910   22.5700 C   0  0  0  0  0  0  0  0  0  0  0  0
  -22.3200   -4.2440   21.3790 F   0  0  0  0  0  0  0  0  0  0  0  0
  -21.4570   -3.7530   26.0510 F   0  0  0  0  0  0  0  0  0  0  0  0
  -22.6970  -13.5500   21.0310 C   0  0  0  0  0  0  0  0  0  0  0  0
  -21.9780  -12.8680   21.9160 N   0  0  0  0  0  0  0  0  0  0  0  0
  -22.2450  -14.5530   20.4820 O   0  0  0  0  0  0  0  0  0  0  0  0
  -22.3560  -12.0570   22.3830 H   0  0  0  0  0  0  0  0  0  0  0  0
  -21.0360  -13.1610   22.1300 H   0  0  0  0  0  0  0  0  0  0  0  0
  -25.3130  -15.2300   20.1870 N   0  0  0  0  0  0  0  0  0  0  0  0
  -24.5390  -15.8780   20.2830 H   0  0  0  0  0  0  0  0  0  0  0  0
  -26.1590  -15.6710   19.8510 H   0  0  0  0  0  0  0  0  0  0  0  0
  -30.9250  -17.9930   24.1300 C   0  0  0  0  0  1  0  0  0  0  0  0
  -30.6680  -17.1700   22.9990 O   0  0  0  0  0  0  0  0  0  0  0  0
  -30.8170  -25.8460   19.1530 C   0  0  0  0  0  1  0  0  0  0  0  0
  -29.7380  -24.7410   19.2930 C   0  0  0  0  0  3  0  0  0  0  0  0
  -28.3300  -25.4050   19.4300 C   0  0  0  0  0  2  0  0  0  0  0  0
  -28.3420  -26.7220   20.0340 O   0  0  0  0  0  0  0  0  0  0  0  0
  -24.5580  -31.8590   23.2660 C   0  0  0  0  0  0  0  0  0  0  0  0
  -27.1650  -27.4610   20.0490 C   0  0  0  0  0  0  0  0  0  0  0  0
  -23.3420  -30.5170   21.5840 C   0  0  0  0  0  3  0  0  0  0  0  0
  -24.7830  -29.0110   20.1160 C   0  0  0  0  0  0  0  0  0  0  0  0
  -25.8750  -30.8520   21.3990 C   0  0  0  0  0  2  0  0  0  0  0  0
  -25.9480  -29.4990   20.7180 C   0  0  0  0  0  0  0  0  0  0  0  0
  -27.1400  -28.7310   20.6800 C   0  0  0  0  0  3  0  0  0  0  0  0
  -25.9660  -26.9920   19.4580 C   0  0  0  0  0  3  0  0  0  0  0  0
  -24.7880  -27.7570   19.4870 C   0  0  0  0  0  3  0  0  0  0  0  0
  -23.5480  -29.8810   20.1850 C   0  0  0  0  0  2  0  0  0  0  0  0
  -24.6110  -31.0890   22.1410 N   0  0  0  0  0  0  0  0  0  0  0  0
  -23.4780  -32.1230   23.8120 O   0  0  0  0  0  0  0  0  0  0  0  0
  -22.6810  -29.4720   22.5110 C   0  0  0  0  0  0  0  0  0  0  0  0
  -21.3520  -29.3150   22.3890 N   0  0  0  0  0  0  0  0  0  0  0  0
  -23.3600  -28.8070   23.2990 O   0  0  0  0  0  0  0  0  0  0  0  0
  -20.8660  -29.9040   21.7280 H   0  0  0  0  0  0  0  0  0  0  0  0
  -17.9620  -28.1610   22.8750 C   0  0  0  0  0  0  0  0  0  0  0  0
  -20.5260  -28.3620   23.1310 C   0  0  0  0  0  3  0  0  0  0  0  0
  -20.5980  -26.9530   22.5000 C   0  0  0  0  0  2  0  0  0  0  0  0
  -19.4810  -26.6880   21.4850 C   0  0  0  0  0  2  0  0  0  0  0  0
  -18.1080  -26.8340   22.1480 C   0  0  0  0  0  2  0  0  0  0  0  0
  -19.0980  -28.8860   23.3210 C   0  0  0  0  0  0  0  0  0  0  0  0
  -18.9090  -30.1310   23.9600 C   0  0  0  0  0  3  0  0  0  0  0  0
  -17.6160  -30.6500   24.1560 C   0  0  0  0  0  3  0  0  0  0  0  0
  -16.4940  -29.9200   23.7250 C   0  0  0  0  0  3  0  0  0  0  0  0
  -16.6680  -28.6770   23.0910 C   0  0  0  0  0  3  0  0  0  0  0  0
  -25.8480  -32.4600   23.9040 C   0  0  0  0  0  3  0  0  0  0  0  0
  -26.3660  -31.6410   25.1500 C   0  0  1  0  0  0  0  0  0  0  0  0
  -25.2750  -31.3700   26.2120 C   0  0  0  0  0  1  0  0  0  0  0  0
  -26.9400  -30.2760   24.7050 C   0  0  0  0  0  1  0  0  0  0  0  0
  -27.5220  -32.4050   25.8380 C   0  0  0  0  0  1  0  0  0  0  0  0
  -25.5470  -33.8470   24.2840 N   0  0  0  0  0  0  0  0  0  0  0  0
  -25.8860  -34.9240   23.5610 C   0  0  0  0  0  0  0  0  0  0  0  0
  -26.5570  -34.8530   22.5280 O   0  0  0  0  0  0  0  0  0  0  0  0
  -24.9540  -33.9770   25.0910 H   0  0  0  0  0  0  0  0  0  0  0  0
  -24.1680  -36.7360   23.2680 C   0  0  0  0  0  1  0  0  0  0  0  0
  -25.4060  -36.2980   24.0660 C   0  0  0  0  0  3  0  0  0  0  0  0
  -27.5440  -37.1410   24.9310 C   0  0  0  0  0  1  0  0  0  0  0  0
  -26.4450  -37.3490   23.9920 N   0  0  0  0  0  0  0  0  0  0  0  0
  -26.0430  -38.2660   24.1700 H   0  0  0  0  0  0  0  0  0  0  0  0
  2  1  1  0
  3  5  1  0
  4  3  1  0
  4  9  1  0
  4  1  1  0
  5  2  1  0
  5  6  1  1
  7 12  1  0
  8 11  1  0
  9  7  2  0
 10  8  2  0
 10  9  1  0
 11 22  1  0
 11 12  2  0
 12 53  1  0
 13 10  1  0
 14 22  1  0
 15 20  1  0
 16 17  1  0
 16 15  1  0
 18 17  1  0
 18 27  1  0
 18 19  1  0
 20 14  1  0
 20 19  1  0
 21 14  2  0
 22 23  1  0
 24 25  2  0
 25 44  1  0
 26 25  1  0
 26 29  1  0
 27 24  1  0
 27 28  1  0
 28 26  2  0
 29 30  1  0
 30 31  2  0
 32 35  1  0
 32 31  1  0
 33 32  2  0
 34 33  1  0
 34 29  2  0
 35 36  1  0
 36 37  1  0
 37 38  2  0
 39 38  1  0
 39 43  1  0
 40 39  2  0
 41 36  2  0
 41 40  1  0
 42 41  1  0
 44 45  1  0
 45 48  1  0
 45 47  1  0
 46 44  2  0
 49 50  1  0
 49 24  1  0
 51 49  1  0
 53 52  1  0
 55 54  1  0
 55 56  1  0
 55  5  1  0
 56 57  1  0
 57 59  1  0
 58 69  2  0
 59 64  1  0
 60 68  1  0
 60 70  1  0
 61 67  1  0
 61 63  1  0
 62 68  1  0
 63 62  1  0
 64 63  2  0
 65 66  1  0
 65 59  2  0
 66 61  2  0
 67 60  1  0
 68 58  1  0
 70 72  2  0
 71 70  1  0
 73 71  1  0
 74 83  2  0
 74 79  1  0
 75 71  1  0
 75 79  1  0
 76 75  1  0
 77 78  1  0
 77 76  1  0
 78 74  1  0
 79 80  2  0
 80 81  1  0
 82 81  2  0
 83 82  1  0
 84 58  1  0
 84 89  1  0
 84 85  1  0
 85 88  1  1
 85 86  1  0
 87 85  1  0
 89 92  1  0
 90 94  1  0
 90 89  1  0
 91 90  2  0
 94 93  1  0
 96 94  1  0
 96 97  1  0
 96 95  1  0
M  ISO  4  14 100  22 100  56 101  57 101
M  END
>  <TORSDO>  (2) 
F 20

>  <SCORE>  (2) 
-13.139

>  <name>  (2) 
1

>  <ligand_id>  (2) 
1

>  <original_smiles>  (2) 
[H]c1c([H])c([H])c2c(c1[H])C([H])([H])C([H])([H])C([H])([H])C2([H])N([H])C(=O)C1([H])N(C(=O)C([H])(N([H])C(=O)C([H])(N([H])C([H])([H])[H])C([H])([H])[H])C(C([H])([H])[H])(C([H])([H])[H])C([H])([H])[H])C([H])([H])c2c([H])c(OC([H])([H])C([H])(C([H])([H])[H])[N+]3([H])C([H])([H])C([H])([H])C([H])(c4c([H])c(OC([H])([H])[H])c(N([H])C(=O)N5C([H])([H])C([H])([H])C([H])([H])C([H])(n6nc(-c7c([H])c([H])c(Oc8c([H])c([H])c(F)c([H])c8F)c([H])c7[H])c(C(=O)N([H])[H])c6N([H])[H])C5([H])[H])c([H])c4C([H])([H])[H])C3([H])[H])c([H])c([H])c2C1([H])[H]

>  <smiles>  (2) 
[H]c1c([H])c([H])c2c(c1[H])C([H])([H])C([H])([H])C([H])([H])C2([H])N([H])C(=O)C1([H])N(C(=O)C([H])(N([H])C(=O)C([H])(N([H])C([H])([H])[H])C([H])([H])[H])C(C([H])([H])[H])(C([H])([H])[H])C([H])([H])[H])C([H])([H])c2c([H])c(OC([H])([H])C([H])(C([H])([H])[H])[N+]3([H])C([H])([H])C([H])([H])C([H])(c4c([H])c(OC([H])([H])[H])c(N([H])C(=O)N5C([H])([H])C([H])([H])C([H])([H])C([H])(n6nc(-c7c([H])c([H])c(Oc8c([H])c([H])c(F)c([H])c8F)c([H])c7[H])c(C(=O)N([H])[H])c6N([H])[H])C5([H])[H])c([H])c4C([H])([H])[H])C3([H])[H])c([H])c([H])c2C1([H])[H]

$$$$
2:0:0
     RDKit          3D

 97107  0  0  1  0  0  0  0  0999 V2000
  -32.5240  -22.3370   19.8970 C   0  0  0  0  0  3  0  0  0  0  0  0
  -31.9200  -23.3890   20.5720 C   0  0  0  0  0  3  0  0  0  0  0  0
  -31.7850  -21.2090   19.4980 C   0  0  0  0  0  0  0  0  0  0  0  0
  -30.3580  -21.1320   19.7330 C   0  0  0  0  0  0  0  0  0  0  0  0
  -29.7170  -22.4880   19.9820 C   0  0  0  0  0  0  0  0  0  0  0  0
  -30.5210  -23.4720   20.6300 C   0  0  0  0  0  0  0  0  0  0  0  0
  -30.5160  -14.9720   19.9010 C   0  0  0  0  0  0  0  0  0  0  0  0
  -30.2470  -12.6410   18.9640 C   0  0  0  0  0  2  0  0  0  0  0  0
  -29.2470  -12.6180   17.7890 C   0  0  0  0  0  2  0  0  0  0  0  0
  -27.8110  -12.4290   18.3110 C   0  0  0  0  0  2  0  0  0  0  0  0
  -27.4900  -13.3510   19.5190 C   0  0  0  0  0  3  0  0  0  0  0  0
  -28.6160  -13.3730   20.5730 C   0  0  0  0  0  2  0  0  0  0  0  0
  -29.8470  -13.7530   19.8720 N   0  0  0  0  0  0  0  0  0  0  0  0
  -31.7060  -14.9580   19.5690 O   0  0  0  0  0  0  0  0  0  0  0  0
  -29.4800  -18.7100   21.1370 C   0  0  0  0  0  3  0  0  0  0  0  0
  -29.3460  -18.6350   18.7190 C   0  0  0  0  0  3  0  0  0  0  0  0
  -29.9990  -17.1630   21.1560 C   0  0  0  0  0  2  0  0  0  0  0  0
  -29.8310  -17.0950   18.7180 C   0  0  0  0  0  3  0  0  0  0  0  0
  -29.8900  -19.5330   19.8720 C   0  0  0  0  0  0  0  0  0  0  0  0
  -29.8370  -16.2320   19.9660 N   0  0  0  0  0  0  0  0  0  0  0  0
  -25.1820  -13.9300   20.4530 C   0  0  0  0  0  0  0  0  0  0  0  0
  -24.1340  -13.1570   20.8720 C   0  0  0  0  0  0  0  0  0  0  0  0
  -24.5770  -11.8010   20.7660 C   0  0  0  0  0  0  0  0  0  0  0  0
  -26.1900  -13.0490   20.1090 N   0  0  0  0  0  0  0  0  0  0  0  0
  -25.8420  -11.7600   20.3640 N   0  0  0  0  0  0  0  0  0  0  0  0
  -23.8450  -10.5420   20.9640 C   0  0  0  0  0  0  0  0  0  0  0  0
  -24.3120   -9.5480   21.8530 C   0  0  0  0  0  3  0  0  0  0  0  0
  -23.5810   -8.3570   22.0450 C   0  0  0  0  0  3  0  0  0  0  0  0
  -22.3670   -8.1480   21.3480 C   0  0  0  0  0  0  0  0  0  0  0  0
  -21.9180   -9.1300   20.4470 C   0  0  0  0  0  3  0  0  0  0  0  0
  -22.6500  -10.3130   20.2530 C   0  0  0  0  0  3  0  0  0  0  0  0
  -21.6010   -7.0130   21.4530 O   0  0  0  0  0  0  0  0  0  0  0  0
  -21.5830   -6.2580   22.5990 C   0  0  0  0  0  0  0  0  0  0  0  0
  -21.1890   -6.8010   23.8410 C   0  0  0  0  0  3  0  0  0  0  0  0
  -21.1190   -5.9740   24.9810 C   0  0  0  0  0  3  0  0  0  0  0  0
  -21.4310   -4.6050   24.8780 C   0  0  0  0  0  0  0  0  0  0  0  0
  -21.8170   -4.0620   23.6400 C   0  0  0  0  0  3  0  0  0  0  0  0
  -21.8900   -4.8860   22.5040 C   0  0  0  0  0  0  0  0  0  0  0  0
  -22.2420   -4.3540   21.3090 F   0  0  0  0  0  0  0  0  0  0  0  0
  -21.3550   -3.8090   25.9700 F   0  0  0  0  0  0  0  0  0  0  0  0
  -22.7670  -13.6400   21.2530 C   0  0  0  0  0  0  0  0  0  0  0  0
  -22.0980  -12.9360   22.1580 N   0  0  0  0  0  0  0  0  0  0  0  0
  -22.3050  -14.6790   20.7840 O   0  0  0  0  0  0  0  0  0  0  0  0
  -22.4900  -12.0960   22.5580 H   0  0  0  0  0  0  0  0  0  0  0  0
  -21.1800  -13.2380   22.4530 H   0  0  0  0  0  0  0  0  0  0  0  0
  -25.3560  -15.3030   20.3110 N   0  0  0  0  0  0  0  0  0  0  0  0
  -24.6180  -15.9710   20.5040 H   0  0  0  0  0  0  0  0  0  0  0  0
  -26.2040  -15.7380   19.9680 H   0  0  0  0  0  0  0  0  0  0  0  0
  -33.2820  -19.0260   19.6840 C   0  0  0  0  0  2  0  0  0  0  0  0
  -34.1190  -19.9860   18.8850 C   0  0  0  0  0  2  0  0  0  0  0  0
  -32.5970  -20.0920   18.8500 C   0  0  0  0  0  3  0  0  0  0  0  0
  -27.2740  -22.1110   19.4010 C   0  0  0  0  0  1  0  0  0  0  0  0
  -28.3890  -23.1680   19.3340 C   0  0  0  0  0  3  0  0  0  0  0  0
  -27.7030  -24.6840   19.7250 C   0  0  0  0  0  2  0  0  0  0  0  0
  -28.0020  -26.1690   19.3700 O   0  0  0  0  0  0  0  0  0  0  0  0
  -24.4710  -31.5750   22.9330 C   0  0  0  0  0  0  0  0  0  0  0  0
  -26.9500  -27.1490   19.4500 C   0  0  0  0  0  0  0  0  0  0  0  0
  -23.2120  -30.2990   21.2410 C   0  0  0  0  0  3  0  0  0  0  0  0
  -24.6120  -28.8580   19.6400 C   0  0  0  0  0  0  0  0  0  0  0  0
  -25.7550  -30.6070   20.9920 C   0  0  0  0  0  2  0  0  0  0  0  0
  -25.8120  -29.2710   20.2350 C   0  0  0  0  0  0  0  0  0  0  0  0
  -26.9840  -28.4330   20.1270 C   0  0  0  0  0  3  0  0  0  0  0  0
  -25.7280  -26.8500   18.8080 C   0  0  0  0  0  3  0  0  0  0  0  0
  -24.5820  -27.6620   18.9110 C   0  0  0  0  0  3  0  0  0  0  0  0
  -23.3800  -29.7340   19.8060 C   0  0  0  0  0  2  0  0  0  0  0  0
  -24.5010  -30.8440   21.7780 N   0  0  0  0  0  0  0  0  0  0  0  0
  -23.4060  -31.8070   23.5270 O   0  0  0  0  0  0  0  0  0  0  0  0
  -22.5830  -29.2130   22.1490 C   0  0  0  0  0  0  0  0  0  0  0  0
  -21.2510  -29.0450   22.0710 N   0  0  0  0  0  0  0  0  0  0  0  0
  -23.2950  -28.5260   22.8870 O   0  0  0  0  0  0  0  0  0  0  0  0
  -20.7350  -29.6470   21.4460 H   0  0  0  0  0  0  0  0  0  0  0  0
  -17.8970  -27.8090   22.6500 C   0  0  0  0  0  0  0  0  0  0  0  0
  -20.4680  -28.0460   22.8030 C   0  0  0  0  0  3  0  0  0  0  0  0
  -20.5340  -26.6690   22.1050 C   0  0  0  0  0  2  0  0  0  0  0  0
  -19.3780  -26.4320   21.1270 C   0  0  0  0  0  2  0  0  0  0  0  0
  -18.0330  -26.5220   21.8530 C   0  0  0  0  0  2  0  0  0  0  0  0
  -19.0400  -28.5320   23.0830 C   0  0  0  0  0  0  0  0  0  0  0  0
  -18.8570  -29.7380   23.7930 C   0  0  0  0  0  3  0  0  0  0  0  0
  -17.5640  -30.2200   24.0740 C   0  0  0  0  0  3  0  0  0  0  0  0
  -16.4360  -29.4920   23.6560 C   0  0  0  0  0  3  0  0  0  0  0  0
  -16.6040  -28.2880   22.9500 C   0  0  0  0  0  3  0  0  0  0  0  0
  -25.7710  -32.1730   23.5520 C   0  0  0  0  0  3  0  0  0  0  0  0
  -26.3320  -31.3210   24.7570 C   0  0  1  0  0  0  0  0  0  0  0  0
  -25.2800  -31.0140   25.8480 C   0  0  0  0  0  1  0  0  0  0  0  0
  -26.8960  -29.9710   24.2590 C   0  0  0  0  0  1  0  0  0  0  0  0
  -27.5080  -32.0720   25.4250 C   0  0  0  0  0  1  0  0  0  0  0  0
  -25.4670  -33.5450   23.9910 N   0  0  0  0  0  0  0  0  0  0  0  0
  -25.7960  -34.6540   23.3160 C   0  0  0  0  0  0  0  0  0  0  0  0
  -26.4560  -34.6300   22.2740 O   0  0  0  0  0  0  0  0  0  0  0  0
  -24.8830  -33.6380   24.8080 H   0  0  0  0  0  0  0  0  0  0  0  0
  -24.0810  -36.4850   23.1190 C   0  0  0  0  0  1  0  0  0  0  0  0
  -25.3210  -36.0050   23.8880 C   0  0  0  0  0  3  0  0  0  0  0  0
  -27.4610  -36.8080   24.7850 C   0  0  0  0  0  1  0  0  0  0  0  0
  -26.3600  -37.0570   23.8580 N   0  0  0  0  0  0  0  0  0  0  0  0
  -25.9600  -37.9650   24.0790 H   0  0  0  0  0  0  0  0  0  0  0  0
  -30.7000  -25.5360   21.8870 C   0  0  0  0  0  1  0  0  0  0  0  0
  -29.9080  -24.5320   21.2590 O   0  0  0  0  0  0  0  0  0  0  0  0
  1  2  1  0
  2  6  2  0
  3  4  1  0
  3  1  2  0
  4 19  1  0
  4  5  2  0
  5  6  1  0
  6 97  1  0
  7 20  1  0
  8 13  1  0
  9 10  1  0
  9  8  1  0
 11 10  1  0
 11 24  1  0
 11 12  1  0
 13  7  1  0
 13 12  1  0
 14  7  2  0
 15 17  1  0
 16 19  1  0
 18 16  2  0
 18 20  1  0
 19 15  2  0
 20 17  1  0
 21 22  2  0
 22 41  1  0
 23 22  1  0
 23 26  1  0
 24 25  1  0
 24 21  1  0
 25 23  2  0
 26 27  1  0
 27 28  2  0
 29 32  1  0
 29 28  1  0
 30 29  2  0
 31 30  1  0
 31 26  2  0
 32 33  1  0
 33 34  1  0
 34 35  2  0
 36 35  1  0
 36 40  1  0
 37 36  2  0
 38 33  2  0
 38 37  1  0
 39 38  1  0
 41 42  1  0
 42 45  1  0
 42 44  1  0
 43 41  2  0
 46 21  1  0
 46 47  1  0
 48 46  1  0
 50 49  1  0
 51 50  1  0
 51  3  1  0
 51 49  1  0
 53 52  1  0
 53 54  1  0
 53  5  1  0
 55 57  1  0
 55 54  1  0
 56 67  2  0
 57 62  1  0
 58 66  1  0
 58 68  1  0
 59 65  1  0
 59 61  1  0
 60 66  1  0
 61 60  1  0
 62 61  2  0
 63 64  1  0
 63 57  2  0
 64 59  2  0
 65 58  1  0
 66 56  1  0
 68 70  2  0
 69 68  1  0
 71 69  1  0
 72 81  2  0
 72 77  1  0
 73 69  1  0
 73 77  1  0
 74 73  1  0
 75 76  1  0
 75 74  1  0
 76 72  1  0
 77 78  2  0
 78 79  1  0
 80 79  2  0
 81 80  1  0
 82 56  1  0
 82 87  1  0
 82 83  1  0
 83 86  1  1
 83 84  1  0
 85 83  1  0
 87 90  1  0
 88 92  1  0
 88 87  1  0
 89 88  2  0
 92 91  1  0
 94 92  1  0
 94 95  1  0
 94 93  1  0
 97 96  1  0
M  ISO  4   7 100  20 100  54 101  55 101
M  END
>  <TORSDO>  (3) 
F 20

>  <SCORE>  (3) 
-13.570

>  <name>  (3) 
2

>  <ligand_id>  (3) 
2

>  <original_smiles>  (3) 
[H]c1c([H])c([H])c2c(c1[H])C([H])([H])C([H])([H])C([H])([H])C2([H])N([H])C(=O)C1([H])N(C(=O)C([H])(N([H])C(=O)C([H])(N([H])C([H])([H])[H])C([H])([H])[H])C(C([H])([H])[H])(C([H])([H])[H])C([H])([H])[H])C([H])([H])c2c([H])c(OC([H])([H])C([H])(c3c(OC([H])([H])[H])c([H])c([H])c(C4([H])C([H])([H])C4([H])[H])c3C3([H])C([H])([H])C([H])([H])N(C(=O)N4C([H])([H])C([H])([H])C([H])([H])C([H])(n5nc(-c6c([H])c([H])c(Oc7c([H])c([H])c(F)c([H])c7F)c([H])c6[H])c(C(=O)N([H])[H])c5N([H])[H])C4([H])[H])C([H])([H])C3([H])[H])C([H])([H])[H])c([H])c([H])c2C1([H])[H]

>  <smiles>  (3) 
[H]c1c([H])c([H])c2c(c1[H])C([H])([H])C([H])([H])C([H])([H])C2([H])N([H])C(=O)C1([H])N(C(=O)C([H])(N([H])C(=O)C([H])(N([H])C([H])([H])[H])C([H])([H])[H])C(C([H])([H])[H])(C([H])([H])[H])C([H])([H])[H])C([H])([H])c2c([H])c(OC([H])([H])C([H])(c3c(OC([H])([H])[H])c([H])c([H])c(C4([H])C([H])([H])C4([H])[H])c3C3([H])C([H])([H])C([H])([H])N(C(=O)N4C([H])([H])C([H])([H])C([H])([H])C([H])(n5nc(-c6c([H])c([H])c(Oc7c([H])c([H])c(F)c([H])c7F)c([H])c6[H])c(C(=O)N([H])[H])c5N([H])[H])C4([H])[H])C([H])([H])C3([H])[H])C([H])([H])[H])c([H])c([H])c2C1([H])[H]

$$$$
3:0:0
     RDKit          3D

 98107  0  0  1  0  0  0  0  0999 V2000
  -30.0660  -19.1180   15.8350 C   0  0  0  0  0  3  0  0  0  0  0  0
  -30.2380  -20.5010   15.6980 C   0  0  0  0  0  3  0  0  0  0  0  0
  -29.9540  -18.5540   17.1130 C   0  0  0  0  0  3  0  0  0  0  0  0
  -30.4040  -23.5190   17.8340 C   0  0  0  0  0  3  0  0  0  0  0  0
  -30.2530  -21.3260   16.8410 C   0  0  0  0  0  0  0  0  0  0  0  0
  -30.0930  -20.7770   18.1490 C   0  0  0  0  0  0  0  0  0  0  0  0
  -29.9960  -19.3560   18.2870 C   0  0  0  0  0  0  0  0  0  0  0  0
  -30.4250  -22.7180   16.6780 C   0  0  0  0  0  0  0  0  0  0  0  0
  -30.1840  -22.9230   19.0820 C   0  0  0  0  0  0  0  0  0  0  0  0
  -30.0290  -21.5870   19.2380 N   0  0  0  0  0  0  0  0  0  0  0  0
  -30.7290  -24.6380   15.2580 C   0  0  0  0  0  1  0  0  0  0  0  0
  -30.5880  -23.2300   15.4050 O   0  0  0  0  0  0  0  0  0  0  0  0
  -30.5790  -23.2740   21.5790 C   0  0  0  0  0  1  0  0  0  0  0  0
  -29.9650  -23.8380   20.2840 C   0  0  0  0  0  3  0  0  0  0  0  0
  -28.4750  -24.2220   20.4270 C   0  0  0  0  0  2  0  0  0  0  0  0
  -28.2310  -25.5810   21.1120 C   0  0  0  0  0  2  0  0  0  0  0  0
  -28.2980  -26.6720   20.1800 O   0  0  0  0  0  0  0  0  0  0  0  0
  -24.5500  -31.8790   23.2210 C   0  0  0  0  0  0  0  0  0  0  0  0
  -27.1510  -27.4290   20.1480 C   0  0  0  0  0  0  0  0  0  0  0  0
  -23.3270  -30.4830   21.5850 C   0  0  0  0  0  3  0  0  0  0  0  0
  -24.7650  -28.9340   20.1530 C   0  0  0  0  0  0  0  0  0  0  0  0
  -25.8520  -30.8320   21.3720 C   0  0  0  0  0  2  0  0  0  0  0  0
  -25.9270  -29.4610   20.7340 C   0  0  0  0  0  0  0  0  0  0  0  0
  -27.1260  -28.7150   20.7250 C   0  0  0  0  0  3  0  0  0  0  0  0
  -25.9800  -26.9120   19.5590 C   0  0  0  0  0  3  0  0  0  0  0  0
  -24.7860  -27.6600   19.5580 C   0  0  0  0  0  3  0  0  0  0  0  0
  -23.5240  -29.7980   20.2040 C   0  0  0  0  0  2  0  0  0  0  0  0
  -24.5940  -31.0800   22.1190 N   0  0  0  0  0  0  0  0  0  0  0  0
  -23.4740  -32.1570   23.7670 O   0  0  0  0  0  0  0  0  0  0  0  0
  -22.6730  -29.4690   22.5490 C   0  0  0  0  0  0  0  0  0  0  0  0
  -21.3440  -29.3030   22.4340 N   0  0  0  0  0  0  0  0  0  0  0  0
  -23.3550  -28.8340   23.3590 O   0  0  0  0  0  0  0  0  0  0  0  0
  -20.8560  -29.8680   21.7520 H   0  0  0  0  0  0  0  0  0  0  0  0
  -17.9600  -28.1540   22.9550 C   0  0  0  0  0  0  0  0  0  0  0  0
  -20.5220  -28.3760   23.2100 C   0  0  0  0  0  3  0  0  0  0  0  0
  -20.6010  -26.9450   22.6280 C   0  0  0  0  0  2  0  0  0  0  0  0
  -19.4870  -26.6400   21.6230 C   0  0  0  0  0  2  0  0  0  0  0  0
  -18.1120  -26.8030   22.2760 C   0  0  0  0  0  2  0  0  0  0  0  0
  -19.0910  -28.8990   23.3790 C   0  0  0  0  0  0  0  0  0  0  0  0
  -18.8940  -30.1640   23.9730 C   0  0  0  0  0  3  0  0  0  0  0  0
  -17.5980  -30.6840   24.1490 C   0  0  0  0  0  3  0  0  0  0  0  0
  -16.4800  -29.9350   23.7410 C   0  0  0  0  0  3  0  0  0  0  0  0
  -16.6620  -28.6720   23.1510 C   0  0  0  0  0  3  0  0  0  0  0  0
  -25.8440  -32.4990   23.8360 C   0  0  0  0  0  3  0  0  0  0  0  0
  -25.5480  -33.8980   24.1700 N   0  0  0  0  0  0  0  0  0  0  0  0
  -25.8880  -34.9490   23.4120 C   0  0  0  0  0  0  0  0  0  0  0  0
  -26.5560  -34.8420   22.3780 O   0  0  0  0  0  0  0  0  0  0  0  0
  -24.9570  -34.0560   24.9730 H   0  0  0  0  0  0  0  0  0  0  0  0
  -24.1760  -36.7580   23.0590 C   0  0  0  0  0  1  0  0  0  0  0  0
  -25.4130  -36.3400   23.8720 C   0  0  0  0  0  3  0  0  0  0  0  0
  -27.5570  -37.2010   24.7040 C   0  0  0  0  0  1  0  0  0  0  0  0
  -26.4540  -37.3850   23.7640 N   0  0  0  0  0  0  0  0  0  0  0  0
  -26.0570  -38.3070   23.9180 H   0  0  0  0  0  0  0  0  0  0  0  0
  -26.3680  -31.7200   25.1040 C   0  0  1  0  0  0  0  0  0  0  0  0
  -25.2830  -31.4850   26.1830 C   0  0  0  0  0  1  0  0  0  0  0  0
  -26.9370  -30.3400   24.6980 C   0  0  0  0  0  1  0  0  0  0  0  0
  -27.5300  -32.5030   25.7580 C   0  0  0  0  0  1  0  0  0  0  0  0
  -29.9620  -18.7900   19.5600 O   0  0  0  0  0  0  0  0  0  0  0  0
  -29.9580  -17.3590   19.6510 C   0  0  0  0  0  2  0  0  0  0  0  0
  -30.2090  -16.8220   21.0770 C   0  0  0  0  0  2  0  0  0  0  0  0
  -30.6610  -14.4080   20.5520 C   0  0  0  0  0  0  0  0  0  0  0  0
  -30.3660  -12.2780   19.3500 C   0  0  0  0  0  2  0  0  0  0  0  0
  -29.4270  -12.5170   18.1500 C   0  0  0  0  0  2  0  0  0  0  0  0
  -27.9500  -12.3900   18.5700 C   0  0  0  0  0  2  0  0  0  0  0  0
  -27.6190  -13.2020   19.8500 C   0  0  0  0  0  3  0  0  0  0  0  0
  -28.6640  -12.9290   20.9560 C   0  0  0  0  0  2  0  0  0  0  0  0
  -29.9970  -13.2320   20.4070 N   0  0  0  0  0  0  0  0  0  0  0  0
  -31.7610  -14.6400   20.0430 O   0  0  0  0  0  0  0  0  0  0  0  0
  -29.9550  -15.3770   21.1530 N   0  0  0  0  0  0  0  0  0  0  0  0
  -29.0700  -15.0940   21.5480 H   0  0  0  0  0  0  0  0  0  0  0  0
  -25.2120  -13.8260   20.5280 C   0  0  0  0  0  0  0  0  0  0  0  0
  -24.1390  -13.0590   20.8950 C   0  0  0  0  0  0  0  0  0  0  0  0
  -24.5960  -11.7060   20.8760 C   0  0  0  0  0  0  0  0  0  0  0  0
  -26.2570  -12.9390   20.3130 N   0  0  0  0  0  0  0  0  0  0  0  0
  -25.8880  -11.6590   20.5770 N   0  0  0  0  0  0  0  0  0  0  0  0
  -23.8640  -10.4470   21.0690 C   0  0  0  0  0  0  0  0  0  0  0  0
  -24.2990   -9.4740   21.9940 C   0  0  0  0  0  3  0  0  0  0  0  0
  -23.5680   -8.2790   22.1740 C   0  0  0  0  0  3  0  0  0  0  0  0
  -22.3900   -8.0500   21.4240 C   0  0  0  0  0  0  0  0  0  0  0  0
  -21.9740   -9.0110   20.4850 C   0  0  0  0  0  3  0  0  0  0  0  0
  -22.7060  -10.1970   20.3060 C   0  0  0  0  0  3  0  0  0  0  0  0
  -21.6290   -6.9100   21.5130 O   0  0  0  0  0  0  0  0  0  0  0  0
  -21.5950   -6.1540   22.6570 C   0  0  0  0  0  0  0  0  0  0  0  0
  -21.2050   -6.7000   23.8990 C   0  0  0  0  0  3  0  0  0  0  0  0
  -21.1200   -5.8730   25.0360 C   0  0  0  0  0  3  0  0  0  0  0  0
  -21.4130   -4.4990   24.9320 C   0  0  0  0  0  0  0  0  0  0  0  0
  -21.7940   -3.9530   23.6940 C   0  0  0  0  0  3  0  0  0  0  0  0
  -21.8840   -4.7780   22.5590 C   0  0  0  0  0  0  0  0  0  0  0  0
  -22.2330   -4.2420   21.3650 F   0  0  0  0  0  0  0  0  0  0  0  0
  -21.3230   -3.7020   26.0210 F   0  0  0  0  0  0  0  0  0  0  0  0
  -22.7420  -13.5410   21.1590 C   0  0  0  0  0  0  0  0  0  0  0  0
  -22.0080  -12.8510   22.0240 N   0  0  0  0  0  0  0  0  0  0  0  0
  -22.3080  -14.5670   20.6350 O   0  0  0  0  0  0  0  0  0  0  0  0
  -22.3740  -12.0220   22.4700 H   0  0  0  0  0  0  0  0  0  0  0  0
  -21.0710  -13.1550   22.2480 H   0  0  0  0  0  0  0  0  0  0  0  0
  -25.3800  -15.1930   20.3430 N   0  0  0  0  0  0  0  0  0  0  0  0
  -24.6120  -15.8500   20.4390 H   0  0  0  0  0  0  0  0  0  0  0  0
  -26.2350  -15.6270   20.0170 H   0  0  0  0  0  0  0  0  0  0  0  0
  1  3  1  0
  2  1  2  0
  2  5  1  0
  3  7  2  0
  4  9  1  0
  5  6  2  0
  6  7  1  0
  6 10  1  0
  7 58  1  0
  8  5  1  0
  8  4  2  0
  9 10  2  0
  9 14  1  0
 11 12  1  0
 12  8  1  0
 14 15  1  0
 14 13  1  0
 15 16  1  0
 17 16  1  0
 18 29  2  0
 19 17  1  0
 19 24  1  0
 20 28  1  0
 20 30  1  0
 21 27  1  0
 21 23  1  0
 22 28  1  0
 23 22  1  0
 24 23  2  0
 25 19  2  0
 26 25  1  0
 26 21  2  0
 27 20  1  0
 28 18  1  0
 30 32  2  0
 31 30  1  0
 33 31  1  0
 34 43  2  0
 34 39  1  0
 35 31  1  0
 35 39  1  0
 36 35  1  0
 37 38  1  0
 37 36  1  0
 38 34  1  0
 39 40  2  0
 40 41  1  0
 42 41  2  0
 43 42  1  0
 44 18  1  0
 44 45  1  0
 44 54  1  0
 45 48  1  0
 46 50  1  0
 46 45  1  0
 47 46  2  0
 50 49  1  0
 52 50  1  0
 52 53  1  0
 52 51  1  0
 54 57  1  1
 54 55  1  0
 56 54  1  0
 58 59  1  0
 59 60  1  0
 60 69  1  0
 61 69  1  0
 62 67  1  0
 63 64  1  0
 63 62  1  0
 65 64  1  0
 65 74  1  0
 65 66  1  0
 67 61  1  0
 67 66  1  0
 68 61  2  0
 69 70  1  0
 71 72  2  0
 72 91  1  0
 73 72  1  0
 73 76  1  0
 74 71  1  0
 74 75  1  0
 75 73  2  0
 76 77  1  0
 77 78  2  0
 79 82  1  0
 79 78  1  0
 80 79  2  0
 81 80  1  0
 81 76  2  0
 82 83  1  0
 83 84  1  0
 84 85  2  0
 86 85  1  0
 86 90  1  0
 87 86  2  0
 88 83  2  0
 88 87  1  0
 89 88  1  0
 91 92  1  0
 92 95  1  0
 92 94  1  0
 93 91  2  0
 96 97  1  0
 96 71  1  0
 98 96  1  0
M  ISO  4  16 101  17 101  61 100  69 100
M  END
>  <TORSDO>  (4) 
F 23

>  <SCORE>  (4) 
-12.980

>  <name>  (4) 
3

>  <ligand_id>  (4) 
3

>  <original_smiles>  (4) 
[H]c1c([H])c([H])c2c(c1[H])C([H])([H])C([H])([H])C([H])([H])C2([H])N([H])C(=O)C1([H])N(C(=O)C([H])(N([H])C(=O)C([H])(N([H])C([H])([H])[H])C([H])([H])[H])C(C([H])([H])[H])(C([H])([H])[H])C([H])([H])[H])C([H])([H])c2c([H])c(OC([H])([H])C([H])([H])C([H])(c3nc4c(OC([H])([H])C([H])([H])N([H])C(=O)N5C([H])([H])C([H])([H])C([H])([H])C([H])(n6nc(-c7c([H])c([H])c(Oc8c([H])c([H])c(F)c([H])c8F)c([H])c7[H])c(C(=O)N([H])[H])c6N([H])[H])C5([H])[H])c([H])c([H])c([H])c4c(OC([H])([H])[H])c3[H])C([H])([H])[H])c([H])c([H])c2C1([H])[H]

>  <smiles>  (4) 
[H]c1c([H])c([H])c2c(c1[H])C([H])([H])C([H])([H])C([H])([H])C2([H])N([H])C(=O)C1([H])N(C(=O)C([H])(N([H])C(=O)C([H])(N([H])C([H])([H])[H])C([H])([H])[H])C(C([H])([H])[H])(C([H])([H])[H])C([H])([H])[H])C([H])([H])c2c([H])c(OC([H])([H])C([H])([H])C([H])(c3nc4c(OC([H])([H])C([H])([H])N([H])C(=O)N5C([H])([H])C([H])([H])C([H])([H])C([H])(n6nc(-c7c([H])c([H])c(Oc8c([H])c([H])c(F)c([H])c8F)c([H])c7[H])c(C(=O)N([H])[H])c6N([H])[H])C5([H])[H])c([H])c([H])c([H])c4c(OC([H])([H])[H])c3[H])C([H])([H])[H])c([H])c([H])c2C1([H])[H]

$$$$
4:0:0
     RDKit          3D

 96105  0  0  1  0  0  0  0  0999 V2000
  -28.3460  -22.0990   20.2970 C   0  0  0  0  0  3  0  0  0  0  0  0
  -28.8040  -20.7830   20.0260 C   0  0  0  0  0  3  0  0  0  0  0  0
  -30.4730  -21.0410   21.7430 C   0  0  0  0  0  3  0  0  0  0  0  0
  -28.8650  -22.8690   21.3710 C   0  0  0  0  0  0  0  0  0  0  0  0
  -29.8500  -20.2190   20.7890 C   0  0  0  0  0  0  0  0  0  0  0  0
  -29.9690  -22.3270   22.0890 C   0  0  0  0  0  0  0  0  0  0  0  0
  -28.0920  -24.0610   21.9550 C   0  0  0  0  0  3  0  0  0  0  0  0
  -26.7960  -24.5410   21.3690 C   0  0  0  0  0  3  0  0  0  0  0  0
  -27.9100  -25.5710   21.5970 C   0  0  0  0  0  3  0  0  0  0  0  0
  -24.6150  -23.3290   21.8560 C   0  0  0  0  0  1  0  0  0  0  0  0
  -25.6070  -24.8090   23.6430 C   0  0  0  0  0  1  0  0  0  0  0  0
  -25.4670  -24.5790   22.1280 C   0  0  0  0  0  3  0  0  0  0  0  0
  -28.0360  -26.3190   20.3600 O   0  0  0  0  0  0  0  0  0  0  0  0
  -24.3490  -31.7500   23.2150 C   0  0  0  0  0  0  0  0  0  0  0  0
  -26.9880  -27.2190   20.2230 C   0  0  0  0  0  0  0  0  0  0  0  0
  -23.1780  -30.3970   21.5070 C   0  0  0  0  0  3  0  0  0  0  0  0
  -24.6560  -28.8340   20.1240 C   0  0  0  0  0  0  0  0  0  0  0  0
  -25.7230  -30.6700   21.4350 C   0  0  0  0  0  2  0  0  0  0  0  0
  -25.8000  -29.3000   20.7860 C   0  0  0  0  0  0  0  0  0  0  0  0
  -26.9660  -28.4940   20.8480 C   0  0  0  0  0  3  0  0  0  0  0  0
  -25.8440  -26.7990   19.5150 C   0  0  0  0  0  3  0  0  0  0  0  0
  -24.6750  -27.5800   19.4900 C   0  0  0  0  0  3  0  0  0  0  0  0
  -23.4370  -29.7300   20.1300 C   0  0  0  0  0  2  0  0  0  0  0  0
  -24.4320  -30.9520   22.1130 N   0  0  0  0  0  0  0  0  0  0  0  0
  -23.2550  -32.0570   23.7050 O   0  0  0  0  0  0  0  0  0  0  0  0
  -22.4500  -29.3900   22.4270 C   0  0  0  0  0  0  0  0  0  0  0  0
  -21.1170  -29.2930   22.2760 N   0  0  0  0  0  0  0  0  0  0  0  0
  -23.0780  -28.7040   23.2360 O   0  0  0  0  0  0  0  0  0  0  0  0
  -20.6660  -29.9010   21.6070 H   0  0  0  0  0  0  0  0  0  0  0  0
  -17.6600  -28.3900   22.7910 C   0  0  0  0  0  0  0  0  0  0  0  0
  -20.2360  -28.3880   23.0100 C   0  0  0  0  0  3  0  0  0  0  0  0
  -20.1910  -26.9950   22.3340 C   0  0  0  0  0  2  0  0  0  0  0  0
  -19.0370  -26.8370   21.3380 C   0  0  0  0  0  2  0  0  0  0  0  0
  -17.6900  -27.0760   22.0270 C   0  0  0  0  0  2  0  0  0  0  0  0
  -18.8550  -29.0110   23.2390 C   0  0  0  0  0  0  0  0  0  0  0  0
  -18.7710  -30.2450   23.9220 C   0  0  0  0  0  3  0  0  0  0  0  0
  -17.5250  -30.8530   24.1590 C   0  0  0  0  0  3  0  0  0  0  0  0
  -16.3440  -30.2250   23.7260 C   0  0  0  0  0  3  0  0  0  0  0  0
  -16.4120  -28.9950   23.0460 C   0  0  0  0  0  3  0  0  0  0  0  0
  -25.6250  -32.3370   23.8990 C   0  0  0  0  0  3  0  0  0  0  0  0
  -25.3600  -33.7510   24.1950 N   0  0  0  0  0  0  0  0  0  0  0  0
  -25.7670  -34.7750   23.4350 C   0  0  0  0  0  0  0  0  0  0  0  0
  -26.4750  -34.6280   22.4350 O   0  0  0  0  0  0  0  0  0  0  0  0
  -24.7440  -33.9480   24.9700 H   0  0  0  0  0  0  0  0  0  0  0  0
  -24.1230  -36.6220   22.9810 C   0  0  0  0  0  1  0  0  0  0  0  0
  -25.3120  -36.1880   23.8510 C   0  0  0  0  0  3  0  0  0  0  0  0
  -27.4400  -37.0080   24.7570 C   0  0  0  0  0  1  0  0  0  0  0  0
  -26.3850  -37.2020   23.7640 N   0  0  0  0  0  0  0  0  0  0  0  0
  -26.0050  -38.1370   23.8860 H   0  0  0  0  0  0  0  0  0  0  0  0
  -26.0430  -31.5590   25.2060 C   0  0  1  0  0  0  0  0  0  0  0  0
  -24.8830  -31.3710   26.2100 C   0  0  0  0  0  1  0  0  0  0  0  0
  -26.5990  -30.1580   24.8570 C   0  0  0  0  0  1  0  0  0  0  0  0
  -27.1840  -32.3190   25.9240 C   0  0  0  0  0  1  0  0  0  0  0  0
  -31.3400  -22.3540   24.0710 C   0  0  0  0  0  1  0  0  0  0  0  0
  -30.4630  -23.0360   23.1680 O   0  0  0  0  0  0  0  0  0  0  0  0
  -30.3220  -18.9170   20.6840 O   0  0  0  0  0  0  0  0  0  0  0  0
  -29.4330  -17.8000   20.5000 C   0  0  0  0  0  2  0  0  0  0  0  0
  -29.9800  -16.5790   21.3040 C   0  0  0  0  0  2  0  0  0  0  0  0
  -30.1130  -14.2980   20.2030 C   0  0  0  0  0  0  0  0  0  0  0  0
  -29.7770  -12.2290   18.8860 C   0  0  0  0  0  2  0  0  0  0  0  0
  -28.7160  -12.4780   17.7910 C   0  0  0  0  0  2  0  0  0  0  0  0
  -27.2890  -12.2600   18.3370 C   0  0  0  0  0  2  0  0  0  0  0  0
  -27.0520  -12.9750   19.6940 C   0  0  0  0  0  3  0  0  0  0  0  0
  -28.2110  -12.7030   20.6760 C   0  0  0  0  0  2  0  0  0  0  0  0
  -29.4620  -13.1150   20.0190 N   0  0  0  0  0  0  0  0  0  0  0  0
  -31.1900  -14.5540   19.6560 O   0  0  0  0  0  0  0  0  0  0  0  0
  -29.4660  -15.2420   20.9190 N   0  0  0  0  0  0  0  0  0  0  0  0
  -28.5580  -14.9810   21.2810 H   0  0  0  0  0  0  0  0  0  0  0  0
  -24.6720  -13.4300   20.5660 C   0  0  0  0  0  0  0  0  0  0  0  0
  -23.6770  -12.5930   20.9990 C   0  0  0  0  0  0  0  0  0  0  0  0
  -24.2210  -11.2740   20.9400 C   0  0  0  0  0  0  0  0  0  0  0  0
  -25.7540  -12.6160   20.2660 N   0  0  0  0  0  0  0  0  0  0  0  0
  -25.4870  -11.3140   20.5450 N   0  0  0  0  0  0  0  0  0  0  0  0
  -23.5870   -9.9710   21.1790 C   0  0  0  0  0  0  0  0  0  0  0  0
  -24.1020   -9.0610   22.1260 C   0  0  0  0  0  3  0  0  0  0  0  0
  -23.4660   -7.8210   22.3480 C   0  0  0  0  0  3  0  0  0  0  0  0
  -22.3010   -7.4810   21.6190 C   0  0  0  0  0  0  0  0  0  0  0  0
  -21.8080   -8.3800   20.6560 C   0  0  0  0  0  3  0  0  0  0  0  0
  -22.4460   -9.6130   20.4350 C   0  0  0  0  0  3  0  0  0  0  0  0
  -21.6310   -6.2880   21.7470 O   0  0  0  0  0  0  0  0  0  0  0  0
  -21.6270   -5.5900   22.9270 C   0  0  0  0  0  0  0  0  0  0  0  0
  -21.1310   -6.1500   24.1250 C   0  0  0  0  0  3  0  0  0  0  0  0
  -21.0850   -5.3720   25.3000 C   0  0  0  0  0  3  0  0  0  0  0  0
  -21.5250   -4.0340   25.2760 C   0  0  0  0  0  0  0  0  0  0  0  0
  -22.0150   -3.4740   24.0830 C   0  0  0  0  0  3  0  0  0  0  0  0
  -22.0640   -4.2480   22.9110 C   0  0  0  0  0  0  0  0  0  0  0  0
  -22.5150   -3.6970   21.7590 F   0  0  0  0  0  0  0  0  0  0  0  0
  -21.4740   -3.2840   26.4020 F   0  0  0  0  0  0  0  0  0  0  0  0
  -22.2720  -12.9850   21.3650 C   0  0  0  0  0  0  0  0  0  0  0  0
  -21.6490  -12.2400   22.2720 N   0  0  0  0  0  0  0  0  0  0  0  0
  -21.7400  -13.9860   20.8870 O   0  0  0  0  0  0  0  0  0  0  0  0
  -22.0970  -11.4350   22.6830 H   0  0  0  0  0  0  0  0  0  0  0  0
  -20.7140  -12.4780   22.5650 H   0  0  0  0  0  0  0  0  0  0  0  0
  -24.7420  -14.8070   20.3780 N   0  0  0  0  0  0  0  0  0  0  0  0
  -23.9450  -15.4200   20.5210 H   0  0  0  0  0  0  0  0  0  0  0  0
  -25.5450  -15.2920   19.9980 H   0  0  0  0  0  0  0  0  0  0  0  0
  1  4  1  0
  2  1  2  0
  2  5  1  0
  3  6  1  0
  4  6  2  0
  5  3  2  0
  6 55  1  0
  7  4  1  0
  8  9  1  0
  8  7  1  0
  8 12  1  0
  9 13  1  0
  9  7  1  0
 10 12  1  0
 12 11  1  0
 14 25  2  0
 15 13  1  0
 15 20  1  0
 16 24  1  0
 16 26  1  0
 17 23  1  0
 17 19  1  0
 18 24  1  0
 19 20  2  0
 19 18  1  0
 21 15  2  0
 22 21  1  0
 22 17  2  0
 23 16  1  0
 24 14  1  0
 26 28  2  0
 27 26  1  0
 29 27  1  0
 30 39  2  0
 30 35  1  0
 31 27  1  0
 31 35  1  0
 32 31  1  0
 33 34  1  0
 33 32  1  0
 34 30  1  0
 35 36  2  0
 36 37  1  0
 38 37  2  0
 39 38  1  0
 40 14  1  0
 40 41  1  0
 40 50  1  0
 41 44  1  0
 42 46  1  0
 42 41  1  0
 43 42  2  0
 46 45  1  0
 48 46  1  0
 48 49  1  0
 48 47  1  0
 50 53  1  1
 50 51  1  0
 52 50  1  0
 55 54  1  0
 56  5  1  0
 57 56  1  0
 57 58  1  0
 59 67  1  0
 60 65  1  0
 61 62  1  0
 61 60  1  0
 63 62  1  0
 63 72  1  0
 63 64  1  0
 65 59  1  0
 65 64  1  0
 66 59  2  0
 67 68  1  0
 67 58  1  0
 69 70  2  0
 70 89  1  0
 71 70  1  0
 71 74  1  0
 72 73  1  0
 72 69  1  0
 73 71  2  0
 74 75  1  0
 75 76  2  0
 77 80  1  0
 77 76  1  0
 78 77  2  0
 79 78  1  0
 79 74  2  0
 80 81  1  0
 81 82  1  0
 82 83  2  0
 84 83  1  0
 84 88  1  0
 85 84  2  0
 86 81  2  0
 86 85  1  0
 87 86  1  0
 89 90  1  0
 90 93  1  0
 90 92  1  0
 91 89  2  0
 94 95  1  0
 94 69  1  0
 96 94  1  0
M  ISO  4   9 101  13 101  59 100  67 100
M  END
>  <TORSDO>  (5) 
F 22

>  <SCORE>  (5) 
-11.089

>  <name>  (5) 
4

>  <ligand_id>  (5) 
4

>  <original_smiles>  (5) 
[H]c1c([H])c([H])c2c(c1[H])C([H])([H])C([H])([H])C([H])([H])C2([H])N([H])C(=O)C1([H])N(C(=O)C([H])(N([H])C(=O)C([H])(N([H])C([H])([H])[H])C([H])([H])[H])C(C([H])([H])[H])(C([H])([H])[H])C([H])([H])[H])C([H])([H])c2c([H])c(OC3([H])C([H])(c4c([H])c([H])c(OC([H])([H])C([H])([H])N([H])C(=O)N5C([H])([H])C([H])([H])C([H])([H])C([H])(n6nc(-c7c([H])c([H])c(Oc8c([H])c([H])c(F)c([H])c8F)c([H])c7[H])c(C(=O)N([H])[H])c6N([H])[H])C5([H])[H])c([H])c4OC([H])([H])[H])C3([H])C([H])(C([H])([H])[H])C([H])([H])[H])c([H])c([H])c2C1([H])[H]

>  <smiles>  (5) 
[H]c1c([H])c([H])c2c(c1[H])C([H])([H])C([H])([H])C([H])([H])C2([H])N([H])C(=O)C1([H])N(C(=O)C([H])(N([H])C(=O)C([H])(N([H])C([H])([H])[H])C([H])([H])[H])C(C([H])([H])[H])(C([H])([H])[H])C([H])([H])[H])C([H])([H])c2c([H])c(OC3([H])C([H])(c4c([H])c([H])c(OC([H])([H])C([H])([H])N([H])C(=O)N5C([H])([H])C([H])([H])C([H])([H])C([H])(n6nc(-c7c([H])c([H])c(Oc8c([H])c([H])c(F)c([H])c8F)c([H])c7[H])c(C(=O)N([H])[H])c6N([H])[H])C5([H])[H])c([H])c4OC([H])([H])[H])C3([H])C([H])(C([H])([H])[H])C([H])([H])[H])c([H])c([H])c2C1([H])[H]

$$$$
5:0:0
     RDKit          3D

 97107  0  0  1  0  0  0  0  0999 V2000
  -28.5390  -23.8800   19.6690 C   0  0  0  0  0  3  0  0  0  0  0  0
  -30.4410  -21.8330   19.7540 C   0  0  0  0  0  3  0  0  0  0  0  0
  -29.8490  -24.1790   19.2270 C   0  0  0  0  0  0  0  0  0  0  0  0
  -28.1650  -22.5910   20.1270 C   0  0  0  0  0  0  0  0  0  0  0  0
  -30.8030  -23.1210   19.2860 C   0  0  0  0  0  0  0  0  0  0  0  0
  -29.1240  -21.5430   20.1770 C   0  0  0  0  0  0  0  0  0  0  0  0
  -32.2390  -23.3260   18.8280 C   0  0  0  0  0  1  0  0  0  0  0  0
  -29.1490  -26.2710   17.7990 C   0  0  0  0  0  2  0  0  0  0  0  0
  -30.1920  -25.5570   18.6360 C   0  0  0  0  0  3  0  0  0  0  0  0
  -29.6870  -26.9550   19.0370 C   0  0  0  0  0  3  0  0  0  0  0  0
  -28.8700  -27.0450   20.1980 O   0  0  0  0  0  0  0  0  0  0  0  0
  -24.7510  -31.9400   23.3270 C   0  0  0  0  0  0  0  0  0  0  0  0
  -27.7190  -27.7980   20.1090 C   0  0  0  0  0  0  0  0  0  0  0  0
  -23.6750  -30.5690   21.5740 C   0  0  0  0  0  3  0  0  0  0  0  0
  -25.2530  -29.1860   20.1190 C   0  0  0  0  0  0  0  0  0  0  0  0
  -26.1860  -31.0590   21.4870 C   0  0  0  0  0  2  0  0  0  0  0  0
  -26.3650  -29.7320   20.7740 C   0  0  0  0  0  0  0  0  0  0  0  0
  -27.6020  -29.0410   20.7730 C   0  0  0  0  0  3  0  0  0  0  0  0
  -26.5860  -27.2590   19.4660 C   0  0  0  0  0  3  0  0  0  0  0  0
  -25.3580  -27.9470   19.4640 C   0  0  0  0  0  3  0  0  0  0  0  0
  -23.9650  -29.9780   20.1690 C   0  0  0  0  0  2  0  0  0  0  0  0
  -24.8860  -31.2000   22.1890 N   0  0  0  0  0  0  0  0  0  0  0  0
  -23.6390  -32.1300   23.8410 O   0  0  0  0  0  0  0  0  0  0  0  0
  -23.0440  -29.4670   22.4560 C   0  0  0  0  0  0  0  0  0  0  0  0
  -21.7320  -29.2380   22.2830 N   0  0  0  0  0  0  0  0  0  0  0  0
  -23.7330  -28.8220   23.2500 O   0  0  0  0  0  0  0  0  0  0  0  0
  -21.2350  -29.8160   21.6200 H   0  0  0  0  0  0  0  0  0  0  0  0
  -18.3860  -27.9280   22.6700 C   0  0  0  0  0  0  0  0  0  0  0  0
  -20.9360  -28.2250   22.9760 C   0  0  0  0  0  3  0  0  0  0  0  0
  -21.0750  -26.8450   22.2930 C   0  0  0  0  0  2  0  0  0  0  0  0
  -19.9860  -26.5760   21.2510 C   0  0  0  0  0  2  0  0  0  0  0  0
  -18.5980  -26.6380   21.8960 C   0  0  0  0  0  2  0  0  0  0  0  0
  -19.4850  -28.6810   23.1620 C   0  0  0  0  0  0  0  0  0  0  0  0
  -19.2320  -29.8930   23.8430 C   0  0  0  0  0  3  0  0  0  0  0  0
  -17.9150  -30.3510   24.0380 C   0  0  0  0  0  3  0  0  0  0  0  0
  -16.8320  -29.5920   23.5620 C   0  0  0  0  0  3  0  0  0  0  0  0
  -17.0670  -28.3830   22.8830 C   0  0  0  0  0  3  0  0  0  0  0  0
  -25.9810  -32.6010   24.0220 C   0  0  0  0  0  3  0  0  0  0  0  0
  -26.4680  -31.8150   25.3020 C   0  0  1  0  0  0  0  0  0  0  0  0
  -25.3370  -31.5030   26.3090 C   0  0  0  0  0  1  0  0  0  0  0  0
  -27.1250  -30.4740   24.8990 C   0  0  0  0  0  1  0  0  0  0  0  0
  -27.5530  -32.6350   26.0400 C   0  0  0  0  0  1  0  0  0  0  0  0
  -25.6060  -33.9780   24.3700 N   0  0  0  0  0  0  0  0  0  0  0  0
  -25.9400  -35.0600   23.6530 C   0  0  0  0  0  0  0  0  0  0  0  0
  -26.6660  -35.0070   22.6580 O   0  0  0  0  0  0  0  0  0  0  0  0
  -24.9640  -34.0910   25.1390 H   0  0  0  0  0  0  0  0  0  0  0  0
  -24.1680  -36.7990   23.2540 C   0  0  0  0  0  1  0  0  0  0  0  0
  -25.3810  -36.4190   24.1170 C   0  0  0  0  0  3  0  0  0  0  0  0
  -27.4330  -37.3640   25.0800 C   0  0  0  0  0  1  0  0  0  0  0  0
  -26.3780  -37.5090   24.0800 N   0  0  0  0  0  0  0  0  0  0  0  0
  -25.9310  -38.4110   24.2210 H   0  0  0  0  0  0  0  0  0  0  0  0
  -25.7440  -22.4250   19.3530 C   0  0  0  0  0  1  0  0  0  0  0  0
  -26.3000  -23.3200   21.6640 C   0  0  0  0  0  1  0  0  0  0  0  0
  -26.7130  -22.3510   20.5470 C   0  0  0  0  0  3  0  0  0  0  0  0
  -28.7380  -20.2990   20.6630 O   0  0  0  0  0  0  0  0  0  0  0  0
  -30.8580  -14.9830   20.0820 C   0  0  0  0  0  0  0  0  0  0  0  0
  -30.5730  -12.7400   19.0570 C   0  0  0  0  0  2  0  0  0  0  0  0
  -29.5870  -12.7860   17.8720 C   0  0  0  0  0  2  0  0  0  0  0  0
  -28.1460  -12.5640   18.3690 C   0  0  0  0  0  2  0  0  0  0  0  0
  -27.7980  -13.4790   19.5670 C   0  0  0  0  0  3  0  0  0  0  0  0
  -28.9020  -13.4260   20.6550 C   0  0  0  0  0  2  0  0  0  0  0  0
  -30.1710  -13.7940   20.0150 N   0  0  0  0  0  0  0  0  0  0  0  0
  -32.0260  -15.0230   19.6840 O   0  0  0  0  0  0  0  0  0  0  0  0
  -30.5400  -18.6770   21.1600 C   0  0  0  0  0  2  0  0  0  0  0  0
  -28.3610  -17.9710   20.4010 C   0  0  0  0  0  2  0  0  0  0  0  0
  -31.1650  -17.3090   20.7740 C   0  0  0  0  0  2  0  0  0  0  0  0
  -28.8770  -16.5430   20.0850 C   0  0  0  0  0  2  0  0  0  0  0  0
  -29.3870  -19.0870   20.2400 C   0  0  0  0  0  3  0  0  0  0  0  0
  -30.2520  -16.1590   20.4980 N   0  0  0  0  0  0  0  0  0  0  0  0
  -25.4490  -14.0870   20.4170 C   0  0  0  0  0  0  0  0  0  0  0  0
  -24.4000  -13.3050   20.8160 C   0  0  0  0  0  0  0  0  0  0  0  0
  -24.8590  -11.9570   20.7330 C   0  0  0  0  0  0  0  0  0  0  0  0
  -26.4770  -13.2060   20.1130 N   0  0  0  0  0  0  0  0  0  0  0  0
  -26.1330  -11.9210   20.3690 N   0  0  0  0  0  0  0  0  0  0  0  0
  -24.1450  -10.6900   20.9190 C   0  0  0  0  0  0  0  0  0  0  0  0
  -24.5580   -9.7470   21.8860 C   0  0  0  0  0  3  0  0  0  0  0  0
  -23.8450   -8.5420   22.0580 C   0  0  0  0  0  3  0  0  0  0  0  0
  -22.7070   -8.2720   21.2620 C   0  0  0  0  0  0  0  0  0  0  0  0
  -22.3140   -9.2040   20.2840 C   0  0  0  0  0  3  0  0  0  0  0  0
  -23.0290  -10.4010   20.1120 C   0  0  0  0  0  3  0  0  0  0  0  0
  -21.9690   -7.1170   21.3400 O   0  0  0  0  0  0  0  0  0  0  0  0
  -21.8070   -6.4470   22.5260 C   0  0  0  0  0  0  0  0  0  0  0  0
  -21.2000   -7.0550   23.6480 C   0  0  0  0  0  3  0  0  0  0  0  0
  -20.9900   -6.3080   24.8230 C   0  0  0  0  0  3  0  0  0  0  0  0
  -21.3770   -4.9560   24.8770 C   0  0  0  0  0  0  0  0  0  0  0  0
  -21.9780   -4.3490   23.7600 C   0  0  0  0  0  3  0  0  0  0  0  0
  -22.1890   -5.0930   22.5870 C   0  0  0  0  0  0  0  0  0  0  0  0
  -22.7490   -4.4980   21.5050 F   0  0  0  0  0  0  0  0  0  0  0  0
  -21.1670   -4.2350   26.0040 F   0  0  0  0  0  0  0  0  0  0  0  0
  -23.0160  -13.7770   21.1560 C   0  0  0  0  0  0  0  0  0  0  0  0
  -22.3230  -13.0630   22.0350 N   0  0  0  0  0  0  0  0  0  0  0  0
  -22.5570  -14.8120   20.6770 O   0  0  0  0  0  0  0  0  0  0  0  0
  -22.7090  -12.2260   22.4490 H   0  0  0  0  0  0  0  0  0  0  0  0
  -21.3970  -13.3630   22.3030 H   0  0  0  0  0  0  0  0  0  0  0  0
  -25.5960  -15.4610   20.2620 N   0  0  0  0  0  0  0  0  0  0  0  0
  -24.8220  -16.0960   20.4260 H   0  0  0  0  0  0  0  0  0  0  0  0
  -26.4190  -15.9220   19.8980 H   0  0  0  0  0  0  0  0  0  0  0  0
  1  4  1  0
  2  6  1  0
  3  5  1  0
  3  1  2  0
  4  6  2  0
  4 54  1  0
  5  2  2  0
  6 55  1  0
  7  5  1  0
  8  9  1  0
  8 10  1  0
  9 10  1  0
  9  3  1  0
 10 11  1  0
 12 23  2  0
 13 11  1  0
 13 18  1  0
 14 22  1  0
 14 24  1  0
 15 21  1  0
 15 17  1  0
 16 22  1  0
 17 16  1  0
 18 17  2  0
 19 13  2  0
 20 19  1  0
 20 15  2  0
 21 14  1  0
 22 12  1  0
 24 26  2  0
 25 24  1  0
 27 25  1  0
 28 37  2  0
 28 33  1  0
 29 25  1  0
 29 33  1  0
 30 29  1  0
 31 32  1  0
 31 30  1  0
 32 28  1  0
 33 34  2  0
 34 35  1  0
 36 35  2  0
 37 36  1  0
 38 12  1  0
 38 43  1  0
 38 39  1  0
 39 42  1  1
 39 40  1  0
 41 39  1  0
 43 46  1  0
 44 48  1  0
 44 43  1  0
 45 44  2  0
 48 47  1  0
 50 48  1  0
 50 51  1  0
 50 49  1  0
 52 54  1  0
 54 53  1  0
 56 69  1  0
 57 62  1  0
 58 59  1  0
 58 57  1  0
 60 59  1  0
 60 73  1  0
 60 61  1  0
 62 56  1  0
 62 61  1  0
 63 56  2  0
 66 64  1  0
 67 65  1  0
 67 69  1  0
 68 65  1  0
 68 55  1  0
 68 64  1  0
 69 66  1  0
 70 71  2  0
 71 90  1  0
 72 71  1  0
 72 75  1  0
 73 74  1  0
 73 70  1  0
 74 72  2  0
 75 76  1  0
 76 77  2  0
 78 81  1  0
 78 77  1  0
 79 78  2  0
 80 79  1  0
 80 75  2  0
 81 82  1  0
 82 87  2  0
 82 83  1  0
 83 84  2  0
 84 85  1  0
 85 89  1  0
 86 85  2  0
 87 86  1  0
 88 87  1  0
 90 91  1  0
 91 94  1  0
 91 93  1  0
 92 90  2  0
 95 70  1  0
 95 96  1  0
 97 95  1  0
M  ISO  4  10 101  11 101  56 100  69 100
M  END
>  <TORSDO>  (6) 
F 19

>  <SCORE>  (6) 
-13.884

>  <name>  (6) 
5

>  <ligand_id>  (6) 
5

>  <original_smiles>  (6) 
[H]c1c([H])c([H])c2c(c1[H])C([H])([H])C([H])([H])C([H])([H])C2([H])N([H])C(=O)C1([H])N(C(=O)C([H])(N([H])C(=O)C([H])(N([H])C([H])([H])[H])C([H])([H])[H])C(C([H])([H])[H])(C([H])([H])[H])C([H])([H])[H])C([H])([H])c2c([H])c(OC3([H])C([H])([H])C3([H])c3c([H])c(C([H])(C([H])([H])[H])C([H])([H])[H])c(OC4([H])C([H])([H])C([H])([H])N(C(=O)N5C([H])([H])C([H])([H])C([H])([H])C([H])(n6nc(-c7c([H])c([H])c(Oc8c([H])c([H])c(F)c([H])c8F)c([H])c7[H])c(C(=O)N([H])[H])c6N([H])[H])C5([H])[H])C([H])([H])C4([H])[H])c([H])c3C([H])([H])[H])c([H])c([H])c2C1([H])[H]

>  <smiles>  (6) 
[H]c1c([H])c([H])c2c(c1[H])C([H])([H])C([H])([H])C([H])([H])C2([H])N([H])C(=O)C1([H])N(C(=O)C([H])(N([H])C(=O)C([H])(N([H])C([H])([H])[H])C([H])([H])[H])C(C([H])([H])[H])(C([H])([H])[H])C([H])([H])[H])C([H])([H])c2c([H])c(OC3([H])C([H])([H])C3([H])c3c([H])c(C([H])(C([H])([H])[H])C([H])([H])[H])c(OC4([H])C([H])([H])C([H])([H])N(C(=O)N5C([H])([H])C([H])([H])C([H])([H])C([H])(n6nc(-c7c([H])c([H])c(Oc8c([H])c([H])c(F)c([H])c8F)c([H])c7[H])c(C(=O)N([H])[H])c6N([H])[H])C5([H])[H])C([H])([H])C4([H])[H])c([H])c3C([H])([H])[H])c([H])c([H])c2C1([H])[H]

$$$$
6:0:0
     RDKit          3D

 94104  0  0  1  0  0  0  0  0999 V2000
  -29.9520  -18.9380   17.9470 C   0  0  0  0  0  3  0  0  0  0  0  0
  -29.7320  -19.3990   20.6360 C   0  0  0  0  0  3  0  0  0  0  0  0
  -30.1500  -17.8280   18.7840 C   0  0  0  0  0  0  0  0  0  0  0  0
  -29.5490  -20.6180   19.7490 C   0  0  0  0  0  0  0  0  0  0  0  0
  -29.6860  -20.2510   18.3660 C   0  0  0  0  0  0  0  0  0  0  0  0
  -30.0380  -17.9700   20.1970 C   0  0  0  0  0  0  0  0  0  0  0  0
  -29.5600  -21.2240   17.1840 C   0  0  0  0  0  1  0  0  0  0  0  0
  -30.8510  -15.4070   20.9310 C   0  0  0  0  0  0  0  0  0  0  0  0
  -30.8630  -12.9870   20.1330 C   0  0  0  0  0  2  0  0  0  0  0  0
  -30.0780  -12.8140   18.8100 C   0  0  0  0  0  2  0  0  0  0  0  0
  -28.5730  -12.6370   19.0790 C   0  0  0  0  0  2  0  0  0  0  0  0
  -28.0290  -13.6060   20.1600 C   0  0  0  0  0  3  0  0  0  0  0  0
  -28.9540  -13.7100   21.3910 C   0  0  0  0  0  2  0  0  0  0  0  0
  -30.2740  -14.1300   20.9030 N   0  0  0  0  0  0  0  0  0  0  0  0
  -32.0770  -15.4430   20.7720 O   0  0  0  0  0  0  0  0  0  0  0  0
  -30.0780  -16.6280   21.0010 N   0  0  0  0  0  0  0  0  0  0  0  0
  -29.2150  -16.4700   21.5020 H   0  0  0  0  0  0  0  0  0  0  0  0
  -25.5780  -14.1610   20.6360 C   0  0  0  0  0  0  0  0  0  0  0  0
  -24.4900  -13.3770   20.9060 C   0  0  0  0  0  0  0  0  0  0  0  0
  -24.9730  -12.0340   20.9560 C   0  0  0  0  0  0  0  0  0  0  0  0
  -26.6510  -13.2950   20.5250 N   0  0  0  0  0  0  0  0  0  0  0  0
  -26.2900  -12.0110   20.7880 N   0  0  0  0  0  0  0  0  0  0  0  0
  -24.2450  -10.7640   21.0960 C   0  0  0  0  0  0  0  0  0  0  0  0
  -24.5660   -9.8320   22.1070 C   0  0  0  0  0  3  0  0  0  0  0  0
  -23.8350   -8.6310   22.2330 C   0  0  0  0  0  3  0  0  0  0  0  0
  -22.7680   -8.3530   21.3450 C   0  0  0  0  0  0  0  0  0  0  0  0
  -22.4670   -9.2740   20.3260 C   0  0  0  0  0  3  0  0  0  0  0  0
  -23.1990  -10.4660   20.1990 C   0  0  0  0  0  3  0  0  0  0  0  0
  -22.0200   -7.2000   21.3760 O   0  0  0  0  0  0  0  0  0  0  0  0
  -21.8060   -6.5130   22.5440 C   0  0  0  0  0  0  0  0  0  0  0  0
  -21.1730   -7.1100   23.6540 C   0  0  0  0  0  3  0  0  0  0  0  0
  -20.9070   -6.3460   24.8090 C   0  0  0  0  0  3  0  0  0  0  0  0
  -21.2660   -4.9860   24.8510 C   0  0  0  0  0  0  0  0  0  0  0  0
  -21.8930   -4.3890   23.7440 C   0  0  0  0  0  3  0  0  0  0  0  0
  -22.1590   -5.1500   22.5920 C   0  0  0  0  0  0  0  0  0  0  0  0
  -22.7440   -4.5620   21.5210 F   0  0  0  0  0  0  0  0  0  0  0  0
  -21.0050   -4.2510   25.9570 F   0  0  0  0  0  0  0  0  0  0  0  0
  -23.0660  -13.8400   21.0080 C   0  0  0  0  0  0  0  0  0  0  0  0
  -22.2610  -13.1670   21.8240 N   0  0  0  0  0  0  0  0  0  0  0  0
  -22.6720  -14.8340   20.4000 O   0  0  0  0  0  0  0  0  0  0  0  0
  -22.5900  -12.3650   22.3390 H   0  0  0  0  0  0  0  0  0  0  0  0
  -21.3000  -13.4610   21.9360 H   0  0  0  0  0  0  0  0  0  0  0  0
  -25.7390  -15.5310   20.4480 N   0  0  0  0  0  0  0  0  0  0  0  0
  -24.9540  -16.1720   20.4950 H   0  0  0  0  0  0  0  0  0  0  0  0
  -26.5980  -15.9830   20.1630 H   0  0  0  0  0  0  0  0  0  0  0  0
  -30.5830  -23.2050   19.6840 C   0  0  0  0  0  2  0  0  0  0  0  0
  -30.0890  -24.6850   19.4300 C   0  0  0  0  0  2  0  0  0  0  0  0
  -28.4510  -23.4550   20.7220 C   0  0  0  0  0  2  0  0  0  0  0  0
  -29.3630  -22.3070   19.9530 C   0  0  0  0  0  3  0  0  0  0  0  0
  -28.6390  -24.9400   19.9540 C   0  0  0  0  0  3  0  0  0  0  0  0
  -28.5230  -26.4500   20.4130 O   0  0  0  0  0  0  0  0  0  0  0  0
  -24.6530  -32.0290   23.3270 C   0  0  0  0  0  0  0  0  0  0  0  0
  -27.4160  -27.3850   20.2980 C   0  0  0  0  0  0  0  0  0  0  0  0
  -23.5130  -30.5940   21.6780 C   0  0  0  0  0  3  0  0  0  0  0  0
  -25.0250  -29.0680   20.2540 C   0  0  0  0  0  0  0  0  0  0  0  0
  -26.0590  -30.9410   21.5310 C   0  0  0  0  0  2  0  0  0  0  0  0
  -26.1840  -29.5510   20.8720 C   0  0  0  0  0  0  0  0  0  0  0  0
  -27.3730  -28.7250   20.8770 C   0  0  0  0  0  3  0  0  0  0  0  0
  -26.2250  -27.0080   19.6420 C   0  0  0  0  0  3  0  0  0  0  0  0
  -25.0600  -27.8120   19.6240 C   0  0  0  0  0  3  0  0  0  0  0  0
  -23.7670  -29.9260   20.3000 C   0  0  0  0  0  2  0  0  0  0  0  0
  -24.7610  -31.2130   22.2330 N   0  0  0  0  0  0  0  0  0  0  0  0
  -23.5540  -32.2750   23.8490 O   0  0  0  0  0  0  0  0  0  0  0  0
  -22.8630  -29.5650   22.6370 C   0  0  0  0  0  0  0  0  0  0  0  0
  -21.5440  -29.3420   22.4980 N   0  0  0  0  0  0  0  0  0  0  0  0
  -23.5500  -28.9670   23.4690 O   0  0  0  0  0  0  0  0  0  0  0  0
  -21.0450  -29.8760   21.8020 H   0  0  0  0  0  0  0  0  0  0  0  0
  -18.2090  -28.0060   22.9670 C   0  0  0  0  0  0  0  0  0  0  0  0
  -20.7530  -28.3750   23.2630 C   0  0  0  0  0  3  0  0  0  0  0  0
  -20.9200  -26.9470   22.6940 C   0  0  0  0  0  2  0  0  0  0  0  0
  -19.8440  -26.5770   21.6670 C   0  0  0  0  0  2  0  0  0  0  0  0
  -18.4500  -26.6640   22.2950 C   0  0  0  0  0  2  0  0  0  0  0  0
  -19.2900  -28.8150   23.4070 C   0  0  0  0  0  0  0  0  0  0  0  0
  -19.0100  -30.0660   23.9990 C   0  0  0  0  0  3  0  0  0  0  0  0
  -17.6830  -30.5100   24.1540 C   0  0  0  0  0  3  0  0  0  0  0  0
  -16.6180  -29.6980   23.7270 C   0  0  0  0  0  3  0  0  0  0  0  0
  -16.8810  -28.4480   23.1390 C   0  0  0  0  0  3  0  0  0  0  0  0
  -25.9010  -32.7110   23.9650 C   0  0  0  0  0  3  0  0  0  0  0  0
  -25.5380  -34.0990   24.2940 N   0  0  0  0  0  0  0  0  0  0  0  0
  -25.9130  -35.1770   23.5920 C   0  0  0  0  0  0  0  0  0  0  0  0
  -26.6660  -35.1070   22.6180 O   0  0  0  0  0  0  0  0  0  0  0  0
  -24.8750  -34.2250   25.0460 H   0  0  0  0  0  0  0  0  0  0  0  0
  -24.2040  -36.9670   23.1320 C   0  0  0  0  0  1  0  0  0  0  0  0
  -25.3690  -36.5480   24.0420 C   0  0  0  0  0  3  0  0  0  0  0  0
  -27.4090  -37.4290   25.0890 C   0  0  0  0  0  1  0  0  0  0  0  0
  -26.3940  -37.6140   24.0540 N   0  0  0  0  0  0  0  0  0  0  0  0
  -25.9660  -38.5260   24.1900 H   0  0  0  0  0  0  0  0  0  0  0  0
  -26.4240  -31.9640   25.2550 C   0  0  1  0  0  0  0  0  0  0  0  0
  -25.3220  -31.6930   26.3070 C   0  0  0  0  0  1  0  0  0  0  0  0
  -27.0640  -30.6060   24.8850 C   0  0  0  0  0  1  0  0  0  0  0  0
  -27.5320  -32.8050   25.9330 C   0  0  0  0  0  1  0  0  0  0  0  0
  -31.7620  -15.8450   18.1570 C   0  0  0  0  0  2  0  0  0  0  0  0
  -31.2400  -16.3260   16.8290 C   0  0  0  0  0  2  0  0  0  0  0  0
  -30.3990  -16.5090   18.0880 C   0  0  0  0  0  3  0  0  0  0  0  0
  1  5  2  0
  1  3  1  0
  3  6  2  0
  4  2  2  0
  5  4  1  0
  6  2  1  0
  6 16  1  0
  7  5  1  0
  8 16  1  0
  9 14  1  0
 10 11  1  0
 10  9  1  0
 12 11  1  0
 12 21  1  0
 12 13  1  0
 14  8  1  0
 14 13  1  0
 15  8  2  0
 16 17  1  0
 18 19  2  0
 19 20  1  0
 19 38  1  0
 20 23  1  0
 21 18  1  0
 21 22  1  0
 22 20  2  0
 23 24  1  0
 24 25  2  0
 26 29  1  0
 26 25  1  0
 27 26  2  0
 28 27  1  0
 28 23  2  0
 29 30  1  0
 30 35  2  0
 30 31  1  0
 31 32  2  0
 32 33  1  0
 33 37  1  0
 34 33  2  0
 35 34  1  0
 36 35  1  0
 38 39  1  0
 39 42  1  0
 39 41  1  0
 40 38  2  0
 43 44  1  0
 43 18  1  0
 45 43  1  0
 46 49  1  0
 47 46  1  0
 47 50  1  0
 49  4  1  0
 49 48  1  0
 50 51  1  0
 50 48  1  0
 52 63  2  0
 53 51  1  0
 53 58  1  0
 54 62  1  0
 54 64  1  0
 55 61  1  0
 55 57  1  0
 56 62  1  0
 57 58  2  0
 57 56  1  0
 59 53  2  0
 60 59  1  0
 60 55  2  0
 61 54  1  0
 62 52  1  0
 64 66  2  0
 65 64  1  0
 67 65  1  0
 68 77  2  0
 68 73  1  0
 69 65  1  0
 69 73  1  0
 70 69  1  0
 71 72  1  0
 71 70  1  0
 72 68  1  0
 73 74  2  0
 74 75  1  0
 76 75  2  0
 77 76  1  0
 78 52  1  0
 78 79  1  0
 78 88  1  0
 79 82  1  0
 80 84  1  0
 80 79  1  0
 81 80  2  0
 84 83  1  0
 84 86  1  0
 86 87  1  0
 86 85  1  0
 88 91  1  1
 88 89  1  0
 90 88  1  0
 93 94  1  0
 93 92  1  0
 94 92  1  0
 94  3  1  0
M  ISO  4   8 100  16 100  50 101  51 101
M  END
>  <TORSDO>  (7) 
F 18

>  <SCORE>  (7) 
-13.507

>  <name>  (7) 
6

>  <ligand_id>  (7) 
6

>  <original_smiles>  (7) 
[H]c1c([H])c([H])c2c(c1[H])C([H])([H])C([H])([H])C([H])([H])C2([H])N([H])C(=O)C1([H])N(C(=O)C([H])(N([H])C(=O)C([H])(N([H])C([H])([H])[H])C([H])([H])[H])C(C([H])([H])[H])(C([H])([H])[H])C([H])([H])[H])C([H])([H])c2c([H])c(OC3([H])C([H])([H])C([H])([H])C([H])(c4c([H])c(N([H])C(=O)N5C([H])([H])C([H])([H])C([H])([H])C([H])(n6nc(-c7c([H])c([H])c(Oc8c([H])c([H])c(F)c([H])c8F)c([H])c7[H])c(C(=O)N([H])[H])c6N([H])[H])C5([H])[H])c(C5([H])C([H])([H])C5([H])[H])c([H])c4C([H])([H])[H])C3([H])[H])c([H])c([H])c2C1([H])[H]

>  <smiles>  (7) 
[H]c1c([H])c([H])c2c(c1[H])C([H])([H])C([H])([H])C([H])([H])C2([H])N([H])C(=O)C1([H])N(C(=O)C([H])(N([H])C(=O)C([H])(N([H])C([H])([H])[H])C([H])([H])[H])C(C([H])([H])[H])(C([H])([H])[H])C([H])([H])[H])C([H])([H])c2c([H])c(OC3([H])C([H])([H])C([H])([H])C([H])(c4c([H])c(N([H])C(=O)N5C([H])([H])C([H])([H])C([H])([H])C([H])(n6nc(-c7c([H])c([H])c(Oc8c([H])c([H])c(F)c([H])c8F)c([H])c7[H])c(C(=O)N([H])[H])c6N([H])[H])C5([H])[H])c(C5([H])C([H])([H])C5([H])[H])c([H])c4C([H])([H])[H])C3([H])[H])c([H])c([H])c2C1([H])[H]

$$$$
7:0:0
     RDKit          3D

101110  0  0  1  0  0  0  0  0999 V2000
  -28.0210  -23.9380   20.4670 C   0  0  0  0  0  3  0  0  0  0  0  0
  -27.8380  -21.8480   19.2330 C   0  0  0  0  0  3  0  0  0  0  0  0
  -27.3260  -23.1290   19.5500 C   0  0  0  0  0  0  0  0  0  0  0  0
  -29.2140  -23.4630   21.0410 C   0  0  0  0  0  3  0  0  0  0  0  0
  -29.0270  -21.3980   19.8580 C   0  0  0  0  0  0  0  0  0  0  0  0
  -29.6580  -22.2300   20.7200 N   0  0  0  0  0  0  0  0  0  0  0  0
  -30.5220  -21.9150   21.1670 H   0  0  0  0  0  0  0  0  0  0  0  0
  -31.3900  -24.6780   21.4280 C   0  0  0  0  0  1  0  0  0  0  0  0
  -30.1670  -23.5730   23.3740 C   0  0  0  0  0  1  0  0  0  0  0  0
  -30.0290  -24.2880   22.0230 C   0  0  0  0  0  3  0  0  0  0  0  0
  -26.1360  -23.6040   18.9820 N   0  0  0  0  0  0  0  0  0  0  0  0
  -25.7130  -24.3570   19.5160 H   0  0  0  0  0  0  0  0  0  0  0  0
  -26.2520  -23.9780   17.5780 C   0  0  0  0  0  2  0  0  0  0  0  0
  -25.5770  -25.3330   17.3190 C   0  0  0  0  0  2  0  0  0  0  0  0
  -26.2570  -26.3650   18.0400 O   0  0  0  0  0  0  0  0  0  0  0  0
  -25.3920  -29.6640   24.2720 C   0  0  0  0  0  0  0  0  0  0  0  0
  -25.4990  -27.2770   18.7480 C   0  0  0  0  0  0  0  0  0  0  0  0
  -23.5300  -29.9120   22.6640 C   0  0  0  0  0  3  0  0  0  0  0  0
  -24.0100  -29.1330   20.2850 C   0  0  0  0  0  0  0  0  0  0  0  0
  -25.9230  -29.5350   21.8410 C   0  0  0  0  0  2  0  0  0  0  0  0
  -25.3340  -28.8390   20.6320 C   0  0  0  0  0  0  0  0  0  0  0  0
  -26.0810  -27.9150   19.8670 C   0  0  0  0  0  3  0  0  0  0  0  0
  -24.1630  -27.5990   18.4060 C   0  0  0  0  0  3  0  0  0  0  0  0
  -23.4180  -28.5130   19.1720 C   0  0  0  0  0  3  0  0  0  0  0  0
  -23.2770  -30.1320   21.1490 C   0  0  0  0  0  2  0  0  0  0  0  0
  -24.9780  -29.6760   22.9740 N   0  0  0  0  0  0  0  0  0  0  0  0
  -24.6010  -29.8850   25.1990 O   0  0  0  0  0  0  0  0  0  0  0  0
  -22.6050  -28.7790   23.1610 C   0  0  0  0  0  0  0  0  0  0  0  0
  -21.2970  -28.9120   22.8870 N   0  0  0  0  0  0  0  0  0  0  0  0
  -23.0660  -27.7980   23.7510 O   0  0  0  0  0  0  0  0  0  0  0  0
  -20.9980  -29.7490   22.4060 H   0  0  0  0  0  0  0  0  0  0  0  0
  -17.8260  -28.0830   22.3260 C   0  0  0  0  0  0  0  0  0  0  0  0
  -20.2460  -27.9530   23.2250 C   0  0  0  0  0  3  0  0  0  0  0  0
  -20.3800  -26.6620   22.3850 C   0  0  0  0  0  2  0  0  0  0  0  0
  -19.5450  -26.6880   21.1000 C   0  0  0  0  0  2  0  0  0  0  0  0
  -18.0620  -26.8790   21.4290 C   0  0  0  0  0  2  0  0  0  0  0  0
  -18.8560  -28.5960   23.1570 C   0  0  0  0  0  0  0  0  0  0  0  0
  -18.5950  -29.7390   23.9450 C   0  0  0  0  0  3  0  0  0  0  0  0
  -17.3330  -30.3620   23.9140 C   0  0  0  0  0  3  0  0  0  0  0  0
  -16.3120  -29.8400   23.1010 C   0  0  0  0  0  3  0  0  0  0  0  0
  -16.5580  -28.7010   22.3140 C   0  0  0  0  0  3  0  0  0  0  0  0
  -26.8820  -29.3960   24.6530 C   0  0  0  0  0  3  0  0  0  0  0  0
  -27.3570  -30.5530   25.4200 N   0  0  0  0  0  0  0  0  0  0  0  0
  -28.2870  -31.4190   24.9940 C   0  0  0  0  0  0  0  0  0  0  0  0
  -28.8940  -31.2780   23.9280 O   0  0  0  0  0  0  0  0  0  0  0  0
  -26.8630  -30.7630   26.2760 H   0  0  0  0  0  0  0  0  0  0  0  0
  -28.0620  -33.9130   25.2300 C   0  0  0  0  0  1  0  0  0  0  0  0
  -28.5930  -32.6310   25.8930 C   0  0  0  0  0  3  0  0  0  0  0  0
  -30.5330  -31.7970   27.1460 C   0  0  0  0  0  1  0  0  0  0  0  0
  -30.0320  -32.7890   26.1980 N   0  0  0  0  0  0  0  0  0  0  0  0
  -30.2210  -33.7130   26.5780 H   0  0  0  0  0  0  0  0  0  0  0  0
  -27.0850  -28.0610   25.4700 C   0  0  1  0  0  0  0  0  0  0  0  0
  -26.0970  -27.8970   26.6480 C   0  0  0  0  0  1  0  0  0  0  0  0
  -26.9300  -26.8270   24.5480 C   0  0  0  0  0  1  0  0  0  0  0  0
  -28.5220  -28.0080   26.0400 C   0  0  0  0  0  1  0  0  0  0  0  0
  -29.6270  -20.1430   19.6660 N   0  0  0  0  0  0  0  0  0  0  0  0
  -30.6250  -20.1070   19.5300 H   0  0  0  0  0  0  0  0  0  0  0  0
  -29.4370  -18.2820   21.2500 C   0  0  0  0  0  2  0  0  0  0  0  0
  -29.2660  -17.8790   18.7330 C   0  0  0  0  0  2  0  0  0  0  0  0
  -28.9610  -16.8390   21.4940 C   0  0  0  0  0  2  0  0  0  0  0  0
  -28.8120  -16.4350   19.0280 C   0  0  0  0  0  2  0  0  0  0  0  0
  -28.9650  -18.8610   19.8930 C   0  0  0  0  0  3  0  0  0  0  0  0
  -29.4350  -15.9330   20.3470 C   0  0  0  0  0  3  0  0  0  0  0  0
  -29.9940  -13.5090   20.3970 C   0  0  0  0  0  0  0  0  0  0  0  0
  -30.3040  -11.0620   20.3960 C   0  0  0  0  0  2  0  0  0  0  0  0
  -29.6130  -10.4310   19.1720 C   0  0  0  0  0  2  0  0  0  0  0  0
  -28.1350  -10.1280   19.4800 C   0  0  0  0  0  2  0  0  0  0  0  0
  -27.3950  -11.3400   20.1080 C   0  0  0  0  0  3  0  0  0  0  0  0
  -28.2140  -11.9440   21.2700 C   0  0  0  0  0  2  0  0  0  0  0  0
  -29.5570  -12.2750   20.7640 N   0  0  0  0  0  0  0  0  0  0  0  0
  -31.0930  -13.7030   19.8700 O   0  0  0  0  0  0  0  0  0  0  0  0
  -29.1440  -14.5240   20.6180 N   0  0  0  0  0  0  0  0  0  0  0  0
  -28.2590  -14.2940   21.0440 H   0  0  0  0  0  0  0  0  0  0  0  0
  -24.8360  -11.5940   20.2440 C   0  0  0  0  0  0  0  0  0  0  0  0
  -23.8690  -10.8160   20.8210 C   0  0  0  0  0  0  0  0  0  0  0  0
  -24.5560   -9.7270   21.4400 C   0  0  0  0  0  0  0  0  0  0  0  0
  -26.0440  -10.9750   20.5300 N   0  0  0  0  0  0  0  0  0  0  0  0
  -25.8680   -9.8720   21.3010 N   0  0  0  0  0  0  0  0  0  0  0  0
  -24.0390   -8.5270   22.1080 C   0  0  0  0  0  0  0  0  0  0  0  0
  -23.5470   -8.5710   23.4320 C   0  0  0  0  0  3  0  0  0  0  0  0
  -23.0380   -7.4070   24.0460 C   0  0  0  0  0  3  0  0  0  0  0  0
  -23.0140   -6.1820   23.3360 C   0  0  0  0  0  0  0  0  0  0  0  0
  -23.5260   -6.1390   22.0280 C   0  0  0  0  0  3  0  0  0  0  0  0
  -24.0370   -7.2970   21.4200 C   0  0  0  0  0  3  0  0  0  0  0  0
  -22.5620   -4.9960   23.8610 O   0  0  0  0  0  0  0  0  0  0  0  0
  -21.2420   -4.8070   24.1830 C   0  0  0  0  0  0  0  0  0  0  0  0
  -20.2640   -4.5520   23.1970 C   0  0  0  0  0  3  0  0  0  0  0  0
  -18.9310   -4.2950   23.5770 C   0  0  0  0  0  3  0  0  0  0  0  0
  -18.5770   -4.2830   24.9390 C   0  0  0  0  0  0  0  0  0  0  0  0
  -19.5500   -4.5310   25.9220 C   0  0  0  0  0  3  0  0  0  0  0  0
  -20.8800   -4.7890   25.5450 C   0  0  0  0  0  0  0  0  0  0  0  0
  -21.8190   -5.0060   26.4970 F   0  0  0  0  0  0  0  0  0  0  0  0
  -17.2990   -4.0290   25.3050 F   0  0  0  0  0  0  0  0  0  0  0  0
  -22.3840  -11.0150   20.7240 C   0  0  0  0  0  0  0  0  0  0  0  0
  -21.6450  -10.6220   21.7550 N   0  0  0  0  0  0  0  0  0  0  0  0
  -21.8750  -11.5670   19.7500 O   0  0  0  0  0  0  0  0  0  0  0  0
  -22.0650  -10.1870   22.5630 H   0  0  0  0  0  0  0  0  0  0  0  0
  -20.6440  -10.7570   21.7370 H   0  0  0  0  0  0  0  0  0  0  0  0
  -24.7910  -12.7620   19.4880 N   0  0  0  0  0  0  0  0  0  0  0  0
  -23.9180  -13.2030   19.2210 H   0  0  0  0  0  0  0  0  0  0  0  0
  -25.6040  -13.2160   19.0880 H   0  0  0  0  0  0  0  0  0  0  0  0
  1  4  1  0
  2  3  1  0
  2  5  2  0
  3  1  2  0
  4 10  1  0
  5  6  1  0
  6  4  1  0
  6  7  1  0
  8 10  1  0
 10  9  1  0
 11 12  1  0
 11  3  1  0
 13 11  1  0
 14 13  1  0
 14 15  1  0
 15 17  1  0
 16 27  2  0
 17 22  1  0
 18 26  1  0
 18 28  1  0
 19 21  1  0
 19 25  1  0
 20 26  1  0
 21 20  1  0
 22 21  2  0
 23 17  2  0
 23 24  1  0
 24 19  2  0
 25 18  1  0
 26 16  1  0
 28 30  2  0
 29 28  1  0
 31 29  1  0
 32 37  1  0
 33 29  1  0
 34 33  1  0
 35 36  1  0
 35 34  1  0
 36 32  1  0
 37 33  1  0
 37 38  2  0
 39 38  1  0
 40 39  2  0
 41 32  2  0
 41 40  1  0
 42 16  1  0
 42 43  1  0
 42 52  1  0
 43 46  1  0
 44 43  1  0
 44 48  1  0
 45 44  2  0
 48 47  1  0
 48 50  1  0
 50 51  1  0
 50 49  1  0
 52 55  1  1
 52 53  1  0
 54 52  1  0
 56  5  1  0
 57 56  1  0
 58 60  1  0
 59 61  1  0
 59 62  1  0
 61 63  1  0
 62 56  1  0
 62 58  1  0
 63 72  1  0
 63 60  1  0
 64 72  1  0
 64 70  1  0
 65 70  1  0
 66 67  1  0
 66 65  1  0
 68 67  1  0
 68 77  1  0
 68 69  1  0
 70 69  1  0
 71 64  2  0
 72 73  1  0
 74 77  1  0
 74 75  2  0
 75 76  1  0
 76 79  1  0
 77 78  1  0
 78 76  2  0
 79 80  1  0
 80 81  2  0
 82 85  1  0
 82 81  1  0
 83 82  2  0
 84 83  1  0
 84 79  2  0
 85 86  1  0
 86 91  1  0
 87 88  1  0
 87 86  2  0
 88 89  2  0
 89 93  1  0
 89 90  1  0
 91 90  2  0
 91 92  1  0
 94 75  1  0
 94 95  1  0
 95 97  1  0
 96 94  2  0
 98 95  1  0
 99 74  1  0
100 99  1  0
101 99  1  0
M  ISO  4  14 101  15 101  64 100  72 100
M  END
>  <TORSDO>  (8) 
F 22

>  <SCORE>  (8) 
-3.995

>  <name>  (8) 
7

>  <ligand_id>  (8) 
7

>  <original_smiles>  (8) 
[H]c1c([H])c([H])c2c(c1[H])C([H])([H])C([H])([H])C([H])([H])C2([H])N([H])C(=O)C1([H])N(C(=O)C([H])(N([H])C(=O)C([H])(N([H])C([H])([H])[H])C([H])([H])[H])C(C([H])([H])[H])(C([H])([H])[H])C([H])([H])[H])C([H])([H])c2c([H])c(OC([H])([H])C([H])([H])N([H])c3c([H])c(N([H])C4([H])C([H])([H])C([H])([H])C([H])(N([H])C(=O)N5C([H])([H])C([H])([H])C([H])([H])C([H])(n6nc(-c7c([H])c([H])c(Oc8c([H])c([H])c(F)c([H])c8F)c([H])c7[H])c(C(=O)N([H])[H])c6N([H])[H])C5([H])[H])C([H])([H])C4([H])[H])[n+]([H])c(C([H])(C([H])([H])[H])C([H])([H])[H])c3[H])c([H])c([H])c2C1([H])[H]

>  <smiles>  (8) 
[H]c1c([H])c([H])c2c(c1[H])C([H])([H])C([H])([H])C([H])([H])C2([H])N([H])C(=O)C1([H])N(C(=O)C([H])(N([H])C(=O)C([H])(N([H])C([H])([H])[H])C([H])([H])[H])C(C([H])([H])[H])(C([H])([H])[H])C([H])([H])[H])C([H])([H])c2c([H])c(OC([H])([H])C([H])([H])N([H])c3c([H])c(N([H])C4([H])C([H])([H])C([H])([H])C([H])(N([H])C(=O)N5C([H])([H])C([H])([H])C([H])([H])C([H])(n6nc(-c7c([H])c([H])c(Oc8c([H])c([H])c(F)c([H])c8F)c([H])c7[H])c(C(=O)N([H])[H])c6N([H])[H])C5([H])[H])C([H])([H])C4([H])[H])[n+]([H])c(C([H])(C([H])([H])[H])C([H])([H])[H])c3[H])c([H])c([H])c2C1([H])[H]

$$$$
8:0:0
     RDKit          3D

 98101  0  0  1  0  0  0  0  0999 V2000
  -18.5790  -28.1100   23.3970 C   0  0  0  0  0  1  0  0  0  0  0  0
  -20.4340  -30.0010   23.5010 C   0  0  0  0  0  3  0  0  0  0  0  0
  -20.3890  -26.6710   22.0410 C   0  0  0  0  0  2  0  0  0  0  0  0
  -18.9350  -26.7730   22.6530 C   0  0  0  0  0  3  0  0  0  0  0  0
  -22.1410  -28.0280   21.8480 C   0  0  0  0  0  2  0  0  0  0  0  0
  -22.0960  -29.4310   22.6830 C   0  0  0  0  0  3  0  0  0  0  0  0
  -25.1960  -25.8590   19.6880 C   0  0  0  0  0 15  0  0  0  0  0  0
  -26.1940  -27.3100   18.6120 C   0  0  0  0  0  2  0  0  0  0  0  0
  -24.1080  -27.3150   20.7280 C   0  0  0  0  0  1  0  0  0  0  0  0
  -27.0130  -25.7520   18.6200 C   0  0  0  0  0  1  0  0  0  0  0  0
  -25.1500  -28.0320   19.7350 N   0  0  0  0  0  4  0  0  0  0  0  0
  -24.6320  -28.7330   19.2270 H   0  0  0  0  0  0  0  0  0  0  0  0
  -25.7620  -28.5440   20.3440 H   0  0  0  0  0  0  0  0  0  0  0  0
  -28.3620  -25.8420   15.9440 C   0  0  0  0  0  1  0  0  0  0  0  0
  -28.4880  -24.7230   16.9800 C   0  0  0  0  0  1  0  0  0  0  0  0
  -31.6530  -23.0290   15.2720 C   0  0  0  0  0  0  0  0  0  0  0  0
  -33.6890  -22.6430   13.1970 C   0  0  0  0  0  2  0  0  0  0  0  0
  -34.1020  -23.6630   12.0500 C   0  0  0  0  0  2  0  0  0  0  0  0
  -32.9930  -23.7970   11.0060 C   0  0  0  0  0  2  0  0  0  0  0  0
  -31.6610  -23.6210   11.7420 C   0  0  0  0  0  3  0  0  0  0  0  0
  -31.5290  -22.3680   12.6070 C   0  0  0  0  0  2  0  0  0  0  0  0
  -32.2020  -22.8000   13.8280 N   0  0  0  0  0  0  0  0  0  0  0  0
  -32.7480  -22.5150   15.7450 O   0  0  0  0  0  0  0  0  0  0  0  0
  -30.3070  -23.7820   16.2630 N   0  0  0  0  0  2  0  0  0  0  0  0
  -30.7480  -23.5910   17.1560 H   0  0  0  0  0  0  0  0  0  0  0  0
  -29.3450  -24.3760   11.4240 C   0  0  0  0  0  0  0  0  0  0  0  0
  -28.4970  -24.3240   10.3710 C   0  0  0  0  0  0  0  0  0  0  0  0
  -29.1870  -23.6030    9.3460 C   0  0  0  0  0  0  0  0  0  0  0  0
  -30.4820  -23.7470   10.9840 N   0  0  0  0  0  0  0  0  0  0  0  0
  -30.3730  -23.1930    9.7630 N   0  0  0  0  0  0  0  0  0  0  0  0
  -28.8220  -23.3500    7.9620 C   0  0  0  0  0  0  0  0  0  0  0  0
  -28.8640  -22.0480    7.4170 C   0  0  0  0  0  3  0  0  0  0  0  0
  -28.4830  -21.8340    6.0770 C   0  0  0  0  0  3  0  0  0  0  0  0
  -28.0580  -22.9250    5.2810 C   0  0  0  0  0  0  0  0  0  0  0  0
  -28.0500  -24.2210    5.8240 C   0  0  0  0  0  3  0  0  0  0  0  0
  -28.4340  -24.4350    7.1560 C   0  0  0  0  0  3  0  0  0  0  0  0
  -27.6870  -22.8140    3.9650 O   0  0  0  0  0  0  0  0  0  0  0  0
  -27.2150  -21.6340    3.4490 C   0  0  0  0  0  0  0  0  0  0  0  0
  -26.0750  -20.9940    3.9810 C   0  0  0  0  0  3  0  0  0  0  0  0
  -25.5830  -19.8200    3.3770 C   0  0  0  0  0  3  0  0  0  0  0  0
  -26.2230  -19.2930    2.2390 C   0  0  0  0  0  0  0  0  0  0  0  0
  -27.3590  -19.9300    1.7090 C   0  0  0  0  0  3  0  0  0  0  0  0
  -27.8500  -21.1010    2.3110 C   0  0  0  0  0  0  0  0  0  0  0  0
  -28.9310  -21.7270    1.7860 F   0  0  0  0  0  0  0  0  0  0  0  0
  -25.7470  -18.1700    1.6520 F   0  0  0  0  0  0  0  0  0  0  0  0
  -27.1690  -25.0000   10.2980 C   0  0  0  0  0  0  0  0  0  0  0  0
  -26.2430  -24.4310    9.5400 N   0  0  0  0  0  0  0  0  0  0  0  0
  -26.9370  -26.0110   10.9590 O   0  0  0  0  0  0  0  0  0  0  0  0
  -26.4410  -23.5900    9.0200 H   0  0  0  0  0  0  0  0  0  0  0  0
  -25.3230  -24.8430    9.4850 H   0  0  0  0  0  0  0  0  0  0  0  0
  -29.2650  -24.9260   12.7000 N   0  0  0  0  0  0  0  0  0  0  0  0
  -28.4580  -25.4500   13.0200 H   0  0  0  0  0  0  0  0  0  0  0  0
  -30.0340  -24.9390   13.3560 H   0  0  0  0  0  0  0  0  0  0  0  0
  -17.8920  -24.4260   23.2920 C   0  0  0  0  0  2  0  0  0  0  0  0
  -18.1420  -24.3500   21.8040 C   0  0  0  0  0  2  0  0  0  0  0  0
  -17.8900  -25.6940   22.4710 C   0  0  0  0  0  3  0  0  0  0  0  0
  -23.9990  -29.5830   22.8050 C   0  0  0  0  0  1  0  0  0  0  0  0
  -25.5210  -28.6110   23.3030 O   0  0  0  0  0  1  0  0  0  0  0  0
  -24.5800  -29.2290   28.5720 C   0  0  0  0  0  0  0  0  0  0  0  0
  -26.9780  -28.8040   23.4830 C   0  0  0  0  0  3  0  0  0  0  0  0
  -24.0160  -30.0070   26.3330 C   0  0  0  0  0  3  0  0  0  0  0  0
  -25.9840  -30.7220   24.7880 C   0  0  0  0  0  3  0  0  0  0  0  0
  -26.4590  -29.8170   27.0510 C   0  0  0  0  0  2  0  0  0  0  0  0
  -26.7130  -29.8220   25.5630 C   0  0  0  0  0  3  0  0  0  0  0  0
  -27.4290  -28.8510   24.8460 C   0  0  0  0  0  2  0  0  0  0  0  0
  -27.2390  -29.9690   22.8240 C   0  0  0  0  0  2  0  0  0  0  0  0
  -26.4230  -30.9370   23.4370 C   0  0  0  0  0  2  0  0  0  0  0  0
  -24.6430  -31.1180   25.3920 C   0  0  0  0  0  2  0  0  0  0  0  0
  -25.0160  -29.7330   27.3950 N   0  0  0  0  0  0  0  0  0  0  0  0
  -23.3700  -29.1560   28.8320 O   0  0  0  0  0  0  0  0  0  0  0  0
  -23.6460  -28.5690   25.7700 C   0  0  0  0  0  0  0  0  0  0  0  0
  -22.5300  -28.2330   25.1960 N   0  0  0  0  0  4  0  0  0  0  0  0
  -24.3560  -27.6060   25.9050 O   0  0  0  0  0  0  0  0  0  0  0  0
  -21.8510  -28.9830   25.1260 H   0  0  0  0  0  0  0  0  0  0  0  0
  -20.2470  -29.0180   22.0210 C   0  0  0  0  0  3  0  0  0  0  0  0
  -21.9720  -26.9760   24.5230 C   0  0  0  0  0  2  0  0  0  0  0  0
  -22.5000  -25.7330   22.8690 C   0  0  0  0  0 15  0  0  0  0  0  0
  -21.8000  -26.3840   20.7310 C   0  0  0  0  0  1  0  0  0  0  0  0
  -20.6910  -28.1000   20.5670 C   0  0  0  0  0  2  0  0  0  0  0  0
  -20.9240  -28.2110   24.3110 C   0  0  0  0  0  3  0  0  0  0  0  0
  -20.0960  -29.1570   25.5880 C   0  0  0  0  0  2  0  0  0  0  0  0
  -18.9960  -30.4050   25.2370 C   0  0  0  0  0  3  0  0  0  0  0  0
  -18.5180  -30.9400   23.7090 C   0  0  0  0  0  3  0  0  0  0  0  0
  -19.0520  -30.3470   22.1780 C   0  0  0  0  0  3  0  0  0  0  0  0
  -25.5910  -28.7300   29.6370 C   0  0  0  0  0  3  0  0  0  0  0  0
  -25.8940  -27.1850   29.5390 C   0  0  1  0  0  0  0  0  0  0  0  0
  -24.6290  -26.3000   29.4610 C   0  0  0  0  0  1  0  0  0  0  0  0
  -26.7740  -26.8520   28.3120 C   0  0  0  0  0  1  0  0  0  0  0  0
  -26.7150  -26.7450   30.7710 C   0  0  0  0  0  1  0  0  0  0  0  0
  -25.0140  -29.0690   30.9400 N   0  0  0  0  0  0  0  0  0  0  0  0
  -25.3630  -30.1370   31.6660 C   0  0  0  0  0  0  0  0  0  0  0  0
  -26.2790  -30.8970   31.3380 O   0  0  0  0  0  0  0  0  0  0  0  0
  -24.2280  -28.5140   31.2470 H   0  0  0  0  0  0  0  0  0  0  0  0
  -23.5460  -31.5150   32.7240 C   0  0  0  0  0  1  0  0  0  0  0  0
  -24.5750  -30.3980   32.9630 C   0  0  0  0  0  3  0  0  0  0  0  0
  -26.2740  -29.6370   34.5610 C   0  0  0  0  0  1  0  0  0  0  0  0
  -25.4360  -30.7470   34.1120 N   0  0  0  0  0  0  0  0  0  0  0  0
  -24.8750  -31.0600   34.8980 H   0  0  0  0  0  0  0  0  0  0  0  0
  3  4  1  0
  4  1  1  0
  5  6  1  0
  6 57  1  0
  6  2  1  0
  8 10  1  0
  8 11  1  0
 11 13  1  0
 11  9  1  0
 12 11  1  0
 14 15  1  0
 16 23  2  0
 16 24  1  0
 17 22  1  0
 18 17  1  0
 19 20  1  0
 19 18  1  0
 20 21  1  0
 21 22  1  0
 22 16  1  0
 24 25  1  0
 26 51  1  0
 27 26  2  0
 28 30  2  0
 28 27  1  0
 29 26  1  0
 29 20  1  0
 30 29  1  0
 31 28  1  0
 32 31  1  0
 33 32  2  0
 34 35  2  0
 34 33  1  0
 35 36  1  0
 36 31  2  0
 37 34  1  0
 38 37  1  0
 38 39  1  0
 40 39  2  0
 41 40  1  0
 42 41  2  0
 42 43  1  0
 43 38  2  0
 44 43  1  0
 45 41  1  0
 46 27  1  0
 46 48  2  0
 47 46  1  0
 49 47  1  0
 50 47  1  0
 51 52  1  0
 51 53  1  0
 55 56  1  0
 55 54  1  0
 56  4  1  0
 56 54  1  0
 58 60  1  0
 59 70  2  0
 59 85  1  0
 60 65  1  0
 61 69  1  0
 62 68  1  0
 62 64  1  0
 63 69  1  0
 64 63  1  0
 65 64  1  0
 66 67  1  0
 66 60  1  0
 67 62  1  0
 68 61  1  0
 69 59  1  0
 71 73  2  0
 71 61  1  0
 72 71  1  0
 74 72  1  0
 75 84  1  0
 75  2  1  0
 76 72  1  0
 78  3  1  0
 79  5  1  0
 79 75  1  0
 80 76  1  0
 80 72  1  0
 80 81  1  0
 82 81  1  0
 83 82  2  0
 84  2  1  0
 84 83  1  0
 85 90  1  0
 86 85  1  0
 86 89  1  1
 87 86  1  0
 88 86  1  0
 90 93  1  0
 90 91  1  0
 91 95  1  0
 92 91  2  0
 94 95  1  0
 95 97  1  0
 97 96  1  0
 97 98  1  0
M  ISO  4  16 100  24 100  57 101  58 101
M  END
>  <TORSDO>  (9) 
F 20

>  <SCORE>  (9) 
13.938

>  <name>  (9) 
8

>  <ligand_id>  (9) 
8

>  <original_smiles>  (9) 
[H]c1c([H])c([H])c2c(c1[H])C([H])([H])C([H])([H])C([H])([H])C2([H])N([H])C(=O)C1([H])N(C(=O)C([H])(N([H])C(=O)C([H])(N([H])C([H])([H])[H])C([H])([H])[H])C(C([H])([H])[H])(C([H])([H])[H])C([H])([H])[H])C([H])([H])c2c([H])c(OC([H])([H])c3c([H])c([H])c(C4([H])C([H])([H])C4([H])[H])c([H])c3C3([H])C([H])([H])C([H])(C([H])(N([H])C(=O)N4C([H])([H])C([H])([H])C([H])([H])C([H])(n5nc(-c6c([H])c([H])c(Oc7c([H])c([H])c(F)c([H])c7F)c([H])c6[H])c(C(=O)N([H])[H])c5N([H])[H])C4([H])[H])C([H])([H])[H])C([H])([H])[N+]3([H])[H])c([H])c([H])c2C1([H])[H]

>  <smiles>  (9) 
[H]c1c([H])c([H])c2c(c1[H])C([H])([H])C([H])([H])C([H])([H])C2([H])N([H])C(=O)C1([H])N(C(=O)C([H])(N([H])C(=O)C([H])(N([H])C([H])([H])[H])C([H])([H])[H])C(C([H])([H])[H])(C([H])([H])[H])C([H])([H])[H])C([H])([H])c2c([H])c(OC([H])([H])c3c([H])c([H])c(C4([H])C([H])([H])C4([H])[H])c([H])c3C3([H])C([H])([H])C([H])(C([H])(N([H])C(=O)N4C([H])([H])C([H])([H])C([H])([H])C([H])(n5nc(-c6c([H])c([H])c(Oc7c([H])c([H])c(F)c([H])c7F)c([H])c6[H])c(C(=O)N([H])[H])c5N([H])[H])C4([H])[H])C([H])([H])[H])C([H])([H])[N+]3([H])[H])c([H])c([H])c2C1([H])[H]

$$$$
9:0:0
     RDKit          3D

 97107  0  0  1  0  0  0  0  0999 V2000
  -31.5520  -20.2750   18.3590 C   0  0  0  0  0  3  0  0  0  0  0  0
  -31.5180  -21.6640   18.0530 C   0  0  0  0  0  0  0  0  0  0  0  0
  -30.4680  -22.2250   18.7470 C   0  0  0  0  0  0  0  0  0  0  0  0
  -30.5090  -20.0210   19.1950 C   0  0  0  0  0  0  0  0  0  0  0  0
  -32.4430  -22.3700   17.0960 C   0  0  0  0  0  1  0  0  0  0  0  0
  -28.6370  -21.3040   20.2860 C   0  0  0  0  0  1  0  0  0  0  0  0
  -29.8290  -21.2020   19.4600 N   0  0  0  0  0  0  0  0  0  0  0  0
  -28.8470  -23.8910   17.6820 C   0  0  0  0  0  2  0  0  0  0  0  0
  -28.3480  -25.2830   18.0480 C   0  0  0  0  0  2  0  0  0  0  0  0
  -29.6580  -24.4770   19.9270 C   0  0  0  0  0  2  0  0  0  0  0  0
  -30.0100  -23.6700   18.6480 C   0  0  0  0  0  3  0  0  0  0  0  0
  -28.3890  -25.2980   19.5860 C   0  0  0  0  0  3  0  0  0  0  0  0
  -28.3810  -26.6350   20.1300 O   0  0  0  0  0  0  0  0  0  0  0  0
  -24.5690  -31.8350   23.2160 C   0  0  0  0  0  0  0  0  0  0  0  0
  -27.1960  -27.3590   20.1350 C   0  0  0  0  0  0  0  0  0  0  0  0
  -23.3630  -30.4410   21.5730 C   0  0  0  0  0  3  0  0  0  0  0  0
  -24.8070  -28.8980   20.1560 C   0  0  0  0  0  0  0  0  0  0  0  0
  -25.8950  -30.7820   21.3800 C   0  0  0  0  0  2  0  0  0  0  0  0
  -25.9740  -29.4090   20.7380 C   0  0  0  0  0  0  0  0  0  0  0  0
  -27.1690  -28.6520   20.7180 C   0  0  0  0  0  3  0  0  0  0  0  0
  -25.9890  -26.8570   19.5870 C   0  0  0  0  0  3  0  0  0  0  0  0
  -24.8110  -27.6200   19.5830 C   0  0  0  0  0  3  0  0  0  0  0  0
  -23.5720  -29.7650   20.1960 C   0  0  0  0  0  2  0  0  0  0  0  0
  -24.6280  -31.0330   22.1150 N   0  0  0  0  0  0  0  0  0  0  0  0
  -23.4870  -32.1120   23.7510 O   0  0  0  0  0  0  0  0  0  0  0  0
  -22.7020  -29.4200   22.5290 C   0  0  0  0  0  0  0  0  0  0  0  0
  -21.3780  -29.2460   22.3970 N   0  0  0  0  0  0  0  0  0  0  0  0
  -23.3790  -28.7870   23.3450 O   0  0  0  0  0  0  0  0  0  0  0  0
  -20.8940  -29.8060   21.7100 H   0  0  0  0  0  0  0  0  0  0  0  0
  -17.9920  -28.0800   22.8880 C   0  0  0  0  0  0  0  0  0  0  0  0
  -20.5510  -28.3160   23.1630 C   0  0  0  0  0  3  0  0  0  0  0  0
  -20.6430  -26.8850   22.5830 C   0  0  0  0  0  2  0  0  0  0  0  0
  -19.5390  -26.5740   21.5680 C   0  0  0  0  0  2  0  0  0  0  0  0
  -18.1570  -26.7300   22.2090 C   0  0  0  0  0  2  0  0  0  0  0  0
  -19.1170  -28.8310   23.3210 C   0  0  0  0  0  0  0  0  0  0  0  0
  -18.9080  -30.0960   23.9140 C   0  0  0  0  0  3  0  0  0  0  0  0
  -17.6080  -30.6100   24.0760 C   0  0  0  0  0  3  0  0  0  0  0  0
  -16.4970  -29.8550   23.6580 C   0  0  0  0  0  3  0  0  0  0  0  0
  -16.6900  -28.5920   23.0710 C   0  0  0  0  0  3  0  0  0  0  0  0
  -25.8550  -32.4590   23.8410 C   0  0  0  0  0  3  0  0  0  0  0  0
  -25.5450  -33.8520   24.1890 N   0  0  0  0  0  0  0  0  0  0  0  0
  -25.8720  -34.9130   23.4370 C   0  0  0  0  0  0  0  0  0  0  0  0
  -26.5350  -34.8200   22.4000 O   0  0  0  0  0  0  0  0  0  0  0  0
  -24.9580  -33.9990   24.9970 H   0  0  0  0  0  0  0  0  0  0  0  0
  -24.1360  -36.7010   23.1080 C   0  0  0  0  0  1  0  0  0  0  0  0
  -25.3830  -36.2940   23.9090 C   0  0  0  0  0  3  0  0  0  0  0  0
  -27.5200  -37.1770   24.7390 C   0  0  0  0  0  1  0  0  0  0  0  0
  -26.4140  -37.3500   23.7990 N   0  0  0  0  0  0  0  0  0  0  0  0
  -26.0070  -38.2690   23.9550 H   0  0  0  0  0  0  0  0  0  0  0  0
  -26.3760  -31.6710   25.1050 C   0  0  1  0  0  0  0  0  0  0  0  0
  -25.2840  -31.4150   26.1710 C   0  0  0  0  0  1  0  0  0  0  0  0
  -26.9630  -30.3020   24.6890 C   0  0  0  0  0  1  0  0  0  0  0  0
  -27.5260  -32.4590   25.7750 C   0  0  0  0  0  1  0  0  0  0  0  0
  -30.1540  -18.7300   19.5970 N   0  0  0  0  0  0  0  0  0  0  0  0
  -30.5350  -18.0240   18.9780 H   0  0  0  0  0  0  0  0  0  0  0  0
  -30.7180  -14.3910   20.1660 C   0  0  0  0  0  0  0  0  0  0  0  0
  -30.2690  -12.3230   18.8850 C   0  0  0  0  0  2  0  0  0  0  0  0
  -29.2580  -12.6020   17.7560 C   0  0  0  0  0  2  0  0  0  0  0  0
  -27.8150  -12.4500   18.2700 C   0  0  0  0  0  2  0  0  0  0  0  0
  -27.5770  -13.2250   19.5910 C   0  0  0  0  0  3  0  0  0  0  0  0
  -28.6940  -12.9210   20.6180 C   0  0  0  0  0  2  0  0  0  0  0  0
  -29.9810  -13.2520   19.9920 N   0  0  0  0  0  0  0  0  0  0  0  0
  -31.7900  -14.5560   19.5750 O   0  0  0  0  0  0  0  0  0  0  0  0
  -31.5320  -17.4780   21.2430 C   0  0  0  0  0  2  0  0  0  0  0  0
  -29.0000  -17.5070   21.3980 C   0  0  0  0  0  2  0  0  0  0  0  0
  -31.2620  -16.0800   21.8570 C   0  0  0  0  0  2  0  0  0  0  0  0
  -29.0120  -16.0610   20.8440 C   0  0  0  0  0  2  0  0  0  0  0  0
  -30.2480  -18.3140   20.9950 C   0  0  0  0  0  3  0  0  0  0  0  0
  -30.2770  -15.3160   21.0680 N   0  0  0  0  0  0  0  0  0  0  0  0
  -25.2350  -13.8560   20.4430 C   0  0  0  0  0  0  0  0  0  0  0  0
  -24.1790  -13.0910   20.8620 C   0  0  0  0  0  0  0  0  0  0  0  0
  -24.6220  -11.7350   20.7840 C   0  0  0  0  0  0  0  0  0  0  0  0
  -26.2530  -12.9650   20.1400 N   0  0  0  0  0  0  0  0  0  0  0  0
  -25.8910  -11.6840   20.4020 N   0  0  0  0  0  0  0  0  0  0  0  0
  -23.8930  -10.4800   20.9950 C   0  0  0  0  0  0  0  0  0  0  0  0
  -24.3590   -9.5000   21.9000 C   0  0  0  0  0  3  0  0  0  0  0  0
  -23.6320   -8.3060   22.0980 C   0  0  0  0  0  3  0  0  0  0  0  0
  -22.4270   -8.0840   21.3900 C   0  0  0  0  0  0  0  0  0  0  0  0
  -21.9820   -9.0520   20.4710 C   0  0  0  0  0  3  0  0  0  0  0  0
  -22.7080  -10.2380   20.2710 C   0  0  0  0  0  3  0  0  0  0  0  0
  -21.6680   -6.9440   21.4980 O   0  0  0  0  0  0  0  0  0  0  0  0
  -21.6530   -6.1960   22.6480 C   0  0  0  0  0  0  0  0  0  0  0  0
  -21.2680   -6.7470   23.8890 C   0  0  0  0  0  3  0  0  0  0  0  0
  -21.1990   -5.9270   25.0320 C   0  0  0  0  0  3  0  0  0  0  0  0
  -21.5060   -4.5560   24.9360 C   0  0  0  0  0  0  0  0  0  0  0  0
  -21.8860   -4.0040   23.6990 C   0  0  0  0  0  3  0  0  0  0  0  0
  -21.9570   -4.8230   22.5580 C   0  0  0  0  0  0  0  0  0  0  0  0
  -22.3010   -4.2830   21.3640 F   0  0  0  0  0  0  0  0  0  0  0  0
  -21.4330   -3.7660   26.0310 F   0  0  0  0  0  0  0  0  0  0  0  0
  -22.8070  -13.5820   21.2210 C   0  0  0  0  0  0  0  0  0  0  0  0
  -22.1200  -12.8790   22.1150 N   0  0  0  0  0  0  0  0  0  0  0  0
  -22.3520  -14.6200   20.7430 O   0  0  0  0  0  0  0  0  0  0  0  0
  -22.5030  -12.0390   22.5230 H   0  0  0  0  0  0  0  0  0  0  0  0
  -21.2000  -13.1850   22.3970 H   0  0  0  0  0  0  0  0  0  0  0  0
  -25.4040  -15.2280   20.2770 N   0  0  0  0  0  0  0  0  0  0  0  0
  -24.6500  -15.8850   20.4430 H   0  0  0  0  0  0  0  0  0  0  0  0
  -26.2360  -15.6650   19.9060 H   0  0  0  0  0  0  0  0  0  0  0  0
  1  4  2  0
  2  1  1  0
  2  3  2  0
  3  7  1  0
  4  7  1  0
  4 54  1  0
  5  2  1  0
  7  6  1  0
  8  9  1  0
  8 11  1  0
  9 12  1  0
 11  3  1  0
 11 10  1  0
 12 10  1  0
 12 13  1  0
 13 15  1  0
 14 25  2  0
 15 20  1  0
 16 24  1  0
 16 26  1  0
 17 23  1  0
 17 19  1  0
 18 24  1  0
 19 18  1  0
 20 19  2  0
 21 15  2  0
 22 21  1  0
 22 17  2  0
 23 16  1  0
 24 14  1  0
 26 28  2  0
 27 26  1  0
 29 27  1  0
 30 39  2  0
 30 35  1  0
 31 27  1  0
 31 35  1  0
 32 31  1  0
 33 34  1  0
 33 32  1  0
 34 30  1  0
 35 36  2  0
 36 37  1  0
 38 37  2  0
 39 38  1  0
 40 14  1  0
 40 41  1  0
 40 50  1  0
 41 44  1  0
 42 46  1  0
 42 41  1  0
 43 42  2  0
 46 45  1  0
 48 46  1  0
 48 49  1  0
 48 47  1  0
 50 53  1  1
 50 51  1  0
 52 50  1  0
 55 54  1  0
 56 69  1  0
 57 62  1  0
 58 59  1  0
 58 57  1  0
 60 59  1  0
 60 73  1  0
 60 61  1  0
 62 56  1  0
 62 61  1  0
 63 56  2  0
 64 66  1  0
 67 69  1  0
 67 65  1  0
 68 54  1  0
 68 64  1  0
 68 65  1  0
 69 66  1  0
 70 71  2  0
 71 90  1  0
 72 71  1  0
 72 75  1  0
 73 74  1  0
 73 70  1  0
 74 72  2  0
 75 76  1  0
 76 77  2  0
 78 81  1  0
 78 77  1  0
 79 78  2  0
 80 79  1  0
 80 75  2  0
 81 82  1  0
 82 83  1  0
 83 84  2  0
 85 84  1  0
 85 89  1  0
 86 85  2  0
 87 82  2  0
 87 86  1  0
 88 87  1  0
 90 91  1  0
 91 94  1  0
 91 93  1  0
 92 90  2  0
 95 70  1  0
 95 96  1  0
 97 95  1  0
M  ISO  4  12 101  13 101  56 100  69 100
M  END
>  <TORSDO>  (10) 
F 18

>  <SCORE>  (10) 
-14.312

>  <name>  (10) 
9

>  <ligand_id>  (10) 
9

>  <original_smiles>  (10) 
[H]c1c([H])c([H])c2c(c1[H])C([H])([H])C([H])([H])C([H])([H])C2([H])N([H])C(=O)C1([H])N(C(=O)C([H])(N([H])C(=O)C([H])(N([H])C([H])([H])[H])C([H])([H])[H])C(C([H])([H])[H])(C([H])([H])[H])C([H])([H])[H])C([H])([H])c2c([H])c(OC3([H])C([H])([H])C([H])([H])C([H])(c4c(C([H])([H])[H])c([H])c(N([H])C5([H])C([H])([H])C([H])([H])N(C(=O)N6C([H])([H])C([H])([H])C([H])([H])C([H])(n7nc(-c8c([H])c([H])c(Oc9c([H])c([H])c(F)c([H])c9F)c([H])c8[H])c(C(=O)N([H])[H])c7N([H])[H])C6([H])[H])C([H])([H])C5([H])[H])n4C([H])([H])[H])C3([H])[H])c([H])c([H])c2C1([H])[H]

>  <smiles>  (10) 
[H]c1c([H])c([H])c2c(c1[H])C([H])([H])C([H])([H])C([H])([H])C2([H])N([H])C(=O)C1([H])N(C(=O)C([H])(N([H])C(=O)C([H])(N([H])C([H])([H])[H])C([H])([H])[H])C(C([H])([H])[H])(C([H])([H])[H])C([H])([H])[H])C([H])([H])c2c([H])c(OC3([H])C([H])([H])C([H])([H])C([H])(c4c(C([H])([H])[H])c([H])c(N([H])C5([H])C([H])([H])C([H])([H])N(C(=O)N6C([H])([H])C([H])([H])C([H])([H])C([H])(n7nc(-c8c([H])c([H])c(Oc9c([H])c([H])c(F)c([H])c9F)c([H])c8[H])c(C(=O)N([H])[H])c7N([H])[H])C6([H])[H])C([H])([H])C5([H])[H])n4C([H])([H])[H])C3([H])[H])c([H])c([H])c2C1([H])[H]

$$$$
10:0:0
     RDKit          3D

 97108  0  0  1  0  0  0  0  0999 V2000
  -29.0610  -19.4330   17.2740 C   0  0  0  0  0  3  0  0  0  0  0  0
  -28.7110  -19.8050   18.5730 C   0  0  0  0  0  3  0  0  0  0  0  0
  -31.9900  -17.5560   18.1600 C   0  0  0  0  0  3  0  0  0  0  0  0
  -31.8030  -19.1000   20.3670 C   0  0  0  0  0  3  0  0  0  0  0  0
  -31.2650  -18.8140   17.9800 C   0  0  0  0  0  0  0  0  0  0  0  0
  -30.9640  -19.3630   19.2680 C   0  0  0  0  0  0  0  0  0  0  0  0
  -30.4130  -19.3040   16.8530 C   0  0  0  0  0  0  0  0  0  0  0  0
  -29.6980  -19.9250   19.5570 C   0  0  0  0  0  0  0  0  0  0  0  0
  -32.4530  -17.0850   19.4790 C   0  0  0  0  0  0  0  0  0  0  0  0
  -32.5100  -17.9720   20.4800 N   0  0  0  0  0  0  0  0  0  0  0  0
  -31.9740  -14.5120   19.8320 C   0  0  0  0  0  0  0  0  0  0  0  0
  -32.5500  -12.1960   19.0870 C   0  0  0  0  0  2  0  0  0  0  0  0
  -34.0440  -12.1040   18.7160 C   0  0  0  0  0  2  0  0  0  0  0  0
  -34.2530  -12.4920   17.2400 C   0  0  0  0  0  2  0  0  0  0  0  0
  -33.5130  -13.8020   16.8490 C   0  0  0  0  0  3  0  0  0  0  0  0
  -32.0610  -13.8270   17.3690 C   0  0  0  0  0  2  0  0  0  0  0  0
  -32.1280  -13.5910   18.8150 N   0  0  0  0  0  0  0  0  0  0  0  0
  -31.5980  -14.1040   20.9340 O   0  0  0  0  0  0  0  0  0  0  0  0
  -32.7370  -15.6830   19.8390 N   0  0  0  0  0  0  0  0  0  0  0  0
  -33.3860  -15.6430   20.6100 H   0  0  0  0  0  0  0  0  0  0  0  0
  -33.9070  -15.2440   14.7690 C   0  0  0  0  0  0  0  0  0  0  0  0
  -33.9520  -14.9440   13.4350 C   0  0  0  0  0  0  0  0  0  0  0  0
  -33.6550  -13.5500   13.3340 C   0  0  0  0  0  0  0  0  0  0  0  0
  -33.5930  -14.0610   15.4140 N   0  0  0  0  0  0  0  0  0  0  0  0
  -33.3770  -13.0490   14.5320 N   0  0  0  0  0  0  0  0  0  0  0  0
  -33.6770  -12.6540   12.1690 C   0  0  0  0  0  0  0  0  0  0  0  0
  -32.7930  -12.8330   11.0820 C   0  0  0  0  0  3  0  0  0  0  0  0
  -32.8470  -11.9750    9.9640 C   0  0  0  0  0  3  0  0  0  0  0  0
  -33.7930  -10.9230    9.9220 C   0  0  0  0  0  0  0  0  0  0  0  0
  -34.6550  -10.7320   11.0160 C   0  0  0  0  0  3  0  0  0  0  0  0
  -34.5970  -11.5870   12.1290 C   0  0  0  0  0  3  0  0  0  0  0  0
  -33.9010  -10.0240    8.8890 O   0  0  0  0  0  0  0  0  0  0  0  0
  -33.5950  -10.3690    7.5980 C   0  0  0  0  0  0  0  0  0  0  0  0
  -34.4520  -11.1750    6.8170 C   0  0  0  0  0  3  0  0  0  0  0  0
  -34.1310  -11.4480    5.4720 C   0  0  0  0  0  3  0  0  0  0  0  0
  -32.9610  -10.9100    4.9040 C   0  0  0  0  0  0  0  0  0  0  0  0
  -32.1090  -10.1030    5.6780 C   0  0  0  0  0  3  0  0  0  0  0  0
  -32.4270   -9.8320    7.0190 C   0  0  0  0  0  0  0  0  0  0  0  0
  -31.6130   -9.0340    7.7540 F   0  0  0  0  0  0  0  0  0  0  0  0
  -32.6570  -11.1650    3.6100 F   0  0  0  0  0  0  0  0  0  0  0  0
  -34.3460  -15.8750   12.3250 C   0  0  0  0  0  0  0  0  0  0  0  0
  -33.3700  -16.4870   11.6640 N   0  0  0  0  0  0  0  0  0  0  0  0
  -35.5290  -16.1020   12.0720 O   0  0  0  0  0  0  0  0  0  0  0  0
  -32.4010  -16.3200   11.8910 H   0  0  0  0  0  0  0  0  0  0  0  0
  -33.5940  -17.1340   10.9210 H   0  0  0  0  0  0  0  0  0  0  0  0
  -34.1290  -16.4130   15.4900 N   0  0  0  0  0  0  0  0  0  0  0  0
  -34.4310  -17.2720   15.0430 H   0  0  0  0  0  0  0  0  0  0  0  0
  -34.0650  -16.4890   16.4960 H   0  0  0  0  0  0  0  0  0  0  0  0
  -30.1770  -21.4080   15.3250 C   0  0  0  0  0  2  0  0  0  0  0  0
  -30.8590  -22.1690   14.1840 C   0  0  0  0  0  2  0  0  0  0  0  0
  -31.5490  -19.9480   14.0670 C   0  0  0  0  0  2  0  0  0  0  0  0
  -30.4810  -19.8630   15.2950 C   0  0  0  0  0  3  0  0  0  0  0  0
  -31.0240  -21.1490   13.0630 C   0  0  0  0  0  3  0  0  0  0  0  0
  -31.6060  -21.8070   11.7950 O   0  0  0  0  0  0  0  0  0  0  0  0
  -36.0680  -26.2600   15.5120 C   0  0  0  0  0  0  0  0  0  0  0  0
  -32.2620  -23.0780   11.9000 C   0  0  0  0  0  0  0  0  0  0  0  0
  -34.3340  -27.2930   14.1010 C   0  0  0  0  0  3  0  0  0  0  0  0
  -33.2340  -25.7620   12.3650 C   0  0  0  0  0  0  0  0  0  0  0  0
  -35.3390  -25.0160   13.4520 C   0  0  0  0  0  2  0  0  0  0  0  0
  -34.0190  -24.6700   12.7570 C   0  0  0  0  0  0  0  0  0  0  0  0
  -33.5430  -23.3320   12.5210 C   0  0  0  0  0  3  0  0  0  0  0  0
  -31.5930  -24.2310   11.4260 C   0  0  0  0  0  3  0  0  0  0  0  0
  -32.0330  -25.5390   11.6860 C   0  0  0  0  0  3  0  0  0  0  0  0
  -33.7220  -27.1640   12.6830 C   0  0  0  0  0  2  0  0  0  0  0  0
  -35.2720  -26.1660   14.4040 N   0  0  0  0  0  0  0  0  0  0  0  0
  -36.0360  -27.2560   16.2500 O   0  0  0  0  0  0  0  0  0  0  0  0
  -33.1950  -27.4360   15.1410 C   0  0  0  0  0  0  0  0  0  0  0  0
  -33.3740  -28.3460   16.1170 N   0  0  0  0  0  0  0  0  0  0  0  0
  -32.1730  -26.7530   15.0510 O   0  0  0  0  0  0  0  0  0  0  0  0
  -34.2410  -28.8630   16.1310 H   0  0  0  0  0  0  0  0  0  0  0  0
  -33.0230  -28.9690   19.6670 C   0  0  0  0  0  0  0  0  0  0  0  0
  -32.4120  -28.6670   17.1710 C   0  0  0  0  0  3  0  0  0  0  0  0
  -32.0790  -30.1780   17.1800 C   0  0  0  0  0  2  0  0  0  0  0  0
  -32.9600  -30.9820   18.1390 C   0  0  0  0  0  2  0  0  0  0  0  0
  -32.7980  -30.4690   19.5720 C   0  0  0  0  0  2  0  0  0  0  0  0
  -32.8570  -28.1260   18.5370 C   0  0  0  0  0  0  0  0  0  0  0  0
  -33.1110  -26.7430   18.6720 C   0  0  0  0  0  3  0  0  0  0  0  0
  -33.5190  -26.2030   19.9060 C   0  0  0  0  0  3  0  0  0  0  0  0
  -33.6720  -27.0420   21.0230 C   0  0  0  0  0  3  0  0  0  0  0  0
  -33.4190  -28.4200   20.9050 C   0  0  0  0  0  3  0  0  0  0  0  0
  -37.0690  -25.1270   15.8910 C   0  0  0  0  0  3  0  0  0  0  0  0
  -38.3510  -25.7620   16.2330 N   0  0  0  0  0  0  0  0  0  0  0  0
  -39.4890  -25.6020   15.5460 C   0  0  0  0  0  0  0  0  0  0  0  0
  -39.5840  -24.8420   14.5780 O   0  0  0  0  0  0  0  0  0  0  0  0
  -38.3310  -26.4420   16.9790 H   0  0  0  0  0  0  0  0  0  0  0  0
  -41.0080  -27.5310   14.9870 C   0  0  0  0  0  1  0  0  0  0  0  0
  -40.7170  -26.4150   16.0020 C   0  0  0  0  0  3  0  0  0  0  0  0
  -41.8930  -24.7800   17.4070 C   0  0  0  0  0  1  0  0  0  0  0  0
  -41.9310  -25.5920   16.1940 N   0  0  0  0  0  0  0  0  0  0  0  0
  -42.7600  -26.1780   16.2310 H   0  0  0  0  0  0  0  0  0  0  0  0
  -36.5640  -24.2250   17.0850 C   0  0  1  0  0  0  0  0  0  0  0  0
  -36.8540  -24.8230   18.4820 C   0  0  0  0  0  1  0  0  0  0  0  0
  -35.0390  -23.9870   16.9870 C   0  0  0  0  0  1  0  0  0  0  0  0
  -37.2370  -22.8340   17.0130 C   0  0  0  0  0  1  0  0  0  0  0  0
  -28.3130  -21.4880   21.1830 C   0  0  0  0  0  2  0  0  0  0  0  0
  -29.7790  -21.6650   21.5160 C   0  0  0  0  0  2  0  0  0  0  0  0
  -29.2880  -20.3600   20.9400 C   0  0  0  0  0  3  0  0  0  0  0  0
  1  2  1  0
  2  8  2  0
  3  9  1  0
  4 10  1  0
  5  3  2  0
  5  6  1  0
  6  8  1  0
  6  4  2  0
  7  1  2  0
  7  5  1  0
  8 97  1  0
  9 19  1  0
  9 10  2  0
 11 19  1  0
 11 18  2  0
 13 12  1  0
 14 13  1  0
 15 24  1  0
 15 14  1  0
 15 16  1  0
 16 17  1  0
 17 12  1  0
 17 11  1  0
 19 20  1  0
 21 24  1  0
 21 46  1  0
 22 21  2  0
 23 22  1  0
 23 25  2  0
 25 24  1  0
 26 23  1  0
 27 26  2  0
 28 27  1  0
 29 28  2  0
 29 30  1  0
 30 31  2  0
 31 26  1  0
 32 29  1  0
 33 32  1  0
 34 33  2  0
 35 34  1  0
 36 35  2  0
 36 37  1  0
 37 38  2  0
 38 33  1  0
 38 39  1  0
 40 36  1  0
 41 22  1  0
 42 44  1  0
 42 41  1  0
 43 41  2  0
 45 42  1  0
 46 48  1  0
 47 46  1  0
 50 49  1  0
 51 52  1  0
 52 49  1  0
 52  7  1  0
 53 54  1  0
 53 51  1  0
 53 50  1  0
 54 56  1  0
 55 66  2  0
 56 61  1  0
 57 65  1  0
 57 67  1  0
 58 64  1  0
 58 60  1  0
 59 65  1  0
 60 59  1  0
 61 60  2  0
 62 63  1  0
 62 56  2  0
 63 58  2  0
 64 57  1  0
 65 55  1  0
 67 68  1  0
 68 70  1  0
 69 67  2  0
 71 80  1  0
 72 68  1  0
 72 73  1  0
 72 76  1  0
 73 74  1  0
 74 75  1  0
 75 71  1  0
 76 77  1  0
 76 71  2  0
 77 78  2  0
 78 79  1  0
 80 79  2  0
 81 55  1  0
 81 82  1  0
 81 91  1  0
 82 85  1  0
 83 87  1  0
 83 82  1  0
 84 83  2  0
 87 86  1  0
 87 89  1  0
 89 90  1  0
 89 88  1  0
 91 92  1  1
 93 91  1  0
 94 91  1  0
 95 96  1  0
 97 95  1  0
 97 96  1  0
M  ISO  4  11 100  19 100  53 101  54 101
M  END
>  <TORSDO>  (11) 
F 18

>  <SCORE>  (11) 
-4.214

>  <name>  (11) 
10

>  <ligand_id>  (11) 
10

>  <original_smiles>  (11) 
[H]c1c([H])c([H])c2c(c1[H])C([H])([H])C([H])([H])C([H])([H])C2([H])N([H])C(=O)C1([H])N(C(=O)C([H])(N([H])C(=O)C([H])(N([H])C([H])([H])[H])C([H])([H])[H])C(C([H])([H])[H])(C([H])([H])[H])C([H])([H])[H])C([H])([H])c2c([H])c(OC3([H])C([H])([H])C([H])([H])C([H])(c4c([H])c([H])c(C5([H])C([H])([H])C5([H])[H])c5c([H])nc(N([H])C(=O)N6C([H])([H])C([H])([H])C([H])([H])C([H])(n7nc(-c8c([H])c([H])c(Oc9c([H])c([H])c(F)c([H])c9F)c([H])c8[H])c(C(=O)N([H])[H])c7N([H])[H])C6([H])[H])c([H])c45)C3([H])[H])c([H])c([H])c2C1([H])[H]

>  <smiles>  (11) 
[H]c1c([H])c([H])c2c(c1[H])C([H])([H])C([H])([H])C([H])([H])C2([H])N([H])C(=O)C1([H])N(C(=O)C([H])(N([H])C(=O)C([H])(N([H])C([H])([H])[H])C([H])([H])[H])C(C([H])([H])[H])(C([H])([H])[H])C([H])([H])[H])C([H])([H])c2c([H])c(OC3([H])C([H])([H])C([H])([H])C([H])(c4c([H])c([H])c(C5([H])C([H])([H])C5([H])[H])c5c([H])nc(N([H])C(=O)N6C([H])([H])C([H])([H])C([H])([H])C([H])(n7nc(-c8c([H])c([H])c(Oc9c([H])c([H])c(F)c([H])c9F)c([H])c8[H])c(C(=O)N([H])[H])c7N([H])[H])C6([H])[H])c([H])c45)C3([H])[H])c([H])c([H])c2C1([H])[H]

$$$$
11:0:0
     RDKit          3D

100110  0  0  1  0  0  0  0  0999 V2000
  -31.5590  -22.8680   19.7240 C   0  0  0  0  0  3  0  0  0  0  0  0
  -29.9340  -21.4950   20.8990 C   0  0  0  0  0  3  0  0  0  0  0  0
  -31.8760  -21.7700   18.9020 C   0  0  0  0  0  0  0  0  0  0  0  0
  -31.1800  -20.5470   19.0220 C   0  0  0  0  0  0  0  0  0  0  0  0
  -30.2400  -20.3850   20.0810 C   0  0  0  0  0  0  0  0  0  0  0  0
  -30.5320  -22.7520   20.6860 C   0  0  0  0  0  0  0  0  0  0  0  0
  -32.9560  -21.8770   17.8480 C   0  0  0  0  0  2  0  0  0  0  0  0
  -33.6330  -20.5080   17.6630 C   0  0  0  0  0  2  0  0  0  0  0  0
  -31.3760  -19.5330   17.8850 C   0  0  0  0  0  3  0  0  0  0  0  0
  -32.7200  -19.4390   17.3880 O   0  0  0  0  0  0  0  0  0  0  0  0
  -29.7270  -18.8690   15.9100 C   0  0  0  0  0  2  0  0  0  0  0  0
  -29.0020  -19.8820   16.7570 C   0  0  0  0  0  2  0  0  0  0  0  0
  -30.5160  -19.9100   16.6800 C   0  0  0  0  0  3  0  0  0  0  0  0
  -29.5160  -19.2100   20.3250 N   0  0  0  0  0  0  0  0  0  0  0  0
  -28.6740  -19.3670   20.8710 H   0  0  0  0  0  0  0  0  0  0  0  0
  -30.2260  -18.0110   20.7640 C   0  0  0  0  0  2  0  0  0  0  0  0
  -29.4050  -16.5480   18.8170 C   0  0  0  0  0  1  0  0  0  0  0  0
  -29.4060  -16.7770   20.3420 C   0  0  0  0  0  3  0  0  0  0  0  0
  -30.5620  -14.6040   20.8290 C   0  0  0  0  0  0  0  0  0  0  0  0
  -30.4370  -12.4390   19.6820 C   0  0  0  0  0  2  0  0  0  0  0  0
  -29.5540  -12.6560   18.4350 C   0  0  0  0  0  2  0  0  0  0  0  0
  -28.0570  -12.4920   18.7740 C   0  0  0  0  0  2  0  0  0  0  0  0
  -27.6320  -13.2720   20.0470 C   0  0  0  0  0  3  0  0  0  0  0  0
  -28.6360  -13.0280   21.2020 C   0  0  0  0  0  2  0  0  0  0  0  0
  -29.9870  -13.3780   20.7180 N   0  0  0  0  0  0  0  0  0  0  0  0
  -31.7030  -14.8670   20.4410 O   0  0  0  0  0  0  0  0  0  0  0  0
  -29.6690  -15.5610   21.1180 N   0  0  0  0  0  0  0  0  0  0  0  0
  -28.8450  -15.1980   21.5740 H   0  0  0  0  0  0  0  0  0  0  0  0
  -25.1720  -13.8090   20.5900 C   0  0  0  0  0  0  0  0  0  0  0  0
  -24.1110  -13.0060   20.9090 C   0  0  0  0  0  0  0  0  0  0  0  0
  -24.6210  -11.6710   20.9310 C   0  0  0  0  0  0  0  0  0  0  0  0
  -26.2600  -12.9610   20.4410 N   0  0  0  0  0  0  0  0  0  0  0  0
  -25.9260  -11.6720   20.6980 N   0  0  0  0  0  0  0  0  0  0  0  0
  -23.9320  -10.3870   21.1010 C   0  0  0  0  0  0  0  0  0  0  0  0
  -24.3510   -9.4480   22.0690 C   0  0  0  0  0  3  0  0  0  0  0  0
  -23.6630   -8.2270   22.2240 C   0  0  0  0  0  3  0  0  0  0  0  0
  -22.5420   -7.9360   21.4110 C   0  0  0  0  0  0  0  0  0  0  0  0
  -22.1430   -8.8650   20.4340 C   0  0  0  0  0  3  0  0  0  0  0  0
  -22.8330  -10.0780   20.2760 C   0  0  0  0  0  3  0  0  0  0  0  0
  -21.8270   -6.7650   21.4740 O   0  0  0  0  0  0  0  0  0  0  0  0
  -21.7510   -6.0310   22.6310 C   0  0  0  0  0  0  0  0  0  0  0  0
  -21.2320   -6.5750   23.8260 C   0  0  0  0  0  3  0  0  0  0  0  0
  -21.1060   -5.7640   24.9730 C   0  0  0  0  0  3  0  0  0  0  0  0
  -21.4880   -4.4110   24.9230 C   0  0  0  0  0  0  0  0  0  0  0  0
  -22.0010   -3.8660   23.7330 C   0  0  0  0  0  3  0  0  0  0  0  0
  -22.1290   -4.6740   22.5890 C   0  0  0  0  0  0  0  0  0  0  0  0
  -22.6030   -4.1380   21.4390 F   0  0  0  0  0  0  0  0  0  0  0  0
  -21.3610   -3.6300   26.0220 F   0  0  0  0  0  0  0  0  0  0  0  0
  -22.6840  -13.4380   21.0910 C   0  0  0  0  0  0  0  0  0  0  0  0
  -21.9300  -12.7270   21.9220 N   0  0  0  0  0  0  0  0  0  0  0  0
  -22.2430  -14.4420   20.5340 O   0  0  0  0  0  0  0  0  0  0  0  0
  -22.2980  -11.9140   22.3930 H   0  0  0  0  0  0  0  0  0  0  0  0
  -20.9710  -12.9980   22.0870 H   0  0  0  0  0  0  0  0  0  0  0  0
  -25.2960  -15.1820   20.4010 N   0  0  0  0  0  0  0  0  0  0  0  0
  -24.4960  -15.8040   20.4490 H   0  0  0  0  0  0  0  0  0  0  0  0
  -26.1410  -15.6500   20.0980 H   0  0  0  0  0  0  0  0  0  0  0  0
  -30.0700  -23.8150   21.4260 O   0  0  0  0  0  0  0  0  0  0  0  0
  -29.9910  -25.0740   20.7530 C   0  0  0  0  0  2  0  0  0  0  0  0
  -28.6040  -25.6950   20.9590 C   0  0  0  0  0  2  0  0  0  0  0  0
  -28.5570  -26.9130   20.2250 O   0  0  0  0  0  0  0  0  0  0  0  0
  -24.6170  -31.9500   23.2900 C   0  0  0  0  0  0  0  0  0  0  0  0
  -27.3550  -27.5690   20.2510 C   0  0  0  0  0  0  0  0  0  0  0  0
  -23.4390  -30.5250   21.6420 C   0  0  0  0  0  3  0  0  0  0  0  0
  -24.9260  -28.9990   20.2400 C   0  0  0  0  0  0  0  0  0  0  0  0
  -25.9540  -30.9320   21.4540 C   0  0  0  0  0  2  0  0  0  0  0  0
  -26.0670  -29.5590   20.8280 C   0  0  0  0  0  0  0  0  0  0  0  0
  -27.2850  -28.8520   20.8270 C   0  0  0  0  0  3  0  0  0  0  0  0
  -26.2020  -27.0060   19.6650 C   0  0  0  0  0  3  0  0  0  0  0  0
  -24.9850  -27.7180   19.6590 C   0  0  0  0  0  3  0  0  0  0  0  0
  -23.6670  -29.8350   20.2690 C   0  0  0  0  0  2  0  0  0  0  0  0
  -24.6870  -31.1510   22.1870 N   0  0  0  0  0  0  0  0  0  0  0  0
  -23.5300  -32.2080   23.8250 O   0  0  0  0  0  0  0  0  0  0  0  0
  -22.7970  -29.5000   22.6040 C   0  0  0  0  0  0  0  0  0  0  0  0
  -21.4790  -29.2870   22.4590 N   0  0  0  0  0  0  0  0  0  0  0  0
  -23.4830  -28.8970   23.4350 O   0  0  0  0  0  0  0  0  0  0  0  0
  -20.9880  -29.8290   21.7610 H   0  0  0  0  0  0  0  0  0  0  0  0
  -18.1280  -28.0160   22.8990 C   0  0  0  0  0  0  0  0  0  0  0  0
  -20.6720  -28.3390   23.2230 C   0  0  0  0  0  3  0  0  0  0  0  0
  -20.8210  -26.9030   22.6660 C   0  0  0  0  0  2  0  0  0  0  0  0
  -19.7490  -26.5420   21.6320 C   0  0  0  0  0  2  0  0  0  0  0  0
  -18.3510  -26.6630   22.2450 C   0  0  0  0  0  2  0  0  0  0  0  0
  -19.2180  -28.8100   23.3440 C   0  0  0  0  0  0  0  0  0  0  0  0
  -18.9580  -30.0740   23.9120 C   0  0  0  0  0  3  0  0  0  0  0  0
  -17.6390  -30.5480   24.0430 C   0  0  0  0  0  3  0  0  0  0  0  0
  -16.5620  -29.7520   23.6150 C   0  0  0  0  0  3  0  0  0  0  0  0
  -16.8070  -28.4880   23.0490 C   0  0  0  0  0  3  0  0  0  0  0  0
  -25.8930  -32.5970   23.9150 C   0  0  0  0  0  3  0  0  0  0  0  0
  -25.5730  -33.9990   24.2180 N   0  0  0  0  0  0  0  0  0  0  0  0
  -25.9180  -35.0390   23.4480 C   0  0  0  0  0  0  0  0  0  0  0  0
  -26.6100  -34.9220   22.4320 O   0  0  0  0  0  0  0  0  0  0  0  0
  -24.9630  -34.1650   25.0050 H   0  0  0  0  0  0  0  0  0  0  0  0
  -24.1990  -36.8240   23.0180 C   0  0  0  0  0  1  0  0  0  0  0  0
  -25.4160  -36.4330   23.8710 C   0  0  0  0  0  3  0  0  0  0  0  0
  -27.5230  -37.3320   24.7530 C   0  0  0  0  0  1  0  0  0  0  0  0
  -26.4500  -37.4860   23.7750 N   0  0  0  0  0  0  0  0  0  0  0  0
  -26.0390  -38.4070   23.8970 H   0  0  0  0  0  0  0  0  0  0  0  0
  -26.4020  -31.8480   25.2070 C   0  0  1  0  0  0  0  0  0  0  0  0
  -25.3020  -31.6170   26.2680 C   0  0  0  0  0  1  0  0  0  0  0  0
  -27.0000  -30.4700   24.8370 C   0  0  0  0  0  1  0  0  0  0  0  0
  -27.5410  -32.6600   25.8700 C   0  0  0  0  0  1  0  0  0  0  0  0
  1  6  1  0
  3  4  1  0
  3  1  2  0
  4  5  2  0
  5 14  1  0
  5  2  1  0
  6  2  2  0
  6 57  1  0
  7  3  1  0
  8  7  1  0
  9 13  1  0
  9  4  1  0
 10  8  1  0
 10  9  1  0
 11 13  1  0
 11 12  1  0
 13 12  1  0
 14 16  1  0
 14 15  1  0
 18 17  1  0
 18 16  1  0
 18 27  1  0
 19 27  1  0
 20 25  1  0
 21 22  1  0
 21 20  1  0
 23 22  1  0
 23 32  1  0
 23 24  1  0
 25 19  1  0
 25 24  1  0
 26 19  2  0
 27 28  1  0
 29 30  2  0
 30 31  1  0
 30 49  1  0
 31 34  1  0
 32 29  1  0
 32 33  1  0
 33 31  2  0
 34 35  1  0
 35 36  2  0
 37 40  1  0
 37 36  1  0
 38 37  2  0
 39 38  1  0
 39 34  2  0
 40 41  1  0
 41 42  1  0
 42 43  2  0
 44 43  1  0
 44 48  1  0
 45 44  2  0
 46 41  2  0
 46 45  1  0
 47 46  1  0
 49 50  1  0
 50 53  1  0
 50 52  1  0
 51 49  2  0
 54 55  1  0
 54 29  1  0
 56 54  1  0
 58 59  1  0
 58 57  1  0
 60 62  1  0
 60 59  1  0
 61 72  2  0
 62 67  1  0
 63 71  1  0
 63 73  1  0
 64 70  1  0
 64 66  1  0
 65 71  1  0
 66 65  1  0
 67 66  2  0
 68 62  2  0
 69 68  1  0
 69 64  2  0
 70 63  1  0
 71 61  1  0
 73 75  2  0
 74 73  1  0
 76 74  1  0
 77 86  2  0
 77 82  1  0
 78 74  1  0
 78 82  1  0
 79 78  1  0
 80 81  1  0
 80 79  1  0
 81 77  1  0
 82 83  2  0
 83 84  1  0
 85 84  2  0
 86 85  1  0
 87 61  1  0
 87 88  1  0
 87 97  1  0
 88 91  1  0
 89 93  1  0
 89 88  1  0
 90 89  2  0
 93 92  1  0
 95 93  1  0
 95 96  1  0
 95 94  1  0
 97100  1  1
 97 98  1  0
 99 97  1  0
M  ISO  4  19 100  27 100  59 101  60 101
M  END
>  <TORSDO>  (12) 
F 23

>  <SCORE>  (12) 
-12.973

>  <name>  (12) 
11

>  <ligand_id>  (12) 
11

>  <original_smiles>  (12) 
[H]c1c([H])c([H])c2c(c1[H])C([H])([H])C([H])([H])C([H])([H])C2([H])N([H])C(=O)C1([H])N(C(=O)C([H])(N([H])C(=O)C([H])(N([H])C([H])([H])[H])C([H])([H])[H])C(C([H])([H])[H])(C([H])([H])[H])C([H])([H])[H])C([H])([H])c2c([H])c(OC([H])([H])C([H])([H])Oc3c([H])c(N([H])C([H])([H])C([H])(N([H])C(=O)N4C([H])([H])C([H])([H])C([H])([H])C([H])(n5nc(-c6c([H])c([H])c(Oc7c([H])c([H])c(F)c([H])c7F)c([H])c6[H])c(C(=O)N([H])[H])c5N([H])[H])C4([H])[H])C([H])([H])[H])c4c(c3[H])C([H])([H])C([H])([H])OC4([H])C3([H])C([H])([H])C3([H])[H])c([H])c([H])c2C1([H])[H]

>  <smiles>  (12) 
[H]c1c([H])c([H])c2c(c1[H])C([H])([H])C([H])([H])C([H])([H])C2([H])N([H])C(=O)C1([H])N(C(=O)C([H])(N([H])C(=O)C([H])(N([H])C([H])([H])[H])C([H])([H])[H])C(C([H])([H])[H])(C([H])([H])[H])C([H])([H])[H])C([H])([H])c2c([H])c(OC([H])([H])C([H])([H])Oc3c([H])c(N([H])C([H])([H])C([H])(N([H])C(=O)N4C([H])([H])C([H])([H])C([H])([H])C([H])(n5nc(-c6c([H])c([H])c(Oc7c([H])c([H])c(F)c([H])c7F)c([H])c6[H])c(C(=O)N([H])[H])c5N([H])[H])C4([H])[H])C([H])([H])[H])c4c(c3[H])C([H])([H])C([H])([H])OC4([H])C3([H])C([H])([H])C3([H])[H])c([H])c([H])c2C1([H])[H]

$$$$
12:0:0
     RDKit          3D

 98108  0  0  1  0  0  0  0  0999 V2000
  -30.1040  -19.6290   21.1750 C   0  0  0  0  0  3  0  0  0  0  0  0
  -30.1770  -19.6880   18.7830 C   0  0  0  0  0  3  0  0  0  0  0  0
  -30.1210  -18.2010   21.1490 C   0  0  0  0  0  0  0  0  0  0  0  0
  -30.1780  -18.2590   18.7240 C   0  0  0  0  0  0  0  0  0  0  0  0
  -30.1660  -20.4190   20.0000 C   0  0  0  0  0  0  0  0  0  0  0  0
  -30.2230  -17.4770   19.9220 C   0  0  0  0  0  0  0  0  0  0  0  0
  -31.0290  -15.0170   19.4840 C   0  0  0  0  0  0  0  0  0  0  0  0
  -30.7690  -12.7650   18.4670 C   0  0  0  0  0  2  0  0  0  0  0  0
  -29.6250  -12.8290   17.4290 C   0  0  0  0  0  2  0  0  0  0  0  0
  -28.2560  -12.6030   18.1020 C   0  0  0  0  0  2  0  0  0  0  0  0
  -28.0690  -13.4700   19.3750 C   0  0  0  0  0  3  0  0  0  0  0  0
  -29.3030  -13.3650   20.2990 C   0  0  0  0  0  2  0  0  0  0  0  0
  -30.4810  -13.7640   19.5140 N   0  0  0  0  0  0  0  0  0  0  0  0
  -32.1050  -15.2290   18.9170 O   0  0  0  0  0  0  0  0  0  0  0  0
  -30.2310  -16.0100   19.9910 N   0  0  0  0  0  0  0  0  0  0  0  0
  -29.4810  -15.6300   20.5450 H   0  0  0  0  0  0  0  0  0  0  0  0
  -25.8900  -13.9850   20.6370 C   0  0  0  0  0  0  0  0  0  0  0  0
  -24.8890  -13.1780   21.1040 C   0  0  0  0  0  0  0  0  0  0  0  0
  -25.2820  -11.8400   20.7920 C   0  0  0  0  0  0  0  0  0  0  0  0
  -26.8330  -13.1370   20.0780 N   0  0  0  0  0  0  0  0  0  0  0  0
  -26.4840  -11.8330   20.2270 N   0  0  0  0  0  0  0  0  0  0  0  0
  -24.5610  -10.5710   20.9480 C   0  0  0  0  0  0  0  0  0  0  0  0
  -25.0180   -9.5650   21.8260 C   0  0  0  0  0  3  0  0  0  0  0  0
  -24.2980   -8.3600   21.9730 C   0  0  0  0  0  3  0  0  0  0  0  0
  -23.1050   -8.1520   21.2380 C   0  0  0  0  0  0  0  0  0  0  0  0
  -22.6670   -9.1480   20.3470 C   0  0  0  0  0  3  0  0  0  0  0  0
  -23.3880  -10.3450   20.1990 C   0  0  0  0  0  3  0  0  0  0  0  0
  -22.3540   -7.0040   21.2950 O   0  0  0  0  0  0  0  0  0  0  0  0
  -22.1130   -6.3610   22.4830 C   0  0  0  0  0  0  0  0  0  0  0  0
  -21.5000   -7.0160   23.5730 C   0  0  0  0  0  3  0  0  0  0  0  0
  -21.2070   -6.2990   24.7510 C   0  0  0  0  0  3  0  0  0  0  0  0
  -21.5160   -4.9280   24.8370 C   0  0  0  0  0  0  0  0  0  0  0  0
  -22.1230   -4.2740   23.7500 C   0  0  0  0  0  3  0  0  0  0  0  0
  -22.4170   -4.9870   22.5760 C   0  0  0  0  0  0  0  0  0  0  0  0
  -22.9800   -4.3460   21.5230 F   0  0  0  0  0  0  0  0  0  0  0  0
  -21.2290   -4.2380   25.9650 F   0  0  0  0  0  0  0  0  0  0  0  0
  -23.5930  -13.6240   21.7180 C   0  0  0  0  0  0  0  0  0  0  0  0
  -23.0370  -12.8270   22.6230 N   0  0  0  0  0  0  0  0  0  0  0  0
  -23.0890  -14.7090   21.4300 O   0  0  0  0  0  0  0  0  0  0  0  0
  -23.4610  -11.9450   22.8730 H   0  0  0  0  0  0  0  0  0  0  0  0
  -22.1780  -13.1030   23.0760 H   0  0  0  0  0  0  0  0  0  0  0  0
  -26.0700  -15.3670   20.6220 N   0  0  0  0  0  0  0  0  0  0  0  0
  -25.3590  -16.0060   20.9590 H   0  0  0  0  0  0  0  0  0  0  0  0
  -26.8420  -15.8390   20.1690 H   0  0  0  0  0  0  0  0  0  0  0  0
  -30.9580  -17.6730   23.5960 C   0  0  0  0  0  2  0  0  0  0  0  0
  -30.9120  -16.3510   22.8630 C   0  0  0  0  0  2  0  0  0  0  0  0
  -29.9800  -17.4710   22.4600 C   0  0  0  0  0  3  0  0  0  0  0  0
  -29.1720  -18.2290   16.3040 C   0  0  0  0  0  2  0  0  0  0  0  0
  -28.8450  -16.8900   16.9140 C   0  0  0  0  0  2  0  0  0  0  0  0
  -30.0840  -17.6400   17.3590 C   0  0  0  0  0  3  0  0  0  0  0  0
  -31.6380  -22.3810   19.2570 C   0  0  0  0  0  1  0  0  0  0  0  0
  -30.3870  -21.9810   20.0720 C   0  0  0  0  0  3  0  0  0  0  0  0
  -29.2170  -22.9020   19.7820 N   0  0  0  0  0  4  0  0  0  0  0  0
  -28.8990  -22.7190   18.8450 H   0  0  0  0  0  0  0  0  0  0  0  0
  -28.4720  -22.6200   20.4010 H   0  0  0  0  0  0  0  0  0  0  0  0
  -29.4460  -24.4050   19.9480 C   0  0  0  0  0  3  0  0  0  0  0  0
  -28.2340  -25.3680   19.6190 C   0  0  0  0  0  3  0  0  0  0  0  0
  -28.4330  -26.8180   19.8340 O   0  0  0  0  0  0  0  0  0  0  0  0
  -24.7900  -31.8550   23.4560 C   0  0  0  0  0  0  0  0  0  0  0  0
  -27.2990  -27.6400   19.8890 C   0  0  0  0  0  0  0  0  0  0  0  0
  -23.5250  -30.5930   21.7530 C   0  0  0  0  0  3  0  0  0  0  0  0
  -24.9210  -29.2030   20.1280 C   0  0  0  0  0  0  0  0  0  0  0  0
  -26.0480  -30.9670   21.4840 C   0  0  0  0  0  2  0  0  0  0  0  0
  -26.1110  -29.6560   20.7120 C   0  0  0  0  0  0  0  0  0  0  0  0
  -27.3020  -28.8880   20.5810 C   0  0  0  0  0  3  0  0  0  0  0  0
  -26.0850  -27.2430   19.2810 C   0  0  0  0  0  3  0  0  0  0  0  0
  -24.9100  -28.0030   19.4040 C   0  0  0  0  0  3  0  0  0  0  0  0
  -23.6790  -30.0510   20.3090 C   0  0  0  0  0  2  0  0  0  0  0  0
  -24.8090  -31.1510   22.2890 N   0  0  0  0  0  0  0  0  0  0  0  0
  -23.7310  -32.0670   24.0640 O   0  0  0  0  0  0  0  0  0  0  0  0
  -22.9200  -29.4830   22.6460 C   0  0  0  0  0  0  0  0  0  0  0  0
  -21.6190  -29.2030   22.4630 N   0  0  0  0  0  0  0  0  0  0  0  0
  -23.6220  -28.8800   23.4630 O   0  0  0  0  0  0  0  0  0  0  0  0
  -21.1100  -29.7490   21.7820 H   0  0  0  0  0  0  0  0  0  0  0  0
  -18.3700  -27.6300   22.6850 C   0  0  0  0  0  0  0  0  0  0  0  0
  -20.8520  -28.1710   23.1640 C   0  0  0  0  0  3  0  0  0  0  0  0
  -21.1620  -26.7660   22.5980 C   0  0  0  0  0  2  0  0  0  0  0  0
  -20.1890  -26.3310   21.4980 C   0  0  0  0  0  2  0  0  0  0  0  0
  -18.7500  -26.3150   22.0250 C   0  0  0  0  0  2  0  0  0  0  0  0
  -19.3570  -28.5080   23.2060 C   0  0  0  0  0  0  0  0  0  0  0  0
  -18.9500  -29.7340   23.7750 C   0  0  0  0  0  3  0  0  0  0  0  0
  -17.5880  -30.0840   23.8340 C   0  0  0  0  0  3  0  0  0  0  0  0
  -16.6140  -29.2020   23.3330 C   0  0  0  0  0  3  0  0  0  0  0  0
  -17.0040  -27.9790   22.7630 C   0  0  0  0  0  3  0  0  0  0  0  0
  -26.0960  -32.4470   24.0730 C   0  0  0  0  0  3  0  0  0  0  0  0
  -25.8120  -33.8340   24.4680 N   0  0  0  0  0  0  0  0  0  0  0  0
  -26.1340  -34.9140   23.7440 C   0  0  0  0  0  0  0  0  0  0  0  0
  -26.7730  -34.8470   22.6900 O   0  0  0  0  0  0  0  0  0  0  0  0
  -25.2450  -33.9620   25.2940 H   0  0  0  0  0  0  0  0  0  0  0  0
  -24.4050  -36.7270   23.5320 C   0  0  0  0  0  1  0  0  0  0  0  0
  -25.6760  -36.2850   24.2750 C   0  0  0  0  0  3  0  0  0  0  0  0
  -27.8470  -37.1270   25.0540 C   0  0  0  0  0  1  0  0  0  0  0  0
  -26.7100  -37.3370   24.1610 N   0  0  0  0  0  0  0  0  0  0  0  0
  -26.3170  -38.2520   24.3600 H   0  0  0  0  0  0  0  0  0  0  0  0
  -26.6310  -31.6180   25.3030 C   0  0  1  0  0  0  0  0  0  0  0  0
  -25.5540  -31.3240   26.3720 C   0  0  0  0  0  1  0  0  0  0  0  0
  -27.2160  -30.2670   24.8350 C   0  0  0  0  0  1  0  0  0  0  0  0
  -27.7890  -32.3860   25.9860 C   0  0  0  0  0  1  0  0  0  0  0  0
  2  5  1  0
  3  1  1  0
  3 47  1  0
  4  2  2  0
  4  6  1  0
  5 52  1  0
  5  1  2  0
  6 15  1  0
  6  3  2  0
  7 13  1  0
  7 15  1  0
  8 13  1  0
  9 10  1  0
  9  8  1  0
 11 10  1  0
 11 20  1  0
 11 12  1  0
 13 12  1  0
 14  7  2  0
 15 16  1  0
 17 18  2  0
 18 37  1  0
 19 22  1  0
 19 18  1  0
 20 21  1  0
 20 17  1  0
 21 19  2  0
 22 23  1  0
 23 24  2  0
 25 28  1  0
 25 24  1  0
 26 25  2  0
 27 26  1  0
 27 22  2  0
 28 29  1  0
 29 34  2  0
 29 30  1  0
 30 31  2  0
 31 32  1  0
 32 36  1  0
 33 32  2  0
 34 33  1  0
 35 34  1  0
 37 38  1  0
 38 40  1  0
 38 41  1  0
 39 37  2  0
 42 17  1  0
 42 43  1  0
 44 42  1  0
 46 45  1  0
 47 46  1  0
 47 45  1  0
 48 49  1  0
 48 50  1  0
 49 50  1  0
 50  4  1  0
 52 51  1  0
 53 56  1  0
 53 52  1  0
 53 55  1  0
 54 53  1  0
 57 58  1  0
 57 56  2  0
 58 60  1  0
 59 70  2  0
 60 65  1  0
 61 69  1  0
 61 71  1  0
 62 68  1  0
 62 64  1  0
 63 69  1  0
 64 63  1  0
 65 64  2  0
 66 67  1  0
 66 60  2  0
 67 62  2  0
 68 61  1  0
 69 59  1  0
 71 73  2  0
 72 71  1  0
 74 72  1  0
 75 84  2  0
 75 80  1  0
 76 72  1  0
 76 80  1  0
 77 76  1  0
 78 79  1  0
 78 77  1  0
 79 75  1  0
 80 81  2  0
 81 82  1  0
 83 82  2  0
 84 83  1  0
 85 59  1  0
 85 86  1  0
 85 95  1  0
 86 89  1  0
 87 91  1  0
 87 86  1  0
 88 87  2  0
 91 90  1  0
 93 91  1  0
 93 94  1  0
 93 92  1  0
 95 98  1  1
 95 96  1  0
 97 95  1  0
M  ISO  4   7 100  15 100  57 101  58 101
M  END
>  <TORSDO>  (13) 
F 22

>  <SCORE>  (13) 
-6.628

>  <name>  (13) 
12

>  <ligand_id>  (13) 
12

>  <original_smiles>  (13) 
[H]c1c([H])c([H])c2c(c1[H])C([H])([H])C([H])([H])C([H])([H])C2([H])N([H])C(=O)C1([H])N(C(=O)C([H])(N([H])C(=O)C([H])(N([H])C([H])([H])[H])C([H])([H])[H])C(C([H])([H])[H])(C([H])([H])[H])C([H])([H])[H])C([H])([H])c2c([H])c(OC([H])([H])C([H])([H])[N+]([H])([H])C([H])(c3c([H])c(C4([H])C([H])([H])C4([H])[H])c(N([H])C(=O)N4C([H])([H])C([H])([H])C([H])([H])C([H])(n5nc(-c6c([H])c([H])c(Oc7c([H])c([H])c(F)c([H])c7F)c([H])c6[H])c(C(=O)N([H])[H])c5N([H])[H])C4([H])[H])c(C4([H])C([H])([H])C4([H])[H])c3[H])C([H])([H])[H])c([H])c([H])c2C1([H])[H]

>  <smiles>  (13) 
[H]c1c([H])c([H])c2c(c1[H])C([H])([H])C([H])([H])C([H])([H])C2([H])N([H])C(=O)C1([H])N(C(=O)C([H])(N([H])C(=O)C([H])(N([H])C([H])([H])[H])C([H])([H])[H])C(C([H])([H])[H])(C([H])([H])[H])C([H])([H])[H])C([H])([H])c2c([H])c(OC([H])([H])C([H])([H])[N+]([H])([H])C([H])(c3c([H])c(C4([H])C([H])([H])C4([H])[H])c(N([H])C(=O)N4C([H])([H])C([H])([H])C([H])([H])C([H])(n5nc(-c6c([H])c([H])c(Oc7c([H])c([H])c(F)c([H])c7F)c([H])c6[H])c(C(=O)N([H])[H])c5N([H])[H])C4([H])[H])c(C4([H])C([H])([H])C4([H])[H])c3[H])C([H])([H])[H])c([H])c([H])c2C1([H])[H]

$$$$
13:0:0
     RDKit          3D

 93102  0  0  1  0  0  0  0  0999 V2000
  -27.8430  -22.2070   19.7660 C   0  0  0  0  0  3  0  0  0  0  0  0
  -29.8140  -22.9990   20.7860 C   0  0  0  0  0  3  0  0  0  0  0  0
  -29.5740  -20.4640   20.3580 C   0  0  0  0  0  0  0  0  0  0  0  0
  -28.5590  -23.3650   20.2050 C   0  0  0  0  0  0  0  0  0  0  0  0
  -28.2990  -20.8410   19.8180 C   0  0  0  0  0  0  0  0  0  0  0  0
  -30.2960  -21.6210   20.8620 C   0  0  0  0  0  0  0  0  0  0  0  0
  -27.3600  -19.8050   19.2170 C   0  0  0  0  0  1  0  0  0  0  0  0
  -31.6730  -21.4170   21.4700 C   0  0  0  0  0  1  0  0  0  0  0  0
  -30.6250  -15.0090   20.8640 C   0  0  0  0  0  0  0  0  0  0  0  0
  -30.5570  -12.6280   20.0430 C   0  0  0  0  0  2  0  0  0  0  0  0
  -29.7300  -12.4730   18.7470 C   0  0  0  0  0  2  0  0  0  0  0  0
  -28.2290  -12.3380   19.0620 C   0  0  0  0  0  2  0  0  0  0  0  0
  -27.7210  -13.3330   20.1380 C   0  0  0  0  0  3  0  0  0  0  0  0
  -28.6820  -13.4220   21.3420 C   0  0  0  0  0  2  0  0  0  0  0  0
  -30.0010  -13.7720   20.8040 N   0  0  0  0  0  0  0  0  0  0  0  0
  -31.8590  -15.0380   20.9070 O   0  0  0  0  0  0  0  0  0  0  0  0
  -30.9740  -17.2430   18.4190 C   0  0  0  0  0  2  0  0  0  0  0  0
  -29.8970  -16.2730   18.9180 C   0  0  0  0  0  2  0  0  0  0  0  0
  -29.6600  -17.5790   20.9420 C   0  0  0  0  0  2  0  0  0  0  0  0
  -30.2250  -18.9570   20.1980 C   0  0  0  0  0  3  0  0  0  0  0  0
  -30.5850  -18.7020   18.7000 C   0  0  0  0  0  3  0  0  0  0  0  0
  -31.6960  -19.6330   18.1750 C   0  0  0  0  0  1  0  0  0  0  0  0
  -29.9370  -16.1500   20.3790 N   0  0  0  0  0  0  0  0  0  0  0  0
  -25.2770  -13.9170   20.6600 C   0  0  0  0  0  0  0  0  0  0  0  0
  -24.1880  -13.1390   20.9510 C   0  0  0  0  0  0  0  0  0  0  0  0
  -24.6640  -11.7930   21.0030 C   0  0  0  0  0  0  0  0  0  0  0  0
  -26.3460  -13.0430   20.5400 N   0  0  0  0  0  0  0  0  0  0  0  0
  -25.9810  -11.7650   20.8210 N   0  0  0  0  0  0  0  0  0  0  0  0
  -23.9340  -10.5280   21.1540 C   0  0  0  0  0  0  0  0  0  0  0  0
  -24.3020   -9.5760   22.1310 C   0  0  0  0  0  3  0  0  0  0  0  0
  -23.5700   -8.3770   22.2730 C   0  0  0  0  0  3  0  0  0  0  0  0
  -22.4560   -8.1210   21.4390 C   0  0  0  0  0  0  0  0  0  0  0  0
  -22.1090   -9.0620   20.4520 C   0  0  0  0  0  3  0  0  0  0  0  0
  -22.8390  -10.2520   20.3090 C   0  0  0  0  0  3  0  0  0  0  0  0
  -21.7030   -6.9720   21.4880 O   0  0  0  0  0  0  0  0  0  0  0  0
  -21.5890   -6.2350   22.6400 C   0  0  0  0  0  0  0  0  0  0  0  0
  -21.0650   -6.7880   23.8290 C   0  0  0  0  0  3  0  0  0  0  0  0
  -20.9000   -5.9780   24.9710 C   0  0  0  0  0  3  0  0  0  0  0  0
  -21.2480   -4.6150   24.9230 C   0  0  0  0  0  0  0  0  0  0  0  0
  -21.7620   -4.0600   23.7390 C   0  0  0  0  0  3  0  0  0  0  0  0
  -21.9300   -4.8680   22.5990 C   0  0  0  0  0  0  0  0  0  0  0  0
  -22.4070   -4.3220   21.4540 F   0  0  0  0  0  0  0  0  0  0  0  0
  -21.0830   -3.8340   26.0170 F   0  0  0  0  0  0  0  0  0  0  0  0
  -22.7670  -13.6080   21.0710 C   0  0  0  0  0  0  0  0  0  0  0  0
  -21.9680  -12.9350   21.8900 N   0  0  0  0  0  0  0  0  0  0  0  0
  -22.3720  -14.6060   20.4710 O   0  0  0  0  0  0  0  0  0  0  0  0
  -22.2970  -12.1250   22.3960 H   0  0  0  0  0  0  0  0  0  0  0  0
  -21.0120  -13.2360   22.0130 H   0  0  0  0  0  0  0  0  0  0  0  0
  -25.4420  -15.2830   20.4610 N   0  0  0  0  0  0  0  0  0  0  0  0
  -24.6640  -15.9350   20.4840 H   0  0  0  0  0  0  0  0  0  0  0  0
  -26.3220  -15.7240   20.2250 H   0  0  0  0  0  0  0  0  0  0  0  0
  -27.8350  -24.8110   19.9560 C   0  0  0  0  0  2  0  0  0  0  0  0
  -28.2370  -26.2740   20.2030 O   0  0  0  0  0  0  0  0  0  0  0  0
  -24.5230  -31.8910   23.1860 C   0  0  0  0  0  0  0  0  0  0  0  0
  -27.1830  -27.2580   20.1260 C   0  0  0  0  0  0  0  0  0  0  0  0
  -23.3520  -30.4890   21.5350 C   0  0  0  0  0  3  0  0  0  0  0  0
  -24.8290  -28.9600   20.1090 C   0  0  0  0  0  0  0  0  0  0  0  0
  -25.9030  -30.8020   21.3810 C   0  0  0  0  0  2  0  0  0  0  0  0
  -26.0030  -29.4170   20.7230 C   0  0  0  0  0  0  0  0  0  0  0  0
  -27.1830  -28.5810   20.7190 C   0  0  0  0  0  3  0  0  0  0  0  0
  -25.9750  -26.9100   19.4690 C   0  0  0  0  0  3  0  0  0  0  0  0
  -24.8270  -27.7190   19.4680 C   0  0  0  0  0  3  0  0  0  0  0  0
  -23.5890  -29.8320   20.1540 C   0  0  0  0  0  2  0  0  0  0  0  0
  -24.6130  -31.0780   22.0910 N   0  0  0  0  0  0  0  0  0  0  0  0
  -23.4290  -32.1540   23.7080 O   0  0  0  0  0  0  0  0  0  0  0  0
  -22.6860  -29.4590   22.4840 C   0  0  0  0  0  0  0  0  0  0  0  0
  -21.3570  -29.2860   22.3650 N   0  0  0  0  0  0  0  0  0  0  0  0
  -23.3670  -28.8210   23.2920 O   0  0  0  0  0  0  0  0  0  0  0  0
  -20.8660  -29.8560   21.6900 H   0  0  0  0  0  0  0  0  0  0  0  0
  -17.9740  -28.1010   22.8950 C   0  0  0  0  0  0  0  0  0  0  0  0
  -20.5400  -28.3390   23.1290 C   0  0  0  0  0  3  0  0  0  0  0  0
  -20.6230  -26.9200   22.5220 C   0  0  0  0  0  2  0  0  0  0  0  0
  -19.5030  -26.6250   21.5180 C   0  0  0  0  0  2  0  0  0  0  0  0
  -18.1310  -26.7650   22.1860 C   0  0  0  0  0  2  0  0  0  0  0  0
  -19.1050  -28.8460   23.3230 C   0  0  0  0  0  0  0  0  0  0  0  0
  -18.9020  -30.0960   23.9470 C   0  0  0  0  0  3  0  0  0  0  0  0
  -17.6030  -30.6000   24.1460 C   0  0  0  0  0  3  0  0  0  0  0  0
  -16.4880  -29.8520   23.7340 C   0  0  0  0  0  3  0  0  0  0  0  0
  -16.6740  -28.6020   23.1150 C   0  0  0  0  0  3  0  0  0  0  0  0
  -25.7900  -32.5380   23.8250 C   0  0  0  0  0  3  0  0  0  0  0  0
  -25.4600  -33.9320   24.1530 N   0  0  0  0  0  0  0  0  0  0  0  0
  -25.8060  -34.9920   23.4120 C   0  0  0  0  0  0  0  0  0  0  0  0
  -26.5070  -34.9010   22.4010 O   0  0  0  0  0  0  0  0  0  0  0  0
  -24.8440  -34.0790   24.9400 H   0  0  0  0  0  0  0  0  0  0  0  0
  -24.0980  -36.7940   23.0070 C   0  0  0  0  0  1  0  0  0  0  0  0
  -25.3000  -36.3760   23.8670 C   0  0  0  0  0  3  0  0  0  0  0  0
  -27.3950  -37.2470   24.8060 C   0  0  0  0  0  1  0  0  0  0  0  0
  -26.3360  -37.4300   23.8170 N   0  0  0  0  0  0  0  0  0  0  0  0
  -25.9220  -38.3460   23.9640 H   0  0  0  0  0  0  0  0  0  0  0  0
  -26.2960  -31.7720   25.1090 C   0  0  1  0  0  0  0  0  0  0  0  0
  -25.1910  -31.5260   26.1640 C   0  0  0  0  0  1  0  0  0  0  0  0
  -26.8960  -30.4000   24.7300 C   0  0  0  0  0  1  0  0  0  0  0  0
  -27.4330  -32.5770   25.7830 C   0  0  0  0  0  1  0  0  0  0  0  0
  1  5  2  0
  1  4  1  0
  2  6  1  0
  3  6  2  0
  4  2  2  0
  5  3  1  0
  6  8  1  0
  7  5  1  0
  9 16  2  0
 10 15  1  0
 11 12  1  0
 11 10  1  0
 13 12  1  0
 13 27  1  0
 13 14  1  0
 15  9  1  0
 15 14  1  0
 17 21  1  0
 17 18  1  0
 18 23  1  0
 20  3  1  0
 20 19  1  0
 21 22  1  0
 21 20  1  0
 23  9  1  0
 23 19  1  0
 24 25  2  0
 25 26  1  0
 25 44  1  0
 26 29  1  0
 27 24  1  0
 27 28  1  0
 28 26  2  0
 29 30  1  0
 30 31  2  0
 32 35  1  0
 32 31  1  0
 33 32  2  0
 34 33  1  0
 34 29  2  0
 35 36  1  0
 36 37  1  0
 37 38  2  0
 39 38  1  0
 39 43  1  0
 40 39  2  0
 41 36  2  0
 41 40  1  0
 42 41  1  0
 44 45  1  0
 45 48  1  0
 45 47  1  0
 46 44  2  0
 49 50  1  0
 49 24  1  0
 51 49  1  0
 52 53  1  0
 52  4  1  0
 54 65  2  0
 55 53  1  0
 55 60  1  0
 56 64  1  0
 56 66  1  0
 57 63  1  0
 57 59  1  0
 58 64  1  0
 59 58  1  0
 60 59  2  0
 61 55  2  0
 62 61  1  0
 62 57  2  0
 63 56  1  0
 64 54  1  0
 66 68  2  0
 67 66  1  0
 69 67  1  0
 70 79  2  0
 70 75  1  0
 71 67  1  0
 71 75  1  0
 72 71  1  0
 73 74  1  0
 73 72  1  0
 74 70  1  0
 75 76  2  0
 76 77  1  0
 78 77  2  0
 79 78  1  0
 80 54  1  0
 80 81  1  0
 80 90  1  0
 81 84  1  0
 82 86  1  0
 82 81  1  0
 83 82  2  0
 86 85  1  0
 88 86  1  0
 88 89  1  0
 88 87  1  0
 90 93  1  1
 90 91  1  0
 92 90  1  0
M  ISO  4   9 100  23 100  52 101  53 101
M  END
>  <TORSDO>  (14) 
F 17

>  <SCORE>  (14) 
-15.015

>  <name>  (14) 
13

>  <ligand_id>  (14) 
13

>  <original_smiles>  (14) 
[H]c1c([H])c([H])c2c(c1[H])C([H])([H])C([H])([H])C([H])([H])C2([H])N([H])C(=O)C1([H])N(C(=O)C([H])(N([H])C(=O)C([H])(N([H])C([H])([H])[H])C([H])([H])[H])C(C([H])([H])[H])(C([H])([H])[H])C([H])([H])[H])C([H])([H])c2c([H])c(OC([H])([H])c3c([H])c(C([H])([H])[H])c(C4([H])C([H])([H])N(C(=O)N5C([H])([H])C([H])([H])C([H])([H])C([H])(n6nc(-c7c([H])c([H])c(Oc8c([H])c([H])c(F)c([H])c8F)c([H])c7[H])c(C(=O)N([H])[H])c6N([H])[H])C5([H])[H])C([H])([H])C([H])([H])C4([H])C([H])([H])[H])c(C([H])([H])[H])c3[H])c([H])c([H])c2C1([H])[H]

>  <smiles>  (14) 
[H]c1c([H])c([H])c2c(c1[H])C([H])([H])C([H])([H])C([H])([H])C2([H])N([H])C(=O)C1([H])N(C(=O)C([H])(N([H])C(=O)C([H])(N([H])C([H])([H])[H])C([H])([H])[H])C(C([H])([H])[H])(C([H])([H])[H])C([H])([H])[H])C([H])([H])c2c([H])c(OC([H])([H])c3c([H])c(C([H])([H])[H])c(C4([H])C([H])([H])N(C(=O)N5C([H])([H])C([H])([H])C([H])([H])C([H])(n6nc(-c7c([H])c([H])c(Oc8c([H])c([H])c(F)c([H])c8F)c([H])c7[H])c(C(=O)N([H])[H])c6N([H])[H])C5([H])[H])C([H])([H])C([H])([H])C4([H])C([H])([H])[H])c(C([H])([H])[H])c3[H])c([H])c([H])c2C1([H])[H]

$$$$
14:0:0
     RDKit          3D

 97106  0  0  1  0  0  0  0  0999 V2000
  -27.7410  -22.8290   20.0160 C   0  0  0  0  0  3  0  0  0  0  0  0
  -29.9560  -23.3160   20.7850 C   0  0  0  0  0  3  0  0  0  0  0  0
  -28.6490  -23.7960   20.5290 C   0  0  0  0  0  0  0  0  0  0  0  0
  -28.0950  -21.4580   19.8060 C   0  0  0  0  0  0  0  0  0  0  0  0
  -30.3230  -21.9440   20.6020 C   0  0  0  0  0  0  0  0  0  0  0  0
  -29.3980  -20.9660   20.1190 C   0  0  0  0  0  0  0  0  0  0  0  0
  -27.0450  -20.5190   19.2350 C   0  0  0  0  0  1  0  0  0  0  0  0
  -31.7360  -21.5370   20.9920 C   0  0  0  0  0  1  0  0  0  0  0  0
  -29.4070  -18.3680   20.6620 C   0  0  0  0  0  2  0  0  0  0  0  0
  -30.4670  -19.1940   18.6800 C   0  0  0  0  0  2  0  0  0  0  0  0
  -30.3230  -17.2000   20.1210 C   0  0  0  0  0  3  0  0  0  0  0  0
  -30.4400  -17.6430   18.6450 C   0  0  0  0  0  3  0  0  0  0  0  0
  -29.7930  -19.5930   19.9110 N   0  0  0  0  0  0  0  0  0  0  0  0
  -30.6120  -14.6410   20.0150 C   0  0  0  0  0  0  0  0  0  0  0  0
  -30.3060  -12.4190   18.9690 C   0  0  0  0  0  2  0  0  0  0  0  0
  -29.3040  -12.5690   17.8050 C   0  0  0  0  0  2  0  0  0  0  0  0
  -27.8560  -12.4190   18.3110 C   0  0  0  0  0  2  0  0  0  0  0  0
  -27.5700  -13.2700   19.5800 C   0  0  0  0  0  3  0  0  0  0  0  0
  -28.6890  -13.1130   20.6330 C   0  0  0  0  0  2  0  0  0  0  0  0
  -29.9610  -13.4390   19.9780 N   0  0  0  0  0  0  0  0  0  0  0  0
  -31.7530  -14.7680   19.5630 O   0  0  0  0  0  0  0  0  0  0  0  0
  -29.8810  -15.7630   20.2990 N   0  0  0  0  0  0  0  0  0  0  0  0
  -28.9370  -15.6120   20.6200 H   0  0  0  0  0  0  0  0  0  0  0  0
  -25.2300  -13.8630   20.4550 C   0  0  0  0  0  0  0  0  0  0  0  0
  -24.1820  -13.0870   20.8670 C   0  0  0  0  0  0  0  0  0  0  0  0
  -24.6310  -11.7340   20.7730 C   0  0  0  0  0  0  0  0  0  0  0  0
  -26.2530  -12.9830   20.1370 N   0  0  0  0  0  0  0  0  0  0  0  0
  -25.9000  -11.6950   20.3870 N   0  0  0  0  0  0  0  0  0  0  0  0
  -23.9070  -10.4710   20.9700 C   0  0  0  0  0  0  0  0  0  0  0  0
  -24.3520   -9.5000   21.8940 C   0  0  0  0  0  3  0  0  0  0  0  0
  -23.6270   -8.3040   22.0800 C   0  0  0  0  0  3  0  0  0  0  0  0
  -22.4450   -8.0680   21.3410 C   0  0  0  0  0  0  0  0  0  0  0  0
  -22.0170   -9.0270   20.4050 C   0  0  0  0  0  3  0  0  0  0  0  0
  -22.7420  -10.2150   20.2180 C   0  0  0  0  0  3  0  0  0  0  0  0
  -21.6900   -6.9240   21.4370 O   0  0  0  0  0  0  0  0  0  0  0  0
  -21.6160   -6.2040   22.6020 C   0  0  0  0  0  0  0  0  0  0  0  0
  -21.0930   -6.7610   23.7890 C   0  0  0  0  0  3  0  0  0  0  0  0
  -20.9730   -5.9650   24.9470 C   0  0  0  0  0  3  0  0  0  0  0  0
  -21.3650   -4.6150   24.9170 C   0  0  0  0  0  0  0  0  0  0  0  0
  -21.8830   -4.0570   23.7330 C   0  0  0  0  0  3  0  0  0  0  0  0
  -22.0050   -4.8500   22.5790 C   0  0  0  0  0  0  0  0  0  0  0  0
  -22.4830   -4.3020   21.4360 F   0  0  0  0  0  0  0  0  0  0  0  0
  -21.2430   -3.8470   26.0260 F   0  0  0  0  0  0  0  0  0  0  0  0
  -22.8060  -13.5650   21.2340 C   0  0  0  0  0  0  0  0  0  0  0  0
  -22.1240  -12.8500   22.1210 N   0  0  0  0  0  0  0  0  0  0  0  0
  -22.3480  -14.6070   20.7670 O   0  0  0  0  0  0  0  0  0  0  0  0
  -22.5070  -12.0060   22.5190 H   0  0  0  0  0  0  0  0  0  0  0  0
  -21.2040  -13.1530   22.4090 H   0  0  0  0  0  0  0  0  0  0  0  0
  -25.3940  -15.2370   20.3040 N   0  0  0  0  0  0  0  0  0  0  0  0
  -24.6340  -15.8870   20.4710 H   0  0  0  0  0  0  0  0  0  0  0  0
  -26.2080  -15.6780   19.8990 H   0  0  0  0  0  0  0  0  0  0  0  0
  -31.5970  -17.0580   17.9490 N   0  0  0  0  0  4  0  0  0  0  0  0
  -32.4450  -17.5260   18.2110 H   0  0  0  0  0  0  0  0  0  0  0  0
  -31.4830  -17.1070   16.9530 H   0  0  0  0  0  0  0  0  0  0  0  0
  -31.6840  -16.0900   18.2360 H   0  0  0  0  0  0  0  0  0  0  0  0
  -28.1460  -25.2000   21.0440 C   0  0  0  0  0  2  0  0  0  0  0  0
  -28.4490  -26.4820   20.3680 O   0  0  0  0  0  0  0  0  0  0  0  0
  -24.6380  -31.8900   23.2970 C   0  0  0  0  0  0  0  0  0  0  0  0
  -27.3620  -27.3640   20.3060 C   0  0  0  0  0  0  0  0  0  0  0  0
  -23.4900  -30.4920   21.6180 C   0  0  0  0  0  3  0  0  0  0  0  0
  -24.9910  -28.9530   20.2310 C   0  0  0  0  0  0  0  0  0  0  0  0
  -26.0300  -30.8310   21.5050 C   0  0  0  0  0  2  0  0  0  0  0  0
  -26.1410  -29.4530   20.8590 C   0  0  0  0  0  0  0  0  0  0  0  0
  -27.3340  -28.6690   20.8890 C   0  0  0  0  0  3  0  0  0  0  0  0
  -26.1940  -26.9150   19.6550 C   0  0  0  0  0  3  0  0  0  0  0  0
  -25.0190  -27.6870   19.6210 C   0  0  0  0  0  3  0  0  0  0  0  0
  -23.7480  -29.8190   20.2440 C   0  0  0  0  0  2  0  0  0  0  0  0
  -24.7370  -31.0850   22.1990 N   0  0  0  0  0  0  0  0  0  0  0  0
  -23.5380  -32.1610   23.8010 O   0  0  0  0  0  0  0  0  0  0  0  0
  -22.8030  -29.4700   22.5560 C   0  0  0  0  0  0  0  0  0  0  0  0
  -21.4770  -29.3100   22.4100 N   0  0  0  0  0  0  0  0  0  0  0  0
  -23.4630  -28.8250   23.3740 O   0  0  0  0  0  0  0  0  0  0  0  0
  -21.0040  -29.8860   21.7260 H   0  0  0  0  0  0  0  0  0  0  0  0
  -18.0710  -28.1870   22.8860 C   0  0  0  0  0  0  0  0  0  0  0  0
  -20.6350  -28.3720   23.1550 C   0  0  0  0  0  3  0  0  0  0  0  0
  -20.6980  -26.9550   22.5390 C   0  0  0  0  0  2  0  0  0  0  0  0
  -19.5850  -26.6910   21.5190 C   0  0  0  0  0  2  0  0  0  0  0  0
  -18.2090  -26.8530   22.1730 C   0  0  0  0  0  2  0  0  0  0  0  0
  -19.2110  -28.9080   23.3330 C   0  0  0  0  0  0  0  0  0  0  0  0
  -19.0270  -30.1580   23.9630 C   0  0  0  0  0  3  0  0  0  0  0  0
  -17.7380  -30.6890   24.1480 C   0  0  0  0  0  3  0  0  0  0  0  0
  -16.6110  -29.9640   23.7180 C   0  0  0  0  0  3  0  0  0  0  0  0
  -16.7800  -28.7150   23.0950 C   0  0  0  0  0  3  0  0  0  0  0  0
  -25.9000  -32.5280   23.9580 C   0  0  0  0  0  3  0  0  0  0  0  0
  -26.3600  -31.7770   25.2680 C   0  0  1  0  0  0  0  0  0  0  0  0
  -25.2230  -31.5560   26.2920 C   0  0  0  0  0  1  0  0  0  0  0  0
  -26.9580  -30.3940   24.9200 C   0  0  0  0  0  1  0  0  0  0  0  0
  -27.4820  -32.5800   25.9660 C   0  0  0  0  0  1  0  0  0  0  0  0
  -25.5850  -33.9340   24.2530 N   0  0  0  0  0  0  0  0  0  0  0  0
  -25.9480  -34.9720   23.4870 C   0  0  0  0  0  0  0  0  0  0  0  0
  -26.6530  -34.8470   22.4830 O   0  0  0  0  0  0  0  0  0  0  0  0
  -24.9710  -34.1060   25.0330 H   0  0  0  0  0  0  0  0  0  0  0  0
  -24.2570  -36.7740   23.0250 C   0  0  0  0  0  1  0  0  0  0  0  0
  -25.4520  -36.3700   23.9010 C   0  0  0  0  0  3  0  0  0  0  0  0
  -27.5460  -37.2550   24.8340 C   0  0  0  0  0  1  0  0  0  0  0  0
  -26.5010  -37.4120   23.8270 N   0  0  0  0  0  0  0  0  0  0  0  0
  -26.0930  -38.3380   23.9360 H   0  0  0  0  0  0  0  0  0  0  0  0
  1  3  1  0
  3  2  2  0
  3 56  1  0
  4  1  2  0
  4  6  1  0
  5  2  1  0
  5  8  1  0
  6  5  2  0
  7  4  1  0
 10 13  1  0
 11 22  1  0
 11  9  1  0
 12 52  1  0
 12 10  1  0
 12 11  1  0
 13  6  1  0
 13  9  1  0
 14 22  1  0
 15 20  1  0
 16 17  1  0
 16 15  1  0
 18 17  1  0
 18 27  1  0
 18 19  1  0
 20 14  1  0
 20 19  1  0
 21 14  2  0
 22 23  1  0
 24 25  2  0
 25 44  1  0
 26 25  1  0
 26 29  1  0
 27 28  1  0
 27 24  1  0
 28 26  2  0
 29 30  1  0
 30 31  2  0
 32 35  1  0
 32 31  1  0
 33 32  2  0
 34 33  1  0
 34 29  2  0
 35 36  1  0
 36 37  1  0
 37 38  2  0
 39 38  1  0
 39 43  1  0
 40 39  2  0
 41 36  2  0
 41 40  1  0
 42 41  1  0
 44 45  1  0
 45 48  1  0
 45 47  1  0
 46 44  2  0
 49 24  1  0
 49 50  1  0
 51 49  1  0
 52 53  1  0
 52 55  1  0
 54 52  1  0
 57 56  1  0
 58 69  2  0
 59 57  1  0
 59 64  1  0
 60 68  1  0
 60 70  1  0
 61 67  1  0
 61 63  1  0
 62 68  1  0
 63 64  2  0
 63 62  1  0
 65 59  2  0
 66 65  1  0
 66 61  2  0
 67 60  1  0
 68 58  1  0
 70 72  2  0
 71 70  1  0
 73 71  1  0
 74 83  2  0
 74 79  1  0
 75 71  1  0
 75 79  1  0
 76 75  1  0
 77 78  1  0
 77 76  1  0
 78 74  1  0
 79 80  2  0
 80 81  1  0
 82 81  2  0
 83 82  1  0
 84 58  1  0
 84 89  1  0
 84 85  1  0
 85 88  1  1
 85 86  1  0
 87 85  1  0
 89 92  1  0
 90 94  1  0
 90 89  1  0
 91 90  2  0
 94 93  1  0
 96 94  1  0
 96 97  1  0
 96 95  1  0
M  ISO  4  14 100  22 100  56 101  57 101
M  END
>  <TORSDO>  (15) 
F 19

>  <SCORE>  (15) 
-14.535

>  <name>  (15) 
14

>  <ligand_id>  (15) 
14

>  <original_smiles>  (15) 
[H]c1c([H])c([H])c2c(c1[H])C([H])([H])C([H])([H])C([H])([H])C2([H])N([H])C(=O)C1([H])N(C(=O)C([H])(N([H])C(=O)C([H])(N([H])C([H])([H])[H])C([H])([H])[H])C(C([H])([H])[H])(C([H])([H])[H])C([H])([H])[H])C([H])([H])c2c([H])c(OC([H])([H])c3c([H])c(C([H])([H])[H])c(N4C([H])([H])C([H])(N([H])C(=O)N5C([H])([H])C([H])([H])C([H])([H])C([H])(n6nc(-c7c([H])c([H])c(Oc8c([H])c([H])c(F)c([H])c8F)c([H])c7[H])c(C(=O)N([H])[H])c6N([H])[H])C5([H])[H])C([H])([N+]([H])([H])[H])C4([H])[H])c(C([H])([H])[H])c3[H])c([H])c([H])c2C1([H])[H]

>  <smiles>  (15) 
[H]c1c([H])c([H])c2c(c1[H])C([H])([H])C([H])([H])C([H])([H])C2([H])N([H])C(=O)C1([H])N(C(=O)C([H])(N([H])C(=O)C([H])(N([H])C([H])([H])[H])C([H])([H])[H])C(C([H])([H])[H])(C([H])([H])[H])C([H])([H])[H])C([H])([H])c2c([H])c(OC([H])([H])c3c([H])c(C([H])([H])[H])c(N4C([H])([H])C([H])(N([H])C(=O)N5C([H])([H])C([H])([H])C([H])([H])C([H])(n6nc(-c7c([H])c([H])c(Oc8c([H])c([H])c(F)c([H])c8F)c([H])c7[H])c(C(=O)N([H])[H])c6N([H])[H])C5([H])[H])C([H])([N+]([H])([H])[H])C4([H])[H])c(C([H])([H])[H])c3[H])c([H])c([H])c2C1([H])[H]

$$$$
15:0:0
     RDKit          3D

 94103  0  0  1  0  0  0  0  0999 V2000
  -28.8060  -24.7390   21.8520 C   0  0  0  0  0  3  0  0  0  0  0  0
  -29.7040  -22.5440   22.3280 C   0  0  0  0  0  3  0  0  0  0  0  0
  -29.2190  -23.7810   22.7920 C   0  0  0  0  0  0  0  0  0  0  0  0
  -28.8970  -24.4350   20.4790 C   0  0  0  0  0  0  0  0  0  0  0  0
  -29.7750  -22.3130   20.9340 C   0  0  0  0  0  0  0  0  0  0  0  0
  -29.1690  -24.0880   24.2760 C   0  0  0  0  0  1  0  0  0  0  0  0
  -29.3800  -23.2450   20.0390 N   0  0  0  0  0  0  0  0  0  0  0  0
  -28.4870  -25.4530   19.4120 C   0  0  0  0  0  2  0  0  0  0  0  0
  -28.3430  -26.7930   19.9120 O   0  0  0  0  0  0  0  0  0  0  0  0
  -24.5630  -31.8450   23.1770 C   0  0  0  0  0  0  0  0  0  0  0  0
  -27.1220  -27.4420   19.9580 C   0  0  0  0  0  0  0  0  0  0  0  0
  -23.3100  -30.4750   21.5430 C   0  0  0  0  0  3  0  0  0  0  0  0
  -24.7220  -28.9510   20.0640 C   0  0  0  0  0  0  0  0  0  0  0  0
  -25.8320  -30.8250   21.2880 C   0  0  0  0  0  2  0  0  0  0  0  0
  -25.8930  -29.4630   20.6300 C   0  0  0  0  0  0  0  0  0  0  0  0
  -27.0900  -28.7140   20.5770 C   0  0  0  0  0  3  0  0  0  0  0  0
  -25.9200  -26.9350   19.4040 C   0  0  0  0  0  3  0  0  0  0  0  0
  -24.7290  -27.6860   19.4530 C   0  0  0  0  0  3  0  0  0  0  0  0
  -23.4840  -29.8160   20.1480 C   0  0  0  0  0  2  0  0  0  0  0  0
  -24.5870  -31.0640   22.0610 N   0  0  0  0  0  0  0  0  0  0  0  0
  -23.4970  -32.1140   23.7480 O   0  0  0  0  0  0  0  0  0  0  0  0
  -22.6780  -29.4410   22.5010 C   0  0  0  0  0  0  0  0  0  0  0  0
  -21.3560  -29.2430   22.3790 N   0  0  0  0  0  0  0  0  0  0  0  0
  -23.3730  -28.8190   23.3090 O   0  0  0  0  0  0  0  0  0  0  0  0
  -20.8550  -29.7960   21.6990 H   0  0  0  0  0  0  0  0  0  0  0  0
  -18.0080  -27.9750   22.8510 C   0  0  0  0  0  0  0  0  0  0  0  0
  -20.5550  -28.2930   23.1520 C   0  0  0  0  0  3  0  0  0  0  0  0
  -20.6980  -26.8600   22.5890 C   0  0  0  0  0  2  0  0  0  0  0  0
  -19.6150  -26.5050   21.5650 C   0  0  0  0  0  2  0  0  0  0  0  0
  -18.2230  -26.6250   22.1900 C   0  0  0  0  0  2  0  0  0  0  0  0
  -19.1040  -28.7650   23.2880 C   0  0  0  0  0  0  0  0  0  0  0  0
  -18.8490  -30.0310   23.8620 C   0  0  0  0  0  3  0  0  0  0  0  0
  -17.5310  -30.5050   24.0060 C   0  0  0  0  0  3  0  0  0  0  0  0
  -16.4500  -29.7120   23.5860 C   0  0  0  0  0  3  0  0  0  0  0  0
  -16.6880  -28.4490   23.0140 C   0  0  0  0  0  3  0  0  0  0  0  0
  -25.8660  -32.4600   23.7740 C   0  0  0  0  0  3  0  0  0  0  0  0
  -26.4130  -31.6640   25.0220 C   0  0  1  0  0  0  0  0  0  0  0  0
  -25.3460  -31.4070   26.1120 C   0  0  0  0  0  1  0  0  0  0  0  0
  -26.9820  -30.2950   24.5840 C   0  0  0  0  0  1  0  0  0  0  0  0
  -27.5830  -32.4420   25.6700 C   0  0  0  0  0  1  0  0  0  0  0  0
  -25.5740  -33.8540   24.1330 N   0  0  0  0  0  0  0  0  0  0  0  0
  -25.9080  -34.9180   23.3890 C   0  0  0  0  0  0  0  0  0  0  0  0
  -26.5650  -34.8270   22.3490 O   0  0  0  0  0  0  0  0  0  0  0  0
  -24.9880  -33.9980   24.9420 H   0  0  0  0  0  0  0  0  0  0  0  0
  -24.1920  -36.7300   23.0820 C   0  0  0  0  0  1  0  0  0  0  0  0
  -25.4360  -36.3000   23.8760 C   0  0  0  0  0  3  0  0  0  0  0  0
  -27.5820  -37.1500   24.7120 C   0  0  0  0  0  1  0  0  0  0  0  0
  -26.4780  -37.3450   23.7760 N   0  0  0  0  0  0  0  0  0  0  0  0
  -26.0830  -38.2670   23.9420 H   0  0  0  0  0  0  0  0  0  0  0  0
  -30.3070  -21.1850   20.3380 O   0  0  0  0  0  0  0  0  0  0  0  0
  -31.4900  -17.6490   21.0520 C   0  0  0  0  0  2  0  0  0  0  0  0
  -28.9870  -17.6730   20.9470 C   0  0  0  0  0  2  0  0  0  0  0  0
  -31.5310  -19.1200   20.5810 C   0  0  0  0  0  2  0  0  0  0  0  0
  -28.9930  -19.1600   20.5300 C   0  0  0  0  0  2  0  0  0  0  0  0
  -30.2530  -16.9400   20.4600 C   0  0  0  0  0  3  0  0  0  0  0  0
  -30.2650  -19.9080   20.9890 C   0  0  0  0  0  3  0  0  0  0  0  0
  -30.8420  -14.5240   20.1060 C   0  0  0  0  0  0  0  0  0  0  0  0
  -30.5020  -12.3890   18.9230 C   0  0  0  0  0  2  0  0  0  0  0  0
  -29.5110  -12.6350   17.7660 C   0  0  0  0  0  2  0  0  0  0  0  0
  -28.0550  -12.4850   18.2540 C   0  0  0  0  0  2  0  0  0  0  0  0
  -27.7760  -13.2870   19.5540 C   0  0  0  0  0  3  0  0  0  0  0  0
  -28.8760  -13.0250   20.6090 C   0  0  0  0  0  2  0  0  0  0  0  0
  -30.1800  -13.3400   19.9980 N   0  0  0  0  0  0  0  0  0  0  0  0
  -31.9070  -14.7540   19.5270 O   0  0  0  0  0  0  0  0  0  0  0  0
  -30.1650  -15.4990   20.7440 N   0  0  0  0  0  0  0  0  0  0  0  0
  -29.3300  -15.1910   21.2160 H   0  0  0  0  0  0  0  0  0  0  0  0
  -25.4030  -13.8800   20.3640 C   0  0  0  0  0  0  0  0  0  0  0  0
  -24.3560  -13.0980   20.7740 C   0  0  0  0  0  0  0  0  0  0  0  0
  -24.8220  -11.7500   20.7130 C   0  0  0  0  0  0  0  0  0  0  0  0
  -26.4420  -13.0050   20.0830 N   0  0  0  0  0  0  0  0  0  0  0  0
  -26.0970  -11.7190   20.3480 N   0  0  0  0  0  0  0  0  0  0  0  0
  -24.1110  -10.4820   20.9270 C   0  0  0  0  0  0  0  0  0  0  0  0
  -24.5270   -9.5580   21.9110 C   0  0  0  0  0  3  0  0  0  0  0  0
  -23.8170   -8.3550   22.1100 C   0  0  0  0  0  3  0  0  0  0  0  0
  -22.6760   -8.0660   21.3240 C   0  0  0  0  0  0  0  0  0  0  0  0
  -22.2800   -8.9790   20.3300 C   0  0  0  0  0  3  0  0  0  0  0  0
  -22.9910  -10.1730   20.1290 C   0  0  0  0  0  3  0  0  0  0  0  0
  -21.9390   -6.9110   21.4280 O   0  0  0  0  0  0  0  0  0  0  0  0
  -21.7810   -6.2650   22.6290 C   0  0  0  0  0  0  0  0  0  0  0  0
  -21.2030   -6.9030   23.7470 C   0  0  0  0  0  3  0  0  0  0  0  0
  -20.9940   -6.1820   24.9400 C   0  0  0  0  0  3  0  0  0  0  0  0
  -21.3540   -4.8220   25.0130 C   0  0  0  0  0  0  0  0  0  0  0  0
  -21.9240   -4.1830   23.8980 C   0  0  0  0  0  3  0  0  0  0  0  0
  -22.1340   -4.9020   22.7080 C   0  0  0  0  0  0  0  0  0  0  0  0
  -22.6650   -4.2770   21.6300 F   0  0  0  0  0  0  0  0  0  0  0  0
  -21.1470   -4.1270   26.1550 F   0  0  0  0  0  0  0  0  0  0  0  0
  -22.9690  -13.5650   21.1110 C   0  0  0  0  0  0  0  0  0  0  0  0
  -22.2840  -12.8610   22.0050 N   0  0  0  0  0  0  0  0  0  0  0  0
  -22.5010  -14.5920   20.6190 O   0  0  0  0  0  0  0  0  0  0  0  0
  -22.6760  -12.0310   22.4270 H   0  0  0  0  0  0  0  0  0  0  0  0
  -21.3540  -13.1520   22.2690 H   0  0  0  0  0  0  0  0  0  0  0  0
  -25.5530  -15.2510   20.1870 N   0  0  0  0  0  0  0  0  0  0  0  0
  -24.7880  -15.9010   20.3310 H   0  0  0  0  0  0  0  0  0  0  0  0
  -26.3840  -15.6910   19.8110 H   0  0  0  0  0  0  0  0  0  0  0  0
  1  3  1  0
  2  3  2  0
  3  6  1  0
  4  1  2  0
  5  2  1  0
  7  4  1  0
  7  5  2  0
  8  9  1  0
  8  4  1  0
  9 11  1  0
 10 21  2  0
 11 16  1  0
 12 20  1  0
 12 22  1  0
 13 19  1  0
 13 15  1  0
 14 20  1  0
 15 14  1  0
 16 15  2  0
 17 18  1  0
 17 11  2  0
 18 13  2  0
 19 12  1  0
 20 10  1  0
 22 24  2  0
 23 22  1  0
 25 23  1  0
 26 35  2  0
 26 31  1  0
 27 23  1  0
 27 31  1  0
 28 27  1  0
 29 30  1  0
 29 28  1  0
 30 26  1  0
 31 32  2  0
 32 33  1  0
 34 33  2  0
 35 34  1  0
 36 10  1  0
 36 41  1  0
 36 37  1  0
 37 40  1  1
 37 38  1  0
 39 37  1  0
 41 44  1  0
 42 46  1  0
 42 41  1  0
 43 42  2  0
 46 45  1  0
 48 46  1  0
 48 49  1  0
 48 47  1  0
 50  5  1  0
 53 56  1  0
 53 51  1  0
 54 52  1  0
 54 56  1  0
 55 65  1  0
 55 52  1  0
 55 51  1  0
 56 50  1  0
 57 65  1  0
 58 63  1  0
 59 60  1  0
 59 58  1  0
 61 60  1  0
 61 70  1  0
 61 62  1  0
 63 57  1  0
 63 62  1  0
 64 57  2  0
 65 66  1  0
 67 68  2  0
 68 87  1  0
 69 68  1  0
 69 72  1  0
 70 71  1  0
 70 67  1  0
 71 69  2  0
 72 73  1  0
 73 74  2  0
 75 78  1  0
 75 74  1  0
 76 75  2  0
 77 76  1  0
 77 72  2  0
 78 79  1  0
 79 84  2  0
 79 80  1  0
 80 81  2  0
 81 82  1  0
 82 86  1  0
 83 82  2  0
 84 83  1  0
 85 84  1  0
 87 88  1  0
 88 91  1  0
 88 90  1  0
 89 87  2  0
 92 93  1  0
 92 67  1  0
 94 92  1  0
M  ISO  4   8 101   9 101  57 100  65 100
M  END
>  <TORSDO>  (16) 
F 19

>  <SCORE>  (16) 
-13.469

>  <name>  (16) 
15

>  <ligand_id>  (16) 
15

>  <original_smiles>  (16) 
[H]c1c([H])c([H])c2c(c1[H])C([H])([H])C([H])([H])C([H])([H])C2([H])N([H])C(=O)C1([H])N(C(=O)C([H])(N([H])C(=O)C([H])(N([H])C([H])([H])[H])C([H])([H])[H])C(C([H])([H])[H])(C([H])([H])[H])C([H])([H])[H])C([H])([H])c2c([H])c(OC([H])([H])c3nc(OC4([H])C([H])([H])C([H])([H])C([H])(N([H])C(=O)N5C([H])([H])C([H])([H])C([H])([H])C([H])(n6nc(-c7c([H])c([H])c(Oc8c([H])c([H])c(F)c([H])c8F)c([H])c7[H])c(C(=O)N([H])[H])c6N([H])[H])C5([H])[H])C([H])([H])C4([H])[H])c([H])c(C([H])([H])[H])c3[H])c([H])c([H])c2C1([H])[H]

>  <smiles>  (16) 
[H]c1c([H])c([H])c2c(c1[H])C([H])([H])C([H])([H])C([H])([H])C2([H])N([H])C(=O)C1([H])N(C(=O)C([H])(N([H])C(=O)C([H])(N([H])C([H])([H])[H])C([H])([H])[H])C(C([H])([H])[H])(C([H])([H])[H])C([H])([H])[H])C([H])([H])c2c([H])c(OC([H])([H])c3nc(OC4([H])C([H])([H])C([H])([H])C([H])(N([H])C(=O)N5C([H])([H])C([H])([H])C([H])([H])C([H])(n6nc(-c7c([H])c([H])c(Oc8c([H])c([H])c(F)c([H])c8F)c([H])c7[H])c(C(=O)N([H])[H])c6N([H])[H])C5([H])[H])C([H])([H])C4([H])[H])c([H])c(C([H])([H])[H])c3[H])c([H])c([H])c2C1([H])[H]

$$$$
16:0:0
     RDKit          3D

 93102  0  0  1  0  0  0  0  0999 V2000
  -28.9060  -22.8970   21.4250 C   0  0  0  0  0  2  0  0  0  0  0  0
  -29.1470  -23.0600   18.9170 C   0  0  0  0  0  2  0  0  0  0  0  0
  -29.1310  -24.4510   21.3250 C   0  0  0  0  0  2  0  0  0  0  0  0
  -28.5630  -24.5130   18.8660 C   0  0  0  0  0  2  0  0  0  0  0  0
  -28.5420  -22.2260   20.0710 C   0  0  0  0  0  3  0  0  0  0  0  0
  -28.2440  -25.1470   20.2520 C   0  0  0  0  0  3  0  0  0  0  0  0
  -28.3680  -26.6120   20.2430 O   0  0  0  0  0  0  0  0  0  0  0  0
  -24.5920  -31.9320   23.2210 C   0  0  0  0  0  0  0  0  0  0  0  0
  -27.2190  -27.4010   20.1870 C   0  0  0  0  0  0  0  0  0  0  0  0
  -23.3860  -30.5190   21.5870 C   0  0  0  0  0  3  0  0  0  0  0  0
  -24.8360  -28.9620   20.1730 C   0  0  0  0  0  0  0  0  0  0  0  0
  -25.9160  -30.8590   21.3870 C   0  0  0  0  0  2  0  0  0  0  0  0
  -25.9970  -29.4740   20.7610 C   0  0  0  0  0  0  0  0  0  0  0  0
  -27.1900  -28.7050   20.7600 C   0  0  0  0  0  3  0  0  0  0  0  0
  -26.0370  -26.9320   19.5670 C   0  0  0  0  0  3  0  0  0  0  0  0
  -24.8530  -27.6940   19.5670 C   0  0  0  0  0  3  0  0  0  0  0  0
  -23.5980  -29.8310   20.2110 C   0  0  0  0  0  2  0  0  0  0  0  0
  -24.6500  -31.1210   22.1230 N   0  0  0  0  0  0  0  0  0  0  0  0
  -23.5100  -32.2070   23.7580 O   0  0  0  0  0  0  0  0  0  0  0  0
  -22.7240  -29.5100   22.5540 C   0  0  0  0  0  0  0  0  0  0  0  0
  -21.3980  -29.3370   22.4320 N   0  0  0  0  0  0  0  0  0  0  0  0
  -23.4040  -28.8850   23.3740 O   0  0  0  0  0  0  0  0  0  0  0  0
  -20.9100  -29.8930   21.7430 H   0  0  0  0  0  0  0  0  0  0  0  0
  -18.0160  -28.1690   22.9630 C   0  0  0  0  0  0  0  0  0  0  0  0
  -20.5790  -28.4060   23.2090 C   0  0  0  0  0  3  0  0  0  0  0  0
  -20.6640  -26.9760   22.6290 C   0  0  0  0  0  2  0  0  0  0  0  0
  -19.5490  -26.6630   21.6270 C   0  0  0  0  0  2  0  0  0  0  0  0
  -18.1750  -26.8190   22.2840 C   0  0  0  0  0  2  0  0  0  0  0  0
  -19.1460  -28.9210   23.3840 C   0  0  0  0  0  0  0  0  0  0  0  0
  -18.9450  -30.1850   23.9780 C   0  0  0  0  0  3  0  0  0  0  0  0
  -17.6470  -30.6980   24.1580 C   0  0  0  0  0  3  0  0  0  0  0  0
  -16.5300  -29.9440   23.7520 C   0  0  0  0  0  3  0  0  0  0  0  0
  -16.7170  -28.6810   23.1610 C   0  0  0  0  0  3  0  0  0  0  0  0
  -25.8780  -32.5680   23.8380 C   0  0  0  0  0  3  0  0  0  0  0  0
  -25.5690  -33.9660   24.1700 N   0  0  0  0  0  0  0  0  0  0  0  0
  -25.8990  -35.0190   23.4110 C   0  0  0  0  0  0  0  0  0  0  0  0
  -26.5690  -34.9170   22.3790 O   0  0  0  0  0  0  0  0  0  0  0  0
  -24.9940  -34.1250   24.9850 H   0  0  0  0  0  0  0  0  0  0  0  0
  -24.1800  -36.8130   23.0340 C   0  0  0  0  0  1  0  0  0  0  0  0
  -25.4080  -36.4060   23.8670 C   0  0  0  0  0  3  0  0  0  0  0  0
  -27.5300  -37.2780   24.7360 C   0  0  0  0  0  1  0  0  0  0  0  0
  -26.4450  -37.4570   23.7750 N   0  0  0  0  0  0  0  0  0  0  0  0
  -26.0390  -38.3790   23.9220 H   0  0  0  0  0  0  0  0  0  0  0  0
  -26.3950  -31.7990   25.1140 C   0  0  1  0  0  0  0  0  0  0  0  0
  -25.3020  -31.5640   26.1800 C   0  0  0  0  0  1  0  0  0  0  0  0
  -26.9850  -30.4240   24.7250 C   0  0  0  0  0  1  0  0  0  0  0  0
  -27.5450  -32.5960   25.7760 C   0  0  0  0  0  1  0  0  0  0  0  0
  -28.6040  -20.6430   19.9170 C   0  0  0  0  0  2  0  0  0  0  0  0
  -30.2070  -16.9980   20.6520 C   0  0  0  0  0  0  0  0  0  0  0  0
  -29.1730  -18.1680   20.6420 C   0  0  0  0  0  0  0  0  0  0  0  0
  -31.6790  -17.4570   20.5750 C   0  0  0  0  0  2  0  0  0  0  0  0
  -31.0620  -19.9040   20.2980 C   0  0  0  0  0  2  0  0  0  0  0  0
  -29.5940  -19.6910   20.6990 C   0  0  0  0  0  3  0  0  0  0  0  0
  -31.9800  -18.9050   21.0190 C   0  0  0  0  0  3  0  0  0  0  0  0
  -33.4650  -19.2420   20.8040 C   0  0  0  0  0  1  0  0  0  0  0  0
  -29.8280  -15.7420   20.6840 N   0  0  0  0  0  0  0  0  0  0  0  0
  -27.9660  -17.8990   20.6040 O   0  0  0  0  0  0  0  0  0  0  0  0
  -30.6620  -14.6380   20.3860 C   0  0  0  0  0  0  0  0  0  0  0  0
  -30.4070  -12.4050   19.3480 C   0  0  0  0  0  2  0  0  0  0  0  0
  -29.4770  -12.5670   18.1250 C   0  0  0  0  0  2  0  0  0  0  0  0
  -27.9990  -12.4310   18.5400 C   0  0  0  0  0  2  0  0  0  0  0  0
  -27.6440  -13.2960   19.7820 C   0  0  0  0  0  3  0  0  0  0  0  0
  -28.6960  -13.1280   20.9000 C   0  0  0  0  0  2  0  0  0  0  0  0
  -30.0200  -13.4290   20.3360 N   0  0  0  0  0  0  0  0  0  0  0  0
  -31.8290  -14.7090   20.0020 O   0  0  0  0  0  0  0  0  0  0  0  0
  -25.2550  -13.9080   20.5040 C   0  0  0  0  0  0  0  0  0  0  0  0
  -24.1820  -13.1410   20.8670 C   0  0  0  0  0  0  0  0  0  0  0  0
  -24.6340  -11.7860   20.8320 C   0  0  0  0  0  0  0  0  0  0  0  0
  -26.2910  -13.0210   20.2630 N   0  0  0  0  0  0  0  0  0  0  0  0
  -25.9230  -11.7390   20.5210 N   0  0  0  0  0  0  0  0  0  0  0  0
  -23.8990  -10.5280   21.0180 C   0  0  0  0  0  0  0  0  0  0  0  0
  -24.3210   -9.5560   21.9530 C   0  0  0  0  0  3  0  0  0  0  0  0
  -23.5870   -8.3640   22.1270 C   0  0  0  0  0  3  0  0  0  0  0  0
  -22.4160   -8.1330   21.3660 C   0  0  0  0  0  0  0  0  0  0  0  0
  -22.0140   -9.0920   20.4190 C   0  0  0  0  0  3  0  0  0  0  0  0
  -22.7480  -10.2780   20.2430 C   0  0  0  0  0  3  0  0  0  0  0  0
  -21.6520   -6.9940   21.4490 O   0  0  0  0  0  0  0  0  0  0  0  0
  -21.5860   -6.2550   22.6040 C   0  0  0  0  0  0  0  0  0  0  0  0
  -21.1320   -6.8120   23.8190 C   0  0  0  0  0  3  0  0  0  0  0  0
  -21.0120   -6.0000   24.9640 C   0  0  0  0  0  3  0  0  0  0  0  0
  -21.3340   -4.6330   24.8950 C   0  0  0  0  0  0  0  0  0  0  0  0
  -21.7810   -4.0740   23.6840 C   0  0  0  0  0  3  0  0  0  0  0  0
  -21.9030   -4.8830   22.5410 C   0  0  0  0  0  0  0  0  0  0  0  0
  -22.3140   -4.3360   21.3720 F   0  0  0  0  0  0  0  0  0  0  0  0
  -21.2110   -3.8500   25.9930 F   0  0  0  0  0  0  0  0  0  0  0  0
  -22.7870  -13.6260   21.1440 C   0  0  0  0  0  0  0  0  0  0  0  0
  -22.0520  -12.9270   22.0010 N   0  0  0  0  0  0  0  0  0  0  0  0
  -22.3580  -14.6600   20.6330 O   0  0  0  0  0  0  0  0  0  0  0  0
  -22.4110  -12.0910   22.4380 H   0  0  0  0  0  0  0  0  0  0  0  0
  -21.1160  -13.2330   22.2260 H   0  0  0  0  0  0  0  0  0  0  0  0
  -25.4330  -15.2790   20.3420 N   0  0  0  0  0  0  0  0  0  0  0  0
  -24.6900  -15.9510   20.5020 H   0  0  0  0  0  0  0  0  0  0  0  0
  -26.3210  -15.7190   20.1220 H   0  0  0  0  0  0  0  0  0  0  0  0
  2  5  1  0
  3  1  1  0
  4  2  1  0
  4  6  1  0
  5 48  1  0
  5  1  1  0
  6  7  1  0
  6  3  1  0
  8 19  2  0
  9  7  1  0
  9 14  1  0
 10 18  1  0
 10 20  1  0
 11 17  1  0
 11 13  1  0
 12 18  1  0
 13 12  1  0
 14 13  2  0
 15  9  2  0
 16 15  1  0
 16 11  2  0
 17 10  1  0
 18  8  1  0
 20 22  2  0
 21 20  1  0
 23 21  1  0
 24 33  2  0
 24 29  1  0
 25 21  1  0
 25 29  1  0
 26 25  1  0
 27 28  1  0
 27 26  1  0
 28 24  1  0
 29 30  2  0
 30 31  1  0
 32 31  2  0
 33 32  1  0
 34  8  1  0
 34 35  1  0
 34 44  1  0
 35 38  1  0
 36 40  1  0
 36 35  1  0
 37 36  2  0
 40 39  1  0
 42 40  1  0
 42 43  1  0
 42 41  1  0
 44 47  1  1
 44 45  1  0
 46 44  1  0
 49 56  2  0
 50 49  1  0
 50 53  1  0
 51 49  1  0
 51 54  1  0
 52 53  1  0
 52 54  1  0
 53 48  1  0
 54 55  1  0
 57 50  2  0
 58 56  1  0
 59 64  1  0
 60 61  1  0
 60 59  1  0
 62 61  1  0
 62 69  1  0
 62 63  1  0
 64 58  1  0
 64 63  1  0
 65 58  2  0
 66 67  2  0
 67 86  1  0
 68 67  1  0
 68 71  1  0
 69 66  1  0
 69 70  1  0
 70 68  2  0
 71 72  1  0
 72 73  2  0
 74 77  1  0
 74 73  1  0
 75 74  2  0
 76 75  1  0
 76 71  2  0
 77 78  1  0
 78 79  1  0
 79 80  2  0
 81 80  1  0
 81 85  1  0
 82 81  2  0
 83 78  2  0
 83 82  1  0
 84 83  1  0
 86 87  1  0
 87 90  1  0
 87 89  1  0
 88 86  2  0
 91 92  1  0
 91 66  1  0
 93 91  1  0
M  ISO  4   6 101   7 101  56 100  58 100
M  END
>  <TORSDO>  (17) 
F 18

>  <SCORE>  (17) 
-15.232

>  <name>  (17) 
16

>  <ligand_id>  (17) 
16

>  <original_smiles>  (17) 
[H]c1c([H])c([H])c2c(c1[H])C([H])([H])C([H])([H])C([H])([H])C2([H])N([H])C(=O)C1([H])N(C(=O)C([H])(N([H])C(=O)C([H])(N([H])C([H])([H])[H])C([H])([H])[H])C(C([H])([H])[H])(C([H])([H])[H])C([H])([H])[H])C([H])([H])c2c([H])c(OC3([H])C([H])([H])C([H])([H])C([H])(C([H])([H])C4([H])C(=O)C(=NC(=O)N5C([H])([H])C([H])([H])C([H])([H])C([H])(n6nc(-c7c([H])c([H])c(Oc8c([H])c([H])c(F)c([H])c8F)c([H])c7[H])c(C(=O)N([H])[H])c6N([H])[H])C5([H])[H])C([H])([H])C([H])(C([H])([H])[H])C4([H])[H])C([H])([H])C3([H])[H])c([H])c([H])c2C1([H])[H]

>  <smiles>  (17) 
[H]c1c([H])c([H])c2c(c1[H])C([H])([H])C([H])([H])C([H])([H])C2([H])N([H])C(=O)C1([H])N(C(=O)C([H])(N([H])C(=O)C([H])(N([H])C([H])([H])[H])C([H])([H])[H])C(C([H])([H])[H])(C([H])([H])[H])C([H])([H])[H])C([H])([H])c2c([H])c(OC3([H])C([H])([H])C([H])([H])C([H])(C([H])([H])C4([H])C(=O)C(=NC(=O)N5C([H])([H])C([H])([H])C([H])([H])C([H])(n6nc(-c7c([H])c([H])c(Oc8c([H])c([H])c(F)c([H])c8F)c([H])c7[H])c(C(=O)N([H])[H])c6N([H])[H])C5([H])[H])C([H])([H])C([H])(C([H])([H])[H])C4([H])[H])C([H])([H])C3([H])[H])c([H])c([H])c2C1([H])[H]

$$$$
17:0:0
     RDKit          3D

 96105  0  0  1  0  0  0  0  0999 V2000
  -29.8140  -20.2520   19.1900 C   0  0  0  0  0  3  0  0  0  0  0  0
  -30.4780  -20.4000   21.9170 C   0  0  0  0  0  3  0  0  0  0  0  0
  -30.5330  -19.1500   19.7980 C   0  0  0  0  0  0  0  0  0  0  0  0
  -30.9230  -19.3280   21.1220 C   0  0  0  0  0  0  0  0  0  0  0  0
  -29.4270  -21.4360   19.9510 C   0  0  0  0  0  0  0  0  0  0  0  0
  -29.6880  -21.4310   21.3480 C   0  0  0  0  0  0  0  0  0  0  0  0
  -32.0160  -18.3720   21.5060 C   0  0  0  0  0  2  0  0  0  0  0  0
  -31.2950  -17.8930   19.1870 C   0  0  0  0  0  3  0  0  0  0  0  0
  -32.5230  -17.8220   20.1490 C   0  0  0  0  0  3  0  0  0  0  0  0
  -31.4660  -15.3080   19.1810 C   0  0  0  0  0  0  0  0  0  0  0  0
  -31.2600  -12.8540   18.7880 C   0  0  0  0  0  2  0  0  0  0  0  0
  -30.2760  -12.6010   17.6280 C   0  0  0  0  0  2  0  0  0  0  0  0
  -28.8270  -12.5350   18.1490 C   0  0  0  0  0  2  0  0  0  0  0  0
  -28.4820  -13.7010   19.1130 C   0  0  0  0  0  3  0  0  0  0  0  0
  -29.5830  -13.9170   20.1730 C   0  0  0  0  0  2  0  0  0  0  0  0
  -30.8450  -14.1120   19.4470 N   0  0  0  0  0  0  0  0  0  0  0  0
  -32.6290  -15.3170   18.7700 O   0  0  0  0  0  0  0  0  0  0  0  0
  -30.7310  -16.4800   19.2270 N   0  0  0  0  0  0  0  0  0  0  0  0
  -29.7590  -16.3950   19.4800 H   0  0  0  0  0  0  0  0  0  0  0  0
  -26.2460  -14.5030   20.0800 C   0  0  0  0  0  0  0  0  0  0  0  0
  -25.1430  -13.8260   20.5200 C   0  0  0  0  0  0  0  0  0  0  0  0
  -25.4520  -12.4370   20.3940 C   0  0  0  0  0  0  0  0  0  0  0  0
  -27.1650  -13.5310   19.7160 N   0  0  0  0  0  0  0  0  0  0  0  0
  -26.6990  -12.2800   19.9650 N   0  0  0  0  0  0  0  0  0  0  0  0
  -24.6140  -11.2490   20.6040 C   0  0  0  0  0  0  0  0  0  0  0  0
  -25.0190  -10.2010   21.4590 C   0  0  0  0  0  3  0  0  0  0  0  0
  -24.1880   -9.0780   21.6590 C   0  0  0  0  0  3  0  0  0  0  0  0
  -22.9350   -8.9970   21.0050 C   0  0  0  0  0  0  0  0  0  0  0  0
  -22.5470  -10.0330   20.1350 C   0  0  0  0  0  3  0  0  0  0  0  0
  -23.3780  -11.1460   19.9340 C   0  0  0  0  0  3  0  0  0  0  0  0
  -22.0730   -7.9330   21.1200 O   0  0  0  0  0  0  0  0  0  0  0  0
  -21.9850   -7.1990   22.2760 C   0  0  0  0  0  0  0  0  0  0  0  0
  -21.6650   -7.7950   23.5150 C   0  0  0  0  0  3  0  0  0  0  0  0
  -21.5160   -6.9940   24.6640 C   0  0  0  0  0  3  0  0  0  0  0  0
  -21.6780   -5.5990   24.5750 C   0  0  0  0  0  0  0  0  0  0  0  0
  -21.9920   -5.0020   23.3410 C   0  0  0  0  0  3  0  0  0  0  0  0
  -22.1400   -5.8000   22.1940 C   0  0  0  0  0  0  0  0  0  0  0  0
  -22.4210   -5.2190   21.0030 F   0  0  0  0  0  0  0  0  0  0  0  0
  -21.5280   -4.8280   25.6770 F   0  0  0  0  0  0  0  0  0  0  0  0
  -23.8350  -14.4290   20.9430 C   0  0  0  0  0  0  0  0  0  0  0  0
  -23.1420  -13.7940   21.8820 N   0  0  0  0  0  0  0  0  0  0  0  0
  -23.4440  -15.4990   20.4770 O   0  0  0  0  0  0  0  0  0  0  0  0
  -23.4750  -12.9290   22.2790 H   0  0  0  0  0  0  0  0  0  0  0  0
  -22.2670  -14.1780   22.2100 H   0  0  0  0  0  0  0  0  0  0  0  0
  -26.5370  -15.8570   19.9350 N   0  0  0  0  0  0  0  0  0  0  0  0
  -25.8550  -16.5780   20.1440 H   0  0  0  0  0  0  0  0  0  0  0  0
  -27.3830  -16.2230   19.5190 H   0  0  0  0  0  0  0  0  0  0  0  0
  -29.3940  -22.4940   23.4950 C   0  0  0  0  0  1  0  0  0  0  0  0
  -29.1570  -22.4630   22.0940 O   0  0  0  0  0  0  0  0  0  0  0  0
  -28.6340  -22.6820   19.3600 C   0  0  0  0  0  2  0  0  0  0  0  0
  -29.0990  -24.2180   19.6110 C   0  0  0  0  0  3  0  0  0  0  0  0
  -27.9960  -25.3790   19.4290 C   0  0  0  0  0  3  0  0  0  0  0  0
  -28.2520  -26.8420   19.6550 O   0  0  0  0  0  0  0  0  0  0  0  0
  -24.6200  -31.8900   23.3980 C   0  0  0  0  0  0  0  0  0  0  0  0
  -27.1440  -27.7200   19.7310 C   0  0  0  0  0  0  0  0  0  0  0  0
  -23.3610  -30.6430   21.6850 C   0  0  0  0  0  3  0  0  0  0  0  0
  -24.7620  -29.3010   20.0190 C   0  0  0  0  0  0  0  0  0  0  0  0
  -25.8860  -31.0340   21.4080 C   0  0  0  0  0  2  0  0  0  0  0  0
  -25.9560  -29.7360   20.6090 C   0  0  0  0  0  0  0  0  0  0  0  0
  -27.1490  -28.9580   20.4570 C   0  0  0  0  0  3  0  0  0  0  0  0
  -25.9240  -27.3690   19.1050 C   0  0  0  0  0  3  0  0  0  0  0  0
  -24.7500  -28.1270   19.2550 C   0  0  0  0  0  3  0  0  0  0  0  0
  -23.5120  -30.1330   20.2300 C   0  0  0  0  0  2  0  0  0  0  0  0
  -24.6440  -31.2010   22.2200 N   0  0  0  0  0  0  0  0  0  0  0  0
  -23.5610  -32.0790   24.0150 O   0  0  0  0  0  0  0  0  0  0  0  0
  -22.7720  -29.5090   22.5600 C   0  0  0  0  0  0  0  0  0  0  0  0
  -21.4620  -29.2470   22.4180 N   0  0  0  0  0  0  0  0  0  0  0  0
  -23.4950  -28.8710   23.3290 O   0  0  0  0  0  0  0  0  0  0  0  0
  -20.9290  -29.8210   21.7780 H   0  0  0  0  0  0  0  0  0  0  0  0
  -18.2100  -27.6860   22.7110 C   0  0  0  0  0  0  0  0  0  0  0  0
  -20.7130  -28.2000   23.1150 C   0  0  0  0  0  3  0  0  0  0  0  0
  -20.9910  -26.8100   22.4960 C   0  0  0  0  0  2  0  0  0  0  0  0
  -19.9770  -26.4150   21.4180 C   0  0  0  0  0  2  0  0  0  0  0  0
  -18.5590  -26.3910   21.9970 C   0  0  0  0  0  2  0  0  0  0  0  0
  -19.2220  -28.5440   23.2200 C   0  0  0  0  0  0  0  0  0  0  0  0
  -18.8440  -29.7530   23.8440 C   0  0  0  0  0  3  0  0  0  0  0  0
  -17.4880  -30.1090   23.9630 C   0  0  0  0  0  3  0  0  0  0  0  0
  -16.4900  -29.2490   23.4720 C   0  0  0  0  0  3  0  0  0  0  0  0
  -16.8520  -28.0390   22.8520 C   0  0  0  0  0  3  0  0  0  0  0  0
  -25.9170  -32.4930   24.0160 C   0  0  0  0  0  3  0  0  0  0  0  0
  -25.6440  -33.9020   24.3380 N   0  0  0  0  0  0  0  0  0  0  0  0
  -26.0510  -34.9470   23.6030 C   0  0  0  0  0  0  0  0  0  0  0  0
  -26.7640  -34.8230   22.6030 O   0  0  0  0  0  0  0  0  0  0  0  0
  -25.0180  -34.0750   25.1100 H   0  0  0  0  0  0  0  0  0  0  0  0
  -24.4270  -36.8190   23.1700 C   0  0  0  0  0  1  0  0  0  0  0  0
  -25.5970  -36.3510   24.0490 C   0  0  0  0  0  3  0  0  0  0  0  0
  -27.7120  -37.1340   25.0250 C   0  0  0  0  0  1  0  0  0  0  0  0
  -26.6800  -37.3580   24.0150 N   0  0  0  0  0  0  0  0  0  0  0  0
  -26.3070  -38.2940   24.1490 H   0  0  0  0  0  0  0  0  0  0  0  0
  -26.4140  -31.7170   25.2970 C   0  0  1  0  0  0  0  0  0  0  0  0
  -25.3210  -31.5250   26.3740 C   0  0  0  0  0  1  0  0  0  0  0  0
  -26.9490  -30.3170   24.9200 C   0  0  0  0  0  1  0  0  0  0  0  0
  -27.5960  -32.4780   25.9420 C   0  0  0  0  0  1  0  0  0  0  0  0
  -33.7190  -18.6370   19.6180 C   0  0  0  0  0  2  0  0  0  0  0  0
  -34.7240  -19.3670   17.6060 C   0  0  0  0  0  1  0  0  0  0  0  0
  -33.8660  -18.4170   18.2220 O   0  0  0  0  0  0  0  0  0  0  0  0
  1  3  2  0
  1  5  1  0
  3  4  1  0
  4  7  1  0
  4  2  2  0
  5  6  2  0
  6  2  1  0
  6 49  1  0
  8 18  1  0
  8  3  1  0
  8  9  1  0
  9 94  1  0
  9  7  1  0
 10 18  1  0
 10 16  1  0
 11 16  1  0
 12 13  1  0
 12 11  1  0
 14 13  1  0
 14 23  1  0
 14 15  1  0
 16 15  1  0
 17 10  2  0
 18 19  1  0
 20 21  2  0
 21 40  1  0
 22 21  1  0
 22 25  1  0
 23 24  1  0
 23 20  1  0
 24 22  2  0
 25 26  1  0
 26 27  2  0
 28 31  1  0
 28 27  1  0
 29 28  2  0
 30 29  1  0
 30 25  2  0
 31 32  1  0
 32 33  1  0
 33 34  2  0
 35 34  1  0
 35 39  1  0
 36 35  2  0
 37 32  2  0
 37 36  1  0
 38 37  1  0
 40 41  1  0
 41 44  1  0
 41 43  1  0
 42 40  2  0
 45 20  1  0
 45 46  1  0
 47 45  1  0
 49 48  1  0
 50 51  1  0
 50  5  1  0
 52 51  2  0
 52 53  1  0
 53 55  1  0
 54 65  2  0
 55 60  1  0
 56 64  1  0
 56 66  1  0
 57 63  1  0
 57 59  1  0
 58 64  1  0
 59 58  1  0
 60 59  2  0
 61 62  1  0
 61 55  2  0
 62 57  2  0
 63 56  1  0
 64 54  1  0
 66 68  2  0
 67 66  1  0
 69 67  1  0
 70 79  2  0
 70 75  1  0
 71 67  1  0
 71 75  1  0
 72 71  1  0
 73 74  1  0
 73 72  1  0
 74 70  1  0
 75 76  2  0
 76 77  1  0
 78 77  2  0
 79 78  1  0
 80 54  1  0
 80 81  1  0
 80 90  1  0
 81 84  1  0
 82 86  1  0
 82 81  1  0
 83 82  2  0
 86 85  1  0
 88 86  1  0
 88 89  1  0
 88 87  1  0
 90 93  1  1
 90 91  1  0
 92 90  1  0
 95 96  1  0
 96 94  1  0
M  ISO  4  10 100  18 100  52 101  53 101
M  END
>  <TORSDO>  (18) 
F 22

>  <SCORE>  (18) 
-11.604

>  <name>  (18) 
17

>  <ligand_id>  (18) 
17

>  <original_smiles>  (18) 
[H]c1c([H])c([H])c2c(c1[H])C([H])([H])C([H])([H])C([H])([H])C2([H])N([H])C(=O)C1([H])N(C(=O)C([H])(N([H])C(=O)C([H])(N([H])C([H])([H])[H])C([H])([H])[H])C(C([H])([H])[H])(C([H])([H])[H])C([H])([H])[H])C([H])([H])c2c([H])c(OC([H])([H])C([H])([H])C([H])([H])c3c([H])c4c(c([H])c3OC([H])([H])[H])C([H])([H])C([H])(C([H])([H])OC([H])([H])[H])C4([H])N([H])C(=O)N3C([H])([H])C([H])([H])C([H])([H])C([H])(n4nc(-c5c([H])c([H])c(Oc6c([H])c([H])c(F)c([H])c6F)c([H])c5[H])c(C(=O)N([H])[H])c4N([H])[H])C3([H])[H])c([H])c([H])c2C1([H])[H]

>  <smiles>  (18) 
[H]c1c([H])c([H])c2c(c1[H])C([H])([H])C([H])([H])C([H])([H])C2([H])N([H])C(=O)C1([H])N(C(=O)C([H])(N([H])C(=O)C([H])(N([H])C([H])([H])[H])C([H])([H])[H])C(C([H])([H])[H])(C([H])([H])[H])C([H])([H])[H])C([H])([H])c2c([H])c(OC([H])([H])C([H])([H])C([H])([H])c3c([H])c4c(c([H])c3OC([H])([H])[H])C([H])([H])C([H])(C([H])([H])OC([H])([H])[H])C4([H])N([H])C(=O)N3C([H])([H])C([H])([H])C([H])([H])C([H])(n4nc(-c5c([H])c([H])c(Oc6c([H])c([H])c(F)c([H])c6F)c([H])c5[H])c(C(=O)N([H])[H])c4N([H])[H])C3([H])[H])c([H])c([H])c2C1([H])[H]

$$$$
18:0:0
     RDKit          3D

 92101  0  0  1  0  0  0  0  0999 V2000
  -29.2630  -21.5780   19.3110 C   0  0  0  0  0  3  0  0  0  0  0  0
  -28.8950  -22.9640   19.3270 C   0  0  0  0  0  3  0  0  0  0  0  0
  -29.5860  -20.8790   20.5120 C   0  0  0  0  0  0  0  0  0  0  0  0
  -28.8690  -23.7080   20.5400 C   0  0  0  0  0  0  0  0  0  0  0  0
  -29.5860  -21.7180   21.6680 C   0  0  0  0  0  0  0  0  0  0  0  0
  -29.9090  -21.1640   23.0500 C   0  0  0  0  0  1  0  0  0  0  0  0
  -29.2700  -23.0490   21.6660 N   0  0  0  0  0  0  0  0  0  0  0  0
  -30.9640  -14.9000   20.1560 C   0  0  0  0  0  0  0  0  0  0  0  0
  -30.6000  -12.6560   19.1310 C   0  0  0  0  0  2  0  0  0  0  0  0
  -29.6210  -12.6920   17.9460 C   0  0  0  0  0  2  0  0  0  0  0  0
  -28.1740  -12.5280   18.4370 C   0  0  0  0  0  2  0  0  0  0  0  0
  -27.8440  -13.4290   19.6550 C   0  0  0  0  0  3  0  0  0  0  0  0
  -28.9530  -13.3910   20.7280 C   0  0  0  0  0  2  0  0  0  0  0  0
  -30.2050  -13.7520   20.0530 N   0  0  0  0  0  0  0  0  0  0  0  0
  -32.1630  -14.7960   19.8870 O   0  0  0  0  0  0  0  0  0  0  0  0
  -28.8360  -18.2710   20.7070 C   0  0  0  0  0  2  0  0  0  0  0  0
  -30.8030  -18.7530   19.4170 C   0  0  0  0  0  2  0  0  0  0  0  0
  -29.2980  -16.7630   20.9580 C   0  0  0  0  0  2  0  0  0  0  0  0
  -31.3510  -17.3020   19.6830 C   0  0  0  0  0  2  0  0  0  0  0  0
  -29.9750  -19.3280   20.5790 C   0  0  0  0  0  3  0  0  0  0  0  0
  -30.4180  -16.2050   20.1340 N   0  0  0  0  0  0  0  0  0  0  0  0
  -25.4940  -13.9980   20.4980 C   0  0  0  0  0  0  0  0  0  0  0  0
  -24.4410  -13.2170   20.8900 C   0  0  0  0  0  0  0  0  0  0  0  0
  -24.8970  -11.8680   20.8000 C   0  0  0  0  0  0  0  0  0  0  0  0
  -26.5270  -13.1240   20.2020 N   0  0  0  0  0  0  0  0  0  0  0  0
  -26.1770  -11.8350   20.4460 N   0  0  0  0  0  0  0  0  0  0  0  0
  -24.1720  -10.6010   20.9780 C   0  0  0  0  0  0  0  0  0  0  0  0
  -24.5870   -9.6370   21.9230 C   0  0  0  0  0  3  0  0  0  0  0  0
  -23.8600   -8.4390   22.0900 C   0  0  0  0  0  3  0  0  0  0  0  0
  -22.7030   -8.1940   21.3120 C   0  0  0  0  0  0  0  0  0  0  0  0
  -22.3070   -9.1470   20.3550 C   0  0  0  0  0  3  0  0  0  0  0  0
  -23.0350  -10.3360   20.1870 C   0  0  0  0  0  3  0  0  0  0  0  0
  -21.9500   -7.0470   21.3880 O   0  0  0  0  0  0  0  0  0  0  0  0
  -21.8030   -6.3590   22.5650 C   0  0  0  0  0  0  0  0  0  0  0  0
  -21.2510   -6.9620   23.7180 C   0  0  0  0  0  3  0  0  0  0  0  0
  -21.0530   -6.1980   24.8870 C   0  0  0  0  0  3  0  0  0  0  0  0
  -21.4010   -4.8330   24.9030 C   0  0  0  0  0  0  0  0  0  0  0  0
  -21.9490   -4.2320   23.7570 C   0  0  0  0  0  3  0  0  0  0  0  0
  -22.1450   -4.9920   22.5910 C   0  0  0  0  0  0  0  0  0  0  0  0
  -22.6530   -4.4020   21.4800 F   0  0  0  0  0  0  0  0  0  0  0  0
  -21.2050   -4.0960   26.0220 F   0  0  0  0  0  0  0  0  0  0  0  0
  -23.0560  -13.6930   21.2220 C   0  0  0  0  0  0  0  0  0  0  0  0
  -22.3600  -12.9800   22.0980 N   0  0  0  0  0  0  0  0  0  0  0  0
  -22.5990  -14.7310   20.7380 O   0  0  0  0  0  0  0  0  0  0  0  0
  -22.7400  -12.1410   22.5120 H   0  0  0  0  0  0  0  0  0  0  0  0
  -21.4290  -13.2710   22.3580 H   0  0  0  0  0  0  0  0  0  0  0  0
  -25.6520  -15.3710   20.3430 N   0  0  0  0  0  0  0  0  0  0  0  0
  -24.8770  -16.0150   20.4620 H   0  0  0  0  0  0  0  0  0  0  0  0
  -26.4860  -15.8090   19.9740 H   0  0  0  0  0  0  0  0  0  0  0  0
  -27.5780  -25.2070   22.2170 C   0  0  0  0  0  1  0  0  0  0  0  0
  -28.0550  -25.0770   20.7400 C   0  0  0  0  0  3  0  0  0  0  0  0
  -28.4970  -26.4450   20.2570 O   0  0  0  0  0  0  0  0  0  0  0  0
  -24.6580  -31.8730   23.1640 C   0  0  0  0  0  0  0  0  0  0  0  0
  -27.4490  -27.3890   20.1090 C   0  0  0  0  0  0  0  0  0  0  0  0
  -23.5360  -30.4640   21.4780 C   0  0  0  0  0  3  0  0  0  0  0  0
  -25.0660  -28.9850   20.0600 C   0  0  0  0  0  0  0  0  0  0  0  0
  -26.0750  -30.8430   21.3710 C   0  0  0  0  0  2  0  0  0  0  0  0
  -26.2090  -29.4730   20.7070 C   0  0  0  0  0  0  0  0  0  0  0  0
  -27.4050  -28.6850   20.7290 C   0  0  0  0  0  3  0  0  0  0  0  0
  -26.2990  -27.0060   19.3810 C   0  0  0  0  0  3  0  0  0  0  0  0
  -25.1190  -27.7590   19.3870 C   0  0  0  0  0  3  0  0  0  0  0  0
  -23.8050  -29.8220   20.0930 C   0  0  0  0  0  2  0  0  0  0  0  0
  -24.7730  -31.0810   22.0600 N   0  0  0  0  0  0  0  0  0  0  0  0
  -23.5540  -32.1110   23.6780 O   0  0  0  0  0  0  0  0  0  0  0  0
  -22.8830  -29.4130   22.4100 C   0  0  0  0  0  0  0  0  0  0  0  0
  -21.5610  -29.2110   22.2580 N   0  0  0  0  0  0  0  0  0  0  0  0
  -23.5620  -28.7890   23.2290 O   0  0  0  0  0  0  0  0  0  0  0  0
  -21.0790  -29.7560   21.5550 H   0  0  0  0  0  0  0  0  0  0  0  0
  -18.1970  -27.9460   22.7080 C   0  0  0  0  0  0  0  0  0  0  0  0
  -20.7490  -28.2440   22.9970 C   0  0  0  0  0  3  0  0  0  0  0  0
  -20.8780  -26.8330   22.3760 C   0  0  0  0  0  2  0  0  0  0  0  0
  -19.7840  -26.5210   21.3510 C   0  0  0  0  0  2  0  0  0  0  0  0
  -18.4030  -26.6160   22.0010 C   0  0  0  0  0  2  0  0  0  0  0  0
  -19.2980  -28.7170   23.1650 C   0  0  0  0  0  0  0  0  0  0  0  0
  -19.0550  -29.9570   23.7930 C   0  0  0  0  0  3  0  0  0  0  0  0
  -17.7380  -30.4360   23.9590 C   0  0  0  0  0  3  0  0  0  0  0  0
  -16.6510  -29.6650   23.5130 C   0  0  0  0  0  3  0  0  0  0  0  0
  -16.8830  -28.4210   22.8950 C   0  0  0  0  0  3  0  0  0  0  0  0
  -25.9030  -32.5320   23.8290 C   0  0  0  0  0  3  0  0  0  0  0  0
  -25.5440  -33.9160   24.1670 N   0  0  0  0  0  0  0  0  0  0  0  0
  -25.8520  -34.9880   23.4230 C   0  0  0  0  0  0  0  0  0  0  0  0
  -26.5350  -34.9160   22.3980 O   0  0  0  0  0  0  0  0  0  0  0  0
  -24.9280  -34.0400   24.9570 H   0  0  0  0  0  0  0  0  0  0  0  0
  -24.0570  -36.7200   23.0920 C   0  0  0  0  0  1  0  0  0  0  0  0
  -25.3190  -36.3550   23.8910 C   0  0  0  0  0  3  0  0  0  0  0  0
  -27.4240  -37.3150   24.7160 C   0  0  0  0  0  1  0  0  0  0  0  0
  -26.3130  -37.4440   23.7760 N   0  0  0  0  0  0  0  0  0  0  0  0
  -25.8760  -38.3510   23.9260 H   0  0  0  0  0  0  0  0  0  0  0  0
  -26.4100  -31.7610   25.1130 C   0  0  1  0  0  0  0  0  0  0  0  0
  -25.2930  -31.4840   26.1470 C   0  0  0  0  0  1  0  0  0  0  0  0
  -27.0380  -30.4020   24.7230 C   0  0  0  0  0  1  0  0  0  0  0  0
  -27.5190  -32.5830   25.8150 C   0  0  0  0  0  1  0  0  0  0  0  0
  1  2  2  0
  1  3  1  0
  2  4  1  0
  3  5  2  0
  4 51  1  0
  4  7  2  0
  5  6  1  0
  7  5  1  0
  9 14  1  0
 10 11  1  0
 10  9  1  0
 12 11  1  0
 12 25  1  0
 12 13  1  0
 14  8  1  0
 14 13  1  0
 15  8  2  0
 16 18  1  0
 17 19  1  0
 17 20  1  0
 19 21  1  0
 20  3  1  0
 20 16  1  0
 21  8  1  0
 21 18  1  0
 22 23  2  0
 23 42  1  0
 24 23  1  0
 24 27  1  0
 25 26  1  0
 25 22  1  0
 26 24  2  0
 27 28  1  0
 28 29  2  0
 30 33  1  0
 30 29  1  0
 31 30  2  0
 32 31  1  0
 32 27  2  0
 33 34  1  0
 34 39  2  0
 34 35  1  0
 35 36  2  0
 36 37  1  0
 37 41  1  0
 38 37  2  0
 39 38  1  0
 40 39  1  0
 42 43  1  0
 43 46  1  0
 43 45  1  0
 44 42  2  0
 47 48  1  0
 47 22  1  0
 49 47  1  0
 51 50  1  0
 52 51  1  0
 53 64  2  0
 54 52  1  0
 54 59  1  0
 55 63  1  0
 55 65  1  0
 56 62  1  0
 56 58  1  0
 57 63  1  0
 58 59  2  0
 58 57  1  0
 60 61  1  0
 60 54  2  0
 61 56  2  0
 62 55  1  0
 63 53  1  0
 65 67  2  0
 66 65  1  0
 68 66  1  0
 69 78  2  0
 69 74  1  0
 70 66  1  0
 70 74  1  0
 71 70  1  0
 72 73  1  0
 72 71  1  0
 73 69  1  0
 74 75  2  0
 75 76  1  0
 77 76  2  0
 78 77  1  0
 79 53  1  0
 79 80  1  0
 79 89  1  0
 80 83  1  0
 81 85  1  0
 81 80  1  0
 82 81  2  0
 85 84  1  0
 87 85  1  0
 87 88  1  0
 87 86  1  0
 89 92  1  1
 89 90  1  0
 91 89  1  0
M  ISO  4   8 100  21 100  51 101  52 101
M  END
>  <TORSDO>  (19) 
F 17

>  <SCORE>  (19) 
-15.077

>  <name>  (19) 
18

>  <ligand_id>  (19) 
18

>  <original_smiles>  (19) 
[H]c1c(C([H])(Oc2c([H])c([H])c3c(c2[H])C([H])([H])N(C(=O)C([H])(N([H])C(=O)C([H])(N([H])C([H])([H])[H])C([H])([H])[H])C(C([H])([H])[H])(C([H])([H])[H])C([H])([H])[H])C([H])(C(=O)N([H])C2([H])c4c([H])c([H])c([H])c([H])c4C([H])([H])C([H])([H])C2([H])[H])C3([H])[H])C([H])([H])[H])nc(C([H])([H])[H])c(C2([H])C([H])([H])C([H])([H])N(C(=O)N3C([H])([H])C([H])([H])C([H])([H])C([H])(n4nc(-c5c([H])c([H])c(Oc6c([H])c([H])c(F)c([H])c6F)c([H])c5[H])c(C(=O)N([H])[H])c4N([H])[H])C3([H])[H])C([H])([H])C2([H])[H])c1[H]

>  <smiles>  (19) 
[H]c1c(C([H])(Oc2c([H])c([H])c3c(c2[H])C([H])([H])N(C(=O)C([H])(N([H])C(=O)C([H])(N([H])C([H])([H])[H])C([H])([H])[H])C(C([H])([H])[H])(C([H])([H])[H])C([H])([H])[H])C([H])(C(=O)N([H])C2([H])c4c([H])c([H])c([H])c([H])c4C([H])([H])C([H])([H])C2([H])[H])C3([H])[H])C([H])([H])[H])nc(C([H])([H])[H])c(C2([H])C([H])([H])C([H])([H])N(C(=O)N3C([H])([H])C([H])([H])C([H])([H])C([H])(n4nc(-c5c([H])c([H])c(Oc6c([H])c([H])c(F)c([H])c6F)c([H])c5[H])c(C(=O)N([H])[H])c4N([H])[H])C3([H])[H])C([H])([H])C2([H])[H])c1[H]

$$$$
19:0:0
     RDKit          3D

100111  0  0  1  0  0  0  0  0999 V2000
  -30.1180  -24.5600   16.1350 C   0  0  0  0  0  3  0  0  0  0  0  0
  -29.7980  -25.7260   16.8620 C   0  0  0  0  0  3  0  0  0  0  0  0
  -29.7310  -24.4210   18.9170 C   0  0  0  0  0  3  0  0  0  0  0  0
  -30.2330  -23.3120   16.7850 C   0  0  0  0  0  0  0  0  0  0  0  0
  -29.6000  -25.6590   18.2540 C   0  0  0  0  0  0  0  0  0  0  0  0
  -30.0360  -23.2540   18.1850 C   0  0  0  0  0  0  0  0  0  0  0  0
  -31.2960  -20.2300   19.9630 C   0  0  0  0  0  2  0  0  0  0  0  0
  -28.8290  -20.0250   19.4660 C   0  0  0  0  0  2  0  0  0  0  0  0
  -31.1780  -21.7500   19.7440 C   0  0  0  0  0  2  0  0  0  0  0  0
  -28.7770  -21.5340   19.2470 C   0  0  0  0  0  2  0  0  0  0  0  0
  -29.9560  -19.6090   20.4540 C   0  0  0  0  0  3  0  0  0  0  0  0
  -30.0800  -22.0090   18.8230 N   0  0  0  0  0  0  0  0  0  0  0  0
  -30.7920  -14.3550   20.2690 C   0  0  0  0  0  0  0  0  0  0  0  0
  -30.4010  -12.2690   18.9970 C   0  0  0  0  0  2  0  0  0  0  0  0
  -29.4100  -12.5230   17.8450 C   0  0  0  0  0  2  0  0  0  0  0  0
  -27.9470  -12.3550   18.3140 C   0  0  0  0  0  2  0  0  0  0  0  0
  -27.6630  -13.1420   19.6150 C   0  0  0  0  0  3  0  0  0  0  0  0
  -28.7670  -12.8710   20.6730 C   0  0  0  0  0  2  0  0  0  0  0  0
  -30.0710  -13.2100   20.0780 N   0  0  0  0  0  0  0  0  0  0  0  0
  -31.9030  -14.5330   19.7660 O   0  0  0  0  0  0  0  0  0  0  0  0
  -28.9730  -15.9420   20.4940 C   0  0  0  0  0  2  0  0  0  0  0  0
  -30.9850  -16.1500   21.9650 C   0  0  0  0  0  2  0  0  0  0  0  0
  -28.7700  -17.4200   20.7670 C   0  0  0  0  0  2  0  0  0  0  0  0
  -30.9400  -17.6910   21.7450 C   0  0  0  0  0  2  0  0  0  0  0  0
  -30.2060  -15.3310   21.0110 N   0  0  0  0  0  0  0  0  0  0  0  0
  -30.0620  -18.1230   20.6240 N   0  0  2  0  0  4  0  0  0  0  0  0
  -30.4800  -17.7740   19.7730 H   0  0  0  0  0  0  0  0  0  0  0  0
  -25.3110  -13.8110   20.4300 C   0  0  0  0  0  0  0  0  0  0  0  0
  -24.2470  -13.0560   20.8490 C   0  0  0  0  0  0  0  0  0  0  0  0
  -24.6830  -11.6980   20.7800 C   0  0  0  0  0  0  0  0  0  0  0  0
  -26.3270  -12.9050   20.1460 N   0  0  0  0  0  0  0  0  0  0  0  0
  -25.9550  -11.6330   20.4140 N   0  0  0  0  0  0  0  0  0  0  0  0
  -23.9470  -10.4450   20.9820 C   0  0  0  0  0  0  0  0  0  0  0  0
  -24.3820   -9.4770   21.9140 C   0  0  0  0  0  3  0  0  0  0  0  0
  -23.6510   -8.2860   22.0980 C   0  0  0  0  0  3  0  0  0  0  0  0
  -22.4720   -8.0540   21.3490 C   0  0  0  0  0  0  0  0  0  0  0  0
  -22.0580   -9.0110   20.4080 C   0  0  0  0  0  3  0  0  0  0  0  0
  -22.7900  -10.1950   20.2210 C   0  0  0  0  0  3  0  0  0  0  0  0
  -21.7120   -6.9150   21.4470 O   0  0  0  0  0  0  0  0  0  0  0  0
  -21.6340   -6.1970   22.6120 C   0  0  0  0  0  0  0  0  0  0  0  0
  -21.1470   -6.7670   23.8080 C   0  0  0  0  0  3  0  0  0  0  0  0
  -21.0210   -5.9750   24.9660 C   0  0  0  0  0  3  0  0  0  0  0  0
  -21.3730   -4.6120   24.9280 C   0  0  0  0  0  0  0  0  0  0  0  0
  -21.8550   -4.0410   23.7360 C   0  0  0  0  0  3  0  0  0  0  0  0
  -21.9820   -4.8310   22.5810 C   0  0  0  0  0  0  0  0  0  0  0  0
  -22.4260   -4.2730   21.4290 F   0  0  0  0  0  0  0  0  0  0  0  0
  -21.2460   -3.8480   26.0360 F   0  0  0  0  0  0  0  0  0  0  0  0
  -22.8710  -13.5510   21.1830 C   0  0  0  0  0  0  0  0  0  0  0  0
  -22.1650  -12.8590   22.0680 N   0  0  0  0  0  0  0  0  0  0  0  0
  -22.4330  -14.5910   20.6930 O   0  0  0  0  0  0  0  0  0  0  0  0
  -22.5310  -12.0180   22.4890 H   0  0  0  0  0  0  0  0  0  0  0  0
  -21.2420  -13.1770   22.3280 H   0  0  0  0  0  0  0  0  0  0  0  0
  -25.4800  -15.1800   20.2490 N   0  0  0  0  0  0  0  0  0  0  0  0
  -24.6950  -15.8130   20.3460 H   0  0  0  0  0  0  0  0  0  0  0  0
  -26.2420  -15.5810   19.7220 H   0  0  0  0  0  0  0  0  0  0  0  0
  -30.4770  -21.9130   14.5150 C   0  0  0  0  0  2  0  0  0  0  0  0
  -29.4610  -21.2220   15.3940 C   0  0  0  0  0  2  0  0  0  0  0  0
  -30.5630  -22.0490   16.0200 C   0  0  0  0  0  3  0  0  0  0  0  0
  -29.2750  -26.9120   19.0520 C   0  0  0  0  0  2  0  0  0  0  0  0
  -28.3380  -26.6440   20.0860 O   0  0  0  0  0  0  0  0  0  0  0  0
  -24.4910  -31.7650   23.1380 C   0  0  0  0  0  0  0  0  0  0  0  0
  -27.1860  -27.3840   20.0500 C   0  0  0  0  0  0  0  0  0  0  0  0
  -23.3060  -30.3820   21.4590 C   0  0  0  0  0  3  0  0  0  0  0  0
  -24.7830  -28.8550   20.0420 C   0  0  0  0  0  0  0  0  0  0  0  0
  -25.8330  -30.7420   21.3120 C   0  0  0  0  0  2  0  0  0  0  0  0
  -25.9270  -29.3840   20.6570 C   0  0  0  0  0  0  0  0  0  0  0  0
  -27.1310  -28.6500   20.6660 C   0  0  0  0  0  3  0  0  0  0  0  0
  -26.0320  -26.8540   19.4390 C   0  0  0  0  0  3  0  0  0  0  0  0
  -24.8320  -27.5880   19.4290 C   0  0  0  0  0  3  0  0  0  0  0  0
  -23.5330  -29.7070   20.0790 C   0  0  0  0  0  2  0  0  0  0  0  0
  -24.5590  -30.9780   22.0260 N   0  0  0  0  0  0  0  0  0  0  0  0
  -23.4020  -32.0380   23.6630 O   0  0  0  0  0  0  0  0  0  0  0  0
  -22.6360  -29.3570   22.4000 C   0  0  0  0  0  0  0  0  0  0  0  0
  -21.3060  -29.2180   22.2820 N   0  0  0  0  0  0  0  0  0  0  0  0
  -23.3080  -28.6880   23.1900 O   0  0  0  0  0  0  0  0  0  0  0  0
  -20.8290  -29.8070   21.6140 H   0  0  0  0  0  0  0  0  0  0  0  0
  -17.8930  -28.1720   22.8260 C   0  0  0  0  0  0  0  0  0  0  0  0
  -20.4670  -28.2870   23.0320 C   0  0  0  0  0  3  0  0  0  0  0  0
  -20.4790  -26.8820   22.3870 C   0  0  0  0  0  2  0  0  0  0  0  0
  -19.3330  -26.6650   21.3920 C   0  0  0  0  0  2  0  0  0  0  0  0
  -17.9790  -26.8500   22.0830 C   0  0  0  0  0  2  0  0  0  0  0  0
  -19.0610  -28.8540   23.2560 C   0  0  0  0  0  0  0  0  0  0  0  0
  -18.9250  -30.0990   23.9110 C   0  0  0  0  0  3  0  0  0  0  0  0
  -17.6520  -30.6560   24.1380 C   0  0  0  0  0  3  0  0  0  0  0  0
  -16.4990  -29.9670   23.7260 C   0  0  0  0  0  3  0  0  0  0  0  0
  -16.6200  -28.7270   23.0740 C   0  0  0  0  0  3  0  0  0  0  0  0
  -25.7710  -32.3800   23.7870 C   0  0  0  0  0  3  0  0  0  0  0  0
  -26.2730  -31.5840   25.0550 C   0  0  1  0  0  0  0  0  0  0  0  0
  -25.1670  -31.3290   26.1050 C   0  0  0  0  0  1  0  0  0  0  0  0
  -26.8620  -30.2150   24.6430 C   0  0  0  0  0  1  0  0  0  0  0  0
  -27.4120  -32.3680   25.7480 C   0  0  0  0  0  1  0  0  0  0  0  0
  -25.4620  -33.7710   24.1370 N   0  0  0  0  0  0  0  0  0  0  0  0
  -25.8100  -34.8360   23.3980 C   0  0  0  0  0  0  0  0  0  0  0  0
  -26.4920  -34.7470   22.3750 O   0  0  0  0  0  0  0  0  0  0  0  0
  -24.8520  -33.9160   24.9270 H   0  0  0  0  0  0  0  0  0  0  0  0
  -24.0920  -36.6390   23.0490 C   0  0  0  0  0  1  0  0  0  0  0  0
  -25.3190  -36.2160   23.8720 C   0  0  0  0  0  3  0  0  0  0  0  0
  -27.4400  -37.0810   24.7600 C   0  0  0  0  0  1  0  0  0  0  0  0
  -26.3580  -37.2680   23.7970 N   0  0  0  0  0  0  0  0  0  0  0  0
  -25.9520  -38.1880   23.9480 H   0  0  0  0  0  0  0  0  0  0  0  0
  1  4  2  0
  1  2  1  0
  2  5  2  0
  4  6  1  0
  5  3  1  0
  5 59  1  0
  6 12  1  0
  6  3  2  0
  7 11  1  0
  9  7  1  0
 10  8  1  0
 11  8  1  0
 11 26  1  0
 12 10  1  0
 12  9  1  0
 13 25  1  0
 14 19  1  0
 15 16  1  0
 15 14  1  0
 17 16  1  0
 17 31  1  0
 17 18  1  0
 19 13  1  0
 19 18  1  0
 20 13  2  0
 21 23  1  0
 21 25  1  0
 24 22  1  0
 25 22  1  0
 26 27  1  6
 26 23  1  0
 26 24  1  0
 28 29  2  0
 29 48  1  0
 30 29  1  0
 30 33  1  0
 31 32  1  0
 31 28  1  0
 32 30  2  0
 33 34  1  0
 34 35  2  0
 36 39  1  0
 36 35  1  0
 37 36  2  0
 38 37  1  0
 38 33  2  0
 39 40  1  0
 40 41  1  0
 41 42  2  0
 43 42  1  0
 43 47  1  0
 44 43  2  0
 45 40  2  0
 45 44  1  0
 46 45  1  0
 48 49  1  0
 49 52  1  0
 49 51  1  0
 50 48  2  0
 53 54  1  0
 53 28  1  0
 55 53  1  0
 56 57  1  0
 56 58  1  0
 57 58  1  0
 58  4  1  0
 59 60  1  0
 61 72  2  0
 62 60  1  0
 62 67  1  0
 63 71  1  0
 63 73  1  0
 64 70  1  0
 64 66  1  0
 65 71  1  0
 66 67  2  0
 66 65  1  0
 68 62  2  0
 69 68  1  0
 69 64  2  0
 70 63  1  0
 71 61  1  0
 73 75  2  0
 74 73  1  0
 76 74  1  0
 77 86  2  0
 77 82  1  0
 78 74  1  0
 78 82  1  0
 79 78  1  0
 80 81  1  0
 80 79  1  0
 81 77  1  0
 82 83  2  0
 83 84  1  0
 85 84  2  0
 86 85  1  0
 87 61  1  0
 87 92  1  0
 87 88  1  0
 88 91  1  1
 88 89  1  0
 90 88  1  0
 92 95  1  0
 93 97  1  0
 93 92  1  0
 94 93  2  0
 97 96  1  0
 99 97  1  0
 99100  1  0
 99 98  1  0
M  ISO  4  13 100  25 100  59 101  60 101
M  END
>  <TORSDO>  (20) 
F 19

>  <SCORE>  (20) 
-14.291

>  <name>  (20) 
19

>  <ligand_id>  (20) 
19

>  <original_smiles>  (20) 
[H]c1c([H])c([H])c2c(c1[H])C([H])([H])C([H])([H])C([H])([H])C2([H])N([H])C(=O)C1([H])N(C(=O)C([H])(N([H])C(=O)C([H])(N([H])C([H])([H])[H])C([H])([H])[H])C(C([H])([H])[H])(C([H])([H])[H])C([H])([H])[H])C([H])([H])c2c([H])c(OC([H])([H])c3c([H])c([H])c(C4([H])C([H])([H])C4([H])[H])c(N4C([H])([H])C([H])([H])C([H])([N+]5([H])C([H])([H])C([H])([H])N(C(=O)N6C([H])([H])C([H])([H])C([H])([H])C([H])(n7nc(-c8c([H])c([H])c(Oc9c([H])c([H])c(F)c([H])c9F)c([H])c8[H])c(C(=O)N([H])[H])c7N([H])[H])C6([H])[H])C([H])([H])C5([H])[H])C([H])([H])C4([H])[H])c3[H])c([H])c([H])c2C1([H])[H]

>  <smiles>  (20) 
[H]c1c([H])c([H])c2c(c1[H])C([H])([H])C([H])([H])C([H])([H])C2([H])N([H])C(=O)C1([H])N(C(=O)C([H])(N([H])C(=O)C([H])(N([H])C([H])([H])[H])C([H])([H])[H])C(C([H])([H])[H])(C([H])([H])[H])C([H])([H])[H])C([H])([H])c2c([H])c(OC([H])([H])c3c([H])c([H])c(C4([H])C([H])([H])C4([H])[H])c(N4C([H])([H])C([H])([H])C([H])([N+]5([H])C([H])([H])C([H])([H])N(C(=O)N6C([H])([H])C([H])([H])C([H])([H])C([H])(n7nc(-c8c([H])c([H])c(Oc9c([H])c([H])c(F)c([H])c9F)c([H])c8[H])c(C(=O)N([H])[H])c7N([H])[H])C6([H])[H])C([H])([H])C5([H])[H])C([H])([H])C4([H])[H])c3[H])c([H])c([H])c2C1([H])[H]

$$$$
20:0:0
     RDKit          3D

 92101  0  0  1  0  0  0  0  0999 V2000
  -29.9370  -22.0110   21.2560 C   0  0  0  0  0  3  0  0  0  0  0  0
  -28.7920  -22.1790   19.1490 C   0  0  0  0  0  3  0  0  0  0  0  0
  -29.3890  -19.9200   20.0290 C   0  0  0  0  0  0  0  0  0  0  0  0
  -29.3650  -22.8380   20.2570 C   0  0  0  0  0  0  0  0  0  0  0  0
  -29.9470  -20.5890   21.1550 C   0  0  0  0  0  0  0  0  0  0  0  0
  -28.7900  -20.7590   19.0380 C   0  0  0  0  0  0  0  0  0  0  0  0
  -30.5620  -19.7890   22.2900 C   0  0  0  0  0  1  0  0  0  0  0  0
  -28.1150  -20.1590   17.8140 C   0  0  0  0  0  1  0  0  0  0  0  0
  -30.2330  -17.7370   18.8570 C   0  0  0  0  0  2  0  0  0  0  0  0
  -29.3380  -18.3690   19.8990 C   0  0  0  0  0  3  0  0  0  0  0  0
  -30.3900  -17.2710   20.2800 C   0  0  0  0  0  3  0  0  0  0  0  0
  -30.8340  -14.7830   20.2780 C   0  0  0  0  0  0  0  0  0  0  0  0
  -30.5990  -12.5480   19.2490 C   0  0  0  0  0  2  0  0  0  0  0  0
  -29.6360  -12.6690   18.0480 C   0  0  0  0  0  2  0  0  0  0  0  0
  -28.1730  -12.5050   18.5040 C   0  0  0  0  0  2  0  0  0  0  0  0
  -27.8280  -13.3800   19.7390 C   0  0  0  0  0  3  0  0  0  0  0  0
  -28.9060  -13.2500   20.8400 C   0  0  0  0  0  2  0  0  0  0  0  0
  -30.2040  -13.5720   20.2330 N   0  0  0  0  0  0  0  0  0  0  0  0
  -31.9980  -14.9270   19.8940 O   0  0  0  0  0  0  0  0  0  0  0  0
  -30.0410  -15.8660   20.5100 N   0  0  0  0  0  0  0  0  0  0  0  0
  -29.0940  -15.6700   20.7970 H   0  0  0  0  0  0  0  0  0  0  0  0
  -25.4530  -13.9660   20.5300 C   0  0  0  0  0  0  0  0  0  0  0  0
  -24.3960  -13.1850   20.9100 C   0  0  0  0  0  0  0  0  0  0  0  0
  -24.8550  -11.8350   20.8370 C   0  0  0  0  0  0  0  0  0  0  0  0
  -26.4900  -13.0910   20.2500 N   0  0  0  0  0  0  0  0  0  0  0  0
  -26.1380  -11.8020   20.4950 N   0  0  0  0  0  0  0  0  0  0  0  0
  -24.1330  -10.5680   21.0150 C   0  0  0  0  0  0  0  0  0  0  0  0
  -24.5200   -9.6290   21.9960 C   0  0  0  0  0  3  0  0  0  0  0  0
  -23.7990   -8.4270   22.1610 C   0  0  0  0  0  3  0  0  0  0  0  0
  -22.6750   -8.1570   21.3440 C   0  0  0  0  0  0  0  0  0  0  0  0
  -22.3070   -9.0850   20.3550 C   0  0  0  0  0  3  0  0  0  0  0  0
  -23.0290  -10.2780   20.1880 C   0  0  0  0  0  3  0  0  0  0  0  0
  -21.9290   -7.0040   21.4160 O   0  0  0  0  0  0  0  0  0  0  0  0
  -21.7280   -6.3500   22.6050 C   0  0  0  0  0  0  0  0  0  0  0  0
  -20.9860   -6.9280   23.6570 C   0  0  0  0  0  3  0  0  0  0  0  0
  -20.7450   -6.1930   24.8350 C   0  0  0  0  0  3  0  0  0  0  0  0
  -21.2360   -4.8800   24.9590 C   0  0  0  0  0  0  0  0  0  0  0  0
  -21.9700   -4.3000   23.9100 C   0  0  0  0  0  3  0  0  0  0  0  0
  -22.2130   -5.0330   22.7340 C   0  0  0  0  0  0  0  0  0  0  0  0
  -22.9040   -4.4620   21.7180 F   0  0  0  0  0  0  0  0  0  0  0  0
  -20.9980   -4.1700   26.0870 F   0  0  0  0  0  0  0  0  0  0  0  0
  -23.0050  -13.6560   21.2270 C   0  0  0  0  0  0  0  0  0  0  0  0
  -22.2950  -12.9360   22.0870 N   0  0  0  0  0  0  0  0  0  0  0  0
  -22.5590  -14.6980   20.7470 O   0  0  0  0  0  0  0  0  0  0  0  0
  -22.6690  -12.0920   22.4960 H   0  0  0  0  0  0  0  0  0  0  0  0
  -21.3630  -13.2310   22.3400 H   0  0  0  0  0  0  0  0  0  0  0  0
  -25.6140  -15.3400   20.3780 N   0  0  0  0  0  0  0  0  0  0  0  0
  -24.8460  -15.9880   20.5140 H   0  0  0  0  0  0  0  0  0  0  0  0
  -26.4430  -15.7830   20.0030 H   0  0  0  0  0  0  0  0  0  0  0  0
  -29.4640  -24.3940   20.3350 C   0  0  0  0  0  3  0  0  0  0  0  0
  -28.1990  -25.2560   19.9840 C   0  0  0  0  0  3  0  0  0  0  0  0
  -28.3620  -26.7090   20.1190 O   0  0  0  0  0  0  0  0  0  0  0  0
  -24.5950  -31.9750   23.2190 C   0  0  0  0  0  0  0  0  0  0  0  0
  -27.2150  -27.5040   20.0860 C   0  0  0  0  0  0  0  0  0  0  0  0
  -23.3800  -30.5780   21.5830 C   0  0  0  0  0  3  0  0  0  0  0  0
  -24.8240  -29.0580   20.1250 C   0  0  0  0  0  0  0  0  0  0  0  0
  -25.9100  -30.9340   21.3640 C   0  0  0  0  0  2  0  0  0  0  0  0
  -25.9940  -29.5660   20.7050 C   0  0  0  0  0  0  0  0  0  0  0  0
  -27.1920  -28.7990   20.6770 C   0  0  0  0  0  3  0  0  0  0  0  0
  -26.0220  -27.0390   19.4860 C   0  0  0  0  0  3  0  0  0  0  0  0
  -24.8380  -27.7980   19.5080 C   0  0  0  0  0  3  0  0  0  0  0  0
  -23.5780  -29.9130   20.1950 C   0  0  0  0  0  2  0  0  0  0  0  0
  -24.6470  -31.1780   22.1120 N   0  0  0  0  0  0  0  0  0  0  0  0
  -23.5170  -32.2370   23.7710 O   0  0  0  0  0  0  0  0  0  0  0  0
  -22.7430  -29.5460   22.5440 C   0  0  0  0  0  0  0  0  0  0  0  0
  -21.4280  -29.3140   22.3940 N   0  0  0  0  0  0  0  0  0  0  0  0
  -23.4300  -28.9550   23.3810 O   0  0  0  0  0  0  0  0  0  0  0  0
  -20.9330  -29.8440   21.6900 H   0  0  0  0  0  0  0  0  0  0  0  0
  -18.0720  -28.0740   22.9150 C   0  0  0  0  0  0  0  0  0  0  0  0
  -20.6310  -28.3560   23.1610 C   0  0  0  0  0  3  0  0  0  0  0  0
  -20.7410  -26.9350   22.5630 C   0  0  0  0  0  2  0  0  0  0  0  0
  -19.6310  -26.6140   21.5570 C   0  0  0  0  0  2  0  0  0  0  0  0
  -18.2560  -26.7370   22.2180 C   0  0  0  0  0  2  0  0  0  0  0  0
  -19.1870  -28.8430   23.3430 C   0  0  0  0  0  0  0  0  0  0  0  0
  -18.9630  -30.0950   23.9540 C   0  0  0  0  0  3  0  0  0  0  0  0
  -17.6550  -30.5800   24.1410 C   0  0  0  0  0  3  0  0  0  0  0  0
  -16.5540  -29.8080   23.7310 C   0  0  0  0  0  3  0  0  0  0  0  0
  -16.7630  -28.5580   23.1230 C   0  0  0  0  0  3  0  0  0  0  0  0
  -25.8820  -32.6120   23.8270 C   0  0  0  0  0  3  0  0  0  0  0  0
  -26.4180  -31.8390   25.0950 C   0  0  1  0  0  0  0  0  0  0  0  0
  -25.3220  -31.5270   26.1410 C   0  0  0  0  0  1  0  0  0  0  0  0
  -27.0710  -30.5000   24.6820 C   0  0  0  0  0  1  0  0  0  0  0  0
  -27.5220  -32.6720   25.7880 C   0  0  0  0  0  1  0  0  0  0  0  0
  -25.5680  -34.0070   24.1660 N   0  0  0  0  0  0  0  0  0  0  0  0
  -25.8930  -35.0650   23.4110 C   0  0  0  0  0  0  0  0  0  0  0  0
  -26.5570  -34.9700   22.3760 O   0  0  0  0  0  0  0  0  0  0  0  0
  -24.9780  -34.1550   24.9720 H   0  0  0  0  0  0  0  0  0  0  0  0
  -24.1900  -36.8760   23.0350 C   0  0  0  0  0  1  0  0  0  0  0  0
  -25.4020  -36.4480   23.8790 C   0  0  0  0  0  3  0  0  0  0  0  0
  -27.4950  -37.3210   24.8170 C   0  0  0  0  0  1  0  0  0  0  0  0
  -26.4450  -37.4950   23.8170 N   0  0  0  0  0  0  0  0  0  0  0  0
  -26.0390  -38.4180   23.9410 H   0  0  0  0  0  0  0  0  0  0  0  0
  2  4  1  0
  3  5  2  0
  4 50  1  0
  4  1  2  0
  5  1  1  0
  5  7  1  0
  6  2  2  0
  6  3  1  0
  8  6  1  0
  9 10  1  0
  9 11  1  0
 10  3  1  0
 10 11  1  0
 11 20  1  0
 12 20  1  0
 13 18  1  0
 14 15  1  0
 14 13  1  0
 16 15  1  0
 16 25  1  0
 16 17  1  0
 18 12  1  0
 18 17  1  0
 19 12  2  0
 20 21  1  0
 22 23  2  0
 23 42  1  0
 24 23  1  0
 24 27  1  0
 25 26  1  0
 25 22  1  0
 26 24  2  0
 27 28  1  0
 28 29  2  0
 30 33  1  0
 30 29  1  0
 31 30  2  0
 32 31  1  0
 32 27  2  0
 33 34  1  0
 34 39  2  0
 34 35  1  0
 35 36  2  0
 36 37  1  0
 37 41  1  0
 38 37  2  0
 39 38  1  0
 40 39  1  0
 42 43  1  0
 43 46  1  0
 43 45  1  0
 44 42  2  0
 47 48  1  0
 47 22  1  0
 49 47  1  0
 51 52  1  0
 51 50  2  0
 53 64  2  0
 54 52  1  0
 54 59  1  0
 55 63  1  0
 55 65  1  0
 56 62  1  0
 56 58  1  0
 57 63  1  0
 58 57  1  0
 59 58  2  0
 60 61  1  0
 60 54  2  0
 61 56  2  0
 62 55  1  0
 63 53  1  0
 65 67  2  0
 66 65  1  0
 68 66  1  0
 69 78  2  0
 69 74  1  0
 70 66  1  0
 70 74  1  0
 71 70  1  0
 72 73  1  0
 72 71  1  0
 73 69  1  0
 74 75  2  0
 75 76  1  0
 77 76  2  0
 78 77  1  0
 79 53  1  0
 79 84  1  0
 79 80  1  0
 80 83  1  1
 80 81  1  0
 82 80  1  0
 84 87  1  0
 85 89  1  0
 85 84  1  0
 86 85  2  0
 89 88  1  0
 91 89  1  0
 91 92  1  0
 91 90  1  0
M  ISO  4  12 100  20 100  51 101  52 101
M  END
>  <TORSDO>  (21) 
F 19

>  <SCORE>  (21) 
-14.023

>  <name>  (21) 
20

>  <ligand_id>  (21) 
20

>  <original_smiles>  (21) 
[H]c1c([H])c([H])c2c(c1[H])C([H])([H])C([H])([H])C([H])([H])C2([H])N([H])C(=O)C1([H])N(C(=O)C([H])(N([H])C(=O)C([H])(N([H])C([H])([H])[H])C([H])([H])[H])C(C([H])([H])[H])(C([H])([H])[H])C([H])([H])[H])C([H])([H])c2c([H])c(OC([H])([H])C([H])([H])c3c([H])c(C([H])([H])[H])c(C4([H])C([H])([H])C4([H])N([H])C(=O)N4C([H])([H])C([H])([H])C([H])([H])C([H])(n5nc(-c6c([H])c([H])c(Oc7c([H])c([H])c(F)c([H])c7F)c([H])c6[H])c(C(=O)N([H])[H])c5N([H])[H])C4([H])[H])c(C([H])([H])[H])c3[H])c([H])c([H])c2C1([H])[H]

>  <smiles>  (21) 
[H]c1c([H])c([H])c2c(c1[H])C([H])([H])C([H])([H])C([H])([H])C2([H])N([H])C(=O)C1([H])N(C(=O)C([H])(N([H])C(=O)C([H])(N([H])C([H])([H])[H])C([H])([H])[H])C(C([H])([H])[H])(C([H])([H])[H])C([H])([H])[H])C([H])([H])c2c([H])c(OC([H])([H])C([H])([H])c3c([H])c(C([H])([H])[H])c(C4([H])C([H])([H])C4([H])N([H])C(=O)N4C([H])([H])C([H])([H])C([H])([H])C([H])(n5nc(-c6c([H])c([H])c(Oc7c([H])c([H])c(F)c([H])c7F)c([H])c6[H])c(C(=O)N([H])[H])c5N([H])[H])C4([H])[H])c(C([H])([H])[H])c3[H])c([H])c([H])c2C1([H])[H]

$$$$
21:0:0
     RDKit          3D

 96105  0  0  1  0  0  0  0  0999 V2000
  -30.5480  -20.7530   22.4550 C   0  0  0  0  0  3  0  0  0  0  0  0
  -29.7530  -18.7440   21.2400 C   0  0  0  0  0  0  0  0  0  0  0  0
  -29.0650  -19.6930   20.3540 C   0  0  0  0  0  0  0  0  0  0  0  0
  -29.1750  -21.1780   20.4800 C   0  0  0  0  0  0  0  0  0  0  0  0
  -30.5230  -19.3690   22.2680 C   0  0  0  0  0  0  0  0  0  0  0  0
  -29.8630  -21.6590   21.6320 C   0  0  0  0  0  0  0  0  0  0  0  0
  -30.6610  -16.5700   22.4180 C   0  0  0  0  0  2  0  0  0  0  0  0
  -30.7830  -17.4590   23.6330 C   0  0  0  0  0  2  0  0  0  0  0  0
  -29.6380  -17.1170   21.4010 C   0  0  0  0  0  3  0  0  0  0  0  0
  -28.1410  -19.0740   19.3170 C   0  0  0  0  0  1  0  0  0  0  0  0
  -31.2760  -18.7030   23.2030 O   0  0  0  0  0  0  0  0  0  0  0  0
  -30.1270  -14.9230   19.9930 C   0  0  0  0  0  0  0  0  0  0  0  0
  -30.0260  -12.6480   18.9320 C   0  0  0  0  0  2  0  0  0  0  0  0
  -28.9880  -12.6060   17.7870 C   0  0  0  0  0  2  0  0  0  0  0  0
  -27.5720  -12.3220   18.3320 C   0  0  0  0  0  2  0  0  0  0  0  0
  -27.2190  -13.1890   19.5700 C   0  0  0  0  0  3  0  0  0  0  0  0
  -28.3670  -13.1860   20.6020 C   0  0  0  0  0  2  0  0  0  0  0  0
  -29.5700  -13.6630   19.9090 N   0  0  0  0  0  0  0  0  0  0  0  0
  -31.2740  -15.1090   19.5810 O   0  0  0  0  0  0  0  0  0  0  0  0
  -29.3290  -15.9880   20.4110 N   0  0  0  0  0  0  0  0  0  0  0  0
  -28.3540  -15.7280   20.4480 H   0  0  0  0  0  0  0  0  0  0  0  0
  -24.8700  -13.6090   20.5070 C   0  0  0  0  0  0  0  0  0  0  0  0
  -23.8910  -12.7610   20.9480 C   0  0  0  0  0  0  0  0  0  0  0  0
  -24.4370  -11.4440   20.8500 C   0  0  0  0  0  0  0  0  0  0  0  0
  -25.9430  -12.8050   20.1620 N   0  0  0  0  0  0  0  0  0  0  0  0
  -25.6960  -11.4980   20.4330 N   0  0  0  0  0  0  0  0  0  0  0  0
  -23.8130  -10.1330   21.0720 C   0  0  0  0  0  0  0  0  0  0  0  0
  -24.2850   -9.2510   22.0690 C   0  0  0  0  0  3  0  0  0  0  0  0
  -23.6570   -8.0040   22.2770 C   0  0  0  0  0  3  0  0  0  0  0  0
  -22.5430   -7.6290   21.4890 C   0  0  0  0  0  0  0  0  0  0  0  0
  -22.0920   -8.5020   20.4830 C   0  0  0  0  0  3  0  0  0  0  0  0
  -22.7210   -9.7400   20.2720 C   0  0  0  0  0  3  0  0  0  0  0  0
  -21.8880   -6.4270   21.6020 O   0  0  0  0  0  0  0  0  0  0  0  0
  -21.7310   -5.8040   22.8140 C   0  0  0  0  0  0  0  0  0  0  0  0
  -21.0190   -6.4040   23.8750 C   0  0  0  0  0  3  0  0  0  0  0  0
  -20.8230   -5.6970   25.0790 C   0  0  0  0  0  3  0  0  0  0  0  0
  -21.3300   -4.3910   25.2210 C   0  0  0  0  0  0  0  0  0  0  0  0
  -22.0340   -3.7920   24.1620 C   0  0  0  0  0  3  0  0  0  0  0  0
  -22.2320   -4.4950   22.9620 C   0  0  0  0  0  0  0  0  0  0  0  0
  -22.8930   -3.9030   21.9380 F   0  0  0  0  0  0  0  0  0  0  0  0
  -21.1360   -3.7130   26.3740 F   0  0  0  0  0  0  0  0  0  0  0  0
  -22.4930  -13.1380   21.3420 C   0  0  0  0  0  0  0  0  0  0  0  0
  -21.8890  -12.3900   22.2580 N   0  0  0  0  0  0  0  0  0  0  0  0
  -21.9440  -14.1310   20.8680 O   0  0  0  0  0  0  0  0  0  0  0  0
  -22.3480  -11.5870   22.6650 H   0  0  0  0  0  0  0  0  0  0  0  0
  -20.9530  -12.6240   22.5600 H   0  0  0  0  0  0  0  0  0  0  0  0
  -24.9290  -14.9910   20.3460 N   0  0  0  0  0  0  0  0  0  0  0  0
  -24.1370  -15.5890   20.5460 H   0  0  0  0  0  0  0  0  0  0  0  0
  -25.6900  -15.4870   19.9020 H   0  0  0  0  0  0  0  0  0  0  0  0
  -29.0040  -21.8910   18.0070 C   0  0  0  0  0  1  0  0  0  0  0  0
  -28.5620  -22.2720   19.4450 C   0  0  0  0  0  3  0  0  0  0  0  0
  -28.8320  -23.9090   19.5070 C   0  0  0  0  0  3  0  0  0  0  0  0
  -27.6820  -25.0020   19.7910 C   0  0  0  0  0  3  0  0  0  0  0  0
  -27.9460  -26.4820   19.6410 O   0  0  0  0  0  0  0  0  0  0  0  0
  -24.6610  -31.8080   23.3450 C   0  0  0  0  0  0  0  0  0  0  0  0
  -26.8710  -27.3980   19.7550 C   0  0  0  0  0  0  0  0  0  0  0  0
  -23.2950  -30.5910   21.6900 C   0  0  0  0  0  3  0  0  0  0  0  0
  -24.5830  -29.1160   20.0430 C   0  0  0  0  0  0  0  0  0  0  0  0
  -25.8320  -30.8310   21.3550 C   0  0  0  0  0  2  0  0  0  0  0  0
  -25.8110  -29.5080   20.5890 C   0  0  0  0  0  0  0  0  0  0  0  0
  -26.9600  -28.6650   20.4310 C   0  0  0  0  0  3  0  0  0  0  0  0
  -25.6190  -27.0860   19.1810 C   0  0  0  0  0  3  0  0  0  0  0  0
  -24.4910  -27.9160   19.3240 C   0  0  0  0  0  3  0  0  0  0  0  0
  -23.3900  -30.0290   20.2470 C   0  0  0  0  0  2  0  0  0  0  0  0
  -24.6190  -31.0890   22.1850 N   0  0  0  0  0  0  0  0  0  0  0  0
  -23.6280  -32.0750   23.9770 O   0  0  0  0  0  0  0  0  0  0  0  0
  -22.6610  -29.5210   22.6110 C   0  0  0  0  0  0  0  0  0  0  0  0
  -21.3430  -29.2970   22.4680 N   0  0  0  0  0  0  0  0  0  0  0  0
  -23.3540  -28.8940   23.4160 O   0  0  0  0  0  0  0  0  0  0  0  0
  -20.8370  -29.8570   21.7940 H   0  0  0  0  0  0  0  0  0  0  0  0
  -18.0300  -27.8810   22.8260 C   0  0  0  0  0  0  0  0  0  0  0  0
  -20.5520  -28.3060   23.2030 C   0  0  0  0  0  3  0  0  0  0  0  0
  -20.7720  -26.8850   22.6320 C   0  0  0  0  0  2  0  0  0  0  0  0
  -19.7380  -26.4940   21.5710 C   0  0  0  0  0  2  0  0  0  0  0  0
  -18.3230  -26.5470   22.1550 C   0  0  0  0  0  2  0  0  0  0  0  0
  -19.0770  -28.7120   23.3020 C   0  0  0  0  0  0  0  0  0  0  0  0
  -18.7520  -29.9560   23.8840 C   0  0  0  0  0  3  0  0  0  0  0  0
  -17.4100  -30.3690   23.9970 C   0  0  0  0  0  3  0  0  0  0  0  0
  -16.3760  -29.5360   23.5370 C   0  0  0  0  0  3  0  0  0  0  0  0
  -16.6880  -28.2940   22.9560 C   0  0  0  0  0  3  0  0  0  0  0  0
  -26.0070  -32.3480   23.9200 C   0  0  0  0  0  3  0  0  0  0  0  0
  -26.5440  -31.5050   25.1410 C   0  0  1  0  0  0  0  0  0  0  0  0
  -25.4830  -31.2490   26.2380 C   0  0  0  0  0  1  0  0  0  0  0  0
  -27.0690  -30.1280   24.6700 C   0  0  0  0  0  1  0  0  0  0  0  0
  -27.7390  -32.2330   25.7980 C   0  0  0  0  0  1  0  0  0  0  0  0
  -25.7930  -33.7480   24.3150 N   0  0  0  0  0  0  0  0  0  0  0  0
  -26.1390  -34.8130   23.5770 C   0  0  0  0  0  0  0  0  0  0  0  0
  -26.7460  -34.7160   22.5070 O   0  0  0  0  0  0  0  0  0  0  0  0
  -25.2630  -33.9030   25.1590 H   0  0  0  0  0  0  0  0  0  0  0  0
  -24.5020  -36.7140   23.3790 C   0  0  0  0  0  1  0  0  0  0  0  0
  -25.7540  -36.2050   24.1110 C   0  0  0  0  0  3  0  0  0  0  0  0
  -27.9630  -36.9530   24.8840 C   0  0  0  0  0  1  0  0  0  0  0  0
  -26.8370  -37.2050   23.9870 N   0  0  0  0  0  0  0  0  0  0  0  0
  -26.4860  -38.1410   24.1720 H   0  0  0  0  0  0  0  0  0  0  0  0
  -30.2050  -23.4360   23.2750 C   0  0  0  0  0  1  0  0  0  0  0  0
  -29.8270  -23.0000   21.9650 O   0  0  0  0  0  0  0  0  0  0  0  0
  2  9  1  0
  2  5  2  0
  3  4  2  0
  3  2  1  0
  4  6  1  0
  5  1  1  0
  5 11  1  0
  6 96  1  0
  6  1  2  0
  7  8  1  0
  9 20  1  0
  9  7  1  0
 10  3  1  0
 11  8  1  0
 12 20  1  0
 13 18  1  0
 14 15  1  0
 14 13  1  0
 16 15  1  0
 16 25  1  0
 16 17  1  0
 18 12  1  0
 18 17  1  0
 19 12  2  0
 20 21  1  0
 22 23  2  0
 23 42  1  0
 24 23  1  0
 24 27  1  0
 25 26  1  0
 25 22  1  0
 26 24  2  0
 27 28  1  0
 28 29  2  0
 30 33  1  0
 30 29  1  0
 31 30  2  0
 32 31  1  0
 32 27  2  0
 33 34  1  0
 34 39  2  0
 34 35  1  0
 35 36  2  0
 36 37  1  0
 37 41  1  0
 38 37  2  0
 39 38  1  0
 40 39  1  0
 42 43  1  0
 43 46  1  0
 43 45  1  0
 44 42  2  0
 47 22  1  0
 47 48  1  0
 49 47  1  0
 51 50  1  0
 51 52  1  0
 51  4  1  0
 52 53  2  0
 54 56  1  0
 54 53  1  0
 55 66  2  0
 56 61  1  0
 57 65  1  0
 57 67  1  0
 58 64  1  0
 58 60  1  0
 59 65  1  0
 60 59  1  0
 61 60  2  0
 62 63  1  0
 62 56  2  0
 63 58  2  0
 64 57  1  0
 65 55  1  0
 67 69  2  0
 68 67  1  0
 70 68  1  0
 71 80  2  0
 71 76  1  0
 72 68  1  0
 72 76  1  0
 73 72  1  0
 74 75  1  0
 74 73  1  0
 75 71  1  0
 76 77  2  0
 77 78  1  0
 79 78  2  0
 80 79  1  0
 81 55  1  0
 81 86  1  0
 81 82  1  0
 82 85  1  1
 82 83  1  0
 84 82  1  0
 86 89  1  0
 87 91  1  0
 87 86  1  0
 88 87  2  0
 91 90  1  0
 93 91  1  0
 93 94  1  0
 93 92  1  0
 96 95  1  0
M  ISO  4  12 100  20 100  53 101  54 101
M  END
>  <TORSDO>  (22) 
F 20

>  <SCORE>  (22) 
-11.807

>  <name>  (22) 
21

>  <ligand_id>  (22) 
21

>  <original_smiles>  (22) 
[H]c1c([H])c([H])c2c(c1[H])C([H])([H])C([H])([H])C([H])([H])C2([H])N([H])C(=O)C1([H])N(C(=O)C([H])(N([H])C(=O)C([H])(N([H])C([H])([H])[H])C([H])([H])[H])C(C([H])([H])[H])(C([H])([H])[H])C([H])([H])[H])C([H])([H])c2c([H])c(OC([H])([H])C([H])([H])C([H])(c3c(OC([H])([H])[H])c([H])c4c(c3C([H])([H])[H])C([H])(N([H])C(=O)N3C([H])([H])C([H])([H])C([H])([H])C([H])(n5nc(-c6c([H])c([H])c(Oc7c([H])c([H])c(F)c([H])c7F)c([H])c6[H])c(C(=O)N([H])[H])c5N([H])[H])C3([H])[H])C([H])([H])C([H])([H])O4)C([H])([H])[H])c([H])c([H])c2C1([H])[H]

>  <smiles>  (22) 
[H]c1c([H])c([H])c2c(c1[H])C([H])([H])C([H])([H])C([H])([H])C2([H])N([H])C(=O)C1([H])N(C(=O)C([H])(N([H])C(=O)C([H])(N([H])C([H])([H])[H])C([H])([H])[H])C(C([H])([H])[H])(C([H])([H])[H])C([H])([H])[H])C([H])([H])c2c([H])c(OC([H])([H])C([H])([H])C([H])(c3c(OC([H])([H])[H])c([H])c4c(c3C([H])([H])[H])C([H])(N([H])C(=O)N3C([H])([H])C([H])([H])C([H])([H])C([H])(n5nc(-c6c([H])c([H])c(Oc7c([H])c([H])c(F)c([H])c7F)c([H])c6[H])c(C(=O)N([H])[H])c5N([H])[H])C3([H])[H])C([H])([H])C([H])([H])O4)C([H])([H])[H])c([H])c([H])c2C1([H])[H]

$$$$
22:0:0
     RDKit          3D

 92100  0  0  1  0  0  0  0  0999 V2000
  -29.0460  -23.7240   19.9630 C   0  0  0  0  0  3  0  0  0  0  0  0
  -29.5580  -23.8000   22.3280 C   0  0  0  0  0  3  0  0  0  0  0  0
  -29.0250  -24.4270   21.1850 C   0  0  0  0  0  0  0  0  0  0  0  0
  -29.5800  -22.4110   19.8800 C   0  0  0  0  0  0  0  0  0  0  0  0
  -30.0800  -22.4910   22.2660 C   0  0  0  0  0  0  0  0  0  0  0  0
  -30.0770  -21.7630   21.0530 C   0  0  0  0  0  0  0  0  0  0  0  0
  -29.6490  -21.7720   18.5020 C   0  0  0  0  0  1  0  0  0  0  0  0
  -30.6530  -21.8650   23.5260 C   0  0  0  0  0  1  0  0  0  0  0  0
  -28.3610  -25.7990   21.3360 C   0  0  0  0  0  2  0  0  0  0  0  0
  -28.3440  -26.6290   20.1640 O   0  0  0  0  0  0  0  0  0  0  0  0
  -24.6120  -31.8790   23.2170 C   0  0  0  0  0  0  0  0  0  0  0  0
  -27.2250  -27.4290   20.1320 C   0  0  0  0  0  0  0  0  0  0  0  0
  -23.3950  -30.4840   21.5780 C   0  0  0  0  0  3  0  0  0  0  0  0
  -24.8390  -28.9410   20.1450 C   0  0  0  0  0  0  0  0  0  0  0  0
  -25.9210  -30.8300   21.3730 C   0  0  0  0  0  2  0  0  0  0  0  0
  -26.0000  -29.4610   20.7340 C   0  0  0  0  0  0  0  0  0  0  0  0
  -27.1990  -28.7090   20.7310 C   0  0  0  0  0  3  0  0  0  0  0  0
  -26.0540  -26.9220   19.5350 C   0  0  0  0  0  3  0  0  0  0  0  0
  -24.8610  -27.6700   19.5430 C   0  0  0  0  0  3  0  0  0  0  0  0
  -23.5980  -29.8020   20.1970 C   0  0  0  0  0  2  0  0  0  0  0  0
  -24.6610  -31.0790   22.1150 N   0  0  0  0  0  0  0  0  0  0  0  0
  -23.5360  -32.1550   23.7630 O   0  0  0  0  0  0  0  0  0  0  0  0
  -22.7440  -29.4650   22.5410 C   0  0  0  0  0  0  0  0  0  0  0  0
  -21.4170  -29.2910   22.4210 N   0  0  0  0  0  0  0  0  0  0  0  0
  -23.4280  -28.8360   23.3500 O   0  0  0  0  0  0  0  0  0  0  0  0
  -20.9270  -29.8520   21.7380 H   0  0  0  0  0  0  0  0  0  0  0  0
  -18.0390  -28.1200   22.9380 C   0  0  0  0  0  0  0  0  0  0  0  0
  -20.5990  -28.3580   23.1950 C   0  0  0  0  0  3  0  0  0  0  0  0
  -20.6880  -26.9280   22.6180 C   0  0  0  0  0  2  0  0  0  0  0  0
  -19.5780  -26.6140   21.6100 C   0  0  0  0  0  2  0  0  0  0  0  0
  -18.2010  -26.7710   22.2590 C   0  0  0  0  0  2  0  0  0  0  0  0
  -19.1650  -28.8730   23.3630 C   0  0  0  0  0  0  0  0  0  0  0  0
  -18.9590  -30.1380   23.9550 C   0  0  0  0  0  3  0  0  0  0  0  0
  -17.6600  -30.6510   24.1270 C   0  0  0  0  0  3  0  0  0  0  0  0
  -16.5470  -29.8940   23.7200 C   0  0  0  0  0  3  0  0  0  0  0  0
  -16.7370  -28.6310   23.1320 C   0  0  0  0  0  3  0  0  0  0  0  0
  -25.9050  -32.5050   23.8300 C   0  0  0  0  0  3  0  0  0  0  0  0
  -25.6020  -33.9010   24.1710 N   0  0  0  0  0  0  0  0  0  0  0  0
  -25.9310  -34.9560   23.4140 C   0  0  0  0  0  0  0  0  0  0  0  0
  -26.5940  -34.8590   22.3790 O   0  0  0  0  0  0  0  0  0  0  0  0
  -25.0150  -34.0510   24.9790 H   0  0  0  0  0  0  0  0  0  0  0  0
  -24.2010  -36.7510   23.0780 C   0  0  0  0  0  1  0  0  0  0  0  0
  -25.4450  -36.3420   23.8820 C   0  0  0  0  0  3  0  0  0  0  0  0
  -27.5870  -37.2160   24.7040 C   0  0  0  0  0  1  0  0  0  0  0  0
  -26.4770  -37.3960   23.7740 N   0  0  0  0  0  0  0  0  0  0  0  0
  -26.0720  -38.3140   23.9390 H   0  0  0  0  0  0  0  0  0  0  0  0
  -26.4350  -31.7250   25.0960 C   0  0  1  0  0  0  0  0  0  0  0  0
  -25.3530  -31.4790   26.1720 C   0  0  0  0  0  1  0  0  0  0  0  0
  -27.0160  -30.3510   24.6860 C   0  0  0  0  0  1  0  0  0  0  0  0
  -27.5890  -32.5160   25.7560 C   0  0  0  0  0  1  0  0  0  0  0  0
  -30.6230  -20.4870   21.1150 O   0  0  0  0  0  0  0  0  0  0  0  0
  -30.0050  -19.4010   20.4160 C   0  0  0  0  0  2  0  0  0  0  0  0
  -30.2540  -18.0380   21.1210 C   0  0  0  0  0  2  0  0  0  0  0  0
  -29.8260  -16.8410   20.2330 C   0  0  0  0  0  2  0  0  0  0  0  0
  -30.6200  -14.4770   20.4490 C   0  0  0  0  0  0  0  0  0  0  0  0
  -30.3430  -12.3010   19.3300 C   0  0  0  0  0  2  0  0  0  0  0  0
  -29.3990  -12.5210   18.1260 C   0  0  0  0  0  2  0  0  0  0  0  0
  -27.9240  -12.3840   18.5540 C   0  0  0  0  0  2  0  0  0  0  0  0
  -27.5920  -13.2090   19.8270 C   0  0  0  0  0  3  0  0  0  0  0  0
  -28.6500  -12.9770   20.9330 C   0  0  0  0  0  2  0  0  0  0  0  0
  -29.9770  -13.2780   20.3670 N   0  0  0  0  0  0  0  0  0  0  0  0
  -31.7380  -14.6740   19.9670 O   0  0  0  0  0  0  0  0  0  0  0  0
  -29.8500  -15.5050   20.8630 N   0  0  0  0  0  0  0  0  0  0  0  0
  -28.9920  -15.2220   21.3140 H   0  0  0  0  0  0  0  0  0  0  0  0
  -25.1920  -13.8220   20.5290 C   0  0  0  0  0  0  0  0  0  0  0  0
  -24.1230  -13.0520   20.9020 C   0  0  0  0  0  0  0  0  0  0  0  0
  -24.5820  -11.7000   20.8740 C   0  0  0  0  0  0  0  0  0  0  0  0
  -26.2360  -12.9390   20.3030 N   0  0  0  0  0  0  0  0  0  0  0  0
  -25.8720  -11.6570   20.5640 N   0  0  0  0  0  0  0  0  0  0  0  0
  -23.8550  -10.4390   21.0700 C   0  0  0  0  0  0  0  0  0  0  0  0
  -24.3030   -9.4630   21.9850 C   0  0  0  0  0  3  0  0  0  0  0  0
  -23.5790   -8.2660   22.1680 C   0  0  0  0  0  3  0  0  0  0  0  0
  -22.3890   -8.0370   21.4350 C   0  0  0  0  0  0  0  0  0  0  0  0
  -21.9600   -9.0030   20.5070 C   0  0  0  0  0  3  0  0  0  0  0  0
  -22.6870  -10.1910   20.3220 C   0  0  0  0  0  3  0  0  0  0  0  0
  -21.6320   -6.8940   21.5280 O   0  0  0  0  0  0  0  0  0  0  0  0
  -21.6210   -6.1300   22.6680 C   0  0  0  0  0  0  0  0  0  0  0  0
  -21.2550   -6.6650   23.9220 C   0  0  0  0  0  3  0  0  0  0  0  0
  -21.1900   -5.8280   25.0530 C   0  0  0  0  0  3  0  0  0  0  0  0
  -21.4820   -4.4550   24.9320 C   0  0  0  0  0  0  0  0  0  0  0  0
  -21.8400   -3.9200   23.6830 C   0  0  0  0  0  3  0  0  0  0  0  0
  -21.9080   -4.7550   22.5540 C   0  0  0  0  0  0  0  0  0  0  0  0
  -22.2330   -4.2280   21.3480 F   0  0  0  0  0  0  0  0  0  0  0  0
  -21.4120   -3.6490   26.0170 F   0  0  0  0  0  0  0  0  0  0  0  0
  -22.7270  -13.5320   21.1770 C   0  0  0  0  0  0  0  0  0  0  0  0
  -22.0020  -12.8380   22.0480 N   0  0  0  0  0  0  0  0  0  0  0  0
  -22.2880  -14.5570   20.6570 O   0  0  0  0  0  0  0  0  0  0  0  0
  -22.3680  -12.0080   22.4890 H   0  0  0  0  0  0  0  0  0  0  0  0
  -21.0660  -13.1420   22.2760 H   0  0  0  0  0  0  0  0  0  0  0  0
  -25.3600  -15.1910   20.3450 N   0  0  0  0  0  0  0  0  0  0  0  0
  -24.5920  -15.8480   20.4380 H   0  0  0  0  0  0  0  0  0  0  0  0
  -26.2150  -15.6270   20.0240 H   0  0  0  0  0  0  0  0  0  0  0  0
  1  3  1  0
  3  9  1  0
  3  2  2  0
  4  1  2  0
  4  6  1  0
  5  2  1  0
  5  8  1  0
  6 51  1  0
  6  5  2  0
  7  4  1  0
 10  9  1  0
 11 22  2  0
 12 10  1  0
 12 17  1  0
 13 21  1  0
 13 23  1  0
 14 20  1  0
 14 16  1  0
 15 21  1  0
 16 15  1  0
 17 16  2  0
 18 19  1  0
 18 12  2  0
 19 14  2  0
 20 13  1  0
 21 11  1  0
 23 25  2  0
 24 23  1  0
 26 24  1  0
 27 36  2  0
 27 32  1  0
 28 24  1  0
 28 32  1  0
 29 28  1  0
 30 31  1  0
 30 29  1  0
 31 27  1  0
 32 33  2  0
 33 34  1  0
 35 34  2  0
 36 35  1  0
 37 11  1  0
 37 38  1  0
 37 47  1  0
 38 41  1  0
 39 43  1  0
 39 38  1  0
 40 39  2  0
 43 42  1  0
 45 43  1  0
 45 46  1  0
 45 44  1  0
 47 50  1  1
 47 48  1  0
 49 47  1  0
 52 51  1  0
 52 53  1  0
 54 63  1  0
 54 53  1  0
 55 63  1  0
 56 61  1  0
 57 58  1  0
 57 56  1  0
 59 58  1  0
 59 68  1  0
 59 60  1  0
 61 55  1  0
 61 60  1  0
 62 55  2  0
 63 64  1  0
 65 66  2  0
 66 85  1  0
 67 66  1  0
 67 70  1  0
 68 65  1  0
 68 69  1  0
 69 67  2  0
 70 71  1  0
 71 72  2  0
 73 76  1  0
 73 72  1  0
 74 73  2  0
 75 74  1  0
 75 70  2  0
 76 77  1  0
 77 78  1  0
 78 79  2  0
 80 79  1  0
 80 84  1  0
 81 80  2  0
 82 77  2  0
 82 81  1  0
 83 82  1  0
 85 86  1  0
 86 89  1  0
 86 88  1  0
 87 85  2  0
 90 91  1  0
 90 65  1  0
 92 90  1  0
M  ISO  4   9 101  10 101  55 100  63 100
M  END
>  <TORSDO>  (23) 
F 21

>  <SCORE>  (23) 
-13.825

>  <name>  (23) 
22

>  <ligand_id>  (23) 
22

>  <original_smiles>  (23) 
[H]c1c([H])c([H])c2c(c1[H])C([H])([H])C([H])([H])C([H])([H])C2([H])N([H])C(=O)C1([H])N(C(=O)C([H])(N([H])C(=O)C([H])(N([H])C([H])([H])[H])C([H])([H])[H])C(C([H])([H])[H])(C([H])([H])[H])C([H])([H])[H])C([H])([H])c2c([H])c(OC([H])([H])c3c([H])c(C([H])([H])[H])c(OC([H])([H])C([H])([H])C([H])([H])N([H])C(=O)N4C([H])([H])C([H])([H])C([H])([H])C([H])(n5nc(-c6c([H])c([H])c(Oc7c([H])c([H])c(F)c([H])c7F)c([H])c6[H])c(C(=O)N([H])[H])c5N([H])[H])C4([H])[H])c(C([H])([H])[H])c3[H])c([H])c([H])c2C1([H])[H]

>  <smiles>  (23) 
[H]c1c([H])c([H])c2c(c1[H])C([H])([H])C([H])([H])C([H])([H])C2([H])N([H])C(=O)C1([H])N(C(=O)C([H])(N([H])C(=O)C([H])(N([H])C([H])([H])[H])C([H])([H])[H])C(C([H])([H])[H])(C([H])([H])[H])C([H])([H])[H])C([H])([H])c2c([H])c(OC([H])([H])c3c([H])c(C([H])([H])[H])c(OC([H])([H])C([H])([H])C([H])([H])N([H])C(=O)N4C([H])([H])C([H])([H])C([H])([H])C([H])(n5nc(-c6c([H])c([H])c(Oc7c([H])c([H])c(F)c([H])c7F)c([H])c6[H])c(C(=O)N([H])[H])c5N([H])[H])C4([H])[H])c(C([H])([H])[H])c3[H])c([H])c([H])c2C1([H])[H]

$$$$
23:0:0
     RDKit          3D

 96105  0  0  1  0  0  0  0  0999 V2000
  -27.8330  -20.5930   21.5120 C   0  0  0  0  0  1  0  0  0  0  0  0
  -28.1570  -21.6540   20.4430 C   0  0  0  0  0  3  0  0  0  0  0  0
  -28.6120  -20.2200   18.4340 C   0  0  0  0  0  2  0  0  0  0  0  0
  -30.4880  -20.7230   20.0090 C   0  0  0  0  0  2  0  0  0  0  0  0
  -29.6630  -19.2180   17.9370 C   0  0  0  0  0  2  0  0  0  0  0  0
  -30.8050  -19.1820   20.0340 C   0  0  0  0  0  3  0  0  0  0  0  0
  -29.1650  -21.1390   19.4620 N   0  0  2  0  0  4  0  0  0  0  0  0
  -30.0580  -18.4490   19.0640 O   0  0  0  0  0  0  0  0  0  0  0  0
  -29.3940  -21.9680   18.9300 H   0  0  0  0  0  0  0  0  0  0  0  0
  -31.3750  -19.1650   22.5780 C   0  0  0  0  0  1  0  0  0  0  0  0
  -30.7220  -18.4040   21.3980 C   0  0  0  0  0  3  0  0  0  0  0  0
  -31.4660  -17.0300   21.3650 C   0  0  0  0  0  2  0  0  0  0  0  0
  -31.3710  -14.8390   20.2090 C   0  0  0  0  0  0  0  0  0  0  0  0
  -31.0210  -12.6500   19.1360 C   0  0  0  0  0  2  0  0  0  0  0  0
  -30.0680  -12.8130   17.9380 C   0  0  0  0  0  2  0  0  0  0  0  0
  -28.5980  -12.6980   18.3800 C   0  0  0  0  0  2  0  0  0  0  0  0
  -28.2780  -13.5980   19.5990 C   0  0  0  0  0  3  0  0  0  0  0  0
  -29.3400  -13.4310   20.7100 C   0  0  0  0  0  2  0  0  0  0  0  0
  -30.6590  -13.6900   20.1080 N   0  0  0  0  0  0  0  0  0  0  0  0
  -32.4950  -14.9790   19.7070 O   0  0  0  0  0  0  0  0  0  0  0  0
  -30.7580  -15.8650   20.8240 N   0  0  0  0  0  0  0  0  0  0  0  0
  -29.8070  -15.7150   21.1250 H   0  0  0  0  0  0  0  0  0  0  0  0
  -25.9160  -14.2720   20.3580 C   0  0  0  0  0  0  0  0  0  0  0  0
  -24.8300  -13.5320   20.7370 C   0  0  0  0  0  0  0  0  0  0  0  0
  -25.2460  -12.1670   20.6810 C   0  0  0  0  0  0  0  0  0  0  0  0
  -26.9280  -13.3610   20.0960 N   0  0  0  0  0  0  0  0  0  0  0  0
  -26.5290  -12.0890   20.3520 N   0  0  0  0  0  0  0  0  0  0  0  0
  -24.4840  -10.9260   20.8640 C   0  0  0  0  0  0  0  0  0  0  0  0
  -24.8480   -9.9800   21.8480 C   0  0  0  0  0  3  0  0  0  0  0  0
  -24.0920   -8.8020   22.0200 C   0  0  0  0  0  3  0  0  0  0  0  0
  -22.9560   -8.5630   21.2100 C   0  0  0  0  0  0  0  0  0  0  0  0
  -22.6140   -9.4930   20.2120 C   0  0  0  0  0  3  0  0  0  0  0  0
  -23.3690  -10.6650   20.0410 C   0  0  0  0  0  3  0  0  0  0  0  0
  -22.1750   -7.4390   21.2940 O   0  0  0  0  0  0  0  0  0  0  0  0
  -21.9760   -6.7870   22.4840 C   0  0  0  0  0  0  0  0  0  0  0  0
  -21.3870   -7.4200   23.6000 C   0  0  0  0  0  3  0  0  0  0  0  0
  -21.1460   -6.6870   24.7790 C   0  0  0  0  0  3  0  0  0  0  0  0
  -21.4670   -5.3190   24.8410 C   0  0  0  0  0  0  0  0  0  0  0  0
  -22.0430   -4.6830   23.7250 C   0  0  0  0  0  3  0  0  0  0  0  0
  -22.2940   -5.4120   22.5510 C   0  0  0  0  0  0  0  0  0  0  0  0
  -22.8370   -4.7910   21.4760 F   0  0  0  0  0  0  0  0  0  0  0  0
  -21.2240   -4.6120   25.9690 F   0  0  0  0  0  0  0  0  0  0  0  0
  -23.4550  -14.0520   21.0400 C   0  0  0  0  0  0  0  0  0  0  0  0
  -22.7330  -13.3640   21.9170 N   0  0  0  0  0  0  0  0  0  0  0  0
  -23.0380  -15.1010   20.5500 O   0  0  0  0  0  0  0  0  0  0  0  0
  -23.0730  -12.5110   22.3350 H   0  0  0  0  0  0  0  0  0  0  0  0
  -21.8150  -13.6920   22.1770 H   0  0  0  0  0  0  0  0  0  0  0  0
  -26.1360  -15.6360   20.2070 N   0  0  0  0  0  0  0  0  0  0  0  0
  -27.0030  -16.0260   19.8730 H   0  0  0  0  0  0  0  0  0  0  0  0
  -25.4130  -16.3300   20.3600 H   0  0  0  0  0  0  0  0  0  0  0  0
  -27.4780  -23.6960   21.9430 C   0  0  0  0  0  2  0  0  0  0  0  0
  -27.5360  -25.2100   21.6760 C   0  0  0  0  0  2  0  0  0  0  0  0
  -28.9270  -24.1540   20.0080 C   0  0  0  0  0  2  0  0  0  0  0  0
  -28.5660  -23.0480   21.0480 C   0  0  0  0  0  3  0  0  0  0  0  0
  -27.9110  -25.2920   20.1910 C   0  0  0  0  0  3  0  0  0  0  0  0
  -28.3090  -26.6290   19.7430 O   0  0  0  0  0  0  0  0  0  0  0  0
  -24.7180  -31.7720   23.1240 C   0  0  0  0  0  0  0  0  0  0  0  0
  -27.2440  -27.5100   19.7000 C   0  0  0  0  0  0  0  0  0  0  0  0
  -23.4780  -30.4600   21.4460 C   0  0  0  0  0  3  0  0  0  0  0  0
  -24.8860  -29.0640   19.8580 C   0  0  0  0  0  0  0  0  0  0  0  0
  -26.0010  -30.8410   21.2020 C   0  0  0  0  0  2  0  0  0  0  0  0
  -26.0680  -29.5210   20.4570 C   0  0  0  0  0  0  0  0  0  0  0  0
  -27.2580  -28.7530   20.3720 C   0  0  0  0  0  3  0  0  0  0  0  0
  -26.0640  -27.1230   19.0260 C   0  0  0  0  0  3  0  0  0  0  0  0
  -24.8840  -27.8670   19.1330 C   0  0  0  0  0  3  0  0  0  0  0  0
  -23.6490  -29.9100   20.0090 C   0  0  0  0  0  2  0  0  0  0  0  0
  -24.7490  -31.0400   21.9770 N   0  0  0  0  0  0  0  0  0  0  0  0
  -23.6510  -31.9920   23.7140 O   0  0  0  0  0  0  0  0  0  0  0  0
  -22.8730  -29.3580   22.3530 C   0  0  0  0  0  0  0  0  0  0  0  0
  -21.5500  -29.1500   22.2440 N   0  0  0  0  0  0  0  0  0  0  0  0
  -23.5920  -28.7050   23.1130 O   0  0  0  0  0  0  0  0  0  0  0  0
  -21.0290  -29.7400   21.6120 H   0  0  0  0  0  0  0  0  0  0  0  0
  -18.2190  -27.8340   22.7360 C   0  0  0  0  0  0  0  0  0  0  0  0
  -20.7730  -28.1500   22.9790 C   0  0  0  0  0  3  0  0  0  0  0  0
  -20.9060  -26.7540   22.3300 C   0  0  0  0  0  2  0  0  0  0  0  0
  -19.7950  -26.4520   21.3200 C   0  0  0  0  0  2  0  0  0  0  0  0
  -18.4220  -26.5250   21.9920 C   0  0  0  0  0  2  0  0  0  0  0  0
  -19.3230  -28.6060   23.1860 C   0  0  0  0  0  0  0  0  0  0  0  0
  -19.0790  -29.8320   23.8410 C   0  0  0  0  0  3  0  0  0  0  0  0
  -17.7640  -30.2860   24.0530 C   0  0  0  0  0  3  0  0  0  0  0  0
  -16.6740  -29.5130   23.6180 C   0  0  0  0  0  3  0  0  0  0  0  0
  -16.9030  -28.2890   22.9660 C   0  0  0  0  0  3  0  0  0  0  0  0
  -26.0150  -32.3830   23.7370 C   0  0  0  0  0  3  0  0  0  0  0  0
  -26.5780  -31.5610   24.9610 C   0  0  1  0  0  0  0  0  0  0  0  0
  -25.5180  -31.2640   26.0460 C   0  0  0  0  0  1  0  0  0  0  0  0
  -27.1700  -30.2130   24.4920 C   0  0  0  0  0  1  0  0  0  0  0  0
  -27.7340  -32.3440   25.6270 C   0  0  0  0  0  1  0  0  0  0  0  0
  -25.6980  -33.7620   24.1400 N   0  0  0  0  0  0  0  0  0  0  0  0
  -25.9990  -34.8510   23.4210 C   0  0  0  0  0  0  0  0  0  0  0  0
  -26.6380  -34.8020   22.3660 O   0  0  0  0  0  0  0  0  0  0  0  0
  -25.1240  -33.8750   24.9610 H   0  0  0  0  0  0  0  0  0  0  0  0
  -24.2400  -36.6340   23.2100 C   0  0  0  0  0  1  0  0  0  0  0  0
  -25.5120  -36.2080   23.9600 C   0  0  0  0  0  3  0  0  0  0  0  0
  -27.6580  -37.0820   24.7680 C   0  0  0  0  0  1  0  0  0  0  0  0
  -26.5280  -37.2780   23.8630 N   0  0  0  0  0  0  0  0  0  0  0  0
  -26.1150  -38.1870   24.0610 H   0  0  0  0  0  0  0  0  0  0  0  0
  2  1  1  0
  3  7  1  0
  4  6  1  0
  5  3  1  0
  5  8  1  0
  6 11  1  0
  7  4  1  0
  7  2  1  0
  8  6  1  0
  7  9  1  6
 11 10  1  0
 12 11  1  0
 13 21  1  0
 14 19  1  0
 15 16  1  0
 15 14  1  0
 17 16  1  0
 17 26  1  0
 17 18  1  0
 19 13  1  0
 19 18  1  0
 20 13  2  0
 21 22  1  0
 21 12  1  0
 23 24  2  0
 24 43  1  0
 25 24  1  0
 25 28  1  0
 26 27  1  0
 26 23  1  0
 27 25  2  0
 28 29  1  0
 29 30  2  0
 31 34  1  0
 31 30  1  0
 32 31  2  0
 33 32  1  0
 33 28  2  0
 34 35  1  0
 35 40  2  0
 35 36  1  0
 36 37  2  0
 37 38  1  0
 38 42  1  0
 39 38  2  0
 40 39  1  0
 41 40  1  0
 43 44  1  0
 44 47  1  0
 44 46  1  0
 45 43  2  0
 48 23  1  0
 48 50  1  0
 49 48  1  0
 52 51  1  0
 53 55  1  0
 53 54  1  0
 54  2  1  0
 54 51  1  0
 55 56  1  0
 55 52  1  0
 57 68  2  0
 58 56  1  0
 58 63  1  0
 59 67  1  0
 59 69  1  0
 60 66  1  0
 60 62  1  0
 61 67  1  0
 62 61  1  0
 63 62  2  0
 64 65  1  0
 64 58  2  0
 65 60  2  0
 66 59  1  0
 67 57  1  0
 69 71  2  0
 70 69  1  0
 72 70  1  0
 73 82  2  0
 73 78  1  0
 74 70  1  0
 74 78  1  0
 75 74  1  0
 76 77  1  0
 76 75  1  0
 77 73  1  0
 78 79  2  0
 79 80  1  0
 81 80  2  0
 82 81  1  0
 83 57  1  0
 83 88  1  0
 83 84  1  0
 84 87  1  1
 84 85  1  0
 86 84  1  0
 88 91  1  0
 89 93  1  0
 89 88  1  0
 90 89  2  0
 93 92  1  0
 95 93  1  0
 95 96  1  0
 95 94  1  0
M  ISO  4  13 100  21 100  55 101  56 101
M  END
>  <TORSDO>  (24) 
F 20

>  <SCORE>  (24) 
-11.927

>  <name>  (24) 
23

>  <ligand_id>  (24) 
23

>  <original_smiles>  (24) 
[H]c1c([H])c([H])c2c(c1[H])C([H])([H])C([H])([H])C([H])([H])C2([H])N([H])C(=O)C1([H])N(C(=O)C([H])(N([H])C(=O)C([H])(N([H])C([H])([H])[H])C([H])([H])[H])C(C([H])([H])[H])(C([H])([H])[H])C([H])([H])[H])C([H])([H])c2c([H])c(OC3([H])C([H])([H])C([H])([H])C([H])(C([H])(C([H])([H])[H])[N+]4([H])C([H])([H])C([H])([H])OC([H])(C([H])(C([H])([H])[H])C([H])([H])N([H])C(=O)N5C([H])([H])C([H])([H])C([H])([H])C([H])(n6nc(-c7c([H])c([H])c(Oc8c([H])c([H])c(F)c([H])c8F)c([H])c7[H])c(C(=O)N([H])[H])c6N([H])[H])C5([H])[H])C4([H])[H])C3([H])[H])c([H])c([H])c2C1([H])[H]

>  <smiles>  (24) 
[H]c1c([H])c([H])c2c(c1[H])C([H])([H])C([H])([H])C([H])([H])C2([H])N([H])C(=O)C1([H])N(C(=O)C([H])(N([H])C(=O)C([H])(N([H])C([H])([H])[H])C([H])([H])[H])C(C([H])([H])[H])(C([H])([H])[H])C([H])([H])[H])C([H])([H])c2c([H])c(OC3([H])C([H])([H])C([H])([H])C([H])(C([H])(C([H])([H])[H])[N+]4([H])C([H])([H])C([H])([H])OC([H])(C([H])(C([H])([H])[H])C([H])([H])N([H])C(=O)N5C([H])([H])C([H])([H])C([H])([H])C([H])(n6nc(-c7c([H])c([H])c(Oc8c([H])c([H])c(F)c([H])c8F)c([H])c7[H])c(C(=O)N([H])[H])c6N([H])[H])C5([H])[H])C4([H])[H])C3([H])[H])c([H])c([H])c2C1([H])[H]

$$$$
24:0:0
     RDKit          3D

 96105  0  0  1  0  0  0  0  0999 V2000
  -30.2420  -21.6060   19.0940 C   0  0  0  0  0  2  0  0  0  0  0  0
  -29.1510  -23.7020   18.2200 C   0  0  0  0  0  2  0  0  0  0  0  0
  -29.7760  -23.5260   20.6800 C   0  0  0  0  0  2  0  0  0  0  0  0
  -28.9330  -25.2120   18.3920 C   0  0  0  0  0  2  0  0  0  0  0  0
  -29.5940  -25.0410   20.8190 C   0  0  0  0  0  2  0  0  0  0  0  0
  -30.1640  -23.1300   19.2390 C   0  0  0  0  0  3  0  0  0  0  0  0
  -28.5300  -25.5450   19.8370 C   0  0  0  0  0  3  0  0  0  0  0  0
  -28.4580  -26.9520   19.9930 O   0  0  0  0  0  0  0  0  0  0  0  0
  -24.5720  -31.9450   23.1410 C   0  0  0  0  0  0  0  0  0  0  0  0
  -27.2350  -27.5810   19.9940 C   0  0  0  0  0  0  0  0  0  0  0  0
  -23.3550  -30.5300   21.5140 C   0  0  0  0  0  3  0  0  0  0  0  0
  -24.8040  -29.0180   20.0610 C   0  0  0  0  0  0  0  0  0  0  0  0
  -25.8670  -30.9340   21.2710 C   0  0  0  0  0  2  0  0  0  0  0  0
  -25.9590  -29.5670   20.6290 C   0  0  0  0  0  0  0  0  0  0  0  0
  -27.1730  -28.8530   20.5960 C   0  0  0  0  0  3  0  0  0  0  0  0
  -26.0620  -27.0380   19.4160 C   0  0  0  0  0  3  0  0  0  0  0  0
  -24.8490  -27.7500   19.4560 C   0  0  0  0  0  3  0  0  0  0  0  0
  -23.5480  -29.8530   20.1290 C   0  0  0  0  0  2  0  0  0  0  0  0
  -24.6160  -31.1510   22.0340 N   0  0  0  0  0  0  0  0  0  0  0  0
  -23.4980  -32.2000   23.7010 O   0  0  0  0  0  0  0  0  0  0  0  0
  -22.7370  -29.4970   22.4830 C   0  0  0  0  0  0  0  0  0  0  0  0
  -21.4120  -29.3060   22.3840 N   0  0  0  0  0  0  0  0  0  0  0  0
  -23.4450  -28.8710   23.2760 O   0  0  0  0  0  0  0  0  0  0  0  0
  -20.9020  -29.8650   21.7150 H   0  0  0  0  0  0  0  0  0  0  0  0
  -18.0600  -28.0830   22.9400 C   0  0  0  0  0  0  0  0  0  0  0  0
  -20.6200  -28.3570   23.1660 C   0  0  0  0  0  3  0  0  0  0  0  0
  -20.7240  -26.9310   22.5790 C   0  0  0  0  0  2  0  0  0  0  0  0
  -19.6050  -26.6060   21.5850 C   0  0  0  0  0  2  0  0  0  0  0  0
  -18.2340  -26.7370   22.2550 C   0  0  0  0  0  2  0  0  0  0  0  0
  -19.1810  -28.8510   23.3540 C   0  0  0  0  0  0  0  0  0  0  0  0
  -18.9650  -30.1110   23.9520 C   0  0  0  0  0  3  0  0  0  0  0  0
  -17.6610  -30.6040   24.1440 C   0  0  0  0  0  3  0  0  0  0  0  0
  -16.5550  -29.8320   23.7480 C   0  0  0  0  0  3  0  0  0  0  0  0
  -16.7550  -28.5740   23.1520 C   0  0  0  0  0  3  0  0  0  0  0  0
  -25.8620  -32.5890   23.7390 C   0  0  0  0  0  3  0  0  0  0  0  0
  -26.4380  -31.7940   24.9760 C   0  0  1  0  0  0  0  0  0  0  0  0
  -25.3870  -31.5000   26.0710 C   0  0  0  0  0  1  0  0  0  0  0  0
  -27.0400  -30.4440   24.5220 C   0  0  0  0  0  1  0  0  0  0  0  0
  -27.5910  -32.5970   25.6240 C   0  0  0  0  0  1  0  0  0  0  0  0
  -25.5330  -33.9700   24.1150 N   0  0  0  0  0  0  0  0  0  0  0  0
  -25.8380  -35.0490   23.3820 C   0  0  0  0  0  0  0  0  0  0  0  0
  -26.4980  -34.9880   22.3410 O   0  0  0  0  0  0  0  0  0  0  0  0
  -24.9440  -34.0900   24.9260 H   0  0  0  0  0  0  0  0  0  0  0  0
  -24.0760  -36.8190   23.0890 C   0  0  0  0  0  1  0  0  0  0  0  0
  -25.3270  -36.4130   23.8830 C   0  0  0  0  0  3  0  0  0  0  0  0
  -27.4530  -37.3050   24.7290 C   0  0  0  0  0  1  0  0  0  0  0  0
  -26.3410  -37.4880   23.8010 N   0  0  0  0  0  0  0  0  0  0  0  0
  -25.9200  -38.3940   23.9850 H   0  0  0  0  0  0  0  0  0  0  0  0
  -31.0470  -21.0420   20.1260 O   0  0  0  0  0  0  0  0  0  0  0  0
  -30.9030  -17.9190   22.0720 C   0  0  0  0  0  3  0  0  0  0  0  0
  -31.1490  -19.2560   21.7090 C   0  0  0  0  0  3  0  0  0  0  0  0
  -30.2920  -18.8030   19.4820 C   0  0  0  0  0  3  0  0  0  0  0  0
  -30.0360  -17.4610   19.8250 C   0  0  0  0  0  0  0  0  0  0  0  0
  -30.3500  -17.0150   21.1400 C   0  0  0  0  0  0  0  0  0  0  0  0
  -30.8300  -19.7150   20.4170 C   0  0  0  0  0  0  0  0  0  0  0  0
  -30.8940  -14.6540   21.2390 C   0  0  0  0  0  0  0  0  0  0  0  0
  -30.7690  -12.4100   20.2540 C   0  0  0  0  0  2  0  0  0  0  0  0
  -29.9770  -12.4970   18.9330 C   0  0  0  0  0  2  0  0  0  0  0  0
  -28.4630  -12.3650   19.1910 C   0  0  0  0  0  2  0  0  0  0  0  0
  -27.9550  -13.2780   20.3400 C   0  0  0  0  0  3  0  0  0  0  0  0
  -28.8780  -13.1750   21.5770 C   0  0  0  0  0  2  0  0  0  0  0  0
  -30.2600  -13.4570   21.1490 N   0  0  0  0  0  0  0  0  0  0  0  0
  -32.0680  -14.8300   20.9000 O   0  0  0  0  0  0  0  0  0  0  0  0
  -30.1050  -15.6850   21.5620 N   0  0  0  0  0  0  0  0  0  0  0  0
  -29.1630  -15.4590   21.8450 H   0  0  0  0  0  0  0  0  0  0  0  0
  -25.4880  -13.8730   20.7620 C   0  0  0  0  0  0  0  0  0  0  0  0
  -24.3940  -13.0950   21.0280 C   0  0  0  0  0  0  0  0  0  0  0  0
  -24.8710  -11.7500   21.0820 C   0  0  0  0  0  0  0  0  0  0  0  0
  -26.5610  -13.0000   20.6720 N   0  0  0  0  0  0  0  0  0  0  0  0
  -26.1870  -11.7200   20.9200 N   0  0  0  0  0  0  0  0  0  0  0  0
  -24.1440  -10.4830   21.2220 C   0  0  0  0  0  0  0  0  0  0  0  0
  -24.5060   -9.5300   22.1990 C   0  0  0  0  0  3  0  0  0  0  0  0
  -23.7810   -8.3260   22.3270 C   0  0  0  0  0  3  0  0  0  0  0  0
  -22.6810   -8.0680   21.4760 C   0  0  0  0  0  0  0  0  0  0  0  0
  -22.3390   -9.0100   20.4910 C   0  0  0  0  0  3  0  0  0  0  0  0
  -23.0650  -10.2060   20.3610 C   0  0  0  0  0  3  0  0  0  0  0  0
  -21.9330   -6.9150   21.5100 O   0  0  0  0  0  0  0  0  0  0  0  0
  -21.8130   -6.1710   22.6570 C   0  0  0  0  0  0  0  0  0  0  0  0
  -21.3070   -6.7230   23.8530 C   0  0  0  0  0  3  0  0  0  0  0  0
  -21.1340   -5.9050   24.9880 C   0  0  0  0  0  3  0  0  0  0  0  0
  -21.4560   -4.5350   24.9250 C   0  0  0  0  0  0  0  0  0  0  0  0
  -21.9550   -3.9830   23.7320 C   0  0  0  0  0  3  0  0  0  0  0  0
  -22.1300   -4.7990   22.6000 C   0  0  0  0  0  0  0  0  0  0  0  0
  -22.5910   -4.2580   21.4470 F   0  0  0  0  0  0  0  0  0  0  0  0
  -21.2820   -3.7480   26.0120 F   0  0  0  0  0  0  0  0  0  0  0  0
  -22.9700  -13.5590   21.1350 C   0  0  0  0  0  0  0  0  0  0  0  0
  -22.1630  -12.8790   21.9410 N   0  0  0  0  0  0  0  0  0  0  0  0
  -22.5770  -14.5610   20.5370 O   0  0  0  0  0  0  0  0  0  0  0  0
  -22.4900  -12.0700   22.4460 H   0  0  0  0  0  0  0  0  0  0  0  0
  -21.2030  -13.1740   22.0550 H   0  0  0  0  0  0  0  0  0  0  0  0
  -25.6530  -15.2420   20.5740 N   0  0  0  0  0  0  0  0  0  0  0  0
  -24.8700  -15.8860   20.5830 H   0  0  0  0  0  0  0  0  0  0  0  0
  -26.5320  -15.6890   20.3480 H   0  0  0  0  0  0  0  0  0  0  0  0
  -30.3160  -16.4420   17.5110 C   0  0  0  0  0  1  0  0  0  0  0  0
  -27.9990  -17.0210   18.3830 C   0  0  0  0  0  1  0  0  0  0  0  0
  -29.4190  -16.5620   18.7520 C   0  0  0  0  0  3  0  0  0  0  0  0
  1 49  1  0
  2  4  1  0
  2  6  1  0
  3  5  1  0
  4  7  1  0
  6  1  1  0
  6  3  1  0
  7  8  1  0
  7  5  1  0
  8 10  1  0
  9 20  2  0
 10 15  1  0
 11 19  1  0
 11 21  1  0
 12 18  1  0
 12 14  1  0
 13 19  1  0
 14 13  1  0
 15 14  2  0
 16 17  1  0
 16 10  2  0
 17 12  2  0
 18 11  1  0
 19  9  1  0
 21 23  2  0
 22 21  1  0
 24 22  1  0
 25 34  2  0
 25 30  1  0
 26 22  1  0
 26 30  1  0
 27 26  1  0
 28 29  1  0
 28 27  1  0
 29 25  1  0
 30 31  2  0
 31 32  1  0
 33 32  2  0
 34 33  1  0
 35  9  1  0
 35 40  1  0
 35 36  1  0
 36 39  1  1
 36 37  1  0
 38 36  1  0
 40 43  1  0
 41 45  1  0
 41 40  1  0
 42 41  2  0
 45 44  1  0
 47 45  1  0
 47 48  1  0
 47 46  1  0
 49 55  1  0
 51 50  1  0
 52 53  2  0
 52 55  1  0
 53 54  1  0
 54 64  1  0
 54 50  2  0
 55 51  2  0
 56 64  1  0
 57 62  1  0
 58 59  1  0
 58 57  1  0
 60 59  1  0
 60 69  1  0
 60 61  1  0
 62 56  1  0
 62 61  1  0
 63 56  2  0
 64 65  1  0
 66 67  2  0
 67 68  1  0
 67 86  1  0
 68 71  1  0
 69 66  1  0
 69 70  1  0
 70 68  2  0
 71 72  1  0
 72 73  2  0
 74 77  1  0
 74 73  1  0
 75 74  2  0
 76 75  1  0
 76 71  2  0
 77 78  1  0
 78 79  1  0
 79 80  2  0
 81 80  1  0
 81 85  1  0
 82 81  2  0
 83 78  2  0
 83 82  1  0
 84 83  1  0
 86 87  1  0
 87 90  1  0
 87 89  1  0
 88 86  2  0
 91 92  1  0
 91 66  1  0
 93 91  1  0
 94 96  1  0
 95 96  1  0
 96 53  1  0
M  ISO  4   7 101   8 101  56 100  64 100
M  END
>  <TORSDO>  (25) 
F 20

>  <SCORE>  (25) 
-12.343

>  <name>  (25) 
24

>  <ligand_id>  (25) 
24

>  <original_smiles>  (25) 
[H]c1c([H])c([H])c2c(c1[H])C([H])([H])C([H])([H])C([H])([H])C2([H])N([H])C(=O)C1([H])N(C(=O)C([H])(N([H])C(=O)C([H])(N([H])C([H])([H])[H])C([H])([H])[H])C(C([H])([H])[H])(C([H])([H])[H])C([H])([H])[H])C([H])([H])c2c([H])c(OC3([H])C([H])([H])C([H])([H])C([H])(C([H])([H])Oc4c([H])c([H])c(N([H])C(=O)N5C([H])([H])C([H])([H])C([H])([H])C([H])(n6nc(-c7c([H])c([H])c(Oc8c([H])c([H])c(F)c([H])c8F)c([H])c7[H])c(C(=O)N([H])[H])c6N([H])[H])C5([H])[H])c(C([H])(C([H])([H])[H])C([H])([H])[H])c4[H])C([H])([H])C3([H])[H])c([H])c([H])c2C1([H])[H]

>  <smiles>  (25) 
[H]c1c([H])c([H])c2c(c1[H])C([H])([H])C([H])([H])C([H])([H])C2([H])N([H])C(=O)C1([H])N(C(=O)C([H])(N([H])C(=O)C([H])(N([H])C([H])([H])[H])C([H])([H])[H])C(C([H])([H])[H])(C([H])([H])[H])C([H])([H])[H])C([H])([H])c2c([H])c(OC3([H])C([H])([H])C([H])([H])C([H])(C([H])([H])Oc4c([H])c([H])c(N([H])C(=O)N5C([H])([H])C([H])([H])C([H])([H])C([H])(n6nc(-c7c([H])c([H])c(Oc8c([H])c([H])c(F)c([H])c8F)c([H])c7[H])c(C(=O)N([H])[H])c6N([H])[H])C5([H])[H])c(C([H])(C([H])([H])[H])C([H])([H])[H])c4[H])C([H])([H])C3([H])[H])c([H])c([H])c2C1([H])[H]

$$$$
25:0:0
     RDKit          3D

103112  0  0  1  0  0  0  0  0999 V2000
  -26.2580  -21.3190   18.3510 C   0  0  0  0  0  2  0  0  0  0  0  0
  -28.1920  -21.5950   16.6700 C   0  0  0  0  0  2  0  0  0  0  0  0
  -26.9020  -22.3600   19.3050 C   0  0  0  0  0  2  0  0  0  0  0  0
  -28.2360  -23.0210   17.2830 C   0  0  0  0  0  2  0  0  0  0  0  0
  -27.2300  -20.5890   17.3820 C   0  0  0  0  0  3  0  0  0  0  0  0
  -28.2650  -22.9250   18.8240 C   0  0  0  0  0  3  0  0  0  0  0  0
  -27.9160  -19.3610   17.9190 N   0  0  0  0  0  4  0  0  0  0  0  0
  -27.2570  -18.6020   17.8510 H   0  0  0  0  0  0  0  0  0  0  0  0
  -28.6890  -19.0890   17.3310 H   0  0  0  0  0  0  0  0  0  0  0  0
  -28.3690  -19.3720   19.3320 C   0  0  0  0  0  2  0  0  0  0  0  0
  -32.0480  -18.3530   19.8100 C   0  0  0  0  0  3  0  0  0  0  0  0
  -29.4890  -17.2500   20.1360 C   0  0  0  0  0  3  0  0  0  0  0  0
  -30.9220  -19.0830   19.3890 C   0  0  0  0  0  0  0  0  0  0  0  0
  -31.9140  -17.0720   20.3840 C   0  0  0  0  0  0  0  0  0  0  0  0
  -29.6240  -18.5460   19.5930 C   0  0  0  0  0  0  0  0  0  0  0  0
  -30.6250  -16.4860   20.4720 C   0  0  0  0  0  0  0  0  0  0  0  0
  -31.1530  -20.4420   18.7420 C   0  0  0  0  0  1  0  0  0  0  0  0
  -33.1740  -16.3550   20.8460 C   0  0  0  0  0  1  0  0  0  0  0  0
  -30.8070  -14.1660   19.9420 C   0  0  0  0  0  0  0  0  0  0  0  0
  -30.2390  -12.0860   18.7740 C   0  0  0  0  0  2  0  0  0  0  0  0
  -29.2230  -12.4070   17.6630 C   0  0  0  0  0  2  0  0  0  0  0  0
  -27.7860  -12.3080   18.2130 C   0  0  0  0  0  2  0  0  0  0  0  0
  -27.5940  -13.1110   19.5300 C   0  0  0  0  0  3  0  0  0  0  0  0
  -28.7380  -12.8250   20.5320 C   0  0  0  0  0  2  0  0  0  0  0  0
  -30.0300  -13.0520   19.8650 N   0  0  0  0  0  0  0  0  0  0  0  0
  -31.7970  -14.3190   19.2270 O   0  0  0  0  0  0  0  0  0  0  0  0
  -30.4320  -15.1170   20.8060 N   0  0  0  0  0  0  0  0  0  0  0  0
  -29.6520  -14.8840   21.3990 H   0  0  0  0  0  0  0  0  0  0  0  0
  -25.3040  -13.7480   20.5120 C   0  0  0  0  0  0  0  0  0  0  0  0
  -24.2490  -12.9870   20.9470 C   0  0  0  0  0  0  0  0  0  0  0  0
  -24.6510  -11.6270   20.7850 C   0  0  0  0  0  0  0  0  0  0  0  0
  -26.2840  -12.8470   20.1250 N   0  0  0  0  0  0  0  0  0  0  0  0
  -25.8980  -11.5660   20.3400 N   0  0  0  0  0  0  0  0  0  0  0  0
  -23.9010  -10.3780   20.9760 C   0  0  0  0  0  0  0  0  0  0  0  0
  -24.3440   -9.3760   21.8650 C   0  0  0  0  0  3  0  0  0  0  0  0
  -23.5930   -8.1940   22.0450 C   0  0  0  0  0  3  0  0  0  0  0  0
  -22.3840   -8.0080   21.3390 C   0  0  0  0  0  0  0  0  0  0  0  0
  -21.9570   -8.9970   20.4370 C   0  0  0  0  0  3  0  0  0  0  0  0
  -22.7090  -10.1690   20.2540 C   0  0  0  0  0  3  0  0  0  0  0  0
  -21.5990   -6.8810   21.4350 O   0  0  0  0  0  0  0  0  0  0  0  0
  -21.5440   -6.1360   22.5850 C   0  0  0  0  0  0  0  0  0  0  0  0
  -21.1010   -6.6850   23.8100 C   0  0  0  0  0  3  0  0  0  0  0  0
  -20.9940   -5.8640   24.9500 C   0  0  0  0  0  3  0  0  0  0  0  0
  -21.3200   -4.4970   24.8680 C   0  0  0  0  0  0  0  0  0  0  0  0
  -21.7580   -3.9480   23.6490 C   0  0  0  0  0  3  0  0  0  0  0  0
  -21.8650   -4.7660   22.5100 C   0  0  0  0  0  0  0  0  0  0  0  0
  -22.2660   -4.2280   21.3330 F   0  0  0  0  0  0  0  0  0  0  0  0
  -21.2080   -3.7060   25.9610 F   0  0  0  0  0  0  0  0  0  0  0  0
  -22.9090  -13.4910   21.3960 C   0  0  0  0  0  0  0  0  0  0  0  0
  -22.2510  -12.7650   22.2930 N   0  0  0  0  0  0  0  0  0  0  0  0
  -22.4590  -14.5590   20.9830 O   0  0  0  0  0  0  0  0  0  0  0  0
  -22.6300  -11.9000   22.6490 H   0  0  0  0  0  0  0  0  0  0  0  0
  -21.3490  -13.0770   22.6250 H   0  0  0  0  0  0  0  0  0  0  0  0
  -25.5070  -15.1200   20.3950 N   0  0  0  0  0  0  0  0  0  0  0  0
  -24.7900  -15.8050   20.6150 H   0  0  0  0  0  0  0  0  0  0  0  0
  -26.3570  -15.5380   20.0340 H   0  0  0  0  0  0  0  0  0  0  0  0
  -28.6910  -24.1700   19.5280 N   0  0  0  0  0  4  0  0  0  0  0  0
  -28.2290  -24.9710   19.1220 H   0  0  0  0  0  0  0  0  0  0  0  0
  -29.6760  -24.3170   19.3550 H   0  0  0  0  0  0  0  0  0  0  0  0
  -29.2850  -23.1830   21.7830 C   0  0  0  0  0  1  0  0  0  0  0  0
  -28.4590  -24.2320   21.0100 C   0  0  0  0  0  3  0  0  0  0  0  0
  -28.7520  -25.6430   21.5590 C   0  0  0  0  0  2  0  0  0  0  0  0
  -28.5490  -26.5840   20.5190 O   0  0  0  0  0  0  0  0  0  0  0  0
  -24.5520  -31.7460   23.3270 C   0  0  0  0  0  0  0  0  0  0  0  0
  -27.3520  -27.2460   20.5480 C   0  0  0  0  0  0  0  0  0  0  0  0
  -23.4320  -30.3070   21.6510 C   0  0  0  0  0  3  0  0  0  0  0  0
  -24.9590  -28.7090   20.3800 C   0  0  0  0  0  0  0  0  0  0  0  0
  -25.9630  -30.6540   21.5940 C   0  0  0  0  0  2  0  0  0  0  0  0
  -26.0760  -29.2620   21.0220 C   0  0  0  0  0  0  0  0  0  0  0  0
  -27.2770  -28.5360   21.1050 C   0  0  0  0  0  3  0  0  0  0  0  0
  -26.2190  -26.6800   19.9280 C   0  0  0  0  0  3  0  0  0  0  0  0
  -25.0180  -27.4090   19.8460 C   0  0  0  0  0  3  0  0  0  0  0  0
  -23.7210  -29.5730   20.3150 C   0  0  0  0  0  2  0  0  0  0  0  0
  -24.6630  -30.9180   22.2520 N   0  0  0  0  0  0  0  0  0  0  0  0
  -23.4430  -32.0460   23.7940 O   0  0  0  0  0  0  0  0  0  0  0  0
  -22.7170  -29.3220   22.6000 C   0  0  0  0  0  0  0  0  0  0  0  0
  -21.3960  -29.1790   22.4190 N   0  0  0  0  0  0  0  0  0  0  0  0
  -23.3480  -28.6900   23.4520 O   0  0  0  0  0  0  0  0  0  0  0  0
  -20.9530  -29.7360   21.7030 H   0  0  0  0  0  0  0  0  0  0  0  0
  -17.9630  -28.1290   22.8170 C   0  0  0  0  0  0  0  0  0  0  0  0
  -20.5200  -28.2760   23.1620 C   0  0  0  0  0  3  0  0  0  0  0  0
  -20.5760  -26.8420   22.5840 C   0  0  0  0  0  2  0  0  0  0  0  0
  -19.4910  -26.5670   21.5380 C   0  0  0  0  0  2  0  0  0  0  0  0
  -18.1010  -26.7730   22.1430 C   0  0  0  0  0  2  0  0  0  0  0  0
  -19.1010  -28.8410   23.2800 C   0  0  0  0  0  0  0  0  0  0  0  0
  -18.9210  -30.1120   23.8680 C   0  0  0  0  0  3  0  0  0  0  0  0
  -17.6370  -30.6700   23.9970 C   0  0  0  0  0  3  0  0  0  0  0  0
  -16.5120  -29.9560   23.5460 C   0  0  0  0  0  3  0  0  0  0  0  0
  -16.6780  -28.6870   22.9640 C   0  0  0  0  0  3  0  0  0  0  0  0
  -25.8070  -32.3770   24.0080 C   0  0  0  0  0  3  0  0  0  0  0  0
  -25.4950  -33.7840   24.2920 N   0  0  0  0  0  0  0  0  0  0  0  0
  -25.8680  -34.8130   23.5190 C   0  0  0  0  0  0  0  0  0  0  0  0
  -26.5790  -34.6770   22.5180 O   0  0  0  0  0  0  0  0  0  0  0  0
  -24.8700  -33.9660   25.0650 H   0  0  0  0  0  0  0  0  0  0  0  0
  -24.1540  -36.5950   23.0520 C   0  0  0  0  0  1  0  0  0  0  0  0
  -25.3710  -36.2180   23.9140 C   0  0  0  0  0  3  0  0  0  0  0  0
  -27.4770  -37.1280   24.7860 C   0  0  0  0  0  1  0  0  0  0  0  0
  -26.4110  -37.2620   23.7970 N   0  0  0  0  0  0  0  0  0  0  0  0
  -26.0050  -38.1890   23.8860 H   0  0  0  0  0  0  0  0  0  0  0  0
  -26.2440  -31.6270   25.3260 C   0  0  1  0  0  0  0  0  0  0  0  0
  -25.0860  -31.4140   26.3290 C   0  0  0  0  0  1  0  0  0  0  0  0
  -26.8460  -30.2420   24.9940 C   0  0  0  0  0  1  0  0  0  0  0  0
  -27.3590  -32.4300   26.0400 C   0  0  0  0  0  1  0  0  0  0  0  0
  1  3  1  0
  2  4  1  0
  2  5  1  0
  4  6  1  0
  5  7  1  0
  5  1  1  0
  6  3  1  0
  6 57  1  0
  7 10  1  0
  8  7  1  0
  9  7  1  0
 10 15  1  0
 11 14  1  0
 12 16  1  0
 13 15  1  0
 13 11  2  0
 14 16  2  0
 14 18  1  0
 15 12  2  0
 16 27  1  0
 17 13  1  0
 19 27  1  0
 20 25  1  0
 21 22  1  0
 21 20  1  0
 23 22  1  0
 23 32  1  0
 23 24  1  0
 25 19  1  0
 25 24  1  0
 26 19  2  0
 27 28  1  0
 29 30  2  0
 30 49  1  0
 31 30  1  0
 31 34  1  0
 32 33  1  0
 32 29  1  0
 33 31  2  0
 34 35  1  0
 35 36  2  0
 37 40  1  0
 37 36  1  0
 38 37  2  0
 39 38  1  0
 39 34  2  0
 40 41  1  0
 41 42  1  0
 42 43  2  0
 44 43  1  0
 44 48  1  0
 45 44  2  0
 46 41  2  0
 46 45  1  0
 47 46  1  0
 49 50  1  0
 50 53  1  0
 50 52  1  0
 51 49  2  0
 54 29  1  0
 54 55  1  0
 56 54  1  0
 57 61  1  0
 58 57  1  0
 59 57  1  0
 61 62  1  0
 61 60  1  0
 63 65  1  0
 63 62  1  0
 64 75  2  0
 65 70  1  0
 66 74  1  0
 66 76  1  0
 67 69  1  0
 68 74  1  0
 69 70  2  0
 69 68  1  0
 71 65  2  0
 72 71  1  0
 72 67  2  0
 73 67  1  0
 73 66  1  0
 74 64  1  0
 76 78  2  0
 77 76  1  0
 79 77  1  0
 80 89  2  0
 80 85  1  0
 81 77  1  0
 81 85  1  0
 82 81  1  0
 83 84  1  0
 83 82  1  0
 84 80  1  0
 85 86  2  0
 86 87  1  0
 88 87  2  0
 89 88  1  0
 90 64  1  0
 90 91  1  0
 90100  1  0
 91 94  1  0
 92 96  1  0
 92 91  1  0
 93 92  2  0
 96 95  1  0
 98 99  1  0
 98 96  1  0
 98 97  1  0
100103  1  1
100101  1  0
102100  1  0
M  ISO  4  19 100  27 100  62 101  63 101
M  END
>  <TORSDO>  (26) 
F 22

>  <SCORE>  (26) 
-11.185

>  <name>  (26) 
25

>  <ligand_id>  (26) 
25

>  <original_smiles>  (26) 
[H]c1c([H])c([H])c2c(c1[H])C([H])([H])C([H])([H])C([H])([H])C2([H])N([H])C(=O)C1([H])N(C(=O)C([H])(N([H])C(=O)C([H])(N([H])C([H])([H])[H])C([H])([H])[H])C(C([H])([H])[H])(C([H])([H])[H])C([H])([H])[H])C([H])([H])c2c([H])c(OC([H])([H])C([H])(C([H])([H])[H])[N+]([H])([H])C3([H])C([H])([H])C([H])([H])C([H])([N+]([H])([H])C([H])([H])c4c([H])c(N([H])C(=O)N5C([H])([H])C([H])([H])C([H])([H])C([H])(n6nc(-c7c([H])c([H])c(Oc8c([H])c([H])c(F)c([H])c8F)c([H])c7[H])c(C(=O)N([H])[H])c6N([H])[H])C5([H])[H])c(C([H])([H])[H])c([H])c4C([H])([H])[H])C([H])([H])C3([H])[H])c([H])c([H])c2C1([H])[H]

>  <smiles>  (26) 
[H]c1c([H])c([H])c2c(c1[H])C([H])([H])C([H])([H])C([H])([H])C2([H])N([H])C(=O)C1([H])N(C(=O)C([H])(N([H])C(=O)C([H])(N([H])C([H])([H])[H])C([H])([H])[H])C(C([H])([H])[H])(C([H])([H])[H])C([H])([H])[H])C([H])([H])c2c([H])c(OC([H])([H])C([H])(C([H])([H])[H])[N+]([H])([H])C3([H])C([H])([H])C([H])([H])C([H])([N+]([H])([H])C([H])([H])c4c([H])c(N([H])C(=O)N5C([H])([H])C([H])([H])C([H])([H])C([H])(n6nc(-c7c([H])c([H])c(Oc8c([H])c([H])c(F)c([H])c8F)c([H])c7[H])c(C(=O)N([H])[H])c6N([H])[H])C5([H])[H])c(C([H])([H])[H])c([H])c4C([H])([H])[H])C([H])([H])C3([H])[H])c([H])c([H])c2C1([H])[H]

$$$$
26:0:0
     RDKit          3D

 98107  0  0  1  0  0  0  0  0999 V2000
  -28.9870  -22.1230   20.0360 C   0  0  0  0  0  3  0  0  0  0  0  0
  -31.4830  -21.0030   20.2360 C   0  0  0  0  0  3  0  0  0  0  0  0
  -29.1390  -20.7720   19.6670 C   0  0  0  0  0  0  0  0  0  0  0  0
  -30.4250  -20.1990   19.7740 C   0  0  0  0  0  0  0  0  0  0  0  0
  -30.1100  -22.8420   20.4840 C   0  0  0  0  0  0  0  0  0  0  0  0
  -31.3330  -22.2980   20.5820 N   0  0  0  0  0  0  0  0  0  0  0  0
  -30.0470  -24.1820   20.8420 N   0  0  0  0  0  0  0  0  0  0  0  0
  -30.9090  -24.6020   21.1710 H   0  0  0  0  0  0  0  0  0  0  0  0
  -28.8190  -24.6820   21.4440 C   0  0  0  0  0  2  0  0  0  0  0  0
  -28.8990  -26.1940   21.6530 C   0  0  0  0  0  2  0  0  0  0  0  0
  -28.5840  -26.7940   20.4030 O   0  0  0  0  0  0  0  0  0  0  0  0
  -24.6080  -31.8990   23.3320 C   0  0  0  0  0  0  0  0  0  0  0  0
  -27.4050  -27.4880   20.3980 C   0  0  0  0  0  0  0  0  0  0  0  0
  -23.4650  -30.4590   21.6700 C   0  0  0  0  0  3  0  0  0  0  0  0
  -24.9820  -28.9170   20.3190 C   0  0  0  0  0  0  0  0  0  0  0  0
  -25.9840  -30.8550   21.5440 C   0  0  0  0  0  2  0  0  0  0  0  0
  -26.1070  -29.4770   20.9370 C   0  0  0  0  0  0  0  0  0  0  0  0
  -27.3200  -28.7660   20.9850 C   0  0  0  0  0  3  0  0  0  0  0  0
  -26.2740  -26.9260   19.7760 C   0  0  0  0  0  3  0  0  0  0  0  0
  -25.0560  -27.6340   19.7420 C   0  0  0  0  0  3  0  0  0  0  0  0
  -23.7240  -29.7560   20.3100 C   0  0  0  0  0  2  0  0  0  0  0  0
  -24.7010  -31.0860   22.2420 N   0  0  0  0  0  0  0  0  0  0  0  0
  -23.5080  -32.1670   23.8360 O   0  0  0  0  0  0  0  0  0  0  0  0
  -22.7960  -29.4470   22.6260 C   0  0  0  0  0  0  0  0  0  0  0  0
  -21.4880  -29.2140   22.4290 N   0  0  0  0  0  0  0  0  0  0  0  0
  -23.4530  -28.8700   23.4980 O   0  0  0  0  0  0  0  0  0  0  0  0
  -21.0220  -29.7320   21.6970 H   0  0  0  0  0  0  0  0  0  0  0  0
  -18.1330  -27.9250   22.7630 C   0  0  0  0  0  0  0  0  0  0  0  0
  -20.6590  -28.2740   23.1790 C   0  0  0  0  0  3  0  0  0  0  0  0
  -20.8420  -26.8310   22.6540 C   0  0  0  0  0  2  0  0  0  0  0  0
  -19.8150  -26.4420   21.5870 C   0  0  0  0  0  2  0  0  0  0  0  0
  -18.3920  -26.5620   22.1430 C   0  0  0  0  0  2  0  0  0  0  0  0
  -19.1990  -28.7350   23.2350 C   0  0  0  0  0  0  0  0  0  0  0  0
  -18.9070  -30.0090   23.7680 C   0  0  0  0  0  3  0  0  0  0  0  0
  -17.5800  -30.4730   23.8370 C   0  0  0  0  0  3  0  0  0  0  0  0
  -16.5270  -29.6600   23.3850 C   0  0  0  0  0  3  0  0  0  0  0  0
  -16.8040  -28.3880   22.8530 C   0  0  0  0  0  3  0  0  0  0  0  0
  -25.8700  -32.5470   23.9820 C   0  0  0  0  0  3  0  0  0  0  0  0
  -25.5550  -33.9560   24.2500 N   0  0  0  0  0  0  0  0  0  0  0  0
  -25.9220  -34.9790   23.4670 C   0  0  0  0  0  0  0  0  0  0  0  0
  -26.6330  -34.8370   22.4670 O   0  0  0  0  0  0  0  0  0  0  0  0
  -24.9290  -34.1410   25.0210 H   0  0  0  0  0  0  0  0  0  0  0  0
  -24.2100  -36.7550   22.9780 C   0  0  0  0  0  1  0  0  0  0  0  0
  -25.4190  -36.3840   23.8520 C   0  0  0  0  0  3  0  0  0  0  0  0
  -27.5180  -37.3020   24.7330 C   0  0  0  0  0  1  0  0  0  0  0  0
  -26.4560  -37.4320   23.7400 N   0  0  0  0  0  0  0  0  0  0  0  0
  -26.0440  -38.3560   23.8350 H   0  0  0  0  0  0  0  0  0  0  0  0
  -26.3380  -31.8170   25.3000 C   0  0  1  0  0  0  0  0  0  0  0  0
  -25.1910  -31.5510   26.3030 C   0  0  0  0  0  1  0  0  0  0  0  0
  -26.9980  -30.4580   24.9650 C   0  0  0  0  0  1  0  0  0  0  0  0
  -27.4150  -32.6650   26.0170 C   0  0  0  0  0  1  0  0  0  0  0  0
  -27.9410  -19.9750   19.1580 C   0  0  0  0  0  3  0  0  0  0  0  0
  -28.6780  -19.3710   16.6990 C   0  0  0  0  0  2  0  0  0  0  0  0
  -27.2250  -18.9880   16.8160 C   0  0  0  0  0  2  0  0  0  0  0  0
  -27.7750  -20.1230   17.6550 C   0  0  0  0  0  3  0  0  0  0  0  0
  -26.7260  -20.3720   19.7710 O   0  0  0  0  0  0  0  0  0  0  0  0
  -26.8620  -20.3090   20.7110 H   0  0  0  0  0  0  0  0  0  0  0  0
  -30.6620  -18.9190   19.3620 O   0  0  0  0  0  0  0  0  0  0  0  0
  -30.9190  -17.9800   20.3950 C   0  0  0  0  0  2  0  0  0  0  0  0
  -30.3790  -16.6810   19.8050 C   0  0  0  0  0  2  0  0  0  0  0  0
  -31.2940  -14.4750   20.1870 C   0  0  0  0  0  0  0  0  0  0  0  0
  -30.8410  -12.4330   18.9170 C   0  0  0  0  0  2  0  0  0  0  0  0
  -29.8710  -12.8250   17.7810 C   0  0  0  0  0  2  0  0  0  0  0  0
  -28.4060  -12.7430   18.2590 C   0  0  0  0  0  2  0  0  0  0  0  0
  -28.1740  -13.4780   19.6070 C   0  0  0  0  0  3  0  0  0  0  0  0
  -29.2540  -13.0830   20.6450 C   0  0  0  0  0  2  0  0  0  0  0  0
  -30.5820  -13.3300   20.0520 N   0  0  0  0  0  0  0  0  0  0  0  0
  -32.4020  -14.6700   19.6810 O   0  0  0  0  0  0  0  0  0  0  0  0
  -30.5620  -15.4950   20.6350 N   0  0  0  0  0  0  0  0  0  0  0  0
  -29.7400  -15.2120   21.1470 H   0  0  0  0  0  0  0  0  0  0  0  0
  -25.8370  -14.1670   20.4450 C   0  0  0  0  0  0  0  0  0  0  0  0
  -24.7440  -13.4270   20.8100 C   0  0  0  0  0  0  0  0  0  0  0  0
  -25.1310  -12.0580   20.6720 C   0  0  0  0  0  0  0  0  0  0  0  0
  -26.8240  -13.2490   20.1180 N   0  0  0  0  0  0  0  0  0  0  0  0
  -26.4030  -11.9740   20.3090 N   0  0  0  0  0  0  0  0  0  0  0  0
  -24.3450  -10.8250   20.8110 C   0  0  0  0  0  0  0  0  0  0  0  0
  -24.7260   -9.8070   21.7130 C   0  0  0  0  0  3  0  0  0  0  0  0
  -23.9460   -8.6370   21.8410 C   0  0  0  0  0  3  0  0  0  0  0  0
  -22.7700   -8.4780   21.0680 C   0  0  0  0  0  0  0  0  0  0  0  0
  -22.4110   -9.4860   20.1560 C   0  0  0  0  0  3  0  0  0  0  0  0
  -23.1910  -10.6460   20.0250 C   0  0  0  0  0  3  0  0  0  0  0  0
  -21.9670   -7.3650   21.1050 O   0  0  0  0  0  0  0  0  0  0  0  0
  -21.8040   -6.6340   22.2550 C   0  0  0  0  0  0  0  0  0  0  0  0
  -21.2860   -7.2090   23.4360 C   0  0  0  0  0  3  0  0  0  0  0  0
  -21.0710   -6.4060   24.5740 C   0  0  0  0  0  3  0  0  0  0  0  0
  -21.3630   -5.0300   24.5310 C   0  0  0  0  0  0  0  0  0  0  0  0
  -21.8730   -4.4550   23.3540 C   0  0  0  0  0  3  0  0  0  0  0  0
  -22.0910   -5.2550   22.2190 C   0  0  0  0  0  0  0  0  0  0  0  0
  -22.5640   -4.6920   21.0800 F   0  0  0  0  0  0  0  0  0  0  0  0
  -21.1470   -4.2570   25.6200 F   0  0  0  0  0  0  0  0  0  0  0  0
  -23.3870  -13.9560   21.1750 C   0  0  0  0  0  0  0  0  0  0  0  0
  -22.6690  -13.2510   22.0430 N   0  0  0  0  0  0  0  0  0  0  0  0
  -22.9740  -15.0230   20.7250 O   0  0  0  0  0  0  0  0  0  0  0  0
  -23.0150  -12.3820   22.4220 H   0  0  0  0  0  0  0  0  0  0  0  0
  -21.7620  -13.5880   22.3360 H   0  0  0  0  0  0  0  0  0  0  0  0
  -26.0690  -15.5350   20.3490 N   0  0  0  0  0  0  0  0  0  0  0  0
  -25.3380  -16.2180   20.5220 H   0  0  0  0  0  0  0  0  0  0  0  0
  -26.9260  -15.9480   20.0050 H   0  0  0  0  0  0  0  0  0  0  0  0
  1  5  1  0
  2  6  1  0
  3  4  1  0
  3  1  2  0
  4  2  2  0
  5  6  2  0
  5  7  1  0
  7  8  1  0
  7  9  1  0
  9 10  1  0
 11 10  1  0
 12 23  2  0
 13 11  1  0
 13 18  1  0
 14 22  1  0
 14 24  1  0
 15 17  1  0
 16 22  1  0
 17 18  2  0
 17 16  1  0
 19 13  2  0
 20 19  1  0
 20 15  2  0
 21 15  1  0
 21 14  1  0
 22 12  1  0
 24 26  2  0
 25 24  1  0
 27 25  1  0
 28 37  2  0
 28 33  1  0
 29 25  1  0
 29 33  1  0
 30 29  1  0
 31 32  1  0
 31 30  1  0
 32 28  1  0
 33 34  2  0
 34 35  1  0
 36 35  2  0
 37 36  1  0
 38 12  1  0
 38 39  1  0
 38 48  1  0
 39 42  1  0
 40 44  1  0
 40 39  1  0
 41 40  2  0
 44 43  1  0
 46 47  1  0
 46 44  1  0
 46 45  1  0
 48 51  1  1
 48 49  1  0
 50 48  1  0
 52  3  1  0
 52 56  1  0
 53 54  1  0
 53 55  1  0
 54 55  1  0
 55 52  1  0
 56 57  1  0
 58  4  1  0
 58 59  1  0
 60 59  1  0
 60 69  1  0
 61 69  1  0
 62 67  1  0
 63 64  1  0
 63 62  1  0
 65 64  1  0
 65 74  1  0
 65 66  1  0
 67 61  1  0
 67 66  1  0
 68 61  2  0
 69 70  1  0
 71 72  2  0
 72 91  1  0
 73 72  1  0
 73 76  1  0
 74 75  1  0
 74 71  1  0
 75 73  2  0
 76 77  1  0
 77 78  2  0
 79 82  1  0
 79 78  1  0
 80 79  2  0
 81 80  1  0
 81 76  2  0
 82 83  1  0
 83 84  1  0
 84 85  2  0
 86 85  1  0
 86 90  1  0
 87 86  2  0
 88 83  2  0
 88 87  1  0
 89 88  1  0
 91 92  1  0
 92 95  1  0
 92 94  1  0
 93 91  2  0
 96 71  1  0
 96 97  1  0
 98 96  1  0
M  ISO  4  10 101  11 101  61 100  69 100
M  END
>  <TORSDO>  (27) 
F 24

>  <SCORE>  (27) 
-12.070

>  <name>  (27) 
26

>  <ligand_id>  (27) 
26

>  <original_smiles>  (27) 
[H]OC([H])(c1c([H])c(N([H])C([H])([H])C([H])([H])Oc2c([H])c([H])c3c(c2[H])C([H])([H])N(C(=O)C([H])(N([H])C(=O)C([H])(N([H])C([H])([H])[H])C([H])([H])[H])C(C([H])([H])[H])(C([H])([H])[H])C([H])([H])[H])C([H])(C(=O)N([H])C2([H])c4c([H])c([H])c([H])c([H])c4C([H])([H])C([H])([H])C2([H])[H])C3([H])[H])nc([H])c1OC([H])([H])C([H])([H])N([H])C(=O)N1C([H])([H])C([H])([H])C([H])([H])C([H])(n2nc(-c3c([H])c([H])c(Oc4c([H])c([H])c(F)c([H])c4F)c([H])c3[H])c(C(=O)N([H])[H])c2N([H])[H])C1([H])[H])C1([H])C([H])([H])C1([H])[H]

>  <smiles>  (27) 
[H]OC([H])(c1c([H])c(N([H])C([H])([H])C([H])([H])Oc2c([H])c([H])c3c(c2[H])C([H])([H])N(C(=O)C([H])(N([H])C(=O)C([H])(N([H])C([H])([H])[H])C([H])([H])[H])C(C([H])([H])[H])(C([H])([H])[H])C([H])([H])[H])C([H])(C(=O)N([H])C2([H])c4c([H])c([H])c([H])c([H])c4C([H])([H])C([H])([H])C2([H])[H])C3([H])[H])nc([H])c1OC([H])([H])C([H])([H])N([H])C(=O)N1C([H])([H])C([H])([H])C([H])([H])C([H])(n2nc(-c3c([H])c([H])c(Oc4c([H])c([H])c(F)c([H])c4F)c([H])c3[H])c(C(=O)N([H])[H])c2N([H])[H])C1([H])[H])C1([H])C([H])([H])C1([H])[H]

$$$$
27:0:0
     RDKit          3D

 92101  0  0  1  0  0  0  0  0999 V2000
  -29.3080  -21.4080   19.0440 C   0  0  0  0  0  3  0  0  0  0  0  0
  -28.9570  -22.7830   18.8930 C   0  0  0  0  0  3  0  0  0  0  0  0
  -29.1360  -23.0970   21.2570 C   0  0  0  0  0  3  0  0  0  0  0  0
  -29.5700  -20.8090   20.3080 C   0  0  0  0  0  0  0  0  0  0  0  0
  -28.8300  -23.6750   19.9920 C   0  0  0  0  0  0  0  0  0  0  0  0
  -29.5100  -21.7090   21.4200 C   0  0  0  0  0  0  0  0  0  0  0  0
  -30.9530  -14.8550   20.3320 C   0  0  0  0  0  0  0  0  0  0  0  0
  -30.6680  -12.5860   19.3370 C   0  0  0  0  0  2  0  0  0  0  0  0
  -29.7330  -12.6380   18.1130 C   0  0  0  0  0  2  0  0  0  0  0  0
  -28.2680  -12.4740   18.5540 C   0  0  0  0  0  2  0  0  0  0  0  0
  -27.8960  -13.3770   19.7620 C   0  0  0  0  0  3  0  0  0  0  0  0
  -28.9660  -13.3240   20.8740 C   0  0  0  0  0  2  0  0  0  0  0  0
  -30.2430  -13.6780   20.2480 N   0  0  0  0  0  0  0  0  0  0  0  0
  -32.1590  -14.8130   20.0640 O   0  0  0  0  0  0  0  0  0  0  0  0
  -29.0280  -18.2570   21.1220 C   0  0  0  0  0  2  0  0  0  0  0  0
  -30.3720  -18.5270   19.1500 C   0  0  0  0  0  2  0  0  0  0  0  0
  -29.5740  -16.7740   21.3400 C   0  0  0  0  0  2  0  0  0  0  0  0
  -31.0170  -17.1170   19.3740 C   0  0  0  0  0  2  0  0  0  0  0  0
  -30.0070  -19.2750   20.4530 C   0  0  0  0  0  3  0  0  0  0  0  0
  -30.3150  -16.1010   20.2260 N   0  0  0  0  0  0  0  0  0  0  0  0
  -25.5220  -13.9560   20.5320 C   0  0  0  0  0  0  0  0  0  0  0  0
  -24.4580  -13.1760   20.8940 C   0  0  0  0  0  0  0  0  0  0  0  0
  -24.9180  -11.8250   20.8310 C   0  0  0  0  0  0  0  0  0  0  0  0
  -26.5610  -13.0790   20.2660 N   0  0  0  0  0  0  0  0  0  0  0  0
  -26.2050  -11.7920   20.5100 N   0  0  0  0  0  0  0  0  0  0  0  0
  -24.1890  -10.5610   21.0020 C   0  0  0  0  0  0  0  0  0  0  0  0
  -24.5780   -9.6060   21.9670 C   0  0  0  0  0  3  0  0  0  0  0  0
  -23.8490   -8.4070   22.1250 C   0  0  0  0  0  3  0  0  0  0  0  0
  -22.7150   -8.1550   21.3180 C   0  0  0  0  0  0  0  0  0  0  0  0
  -22.3430   -9.0980   20.3430 C   0  0  0  0  0  3  0  0  0  0  0  0
  -23.0750  -10.2870   20.1830 C   0  0  0  0  0  3  0  0  0  0  0  0
  -21.9620   -7.0070   21.3830 O   0  0  0  0  0  0  0  0  0  0  0  0
  -21.7630   -6.3440   22.5670 C   0  0  0  0  0  0  0  0  0  0  0  0
  -21.1630   -6.9710   23.6810 C   0  0  0  0  0  3  0  0  0  0  0  0
  -20.9150   -6.2320   24.8560 C   0  0  0  0  0  3  0  0  0  0  0  0
  -21.2540   -4.8670   24.9150 C   0  0  0  0  0  0  0  0  0  0  0  0
  -21.8470   -4.2400   23.8040 C   0  0  0  0  0  3  0  0  0  0  0  0
  -22.0970   -4.9760   22.6330 C   0  0  0  0  0  0  0  0  0  0  0  0
  -22.6480   -4.3610   21.5580 F   0  0  0  0  0  0  0  0  0  0  0  0
  -21.0090   -4.1550   26.0390 F   0  0  0  0  0  0  0  0  0  0  0  0
  -23.0650  -13.6530   21.1860 C   0  0  0  0  0  0  0  0  0  0  0  0
  -22.3450  -12.9460   22.0510 N   0  0  0  0  0  0  0  0  0  0  0  0
  -22.6250  -14.6860   20.6860 O   0  0  0  0  0  0  0  0  0  0  0  0
  -22.7130  -12.1090   22.4780 H   0  0  0  0  0  0  0  0  0  0  0  0
  -21.4110  -13.2490   22.2910 H   0  0  0  0  0  0  0  0  0  0  0  0
  -25.6910  -15.3290   20.3810 N   0  0  0  0  0  0  0  0  0  0  0  0
  -24.9300  -15.9860   20.5140 H   0  0  0  0  0  0  0  0  0  0  0  0
  -26.5470  -15.7700   20.0710 H   0  0  0  0  0  0  0  0  0  0  0  0
  -29.9880  -22.0310   23.7600 C   0  0  0  0  0  1  0  0  0  0  0  0
  -29.8150  -21.1610   22.6490 O   0  0  0  0  0  0  0  0  0  0  0  0
  -28.0170  -25.0280   19.8140 C   0  0  0  0  0  2  0  0  0  0  0  0
  -28.4320  -26.4340   20.1440 O   0  0  0  0  0  0  0  0  0  0  0  0
  -24.7390  -31.8400   23.3250 C   0  0  0  0  0  0  0  0  0  0  0  0
  -27.3800  -27.3900   20.0840 C   0  0  0  0  0  0  0  0  0  0  0  0
  -23.5700  -30.5370   21.5920 C   0  0  0  0  0  3  0  0  0  0  0  0
  -25.0450  -29.0740   20.1100 C   0  0  0  0  0  0  0  0  0  0  0  0
  -26.1220  -30.8350   21.4900 C   0  0  0  0  0  2  0  0  0  0  0  0
  -26.2100  -29.4940   20.7670 C   0  0  0  0  0  0  0  0  0  0  0  0
  -27.3800  -28.6650   20.7490 C   0  0  0  0  0  3  0  0  0  0  0  0
  -26.1900  -27.0690   19.3790 C   0  0  0  0  0  3  0  0  0  0  0  0
  -25.0410  -27.8690   19.4060 C   0  0  0  0  0  3  0  0  0  0  0  0
  -23.8150  -29.9530   20.1800 C   0  0  0  0  0  2  0  0  0  0  0  0
  -24.8290  -31.0850   22.1920 N   0  0  0  0  0  0  0  0  0  0  0  0
  -23.6420  -32.0950   23.8460 O   0  0  0  0  0  0  0  0  0  0  0  0
  -22.8830  -29.4660   22.4770 C   0  0  0  0  0  0  0  0  0  0  0  0
  -21.5570  -29.3120   22.3240 N   0  0  0  0  0  0  0  0  0  0  0  0
  -23.5450  -28.7840   23.2640 O   0  0  0  0  0  0  0  0  0  0  0  0
  -21.0830  -29.9140   21.6670 H   0  0  0  0  0  0  0  0  0  0  0  0
  -18.1530  -28.1570   22.7510 C   0  0  0  0  0  0  0  0  0  0  0  0
  -20.7170  -28.3420   23.0310 C   0  0  0  0  0  3  0  0  0  0  0  0
  -20.7870  -26.9500   22.3600 C   0  0  0  0  0  2  0  0  0  0  0  0
  -19.6770  -26.7220   21.3280 C   0  0  0  0  0  2  0  0  0  0  0  0
  -18.2990  -26.8540   21.9830 C   0  0  0  0  0  2  0  0  0  0  0  0
  -19.2880  -28.8630   23.2280 C   0  0  0  0  0  0  0  0  0  0  0  0
  -19.0970  -30.0870   23.9070 C   0  0  0  0  0  3  0  0  0  0  0  0
  -17.8030  -30.6020   24.1110 C   0  0  0  0  0  3  0  0  0  0  0  0
  -16.6830  -29.8920   23.6480 C   0  0  0  0  0  3  0  0  0  0  0  0
  -16.8580  -28.6710   22.9740 C   0  0  0  0  0  3  0  0  0  0  0  0
  -26.0070  -32.4370   24.0060 C   0  0  0  0  0  3  0  0  0  0  0  0
  -25.7030  -33.8280   24.3680 N   0  0  0  0  0  0  0  0  0  0  0  0
  -26.0300  -34.8960   23.6290 C   0  0  0  0  0  0  0  0  0  0  0  0
  -26.6920  -34.8150   22.5910 O   0  0  0  0  0  0  0  0  0  0  0  0
  -25.1140  -33.9660   25.1760 H   0  0  0  0  0  0  0  0  0  0  0  0
  -24.2930  -36.6950   23.3420 C   0  0  0  0  0  1  0  0  0  0  0  0
  -25.5490  -36.2760   24.1210 C   0  0  0  0  0  3  0  0  0  0  0  0
  -27.6950  -37.1540   24.9330 C   0  0  0  0  0  1  0  0  0  0  0  0
  -26.5790  -37.3320   24.0080 N   0  0  0  0  0  0  0  0  0  0  0  0
  -26.1730  -38.2500   24.1730 H   0  0  0  0  0  0  0  0  0  0  0  0
  -26.4690  -31.6220   25.2760 C   0  0  1  0  0  0  0  0  0  0  0  0
  -25.3340  -31.3700   26.2980 C   0  0  0  0  0  1  0  0  0  0  0  0
  -27.0460  -30.2460   24.8700 C   0  0  0  0  0  1  0  0  0  0  0  0
  -27.6040  -32.3800   26.0010 C   0  0  0  0  0  1  0  0  0  0  0  0
  1  4  1  0
  2  1  2  0
  2  5  1  0
  3  6  1  0
  4  6  2  0
  5  3  2  0
  6 50  1  0
  8 13  1  0
  9 10  1  0
  9  8  1  0
 11 10  1  0
 11 24  1  0
 11 12  1  0
 13  7  1  0
 13 12  1  0
 14  7  2  0
 15 17  1  0
 16 18  1  0
 16 19  1  0
 18 20  1  0
 19  4  1  0
 19 15  1  0
 20  7  1  0
 20 17  1  0
 21 22  2  0
 22 41  1  0
 23 22  1  0
 23 26  1  0
 24 25  1  0
 24 21  1  0
 25 23  2  0
 26 27  1  0
 27 28  2  0
 29 32  1  0
 29 28  1  0
 30 29  2  0
 31 30  1  0
 31 26  2  0
 32 33  1  0
 33 38  2  0
 33 34  1  0
 34 35  2  0
 35 36  1  0
 36 40  1  0
 37 36  2  0
 38 37  1  0
 39 38  1  0
 41 42  1  0
 42 45  1  0
 42 44  1  0
 43 41  2  0
 46 47  1  0
 46 21  1  0
 48 46  1  0
 50 49  1  0
 51  5  1  0
 51 52  1  0
 53 64  2  0
 54 52  1  0
 54 59  1  0
 55 63  1  0
 55 65  1  0
 56 62  1  0
 56 58  1  0
 57 63  1  0
 58 57  1  0
 59 58  2  0
 60 61  1  0
 60 54  2  0
 61 56  2  0
 62 55  1  0
 63 53  1  0
 65 67  2  0
 66 65  1  0
 68 66  1  0
 69 78  2  0
 69 74  1  0
 70 66  1  0
 70 74  1  0
 71 70  1  0
 72 73  1  0
 72 71  1  0
 73 69  1  0
 74 75  2  0
 75 76  1  0
 77 76  2  0
 78 77  1  0
 79 53  1  0
 79 80  1  0
 79 89  1  0
 80 83  1  0
 81 85  1  0
 81 80  1  0
 82 81  2  0
 85 84  1  0
 87 85  1  0
 87 88  1  0
 87 86  1  0
 89 92  1  1
 89 90  1  0
 91 89  1  0
M  ISO  4   7 100  20 100  51 101  52 101
M  END
>  <TORSDO>  (28) 
F 18

>  <SCORE>  (28) 
-14.368

>  <name>  (28) 
27

>  <ligand_id>  (28) 
27

>  <original_smiles>  (28) 
[H]c1c([H])c([H])c2c(c1[H])C([H])([H])C([H])([H])C([H])([H])C2([H])N([H])C(=O)C1([H])N(C(=O)C([H])(N([H])C(=O)C([H])(N([H])C([H])([H])[H])C([H])([H])[H])C(C([H])([H])[H])(C([H])([H])[H])C([H])([H])[H])C([H])([H])c2c([H])c(OC([H])([H])c3c([H])c([H])c(C4([H])C([H])([H])C([H])([H])N(C(=O)N5C([H])([H])C([H])([H])C([H])([H])C([H])(n6nc(-c7c([H])c([H])c(Oc8c([H])c([H])c(F)c([H])c8F)c([H])c7[H])c(C(=O)N([H])[H])c6N([H])[H])C5([H])[H])C([H])([H])C4([H])[H])c(OC([H])([H])[H])c3[H])c([H])c([H])c2C1([H])[H]

>  <smiles>  (28) 
[H]c1c([H])c([H])c2c(c1[H])C([H])([H])C([H])([H])C([H])([H])C2([H])N([H])C(=O)C1([H])N(C(=O)C([H])(N([H])C(=O)C([H])(N([H])C([H])([H])[H])C([H])([H])[H])C(C([H])([H])[H])(C([H])([H])[H])C([H])([H])[H])C([H])([H])c2c([H])c(OC([H])([H])c3c([H])c([H])c(C4([H])C([H])([H])C([H])([H])N(C(=O)N5C([H])([H])C([H])([H])C([H])([H])C([H])(n6nc(-c7c([H])c([H])c(Oc8c([H])c([H])c(F)c([H])c8F)c([H])c7[H])c(C(=O)N([H])[H])c6N([H])[H])C5([H])[H])C([H])([H])C4([H])[H])c(OC([H])([H])[H])c3[H])c([H])c([H])c2C1([H])[H]

$$$$
28:0:0
     RDKit          3D

 94103  0  0  1  0  0  0  0  0999 V2000
  -27.8490  -21.2550   19.9870 C   0  0  0  0  0  3  0  0  0  0  0  0
  -29.7020  -22.8120   19.7670 C   0  0  0  0  0  0  0  0  0  0  0  0
  -29.2460  -21.4270   19.9120 C   0  0  0  0  0  0  0  0  0  0  0  0
  -26.9710  -22.3620   19.9350 C   0  0  0  0  0  3  0  0  0  0  0  0
  -28.7700  -23.9570   19.7320 C   0  0  0  0  0  0  0  0  0  0  0  0
  -31.2110  -23.0270   19.6170 C   0  0  0  0  0  1  0  0  0  0  0  0
  -25.4620  -22.1460   19.9450 C   0  0  0  0  0  1  0  0  0  0  0  0
  -27.4530  -23.6320   19.8290 N   0  0  0  0  0  0  0  0  0  0  0  0
  -26.7720  -24.3890   19.7750 H   0  0  0  0  0  0  0  0  0  0  0  0
  -30.1070  -20.2500   19.9560 N   0  0  0  0  0  0  0  0  0  0  0  0
  -31.1020  -20.4320   19.8630 H   0  0  0  0  0  0  0  0  0  0  0  0
  -31.0880  -15.1380   19.9920 C   0  0  0  0  0  0  0  0  0  0  0  0
  -30.8240  -12.8730   18.9660 C   0  0  0  0  0  2  0  0  0  0  0  0
  -29.8290  -12.9670   17.7890 C   0  0  0  0  0  2  0  0  0  0  0  0
  -28.3740  -12.8130   18.2710 C   0  0  0  0  0  2  0  0  0  0  0  0
  -28.0740  -13.6710   19.5280 C   0  0  0  0  0  3  0  0  0  0  0  0
  -29.1830  -13.5310   20.5920 C   0  0  0  0  0  2  0  0  0  0  0  0
  -30.4440  -13.9150   19.9490 N   0  0  0  0  0  0  0  0  0  0  0  0
  -32.2400  -15.2150   19.5550 O   0  0  0  0  0  0  0  0  0  0  0  0
  -29.6870  -18.2220   21.5280 C   0  0  0  0  0  2  0  0  0  0  0  0
  -29.5870  -16.6790   21.3520 C   0  0  0  0  0  2  0  0  0  0  0  0
  -30.5950  -17.6370   19.4620 C   0  0  0  0  0  2  0  0  0  0  0  0
  -29.7020  -18.7830   20.1040 C   0  0  0  0  0  3  0  0  0  0  0  0
  -30.3420  -16.3100   20.1480 N   0  0  0  0  0  0  0  0  0  0  0  0
  -25.7410  -14.2860   20.4040 C   0  0  0  0  0  0  0  0  0  0  0  0
  -24.6780  -13.5210   20.7960 C   0  0  0  0  0  0  0  0  0  0  0  0
  -25.1030  -12.1620   20.6700 C   0  0  0  0  0  0  0  0  0  0  0  0
  -26.7500  -13.3950   20.0720 N   0  0  0  0  0  0  0  0  0  0  0  0
  -26.3720  -12.1080   20.2880 N   0  0  0  0  0  0  0  0  0  0  0  0
  -24.3510  -10.9120   20.8320 C   0  0  0  0  0  0  0  0  0  0  0  0
  -24.7140   -9.9480   21.8000 C   0  0  0  0  0  3  0  0  0  0  0  0
  -23.9590   -8.7650   21.9480 C   0  0  0  0  0  3  0  0  0  0  0  0
  -22.8310   -8.5380   21.1250 C   0  0  0  0  0  0  0  0  0  0  0  0
  -22.4860   -9.4890   20.1480 C   0  0  0  0  0  3  0  0  0  0  0  0
  -23.2410  -10.6640   20.0000 C   0  0  0  0  0  3  0  0  0  0  0  0
  -22.0540   -7.4050   21.1850 O   0  0  0  0  0  0  0  0  0  0  0  0
  -21.8290   -6.7480   22.3670 C   0  0  0  0  0  0  0  0  0  0  0  0
  -21.1910   -7.3780   23.4590 C   0  0  0  0  0  3  0  0  0  0  0  0
  -20.9030   -6.6440   24.6280 C   0  0  0  0  0  3  0  0  0  0  0  0
  -21.2500   -5.2830   24.7070 C   0  0  0  0  0  0  0  0  0  0  0  0
  -21.8850   -4.6550   23.6230 C   0  0  0  0  0  3  0  0  0  0  0  0
  -22.1670   -5.3820   22.4540 C   0  0  0  0  0  0  0  0  0  0  0  0
  -22.7560   -4.7650   21.4020 F   0  0  0  0  0  0  0  0  0  0  0  0
  -20.9730   -4.5760   25.8290 F   0  0  0  0  0  0  0  0  0  0  0  0
  -23.3140  -14.0200   21.1690 C   0  0  0  0  0  0  0  0  0  0  0  0
  -22.6280  -13.3220   22.0650 N   0  0  0  0  0  0  0  0  0  0  0  0
  -22.8690  -15.0680   20.7060 O   0  0  0  0  0  0  0  0  0  0  0  0
  -23.0070  -12.4760   22.4640 H   0  0  0  0  0  0  0  0  0  0  0  0
  -21.7140  -13.6420   22.3530 H   0  0  0  0  0  0  0  0  0  0  0  0
  -25.9180  -15.6600   20.2900 N   0  0  0  0  0  0  0  0  0  0  0  0
  -25.1430  -16.2990   20.4390 H   0  0  0  0  0  0  0  0  0  0  0  0
  -26.7350  -16.1150   19.9080 H   0  0  0  0  0  0  0  0  0  0  0  0
  -29.0860  -25.4910   19.3040 C   0  0  0  0  0  2  0  0  0  0  0  0
  -28.8200  -26.7350   20.1240 O   0  0  0  0  0  0  0  0  0  0  0  0
  -24.6530  -31.8350   23.1840 C   0  0  0  0  0  0  0  0  0  0  0  0
  -27.6710  -27.5570   20.0200 C   0  0  0  0  0  0  0  0  0  0  0  0
  -23.6070  -30.4370   21.4390 C   0  0  0  0  0  3  0  0  0  0  0  0
  -25.2110  -29.0550   19.9900 C   0  0  0  0  0  0  0  0  0  0  0  0
  -26.1300  -30.9190   21.3720 C   0  0  0  0  0  2  0  0  0  0  0  0
  -26.3270  -29.5810   20.6570 C   0  0  0  0  0  0  0  0  0  0  0  0
  -27.5550  -28.8400   20.6660 C   0  0  0  0  0  3  0  0  0  0  0  0
  -26.5270  -27.1030   19.3320 C   0  0  0  0  0  3  0  0  0  0  0  0
  -25.3170  -27.8280   19.3210 C   0  0  0  0  0  3  0  0  0  0  0  0
  -23.9110  -29.8420   20.0380 C   0  0  0  0  0  2  0  0  0  0  0  0
  -24.8120  -31.0840   22.0540 N   0  0  0  0  0  0  0  0  0  0  0  0
  -23.5340  -32.0130   23.6880 O   0  0  0  0  0  0  0  0  0  0  0  0
  -22.9850  -29.3350   22.3300 C   0  0  0  0  0  0  0  0  0  0  0  0
  -21.6710  -29.0960   22.1720 N   0  0  0  0  0  0  0  0  0  0  0  0
  -23.6820  -28.6970   23.1230 O   0  0  0  0  0  0  0  0  0  0  0  0
  -21.1590  -29.6680   21.5150 H   0  0  0  0  0  0  0  0  0  0  0  0
  -18.3490  -27.7300   22.6110 C   0  0  0  0  0  0  0  0  0  0  0  0
  -20.8970  -28.0730   22.8770 C   0  0  0  0  0  3  0  0  0  0  0  0
  -21.0480  -26.6910   22.2010 C   0  0  0  0  0  2  0  0  0  0  0  0
  -19.9510  -26.4000   21.1710 C   0  0  0  0  0  2  0  0  0  0  0  0
  -18.5670  -26.4450   21.8310 C   0  0  0  0  0  2  0  0  0  0  0  0
  -19.4390  -28.5020   23.0870 C   0  0  0  0  0  0  0  0  0  0  0  0
  -19.1790  -29.7090   23.7740 C   0  0  0  0  0  3  0  0  0  0  0  0
  -17.8580  -30.1440   23.9860 C   0  0  0  0  0  3  0  0  0  0  0  0
  -16.7810  -29.3700   23.5280 C   0  0  0  0  0  3  0  0  0  0  0  0
  -17.0260  -28.1630   22.8450 C   0  0  0  0  0  3  0  0  0  0  0  0
  -25.8660  -32.5310   23.8780 C   0  0  0  0  0  3  0  0  0  0  0  0
  -25.4650  -33.9110   24.1960 N   0  0  0  0  0  0  0  0  0  0  0  0
  -25.7740  -34.9860   23.4580 C   0  0  0  0  0  0  0  0  0  0  0  0
  -26.4940  -34.9240   22.4590 O   0  0  0  0  0  0  0  0  0  0  0  0
  -24.8500  -34.0340   24.9850 H   0  0  0  0  0  0  0  0  0  0  0  0
  -23.9620  -36.6800   23.0400 C   0  0  0  0  0  1  0  0  0  0  0  0
  -25.1900  -36.3410   23.8990 C   0  0  0  0  0  3  0  0  0  0  0  0
  -27.2190  -37.3510   24.8400 C   0  0  0  0  0  1  0  0  0  0  0  0
  -26.1650  -37.4510   23.8350 N   0  0  0  0  0  0  0  0  0  0  0  0
  -25.6960  -38.3450   23.9570 H   0  0  0  0  0  0  0  0  0  0  0  0
  -26.3460  -31.7870   25.1860 C   0  0  1  0  0  0  0  0  0  0  0  0
  -25.2030  -31.4900   26.1840 C   0  0  0  0  0  1  0  0  0  0  0  0
  -27.0250  -30.4430   24.8400 C   0  0  0  0  0  1  0  0  0  0  0  0
  -27.4120  -32.6430   25.9110 C   0  0  0  0  0  1  0  0  0  0  0  0
  2  3  1  0
  3 10  1  0
  3  1  2  0
  4  7  1  0
  4  1  1  0
  5  2  2  0
  5  8  1  0
  6  2  1  0
  8  4  1  0
  9  8  1  0
 11 10  1  0
 12 24  1  0
 13 18  1  0
 14 15  1  0
 14 13  1  0
 16 15  1  0
 16 28  1  0
 16 17  1  0
 18 12  1  0
 18 17  1  0
 19 12  2  0
 21 20  1  0
 22 23  1  0
 22 24  1  0
 23 10  1  0
 23 20  1  0
 24 21  1  0
 25 26  2  0
 26 45  1  0
 27 26  1  0
 27 30  1  0
 28 29  1  0
 28 25  1  0
 29 27  2  0
 30 31  1  0
 31 32  2  0
 33 36  1  0
 33 32  1  0
 34 33  2  0
 35 34  1  0
 35 30  2  0
 36 37  1  0
 37 42  2  0
 37 38  1  0
 38 39  2  0
 39 40  1  0
 40 44  1  0
 41 40  2  0
 42 41  1  0
 43 42  1  0
 45 46  1  0
 46 49  1  0
 46 48  1  0
 47 45  2  0
 50 25  1  0
 50 51  1  0
 52 50  1  0
 53  5  1  0
 53 54  1  0
 55 66  2  0
 56 54  1  0
 56 61  1  0
 57 65  1  0
 57 67  1  0
 58 64  1  0
 58 60  1  0
 59 65  1  0
 60 61  2  0
 60 59  1  0
 62 56  2  0
 63 62  1  0
 63 58  2  0
 64 57  1  0
 65 55  1  0
 67 69  2  0
 68 67  1  0
 70 68  1  0
 71 80  2  0
 71 76  1  0
 72 68  1  0
 72 76  1  0
 73 72  1  0
 74 75  1  0
 74 73  1  0
 75 71  1  0
 76 77  2  0
 77 78  1  0
 79 78  2  0
 80 79  1  0
 81 55  1  0
 81 82  1  0
 81 91  1  0
 82 85  1  0
 83 87  1  0
 83 82  1  0
 84 83  2  0
 87 86  1  0
 89 87  1  0
 89 90  1  0
 89 88  1  0
 91 94  1  1
 91 92  1  0
 93 91  1  0
M  ISO  4  12 100  24 100  53 101  54 101
M  END
>  <TORSDO>  (29) 
F 18

>  <SCORE>  (29) 
-12.583

>  <name>  (29) 
28

>  <ligand_id>  (29) 
28

>  <original_smiles>  (29) 
[H]c1c([H])c([H])c2c(c1[H])C([H])([H])C([H])([H])C([H])([H])C2([H])N([H])C(=O)C1([H])N(C(=O)C([H])(N([H])C(=O)C([H])(N([H])C([H])([H])[H])C([H])([H])[H])C(C([H])([H])[H])(C([H])([H])[H])C([H])([H])[H])C([H])([H])c2c([H])c(OC([H])([H])c3c(C([H])([H])[H])c(N([H])C4([H])C([H])([H])N(C(=O)N5C([H])([H])C([H])([H])C([H])([H])C([H])(n6nc(-c7c([H])c([H])c(Oc8c([H])c([H])c(F)c([H])c8F)c([H])c7[H])c(C(=O)N([H])[H])c6N([H])[H])C5([H])[H])C([H])([H])C4([H])[H])c([H])c(C([H])([H])[H])[n+]3[H])c([H])c([H])c2C1([H])[H]

>  <smiles>  (29) 
[H]c1c([H])c([H])c2c(c1[H])C([H])([H])C([H])([H])C([H])([H])C2([H])N([H])C(=O)C1([H])N(C(=O)C([H])(N([H])C(=O)C([H])(N([H])C([H])([H])[H])C([H])([H])[H])C(C([H])([H])[H])(C([H])([H])[H])C([H])([H])[H])C([H])([H])c2c([H])c(OC([H])([H])c3c(C([H])([H])[H])c(N([H])C4([H])C([H])([H])N(C(=O)N5C([H])([H])C([H])([H])C([H])([H])C([H])(n6nc(-c7c([H])c([H])c(Oc8c([H])c([H])c(F)c([H])c8F)c([H])c7[H])c(C(=O)N([H])[H])c6N([H])[H])C5([H])[H])C([H])([H])C4([H])[H])c([H])c(C([H])([H])[H])[n+]3[H])c([H])c([H])c2C1([H])[H]

$$$$
29:0:0
     RDKit          3D

 95105  0  0  1  0  0  0  0  0999 V2000
  -29.6560  -23.1670   21.6510 C   0  0  0  0  0  3  0  0  0  0  0  0
  -28.6340  -21.4780   19.7050 C   0  0  0  0  0  3  0  0  0  0  0  0
  -29.9420  -21.7610   21.6970 C   0  0  0  0  0  0  0  0  0  0  0  0
  -29.3990  -20.8450   20.7350 C   0  0  0  0  0  0  0  0  0  0  0  0
  -28.8020  -23.7760   20.6930 C   0  0  0  0  0  0  0  0  0  0  0  0
  -28.3270  -22.8940   19.6770 C   0  0  0  0  0  0  0  0  0  0  0  0
  -30.8660  -14.9460   20.4790 C   0  0  0  0  0  0  0  0  0  0  0  0
  -30.6650  -12.6690   19.4660 C   0  0  0  0  0  2  0  0  0  0  0  0
  -29.7380  -12.7060   18.2340 C   0  0  0  0  0  2  0  0  0  0  0  0
  -28.2710  -12.5040   18.6580 C   0  0  0  0  0  2  0  0  0  0  0  0
  -27.8660  -13.3970   19.8590 C   0  0  0  0  0  3  0  0  0  0  0  0
  -28.9200  -13.3710   20.9880 C   0  0  0  0  0  2  0  0  0  0  0  0
  -30.2080  -13.7360   20.3870 N   0  0  0  0  0  0  0  0  0  0  0  0
  -32.0680  -14.9970   20.2010 O   0  0  0  0  0  0  0  0  0  0  0  0
  -29.1210  -18.3050   19.7160 C   0  0  0  0  0  2  0  0  0  0  0  0
  -30.8460  -18.6050   21.3730 C   0  0  0  0  0  2  0  0  0  0  0  0
  -29.0720  -16.7420   20.0320 C   0  0  0  0  0  2  0  0  0  0  0  0
  -30.7240  -17.0920   21.8080 C   0  0  0  0  0  2  0  0  0  0  0  0
  -29.5050  -19.2420   20.9020 C   0  0  0  0  0  3  0  0  0  0  0  0
  -30.1860  -16.1220   20.8140 N   0  0  0  0  0  0  0  0  0  0  0  0
  -25.4810  -13.9700   20.6000 C   0  0  0  0  0  0  0  0  0  0  0  0
  -24.4180  -13.1860   20.9510 C   0  0  0  0  0  0  0  0  0  0  0  0
  -24.8850  -11.8380   20.8940 C   0  0  0  0  0  0  0  0  0  0  0  0
  -26.5270  -13.0970   20.3470 N   0  0  0  0  0  0  0  0  0  0  0  0
  -26.1760  -11.8080   20.5870 N   0  0  0  0  0  0  0  0  0  0  0  0
  -24.1610  -10.5700   21.0530 C   0  0  0  0  0  0  0  0  0  0  0  0
  -24.5700   -9.6010   21.9960 C   0  0  0  0  0  3  0  0  0  0  0  0
  -23.8460   -8.3980   22.1430 C   0  0  0  0  0  3  0  0  0  0  0  0
  -22.7010   -8.1570   21.3470 C   0  0  0  0  0  0  0  0  0  0  0  0
  -22.3140   -9.1150   20.3920 C   0  0  0  0  0  3  0  0  0  0  0  0
  -23.0390  -10.3090   20.2440 C   0  0  0  0  0  3  0  0  0  0  0  0
  -21.9510   -7.0080   21.4030 O   0  0  0  0  0  0  0  0  0  0  0  0
  -21.8140   -6.2950   22.5680 C   0  0  0  0  0  0  0  0  0  0  0  0
  -21.2570   -6.8690   23.7310 C   0  0  0  0  0  3  0  0  0  0  0  0
  -21.0730   -6.0800   24.8850 C   0  0  0  0  0  3  0  0  0  0  0  0
  -21.4340   -4.7200   24.8730 C   0  0  0  0  0  0  0  0  0  0  0  0
  -21.9830   -4.1460   23.7130 C   0  0  0  0  0  3  0  0  0  0  0  0
  -22.1700   -4.9320   22.5630 C   0  0  0  0  0  0  0  0  0  0  0  0
  -22.6810   -4.3690   21.4400 F   0  0  0  0  0  0  0  0  0  0  0  0
  -21.2500   -3.9590   25.9780 F   0  0  0  0  0  0  0  0  0  0  0  0
  -23.0170  -13.6560   21.2250 C   0  0  0  0  0  0  0  0  0  0  0  0
  -22.2880  -12.9470   22.0800 N   0  0  0  0  0  0  0  0  0  0  0  0
  -22.5790  -14.6860   20.7170 O   0  0  0  0  0  0  0  0  0  0  0  0
  -22.6530  -12.1130   22.5150 H   0  0  0  0  0  0  0  0  0  0  0  0
  -21.3470  -13.2440   22.3010 H   0  0  0  0  0  0  0  0  0  0  0  0
  -25.6370  -15.3450   20.4500 N   0  0  0  0  0  0  0  0  0  0  0  0
  -24.8630  -15.9880   20.5750 H   0  0  0  0  0  0  0  0  0  0  0  0
  -26.4790  -15.7970   20.1220 H   0  0  0  0  0  0  0  0  0  0  0  0
  -30.2210  -20.6540   24.0770 C   0  0  0  0  0  2  0  0  0  0  0  0
  -30.8820  -22.0090   24.1530 C   0  0  0  0  0  2  0  0  0  0  0  0
  -30.8080  -21.2780   22.8290 C   0  0  0  0  0  3  0  0  0  0  0  0
  -26.9220  -22.6410   17.7350 C   0  0  0  0  0  1  0  0  0  0  0  0
  -27.5070  -23.4710   18.7290 O   0  0  0  0  0  0  0  0  0  0  0  0
  -28.1270  -25.1910   21.0120 C   0  0  0  0  0  2  0  0  0  0  0  0
  -28.5390  -26.5530   20.5150 O   0  0  0  0  0  0  0  0  0  0  0  0
  -24.6900  -31.9990   23.4280 C   0  0  0  0  0  0  0  0  0  0  0  0
  -27.4720  -27.4790   20.4200 C   0  0  0  0  0  0  0  0  0  0  0  0
  -23.5680  -30.5970   21.7370 C   0  0  0  0  0  3  0  0  0  0  0  0
  -25.0940  -29.0910   20.3400 C   0  0  0  0  0  0  0  0  0  0  0  0
  -26.1110  -30.9490   21.6480 C   0  0  0  0  0  2  0  0  0  0  0  0
  -26.2370  -29.5760   20.9890 C   0  0  0  0  0  0  0  0  0  0  0  0
  -27.4310  -28.7810   21.0240 C   0  0  0  0  0  3  0  0  0  0  0  0
  -26.3180  -27.0880   19.7050 C   0  0  0  0  0  3  0  0  0  0  0  0
  -25.1390  -27.8540   19.6840 C   0  0  0  0  0  3  0  0  0  0  0  0
  -23.8400  -29.9450   20.3570 C   0  0  0  0  0  2  0  0  0  0  0  0
  -24.8070  -31.2000   22.3280 N   0  0  0  0  0  0  0  0  0  0  0  0
  -23.5840  -32.2540   23.9270 O   0  0  0  0  0  0  0  0  0  0  0  0
  -22.8900  -29.5590   22.6650 C   0  0  0  0  0  0  0  0  0  0  0  0
  -21.5820  -29.3270   22.4620 N   0  0  0  0  0  0  0  0  0  0  0  0
  -23.5430  -28.9670   23.5270 O   0  0  0  0  0  0  0  0  0  0  0  0
  -21.1100  -29.8590   21.7460 H   0  0  0  0  0  0  0  0  0  0  0  0
  -18.2430  -27.9560   22.7430 C   0  0  0  0  0  0  0  0  0  0  0  0
  -20.7580  -28.3620   23.1930 C   0  0  0  0  0  3  0  0  0  0  0  0
  -20.9780  -26.9260   22.6640 C   0  0  0  0  0  2  0  0  0  0  0  0
  -19.9750  -26.5220   21.5780 C   0  0  0  0  0  2  0  0  0  0  0  0
  -18.5420  -26.6050   22.1140 C   0  0  0  0  0  2  0  0  0  0  0  0
  -19.2840  -28.7880   23.2350 C   0  0  0  0  0  0  0  0  0  0  0  0
  -18.9550  -30.0480   23.7790 C   0  0  0  0  0  3  0  0  0  0  0  0
  -17.6170  -30.4790   23.8370 C   0  0  0  0  0  3  0  0  0  0  0  0
  -16.5890  -29.6470   23.3620 C   0  0  0  0  0  3  0  0  0  0  0  0
  -16.9020  -28.3870   22.8210 C   0  0  0  0  0  3  0  0  0  0  0  0
  -25.9390  -32.6490   24.0960 C   0  0  0  0  0  3  0  0  0  0  0  0
  -26.4240  -31.8790   25.3840 C   0  0  1  0  0  0  0  0  0  0  0  0
  -25.2910  -31.5770   26.3930 C   0  0  0  0  0  1  0  0  0  0  0  0
  -27.0850  -30.5320   25.0040 C   0  0  0  0  0  1  0  0  0  0  0  0
  -27.5040  -32.7100   26.1190 C   0  0  0  0  0  1  0  0  0  0  0  0
  -25.5940  -34.0410   24.4260 N   0  0  0  0  0  0  0  0  0  0  0  0
  -25.9280  -35.1050   23.6850 C   0  0  0  0  0  0  0  0  0  0  0  0
  -26.6280  -35.0220   22.6710 O   0  0  0  0  0  0  0  0  0  0  0  0
  -24.9780  -34.1790   25.2130 H   0  0  0  0  0  0  0  0  0  0  0  0
  -24.1770  -36.8690   23.2940 C   0  0  0  0  0  1  0  0  0  0  0  0
  -25.4030  -36.4820   24.1370 C   0  0  0  0  0  3  0  0  0  0  0  0
  -27.4970  -37.4010   25.0330 C   0  0  0  0  0  1  0  0  0  0  0  0
  -26.4170  -37.5560   24.0620 N   0  0  0  0  0  0  0  0  0  0  0  0
  -25.9890  -38.4660   24.2080 H   0  0  0  0  0  0  0  0  0  0  0  0
  1  3  1  0
  2  4  1  0
  3 51  1  0
  4  3  2  0
  5 54  1  0
  5  1  2  0
  6  2  2  0
  6  5  1  0
  7 20  1  0
  8 13  1  0
  9 10  1  0
  9  8  1  0
 11 10  1  0
 11 24  1  0
 11 12  1  0
 13  7  1  0
 13 12  1  0
 14  7  2  0
 15 17  1  0
 15 19  1  0
 16 18  1  0
 17 20  1  0
 19  4  1  0
 19 16  1  0
 20 18  1  0
 21 22  2  0
 22 41  1  0
 23 22  1  0
 23 26  1  0
 24 25  1  0
 24 21  1  0
 25 23  2  0
 26 27  1  0
 27 28  2  0
 29 32  1  0
 29 28  1  0
 30 29  2  0
 31 30  1  0
 31 26  2  0
 32 33  1  0
 33 34  1  0
 34 35  2  0
 36 35  1  0
 36 40  1  0
 37 36  2  0
 38 33  2  0
 38 37  1  0
 39 38  1  0
 41 42  1  0
 42 45  1  0
 42 44  1  0
 43 41  2  0
 46 47  1  0
 46 21  1  0
 48 46  1  0
 49 50  1  0
 51 49  1  0
 51 50  1  0
 52 53  1  0
 53  6  1  0
 55 54  1  0
 56 67  2  0
 57 55  1  0
 57 62  1  0
 58 66  1  0
 58 68  1  0
 59 65  1  0
 59 61  1  0
 60 66  1  0
 61 62  2  0
 61 60  1  0
 63 57  2  0
 64 63  1  0
 64 59  2  0
 65 58  1  0
 66 56  1  0
 68 70  2  0
 69 68  1  0
 71 69  1  0
 72 81  2  0
 72 77  1  0
 73 69  1  0
 73 77  1  0
 74 73  1  0
 75 76  1  0
 75 74  1  0
 76 72  1  0
 77 78  2  0
 78 79  1  0
 80 79  2  0
 81 80  1  0
 82 56  1  0
 82 87  1  0
 82 83  1  0
 83 86  1  1
 83 84  1  0
 85 83  1  0
 87 90  1  0
 88 92  1  0
 88 87  1  0
 89 88  2  0
 92 91  1  0
 94 92  1  0
 94 95  1  0
 94 93  1  0
M  ISO  4   7 100  20 100  54 101  55 101
M  END
>  <TORSDO>  (30) 
F 19

>  <SCORE>  (30) 
-14.397

>  <name>  (30) 
29

>  <ligand_id>  (30) 
29

>  <original_smiles>  (30) 
[H]c1c([H])c([H])c2c(c1[H])C([H])([H])C([H])([H])C([H])([H])C2([H])N([H])C(=O)C1([H])N(C(=O)C([H])(N([H])C(=O)C([H])(N([H])C([H])([H])[H])C([H])([H])[H])C(C([H])([H])[H])(C([H])([H])[H])C([H])([H])[H])C([H])([H])c2c([H])c(OC([H])([H])c3c([H])c(C4([H])C([H])([H])C4([H])[H])c(C4([H])C([H])([H])C([H])([H])N(C(=O)N5C([H])([H])C([H])([H])C([H])([H])C([H])(n6nc(-c7c([H])c([H])c(Oc8c([H])c([H])c(F)c([H])c8F)c([H])c7[H])c(C(=O)N([H])[H])c6N([H])[H])C5([H])[H])C([H])([H])C4([H])[H])c([H])c3OC([H])([H])[H])c([H])c([H])c2C1([H])[H]

>  <smiles>  (30) 
[H]c1c([H])c([H])c2c(c1[H])C([H])([H])C([H])([H])C([H])([H])C2([H])N([H])C(=O)C1([H])N(C(=O)C([H])(N([H])C(=O)C([H])(N([H])C([H])([H])[H])C([H])([H])[H])C(C([H])([H])[H])(C([H])([H])[H])C([H])([H])[H])C([H])([H])c2c([H])c(OC([H])([H])c3c([H])c(C4([H])C([H])([H])C4([H])[H])c(C4([H])C([H])([H])C([H])([H])N(C(=O)N5C([H])([H])C([H])([H])C([H])([H])C([H])(n6nc(-c7c([H])c([H])c(Oc8c([H])c([H])c(F)c([H])c8F)c([H])c7[H])c(C(=O)N([H])[H])c6N([H])[H])C5([H])[H])C([H])([H])C4([H])[H])c([H])c3OC([H])([H])[H])c([H])c([H])c2C1([H])[H]

$$$$
30:0:0
     RDKit          3D

 87 96  0  0  1  0  0  0  0  0999 V2000
  -30.1220  -20.5490   20.6420 C   0  0  0  0  0  2  0  0  0  0  0  0
  -28.7460  -20.2530   18.9220 C   0  0  0  0  0  2  0  0  0  0  0  0
  -29.9140  -22.3270   20.4630 C   0  0  0  0  0  2  0  0  0  0  0  0
  -28.5820  -22.0510   18.7660 C   0  0  0  0  0  2  0  0  0  0  0  0
  -30.0230  -19.2070   19.5260 C   0  0  0  0  0  3  0  0  0  0  0  0
  -28.6170  -23.3560   19.9260 C   0  0  0  0  0  3  0  0  0  0  0  0
  -30.7320  -15.9100   19.2490 C   0  0  0  0  0  0  0  0  0  0  0  0
  -30.6700  -13.3470   18.2840 C   0  0  0  0  0  2  0  0  0  0  0  0
  -29.5640  -12.9250   17.2630 C   0  0  0  0  0  2  0  0  0  0  0  0
  -28.2740  -12.5040   17.9750 C   0  0  0  0  0  2  0  0  0  0  0  0
  -27.9850  -13.4450   19.1610 C   0  0  0  0  0  3  0  0  0  0  0  0
  -29.2170  -13.7540   20.0520 C   0  0  0  0  0  2  0  0  0  0  0  0
  -30.2130  -14.5000   19.2250 N   0  0  0  0  0  0  0  0  0  0  0  0
  -31.8320  -15.8230   18.6560 O   0  0  0  0  0  0  0  0  0  0  0  0
  -30.1260  -17.3330   19.7690 N   0  0  0  0  0  0  0  0  0  0  0  0
  -25.9320  -13.9180   20.5710 C   0  0  0  0  0  0  0  0  0  0  0  0
  -24.9240  -13.1360   21.0540 C   0  0  0  0  0  0  0  0  0  0  0  0
  -25.2350  -11.8000   20.6560 C   0  0  0  0  0  0  0  0  0  0  0  0
  -26.8030  -13.0650   19.9230 N   0  0  0  0  0  0  0  0  0  0  0  0
  -26.4080  -11.7670   20.0240 N   0  0  0  0  0  0  0  0  0  0  0  0
  -24.4430  -10.5680   20.7850 C   0  0  0  0  0  0  0  0  0  0  0  0
  -24.9110   -9.4590   21.5230 C   0  0  0  0  0  3  0  0  0  0  0  0
  -24.1170   -8.3000   21.6550 C   0  0  0  0  0  3  0  0  0  0  0  0
  -22.8400   -8.2410   21.0480 C   0  0  0  0  0  0  0  0  0  0  0  0
  -22.3870   -9.3380   20.2960 C   0  0  0  0  0  3  0  0  0  0  0  0
  -23.1800  -10.4900   20.1620 C   0  0  0  0  0  3  0  0  0  0  0  0
  -22.0100   -7.1450   21.0980 O   0  0  0  0  0  0  0  0  0  0  0  0
  -21.9550   -6.3360   22.2040 C   0  0  0  0  0  0  0  0  0  0  0  0
  -21.6250   -6.8410   23.4820 C   0  0  0  0  0  3  0  0  0  0  0  0
  -21.5090   -5.9640   24.5770 C   0  0  0  0  0  3  0  0  0  0  0  0
  -21.7160   -4.5820   24.3990 C   0  0  0  0  0  0  0  0  0  0  0  0
  -22.0390   -4.0770   23.1280 C   0  0  0  0  0  3  0  0  0  0  0  0
  -22.1560   -4.9520   22.0330 C   0  0  0  0  0  0  0  0  0  0  0  0
  -22.4470   -4.4570   20.8060 F   0  0  0  0  0  0  0  0  0  0  0  0
  -21.5980   -3.7370   25.4500 F   0  0  0  0  0  0  0  0  0  0  0  0
  -23.6860  -13.6290   21.7430 C   0  0  0  0  0  0  0  0  0  0  0  0
  -23.1370  -12.8380   22.6580 N   0  0  0  0  0  0  0  0  0  0  0  0
  -23.2280  -14.7460   21.5070 O   0  0  0  0  0  0  0  0  0  0  0  0
  -23.5220  -11.9300   22.8680 H   0  0  0  0  0  0  0  0  0  0  0  0
  -22.3160  -13.1510   23.1560 H   0  0  0  0  0  0  0  0  0  0  0  0
  -26.1610  -15.2890   20.5890 N   0  0  0  0  0  0  0  0  0  0  0  0
  -25.4730  -15.9380   20.9530 H   0  0  0  0  0  0  0  0  0  0  0  0
  -26.8960  -15.7470   20.0690 H   0  0  0  0  0  0  0  0  0  0  0  0
  -29.3400  -18.0850   22.1800 C   0  0  0  0  0  2  0  0  0  0  0  0
  -28.7670  -16.7420   21.8590 C   0  0  0  0  0  2  0  0  0  0  0  0
  -30.0650  -17.1680   21.2060 C   0  0  0  0  0  3  0  0  0  0  0  0
  -28.5350  -25.2130   19.9250 O   0  0  0  0  0  0  0  0  0  0  0  0
  -24.7580  -31.5600   22.8620 C   0  0  0  0  0  0  0  0  0  0  0  0
  -27.5110  -26.4440   19.9180 C   0  0  0  0  0  0  0  0  0  0  0  0
  -23.6600  -30.1290   21.1940 C   0  0  0  0  0  3  0  0  0  0  0  0
  -25.1910  -28.5050   19.8200 C   0  0  0  0  0  0  0  0  0  0  0  0
  -26.2440  -30.3150   21.1440 C   0  0  0  0  0  2  0  0  0  0  0  0
  -26.3670  -28.8690   20.4840 C   0  0  0  0  0  0  0  0  0  0  0  0
  -27.5060  -27.8750   20.4870 C   0  0  0  0  0  3  0  0  0  0  0  0
  -26.2870  -26.3310   19.1970 C   0  0  0  0  0  3  0  0  0  0  0  0
  -25.1990  -27.2670   19.1510 C   0  0  0  0  0  3  0  0  0  0  0  0
  -23.9610  -29.4360   19.8320 C   0  0  0  0  0  2  0  0  0  0  0  0
  -24.9120  -30.7060   21.7860 N   0  0  0  0  0  0  0  0  0  0  0  0
  -23.6410  -31.8260   23.3400 O   0  0  0  0  0  0  0  0  0  0  0  0
  -22.9410  -29.1360   22.1480 C   0  0  0  0  0  0  0  0  0  0  0  0
  -21.6020  -29.0100   22.0480 N   0  0  0  0  0  0  0  0  0  0  0  0
  -23.6010  -28.4730   22.9510 O   0  0  0  0  0  0  0  0  0  0  0  0
  -21.1180  -29.5940   21.3820 H   0  0  0  0  0  0  0  0  0  0  0  0
  -18.1980  -27.8780   22.6630 C   0  0  0  0  0  0  0  0  0  0  0  0
  -20.7780  -28.0540   22.8030 C   0  0  0  0  0  3  0  0  0  0  0  0
  -20.7990  -26.6580   22.1380 C   0  0  0  0  0  2  0  0  0  0  0  0
  -19.6370  -26.4350   21.1650 C   0  0  0  0  0  2  0  0  0  0  0  0
  -18.2960  -26.5750   21.8880 C   0  0  0  0  0  2  0  0  0  0  0  0
  -19.3620  -28.5820   23.0780 C   0  0  0  0  0  0  0  0  0  0  0  0
  -19.2100  -29.8010   23.7730 C   0  0  0  0  0  3  0  0  0  0  0  0
  -17.9310  -30.3200   24.0490 C   0  0  0  0  0  3  0  0  0  0  0  0
  -16.7840  -29.6140   23.6460 C   0  0  0  0  0  3  0  0  0  0  0  0
  -16.9190  -28.3940   22.9600 C   0  0  0  0  0  3  0  0  0  0  0  0
  -25.9760  -32.2570   23.5430 C   0  0  0  0  0  3  0  0  0  0  0  0
  -25.5680  -33.6180   23.9500 N   0  0  0  0  0  0  0  0  0  0  0  0
  -25.8330  -34.7420   23.2710 C   0  0  0  0  0  0  0  0  0  0  0  0
  -26.5010  -34.7470   22.2340 O   0  0  0  0  0  0  0  0  0  0  0  0
  -24.9720  -33.6820   24.7620 H   0  0  0  0  0  0  0  0  0  0  0  0
  -23.9960  -36.4580   23.0620 C   0  0  0  0  0  1  0  0  0  0  0  0
  -25.2760  -36.0740   23.8240 C   0  0  0  0  0  3  0  0  0  0  0  0
  -27.3660  -37.0430   24.6810 C   0  0  0  0  0  1  0  0  0  0  0  0
  -26.2430  -37.1920   23.7580 N   0  0  0  0  0  0  0  0  0  0  0  0
  -25.7860  -38.0790   23.9550 H   0  0  0  0  0  0  0  0  0  0  0  0
  -26.5110  -31.4680   24.8030 C   0  0  1  0  0  0  0  0  0  0  0  0
  -25.4130  -31.1300   25.8410 C   0  0  0  0  0  1  0  0  0  0  0  0
  -27.1810  -30.1430   24.3840 C   0  0  0  0  0  1  0  0  0  0  0  0
  -27.6020  -32.3020   25.5170 C   0  0  0  0  0  1  0  0  0  0  0  0
  2  5  1  0
  3  1  1  0
  4  2  1  0
  4  6  1  0
  5 15  1  0
  5  1  1  0
  6 47  1  0
  6  3  1  0
  7 15  1  0
  8 13  1  0
  9 10  1  0
  9  8  1  0
 11 10  1  0
 11 19  1  0
 11 12  1  0
 13  7  1  0
 13 12  1  0
 14  7  2  0
 15 46  1  0
 16 41  1  0
 16 17  2  0
 17 36  1  0
 18 21  1  0
 18 17  1  0
 19 20  1  0
 19 16  1  0
 20 18  2  0
 21 22  1  0
 22 23  2  0
 24 27  1  0
 24 23  1  0
 25 24  2  0
 26 25  1  0
 26 21  2  0
 27 28  1  0
 28 29  1  0
 29 30  2  0
 31 30  1  0
 31 35  1  0
 32 31  2  0
 33 28  2  0
 33 32  1  0
 34 33  1  0
 36 37  1  0
 37 39  1  0
 37 40  1  0
 38 36  2  0
 41 42  1  0
 43 41  1  0
 45 44  1  0
 46 45  1  0
 46 44  1  0
 48 59  2  0
 49 47  1  0
 49 54  1  0
 50 58  1  0
 50 60  1  0
 51 57  1  0
 51 53  1  0
 52 58  1  0
 53 54  2  0
 53 52  1  0
 55 49  2  0
 56 55  1  0
 56 51  2  0
 57 50  1  0
 58 48  1  0
 60 62  2  0
 61 60  1  0
 63 61  1  0
 64 73  2  0
 64 69  1  0
 65 61  1  0
 65 69  1  0
 66 65  1  0
 67 68  1  0
 67 66  1  0
 68 64  1  0
 69 70  2  0
 70 71  1  0
 72 71  2  0
 73 72  1  0
 74 48  1  0
 74 75  1  0
 74 84  1  0
 75 78  1  0
 76 80  1  0
 76 75  1  0
 77 76  2  0
 80 79  1  0
 82 80  1  0
 82 83  1  0
 82 81  1  0
 84 87  1  1
 84 85  1  0
 86 84  1  0
M  ISO  4   6 101   7 100  15 100  47 101
M  END
>  <TORSDO>  (31) 
F 17

>  <SCORE>  (31) 
-9.472

>  <name>  (31) 
30

>  <ligand_id>  (31) 
30

>  <original_smiles>  (31) 
[H]c1c([H])c([H])c2c(c1[H])C([H])([H])C([H])([H])C([H])([H])C2([H])N([H])C(=O)C1([H])N(C(=O)C([H])(N([H])C(=O)C([H])(N([H])C([H])([H])[H])C([H])([H])[H])C(C([H])([H])[H])(C([H])([H])[H])C([H])([H])[H])C([H])([H])c2c([H])c(OC3([H])C([H])([H])C([H])([H])C([H])(N(C(=O)N4C([H])([H])C([H])([H])C([H])([H])C([H])(n5nc(-c6c([H])c([H])c(Oc7c([H])c([H])c(F)c([H])c7F)c([H])c6[H])c(C(=O)N([H])[H])c5N([H])[H])C4([H])[H])C4([H])C([H])([H])C4([H])[H])C([H])([H])C3([H])[H])c([H])c([H])c2C1([H])[H]

>  <smiles>  (31) 
[H]c1c([H])c([H])c2c(c1[H])C([H])([H])C([H])([H])C([H])([H])C2([H])N([H])C(=O)C1([H])N(C(=O)C([H])(N([H])C(=O)C([H])(N([H])C([H])([H])[H])C([H])([H])[H])C(C([H])([H])[H])(C([H])([H])[H])C([H])([H])[H])C([H])([H])c2c([H])c(OC3([H])C([H])([H])C([H])([H])C([H])(N(C(=O)N4C([H])([H])C([H])([H])C([H])([H])C([H])(n5nc(-c6c([H])c([H])c(Oc7c([H])c([H])c(F)c([H])c7F)c([H])c6[H])c(C(=O)N([H])[H])c5N([H])[H])C4([H])[H])C4([H])C([H])([H])C4([H])[H])C([H])([H])C3([H])[H])c([H])c([H])c2C1([H])[H]

$$$$
31:0:0
     RDKit          3D

 95104  0  0  1  0  0  0  0  0999 V2000
  -28.0960  -21.2040   19.9160 C   0  0  0  0  0  3  0  0  0  0  0  0
  -29.8000  -23.1090   21.0040 C   0  0  0  0  0  3  0  0  0  0  0  0
  -29.3110  -20.7000   20.4620 C   0  0  0  0  0  0  0  0  0  0  0  0
  -27.7260  -22.5960   19.9360 C   0  0  0  0  0  0  0  0  0  0  0  0
  -30.1830  -21.7210   20.9810 C   0  0  0  0  0  0  0  0  0  0  0  0
  -28.5650  -23.6050   20.5120 C   0  0  0  0  0  0  0  0  0  0  0  0
  -26.3680  -22.9790   19.3760 C   0  0  0  0  0  1  0  0  0  0  0  0
  -30.6950  -14.7280   19.9630 C   0  0  0  0  0  0  0  0  0  0  0  0
  -30.3200  -12.4830   18.9280 C   0  0  0  0  0  2  0  0  0  0  0  0
  -29.3140  -12.5620   17.7640 C   0  0  0  0  0  2  0  0  0  0  0  0
  -27.8760  -12.3960   18.2920 C   0  0  0  0  0  2  0  0  0  0  0  0
  -27.5900  -13.2730   19.5420 C   0  0  0  0  0  3  0  0  0  0  0  0
  -28.7250  -13.1880   20.5860 C   0  0  0  0  0  2  0  0  0  0  0  0
  -29.9590  -13.5620   19.8840 N   0  0  0  0  0  0  0  0  0  0  0  0
  -31.8810  -14.6570   19.6250 O   0  0  0  0  0  0  0  0  0  0  0  0
  -28.5710  -18.0590   20.7730 C   0  0  0  0  0  2  0  0  0  0  0  0
  -30.3520  -18.5690   19.2460 C   0  0  0  0  0  2  0  0  0  0  0  0
  -29.0620  -16.5410   20.9160 C   0  0  0  0  0  2  0  0  0  0  0  0
  -30.9560  -17.1300   19.4300 C   0  0  0  0  0  2  0  0  0  0  0  0
  -29.6720  -19.1320   20.5050 C   0  0  0  0  0  3  0  0  0  0  0  0
  -30.1120  -16.0150   19.9850 N   0  0  0  0  0  0  0  0  0  0  0  0
  -25.2640  -13.8550   20.4440 C   0  0  0  0  0  0  0  0  0  0  0  0
  -24.2200  -13.0780   20.8640 C   0  0  0  0  0  0  0  0  0  0  0  0
  -24.6700  -11.7250   20.7690 C   0  0  0  0  0  0  0  0  0  0  0  0
  -26.2840  -12.9770   20.1190 N   0  0  0  0  0  0  0  0  0  0  0  0
  -25.9390  -11.6890   20.3760 N   0  0  0  0  0  0  0  0  0  0  0  0
  -23.9480  -10.4620   20.9740 C   0  0  0  0  0  0  0  0  0  0  0  0
  -24.4100   -9.4840   21.8810 C   0  0  0  0  0  3  0  0  0  0  0  0
  -23.6850   -8.2870   22.0730 C   0  0  0  0  0  3  0  0  0  0  0  0
  -22.4850   -8.0610   21.3590 C   0  0  0  0  0  0  0  0  0  0  0  0
  -22.0420   -9.0280   20.4390 C   0  0  0  0  0  3  0  0  0  0  0  0
  -22.7670  -10.2150   20.2440 C   0  0  0  0  0  3  0  0  0  0  0  0
  -21.7290   -6.9190   21.4620 O   0  0  0  0  0  0  0  0  0  0  0  0
  -21.6920   -6.1840   22.6200 C   0  0  0  0  0  0  0  0  0  0  0  0
  -21.2710   -6.7430   23.8460 C   0  0  0  0  0  3  0  0  0  0  0  0
  -21.1830   -5.9330   24.9960 C   0  0  0  0  0  3  0  0  0  0  0  0
  -21.5060   -4.5660   24.9200 C   0  0  0  0  0  0  0  0  0  0  0  0
  -21.9210   -4.0050   23.7000 C   0  0  0  0  0  3  0  0  0  0  0  0
  -22.0110   -4.8120   22.5520 C   0  0  0  0  0  0  0  0  0  0  0  0
  -22.3900   -4.2620   21.3720 F   0  0  0  0  0  0  0  0  0  0  0  0
  -21.4150   -3.7860   26.0230 F   0  0  0  0  0  0  0  0  0  0  0  0
  -22.8480  -13.5580   21.2360 C   0  0  0  0  0  0  0  0  0  0  0  0
  -22.1690  -12.8460   22.1300 N   0  0  0  0  0  0  0  0  0  0  0  0
  -22.3890  -14.6000   20.7730 O   0  0  0  0  0  0  0  0  0  0  0  0
  -22.5540  -12.0020   22.5270 H   0  0  0  0  0  0  0  0  0  0  0  0
  -21.2520  -13.1530   22.4220 H   0  0  0  0  0  0  0  0  0  0  0  0
  -25.4210  -15.2290   20.2880 N   0  0  0  0  0  0  0  0  0  0  0  0
  -24.6620  -15.8770   20.4690 H   0  0  0  0  0  0  0  0  0  0  0  0
  -26.2410  -15.6790   19.9050 H   0  0  0  0  0  0  0  0  0  0  0  0
  -31.4340  -21.1550   23.1090 C   0  0  0  0  0  1  0  0  0  0  0  0
  -31.5370  -21.3510   21.5910 C   0  0  0  0  0  3  0  0  0  0  0  0
  -32.5420  -22.3180   21.3450 O   0  0  0  0  0  0  0  0  0  0  0  0
  -32.2980  -23.1120   21.8100 H   0  0  0  0  0  0  0  0  0  0  0  0
  -28.0580  -25.0770   20.8900 C   0  0  0  0  0  2  0  0  0  0  0  0
  -28.4110  -26.3490   20.1810 O   0  0  0  0  0  0  0  0  0  0  0  0
  -24.6530  -31.8180   23.1340 C   0  0  0  0  0  0  0  0  0  0  0  0
  -27.3540  -27.2800   20.1080 C   0  0  0  0  0  0  0  0  0  0  0  0
  -23.4980  -30.4200   21.4620 C   0  0  0  0  0  3  0  0  0  0  0  0
  -24.9930  -28.8990   20.0470 C   0  0  0  0  0  0  0  0  0  0  0  0
  -26.0410  -30.7580   21.3340 C   0  0  0  0  0  2  0  0  0  0  0  0
  -26.1490  -29.3860   20.6740 C   0  0  0  0  0  0  0  0  0  0  0  0
  -27.3390  -28.5890   20.6940 C   0  0  0  0  0  3  0  0  0  0  0  0
  -26.1860  -26.8670   19.4360 C   0  0  0  0  0  3  0  0  0  0  0  0
  -25.0160  -27.6480   19.4140 C   0  0  0  0  0  3  0  0  0  0  0  0
  -23.7480  -29.7620   20.0800 C   0  0  0  0  0  2  0  0  0  0  0  0
  -24.7490  -31.0170   22.0330 N   0  0  0  0  0  0  0  0  0  0  0  0
  -23.5550  -32.0810   23.6480 O   0  0  0  0  0  0  0  0  0  0  0  0
  -22.8280  -29.3870   22.4010 C   0  0  0  0  0  0  0  0  0  0  0  0
  -21.5010  -29.2190   22.2690 N   0  0  0  0  0  0  0  0  0  0  0  0
  -23.5010  -28.7430   23.2090 O   0  0  0  0  0  0  0  0  0  0  0  0
  -21.0160  -29.7940   21.5930 H   0  0  0  0  0  0  0  0  0  0  0  0
  -18.1110  -28.0470   22.7580 C   0  0  0  0  0  0  0  0  0  0  0  0
  -20.6740  -28.2730   23.0200 C   0  0  0  0  0  3  0  0  0  0  0  0
  -20.7550  -26.8540   22.4100 C   0  0  0  0  0  2  0  0  0  0  0  0
  -19.6450  -26.5680   21.3940 C   0  0  0  0  0  2  0  0  0  0  0  0
  -18.2680  -26.7130   22.0490 C   0  0  0  0  0  2  0  0  0  0  0  0
  -19.2410  -28.7870   23.2000 C   0  0  0  0  0  0  0  0  0  0  0  0
  -19.0390  -30.0370   23.8230 C   0  0  0  0  0  3  0  0  0  0  0  0
  -17.7400  -30.5480   24.0080 C   0  0  0  0  0  3  0  0  0  0  0  0
  -16.6250  -29.8060   23.5830 C   0  0  0  0  0  3  0  0  0  0  0  0
  -16.8120  -28.5570   22.9640 C   0  0  0  0  0  3  0  0  0  0  0  0
  -25.9150  -32.4620   23.7860 C   0  0  0  0  0  3  0  0  0  0  0  0
  -26.4210  -31.6820   25.0620 C   0  0  1  0  0  0  0  0  0  0  0  0
  -25.3130  -31.4150   26.1080 C   0  0  0  0  0  1  0  0  0  0  0  0
  -27.0290  -30.3170   24.6640 C   0  0  0  0  0  1  0  0  0  0  0  0
  -27.5480  -32.4830   25.7530 C   0  0  0  0  0  1  0  0  0  0  0  0
  -25.5790  -33.8520   24.1280 N   0  0  0  0  0  0  0  0  0  0  0  0
  -25.9050  -34.9200   23.3870 C   0  0  0  0  0  0  0  0  0  0  0  0
  -26.5880  -34.8410   22.3630 O   0  0  0  0  0  0  0  0  0  0  0  0
  -24.9700  -33.9860   24.9220 H   0  0  0  0  0  0  0  0  0  0  0  0
  -24.1520  -36.6910   23.0380 C   0  0  0  0  0  1  0  0  0  0  0  0
  -25.3910  -36.2950   23.8580 C   0  0  0  0  0  3  0  0  0  0  0  0
  -27.5020  -37.2040   24.7240 C   0  0  0  0  0  1  0  0  0  0  0  0
  -26.4070  -37.3670   23.7710 N   0  0  0  0  0  0  0  0  0  0  0  0
  -25.9850  -38.2780   23.9230 H   0  0  0  0  0  0  0  0  0  0  0  0
  1  4  2  0
  1  3  1  0
  3  5  2  0
  4  6  1  0
  5  2  1  0
  5 51  1  0
  6 54  1  0
  6  2  2  0
  7  4  1  0
  8 21  1  0
  9 14  1  0
 10 11  1  0
 10  9  1  0
 12 11  1  0
 12 25  1  0
 12 13  1  0
 14  8  1  0
 14 13  1  0
 15  8  2  0
 16 18  1  0
 17 19  1  0
 17 20  1  0
 19 21  1  0
 20  3  1  0
 20 16  1  0
 21 18  1  0
 22 23  2  0
 23 42  1  0
 24 23  1  0
 24 27  1  0
 25 26  1  0
 25 22  1  0
 26 24  2  0
 27 28  1  0
 28 29  2  0
 30 33  1  0
 30 29  1  0
 31 30  2  0
 32 31  1  0
 32 27  2  0
 33 34  1  0
 34 35  1  0
 35 36  2  0
 37 36  1  0
 37 41  1  0
 38 37  2  0
 39 34  2  0
 39 38  1  0
 40 39  1  0
 42 43  1  0
 43 46  1  0
 43 45  1  0
 44 42  2  0
 47 22  1  0
 47 48  1  0
 49 47  1  0
 51 50  1  0
 52 51  1  0
 52 53  1  0
 55 54  1  0
 56 67  2  0
 57 55  1  0
 57 62  1  0
 58 66  1  0
 58 68  1  0
 59 65  1  0
 59 61  1  0
 60 66  1  0
 61 62  2  0
 61 60  1  0
 63 57  2  0
 64 63  1  0
 64 59  2  0
 65 58  1  0
 66 56  1  0
 68 70  2  0
 69 68  1  0
 71 69  1  0
 72 81  2  0
 72 77  1  0
 73 69  1  0
 73 77  1  0
 74 73  1  0
 75 76  1  0
 75 74  1  0
 76 72  1  0
 77 78  2  0
 78 79  1  0
 80 79  2  0
 81 80  1  0
 82 56  1  0
 82 87  1  0
 82 83  1  0
 83 86  1  1
 83 84  1  0
 85 83  1  0
 87 90  1  0
 88 92  1  0
 88 87  1  0
 89 88  2  0
 92 91  1  0
 94 92  1  0
 94 95  1  0
 94 93  1  0
M  ISO  4   8 100  21 100  54 101  55 101
M  END
>  <TORSDO>  (32) 
F 19

>  <SCORE>  (32) 
-14.737

>  <name>  (32) 
31

>  <ligand_id>  (32) 
31

>  <original_smiles>  (32) 
[H]OC([H])(c1c([H])c(C([H])([H])Oc2c([H])c([H])c3c(c2[H])C([H])([H])N(C(=O)C([H])(N([H])C(=O)C([H])(N([H])C([H])([H])[H])C([H])([H])[H])C(C([H])([H])[H])(C([H])([H])[H])C([H])([H])[H])C([H])(C(=O)N([H])C2([H])c4c([H])c([H])c([H])c([H])c4C([H])([H])C([H])([H])C2([H])[H])C3([H])[H])c(C([H])([H])[H])c([H])c1C1([H])C([H])([H])C([H])([H])N(C(=O)N2C([H])([H])C([H])([H])C([H])([H])C([H])(n3nc(-c4c([H])c([H])c(Oc5c([H])c([H])c(F)c([H])c5F)c([H])c4[H])c(C(=O)N([H])[H])c3N([H])[H])C2([H])[H])C([H])([H])C1([H])[H])C([H])([H])[H]

>  <smiles>  (32) 
[H]OC([H])(c1c([H])c(C([H])([H])Oc2c([H])c([H])c3c(c2[H])C([H])([H])N(C(=O)C([H])(N([H])C(=O)C([H])(N([H])C([H])([H])[H])C([H])([H])[H])C(C([H])([H])[H])(C([H])([H])[H])C([H])([H])[H])C([H])(C(=O)N([H])C2([H])c4c([H])c([H])c([H])c([H])c4C([H])([H])C([H])([H])C2([H])[H])C3([H])[H])c(C([H])([H])[H])c([H])c1C1([H])C([H])([H])C([H])([H])N(C(=O)N2C([H])([H])C([H])([H])C([H])([H])C([H])(n3nc(-c4c([H])c([H])c(Oc5c([H])c([H])c(F)c([H])c5F)c([H])c4[H])c(C(=O)N([H])[H])c3N([H])[H])C2([H])[H])C([H])([H])C1([H])[H])C([H])([H])[H]

$$$$
32:0:0
     RDKit          3D

 94103  0  0  1  0  0  0  0  0999 V2000
  -28.5510  -22.9560   21.4570 C   0  0  0  0  0  3  0  0  0  0  0  0
  -28.7410  -23.9340   20.4500 C   0  0  0  0  0  0  0  0  0  0  0  0
  -28.9850  -21.6030   21.3600 C   0  0  0  0  0  0  0  0  0  0  0  0
  -29.4070  -23.4760   19.2780 C   0  0  0  0  0  0  0  0  0  0  0  0
  -29.9180  -22.1250   19.1910 C   0  0  0  0  0  0  0  0  0  0  0  0
  -29.6960  -21.1360   20.2160 C   0  0  0  0  0  0  0  0  0  0  0  0
  -28.7040  -20.7220   22.5620 C   0  0  0  0  0  1  0  0  0  0  0  0
  -29.5540  -24.4360   18.1020 C   0  0  0  0  0  1  0  0  0  0  0  0
  -30.7250  -21.7270   17.9540 C   0  0  0  0  0  1  0  0  0  0  0  0
  -30.2450  -19.8080   20.0460 N   0  0  0  0  0  0  0  0  0  0  0  0
  -30.8600  -19.7460   19.2430 H   0  0  0  0  0  0  0  0  0  0  0  0
  -30.9670  -14.8600   19.9760 C   0  0  0  0  0  0  0  0  0  0  0  0
  -30.6710  -12.6300   18.9100 C   0  0  0  0  0  2  0  0  0  0  0  0
  -29.6470  -12.7510   17.7610 C   0  0  0  0  0  2  0  0  0  0  0  0
  -28.2150  -12.5620   18.2930 C   0  0  0  0  0  2  0  0  0  0  0  0
  -27.9290  -13.4130   19.5600 C   0  0  0  0  0  3  0  0  0  0  0  0
  -29.0680  -13.2860   20.5970 C   0  0  0  0  0  2  0  0  0  0  0  0
  -30.3230  -13.6480   19.9250 N   0  0  0  0  0  0  0  0  0  0  0  0
  -32.0770  -14.9980   19.4510 O   0  0  0  0  0  0  0  0  0  0  0  0
  -30.3940  -17.9290   21.7960 C   0  0  0  0  0  2  0  0  0  0  0  0
  -30.2020  -16.3950   21.7560 C   0  0  0  0  0  2  0  0  0  0  0  0
  -30.1800  -17.2490   19.5660 C   0  0  0  0  0  2  0  0  0  0  0  0
  -29.7730  -18.4550   20.4970 C   0  0  0  0  0  3  0  0  0  0  0  0
  -30.2420  -15.9730   20.3520 N   0  0  0  0  0  0  0  0  0  0  0  0
  -25.6050  -13.9610   20.5020 C   0  0  0  0  0  0  0  0  0  0  0  0
  -24.5690  -13.1650   20.9110 C   0  0  0  0  0  0  0  0  0  0  0  0
  -25.0250  -11.8190   20.7690 C   0  0  0  0  0  0  0  0  0  0  0  0
  -26.6250  -13.0990   20.1370 N   0  0  0  0  0  0  0  0  0  0  0  0
  -26.2870  -11.8020   20.3570 N   0  0  0  0  0  0  0  0  0  0  0  0
  -24.3130  -10.5470   20.9470 C   0  0  0  0  0  0  0  0  0  0  0  0
  -24.7290   -9.5940   21.9030 C   0  0  0  0  0  3  0  0  0  0  0  0
  -24.0170   -8.3870   22.0710 C   0  0  0  0  0  3  0  0  0  0  0  0
  -22.8730   -8.1230   21.2810 C   0  0  0  0  0  0  0  0  0  0  0  0
  -22.4750   -9.0640   20.3150 C   0  0  0  0  0  3  0  0  0  0  0  0
  -23.1890  -10.2630   20.1460 C   0  0  0  0  0  3  0  0  0  0  0  0
  -22.1360   -6.9650   21.3540 O   0  0  0  0  0  0  0  0  0  0  0  0
  -21.9330   -6.3150   22.5450 C   0  0  0  0  0  0  0  0  0  0  0  0
  -21.3120   -6.9510   23.6440 C   0  0  0  0  0  3  0  0  0  0  0  0
  -21.0590   -6.2260   24.8250 C   0  0  0  0  0  3  0  0  0  0  0  0
  -21.4150   -4.8670   24.9070 C   0  0  0  0  0  0  0  0  0  0  0  0
  -22.0280   -4.2310   23.8130 C   0  0  0  0  0  3  0  0  0  0  0  0
  -22.2830   -4.9530   22.6350 C   0  0  0  0  0  0  0  0  0  0  0  0
  -22.8550   -4.3310   21.5750 F   0  0  0  0  0  0  0  0  0  0  0  0
  -21.1660   -4.1670   26.0390 F   0  0  0  0  0  0  0  0  0  0  0  0
  -23.1990  -13.6250   21.3210 C   0  0  0  0  0  0  0  0  0  0  0  0
  -22.5490  -12.8870   22.2140 N   0  0  0  0  0  0  0  0  0  0  0  0
  -22.7170  -14.6690   20.8860 O   0  0  0  0  0  0  0  0  0  0  0  0
  -22.9540  -12.0410   22.5860 H   0  0  0  0  0  0  0  0  0  0  0  0
  -21.6340  -13.1760   22.5330 H   0  0  0  0  0  0  0  0  0  0  0  0
  -25.7560  -15.3400   20.3900 N   0  0  0  0  0  0  0  0  0  0  0  0
  -25.0040  -15.9860   20.6030 H   0  0  0  0  0  0  0  0  0  0  0  0
  -26.5880  -15.8000   20.0400 H   0  0  0  0  0  0  0  0  0  0  0  0
  -28.1020  -25.3530   20.7370 C   0  0  0  0  0  2  0  0  0  0  0  0
  -28.4050  -26.6060   20.0080 O   0  0  0  0  0  0  0  0  0  0  0  0
  -24.6410  -31.8960   23.1650 C   0  0  0  0  0  0  0  0  0  0  0  0
  -27.3170  -27.4880   19.9720 C   0  0  0  0  0  0  0  0  0  0  0  0
  -23.4540  -30.5200   21.4950 C   0  0  0  0  0  3  0  0  0  0  0  0
  -24.9260  -29.0460   20.0110 C   0  0  0  0  0  0  0  0  0  0  0  0
  -25.9840  -30.8980   21.3030 C   0  0  0  0  0  2  0  0  0  0  0  0
  -26.0880  -29.5410   20.6180 C   0  0  0  0  0  0  0  0  0  0  0  0
  -27.2910  -28.7740   20.5910 C   0  0  0  0  0  3  0  0  0  0  0  0
  -26.1410  -27.0540   19.3230 C   0  0  0  0  0  3  0  0  0  0  0  0
  -24.9540  -27.8070   19.3520 C   0  0  0  0  0  3  0  0  0  0  0  0
  -23.6710  -29.8890   20.0940 C   0  0  0  0  0  2  0  0  0  0  0  0
  -24.7120  -31.1200   22.0440 N   0  0  0  0  0  0  0  0  0  0  0  0
  -23.5570  -32.1380   23.7140 O   0  0  0  0  0  0  0  0  0  0  0  0
  -22.8180  -29.4630   22.4300 C   0  0  0  0  0  0  0  0  0  0  0  0
  -21.5000  -29.2460   22.2870 N   0  0  0  0  0  0  0  0  0  0  0  0
  -23.5090  -28.8460   23.2430 O   0  0  0  0  0  0  0  0  0  0  0  0
  -21.0000  -29.7980   21.6040 H   0  0  0  0  0  0  0  0  0  0  0  0
  -18.1620  -27.9170   22.7170 C   0  0  0  0  0  0  0  0  0  0  0  0
  -20.7040  -28.2700   23.0340 C   0  0  0  0  0  3  0  0  0  0  0  0
  -20.8700  -26.8500   22.4470 C   0  0  0  0  0  2  0  0  0  0  0  0
  -19.7980  -26.4960   21.4100 C   0  0  0  0  0  2  0  0  0  0  0  0
  -18.4010  -26.5820   22.0320 C   0  0  0  0  0  2  0  0  0  0  0  0
  -19.2430  -28.7160   23.1740 C   0  0  0  0  0  0  0  0  0  0  0  0
  -18.9660  -29.9630   23.7750 C   0  0  0  0  0  3  0  0  0  0  0  0
  -17.6410  -30.4130   23.9230 C   0  0  0  0  0  3  0  0  0  0  0  0
  -16.5730  -29.6110   23.4820 C   0  0  0  0  0  3  0  0  0  0  0  0
  -16.8360  -28.3650   22.8850 C   0  0  0  0  0  3  0  0  0  0  0  0
  -25.9170  -32.5350   23.7960 C   0  0  0  0  0  3  0  0  0  0  0  0
  -25.5870  -33.9210   24.1560 N   0  0  0  0  0  0  0  0  0  0  0  0
  -25.9120  -34.9950   23.4260 C   0  0  0  0  0  0  0  0  0  0  0  0
  -26.5920  -34.9250   22.3980 O   0  0  0  0  0  0  0  0  0  0  0  0
  -24.9850  -34.0500   24.9560 H   0  0  0  0  0  0  0  0  0  0  0  0
  -24.1710  -36.7800   23.0920 C   0  0  0  0  0  1  0  0  0  0  0  0
  -25.4040  -36.3670   23.9110 C   0  0  0  0  0  3  0  0  0  0  0  0
  -27.5150  -37.2510   24.8000 C   0  0  0  0  0  1  0  0  0  0  0  0
  -26.4260  -37.4340   23.8430 N   0  0  0  0  0  0  0  0  0  0  0  0
  -26.0090  -38.3440   24.0100 H   0  0  0  0  0  0  0  0  0  0  0  0
  -26.4490  -31.7460   25.0550 C   0  0  1  0  0  0  0  0  0  0  0  0
  -25.3620  -31.4620   26.1180 C   0  0  0  0  0  1  0  0  0  0  0  0
  -27.0580  -30.3890   24.6320 C   0  0  0  0  0  1  0  0  0  0  0  0
  -27.5850  -32.5470   25.7330 C   0  0  0  0  0  1  0  0  0  0  0  0
  2 53  1  0
  2  1  2  0
  3  1  1  0
  3  7  1  0
  4  2  1  0
  5  4  2  0
  5  6  1  0
  6  3  2  0
  8  4  1  0
  9  5  1  0
 10  6  1  0
 11 10  1  0
 12 24  1  0
 13 18  1  0
 14 15  1  0
 14 13  1  0
 16 15  1  0
 16 28  1  0
 16 17  1  0
 18 12  1  0
 18 17  1  0
 19 12  2  0
 21 20  1  0
 22 24  1  0
 22 23  1  0
 23 10  1  0
 23 20  1  0
 24 21  1  0
 25 26  2  0
 26 45  1  0
 27 26  1  0
 27 30  1  0
 28 29  1  0
 28 25  1  0
 29 27  2  0
 30 31  1  0
 31 32  2  0
 33 36  1  0
 33 32  1  0
 34 33  2  0
 35 34  1  0
 35 30  2  0
 36 37  1  0
 37 42  2  0
 37 38  1  0
 38 39  2  0
 39 40  1  0
 40 44  1  0
 41 40  2  0
 42 41  1  0
 43 42  1  0
 45 46  1  0
 46 49  1  0
 46 48  1  0
 47 45  2  0
 50 25  1  0
 50 51  1  0
 52 50  1  0
 54 53  1  0
 55 66  2  0
 56 54  1  0
 56 61  1  0
 57 65  1  0
 57 67  1  0
 58 64  1  0
 58 60  1  0
 59 65  1  0
 60 59  1  0
 61 60  2  0
 62 63  1  0
 62 56  2  0
 63 58  2  0
 64 57  1  0
 65 55  1  0
 67 69  2  0
 68 67  1  0
 70 68  1  0
 71 80  2  0
 71 76  1  0
 72 68  1  0
 72 76  1  0
 73 72  1  0
 74 75  1  0
 74 73  1  0
 75 71  1  0
 76 77  2  0
 77 78  1  0
 79 78  2  0
 80 79  1  0
 81 55  1  0
 81 82  1  0
 81 91  1  0
 82 85  1  0
 83 87  1  0
 83 82  1  0
 84 83  2  0
 87 86  1  0
 89 87  1  0
 89 90  1  0
 89 88  1  0
 91 94  1  1
 91 92  1  0
 93 91  1  0
M  ISO  4  12 100  24 100  53 101  54 101
M  END
>  <TORSDO>  (33) 
F 18

>  <SCORE>  (33) 
-12.650

>  <name>  (33) 
32

>  <ligand_id>  (33) 
32

>  <original_smiles>  (33) 
[H]c1c([H])c([H])c2c(c1[H])C([H])([H])C([H])([H])C([H])([H])C2([H])N([H])C(=O)C1([H])N(C(=O)C([H])(N([H])C(=O)C([H])(N([H])C([H])([H])[H])C([H])([H])[H])C(C([H])([H])[H])(C([H])([H])[H])C([H])([H])[H])C([H])([H])c2c([H])c(OC([H])([H])c3c([H])c(C([H])([H])[H])c(N([H])C4([H])C([H])([H])N(C(=O)N5C([H])([H])C([H])([H])C([H])([H])C([H])(n6nc(-c7c([H])c([H])c(Oc8c([H])c([H])c(F)c([H])c8F)c([H])c7[H])c(C(=O)N([H])[H])c6N([H])[H])C5([H])[H])C([H])([H])C4([H])[H])c(C([H])([H])[H])c3C([H])([H])[H])c([H])c([H])c2C1([H])[H]

>  <smiles>  (33) 
[H]c1c([H])c([H])c2c(c1[H])C([H])([H])C([H])([H])C([H])([H])C2([H])N([H])C(=O)C1([H])N(C(=O)C([H])(N([H])C(=O)C([H])(N([H])C([H])([H])[H])C([H])([H])[H])C(C([H])([H])[H])(C([H])([H])[H])C([H])([H])[H])C([H])([H])c2c([H])c(OC([H])([H])c3c([H])c(C([H])([H])[H])c(N([H])C4([H])C([H])([H])N(C(=O)N5C([H])([H])C([H])([H])C([H])([H])C([H])(n6nc(-c7c([H])c([H])c(Oc8c([H])c([H])c(F)c([H])c8F)c([H])c7[H])c(C(=O)N([H])[H])c6N([H])[H])C5([H])[H])C([H])([H])C4([H])[H])c(C([H])([H])[H])c3C([H])([H])[H])c([H])c([H])c2C1([H])[H]

$$$$
33:0:0
     RDKit          3D

 98101  0  0  1  0  0  0  0  0999 V2000
  -24.3840  -28.5830   24.2380 C   0  0  0  0  0  2  0  0  0  0  0  0
  -24.7850  -30.2800   21.1710 C   0  0  0  0  0  2  0  0  0  0  0  0
  -23.4660  -29.9450   23.7990 C   0  0  0  0  0  0  0  0  0  0  0  0
  -25.3780  -27.6430   23.2720 C   0  0  0  0  0  3  0  0  0  0  0  0
  -23.5520  -30.7780   22.2590 C   0  0  0  0  0  0  0  0  0  0  0  0
  -25.9800  -28.1230   21.9540 C   0  0  0  0  0  1  0  0  0  0  0  0
  -22.3900  -30.3860   24.7970 C   0  0  0  0  0  1  0  0  0  0  0  0
  -22.5720  -31.8470   21.8280 C   0  0  0  0  0  1  0  0  0  0  0  0
  -27.3270  -26.5300   22.0210 N   0  0  0  0  0  1  0  0  0  0  0  0
  -27.9850  -26.7530   22.7620 H   0  0  0  0  0  0  0  0  0  0  0  0
  -29.8040  -17.3300   20.3780 C   0  0  0  0  0  2  0  0  0  0  0  0
  -30.2960  -14.4700   19.3570 C   0  0  0  0  0  2  0  0  0  0  0  0
  -29.6330  -13.4690   18.2540 C   0  0  0  0  0  2  0  0  0  0  0  0
  -28.4020  -12.7370   18.7840 C   0  0  0  0  0  2  0  0  0  0  0  0
  -27.6790  -13.7390   19.6860 C   0  0  0  0  0  3  0  0  0  0  0  0
  -28.5630  -14.5810   20.7310 C   0  0  0  0  0  2  0  0  0  0  0  0
  -29.4520  -15.7060   20.1030 N   0  0  0  0  0  0  0  0  0  0  0  0
  -31.0420  -17.0040   20.1780 O   0  0  0  0  0  1  0  0  0  0  0  0
  -27.3560  -22.4590   21.1960 C   0  0  0  0  0  1  0  0  0  0  0  0
  -29.1230  -22.8100   21.6950 C   0  0  0  0  0  1  0  0  0  0  0  0
  -27.9130  -20.4990   20.6460 C   0  0  0  0  0  2  0  0  0  0  0  0
  -29.6870  -20.8970   21.0400 C   0  0  0  0  0  2  0  0  0  0  0  0
  -27.8970  -24.4030   21.4290 C   0  0  0  0  0 15  0  0  0  0  0  0
  -29.1800  -19.1470   20.7240 N   0  0  0  0  0  2  0  0  0  0  0  0
  -25.3470  -14.0520   20.5410 C   0  0  0  0  0  0  0  0  0  0  0  0
  -24.3260  -13.2260   20.9060 C   0  0  0  0  0  0  0  0  0  0  0  0
  -24.8190  -11.8890   20.7750 C   0  0  0  0  0  0  0  0  0  0  0  0
  -26.4120  -13.2420   20.2270 N   0  0  0  0  0  0  0  0  0  0  0  0
  -26.1070  -11.9160   20.3960 N   0  0  0  0  0  0  0  0  0  0  0  0
  -24.0960  -10.6090   20.9370 C   0  0  0  0  0  0  0  0  0  0  0  0
  -24.5330   -9.6120   21.8380 C   0  0  0  0  0  3  0  0  0  0  0  0
  -23.7980   -8.4150   22.0000 C   0  0  0  0  0  3  0  0  0  0  0  0
  -22.6050   -8.2040   21.2680 C   0  0  0  0  0  0  0  0  0  0  0  0
  -22.1790   -9.1930   20.3630 C   0  0  0  0  0  3  0  0  0  0  0  0
  -22.9160  -10.3790   20.1980 C   0  0  0  0  0  3  0  0  0  0  0  0
  -21.8460   -7.0600   21.3390 O   0  0  0  0  0  0  0  0  0  0  0  0
  -21.7950   -6.2940   22.4780 C   0  0  0  0  0  0  0  0  0  0  0  0
  -21.3950   -6.8340   23.7200 C   0  0  0  0  0  3  0  0  0  0  0  0
  -21.2900   -5.9990   24.8510 C   0  0  0  0  0  3  0  0  0  0  0  0
  -21.5770   -4.6250   24.7420 C   0  0  0  0  0  0  0  0  0  0  0  0
  -21.9730   -4.0850   23.5060 C   0  0  0  0  0  3  0  0  0  0  0  0
  -22.0790   -4.9160   22.3780 C   0  0  0  0  0  0  0  0  0  0  0  0
  -22.4370   -4.3840   21.1840 F   0  0  0  0  0  0  0  0  0  0  0  0
  -21.4700   -3.8240   25.8270 F   0  0  0  0  0  0  0  0  0  0  0  0
  -22.9410  -13.6760   21.2610 C   0  0  0  0  0  0  0  0  0  0  0  0
  -22.2600  -12.9470   22.1370 N   0  0  0  0  0  0  0  0  0  0  0  0
  -22.4770  -14.7200   20.8030 O   0  0  0  0  0  0  0  0  0  0  0  0
  -22.6470  -12.1020   22.5350 H   0  0  0  0  0  0  0  0  0  0  0  0
  -21.3350  -13.2420   22.4190 H   0  0  0  0  0  0  0  0  0  0  0  0
  -25.4680  -15.4330   20.4210 N   0  0  0  0  0  0  0  0  0  0  0  0
  -24.6990  -16.0750   20.5680 H   0  0  0  0  0  0  0  0  0  0  0  0
  -26.3090  -15.8890   20.0960 H   0  0  0  0  0  0  0  0  0  0  0  0
  -25.0290  -26.1450   22.5620 C   0  0  0  0  0  3  0  0  0  0  0  0
  -24.6510  -23.6810   23.5300 C   0  0  0  0  0  1  0  0  0  0  0  0
  -26.8120  -24.8170   24.1240 C   0  0  0  0  0  1  0  0  0  0  0  0
  -25.3530  -25.0410   23.6570 C   0  0  0  0  0  3  0  0  0  0  0  0
  -25.1780  -25.8860   20.7480 C   0  0  0  0  0  2  0  0  0  0  0  0
  -26.4590  -26.1440   19.6960 O   0  0  0  0  0  0  0  0  0  0  0  0
  -25.3210  -31.7690   23.2990 C   0  0  0  0  0  0  0  0  0  0  0  0
  -27.1490  -27.2840   19.1980 C   0  0  0  0  0  3  0  0  0  0  0  0
  -23.4790  -28.6540   21.5970 C   0  0  0  0  0  3  0  0  0  0  0  0
  -25.2320  -28.8330   19.1920 C   0  0  0  0  0  3  0  0  0  0  0  0
  -26.7870  -30.4710   21.4800 C   0  0  0  0  0  2  0  0  0  0  0  0
  -26.5600  -29.5400   19.8580 C   0  0  0  0  0  3  0  0  0  0  0  0
  -27.5260  -28.5390   19.7940 C   0  0  0  0  0  2  0  0  0  0  0  0
  -26.4410  -27.3310   18.0310 C   0  0  0  0  0  2  0  0  0  0  0  0
  -25.2650  -27.9860   18.1410 C   0  0  0  0  0  2  0  0  0  0  0  0
  -23.6970  -28.4550   19.8260 C   0  0  0  0  0  3  0  0  0  0  0  0
  -25.5080  -30.3290   22.7350 N   0  0  0  0  0  0  0  0  0  0  0  0
  -24.2450  -32.4110   23.5770 O   0  0  0  0  0  0  0  0  0  0  0  0
  -22.1200  -28.3320   22.1340 C   0  0  0  0  0  0  0  0  0  0  0  0
  -20.9670  -29.0190   22.0660 N   0  0  0  0  0  0  0  0  0  0  0  0
  -22.2610  -27.5160   23.0100 O   0  0  0  0  0  0  0  0  0  0  0  0
  -20.7640  -29.8000   21.4600 H   0  0  0  0  0  0  0  0  0  0  0  0
  -17.5780  -28.6160   22.5780 C   0  0  0  0  0  0  0  0  0  0  0  0
  -19.9920  -28.3180   22.8170 C   0  0  0  0  0  3  0  0  0  0  0  0
  -19.7530  -26.9190   22.1370 C   0  0  0  0  0  2  0  0  0  0  0  0
  -18.8540  -27.0890   20.9710 C   0  0  0  0  0  2  0  0  0  0  0  0
  -17.5190  -27.4320   21.6130 C   0  0  0  0  0  2  0  0  0  0  0  0
  -18.7900  -29.1230   23.0640 C   0  0  0  0  0  0  0  0  0  0  0  0
  -18.8480  -30.2850   23.8650 C   0  0  0  0  0  3  0  0  0  0  0  0
  -17.6510  -30.9080   24.2360 C   0  0  0  0  0  3  0  0  0  0  0  0
  -16.4250  -30.3580   23.8220 C   0  0  0  0  0  3  0  0  0  0  0  0
  -16.3920  -29.2200   22.9960 C   0  0  0  0  0  3  0  0  0  0  0  0
  -26.3500  -32.6810   23.8460 C   0  0  0  0  0  3  0  0  0  0  0  0
  -26.6100  -31.9000   25.1670 C   0  0  1  0  0  0  0  0  0  0  0  0
  -25.3680  -31.6010   26.0830 C   0  0  0  0  0  1  0  0  0  0  0  0
  -27.3230  -30.5420   24.8840 C   0  0  0  0  0  1  0  0  0  0  0  0
  -27.5840  -32.7550   25.9620 C   0  0  0  0  0  1  0  0  0  0  0  0
  -25.8090  -34.0730   24.1680 N   0  0  0  0  0  0  0  0  0  0  0  0
  -25.8360  -35.1650   23.3960 C   0  0  0  0  0  0  0  0  0  0  0  0
  -26.4090  -35.1760   22.3080 O   0  0  0  0  0  0  0  0  0  0  0  0
  -25.2070  -34.1100   24.9730 H   0  0  0  0  0  0  0  0  0  0  0  0
  -23.9690  -36.9200   23.1260 C   0  0  0  0  0  1  0  0  0  0  0  0
  -25.2060  -36.4820   23.9360 C   0  0  0  0  0  3  0  0  0  0  0  0
  -27.2740  -37.3940   24.9020 C   0  0  0  0  0  1  0  0  0  0  0  0
  -26.1690  -37.6050   23.9710 N   0  0  0  0  0  0  0  0  0  0  0  0
  -25.7010  -38.4720   24.2230 H   0  0  0  0  0  0  0  0  0  0  0  0
  2  5  1  0
  2 69  1  0
  3  1  1  0
  3  7  1  0
  4  6  1  0
  4  1  1  0
  5  3  2  0
  8  5  1  0
  9 10  1  0
 12 17  1  0
 13 14  1  0
 13 12  1  0
 15 14  1  0
 15 28  1  0
 15 16  1  0
 17 11  1  0
 17 16  1  0
 18 11  1  0
 19 20  1  0
 21 24  1  0
 21 22  1  0
 24 22  1  0
 25 26  2  0
 26 45  1  0
 27 26  1  0
 27 30  1  0
 28 29  1  0
 28 25  1  0
 29 27  2  0
 30 31  1  0
 31 32  2  0
 33 36  1  0
 33 32  1  0
 34 33  2  0
 35 34  1  0
 35 30  2  0
 36 37  1  0
 37 38  1  0
 38 39  2  0
 40 39  1  0
 40 44  1  0
 41 40  2  0
 42 37  2  0
 42 41  1  0
 43 42  1  0
 45 46  1  0
 46 49  1  0
 46 48  1  0
 47 45  2  0
 50 25  1  0
 50 51  1  0
 52 50  1  0
 53  4  1  0
 53 56  1  0
 54 56  1  0
 56 55  1  0
 57 53  1  0
 58 57  1  0
 59 70  2  0
 60 66  1  0
 60 58  1  0
 60 65  1  0
 61 71  1  0
 62 68  1  0
 62 64  1  0
 63 69  1  0
 64 65  1  0
 64 63  1  0
 66 67  1  0
 67 62  1  0
 68 61  2  0
 69 59  1  0
 71 73  2  0
 72 71  1  0
 74 72  1  0
 75 84  2  0
 75 80  1  0
 76 72  1  0
 76 80  1  0
 77 76  1  0
 78 79  1  0
 78 77  1  0
 79 75  1  0
 80 81  2  0
 81 82  1  0
 83 82  2  0
 84 83  1  0
 85 59  1  0
 85 90  1  0
 85 86  1  0
 86 89  1  1
 86 87  1  0
 88 86  1  0
 90 93  1  0
 91 95  1  0
 91 90  1  0
 92 91  2  0
 95 94  1  0
 95 97  1  0
 97 98  1  0
 97 96  1  0
M  ISO  4  11 100  24 100  57 101  58 101
M  END
>  <TORSDO>  (34) 
F 20

>  <SCORE>  (34) 
-9.715

>  <name>  (34) 
33

>  <ligand_id>  (34) 
33

>  <original_smiles>  (34) 
[H]c1c([H])c([H])c2c(c1[H])C([H])([H])C([H])([H])C([H])([H])C2([H])N([H])C(=O)C1([H])N(C(=O)C([H])(N([H])C(=O)C([H])(N([H])C([H])([H])[H])C([H])([H])[H])C(C([H])([H])[H])(C([H])([H])[H])C([H])([H])[H])C([H])([H])c2c([H])c(OC([H])([H])C([H])(c3c([H])c(C([H])([H])[H])c(C([H])([H])[H])c([H])c3N([H])C3([H])C([H])([H])C([H])([H])N(C(=O)N4C([H])([H])C([H])([H])C([H])([H])C([H])(n5nc(-c6c([H])c([H])c(Oc7c([H])c([H])c(F)c([H])c7F)c([H])c6[H])c(C(=O)N([H])[H])c5N([H])[H])C4([H])[H])C([H])([H])C3([H])[H])C([H])(C([H])([H])[H])C([H])([H])[H])c([H])c([H])c2C1([H])[H]

>  <smiles>  (34) 
[H]c1c([H])c([H])c2c(c1[H])C([H])([H])C([H])([H])C([H])([H])C2([H])N([H])C(=O)C1([H])N(C(=O)C([H])(N([H])C(=O)C([H])(N([H])C([H])([H])[H])C([H])([H])[H])C(C([H])([H])[H])(C([H])([H])[H])C([H])([H])[H])C([H])([H])c2c([H])c(OC([H])([H])C([H])(c3c([H])c(C([H])([H])[H])c(C([H])([H])[H])c([H])c3N([H])C3([H])C([H])([H])C([H])([H])N(C(=O)N4C([H])([H])C([H])([H])C([H])([H])C([H])(n5nc(-c6c([H])c([H])c(Oc7c([H])c([H])c(F)c([H])c7F)c([H])c6[H])c(C(=O)N([H])[H])c5N([H])[H])C4([H])[H])C([H])([H])C3([H])[H])C([H])(C([H])([H])[H])C([H])([H])[H])c([H])c([H])c2C1([H])[H]

$$$$
34:0:0
     RDKit          3D

107117  0  0  1  0  0  0  0  0999 V2000
  -24.7640  -24.6800   20.9420 C   0  0  0  0  0  3  0  0  0  0  0  0
  -26.9790  -23.7510   20.6180 C   0  0  0  0  0  3  0  0  0  0  0  0
  -25.0330  -22.3610   20.2250 C   0  0  0  0  0  3  0  0  0  0  0  0
  -26.1640  -24.9130   20.9330 C   0  0  0  0  0  0  0  0  0  0  0  0
  -24.2060  -23.4360   20.5910 C   0  0  0  0  0  0  0  0  0  0  0  0
  -26.4360  -22.4760   20.2530 C   0  0  0  0  0  0  0  0  0  0  0  0
  -22.7030  -23.2750   20.5280 C   0  0  0  0  0  1  0  0  0  0  0  0
  -26.4850  -28.6740   18.5260 C   0  0  0  0  0  3  0  0  0  0  0  0
  -28.6130  -26.1250   21.1020 C   0  0  0  0  0  3  0  0  0  0  0  0
  -28.2600  -28.8310   17.9150 C   0  0  0  0  0  2  0  0  0  0  0  0
  -29.8520  -26.8420   19.8570 C   0  0  0  0  0  3  0  0  0  0  0  0
  -26.7160  -26.4710   21.0740 C   0  0  0  0  0  3  0  0  0  0  0  0
  -26.4240  -26.6970   22.5760 C   0  0  0  0  0  1  0  0  0  0  0  0
  -29.5810  -27.8260   18.4300 N   0  0  1  0  0  4  0  0  0  0  0  0
  -30.3670  -28.4590   18.4400 H   0  0  0  0  0  0  0  0  0  0  0  0
  -29.8360  -26.9370   17.2700 C   0  0  0  0  0  2  0  0  0  0  0  0
  -28.4890  -26.3910   16.7980 C   0  0  0  0  0  2  0  0  0  0  0  0
  -27.7690  -26.0630   17.9730 O   0  0  0  0  0  0  0  0  0  0  0  0
  -24.4230  -31.1590   22.8140 C   0  0  0  0  0  0  0  0  0  0  0  0
  -26.8250  -26.9680   18.3620 C   0  0  0  0  0  3  0  0  0  0  0  0
  -22.9700  -30.0840   21.0800 C   0  0  0  0  0  3  0  0  0  0  0  0
  -24.1680  -28.5630   19.3760 C   0  0  0  0  0  0  0  0  0  0  0  0
  -25.4620  -30.3400   20.7670 C   0  0  0  0  0  2  0  0  0  0  0  0
  -25.4360  -29.0160   20.0950 C   0  0  0  0  0  0  0  0  0  0  0  0
  -26.7960  -28.3570   19.7730 C   0  0  0  0  0  2  0  0  0  0  0  0
  -25.3610  -26.6740   17.7350 C   0  0  0  0  0  3  0  0  0  0  0  0
  -24.1130  -27.4540   18.2940 C   0  0  0  0  0  3  0  0  0  0  0  0
  -23.0120  -29.5140   19.6260 C   0  0  0  0  0  2  0  0  0  0  0  0
  -24.2970  -30.5500   21.6070 N   0  0  0  0  0  0  0  0  0  0  0  0
  -23.4270  -31.4080   23.5020 O   0  0  0  0  0  0  0  0  0  0  0  0
  -22.3120  -29.0260   21.9800 C   0  0  0  0  0  0  0  0  0  0  0  0
  -20.9900  -28.8770   21.8650 N   0  0  0  0  0  0  0  0  0  0  0  0
  -22.9810  -28.3520   22.7600 O   0  0  0  0  0  0  0  0  0  0  0  0
  -20.4880  -29.4780   21.2250 H   0  0  0  0  0  0  0  0  0  0  0  0
  -17.6290  -27.8320   22.5500 C   0  0  0  0  0  0  0  0  0  0  0  0
  -20.2030  -27.8790   22.5800 C   0  0  0  0  0  3  0  0  0  0  0  0
  -20.1490  -26.5590   21.7820 C   0  0  0  0  0  2  0  0  0  0  0  0
  -18.9370  -26.4820   20.8480 C   0  0  0  0  0  2  0  0  0  0  0  0
  -17.6370  -26.6080   21.6490 C   0  0  0  0  0  2  0  0  0  0  0  0
  -18.8390  -28.4370   22.9750 C   0  0  0  0  0  0  0  0  0  0  0  0
  -18.7880  -29.5920   23.7840 C   0  0  0  0  0  3  0  0  0  0  0  0
  -17.5540  -30.1470   24.1660 C   0  0  0  0  0  3  0  0  0  0  0  0
  -16.3570  -29.5360   23.7590 C   0  0  0  0  0  3  0  0  0  0  0  0
  -16.3940  -28.3780   22.9590 C   0  0  0  0  0  3  0  0  0  0  0  0
  -25.8200  -31.5980   23.3750 C   0  0  0  0  0  3  0  0  0  0  0  0
  -25.6440  -32.9250   23.9700 N   0  0  0  0  0  0  0  0  0  0  0  0
  -26.0210  -34.0720   23.3890 C   0  0  0  0  0  0  0  0  0  0  0  0
  -26.6240  -34.1180   22.3120 O   0  0  0  0  0  0  0  0  0  0  0  0
  -25.1080  -32.9680   24.8240 H   0  0  0  0  0  0  0  0  0  0  0  0
  -24.4290  -36.0120   23.4780 C   0  0  0  0  0  1  0  0  0  0  0  0
  -25.6730  -35.3790   24.1220 C   0  0  0  0  0  3  0  0  0  0  0  0
  -27.9150  -35.9350   24.9600 C   0  0  0  0  0  1  0  0  0  0  0  0
  -26.7830  -36.3570   24.1370 N   0  0  0  0  0  0  0  0  0  0  0  0
  -26.4610  -37.2580   24.4790 H   0  0  0  0  0  0  0  0  0  0  0  0
  -26.4370  -30.5880   24.4180 C   0  0  1  0  0  0  0  0  0  0  0  0
  -25.4490  -30.1830   25.5340 C   0  0  0  0  0  1  0  0  0  0  0  0
  -26.9220  -29.2960   23.7290 C   0  0  0  0  0  1  0  0  0  0  0  0
  -27.6870  -31.2090   25.0800 C   0  0  0  0  0  1  0  0  0  0  0  0
  -27.2040  -21.3660   19.7830 N   0  0  0  0  0  0  0  0  0  0  0  0
  -26.6560  -20.7010   19.2470 H   0  0  0  0  0  0  0  0  0  0  0  0
  -28.2250  -20.7030   20.6300 C   0  0  0  0  0  2  0  0  0  0  0  0
  -30.5430  -14.0810   20.0150 C   0  0  0  0  0  0  0  0  0  0  0  0
  -30.3730  -11.8050   19.0140 C   0  0  0  0  0  2  0  0  0  0  0  0
  -29.3550  -11.8800   17.8530 C   0  0  0  0  0  2  0  0  0  0  0  0
  -27.9080  -11.7070   18.3650 C   0  0  0  0  0  2  0  0  0  0  0  0
  -27.5980  -12.5960   19.5970 C   0  0  0  0  0  3  0  0  0  0  0  0
  -28.7180  -12.4580   20.6560 C   0  0  0  0  0  2  0  0  0  0  0  0
  -29.9930  -12.8240   20.0080 N   0  0  0  0  0  0  0  0  0  0  0  0
  -31.6550  -14.3080   19.5210 O   0  0  0  0  0  0  0  0  0  0  0  0
  -28.1130  -16.8170   20.2980 C   0  0  0  0  0  3  0  0  0  0  0  0
  -27.6860  -18.1640   20.3100 C   0  0  0  0  0  0  0  0  0  0  0  0
  -28.6450  -19.2080   20.3550 C   0  0  0  0  0  0  0  0  0  0  0  0
  -30.0080  -18.7650   20.3230 C   0  0  0  0  0  0  0  0  0  0  0  0
  -29.4730  -16.4490   20.3130 C   0  0  0  0  0  0  0  0  0  0  0  0
  -26.1960  -18.4290   20.3520 C   0  0  0  0  0  1  0  0  0  0  0  0
  -31.1570  -19.7610   20.3650 C   0  0  0  0  0  1  0  0  0  0  0  0
  -30.3990  -17.4460   20.3000 N   0  0  0  0  0  0  0  0  0  0  0  0
  -29.6830  -15.0280   20.4930 N   0  0  0  0  0  0  0  0  0  0  0  0
  -28.8640  -14.5720   20.8590 H   0  0  0  0  0  0  0  0  0  0  0  0
  -25.2420  -13.1900   20.4450 C   0  0  0  0  0  0  0  0  0  0  0  0
  -24.2090  -12.4180   20.8960 C   0  0  0  0  0  0  0  0  0  0  0  0
  -24.6750  -11.0710   20.8420 C   0  0  0  0  0  0  0  0  0  0  0  0
  -26.2780  -12.3150   20.1560 N   0  0  0  0  0  0  0  0  0  0  0  0
  -25.9430  -11.0340   20.4500 N   0  0  0  0  0  0  0  0  0  0  0  0
  -23.9700   -9.8080   21.0800 C   0  0  0  0  0  0  0  0  0  0  0  0
  -24.4160   -8.8850   22.0500 C   0  0  0  0  0  3  0  0  0  0  0  0
  -23.7080   -7.6840   22.2700 C   0  0  0  0  0  3  0  0  0  0  0  0
  -22.5420   -7.3990   21.5220 C   0  0  0  0  0  0  0  0  0  0  0  0
  -22.1170   -8.3110   20.5380 C   0  0  0  0  0  3  0  0  0  0  0  0
  -22.8260   -9.5030   20.3160 C   0  0  0  0  0  3  0  0  0  0  0  0
  -21.8050   -6.2460   21.6520 O   0  0  0  0  0  0  0  0  0  0  0  0
  -21.7150   -5.5830   22.8510 C   0  0  0  0  0  0  0  0  0  0  0  0
  -21.1890   -6.2020   24.0060 C   0  0  0  0  0  3  0  0  0  0  0  0
  -21.0530   -5.4640   25.1990 C   0  0  0  0  0  3  0  0  0  0  0  0
  -21.4290   -4.1090   25.2360 C   0  0  0  0  0  0  0  0  0  0  0  0
  -21.9480   -3.4900   24.0860 C   0  0  0  0  0  3  0  0  0  0  0  0
  -22.0880   -4.2250   22.8950 C   0  0  0  0  0  0  0  0  0  0  0  0
  -22.5700   -3.6180   21.7830 F   0  0  0  0  0  0  0  0  0  0  0  0
  -21.2880   -3.3970   26.3790 F   0  0  0  0  0  0  0  0  0  0  0  0
  -22.8290  -12.8940   21.2520 C   0  0  0  0  0  0  0  0  0  0  0  0
  -22.1570  -12.1930   22.1610 N   0  0  0  0  0  0  0  0  0  0  0  0
  -22.3590  -13.9200   20.7630 O   0  0  0  0  0  0  0  0  0  0  0  0
  -22.5570  -11.3670   22.5820 H   0  0  0  0  0  0  0  0  0  0  0  0
  -21.2340  -12.4890   22.4430 H   0  0  0  0  0  0  0  0  0  0  0  0
  -25.3660  -14.5560   20.2310 N   0  0  0  0  0  0  0  0  0  0  0  0
  -24.5620  -15.1660   20.3360 H   0  0  0  0  0  0  0  0  0  0  0  0
  -26.0940  -14.9630   19.6580 H   0  0  0  0  0  0  0  0  0  0  0  0
  2  4  2  0
  3  6  2  0
  3  5  1  0
  4  1  1  0
  4 12  1  0
  5  1  2  0
  6  2  1  0
  7  5  1  0
  8 10  1  0
  8 25  1  0
 10 14  1  0
 11  9  2  0
 12  9  1  0
 12 13  1  0
 14 15  1  1
 14 11  1  0
 16 14  1  0
 17 16  1  0
 17 18  1  0
 18 20  1  0
 19 30  2  0
 20 26  1  0
 20  8  1  0
 21 29  1  0
 21 31  1  0
 22 28  1  0
 22 24  2  0
 23 29  1  0
 24 23  1  0
 25 24  1  0
 26 27  2  0
 27 22  1  0
 28 21  1  0
 29 19  1  0
 31 33  2  0
 32 31  1  0
 34 32  1  0
 35 44  2  0
 35 40  1  0
 36 32  1  0
 36 40  1  0
 37 36  1  0
 38 39  1  0
 38 37  1  0
 39 35  1  0
 40 41  2  0
 41 42  1  0
 43 42  2  0
 44 43  1  0
 45 19  1  0
 45 46  1  0
 45 55  1  0
 46 49  1  0
 47 46  1  0
 47 51  1  0
 48 47  2  0
 51 50  1  0
 51 53  1  0
 53 54  1  0
 53 52  1  0
 55 58  1  1
 55 56  1  0
 57 55  1  0
 59  6  1  0
 59 61  1  0
 60 59  1  0
 62 78  1  0
 63 68  1  0
 64 65  1  0
 64 63  1  0
 66 65  1  0
 66 83  1  0
 66 67  1  0
 68 62  1  0
 68 67  1  0
 69 62  2  0
 70 71  2  0
 70 74  1  0
 71 75  1  0
 71 72  1  0
 72 61  1  0
 73 72  2  0
 73 76  1  0
 74 78  1  0
 77 74  2  0
 77 73  1  0
 78 79  1  0
 80 81  2  0
 81100  1  0
 82 81  1  0
 82 85  1  0
 83 80  1  0
 83 84  1  0
 84 82  2  0
 85 86  1  0
 86 87  2  0
 88 91  1  0
 88 87  1  0
 89 88  2  0
 90 89  1  0
 90 85  2  0
 91 92  1  0
 92 97  2  0
 92 93  1  0
 93 94  2  0
 94 95  1  0
 95 99  1  0
 96 95  2  0
 97 96  1  0
 98 97  1  0
100101  1  0
101104  1  0
101103  1  0
102100  2  0
105106  1  0
105 80  1  0
107105  1  0
M  ISO  4  17 101  18 101  62 100  78 100
M  END
>  <TORSDO>  (35) 
F 21

>  <SCORE>  (35) 
-8.540

>  <name>  (35) 
34

>  <ligand_id>  (35) 
34

>  <original_smiles>  (35) 
[H]c1c([H])c([H])c2c(c1[H])C([H])([H])C([H])([H])C([H])([H])C2([H])N([H])C(=O)C1([H])N(C(=O)C([H])(N([H])C(=O)C([H])(N([H])C([H])([H])[H])C([H])([H])[H])C(C([H])([H])[H])(C([H])([H])[H])C([H])([H])[H])C([H])([H])c2c([H])c(OC([H])([H])C([H])([H])[N+]3([H])C([H])([H])C([H])([H])C(c4c([H])c(N([H])C([H])([H])c5c(C([H])([H])[H])nc(N([H])C(=O)N6C([H])([H])C([H])([H])C([H])([H])C([H])(n7nc(-c8c([H])c([H])c(Oc9c([H])c([H])c(F)c([H])c9F)c([H])c8[H])c(C(=O)N([H])[H])c7N([H])[H])C6([H])[H])c([H])c5C([H])([H])[H])c([H])c(C([H])([H])[H])c4[H])(C([H])([H])[H])C([H])([H])C3([H])[H])c([H])c([H])c2C1([H])[H]

>  <smiles>  (35) 
[H]c1c([H])c([H])c2c(c1[H])C([H])([H])C([H])([H])C([H])([H])C2([H])N([H])C(=O)C1([H])N(C(=O)C([H])(N([H])C(=O)C([H])(N([H])C([H])([H])[H])C([H])([H])[H])C(C([H])([H])[H])(C([H])([H])[H])C([H])([H])[H])C([H])([H])c2c([H])c(OC([H])([H])C([H])([H])[N+]3([H])C([H])([H])C([H])([H])C(c4c([H])c(N([H])C([H])([H])c5c(C([H])([H])[H])nc(N([H])C(=O)N6C([H])([H])C([H])([H])C([H])([H])C([H])(n7nc(-c8c([H])c([H])c(Oc9c([H])c([H])c(F)c([H])c9F)c([H])c8[H])c(C(=O)N([H])[H])c7N([H])[H])C6([H])[H])c([H])c5C([H])([H])[H])c([H])c(C([H])([H])[H])c4[H])(C([H])([H])[H])C([H])([H])C3([H])[H])c([H])c([H])c2C1([H])[H]

$$$$
35:0:0
     RDKit          3D

 95105  0  0  1  0  0  0  0  0999 V2000
  -29.2160  -23.4550   18.1540 C   0  0  0  0  0  3  0  0  0  0  0  0
  -29.6960  -22.9330   16.9490 C   0  0  0  0  0  3  0  0  0  0  0  0
  -29.1820  -22.6580   19.3220 C   0  0  0  0  0  0  0  0  0  0  0  0
  -30.1300  -21.6040   16.9370 C   0  0  0  0  0  0  0  0  0  0  0  0
  -29.6510  -21.2760   19.2180 C   0  0  0  0  0  0  0  0  0  0  0  0
  -30.0850  -20.8180   18.0250 N   0  0  0  0  0  0  0  0  0  0  0  0
  -30.0340  -20.8740   14.4090 C   0  0  0  0  0  2  0  0  0  0  0  0
  -30.1780  -19.6370   15.2600 C   0  0  0  0  0  2  0  0  0  0  0  0
  -30.7400  -20.9530   15.7390 C   0  0  0  0  0  3  0  0  0  0  0  0
  -28.6710  -23.4250   20.5780 C   0  0  0  0  0  2  0  0  0  0  0  0
  -27.6790  -24.6760   20.3850 C   0  0  0  0  0  2  0  0  0  0  0  0
  -28.0920  -26.0680   20.0480 O   0  0  0  0  0  0  0  0  0  0  0  0
  -24.5540  -31.5700   23.1500 C   0  0  0  0  0  0  0  0  0  0  0  0
  -27.0430  -27.0050   20.0050 C   0  0  0  0  0  0  0  0  0  0  0  0
  -23.3250  -30.2580   21.4600 C   0  0  0  0  0  3  0  0  0  0  0  0
  -24.7400  -28.7040   20.0000 C   0  0  0  0  0  0  0  0  0  0  0  0
  -25.8770  -30.4870   21.3240 C   0  0  0  0  0  2  0  0  0  0  0  0
  -25.9150  -29.1270   20.6390 C   0  0  0  0  0  0  0  0  0  0  0  0
  -27.0680  -28.2870   20.6420 C   0  0  0  0  0  3  0  0  0  0  0  0
  -25.8660  -26.6580   19.3090 C   0  0  0  0  0  3  0  0  0  0  0  0
  -24.7190  -27.4750   19.3240 C   0  0  0  0  0  3  0  0  0  0  0  0
  -23.5370  -29.6210   20.0590 C   0  0  0  0  0  2  0  0  0  0  0  0
  -24.6050  -30.7890   22.0330 N   0  0  0  0  0  0  0  0  0  0  0  0
  -23.4740  -31.8670   23.6810 O   0  0  0  0  0  0  0  0  0  0  0  0
  -22.6230  -29.2340   22.3840 C   0  0  0  0  0  0  0  0  0  0  0  0
  -21.2930  -29.0990   22.2420 N   0  0  0  0  0  0  0  0  0  0  0  0
  -23.2730  -28.5690   23.1950 O   0  0  0  0  0  0  0  0  0  0  0  0
  -20.8250  -29.6910   21.5710 H   0  0  0  0  0  0  0  0  0  0  0  0
  -17.8770  -27.9980   22.6960 C   0  0  0  0  0  0  0  0  0  0  0  0
  -20.4410  -28.1680   22.9840 C   0  0  0  0  0  3  0  0  0  0  0  0
  -20.5000  -26.7480   22.3780 C   0  0  0  0  0  2  0  0  0  0  0  0
  -19.3960  -26.4840   21.3490 C   0  0  0  0  0  2  0  0  0  0  0  0
  -18.0140  -26.6610   21.9850 C   0  0  0  0  0  2  0  0  0  0  0  0
  -19.0180  -28.7110   23.1520 C   0  0  0  0  0  0  0  0  0  0  0  0
  -18.8370  -29.9630   23.7770 C   0  0  0  0  0  3  0  0  0  0  0  0
  -17.5500  -30.5050   23.9490 C   0  0  0  0  0  3  0  0  0  0  0  0
  -16.4240  -29.7910   23.5050 C   0  0  0  0  0  3  0  0  0  0  0  0
  -16.5870  -28.5380   22.8860 C   0  0  0  0  0  3  0  0  0  0  0  0
  -25.8490  -32.1480   23.7960 C   0  0  0  0  0  3  0  0  0  0  0  0
  -26.3190  -31.3490   25.0740 C   0  0  1  0  0  0  0  0  0  0  0  0
  -25.2080  -31.1530   26.1310 C   0  0  0  0  0  1  0  0  0  0  0  0
  -26.8540  -29.9520   24.6800 C   0  0  0  0  0  1  0  0  0  0  0  0
  -27.4900  -32.0950   25.7550 C   0  0  0  0  0  1  0  0  0  0  0  0
  -25.5860  -33.5540   24.1370 N   0  0  0  0  0  0  0  0  0  0  0  0
  -25.9840  -34.6040   23.4070 C   0  0  0  0  0  0  0  0  0  0  0  0
  -26.6800  -34.4890   22.3940 O   0  0  0  0  0  0  0  0  0  0  0  0
  -24.9810  -33.7220   24.9270 H   0  0  0  0  0  0  0  0  0  0  0  0
  -24.3400  -36.4680   23.0330 C   0  0  0  0  0  1  0  0  0  0  0  0
  -25.5400  -36.0040   23.8730 C   0  0  0  0  0  3  0  0  0  0  0  0
  -27.6810  -36.7880   24.7800 C   0  0  0  0  0  1  0  0  0  0  0  0
  -26.6160  -37.0160   23.8090 N   0  0  0  0  0  0  0  0  0  0  0  0
  -26.2390  -37.9480   23.9630 H   0  0  0  0  0  0  0  0  0  0  0  0
  -29.7620  -20.2970   20.2420 O   0  0  0  0  0  0  0  0  0  0  0  0
  -31.1090  -14.4680   20.2470 C   0  0  0  0  0  0  0  0  0  0  0  0
  -30.7130  -12.2710   19.1620 C   0  0  0  0  0  2  0  0  0  0  0  0
  -29.7660  -12.4250   17.9570 C   0  0  0  0  0  2  0  0  0  0  0  0
  -28.2950  -12.3180   18.4000 C   0  0  0  0  0  2  0  0  0  0  0  0
  -27.9810  -13.1710   19.6590 C   0  0  0  0  0  3  0  0  0  0  0  0
  -29.0560  -13.0100   20.7540 C   0  0  0  0  0  2  0  0  0  0  0  0
  -30.3430  -13.3310   20.1260 N   0  0  0  0  0  0  0  0  0  0  0  0
  -32.3190  -14.3730   20.0260 O   0  0  0  0  0  0  0  0  0  0  0  0
  -30.7760  -18.1940   19.0690 C   0  0  0  0  0  2  0  0  0  0  0  0
  -29.5300  -17.8980   21.1990 C   0  0  0  0  0  2  0  0  0  0  0  0
  -31.3720  -16.7810   19.4300 C   0  0  0  0  0  2  0  0  0  0  0  0
  -29.4510  -16.3350   20.9280 C   0  0  0  0  0  2  0  0  0  0  0  0
  -29.6520  -18.8220   19.9490 C   0  0  0  0  0  3  0  0  0  0  0  0
  -30.5400  -15.7390   20.1100 N   0  0  0  0  0  0  0  0  0  0  0  0
  -25.6120  -13.8320   20.3790 C   0  0  0  0  0  0  0  0  0  0  0  0
  -24.5260  -13.0920   20.7570 C   0  0  0  0  0  0  0  0  0  0  0  0
  -24.9530  -11.7280   20.7430 C   0  0  0  0  0  0  0  0  0  0  0  0
  -26.6330  -12.9230   20.1590 N   0  0  0  0  0  0  0  0  0  0  0  0
  -26.2440  -11.6530   20.4360 N   0  0  0  0  0  0  0  0  0  0  0  0
  -24.1910  -10.4890   20.9440 C   0  0  0  0  0  0  0  0  0  0  0  0
  -24.5980   -9.5180   21.8850 C   0  0  0  0  0  3  0  0  0  0  0  0
  -23.8410   -8.3420   22.0750 C   0  0  0  0  0  3  0  0  0  0  0  0
  -22.6610   -8.1300   21.3220 C   0  0  0  0  0  0  0  0  0  0  0  0
  -22.2720   -9.0880   20.3710 C   0  0  0  0  0  3  0  0  0  0  0  0
  -23.0290  -10.2550   20.1780 C   0  0  0  0  0  3  0  0  0  0  0  0
  -21.8740   -7.0070   21.4220 O   0  0  0  0  0  0  0  0  0  0  0  0
  -21.7760   -6.2970   22.5900 C   0  0  0  0  0  0  0  0  0  0  0  0
  -21.3110   -6.8880   23.7850 C   0  0  0  0  0  3  0  0  0  0  0  0
  -21.1630   -6.1040   24.9480 C   0  0  0  0  0  3  0  0  0  0  0  0
  -21.4700   -4.7310   24.9130 C   0  0  0  0  0  0  0  0  0  0  0  0
  -21.9290   -4.1390   23.7220 C   0  0  0  0  0  3  0  0  0  0  0  0
  -22.0790   -4.9210   22.5640 C   0  0  0  0  0  0  0  0  0  0  0  0
  -22.5020   -4.3420   21.4140 F   0  0  0  0  0  0  0  0  0  0  0  0
  -21.3210   -3.9750   26.0270 F   0  0  0  0  0  0  0  0  0  0  0  0
  -23.1420  -13.6120   21.0180 C   0  0  0  0  0  0  0  0  0  0  0  0
  -22.3950  -12.9530   21.8970 N   0  0  0  0  0  0  0  0  0  0  0  0
  -22.7320  -14.6380   20.4760 O   0  0  0  0  0  0  0  0  0  0  0  0
  -22.7380  -12.1250   22.3590 H   0  0  0  0  0  0  0  0  0  0  0  0
  -21.4640  -13.2830   22.1070 H   0  0  0  0  0  0  0  0  0  0  0  0
  -25.8080  -15.1930   20.1770 N   0  0  0  0  0  0  0  0  0  0  0  0
  -25.0450  -15.8590   20.2370 H   0  0  0  0  0  0  0  0  0  0  0  0
  -26.6610  -15.5960   19.8130 H   0  0  0  0  0  0  0  0  0  0  0  0
  1  3  2  0
  2  1  1  0
  3 10  1  0
  4  2  2  0
  4  6  1  0
  5  3  1  0
  5 53  1  0
  6  5  2  0
  7  8  1  0
  7  9  1  0
  8  9  1  0
  9  4  1  0
 11 10  1  0
 12 11  1  0
 13 24  2  0
 14 12  1  0
 14 19  1  0
 15 23  1  0
 15 25  1  0
 16 22  1  0
 16 18  1  0
 17 23  1  0
 18 19  2  0
 18 17  1  0
 20 21  1  0
 20 14  2  0
 21 16  2  0
 22 15  1  0
 23 13  1  0
 25 27  2  0
 26 25  1  0
 28 26  1  0
 29 38  2  0
 29 34  1  0
 30 26  1  0
 30 34  1  0
 31 30  1  0
 32 33  1  0
 32 31  1  0
 33 29  1  0
 34 35  2  0
 35 36  1  0
 37 36  2  0
 38 37  1  0
 39 13  1  0
 39 44  1  0
 39 40  1  0
 40 43  1  1
 40 41  1  0
 42 40  1  0
 44 47  1  0
 45 49  1  0
 45 44  1  0
 46 45  2  0
 49 48  1  0
 51 49  1  0
 51 52  1  0
 51 50  1  0
 55 60  1  0
 56 57  1  0
 56 55  1  0
 58 57  1  0
 58 71  1  0
 58 59  1  0
 60 54  1  0
 60 59  1  0
 61 54  2  0
 62 64  1  0
 62 66  1  0
 64 67  1  0
 65 63  1  0
 66 53  1  0
 66 63  1  0
 67 54  1  0
 67 65  1  0
 68 69  2  0
 69 88  1  0
 70 69  1  0
 70 73  1  0
 71 68  1  0
 71 72  1  0
 72 70  2  0
 73 74  1  0
 74 75  2  0
 76 79  1  0
 76 75  1  0
 77 76  2  0
 78 77  1  0
 78 73  2  0
 79 80  1  0
 80 81  1  0
 81 82  2  0
 83 82  1  0
 83 87  1  0
 84 83  2  0
 85 80  2  0
 85 84  1  0
 86 85  1  0
 88 89  1  0
 89 92  1  0
 89 91  1  0
 90 88  2  0
 93 94  1  0
 93 68  1  0
 95 93  1  0
M  ISO  4  11 101  12 101  54 100  67 100
M  END
>  <TORSDO>  (36) 
F 20

>  <SCORE>  (36) 
-13.498

>  <name>  (36) 
35

>  <ligand_id>  (36) 
35

>  <original_smiles>  (36) 
[H]c1c(C2([H])C([H])([H])C2([H])[H])nc(OC2([H])C([H])([H])C([H])([H])N(C(=O)N3C([H])([H])C([H])([H])C([H])([H])C([H])(n4nc(-c5c([H])c([H])c(Oc6c([H])c([H])c(F)c([H])c6F)c([H])c5[H])c(C(=O)N([H])[H])c4N([H])[H])C3([H])[H])C([H])([H])C2([H])[H])c(C([H])([H])C([H])([H])Oc2c([H])c([H])c3c(c2[H])C([H])([H])N(C(=O)C([H])(N([H])C(=O)C([H])(N([H])C([H])([H])[H])C([H])([H])[H])C(C([H])([H])[H])(C([H])([H])[H])C([H])([H])[H])C([H])(C(=O)N([H])C2([H])c4c([H])c([H])c([H])c([H])c4C([H])([H])C([H])([H])C2([H])[H])C3([H])[H])c1[H]

>  <smiles>  (36) 
[H]c1c(C2([H])C([H])([H])C2([H])[H])nc(OC2([H])C([H])([H])C([H])([H])N(C(=O)N3C([H])([H])C([H])([H])C([H])([H])C([H])(n4nc(-c5c([H])c([H])c(Oc6c([H])c([H])c(F)c([H])c6F)c([H])c5[H])c(C(=O)N([H])[H])c4N([H])[H])C3([H])[H])C([H])([H])C2([H])[H])c(C([H])([H])C([H])([H])Oc2c([H])c([H])c3c(c2[H])C([H])([H])N(C(=O)C([H])(N([H])C(=O)C([H])(N([H])C([H])([H])[H])C([H])([H])[H])C(C([H])([H])[H])(C([H])([H])[H])C([H])([H])[H])C([H])(C(=O)N([H])C2([H])c4c([H])c([H])c([H])c([H])c4C([H])([H])C([H])([H])C2([H])[H])C3([H])[H])c1[H]

$$$$
36:0:0
     RDKit          3D

 95104  0  0  1  0  0  0  0  0999 V2000
  -29.9330  -23.7500   18.3130 C   0  0  0  0  0  3  0  0  0  0  0  0
  -30.3830  -23.2380   17.0900 C   0  0  0  0  0  3  0  0  0  0  0  0
  -30.1170  -21.0010   17.9710 C   0  0  0  0  0  3  0  0  0  0  0  0
  -29.5600  -22.9160   19.3950 C   0  0  0  0  0  0  0  0  0  0  0  0
  -30.4710  -21.8470   16.9060 C   0  0  0  0  0  0  0  0  0  0  0  0
  -29.6950  -21.4620   19.2520 C   0  0  0  0  0  0  0  0  0  0  0  0
  -30.2180  -24.1860   21.5080 C   0  0  0  0  0  1  0  0  0  0  0  0
  -29.0490  -23.7220   20.6280 C   0  0  0  0  0  3  0  0  0  0  0  0
  -28.0320  -24.9330   20.3270 C   0  0  0  0  0  2  0  0  0  0  0  0
  -28.3840  -26.3840   20.2640 O   0  0  0  0  0  0  0  0  0  0  0  0
  -24.5990  -31.8340   23.1740 C   0  0  0  0  0  0  0  0  0  0  0  0
  -27.2910  -27.2730   20.1740 C   0  0  0  0  0  0  0  0  0  0  0  0
  -23.4380  -30.4260   21.5150 C   0  0  0  0  0  3  0  0  0  0  0  0
  -24.9240  -28.8920   20.1160 C   0  0  0  0  0  0  0  0  0  0  0  0
  -25.9800  -30.7560   21.3820 C   0  0  0  0  0  2  0  0  0  0  0  0
  -26.0820  -29.3790   20.7360 C   0  0  0  0  0  0  0  0  0  0  0  0
  -27.2700  -28.5830   20.7540 C   0  0  0  0  0  3  0  0  0  0  0  0
  -26.1070  -26.8570   19.5170 C   0  0  0  0  0  3  0  0  0  0  0  0
  -24.9400  -27.6370   19.4970 C   0  0  0  0  0  3  0  0  0  0  0  0
  -23.6820  -29.7570   20.1390 C   0  0  0  0  0  2  0  0  0  0  0  0
  -24.6910  -31.0220   22.0800 N   0  0  0  0  0  0  0  0  0  0  0  0
  -23.5030  -32.1030   23.6870 O   0  0  0  0  0  0  0  0  0  0  0  0
  -22.7640  -29.4030   22.4610 C   0  0  0  0  0  0  0  0  0  0  0  0
  -21.4350  -29.2480   22.3390 N   0  0  0  0  0  0  0  0  0  0  0  0
  -23.4370  -28.7540   23.2650 O   0  0  0  0  0  0  0  0  0  0  0  0
  -20.9520  -29.8240   21.6640 H   0  0  0  0  0  0  0  0  0  0  0  0
  -18.0340  -28.1370   22.8810 C   0  0  0  0  0  0  0  0  0  0  0  0
  -20.6050  -28.3140   23.1010 C   0  0  0  0  0  3  0  0  0  0  0  0
  -20.6510  -26.8960   22.4860 C   0  0  0  0  0  2  0  0  0  0  0  0
  -19.5180  -26.6330   21.4880 C   0  0  0  0  0  2  0  0  0  0  0  0
  -18.1560  -26.8020   22.1650 C   0  0  0  0  0  2  0  0  0  0  0  0
  -19.1840  -28.8540   23.3060 C   0  0  0  0  0  0  0  0  0  0  0  0
  -19.0160  -30.1040   23.9380 C   0  0  0  0  0  3  0  0  0  0  0  0
  -17.7310  -30.6400   24.1460 C   0  0  0  0  0  3  0  0  0  0  0  0
  -16.5950  -29.9200   23.7360 C   0  0  0  0  0  3  0  0  0  0  0  0
  -16.7480  -28.6700   23.1090 C   0  0  0  0  0  3  0  0  0  0  0  0
  -25.8640  -32.4780   23.8180 C   0  0  0  0  0  3  0  0  0  0  0  0
  -26.3740  -31.7010   25.0940 C   0  0  1  0  0  0  0  0  0  0  0  0
  -25.2700  -31.4350   26.1450 C   0  0  0  0  0  1  0  0  0  0  0  0
  -26.9810  -30.3350   24.6980 C   0  0  0  0  0  1  0  0  0  0  0  0
  -27.5040  -32.5030   25.7810 C   0  0  0  0  0  1  0  0  0  0  0  0
  -25.5320  -33.8680   24.1580 N   0  0  0  0  0  0  0  0  0  0  0  0
  -25.8460  -34.9320   23.4070 C   0  0  0  0  0  0  0  0  0  0  0  0
  -26.5190  -34.8480   22.3760 O   0  0  0  0  0  0  0  0  0  0  0  0
  -24.9360  -34.0060   24.9620 H   0  0  0  0  0  0  0  0  0  0  0  0
  -24.0900  -36.7000   23.0650 C   0  0  0  0  0  1  0  0  0  0  0  0
  -25.3360  -36.3090   23.8750 C   0  0  0  0  0  3  0  0  0  0  0  0
  -27.4510  -37.2250   24.7200 C   0  0  0  0  0  1  0  0  0  0  0  0
  -26.3510  -37.3790   23.7720 N   0  0  0  0  0  0  0  0  0  0  0  0
  -25.9290  -38.2930   23.9230 H   0  0  0  0  0  0  0  0  0  0  0  0
  -31.3460  -22.0740   14.6810 C   0  0  0  0  0  1  0  0  0  0  0  0
  -30.8900  -21.2430   15.7400 O   0  0  0  0  0  0  0  0  0  0  0  0
  -29.4610  -20.4940   20.2660 O   0  0  0  0  0  0  0  0  0  0  0  0
  -30.8390  -14.6690   20.1120 C   0  0  0  0  0  0  0  0  0  0  0  0
  -30.4340  -12.4630   19.0300 C   0  0  0  0  0  2  0  0  0  0  0  0
  -29.4570  -12.5740   17.8450 C   0  0  0  0  0  2  0  0  0  0  0  0
  -28.0070  -12.4090   18.3350 C   0  0  0  0  0  2  0  0  0  0  0  0
  -27.6970  -13.2770   19.5850 C   0  0  0  0  0  3  0  0  0  0  0  0
  -28.8070  -13.1770   20.6530 C   0  0  0  0  0  2  0  0  0  0  0  0
  -30.0670  -13.5330   19.9910 N   0  0  0  0  0  0  0  0  0  0  0  0
  -32.0360  -14.5650   19.8340 O   0  0  0  0  0  0  0  0  0  0  0  0
  -30.9860  -18.4820   19.8250 C   0  0  0  0  0  2  0  0  0  0  0  0
  -28.9730  -18.0550   21.0440 C   0  0  0  0  0  2  0  0  0  0  0  0
  -31.0190  -17.0170   19.2890 C   0  0  0  0  0  2  0  0  0  0  0  0
  -29.0510  -16.4980   20.7090 C   0  0  0  0  0  2  0  0  0  0  0  0
  -29.5520  -19.0290   19.9770 C   0  0  0  0  0  3  0  0  0  0  0  0
  -30.2930  -15.9600   20.0710 N   0  0  0  0  0  0  0  0  0  0  0  0
  -25.3450  -13.8700   20.4120 C   0  0  0  0  0  0  0  0  0  0  0  0
  -24.2900  -13.0970   20.8110 C   0  0  0  0  0  0  0  0  0  0  0  0
  -24.7460  -11.7440   20.7510 C   0  0  0  0  0  0  0  0  0  0  0  0
  -26.3760  -12.9890   20.1300 N   0  0  0  0  0  0  0  0  0  0  0  0
  -26.0250  -11.7050   20.3980 N   0  0  0  0  0  0  0  0  0  0  0  0
  -24.0200  -10.4830   20.9520 C   0  0  0  0  0  0  0  0  0  0  0  0
  -24.4520   -9.5280   21.8980 C   0  0  0  0  0  3  0  0  0  0  0  0
  -23.7270   -8.3310   22.0870 C   0  0  0  0  0  3  0  0  0  0  0  0
  -22.5580   -8.0820   21.3300 C   0  0  0  0  0  0  0  0  0  0  0  0
  -22.1460   -9.0270   20.3740 C   0  0  0  0  0  3  0  0  0  0  0  0
  -22.8700  -10.2140   20.1830 C   0  0  0  0  0  3  0  0  0  0  0  0
  -21.8060   -6.9360   21.4280 O   0  0  0  0  0  0  0  0  0  0  0  0
  -21.7190   -6.2290   22.6000 C   0  0  0  0  0  0  0  0  0  0  0  0
  -21.2280   -6.8130   23.7880 C   0  0  0  0  0  3  0  0  0  0  0  0
  -21.0910   -6.0310   24.9520 C   0  0  0  0  0  3  0  0  0  0  0  0
  -21.4340   -4.6670   24.9290 C   0  0  0  0  0  0  0  0  0  0  0  0
  -21.9170   -4.0820   23.7450 C   0  0  0  0  0  3  0  0  0  0  0  0
  -22.0560   -4.8610   22.5830 C   0  0  0  0  0  0  0  0  0  0  0  0
  -22.5020   -4.2870   21.4400 F   0  0  0  0  0  0  0  0  0  0  0  0
  -21.2950   -3.9130   26.0450 F   0  0  0  0  0  0  0  0  0  0  0  0
  -22.9050  -13.5780   21.1330 C   0  0  0  0  0  0  0  0  0  0  0  0
  -22.2030  -12.8760   22.0150 N   0  0  0  0  0  0  0  0  0  0  0  0
  -22.4530  -14.6100   20.6370 O   0  0  0  0  0  0  0  0  0  0  0  0
  -22.5830  -12.0430   22.4400 H   0  0  0  0  0  0  0  0  0  0  0  0
  -21.2740  -13.1780   22.2710 H   0  0  0  0  0  0  0  0  0  0  0  0
  -25.5110  -15.2420   20.2380 N   0  0  0  0  0  0  0  0  0  0  0  0
  -24.7520  -15.9010   20.3720 H   0  0  0  0  0  0  0  0  0  0  0  0
  -26.3500  -15.6700   19.8720 H   0  0  0  0  0  0  0  0  0  0  0  0
  1  4  1  0
  2  1  2  0
  3  6  1  0
  4  8  1  0
  5  2  1  0
  5  3  2  0
  6  4  2  0
  6 53  1  0
  8  7  1  0
  9  8  1  0
 10  9  1  0
 11 22  2  0
 12 10  1  0
 12 17  1  0
 13 21  1  0
 13 23  1  0
 14 20  1  0
 14 16  1  0
 15 21  1  0
 16 17  2  0
 16 15  1  0
 18 12  2  0
 19 18  1  0
 19 14  2  0
 20 13  1  0
 21 11  1  0
 23 25  2  0
 24 23  1  0
 26 24  1  0
 27 36  2  0
 27 32  1  0
 28 24  1  0
 28 32  1  0
 29 28  1  0
 30 31  1  0
 30 29  1  0
 31 27  1  0
 32 33  2  0
 33 34  1  0
 35 34  2  0
 36 35  1  0
 37 11  1  0
 37 42  1  0
 37 38  1  0
 38 41  1  1
 38 39  1  0
 40 38  1  0
 42 45  1  0
 43 47  1  0
 43 42  1  0
 44 43  2  0
 47 46  1  0
 49 47  1  0
 49 50  1  0
 49 48  1  0
 51 52  1  0
 52  5  1  0
 55 60  1  0
 56 57  1  0
 56 55  1  0
 58 57  1  0
 58 71  1  0
 58 59  1  0
 60 54  1  0
 60 59  1  0
 61 54  2  0
 62 66  1  0
 64 62  1  0
 64 67  1  0
 65 63  1  0
 66 53  1  0
 66 63  1  0
 67 54  1  0
 67 65  1  0
 68 69  2  0
 69 88  1  0
 70 69  1  0
 70 73  1  0
 71 72  1  0
 71 68  1  0
 72 70  2  0
 73 74  1  0
 74 75  2  0
 76 79  1  0
 76 75  1  0
 77 76  2  0
 78 77  1  0
 78 73  2  0
 79 80  1  0
 80 81  1  0
 81 82  2  0
 83 82  1  0
 83 87  1  0
 84 83  2  0
 85 80  2  0
 85 84  1  0
 86 85  1  0
 88 89  1  0
 89 92  1  0
 89 91  1  0
 90 88  2  0
 93 94  1  0
 93 68  1  0
 95 93  1  0
M  ISO  4   9 101  10 101  54 100  67 100
M  END
>  <TORSDO>  (37) 
F 20

>  <SCORE>  (37) 
-13.823

>  <name>  (37) 
36

>  <ligand_id>  (37) 
36

>  <original_smiles>  (37) 
[H]c1c([H])c([H])c2c(c1[H])C([H])([H])C([H])([H])C([H])([H])C2([H])N([H])C(=O)C1([H])N(C(=O)C([H])(N([H])C(=O)C([H])(N([H])C([H])([H])[H])C([H])([H])[H])C(C([H])([H])[H])(C([H])([H])[H])C([H])([H])[H])C([H])([H])c2c([H])c(OC([H])([H])C([H])(c3c([H])c([H])c(OC([H])([H])[H])c([H])c3OC3([H])C([H])([H])C([H])([H])N(C(=O)N4C([H])([H])C([H])([H])C([H])([H])C([H])(n5nc(-c6c([H])c([H])c(Oc7c([H])c([H])c(F)c([H])c7F)c([H])c6[H])c(C(=O)N([H])[H])c5N([H])[H])C4([H])[H])C([H])([H])C3([H])[H])C([H])([H])[H])c([H])c([H])c2C1([H])[H]

>  <smiles>  (37) 
[H]c1c([H])c([H])c2c(c1[H])C([H])([H])C([H])([H])C([H])([H])C2([H])N([H])C(=O)C1([H])N(C(=O)C([H])(N([H])C(=O)C([H])(N([H])C([H])([H])[H])C([H])([H])[H])C(C([H])([H])[H])(C([H])([H])[H])C([H])([H])[H])C([H])([H])c2c([H])c(OC([H])([H])C([H])(c3c([H])c([H])c(OC([H])([H])[H])c([H])c3OC3([H])C([H])([H])C([H])([H])N(C(=O)N4C([H])([H])C([H])([H])C([H])([H])C([H])(n5nc(-c6c([H])c([H])c(Oc7c([H])c([H])c(F)c([H])c7F)c([H])c6[H])c(C(=O)N([H])[H])c5N([H])[H])C4([H])[H])C([H])([H])C3([H])[H])C([H])([H])[H])c([H])c([H])c2C1([H])[H]

$$$$
37:0:0
     RDKit          3D

100109  0  0  1  0  0  0  0  0999 V2000
  -30.0240  -18.5530   20.6840 C   0  0  0  0  0  3  0  0  0  0  0  0
  -30.8370  -17.2800   18.7460 C   0  0  0  0  0  3  0  0  0  0  0  0
  -30.2010  -19.8120   19.9670 C   0  0  0  0  0  0  0  0  0  0  0  0
  -30.7910  -19.7030   18.6990 C   0  0  0  0  0  0  0  0  0  0  0  0
  -30.4060  -17.2640   20.0940 C   0  0  0  0  0  0  0  0  0  0  0  0
  -31.0310  -18.4850   18.0360 C   0  0  0  0  0  0  0  0  0  0  0  0
  -31.1240  -21.9970   19.3490 C   0  0  0  0  0  2  0  0  0  0  0  0
  -30.1730  -21.3580   20.4140 C   0  0  0  0  0  3  0  0  0  0  0  0
  -31.3290  -21.0060   18.1800 C   0  0  0  0  0  3  0  0  0  0  0  0
  -31.0340  -14.7810   20.3570 C   0  0  0  0  0  0  0  0  0  0  0  0
  -30.7300  -12.6020   19.1950 C   0  0  0  0  0  2  0  0  0  0  0  0
  -29.8000  -12.8320   17.9830 C   0  0  0  0  0  2  0  0  0  0  0  0
  -28.3230  -12.7040   18.3980 C   0  0  0  0  0  2  0  0  0  0  0  0
  -27.9940  -13.5000   19.6900 C   0  0  0  0  0  3  0  0  0  0  0  0
  -29.0420  -13.2600   20.7960 C   0  0  0  0  0  2  0  0  0  0  0  0
  -30.3600  -13.5880   20.2360 N   0  0  0  0  0  0  0  0  0  0  0  0
  -32.2110  -14.8590   19.9840 O   0  0  0  0  0  0  0  0  0  0  0  0
  -30.3330  -15.9220   20.7250 N   0  0  0  0  0  0  0  0  0  0  0  0
  -29.4890  -15.7430   21.2500 H   0  0  0  0  0  0  0  0  0  0  0  0
  -25.6100  -14.1340   20.3950 C   0  0  0  0  0  0  0  0  0  0  0  0
  -24.5240  -13.3800   20.7450 C   0  0  0  0  0  0  0  0  0  0  0  0
  -24.9600  -12.0190   20.7070 C   0  0  0  0  0  0  0  0  0  0  0  0
  -26.6370  -13.2360   20.1580 N   0  0  0  0  0  0  0  0  0  0  0  0
  -26.2520  -11.9560   20.4080 N   0  0  0  0  0  0  0  0  0  0  0  0
  -24.2050  -10.7710   20.8790 C   0  0  0  0  0  0  0  0  0  0  0  0
  -24.5790   -9.8070   21.8420 C   0  0  0  0  0  3  0  0  0  0  0  0
  -23.8260   -8.6250   22.0000 C   0  0  0  0  0  3  0  0  0  0  0  0
  -22.6840   -8.3970   21.1950 C   0  0  0  0  0  0  0  0  0  0  0  0
  -22.3320   -9.3470   20.2200 C   0  0  0  0  0  3  0  0  0  0  0  0
  -23.0850  -10.5220   20.0620 C   0  0  0  0  0  3  0  0  0  0  0  0
  -21.9080   -7.2650   21.2600 O   0  0  0  0  0  0  0  0  0  0  0  0
  -21.7620   -6.5590   22.4280 C   0  0  0  0  0  0  0  0  0  0  0  0
  -21.2660   -7.1600   23.6050 C   0  0  0  0  0  3  0  0  0  0  0  0
  -21.0660   -6.3810   24.7630 C   0  0  0  0  0  3  0  0  0  0  0  0
  -21.3540   -5.0020   24.7440 C   0  0  0  0  0  0  0  0  0  0  0  0
  -21.8440   -4.4020   23.5700 C   0  0  0  0  0  3  0  0  0  0  0  0
  -22.0450   -5.1780   22.4140 C   0  0  0  0  0  0  0  0  0  0  0  0
  -22.4960   -4.5910   21.2800 F   0  0  0  0  0  0  0  0  0  0  0  0
  -21.1560   -4.2520   25.8510 F   0  0  0  0  0  0  0  0  0  0  0  0
  -23.1360  -13.8820   21.0090 C   0  0  0  0  0  0  0  0  0  0  0  0
  -22.3970  -13.2160   21.8900 N   0  0  0  0  0  0  0  0  0  0  0  0
  -22.7110  -14.9030   20.4680 O   0  0  0  0  0  0  0  0  0  0  0  0
  -22.7540  -12.3910   22.3490 H   0  0  0  0  0  0  0  0  0  0  0  0
  -21.4640  -13.5320   22.1080 H   0  0  0  0  0  0  0  0  0  0  0  0
  -25.8040  -15.5040   20.2380 N   0  0  0  0  0  0  0  0  0  0  0  0
  -25.0510  -16.1720   20.3620 H   0  0  0  0  0  0  0  0  0  0  0  0
  -26.6680  -15.9330   19.9300 H   0  0  0  0  0  0  0  0  0  0  0  0
  -29.2710  -21.5740   16.8480 C   0  0  0  0  0  1  0  0  0  0  0  0
  -31.4770  -22.4660   16.1760 C   0  0  0  0  0  1  0  0  0  0  0  0
  -30.7380  -21.3830   16.8650 N   0  0  1  0  0  4  0  0  0  0  0  0
  -30.9040  -20.5610   16.3010 H   0  0  0  0  0  0  0  0  0  0  0  0
  -28.9090  -22.2400   20.4900 N   0  0  0  0  0  4  0  0  0  0  0  0
  -28.2980  -21.8130   21.1710 H   0  0  0  0  0  0  0  0  0  0  0  0
  -28.4110  -22.1760   19.6170 H   0  0  0  0  0  0  0  0  0  0  0  0
  -29.0650  -23.7390   20.8840 C   0  0  0  0  0  3  0  0  0  0  0  0
  -28.0380  -24.8480   20.3020 C   0  0  0  0  0  3  0  0  0  0  0  0
  -28.3130  -26.3310   20.3880 O   0  0  0  0  0  0  0  0  0  0  0  0
  -24.6030  -31.9070   23.1940 C   0  0  0  0  0  0  0  0  0  0  0  0
  -27.2290  -27.2350   20.2760 C   0  0  0  0  0  0  0  0  0  0  0  0
  -23.4170  -30.4680   21.5790 C   0  0  0  0  0  3  0  0  0  0  0  0
  -24.8810  -28.8880   20.1970 C   0  0  0  0  0  0  0  0  0  0  0  0
  -25.9630  -30.7730   21.4160 C   0  0  0  0  0  2  0  0  0  0  0  0
  -26.0480  -29.3770   20.7980 C   0  0  0  0  0  0  0  0  0  0  0  0
  -27.2260  -28.5620   20.8230 C   0  0  0  0  0  3  0  0  0  0  0  0
  -26.0410  -26.8220   19.6290 C   0  0  0  0  0  3  0  0  0  0  0  0
  -24.8830  -27.6200   19.5990 C   0  0  0  0  0  3  0  0  0  0  0  0
  -23.6480  -29.7690   20.2140 C   0  0  0  0  0  2  0  0  0  0  0  0
  -24.6800  -31.0690   22.1190 N   0  0  0  0  0  0  0  0  0  0  0  0
  -23.5140  -32.1950   23.7120 O   0  0  0  0  0  0  0  0  0  0  0  0
  -22.7460  -29.4710   22.5540 C   0  0  0  0  0  0  0  0  0  0  0  0
  -21.4260  -29.2660   22.4000 N   0  0  0  0  0  0  0  0  0  0  0  0
  -23.4120  -28.8880   23.4120 O   0  0  0  0  0  0  0  0  0  0  0  0
  -20.9430  -29.7900   21.6840 H   0  0  0  0  0  0  0  0  0  0  0  0
  -18.0560  -28.0300   22.8630 C   0  0  0  0  0  0  0  0  0  0  0  0
  -20.6040  -28.3390   23.1800 C   0  0  0  0  0  3  0  0  0  0  0  0
  -20.7410  -26.8910   22.6540 C   0  0  0  0  0  2  0  0  0  0  0  0
  -19.6680  -26.5190   21.6260 C   0  0  0  0  0  2  0  0  0  0  0  0
  -18.2700  -26.6620   22.2350 C   0  0  0  0  0  2  0  0  0  0  0  0
  -19.1530  -28.8230   23.2920 C   0  0  0  0  0  0  0  0  0  0  0  0
  -18.9020  -30.1000   23.8390 C   0  0  0  0  0  3  0  0  0  0  0  0
  -17.5860  -30.5860   23.9610 C   0  0  0  0  0  3  0  0  0  0  0  0
  -16.5030  -29.7890   23.5500 C   0  0  0  0  0  3  0  0  0  0  0  0
  -16.7390  -28.5140   23.0070 C   0  0  0  0  0  3  0  0  0  0  0  0
  -25.8770  -32.5610   23.8110 C   0  0  0  0  0  3  0  0  0  0  0  0
  -25.5490  -33.9540   24.1460 N   0  0  0  0  0  0  0  0  0  0  0  0
  -25.8950  -35.0180   23.4070 C   0  0  0  0  0  0  0  0  0  0  0  0
  -26.5940  -34.9280   22.3940 O   0  0  0  0  0  0  0  0  0  0  0  0
  -24.9400  -34.0980   24.9380 H   0  0  0  0  0  0  0  0  0  0  0  0
  -24.1860  -36.8160   22.9950 C   0  0  0  0  0  1  0  0  0  0  0  0
  -25.3850  -36.3990   23.8630 C   0  0  0  0  0  3  0  0  0  0  0  0
  -27.4750  -37.2670   24.8140 C   0  0  0  0  0  1  0  0  0  0  0  0
  -26.4220  -37.4540   23.8200 N   0  0  0  0  0  0  0  0  0  0  0  0
  -26.0080  -38.3710   23.9660 H   0  0  0  0  0  0  0  0  0  0  0  0
  -26.4090  -31.7960   25.0850 C   0  0  1  0  0  0  0  0  0  0  0  0
  -25.3160  -31.5050   26.1380 C   0  0  0  0  0  1  0  0  0  0  0  0
  -27.0480  -30.4450   24.6870 C   0  0  0  0  0  1  0  0  0  0  0  0
  -27.5240  -32.6230   25.7680 C   0  0  0  0  0  1  0  0  0  0  0  0
  -31.4750  -18.5600   16.7320 O   0  0  0  0  0  0  0  0  0  0  0  0
  -31.7270  -17.7080   14.5100 C   0  0  0  0  0  1  0  0  0  0  0  0
  -31.6470  -17.3520   15.9960 C   0  0  0  0  0  2  0  0  0  0  0  0
  2  5  2  0
  3  8  1  0
  3  1  2  0
  4  3  1  0
  5  1  1  0
  5 18  1  0
  6  4  2  0
  6  2  1  0
  7  8  1  0
  8 52  1  0
  9 50  1  0
  9  4  1  0
  9  7  1  0
 10 18  1  0
 11 16  1  0
 12 13  1  0
 12 11  1  0
 14 13  1  0
 14 23  1  0
 14 15  1  0
 16 10  1  0
 16 15  1  0
 17 10  2  0
 18 19  1  0
 20 21  2  0
 21 40  1  0
 22 21  1  0
 22 25  1  0
 23 20  1  0
 23 24  1  0
 24 22  2  0
 25 26  1  0
 26 27  2  0
 28 31  1  0
 28 27  1  0
 29 28  2  0
 30 29  1  0
 30 25  2  0
 31 32  1  0
 32 33  1  0
 33 34  2  0
 35 34  1  0
 35 39  1  0
 36 35  2  0
 37 32  2  0
 37 36  1  0
 38 37  1  0
 40 41  1  0
 41 44  1  0
 41 43  1  0
 42 40  2  0
 45 46  1  0
 45 20  1  0
 47 45  1  0
 48 50  1  0
 49 50  1  0
 50 51  1  6
 52 55  1  0
 52 53  1  0
 54 52  1  0
 56 57  1  0
 56 55  2  0
 58 69  2  0
 59 57  1  0
 59 64  1  0
 60 68  1  0
 60 70  1  0
 61 67  1  0
 61 63  1  0
 62 68  1  0
 63 64  2  0
 63 62  1  0
 65 59  2  0
 66 65  1  0
 66 61  2  0
 67 60  1  0
 68 58  1  0
 70 72  2  0
 71 70  1  0
 73 71  1  0
 74 83  2  0
 74 79  1  0
 75 71  1  0
 75 79  1  0
 76 75  1  0
 77 78  1  0
 77 76  1  0
 78 74  1  0
 79 80  2  0
 80 81  1  0
 82 81  2  0
 83 82  1  0
 84 58  1  0
 84 85  1  0
 84 94  1  0
 85 88  1  0
 86 90  1  0
 86 85  1  0
 87 86  2  0
 90 89  1  0
 92 90  1  0
 92 93  1  0
 92 91  1  0
 94 97  1  1
 94 95  1  0
 96 94  1  0
 98  6  1  0
 99100  1  0
100 98  1  0
M  ISO  4  10 100  18 100  56 101  57 101
M  END
>  <TORSDO>  (38) 
F 22

>  <SCORE>  (38) 
-13.084

>  <name>  (38) 
37

>  <ligand_id>  (38) 
37

>  <original_smiles>  (38) 
[H]c1c([H])c([H])c2c(c1[H])C([H])([H])C([H])([H])C([H])([H])C2([H])N([H])C(=O)C1([H])N(C(=O)C([H])(N([H])C(=O)C([H])(N([H])C([H])([H])[H])C([H])([H])[H])C(C([H])([H])[H])(C([H])([H])[H])C([H])([H])[H])C([H])([H])c2c([H])c(OC([H])([H])C([H])([H])[N+]([H])([H])C3([H])c4c([H])c(N([H])C(=O)N5C([H])([H])C([H])([H])C([H])([H])C([H])(n6nc(-c7c([H])c([H])c(Oc8c([H])c([H])c(F)c([H])c8F)c([H])c7[H])c(C(=O)N([H])[H])c6N([H])[H])C5([H])[H])c([H])c(OC([H])([H])C([H])([H])[H])c4C([H])([N+]([H])(C([H])([H])[H])C([H])([H])[H])C3([H])[H])c([H])c([H])c2C1([H])[H]

>  <smiles>  (38) 
[H]c1c([H])c([H])c2c(c1[H])C([H])([H])C([H])([H])C([H])([H])C2([H])N([H])C(=O)C1([H])N(C(=O)C([H])(N([H])C(=O)C([H])(N([H])C([H])([H])[H])C([H])([H])[H])C(C([H])([H])[H])(C([H])([H])[H])C([H])([H])[H])C([H])([H])c2c([H])c(OC([H])([H])C([H])([H])[N+]([H])([H])C3([H])c4c([H])c(N([H])C(=O)N5C([H])([H])C([H])([H])C([H])([H])C([H])(n6nc(-c7c([H])c([H])c(Oc8c([H])c([H])c(F)c([H])c8F)c([H])c7[H])c(C(=O)N([H])[H])c6N([H])[H])C5([H])[H])c([H])c(OC([H])([H])C([H])([H])[H])c4C([H])([N+]([H])(C([H])([H])[H])C([H])([H])[H])C3([H])[H])c([H])c([H])c2C1([H])[H]

$$$$
38:0:0
     RDKit          3D

 95105  0  0  1  0  0  0  0  0999 V2000
  -30.1530  -19.8180   21.4120 C   0  0  0  0  0  3  0  0  0  0  0  0
  -28.6320  -19.4490   19.6640 C   0  0  0  0  0  3  0  0  0  0  0  0
  -29.2480  -20.4190   20.4980 C   0  0  0  0  0  0  0  0  0  0  0  0
  -30.4710  -18.4170   21.4110 C   0  0  0  0  0  0  0  0  0  0  0  0
  -29.8500  -17.5090   20.4820 C   0  0  0  0  0  0  0  0  0  0  0  0
  -28.9130  -18.0970   19.6660 N   0  0  0  0  0  0  0  0  0  0  0  0
  -30.8480  -15.0790   20.8740 C   0  0  0  0  0  0  0  0  0  0  0  0
  -30.6920  -12.6840   20.1490 C   0  0  0  0  0  2  0  0  0  0  0  0
  -29.9180  -12.4990   18.8280 C   0  0  0  0  0  2  0  0  0  0  0  0
  -28.4110  -12.3790   19.1070 C   0  0  0  0  0  2  0  0  0  0  0  0
  -27.8770  -13.4210   20.1300 C   0  0  0  0  0  3  0  0  0  0  0  0
  -28.8140  -13.5990   21.3420 C   0  0  0  0  0  2  0  0  0  0  0  0
  -30.1440  -13.8930   20.8030 N   0  0  0  0  0  0  0  0  0  0  0  0
  -32.0660  -14.9820   21.0330 O   0  0  0  0  0  0  0  0  0  0  0  0
  -30.4240  -16.1740   20.0960 N   0  0  0  0  0  0  0  0  0  0  0  0
  -25.4300  -13.9900   20.6280 C   0  0  0  0  0  0  0  0  0  0  0  0
  -24.3420  -13.2070   20.9110 C   0  0  0  0  0  0  0  0  0  0  0  0
  -24.8280  -11.8660   20.9800 C   0  0  0  0  0  0  0  0  0  0  0  0
  -26.5040  -13.1250   20.5250 N   0  0  0  0  0  0  0  0  0  0  0  0
  -26.1440  -11.8450   20.8110 N   0  0  0  0  0  0  0  0  0  0  0  0
  -24.1040  -10.5960   21.1350 C   0  0  0  0  0  0  0  0  0  0  0  0
  -24.4680   -9.6540   22.1210 C   0  0  0  0  0  3  0  0  0  0  0  0
  -23.7410   -8.4520   22.2660 C   0  0  0  0  0  3  0  0  0  0  0  0
  -22.6400   -8.1830   21.4210 C   0  0  0  0  0  0  0  0  0  0  0  0
  -22.2970   -9.1130   20.4240 C   0  0  0  0  0  3  0  0  0  0  0  0
  -23.0240  -10.3050   20.2780 C   0  0  0  0  0  3  0  0  0  0  0  0
  -21.8940   -7.0290   21.4690 O   0  0  0  0  0  0  0  0  0  0  0  0
  -21.7660   -6.3040   22.6240 C   0  0  0  0  0  0  0  0  0  0  0  0
  -21.2160   -6.8620   23.7990 C   0  0  0  0  0  3  0  0  0  0  0  0
  -21.0360   -6.0600   24.9430 C   0  0  0  0  0  3  0  0  0  0  0  0
  -21.4010   -4.7010   24.9160 C   0  0  0  0  0  0  0  0  0  0  0  0
  -21.9480   -4.1420   23.7470 C   0  0  0  0  0  3  0  0  0  0  0  0
  -22.1270   -4.9410   22.6030 C   0  0  0  0  0  0  0  0  0  0  0  0
  -22.6300   -4.3920   21.4720 F   0  0  0  0  0  0  0  0  0  0  0  0
  -21.2270   -3.9280   26.0120 F   0  0  0  0  0  0  0  0  0  0  0  0
  -22.9180  -13.6670   21.0120 C   0  0  0  0  0  0  0  0  0  0  0  0
  -22.1230  -13.0170   21.8520 N   0  0  0  0  0  0  0  0  0  0  0  0
  -22.5140  -14.6420   20.3780 O   0  0  0  0  0  0  0  0  0  0  0  0
  -22.4640  -12.2300   22.3850 H   0  0  0  0  0  0  0  0  0  0  0  0
  -21.1630  -13.3110   21.9660 H   0  0  0  0  0  0  0  0  0  0  0  0
  -25.5910  -15.3560   20.4190 N   0  0  0  0  0  0  0  0  0  0  0  0
  -24.8060  -15.9990   20.4370 H   0  0  0  0  0  0  0  0  0  0  0  0
  -26.4680  -15.8080   20.1870 H   0  0  0  0  0  0  0  0  0  0  0  0
  -32.0410  -15.4470   18.1110 C   0  0  0  0  0  2  0  0  0  0  0  0
  -30.7750  -16.0500   17.5570 C   0  0  0  0  0  2  0  0  0  0  0  0
  -31.2580  -16.4690   18.9300 C   0  0  0  0  0  3  0  0  0  0  0  0
  -27.5630  -22.6120   20.3920 C   0  0  0  0  0  2  0  0  0  0  0  0
  -29.8220  -22.8540   19.4490 C   0  0  0  0  0  2  0  0  0  0  0  0
  -27.4540  -24.2010   20.5390 C   0  0  0  0  0  2  0  0  0  0  0  0
  -29.7190  -24.4320   19.6010 C   0  0  0  0  0  2  0  0  0  0  0  0
  -29.0110  -22.0160   20.4890 C   0  0  0  0  0  3  0  0  0  0  0  0
  -28.2890  -25.0740   19.5310 C   0  0  0  0  0  3  0  0  0  0  0  0
  -28.3350  -26.5760   19.7210 O   0  0  0  0  0  0  0  0  0  0  0  0
  -24.5220  -31.7660   23.0690 C   0  0  0  0  0  0  0  0  0  0  0  0
  -27.1950  -27.4160   19.7150 C   0  0  0  0  0  0  0  0  0  0  0  0
  -23.3290  -30.4220   21.3790 C   0  0  0  0  0  3  0  0  0  0  0  0
  -24.7920  -28.9950   19.8330 C   0  0  0  0  0  0  0  0  0  0  0  0
  -25.8550  -30.8200   21.1620 C   0  0  0  0  0  2  0  0  0  0  0  0
  -25.9620  -29.4780   20.4340 C   0  0  0  0  0  0  0  0  0  0  0  0
  -27.1640  -28.7010   20.3610 C   0  0  0  0  0  3  0  0  0  0  0  0
  -25.9990  -27.0000   19.0910 C   0  0  0  0  0  3  0  0  0  0  0  0
  -24.8180  -27.7680   19.1500 C   0  0  0  0  0  3  0  0  0  0  0  0
  -23.5320  -29.8310   19.9570 C   0  0  0  0  0  2  0  0  0  0  0  0
  -24.5900  -31.0190   21.9270 N   0  0  0  0  0  0  0  0  0  0  0  0
  -23.4430  -31.9770   23.6400 O   0  0  0  0  0  0  0  0  0  0  0  0
  -22.7170  -29.3350   22.2950 C   0  0  0  0  0  0  0  0  0  0  0  0
  -21.3940  -29.1210   22.1840 N   0  0  0  0  0  0  0  0  0  0  0  0
  -23.4310  -28.6880   23.0660 O   0  0  0  0  0  0  0  0  0  0  0  0
  -20.8730  -29.6980   21.5380 H   0  0  0  0  0  0  0  0  0  0  0  0
  -18.0640  -27.8070   22.7070 C   0  0  0  0  0  0  0  0  0  0  0  0
  -20.6220  -28.1150   22.9160 C   0  0  0  0  0  3  0  0  0  0  0  0
  -20.7390  -26.7260   22.2470 C   0  0  0  0  0  2  0  0  0  0  0  0
  -19.6150  -26.4430   21.2470 C   0  0  0  0  0  2  0  0  0  0  0  0
  -18.2500  -26.5100   21.9380 C   0  0  0  0  0  2  0  0  0  0  0  0
  -19.1770  -28.5690   23.1520 C   0  0  0  0  0  0  0  0  0  0  0  0
  -18.9450  -29.7850   23.8310 C   0  0  0  0  0  3  0  0  0  0  0  0
  -17.6340  -30.2390   24.0690 C   0  0  0  0  0  3  0  0  0  0  0  0
  -16.5370  -29.4740   23.6390 C   0  0  0  0  0  3  0  0  0  0  0  0
  -16.7520  -28.2600   22.9650 C   0  0  0  0  0  3  0  0  0  0  0  0
  -25.7970  -32.4070   23.7000 C   0  0  0  0  0  3  0  0  0  0  0  0
  -26.3360  -31.6090   24.9500 C   0  0  1  0  0  0  0  0  0  0  0  0
  -25.2570  -31.3230   26.0210 C   0  0  0  0  0  1  0  0  0  0  0  0
  -26.9380  -30.2530   24.5160 C   0  0  0  0  0  1  0  0  0  0  0  0
  -27.4800  -32.4030   25.6270 C   0  0  0  0  0  1  0  0  0  0  0  0
  -25.4610  -33.7870   24.0760 N   0  0  0  0  0  0  0  0  0  0  0  0
  -25.7970  -34.8740   23.3690 C   0  0  0  0  0  0  0  0  0  0  0  0
  -26.4870  -34.8190   22.3480 O   0  0  0  0  0  0  0  0  0  0  0  0
  -24.8470  -33.9030   24.8690 H   0  0  0  0  0  0  0  0  0  0  0  0
  -24.0770  -36.6790   23.0250 C   0  0  0  0  0  1  0  0  0  0  0  0
  -25.2820  -36.2370   23.8690 C   0  0  0  0  0  3  0  0  0  0  0  0
  -27.3640  -37.0930   24.8500 C   0  0  0  0  0  1  0  0  0  0  0  0
  -26.3130  -37.2980   23.8570 N   0  0  0  0  0  0  0  0  0  0  0  0
  -25.8950  -38.2090   24.0250 H   0  0  0  0  0  0  0  0  0  0  0  0
  -31.0740  -17.8630   23.8180 C   0  0  0  0  0  1  0  0  0  0  0  0
  -31.5760  -18.0080   22.3770 C   0  0  0  0  0  2  0  0  0  0  0  0
  2  6  2  0
  2  3  1  0
  3  1  2  0
  4  1  1  0
  4 95  1  0
  5  4  2  0
  6  5  1  0
  7 14  2  0
  8 13  1  0
  9 10  1  0
  9  8  1  0
 11 10  1  0
 11 19  1  0
 11 12  1  0
 13  7  1  0
 13 12  1  0
 15  5  1  0
 15  7  1  0
 16 17  2  0
 17 18  1  0
 17 36  1  0
 18 21  1  0
 19 16  1  0
 19 20  1  0
 20 18  2  0
 21 22  1  0
 22 23  2  0
 24 27  1  0
 24 23  1  0
 25 24  2  0
 26 25  1  0
 26 21  2  0
 27 28  1  0
 28 29  1  0
 29 30  2  0
 31 30  1  0
 31 35  1  0
 32 31  2  0
 33 28  2  0
 33 32  1  0
 34 33  1  0
 36 37  1  0
 37 40  1  0
 37 39  1  0
 38 36  2  0
 41 42  1  0
 41 16  1  0
 43 41  1  0
 44 46  1  0
 45 44  1  0
 45 46  1  0
 46 15  1  0
 47 51  1  0
 47 49  1  0
 48 50  1  0
 48 51  1  0
 51  3  1  0
 52 50  1  0
 52 53  1  0
 52 49  1  0
 54 65  2  0
 55 53  1  0
 55 60  1  0
 56 64  1  0
 56 66  1  0
 57 63  1  0
 57 59  1  0
 58 64  1  0
 59 58  1  0
 60 59  2  0
 61 62  1  0
 61 55  2  0
 62 57  2  0
 63 56  1  0
 64 54  1  0
 66 68  2  0
 67 66  1  0
 69 67  1  0
 70 79  2  0
 70 75  1  0
 71 67  1  0
 71 75  1  0
 72 71  1  0
 73 74  1  0
 73 72  1  0
 74 70  1  0
 75 76  2  0
 76 77  1  0
 78 77  2  0
 79 78  1  0
 80 54  1  0
 80 85  1  0
 80 81  1  0
 81 84  1  1
 81 82  1  0
 83 81  1  0
 85 88  1  0
 86 90  1  0
 86 85  1  0
 87 86  2  0
 90 89  1  0
 92 90  1  0
 92 93  1  0
 92 91  1  0
 95 94  1  0
M  ISO  4   7 100  15 100  52 101  53 101
M  END
>  <TORSDO>  (39) 
F 19

>  <SCORE>  (39) 
-12.308

>  <name>  (39) 
38

>  <ligand_id>  (39) 
38

>  <original_smiles>  (39) 
[H]c1nc(N(C(=O)N2C([H])([H])C([H])([H])C([H])([H])C([H])(n3nc(-c4c([H])c([H])c(Oc5c([H])c([H])c(F)c([H])c5F)c([H])c4[H])c(C(=O)N([H])[H])c3N([H])[H])C2([H])[H])C2([H])C([H])([H])C2([H])[H])c(C([H])([H])C([H])([H])[H])c([H])c1C1([H])C([H])([H])C([H])([H])C([H])(Oc2c([H])c([H])c3c(c2[H])C([H])([H])N(C(=O)C([H])(N([H])C(=O)C([H])(N([H])C([H])([H])[H])C([H])([H])[H])C(C([H])([H])[H])(C([H])([H])[H])C([H])([H])[H])C([H])(C(=O)N([H])C2([H])c4c([H])c([H])c([H])c([H])c4C([H])([H])C([H])([H])C2([H])[H])C3([H])[H])C([H])([H])C1([H])[H]

>  <smiles>  (39) 
[H]c1nc(N(C(=O)N2C([H])([H])C([H])([H])C([H])([H])C([H])(n3nc(-c4c([H])c([H])c(Oc5c([H])c([H])c(F)c([H])c5F)c([H])c4[H])c(C(=O)N([H])[H])c3N([H])[H])C2([H])[H])C2([H])C([H])([H])C2([H])[H])c(C([H])([H])C([H])([H])[H])c([H])c1C1([H])C([H])([H])C([H])([H])C([H])(Oc2c([H])c([H])c3c(c2[H])C([H])([H])N(C(=O)C([H])(N([H])C(=O)C([H])(N([H])C([H])([H])[H])C([H])([H])[H])C(C([H])([H])[H])(C([H])([H])[H])C([H])([H])[H])C([H])(C(=O)N([H])C2([H])c4c([H])c([H])c([H])c([H])c4C([H])([H])C([H])([H])C2([H])[H])C3([H])[H])C([H])([H])C1([H])[H]

$$$$
39:0:0
     RDKit          3D

 96105  0  0  1  0  0  0  0  0999 V2000
  -30.0440  -17.9570   18.9610 C   0  0  0  0  0  3  0  0  0  0  0  0
  -29.3880  -20.5080   19.8860 C   0  0  0  0  0  0  0  0  0  0  0  0
  -30.1290  -18.1790   20.3440 C   0  0  0  0  0  0  0  0  0  0  0  0
  -29.7970  -19.4940   20.8190 C   0  0  0  0  0  0  0  0  0  0  0  0
  -29.3110  -20.1270   18.5250 C   0  0  0  0  0  0  0  0  0  0  0  0
  -29.0250  -21.9730   20.3090 C   0  0  0  0  0  2  0  0  0  0  0  0
  -28.1700  -22.3300   18.0410 C   0  0  0  0  0  2  0  0  0  0  0  0
  -28.9320  -21.1320   17.4340 C   0  0  2  0  0  0  0  0  0  0  0  0
  -29.8940  -19.7930   22.3100 C   0  0  0  0  0  1  0  0  0  0  0  0
  -27.9740  -20.4830   16.4070 C   0  0  0  0  0  1  0  0  0  0  0  0
  -30.2040  -21.6070   16.7020 C   0  0  0  0  0  1  0  0  0  0  0  0
  -29.6600  -18.8990   18.0820 N   0  0  0  0  0  0  0  0  0  0  0  0
  -28.8620  -22.9670   19.1900 N   0  0  1  0  0  4  0  0  0  0  0  0
  -29.7900  -23.2000   18.8660 H   0  0  0  0  0  0  0  0  0  0  0  0
  -30.6860  -17.0370   21.2450 C   0  0  0  0  0  2  0  0  0  0  0  0
  -31.0280  -14.5870   20.5570 C   0  0  0  0  0  0  0  0  0  0  0  0
  -30.7900  -12.3630   19.4940 C   0  0  0  0  0  2  0  0  0  0  0  0
  -29.8720  -12.4910   18.2600 C   0  0  0  0  0  2  0  0  0  0  0  0
  -28.3890  -12.3660   18.6610 C   0  0  0  0  0  2  0  0  0  0  0  0
  -28.0180  -13.2600   19.8750 C   0  0  0  0  0  3  0  0  0  0  0  0
  -29.0460  -13.0950   21.0150 C   0  0  0  0  0  2  0  0  0  0  0  0
  -30.3750  -13.3940   20.4610 N   0  0  0  0  0  0  0  0  0  0  0  0
  -32.1850  -14.7420   20.1590 O   0  0  0  0  0  0  0  0  0  0  0  0
  -30.2710  -15.6370   20.9670 N   0  0  0  0  0  0  0  0  0  0  0  0
  -29.3260  -15.4000   21.2290 H   0  0  0  0  0  0  0  0  0  0  0  0
  -25.6230  -13.9110   20.5510 C   0  0  0  0  0  0  0  0  0  0  0  0
  -24.5340  -13.1580   20.8990 C   0  0  0  0  0  0  0  0  0  0  0  0
  -24.9690  -11.7980   20.8700 C   0  0  0  0  0  0  0  0  0  0  0  0
  -26.6530  -13.0090   20.3320 N   0  0  0  0  0  0  0  0  0  0  0  0
  -26.2630  -11.7340   20.5830 N   0  0  0  0  0  0  0  0  0  0  0  0
  -24.2140  -10.5500   21.0430 C   0  0  0  0  0  0  0  0  0  0  0  0
  -24.5990   -9.5810   21.9950 C   0  0  0  0  0  3  0  0  0  0  0  0
  -23.8480   -8.3960   22.1550 C   0  0  0  0  0  3  0  0  0  0  0  0
  -22.6970   -8.1740   21.3630 C   0  0  0  0  0  0  0  0  0  0  0  0
  -22.3310   -9.1320   20.4020 C   0  0  0  0  0  3  0  0  0  0  0  0
  -23.0830  -10.3080   20.2390 C   0  0  0  0  0  3  0  0  0  0  0  0
  -21.9210   -7.0430   21.4320 O   0  0  0  0  0  0  0  0  0  0  0  0
  -21.7940   -6.3260   22.5940 C   0  0  0  0  0  0  0  0  0  0  0  0
  -21.2810   -6.9060   23.7750 C   0  0  0  0  0  3  0  0  0  0  0  0
  -21.1030   -6.1150   24.9270 C   0  0  0  0  0  3  0  0  0  0  0  0
  -21.4270   -4.7460   24.9000 C   0  0  0  0  0  0  0  0  0  0  0  0
  -21.9330   -4.1650   23.7240 C   0  0  0  0  0  3  0  0  0  0  0  0
  -22.1130   -4.9530   22.5730 C   0  0  0  0  0  0  0  0  0  0  0  0
  -22.5800   -4.3840   21.4360 F   0  0  0  0  0  0  0  0  0  0  0  0
  -21.2500   -3.9840   26.0050 F   0  0  0  0  0  0  0  0  0  0  0  0
  -23.1420  -13.6620   21.1500 C   0  0  0  0  0  0  0  0  0  0  0  0
  -22.3870  -12.9800   22.0030 N   0  0  0  0  0  0  0  0  0  0  0  0
  -22.7320  -14.6980   20.6250 O   0  0  0  0  0  0  0  0  0  0  0  0
  -22.7310  -12.1430   22.4510 H   0  0  0  0  0  0  0  0  0  0  0  0
  -21.4520  -13.2980   22.2130 H   0  0  0  0  0  0  0  0  0  0  0  0
  -25.8190  -15.2780   20.3810 N   0  0  0  0  0  0  0  0  0  0  0  0
  -25.0640  -15.9470   20.4760 H   0  0  0  0  0  0  0  0  0  0  0  0
  -26.6800  -15.6990   20.0530 H   0  0  0  0  0  0  0  0  0  0  0  0
  -28.1690  -24.2780   19.5130 C   0  0  0  0  0  2  0  0  0  0  0  0
  -28.8330  -25.2740   20.5180 C   0  0  0  0  0  2  0  0  0  0  0  0
  -28.7890  -26.6960   20.1840 O   0  0  0  0  0  0  0  0  0  0  0  0
  -24.7530  -31.7450   23.3020 C   0  0  0  0  0  0  0  0  0  0  0  0
  -27.5940  -27.4050   20.2000 C   0  0  0  0  0  0  0  0  0  0  0  0
  -23.6480  -30.3930   21.5520 C   0  0  0  0  0  3  0  0  0  0  0  0
  -25.1880  -28.9190   20.1490 C   0  0  0  0  0  0  0  0  0  0  0  0
  -26.1810  -30.7740   21.4950 C   0  0  0  0  0  2  0  0  0  0  0  0
  -26.3140  -29.4250   20.8100 C   0  0  0  0  0  0  0  0  0  0  0  0
  -27.5210  -28.6790   20.8250 C   0  0  0  0  0  3  0  0  0  0  0  0
  -26.4430  -26.9260   19.5350 C   0  0  0  0  0  3  0  0  0  0  0  0
  -25.2480  -27.6720   19.5100 C   0  0  0  0  0  3  0  0  0  0  0  0
  -23.9350  -29.7690   20.1620 C   0  0  0  0  0  2  0  0  0  0  0  0
  -24.8760  -30.9850   22.1750 N   0  0  0  0  0  0  0  0  0  0  0  0
  -23.6430  -31.9840   23.7960 O   0  0  0  0  0  0  0  0  0  0  0  0
  -22.9620  -29.3290   22.4410 C   0  0  0  0  0  0  0  0  0  0  0  0
  -21.6430  -29.1570   22.2620 N   0  0  0  0  0  0  0  0  0  0  0  0
  -23.6190  -28.6640   23.2460 O   0  0  0  0  0  0  0  0  0  0  0  0
  -21.1760  -29.7470   21.5890 H   0  0  0  0  0  0  0  0  0  0  0  0
  -18.2470  -27.9660   22.6170 C   0  0  0  0  0  0  0  0  0  0  0  0
  -20.8010  -28.1830   22.9590 C   0  0  0  0  0  3  0  0  0  0  0  0
  -20.9040  -26.7870   22.3030 C   0  0  0  0  0  2  0  0  0  0  0  0
  -19.8230  -26.5340   21.2470 C   0  0  0  0  0  2  0  0  0  0  0  0
  -18.4280  -26.6560   21.8680 C   0  0  0  0  0  2  0  0  0  0  0  0
  -19.3630  -28.6900   23.1150 C   0  0  0  0  0  0  0  0  0  0  0  0
  -19.1420  -29.9200   23.7730 C   0  0  0  0  0  3  0  0  0  0  0  0
  -17.8390  -30.4250   23.9370 C   0  0  0  0  0  3  0  0  0  0  0  0
  -16.7370  -29.6960   23.4570 C   0  0  0  0  0  3  0  0  0  0  0  0
  -16.9420  -28.4670   22.8030 C   0  0  0  0  0  3  0  0  0  0  0  0
  -25.9980  -32.3680   24.0070 C   0  0  0  0  0  3  0  0  0  0  0  0
  -26.4540  -31.5650   25.2860 C   0  0  1  0  0  0  0  0  0  0  0  0
  -25.3110  -31.2870   26.2900 C   0  0  0  0  0  1  0  0  0  0  0  0
  -27.0690  -30.2040   24.8850 C   0  0  0  0  0  1  0  0  0  0  0  0
  -27.5640  -32.3480   26.0280 C   0  0  0  0  0  1  0  0  0  0  0  0
  -25.6590  -33.7540   24.3580 N   0  0  0  0  0  0  0  0  0  0  0  0
  -25.9950  -34.8270   23.6300 C   0  0  0  0  0  0  0  0  0  0  0  0
  -26.6940  -34.7540   22.6150 O   0  0  0  0  0  0  0  0  0  0  0  0
  -25.0450  -33.8840   25.1480 H   0  0  0  0  0  0  0  0  0  0  0  0
  -24.2430  -36.5940   23.2740 C   0  0  0  0  0  1  0  0  0  0  0  0
  -25.4750  -36.1970   24.1030 C   0  0  0  0  0  3  0  0  0  0  0  0
  -27.5720  -37.1060   25.0000 C   0  0  0  0  0  1  0  0  0  0  0  0
  -26.4900  -37.2700   24.0310 N   0  0  0  0  0  0  0  0  0  0  0  0
  -26.0630  -38.1800   24.1820 H   0  0  0  0  0  0  0  0  0  0  0  0
  1  3  1  0
  2  6  1  0
  2  4  1  0
  3  4  2  0
  3 15  1  0
  4  9  1  0
  5  2  2  0
  7 13  1  0
  8  7  1  0
  8  5  1  0
  8 10  1  6
 11  8  1  0
 12  5  1  0
 12  1  2  0
 13 54  1  0
 13  6  1  0
 13 14  1  6
 16 24  1  0
 17 22  1  0
 18 19  1  0
 18 17  1  0
 20 19  1  0
 20 29  1  0
 20 21  1  0
 22 16  1  0
 22 21  1  0
 23 16  2  0
 24 25  1  0
 24 15  1  0
 26 27  2  0
 27 46  1  0
 28 27  1  0
 28 31  1  0
 29 26  1  0
 29 30  1  0
 30 28  2  0
 31 32  1  0
 32 33  2  0
 34 37  1  0
 34 33  1  0
 35 34  2  0
 36 35  1  0
 36 31  2  0
 37 38  1  0
 38 39  1  0
 39 40  2  0
 41 40  1  0
 41 45  1  0
 42 41  2  0
 43 38  2  0
 43 42  1  0
 44 43  1  0
 46 47  1  0
 47 50  1  0
 47 49  1  0
 48 46  2  0
 51 52  1  0
 51 26  1  0
 53 51  1  0
 54 55  1  0
 56 58  1  0
 56 55  1  0
 57 68  2  0
 58 63  1  0
 59 67  1  0
 59 69  1  0
 60 66  1  0
 60 62  1  0
 61 67  1  0
 62 63  2  0
 62 61  1  0
 64 58  2  0
 65 64  1  0
 65 60  2  0
 66 59  1  0
 67 57  1  0
 69 71  2  0
 70 69  1  0
 72 70  1  0
 73 82  2  0
 73 78  1  0
 74 70  1  0
 74 78  1  0
 75 74  1  0
 76 77  1  0
 76 75  1  0
 77 73  1  0
 78 79  2  0
 79 80  1  0
 81 80  2  0
 82 81  1  0
 83 57  1  0
 83 88  1  0
 83 84  1  0
 84 87  1  1
 84 85  1  0
 86 84  1  0
 88 91  1  0
 89 93  1  0
 89 88  1  0
 90 89  2  0
 93 92  1  0
 95 93  1  0
 95 96  1  0
 95 94  1  0
M  ISO  4  16 100  24 100  55 101  56 101
M  END
>  <TORSDO>  (40) 
F 19

>  <SCORE>  (40) 
-12.945

>  <name>  (40) 
39

>  <ligand_id>  (40) 
39

>  <original_smiles>  (40) 
[H]c1nc2c(c(C([H])([H])[H])c1C([H])([H])N([H])C(=O)N1C([H])([H])C([H])([H])C([H])([H])C([H])(n3nc(-c4c([H])c([H])c(Oc5c([H])c([H])c(F)c([H])c5F)c([H])c4[H])c(C(=O)N([H])[H])c3N([H])[H])C1([H])[H])C([H])([H])[N+]([H])(C([H])([H])C([H])([H])Oc1c([H])c([H])c3c(c1[H])C([H])([H])N(C(=O)C([H])(N([H])C(=O)C([H])(N([H])C([H])([H])[H])C([H])([H])[H])C(C([H])([H])[H])(C([H])([H])[H])C([H])([H])[H])C([H])(C(=O)N([H])C1([H])c4c([H])c([H])c([H])c([H])c4C([H])([H])C([H])([H])C1([H])[H])C3([H])[H])C([H])([H])C2(C([H])([H])[H])C([H])([H])[H]

>  <smiles>  (40) 
[H]c1nc2c(c(C([H])([H])[H])c1C([H])([H])N([H])C(=O)N1C([H])([H])C([H])([H])C([H])([H])C([H])(n3nc(-c4c([H])c([H])c(Oc5c([H])c([H])c(F)c([H])c5F)c([H])c4[H])c(C(=O)N([H])[H])c3N([H])[H])C1([H])[H])C([H])([H])[N+]([H])(C([H])([H])C([H])([H])Oc1c([H])c([H])c3c(c1[H])C([H])([H])N(C(=O)C([H])(N([H])C(=O)C([H])(N([H])C([H])([H])[H])C([H])([H])[H])C(C([H])([H])[H])(C([H])([H])[H])C([H])([H])[H])C([H])(C(=O)N([H])C1([H])c4c([H])c([H])c([H])c([H])c4C([H])([H])C([H])([H])C1([H])[H])C3([H])[H])C([H])([H])C2(C([H])([H])[H])C([H])([H])[H]

$$$$
40:0:0
     RDKit          3D

 97107  0  0  1  0  0  0  0  0999 V2000
  -28.8740  -24.4110   21.6620 C   0  0  0  0  0  3  0  0  0  0  0  0
  -29.0440  -22.5700   20.0560 C   0  0  0  0  0  3  0  0  0  0  0  0
  -29.4560  -23.6060   22.6560 C   0  0  0  0  0  0  0  0  0  0  0  0
  -28.6510  -23.9370   20.3630 C   0  0  0  0  0  0  0  0  0  0  0  0
  -29.6500  -21.7200   21.0520 C   0  0  0  0  0  0  0  0  0  0  0  0
  -29.8010  -22.2640   22.3580 C   0  0  0  0  0  0  0  0  0  0  0  0
  -30.3480  -25.6300   24.0460 C   0  0  0  0  0  2  0  0  0  0  0  0
  -31.1340  -24.4290   24.5130 C   0  0  0  0  0  2  0  0  0  0  0  0
  -29.7270  -24.2500   23.9860 C   0  0  0  0  0  3  0  0  0  0  0  0
  -29.4730  -21.1840   24.4180 C   0  0  0  0  0  1  0  0  0  0  0  0
  -30.3530  -21.4650   23.3340 O   0  0  0  0  0  0  0  0  0  0  0  0
  -30.2490  -20.4120   20.9400 N   0  0  0  0  0  0  0  0  0  0  0  0
  -30.7780  -20.2410   21.7940 H   0  0  0  0  0  0  0  0  0  0  0  0
  -31.2370  -14.7710   20.4040 C   0  0  0  0  0  0  0  0  0  0  0  0
  -30.9850  -12.4420   19.5620 C   0  0  0  0  0  2  0  0  0  0  0  0
  -30.1020  -12.4240   18.2980 C   0  0  0  0  0  2  0  0  0  0  0  0
  -28.6090  -12.3160   18.6770 C   0  0  0  0  0  2  0  0  0  0  0  0
  -28.2050  -13.2980   19.8100 C   0  0  0  0  0  3  0  0  0  0  0  0
  -29.2230  -13.2650   20.9700 C   0  0  0  0  0  2  0  0  0  0  0  0
  -30.5290  -13.5870   20.3850 N   0  0  0  0  0  0  0  0  0  0  0  0
  -32.4560  -14.7130   20.2220 O   0  0  0  0  0  0  0  0  0  0  0  0
  -29.3500  -18.0570   21.1230 C   0  0  0  0  0  2  0  0  0  0  0  0
  -31.3420  -18.4660   19.7720 C   0  0  0  0  0  2  0  0  0  0  0  0
  -29.3160  -16.5590   20.6220 C   0  0  0  0  0  2  0  0  0  0  0  0
  -31.2250  -17.0000   19.2250 C   0  0  0  0  0  2  0  0  0  0  0  0
  -30.0060  -19.1360   20.1970 C   0  0  0  0  0  3  0  0  0  0  0  0
  -30.6100  -15.9980   20.1490 N   0  0  0  0  0  0  0  0  0  0  0  0
  -25.8260  -13.9950   20.4760 C   0  0  0  0  0  0  0  0  0  0  0  0
  -24.7190  -13.2660   20.8130 C   0  0  0  0  0  0  0  0  0  0  0  0
  -25.1230  -11.8970   20.7880 C   0  0  0  0  0  0  0  0  0  0  0  0
  -26.8380  -13.0710   20.2670 N   0  0  0  0  0  0  0  0  0  0  0  0
  -26.4190  -11.8030   20.5140 N   0  0  0  0  0  0  0  0  0  0  0  0
  -24.3390  -10.6660   20.9520 C   0  0  0  0  0  0  0  0  0  0  0  0
  -24.6640   -9.7070   21.9370 C   0  0  0  0  0  3  0  0  0  0  0  0
  -23.8810   -8.5400   22.0860 C   0  0  0  0  0  3  0  0  0  0  0  0
  -22.7590   -8.3280   21.2510 C   0  0  0  0  0  0  0  0  0  0  0  0
  -22.4550   -9.2740   20.2560 C   0  0  0  0  0  3  0  0  0  0  0  0
  -23.2380  -10.4300   20.1050 C   0  0  0  0  0  3  0  0  0  0  0  0
  -21.9580   -7.2140   21.3070 O   0  0  0  0  0  0  0  0  0  0  0  0
  -21.7320   -6.5490   22.4860 C   0  0  0  0  0  0  0  0  0  0  0  0
  -21.1600   -7.1910   23.6050 C   0  0  0  0  0  3  0  0  0  0  0  0
  -20.8800   -6.4550   24.7730 C   0  0  0  0  0  3  0  0  0  0  0  0
  -21.1600   -5.0760   24.8210 C   0  0  0  0  0  0  0  0  0  0  0  0
  -21.7240   -4.4330   23.7050 C   0  0  0  0  0  3  0  0  0  0  0  0
  -22.0070   -5.1680   22.5400 C   0  0  0  0  0  0  0  0  0  0  0  0
  -22.5310   -4.5380   21.4610 F   0  0  0  0  0  0  0  0  0  0  0  0
  -20.8830   -4.3670   25.9400 F   0  0  0  0  0  0  0  0  0  0  0  0
  -23.3360  -13.8030   21.0440 C   0  0  0  0  0  0  0  0  0  0  0  0
  -22.5660  -13.1610   21.9130 N   0  0  0  0  0  0  0  0  0  0  0  0
  -22.9490  -14.8320   20.4890 O   0  0  0  0  0  0  0  0  0  0  0  0
  -22.8930  -12.3320   22.3880 H   0  0  0  0  0  0  0  0  0  0  0  0
  -21.6360  -13.5010   22.1060 H   0  0  0  0  0  0  0  0  0  0  0  0
  -26.0460  -15.3580   20.3060 N   0  0  0  0  0  0  0  0  0  0  0  0
  -25.3000  -16.0390   20.4000 H   0  0  0  0  0  0  0  0  0  0  0  0
  -26.9190  -15.7660   19.9970 H   0  0  0  0  0  0  0  0  0  0  0  0
  -28.0400  -24.9670   19.3500 C   0  0  0  0  0  2  0  0  0  0  0  0
  -28.0630  -26.4140   19.7190 O   0  0  0  0  0  0  0  0  0  0  0  0
  -24.5770  -31.7720   23.0840 C   0  0  0  0  0  0  0  0  0  0  0  0
  -26.9260  -27.2390   19.7640 C   0  0  0  0  0  0  0  0  0  0  0  0
  -23.2590  -30.4480   21.4720 C   0  0  0  0  0  3  0  0  0  0  0  0
  -24.5970  -28.9010   19.9360 C   0  0  0  0  0  0  0  0  0  0  0  0
  -25.7930  -30.7120   21.1640 C   0  0  0  0  0  2  0  0  0  0  0  0
  -25.8050  -29.3500   20.4780 C   0  0  0  0  0  0  0  0  0  0  0  0
  -26.9710  -28.5320   20.3820 C   0  0  0  0  0  3  0  0  0  0  0  0
  -25.6820  -26.8390   19.2220 C   0  0  0  0  0  3  0  0  0  0  0  0
  -24.5350  -27.6500   19.3050 C   0  0  0  0  0  3  0  0  0  0  0  0
  -23.3880  -29.8040   20.0660 C   0  0  0  0  0  2  0  0  0  0  0  0
  -24.5670  -30.9940   21.9640 N   0  0  0  0  0  0  0  0  0  0  0  0
  -23.5290  -32.0580   23.6800 O   0  0  0  0  0  0  0  0  0  0  0  0
  -22.6240  -29.4200   22.4370 C   0  0  0  0  0  0  0  0  0  0  0  0
  -21.2980  -29.2260   22.3240 N   0  0  0  0  0  0  0  0  0  0  0  0
  -23.3180  -28.8030   23.2480 O   0  0  0  0  0  0  0  0  0  0  0  0
  -20.7970  -29.7770   21.6410 H   0  0  0  0  0  0  0  0  0  0  0  0
  -17.9600  -27.9060   22.7790 C   0  0  0  0  0  0  0  0  0  0  0  0
  -20.5000  -28.2750   23.0980 C   0  0  0  0  0  3  0  0  0  0  0  0
  -20.6700  -26.8350   22.5620 C   0  0  0  0  0  2  0  0  0  0  0  0
  -19.6050  -26.4430   21.5340 C   0  0  0  0  0  2  0  0  0  0  0  0
  -18.2060  -26.5480   22.1440 C   0  0  0  0  0  2  0  0  0  0  0  0
  -19.0380  -28.7230   23.2150 C   0  0  0  0  0  0  0  0  0  0  0  0
  -18.7560  -29.9900   23.7710 C   0  0  0  0  0  3  0  0  0  0  0  0
  -17.4290  -30.4420   23.8990 C   0  0  0  0  0  3  0  0  0  0  0  0
  -16.3650  -29.6240   23.4790 C   0  0  0  0  0  3  0  0  0  0  0  0
  -16.6310  -28.3600   22.9250 C   0  0  0  0  0  3  0  0  0  0  0  0
  -25.9030  -32.3570   23.6590 C   0  0  0  0  0  3  0  0  0  0  0  0
  -26.5050  -31.4880   24.8320 C   0  0  1  0  0  0  0  0  0  0  0  0
  -25.4870  -31.1570   25.9470 C   0  0  0  0  0  1  0  0  0  0  0  0
  -27.0680  -30.1520   24.2930 C   0  0  0  0  0  1  0  0  0  0  0  0
  -27.6960  -32.2360   25.4790 C   0  0  0  0  0  1  0  0  0  0  0  0
  -25.6230  -33.7240   24.1220 N   0  0  0  0  0  0  0  0  0  0  0  0
  -25.9300  -34.8360   23.4410 C   0  0  0  0  0  0  0  0  0  0  0  0
  -26.5500  -34.8140   22.3730 O   0  0  0  0  0  0  0  0  0  0  0  0
  -25.0630  -33.8090   24.9570 H   0  0  0  0  0  0  0  0  0  0  0  0
  -24.2080  -36.6650   23.3200 C   0  0  0  0  0  1  0  0  0  0  0  0
  -25.4800  -36.1830   24.0380 C   0  0  0  0  0  3  0  0  0  0  0  0
  -27.6600  -36.9790   24.8440 C   0  0  0  0  0  1  0  0  0  0  0  0
  -26.5190  -37.2350   23.9670 N   0  0  0  0  0  0  0  0  0  0  0  0
  -26.1300  -38.1430   24.2050 H   0  0  0  0  0  0  0  0  0  0  0  0
  1  3  1  0
  2  4  1  0
  2  5  2  0
  3  9  1  0
  4  1  2  0
  5  6  1  0
  6  3  2  0
  6 11  1  0
  7  8  1  0
  9  7  1  0
  9  8  1  0
 11 10  1  0
 12  5  1  0
 12 13  1  0
 15 20  1  0
 16 17  1  0
 16 15  1  0
 18 17  1  0
 18 31  1  0
 18 19  1  0
 20 14  1  0
 20 19  1  0
 21 14  2  0
 23 26  1  0
 24 22  1  0
 25 23  1  0
 25 27  1  0
 26 12  1  0
 26 22  1  0
 27 14  1  0
 27 24  1  0
 28 29  2  0
 29 48  1  0
 30 29  1  0
 30 33  1  0
 31 28  1  0
 31 32  1  0
 32 30  2  0
 33 34  1  0
 34 35  2  0
 36 39  1  0
 36 35  1  0
 37 36  2  0
 38 37  1  0
 38 33  2  0
 39 40  1  0
 40 45  2  0
 40 41  1  0
 41 42  2  0
 42 43  1  0
 43 47  1  0
 44 43  2  0
 45 44  1  0
 46 45  1  0
 48 49  1  0
 49 52  1  0
 49 51  1  0
 50 48  2  0
 53 54  1  0
 53 28  1  0
 55 53  1  0
 56 57  1  0
 56  4  1  0
 57 59  1  0
 58 69  2  0
 59 64  1  0
 60 68  1  0
 60 70  1  0
 61 67  1  0
 61 63  1  0
 62 68  1  0
 63 62  1  0
 64 63  2  0
 65 66  1  0
 65 59  2  0
 66 61  2  0
 67 60  1  0
 68 58  1  0
 70 72  2  0
 71 70  1  0
 73 71  1  0
 74 83  2  0
 74 79  1  0
 75 71  1  0
 75 79  1  0
 76 75  1  0
 77 78  1  0
 77 76  1  0
 78 74  1  0
 79 80  2  0
 80 81  1  0
 82 81  2  0
 83 82  1  0
 84 58  1  0
 84 89  1  0
 84 85  1  0
 85 88  1  1
 85 86  1  0
 87 85  1  0
 89 92  1  0
 90 94  1  0
 90 89  1  0
 91 90  2  0
 94 93  1  0
 96 94  1  0
 96 97  1  0
 96 95  1  0
M  ISO  4  14 100  27 100  56 101  57 101
M  END
>  <TORSDO>  (41) 
F 20

>  <SCORE>  (41) 
-7.429

>  <name>  (41) 
40

>  <ligand_id>  (41) 
40

>  <original_smiles>  (41) 
[H]c1c([H])c([H])c2c(c1[H])C([H])([H])C([H])([H])C([H])([H])C2([H])N([H])C(=O)C1([H])N(C(=O)C([H])(N([H])C(=O)C([H])(N([H])C([H])([H])[H])C([H])([H])[H])C(C([H])([H])[H])(C([H])([H])[H])C([H])([H])[H])C([H])([H])c2c([H])c(OC([H])([H])c3c([H])c(N([H])C4([H])C([H])([H])C([H])([H])N(C(=O)N5C([H])([H])C([H])([H])C([H])([H])C([H])(n6nc(-c7c([H])c([H])c(Oc8c([H])c([H])c(F)c([H])c8F)c([H])c7[H])c(C(=O)N([H])[H])c6N([H])[H])C5([H])[H])C([H])([H])C4([H])[H])c(OC([H])([H])[H])c(C4([H])C([H])([H])C4([H])[H])c3[H])c([H])c([H])c2C1([H])[H]

>  <smiles>  (41) 
[H]c1c([H])c([H])c2c(c1[H])C([H])([H])C([H])([H])C([H])([H])C2([H])N([H])C(=O)C1([H])N(C(=O)C([H])(N([H])C(=O)C([H])(N([H])C([H])([H])[H])C([H])([H])[H])C(C([H])([H])[H])(C([H])([H])[H])C([H])([H])[H])C([H])([H])c2c([H])c(OC([H])([H])c3c([H])c(N([H])C4([H])C([H])([H])C([H])([H])N(C(=O)N5C([H])([H])C([H])([H])C([H])([H])C([H])(n6nc(-c7c([H])c([H])c(Oc8c([H])c([H])c(F)c([H])c8F)c([H])c7[H])c(C(=O)N([H])[H])c6N([H])[H])C5([H])[H])C([H])([H])C4([H])[H])c(OC([H])([H])[H])c(C4([H])C([H])([H])C4([H])[H])c3[H])c([H])c([H])c2C1([H])[H]

$$$$
41:0:0
     RDKit          3D

 98107  0  0  1  0  0  0  0  0999 V2000
  -30.0980  -22.2940   21.8700 C   0  0  0  0  0  3  0  0  0  0  0  0
  -29.2090  -21.8030   19.6810 C   0  0  0  0  0  3  0  0  0  0  0  0
  -29.9200  -19.9390   21.1350 C   0  0  0  0  0  0  0  0  0  0  0  0
  -30.2710  -20.9170   22.1220 C   0  0  0  0  0  0  0  0  0  0  0  0
  -29.3880  -20.4120   19.8890 C   0  0  0  0  0  0  0  0  0  0  0  0
  -29.5540  -22.7510   20.6630 C   0  0  0  0  0  0  0  0  0  0  0  0
  -30.8320  -14.6860   20.0630 C   0  0  0  0  0  0  0  0  0  0  0  0
  -30.4890  -12.5840   18.7970 C   0  0  0  0  0  2  0  0  0  0  0  0
  -29.4500  -12.7810   17.6740 C   0  0  0  0  0  2  0  0  0  0  0  0
  -28.0180  -12.5620   18.2030 C   0  0  0  0  0  2  0  0  0  0  0  0
  -27.7540  -13.3410   19.5170 C   0  0  0  0  0  3  0  0  0  0  0  0
  -28.8970  -13.0820   20.5320 C   0  0  0  0  0  2  0  0  0  0  0  0
  -30.1580  -13.5060   19.9030 N   0  0  0  0  0  0  0  0  0  0  0  0
  -31.8440  -14.9300   19.3920 O   0  0  0  0  0  0  0  0  0  0  0  0
  -28.9840  -17.5270   20.8790 C   0  0  0  0  0  2  0  0  0  0  0  0
  -31.4950  -17.8170   21.2900 C   0  0  0  0  0  2  0  0  0  0  0  0
  -29.1410  -16.0750   21.3680 C   0  0  0  0  0  2  0  0  0  0  0  0
  -31.5170  -16.3400   21.7620 C   0  0  0  0  0  2  0  0  0  0  0  0
  -30.0830  -18.4300   21.4680 C   0  0  0  0  0  3  0  0  0  0  0  0
  -30.4850  -15.5250   21.0860 N   0  0  0  0  0  0  0  0  0  0  0  0
  -25.3980  -13.8800   20.4100 C   0  0  0  0  0  0  0  0  0  0  0  0
  -24.3790  -13.0710   20.8360 C   0  0  0  0  0  0  0  0  0  0  0  0
  -24.8700  -11.7340   20.7340 C   0  0  0  0  0  0  0  0  0  0  0  0
  -26.4440  -13.0300   20.0810 N   0  0  0  0  0  0  0  0  0  0  0  0
  -26.1330  -11.7350   20.3310 N   0  0  0  0  0  0  0  0  0  0  0  0
  -24.1940  -10.4480   20.9370 C   0  0  0  0  0  0  0  0  0  0  0  0
  -24.6200   -9.5400   21.9320 C   0  0  0  0  0  3  0  0  0  0  0  0
  -23.9420   -8.3160   22.1190 C   0  0  0  0  0  3  0  0  0  0  0  0
  -22.8260   -7.9930   21.3130 C   0  0  0  0  0  0  0  0  0  0  0  0
  -22.4230   -8.8890   20.3070 C   0  0  0  0  0  3  0  0  0  0  0  0
  -23.1010  -10.1040   20.1170 C   0  0  0  0  0  3  0  0  0  0  0  0
  -22.1210   -6.8180   21.4070 O   0  0  0  0  0  0  0  0  0  0  0  0
  -21.8880   -6.2140   22.6170 C   0  0  0  0  0  0  0  0  0  0  0  0
  -21.2010   -6.8740   23.6590 C   0  0  0  0  0  3  0  0  0  0  0  0
  -20.9230   -6.1940   24.8610 C   0  0  0  0  0  3  0  0  0  0  0  0
  -21.3200   -4.8520   25.0180 C   0  0  0  0  0  0  0  0  0  0  0  0
  -22.0000   -4.1910   23.9800 C   0  0  0  0  0  3  0  0  0  0  0  0
  -22.2800   -4.8710   22.7810 C   0  0  0  0  0  0  0  0  0  0  0  0
  -22.9160   -4.2240   21.7750 F   0  0  0  0  0  0  0  0  0  0  0  0
  -21.0470   -4.1940   26.1700 F   0  0  0  0  0  0  0  0  0  0  0  0
  -22.9940  -13.5030   21.2240 C   0  0  0  0  0  0  0  0  0  0  0  0
  -22.3590  -12.7780   22.1390 N   0  0  0  0  0  0  0  0  0  0  0  0
  -22.4830  -14.5170   20.7500 O   0  0  0  0  0  0  0  0  0  0  0  0
  -22.7860  -11.9580   22.5430 H   0  0  0  0  0  0  0  0  0  0  0  0
  -21.4330  -13.0450   22.4410 H   0  0  0  0  0  0  0  0  0  0  0  0
  -25.5140  -15.2590   20.2570 N   0  0  0  0  0  0  0  0  0  0  0  0
  -24.7400  -15.8860   20.4440 H   0  0  0  0  0  0  0  0  0  0  0  0
  -26.3210  -15.7290   19.8690 H   0  0  0  0  0  0  0  0  0  0  0  0
  -29.9210  -19.7160   17.5100 C   0  0  0  0  0  1  0  0  0  0  0  0
  -27.5200  -19.6290   18.3380 C   0  0  0  0  0  1  0  0  0  0  0  0
  -29.0030  -19.4930   18.7220 C   0  0  0  0  0  3  0  0  0  0  0  0
  -30.8220  -20.5530   23.4980 C   0  0  0  0  0  2  0  0  0  0  0  0
  -30.3350  -19.4200   25.5180 C   0  0  0  0  0  1  0  0  0  0  0  0
  -29.8250  -19.9290   24.2950 O   0  0  0  0  0  0  0  0  0  0  0  0
  -29.4370  -24.1070   20.4570 O   0  0  0  0  0  0  0  0  0  0  0  0
  -28.2140  -24.5560   19.8710 C   0  0  0  0  0  2  0  0  0  0  0  0
  -28.4210  -25.9120   19.1600 C   0  0  0  0  0  2  0  0  0  0  0  0
  -28.3140  -27.0500   20.0260 O   0  0  0  0  0  0  0  0  0  0  0  0
  -24.7810  -32.1420   23.5080 C   0  0  0  0  0  0  0  0  0  0  0  0
  -27.1320  -27.7620   20.1030 C   0  0  0  0  0  0  0  0  0  0  0  0
  -23.4480  -30.8520   21.8690 C   0  0  0  0  0  3  0  0  0  0  0  0
  -24.7780  -29.3270   20.3110 C   0  0  0  0  0  0  0  0  0  0  0  0
  -25.9710  -31.1340   21.5630 C   0  0  0  0  0  2  0  0  0  0  0  0
  -25.9760  -29.7900   20.8680 C   0  0  0  0  0  0  0  0  0  0  0  0
  -27.1490  -29.0070   20.7720 C   0  0  0  0  0  3  0  0  0  0  0  0
  -25.9090  -27.3060   19.5550 C   0  0  0  0  0  3  0  0  0  0  0  0
  -24.7400  -28.0830   19.6570 C   0  0  0  0  0  3  0  0  0  0  0  0
  -23.5640  -30.2210   20.4550 C   0  0  0  0  0  2  0  0  0  0  0  0
  -24.7540  -31.3890   22.3710 N   0  0  0  0  0  0  0  0  0  0  0  0
  -23.7370  -32.4260   24.1130 O   0  0  0  0  0  0  0  0  0  0  0  0
  -22.8100  -29.8140   22.8190 C   0  0  0  0  0  0  0  0  0  0  0  0
  -21.5080  -29.5490   22.6250 N   0  0  0  0  0  0  0  0  0  0  0  0
  -23.4850  -29.2490   23.6820 O   0  0  0  0  0  0  0  0  0  0  0  0
  -21.0250  -30.0630   21.9020 H   0  0  0  0  0  0  0  0  0  0  0  0
  -18.2230  -28.0680   22.8780 C   0  0  0  0  0  0  0  0  0  0  0  0
  -20.7080  -28.5780   23.3720 C   0  0  0  0  0  3  0  0  0  0  0  0
  -20.9930  -27.1360   22.8920 C   0  0  0  0  0  2  0  0  0  0  0  0
  -20.0310  -26.6600   21.8000 C   0  0  0  0  0  2  0  0  0  0  0  0
  -18.5850  -26.7080   22.3010 C   0  0  0  0  0  2  0  0  0  0  0  0
  -19.2220  -28.9520   23.3650 C   0  0  0  0  0  0  0  0  0  0  0  0
  -18.8360  -30.2180   23.8550 C   0  0  0  0  0  3  0  0  0  0  0  0
  -17.4820  -30.6030   23.8690 C   0  0  0  0  0  3  0  0  0  0  0  0
  -16.4950  -29.7180   23.4010 C   0  0  0  0  0  3  0  0  0  0  0  0
  -16.8650  -28.4530   22.9110 C   0  0  0  0  0  3  0  0  0  0  0  0
  -26.1180  -32.7010   24.0880 C   0  0  0  0  0  3  0  0  0  0  0  0
  -25.8870  -34.1040   24.4580 N   0  0  0  0  0  0  0  0  0  0  0  0
  -26.2370  -35.1570   23.7070 C   0  0  0  0  0  0  0  0  0  0  0  0
  -26.8620  -35.0460   22.6470 O   0  0  0  0  0  0  0  0  0  0  0  0
  -25.3340  -34.2690   25.2860 H   0  0  0  0  0  0  0  0  0  0  0  0
  -24.5740  -37.0280   23.4610 C   0  0  0  0  0  1  0  0  0  0  0  0
  -25.8310  -36.5550   24.2100 C   0  0  0  0  0  3  0  0  0  0  0  0
  -28.0330  -37.3350   24.9660 C   0  0  0  0  0  1  0  0  0  0  0  0
  -26.9020  -37.5660   24.0710 N   0  0  0  0  0  0  0  0  0  0  0  0
  -26.5400  -38.4990   24.2520 H   0  0  0  0  0  0  0  0  0  0  0  0
  -26.6520  -31.8800   25.3250 C   0  0  1  0  0  0  0  0  0  0  0  0
  -25.5790  -31.6190   26.4080 C   0  0  0  0  0  1  0  0  0  0  0  0
  -27.2020  -30.5080   24.8700 C   0  0  0  0  0  1  0  0  0  0  0  0
  -27.8290  -32.6340   25.9880 C   0  0  0  0  0  1  0  0  0  0  0  0
  1  4  1  0
  2  5  2  0
  2  6  1  0
  3  4  2  0
  4 52  1  0
  5  3  1  0
  6  1  2  0
  7 20  1  0
  8 13  1  0
  9 10  1  0
  9  8  1  0
 11 10  1  0
 11 24  1  0
 11 12  1  0
 13  7  1  0
 13 12  1  0
 14  7  2  0
 15 17  1  0
 15 19  1  0
 16 19  1  0
 16 18  1  0
 19  3  1  0
 20 17  1  0
 20 18  1  0
 21 22  2  0
 22 41  1  0
 23 22  1  0
 23 26  1  0
 24 25  1  0
 24 21  1  0
 25 23  2  0
 26 27  1  0
 27 28  2  0
 29 32  1  0
 29 28  1  0
 30 29  2  0
 31 30  1  0
 31 26  2  0
 32 33  1  0
 33 38  2  0
 33 34  1  0
 34 35  2  0
 35 36  1  0
 36 40  1  0
 37 36  2  0
 38 37  1  0
 39 38  1  0
 41 42  1  0
 42 45  1  0
 42 44  1  0
 43 41  2  0
 46 21  1  0
 46 47  1  0
 48 46  1  0
 49 51  1  0
 50 51  1  0
 51  5  1  0
 52 54  1  0
 54 53  1  0
 55  6  1  0
 56 55  1  0
 57 56  1  0
 57 58  1  0
 58 60  1  0
 59 70  2  0
 60 65  1  0
 61 69  1  0
 61 71  1  0
 62 68  1  0
 62 64  1  0
 63 69  1  0
 64 63  1  0
 65 64  2  0
 66 67  1  0
 66 60  2  0
 67 62  2  0
 68 61  1  0
 69 59  1  0
 71 73  2  0
 72 71  1  0
 74 72  1  0
 75 84  2  0
 75 80  1  0
 76 72  1  0
 77 76  1  0
 78 79  1  0
 78 77  1  0
 79 75  1  0
 80 76  1  0
 80 81  2  0
 81 82  1  0
 83 82  2  0
 84 83  1  0
 85 59  1  0
 85 86  1  0
 85 95  1  0
 86 89  1  0
 87 91  1  0
 87 86  1  0
 88 87  2  0
 91 90  1  0
 93 91  1  0
 93 94  1  0
 93 92  1  0
 95 98  1  1
 95 96  1  0
 97 95  1  0
M  ISO  4   7 100  20 100  57 101  58 101
M  END
>  <TORSDO>  (42) 
F 22

>  <SCORE>  (42) 
-9.550

>  <name>  (42) 
41

>  <ligand_id>  (42) 
41

>  <original_smiles>  (42) 
[H]c1c([H])c([H])c2c(c1[H])C([H])([H])C([H])([H])C([H])([H])C2([H])N([H])C(=O)C1([H])N(C(=O)C([H])(N([H])C(=O)C([H])(N([H])C([H])([H])[H])C([H])([H])[H])C(C([H])([H])[H])(C([H])([H])[H])C([H])([H])[H])C([H])([H])c2c([H])c(OC([H])([H])C([H])([H])Oc3c([H])c(C([H])([H])OC([H])([H])[H])c(C4([H])C([H])([H])C([H])([H])N(C(=O)N5C([H])([H])C([H])([H])C([H])([H])C([H])(n6nc(-c7c([H])c([H])c(Oc8c([H])c([H])c(F)c([H])c8F)c([H])c7[H])c(C(=O)N([H])[H])c6N([H])[H])C5([H])[H])C([H])([H])C4([H])[H])c(C([H])(C([H])([H])[H])C([H])([H])[H])c3[H])c([H])c([H])c2C1([H])[H]

>  <smiles>  (42) 
[H]c1c([H])c([H])c2c(c1[H])C([H])([H])C([H])([H])C([H])([H])C2([H])N([H])C(=O)C1([H])N(C(=O)C([H])(N([H])C(=O)C([H])(N([H])C([H])([H])[H])C([H])([H])[H])C(C([H])([H])[H])(C([H])([H])[H])C([H])([H])[H])C([H])([H])c2c([H])c(OC([H])([H])C([H])([H])Oc3c([H])c(C([H])([H])OC([H])([H])[H])c(C4([H])C([H])([H])C([H])([H])N(C(=O)N5C([H])([H])C([H])([H])C([H])([H])C([H])(n6nc(-c7c([H])c([H])c(Oc8c([H])c([H])c(F)c([H])c8F)c([H])c7[H])c(C(=O)N([H])[H])c6N([H])[H])C5([H])[H])C([H])([H])C4([H])[H])c(C([H])(C([H])([H])[H])C([H])([H])[H])c3[H])c([H])c([H])c2C1([H])[H]

$$$$
42:0:0
     RDKit          3D

 97106  0  0  1  0  0  0  0  0999 V2000
  -30.7270  -21.3570   20.7220 C   0  0  0  0  0  3  0  0  0  0  0  0
  -28.6740  -22.0050   19.6250 C   0  0  0  0  0  0  0  0  0  0  0  0
  -29.5520  -20.9000   20.0810 C   0  0  0  0  0  0  0  0  0  0  0  0
  -31.0120  -22.7390   20.8830 C   0  0  0  0  0  3  0  0  0  0  0  0
  -29.0020  -23.4510   19.8010 C   0  0  0  0  0  0  0  0  0  0  0  0
  -32.2810  -23.2070   21.5670 C   0  0  0  0  0  1  0  0  0  0  0  0
  -30.1680  -23.6980   20.4290 N   0  0  0  0  0  0  0  0  0  0  0  0
  -30.4260  -24.6790   20.5650 H   0  0  0  0  0  0  0  0  0  0  0  0
  -30.6410  -14.9710   19.8820 C   0  0  0  0  0  0  0  0  0  0  0  0
  -30.3850  -12.6370   18.9490 C   0  0  0  0  0  2  0  0  0  0  0  0
  -29.3800  -12.6180   17.7770 C   0  0  0  0  0  2  0  0  0  0  0  0
  -27.9470  -12.4250   18.3030 C   0  0  0  0  0  2  0  0  0  0  0  0
  -27.6260  -13.3490   19.5070 C   0  0  0  0  0  3  0  0  0  0  0  0
  -28.7530  -13.3620   20.5620 C   0  0  0  0  0  2  0  0  0  0  0  0
  -29.9850  -13.7440   19.8640 N   0  0  0  0  0  0  0  0  0  0  0  0
  -31.8180  -14.9710   19.5040 O   0  0  0  0  0  0  0  0  0  0  0  0
  -30.2020  -18.7350   18.9370 C   0  0  0  0  0  2  0  0  0  0  0  0
  -29.5320  -18.5520   21.1440 C   0  0  0  0  0  2  0  0  0  0  0  0
  -29.9760  -17.1630   18.7000 C   0  0  0  0  0  2  0  0  0  0  0  0
  -29.2990  -16.9540   20.9980 C   0  0  0  0  0  2  0  0  0  0  0  0
  -29.3500  -19.4270   19.9420 N   0  0  0  0  0  0  0  0  0  0  0  0
  -29.9290  -16.2060   19.8590 N   0  0  0  0  0  0  0  0  0  0  0  0
  -25.3140  -13.9310   20.4310 C   0  0  0  0  0  0  0  0  0  0  0  0
  -24.2670  -13.1580   20.8510 C   0  0  0  0  0  0  0  0  0  0  0  0
  -24.7090  -11.8030   20.7480 C   0  0  0  0  0  0  0  0  0  0  0  0
  -26.3240  -13.0500   20.0920 N   0  0  0  0  0  0  0  0  0  0  0  0
  -25.9760  -11.7620   20.3480 N   0  0  0  0  0  0  0  0  0  0  0  0
  -23.9800  -10.5440   20.9500 C   0  0  0  0  0  0  0  0  0  0  0  0
  -24.4330   -9.5640   21.8600 C   0  0  0  0  0  3  0  0  0  0  0  0
  -23.7010   -8.3720   22.0510 C   0  0  0  0  0  3  0  0  0  0  0  0
  -22.5020   -8.1500   21.3320 C   0  0  0  0  0  0  0  0  0  0  0  0
  -22.0680   -9.1180   20.4110 C   0  0  0  0  0  3  0  0  0  0  0  0
  -22.8000  -10.3030   20.2170 C   0  0  0  0  0  3  0  0  0  0  0  0
  -21.7410   -7.0120   21.4350 O   0  0  0  0  0  0  0  0  0  0  0  0
  -21.6840   -6.2860   22.5980 C   0  0  0  0  0  0  0  0  0  0  0  0
  -21.2430   -6.8570   23.8120 C   0  0  0  0  0  3  0  0  0  0  0  0
  -21.1350   -6.0580   24.9680 C   0  0  0  0  0  3  0  0  0  0  0  0
  -21.4560   -4.6880   24.9100 C   0  0  0  0  0  0  0  0  0  0  0  0
  -21.8880   -4.1160   23.7000 C   0  0  0  0  0  3  0  0  0  0  0  0
  -21.9980   -4.9130   22.5470 C   0  0  0  0  0  0  0  0  0  0  0  0
  -22.3950   -4.3530   21.3790 F   0  0  0  0  0  0  0  0  0  0  0  0
  -21.3430   -3.9170   26.0170 F   0  0  0  0  0  0  0  0  0  0  0  0
  -22.8990  -13.6430   21.2320 C   0  0  0  0  0  0  0  0  0  0  0  0
  -22.2260  -12.9360   22.1330 N   0  0  0  0  0  0  0  0  0  0  0  0
  -22.4380  -14.6840   20.7650 O   0  0  0  0  0  0  0  0  0  0  0  0
  -22.6130  -12.0920   22.5300 H   0  0  0  0  0  0  0  0  0  0  0  0
  -21.3100  -13.2420   22.4300 H   0  0  0  0  0  0  0  0  0  0  0  0
  -25.4840  -15.3050   20.2830 N   0  0  0  0  0  0  0  0  0  0  0  0
  -24.7370  -15.9650   20.4630 H   0  0  0  0  0  0  0  0  0  0  0  0
  -26.3150  -15.7380   19.9010 H   0  0  0  0  0  0  0  0  0  0  0  0
  -27.3820  -21.6180   18.9060 C   0  0  0  0  0  2  0  0  0  0  0  0
  -26.2590  -21.3400   19.8220 N   0  0  0  0  0  4  0  0  0  0  0  0
  -26.4780  -20.5740   20.4330 H   0  0  0  0  0  0  0  0  0  0  0  0
  -25.4500  -21.0760   19.2870 H   0  0  0  0  0  0  0  0  0  0  0  0
  -26.0150  -22.1410   20.3740 H   0  0  0  0  0  0  0  0  0  0  0  0
  -28.1530  -24.7680   19.3260 C   0  0  0  0  0  2  0  0  0  0  0  0
  -28.4400  -26.2500   19.6860 O   0  0  0  0  0  0  0  0  0  0  0  0
  -24.6360  -31.5930   23.0240 C   0  0  0  0  0  0  0  0  0  0  0  0
  -27.3630  -27.2080   19.6700 C   0  0  0  0  0  0  0  0  0  0  0  0
  -23.4810  -30.2720   21.2950 C   0  0  0  0  0  3  0  0  0  0  0  0
  -24.9770  -28.8620   19.7610 C   0  0  0  0  0  0  0  0  0  0  0  0
  -26.0230  -30.6430   21.1470 C   0  0  0  0  0  2  0  0  0  0  0  0
  -26.1430  -29.3050   20.3990 C   0  0  0  0  0  0  0  0  0  0  0  0
  -27.3370  -28.4950   20.3400 C   0  0  0  0  0  3  0  0  0  0  0  0
  -26.1690  -26.8730   18.9920 C   0  0  0  0  0  3  0  0  0  0  0  0
  -25.0030  -27.6590   19.0430 C   0  0  0  0  0  3  0  0  0  0  0  0
  -23.7190  -29.7060   19.8720 C   0  0  0  0  0  2  0  0  0  0  0  0
  -24.7320  -30.8540   21.8780 N   0  0  0  0  0  0  0  0  0  0  0  0
  -23.5430  -31.8020   23.5710 O   0  0  0  0  0  0  0  0  0  0  0  0
  -22.8430  -29.1750   22.1830 C   0  0  0  0  0  0  0  0  0  0  0  0
  -21.5160  -28.9890   22.0710 N   0  0  0  0  0  0  0  0  0  0  0  0
  -23.5450  -28.4970   22.9400 O   0  0  0  0  0  0  0  0  0  0  0  0
  -21.0070  -29.5900   21.4380 H   0  0  0  0  0  0  0  0  0  0  0  0
  -18.1570  -27.7400   22.6020 C   0  0  0  0  0  0  0  0  0  0  0  0
  -20.7260  -27.9790   22.7810 C   0  0  0  0  0  3  0  0  0  0  0  0
  -20.7990  -26.6100   22.0650 C   0  0  0  0  0  2  0  0  0  0  0  0
  -19.6530  -26.3870   21.0740 C   0  0  0  0  0  2  0  0  0  0  0  0
  -18.3010  -26.4650   21.7880 C   0  0  0  0  0  2  0  0  0  0  0  0
  -19.2960  -28.4580   23.0540 C   0  0  0  0  0  0  0  0  0  0  0  0
  -19.1050  -29.6550   23.7790 C   0  0  0  0  0  3  0  0  0  0  0  0
  -17.8080  -30.1320   24.0520 C   0  0  0  0  0  3  0  0  0  0  0  0
  -16.6860  -29.4100   23.6140 C   0  0  0  0  0  3  0  0  0  0  0  0
  -16.8620  -28.2130   22.8950 C   0  0  0  0  0  3  0  0  0  0  0  0
  -25.8930  -32.2290   23.6900 C   0  0  0  0  0  3  0  0  0  0  0  0
  -26.4080  -31.4160   24.9420 C   0  0  1  0  0  0  0  0  0  0  0  0
  -25.3080  -31.1140   25.9850 C   0  0  0  0  0  1  0  0  0  0  0  0
  -27.0240  -30.0660   24.5050 C   0  0  0  0  0  1  0  0  0  0  0  0
  -27.5350  -32.2040   25.6490 C   0  0  0  0  0  1  0  0  0  0  0  0
  -25.5450  -33.6040   24.0810 N   0  0  0  0  0  0  0  0  0  0  0  0
  -25.8270  -34.6980   23.3610 C   0  0  0  0  0  0  0  0  0  0  0  0
  -26.4770  -34.6560   22.3130 O   0  0  0  0  0  0  0  0  0  0  0  0
  -24.9630  -33.7070   24.8990 H   0  0  0  0  0  0  0  0  0  0  0  0
  -24.0220  -36.4380   23.1410 C   0  0  0  0  0  1  0  0  0  0  0  0
  -25.3100  -36.0520   23.8870 C   0  0  0  0  0  3  0  0  0  0  0  0
  -27.4400  -36.9930   24.6670 C   0  0  0  0  0  1  0  0  0  0  0  0
  -26.2980  -37.1460   23.7680 N   0  0  0  0  0  0  0  0  0  0  0  0
  -25.8640  -38.0460   23.9580 H   0  0  0  0  0  0  0  0  0  0  0  0
  1  4  1  0
  2  5  2  0
  2  3  1  0
  3  1  2  0
  4  6  1  0
  5  7  1  0
  7  8  1  0
  7  4  1  0
 10 15  1  0
 11 12  1  0
 11 10  1  0
 13 12  1  0
 13 26  1  0
 13 14  1  0
 15  9  1  0
 15 14  1  0
 16  9  2  0
 17 21  1  0
 19 17  1  0
 19 22  1  0
 20 18  1  0
 21  3  1  0
 21 18  1  0
 22  9  1  0
 22 20  1  0
 23 24  2  0
 24 43  1  0
 25 24  1  0
 25 28  1  0
 26 27  1  0
 26 23  1  0
 27 25  2  0
 28 29  1  0
 29 30  2  0
 31 34  1  0
 31 30  1  0
 32 31  2  0
 33 32  1  0
 33 28  2  0
 34 35  1  0
 35 36  1  0
 36 37  2  0
 38 37  1  0
 38 42  1  0
 39 38  2  0
 40 35  2  0
 40 39  1  0
 41 40  1  0
 43 44  1  0
 44 47  1  0
 44 46  1  0
 45 43  2  0
 48 23  1  0
 48 49  1  0
 50 48  1  0
 51  2  1  0
 51 52  1  0
 52 55  1  0
 52 53  1  0
 54 52  1  0
 56 57  1  0
 56  5  1  0
 58 69  2  0
 59 57  1  0
 59 64  1  0
 60 68  1  0
 60 70  1  0
 61 67  1  0
 61 63  1  0
 62 68  1  0
 63 62  1  0
 64 63  2  0
 65 66  1  0
 65 59  2  0
 66 61  2  0
 67 60  1  0
 68 58  1  0
 70 72  2  0
 71 70  1  0
 73 71  1  0
 74 83  2  0
 74 79  1  0
 75 71  1  0
 75 79  1  0
 76 75  1  0
 77 78  1  0
 77 76  1  0
 78 74  1  0
 79 80  2  0
 80 81  1  0
 82 81  2  0
 83 82  1  0
 84 58  1  0
 84 89  1  0
 84 85  1  0
 85 88  1  1
 85 86  1  0
 87 85  1  0
 89 92  1  0
 90 94  1  0
 90 89  1  0
 91 90  2  0
 94 93  1  0
 96 94  1  0
 96 97  1  0
 96 95  1  0
M  ISO  4   9 100  22 100  56 101  57 101
M  END
>  <TORSDO>  (43) 
F 19

>  <SCORE>  (43) 
-12.214

>  <name>  (43) 
42

>  <ligand_id>  (43) 
42

>  <original_smiles>  (43) 
[H]c1c([H])c([H])c2c(c1[H])C([H])([H])C([H])([H])C([H])([H])C2([H])N([H])C(=O)C1([H])N(C(=O)C([H])(N([H])C(=O)C([H])(N([H])C([H])([H])[H])C([H])([H])[H])C(C([H])([H])[H])(C([H])([H])[H])C([H])([H])[H])C([H])([H])c2c([H])c(OC([H])([H])c3c(C([H])([H])[N+]([H])([H])[H])c(N4C([H])([H])C([H])([H])N(C(=O)N5C([H])([H])C([H])([H])C([H])([H])C([H])(n6nc(-c7c([H])c([H])c(Oc8c([H])c([H])c(F)c([H])c8F)c([H])c7[H])c(C(=O)N([H])[H])c6N([H])[H])C5([H])[H])C([H])([H])C4([H])[H])c([H])c(C([H])([H])[H])[n+]3[H])c([H])c([H])c2C1([H])[H]

>  <smiles>  (43) 
[H]c1c([H])c([H])c2c(c1[H])C([H])([H])C([H])([H])C([H])([H])C2([H])N([H])C(=O)C1([H])N(C(=O)C([H])(N([H])C(=O)C([H])(N([H])C([H])([H])[H])C([H])([H])[H])C(C([H])([H])[H])(C([H])([H])[H])C([H])([H])[H])C([H])([H])c2c([H])c(OC([H])([H])c3c(C([H])([H])[N+]([H])([H])[H])c(N4C([H])([H])C([H])([H])N(C(=O)N5C([H])([H])C([H])([H])C([H])([H])C([H])(n6nc(-c7c([H])c([H])c(Oc8c([H])c([H])c(F)c([H])c8F)c([H])c7[H])c(C(=O)N([H])[H])c6N([H])[H])C5([H])[H])C([H])([H])C4([H])[H])c([H])c(C([H])([H])[H])[n+]3[H])c([H])c([H])c2C1([H])[H]

$$$$
43:0:0
     RDKit          3D

 93102  0  0  1  0  0  0  0  0999 V2000
  -30.5470  -22.2840   20.1830 C   0  0  0  0  0  3  0  0  0  0  0  0
  -28.4270  -21.4130   20.8590 C   0  0  0  0  0  3  0  0  0  0  0  0
  -30.0710  -23.6360   20.2880 C   0  0  0  0  0  0  0  0  0  0  0  0
  -27.9320  -22.7450   20.9930 C   0  0  0  0  0  0  0  0  0  0  0  0
  -28.7350  -23.9060   20.7110 C   0  0  0  0  0  0  0  0  0  0  0  0
  -29.7570  -21.1330   20.4750 C   0  0  0  0  0  0  0  0  0  0  0  0
  -26.5090  -22.8850   21.5110 C   0  0  0  0  0  1  0  0  0  0  0  0
  -30.9230  -25.6340   18.7930 C   0  0  0  0  0  2  0  0  0  0  0  0
  -32.1100  -24.7250   18.9820 C   0  0  0  0  0  2  0  0  0  0  0  0
  -31.0230  -24.7780   20.0380 C   0  0  0  0  0  3  0  0  0  0  0  0
  -28.2130  -25.3630   21.0800 C   0  0  0  0  0  2  0  0  0  0  0  0
  -28.3740  -26.5380   20.1980 O   0  0  0  0  0  0  0  0  0  0  0  0
  -24.6260  -31.9190   23.2320 C   0  0  0  0  0  0  0  0  0  0  0  0
  -27.2740  -27.4030   20.1690 C   0  0  0  0  0  0  0  0  0  0  0  0
  -23.4290  -30.5080   21.5980 C   0  0  0  0  0  3  0  0  0  0  0  0
  -24.8910  -28.9730   20.1650 C   0  0  0  0  0  0  0  0  0  0  0  0
  -25.9610  -30.8600   21.3950 C   0  0  0  0  0  2  0  0  0  0  0  0
  -26.0560  -29.4820   20.7540 C   0  0  0  0  0  0  0  0  0  0  0  0
  -27.2550  -28.7080   20.7470 C   0  0  0  0  0  3  0  0  0  0  0  0
  -26.0920  -26.9430   19.5520 C   0  0  0  0  0  3  0  0  0  0  0  0
  -24.9090  -27.7070   19.5540 C   0  0  0  0  0  3  0  0  0  0  0  0
  -23.6430  -29.8330   20.2170 C   0  0  0  0  0  2  0  0  0  0  0  0
  -24.6910  -31.1130   22.1320 N   0  0  0  0  0  0  0  0  0  0  0  0
  -23.5420  -32.1870   23.7730 O   0  0  0  0  0  0  0  0  0  0  0  0
  -22.7810  -29.4860   22.5620 C   0  0  0  0  0  0  0  0  0  0  0  0
  -21.4540  -29.2970   22.4410 N   0  0  0  0  0  0  0  0  0  0  0  0
  -23.4680  -28.8650   23.3760 O   0  0  0  0  0  0  0  0  0  0  0  0
  -20.9600  -29.8510   21.7570 H   0  0  0  0  0  0  0  0  0  0  0  0
  -18.0900  -28.0710   22.9540 C   0  0  0  0  0  0  0  0  0  0  0  0
  -20.6480  -28.3530   23.2150 C   0  0  0  0  0  3  0  0  0  0  0  0
  -20.7600  -26.9230   22.6390 C   0  0  0  0  0  2  0  0  0  0  0  0
  -19.6570  -26.5910   21.6280 C   0  0  0  0  0  2  0  0  0  0  0  0
  -18.2760  -26.7230   22.2770 C   0  0  0  0  0  2  0  0  0  0  0  0
  -19.2040  -28.8420   23.3790 C   0  0  0  0  0  0  0  0  0  0  0  0
  -18.9780  -30.1030   23.9730 C   0  0  0  0  0  3  0  0  0  0  0  0
  -17.6710  -30.5940   24.1460 C   0  0  0  0  0  3  0  0  0  0  0  0
  -16.5720  -29.8190   23.7380 C   0  0  0  0  0  3  0  0  0  0  0  0
  -16.7820  -28.5590   23.1480 C   0  0  0  0  0  3  0  0  0  0  0  0
  -25.9060  -32.5640   23.8490 C   0  0  0  0  0  3  0  0  0  0  0  0
  -25.5870  -33.9610   24.1770 N   0  0  0  0  0  0  0  0  0  0  0  0
  -25.9150  -35.0150   23.4170 C   0  0  0  0  0  0  0  0  0  0  0  0
  -26.5870  -34.9140   22.3870 O   0  0  0  0  0  0  0  0  0  0  0  0
  -24.9960  -34.1140   24.9800 H   0  0  0  0  0  0  0  0  0  0  0  0
  -24.1840  -36.8020   23.0490 C   0  0  0  0  0  1  0  0  0  0  0  0
  -25.4170  -36.4010   23.8720 C   0  0  0  0  0  3  0  0  0  0  0  0
  -27.5390  -37.2900   24.7280 C   0  0  0  0  0  1  0  0  0  0  0  0
  -26.4480  -37.4580   23.7720 N   0  0  0  0  0  0  0  0  0  0  0  0
  -26.0370  -38.3770   23.9200 H   0  0  0  0  0  0  0  0  0  0  0  0
  -26.4330  -31.8010   25.1260 C   0  0  1  0  0  0  0  0  0  0  0  0
  -25.3440  -31.5570   26.1980 C   0  0  0  0  0  1  0  0  0  0  0  0
  -27.0270  -30.4270   24.7340 C   0  0  0  0  0  1  0  0  0  0  0  0
  -27.5790  -32.6070   25.7830 C   0  0  0  0  0  1  0  0  0  0  0  0
  -30.3320  -19.8410   20.4070 O   0  0  0  0  0  0  0  0  0  0  0  0
  -29.5930  -18.5800   20.6170 C   0  0  0  0  0  2  0  0  0  0  0  0
  -30.5340  -17.2900   20.7780 C   0  0  0  0  0  2  0  0  0  0  0  0
  -30.6490  -14.7520   20.3510 C   0  0  0  0  0  0  0  0  0  0  0  0
  -30.3670  -12.5400   19.2450 C   0  0  0  0  0  2  0  0  0  0  0  0
  -29.4180  -12.6680   18.0350 C   0  0  0  0  0  2  0  0  0  0  0  0
  -27.9540  -12.4990   18.4790 C   0  0  0  0  0  2  0  0  0  0  0  0
  -27.6000  -13.3630   19.7200 C   0  0  0  0  0  3  0  0  0  0  0  0
  -28.6670  -13.2330   20.8290 C   0  0  0  0  0  2  0  0  0  0  0  0
  -29.9700  -13.5640   20.2350 N   0  0  0  0  0  0  0  0  0  0  0  0
  -31.8150  -14.8470   19.9660 O   0  0  0  0  0  0  0  0  0  0  0  0
  -29.9620  -15.8830   20.7180 N   0  0  0  0  0  0  0  0  0  0  0  0
  -29.0000  -15.7590   20.9980 H   0  0  0  0  0  0  0  0  0  0  0  0
  -25.2050  -13.9420   20.4450 C   0  0  0  0  0  0  0  0  0  0  0  0
  -24.1450  -13.1600   20.8190 C   0  0  0  0  0  0  0  0  0  0  0  0
  -24.6190  -11.8120   20.7950 C   0  0  0  0  0  0  0  0  0  0  0  0
  -26.2560  -13.0690   20.2120 N   0  0  0  0  0  0  0  0  0  0  0  0
  -25.9100  -11.7840   20.4860 N   0  0  0  0  0  0  0  0  0  0  0  0
  -23.9020  -10.5450   20.9900 C   0  0  0  0  0  0  0  0  0  0  0  0
  -24.3360   -9.5890   21.9360 C   0  0  0  0  0  3  0  0  0  0  0  0
  -23.6200   -8.3870   22.1190 C   0  0  0  0  0  3  0  0  0  0  0  0
  -22.4560   -8.1310   21.3570 C   0  0  0  0  0  0  0  0  0  0  0  0
  -22.0410   -9.0750   20.4010 C   0  0  0  0  0  3  0  0  0  0  0  0
  -22.7580  -10.2690   20.2170 C   0  0  0  0  0  3  0  0  0  0  0  0
  -21.7100   -6.9810   21.4510 O   0  0  0  0  0  0  0  0  0  0  0  0
  -21.6560   -6.2500   22.6090 C   0  0  0  0  0  0  0  0  0  0  0  0
  -21.2040   -6.8110   23.8230 C   0  0  0  0  0  3  0  0  0  0  0  0
  -21.0990   -6.0050   24.9750 C   0  0  0  0  0  3  0  0  0  0  0  0
  -21.4340   -4.6390   24.9140 C   0  0  0  0  0  0  0  0  0  0  0  0
  -21.8780   -4.0770   23.7040 C   0  0  0  0  0  3  0  0  0  0  0  0
  -21.9850   -4.8800   22.5540 C   0  0  0  0  0  0  0  0  0  0  0  0
  -22.3940   -4.3280   21.3860 F   0  0  0  0  0  0  0  0  0  0  0  0
  -21.3240   -3.8640   26.0170 F   0  0  0  0  0  0  0  0  0  0  0  0
  -22.7450  -13.6260   21.0920 C   0  0  0  0  0  0  0  0  0  0  0  0
  -22.0200  -12.9220   21.9540 N   0  0  0  0  0  0  0  0  0  0  0  0
  -22.3010  -14.6520   20.5760 O   0  0  0  0  0  0  0  0  0  0  0  0
  -22.3910  -12.0930   22.3930 H   0  0  0  0  0  0  0  0  0  0  0  0
  -21.0790  -13.2160   22.1790 H   0  0  0  0  0  0  0  0  0  0  0  0
  -25.3550  -15.3140   20.2620 N   0  0  0  0  0  0  0  0  0  0  0  0
  -24.5770  -15.9560   20.3600 H   0  0  0  0  0  0  0  0  0  0  0  0
  -26.1930  -15.7610   19.9140 H   0  0  0  0  0  0  0  0  0  0  0  0
  1  3  2  0
  1  6  1  0
  2  4  1  0
  3  5  1  0
  4  7  1  0
  5  4  2  0
  5 11  1  0
  6  2  2  0
  8  9  1  0
  8 10  1  0
  9 10  1  0
 10  3  1  0
 12 11  1  0
 13 24  2  0
 14 12  1  0
 14 19  1  0
 15 23  1  0
 15 25  1  0
 16 22  1  0
 16 18  1  0
 17 23  1  0
 18 17  1  0
 19 18  2  0
 20 21  1  0
 20 14  2  0
 21 16  2  0
 22 15  1  0
 23 13  1  0
 25 27  2  0
 26 25  1  0
 28 26  1  0
 29 38  2  0
 29 34  1  0
 30 26  1  0
 30 34  1  0
 31 30  1  0
 32 33  1  0
 32 31  1  0
 33 29  1  0
 34 35  2  0
 35 36  1  0
 37 36  2  0
 38 37  1  0
 39 13  1  0
 39 40  1  0
 39 49  1  0
 40 43  1  0
 41 45  1  0
 41 40  1  0
 42 41  2  0
 45 44  1  0
 47 45  1  0
 47 48  1  0
 47 46  1  0
 49 52  1  1
 49 50  1  0
 51 49  1  0
 53  6  1  0
 53 54  1  0
 54 55  1  0
 56 64  1  0
 57 62  1  0
 58 59  1  0
 58 57  1  0
 60 59  1  0
 60 69  1  0
 60 61  1  0
 62 56  1  0
 62 61  1  0
 63 56  2  0
 64 55  1  0
 64 65  1  0
 66 67  2  0
 67 86  1  0
 68 67  1  0
 68 71  1  0
 69 66  1  0
 69 70  1  0
 70 68  2  0
 71 72  1  0
 72 73  2  0
 74 77  1  0
 74 73  1  0
 75 74  2  0
 76 75  1  0
 76 71  2  0
 77 78  1  0
 78 79  1  0
 79 80  2  0
 81 80  1  0
 81 85  1  0
 82 81  2  0
 83 78  2  0
 83 82  1  0
 84 83  1  0
 86 87  1  0
 87 90  1  0
 87 89  1  0
 88 86  2  0
 91 92  1  0
 91 66  1  0
 93 91  1  0
M  ISO  4  11 101  12 101  56 100  64 100
M  END
>  <TORSDO>  (44) 
F 21

>  <SCORE>  (44) 
-13.561

>  <name>  (44) 
43

>  <ligand_id>  (44) 
43

>  <original_smiles>  (44) 
[H]c1c([H])c([H])c2c(c1[H])C([H])([H])C([H])([H])C([H])([H])C2([H])N([H])C(=O)C1([H])N(C(=O)C([H])(N([H])C(=O)C([H])(N([H])C([H])([H])[H])C([H])([H])[H])C(C([H])([H])[H])(C([H])([H])[H])C([H])([H])[H])C([H])([H])c2c([H])c(OC([H])([H])c3c(C([H])([H])[H])c([H])c(OC([H])([H])C([H])([H])N([H])C(=O)N4C([H])([H])C([H])([H])C([H])([H])C([H])(n5nc(-c6c([H])c([H])c(Oc7c([H])c([H])c(F)c([H])c7F)c([H])c6[H])c(C(=O)N([H])[H])c5N([H])[H])C4([H])[H])c([H])c3C3([H])C([H])([H])C3([H])[H])c([H])c([H])c2C1([H])[H]

>  <smiles>  (44) 
[H]c1c([H])c([H])c2c(c1[H])C([H])([H])C([H])([H])C([H])([H])C2([H])N([H])C(=O)C1([H])N(C(=O)C([H])(N([H])C(=O)C([H])(N([H])C([H])([H])[H])C([H])([H])[H])C(C([H])([H])[H])(C([H])([H])[H])C([H])([H])[H])C([H])([H])c2c([H])c(OC([H])([H])c3c(C([H])([H])[H])c([H])c(OC([H])([H])C([H])([H])N([H])C(=O)N4C([H])([H])C([H])([H])C([H])([H])C([H])(n5nc(-c6c([H])c([H])c(Oc7c([H])c([H])c(F)c([H])c7F)c([H])c6[H])c(C(=O)N([H])[H])c5N([H])[H])C4([H])[H])c([H])c3C3([H])C([H])([H])C3([H])[H])c([H])c([H])c2C1([H])[H]

$$$$
44:0:0
     RDKit          3D

 93102  0  0  1  0  0  0  0  0999 V2000
  -29.5560  -23.3330   21.8140 C   0  0  0  0  0  3  0  0  0  0  0  0
  -28.3140  -22.9700   19.7960 C   0  0  0  0  0  3  0  0  0  0  0  0
  -30.0130  -21.9810   21.7990 C   0  0  0  0  0  0  0  0  0  0  0  0
  -28.6910  -23.8710   20.8270 C   0  0  0  0  0  0  0  0  0  0  0  0
  -28.7770  -21.6130   19.7540 C   0  0  0  0  0  0  0  0  0  0  0  0
  -29.6260  -21.0780   20.7680 C   0  0  0  0  0  0  0  0  0  0  0  0
  -28.3630  -20.7420   18.5830 C   0  0  0  0  0  1  0  0  0  0  0  0
  -30.4550  -20.5270   23.9360 C   0  0  0  0  0  2  0  0  0  0  0  0
  -30.7480  -21.9550   24.3280 C   0  0  0  0  0  2  0  0  0  0  0  0
  -30.9290  -21.5120   22.8920 C   0  0  0  0  0  3  0  0  0  0  0  0
  -27.9960  -25.2670   21.0570 C   0  0  0  0  0  2  0  0  0  0  0  0
  -28.3110  -26.4880   20.2790 O   0  0  0  0  0  0  0  0  0  0  0  0
  -24.5980  -31.9290   23.2420 C   0  0  0  0  0  0  0  0  0  0  0  0
  -27.2350  -27.3840   20.2090 C   0  0  0  0  0  0  0  0  0  0  0  0
  -23.4040  -30.5190   21.6040 C   0  0  0  0  0  3  0  0  0  0  0  0
  -24.8670  -28.9800   20.1780 C   0  0  0  0  0  0  0  0  0  0  0  0
  -25.9410  -30.8540   21.4230 C   0  0  0  0  0  2  0  0  0  0  0  0
  -26.0320  -29.4760   20.7800 C   0  0  0  0  0  0  0  0  0  0  0  0
  -27.2230  -28.6890   20.7890 C   0  0  0  0  0  3  0  0  0  0  0  0
  -26.0580  -26.9500   19.5640 C   0  0  0  0  0  3  0  0  0  0  0  0
  -24.8820  -27.7220   19.5580 C   0  0  0  0  0  3  0  0  0  0  0  0
  -23.6240  -29.8430   20.2260 C   0  0  0  0  0  2  0  0  0  0  0  0
  -24.6660  -31.1180   22.1460 N   0  0  0  0  0  0  0  0  0  0  0  0
  -23.5130  -32.2020   23.7750 O   0  0  0  0  0  0  0  0  0  0  0  0
  -22.7470  -29.5000   22.5660 C   0  0  0  0  0  0  0  0  0  0  0  0
  -21.4270  -29.2930   22.4170 N   0  0  0  0  0  0  0  0  0  0  0  0
  -23.4230  -28.9010   23.4060 O   0  0  0  0  0  0  0  0  0  0  0  0
  -20.9410  -29.8290   21.7130 H   0  0  0  0  0  0  0  0  0  0  0  0
  -18.0740  -28.0060   22.8460 C   0  0  0  0  0  0  0  0  0  0  0  0
  -20.6140  -28.3500   23.1870 C   0  0  0  0  0  3  0  0  0  0  0  0
  -20.7760  -26.9080   22.6520 C   0  0  0  0  0  2  0  0  0  0  0  0
  -19.7170  -26.5270   21.6130 C   0  0  0  0  0  2  0  0  0  0  0  0
  -18.3110  -26.6460   22.2100 C   0  0  0  0  0  2  0  0  0  0  0  0
  -19.1550  -28.8120   23.2890 C   0  0  0  0  0  0  0  0  0  0  0  0
  -18.8800  -30.0820   23.8410 C   0  0  0  0  0  3  0  0  0  0  0  0
  -17.5570  -30.5480   23.9550 C   0  0  0  0  0  3  0  0  0  0  0  0
  -16.4900  -29.7380   23.5280 C   0  0  0  0  0  3  0  0  0  0  0  0
  -16.7480  -28.4700   22.9790 C   0  0  0  0  0  3  0  0  0  0  0  0
  -25.8770  -32.5700   23.8630 C   0  0  0  0  0  3  0  0  0  0  0  0
  -25.5620  -33.9690   24.1830 N   0  0  0  0  0  0  0  0  0  0  0  0
  -25.9020  -35.0190   23.4230 C   0  0  0  0  0  0  0  0  0  0  0  0
  -26.5840  -34.9130   22.4000 O   0  0  0  0  0  0  0  0  0  0  0  0
  -24.9590  -34.1270   24.9770 H   0  0  0  0  0  0  0  0  0  0  0  0
  -24.1870  -36.8180   23.0310 C   0  0  0  0  0  1  0  0  0  0  0  0
  -25.4090  -36.4100   23.8700 C   0  0  0  0  0  3  0  0  0  0  0  0
  -27.5240  -37.2920   24.7510 C   0  0  0  0  0  1  0  0  0  0  0  0
  -26.4460  -37.4600   23.7800 N   0  0  0  0  0  0  0  0  0  0  0  0
  -26.0400  -38.3810   23.9140 H   0  0  0  0  0  0  0  0  0  0  0  0
  -26.3940  -31.8090   25.1450 C   0  0  1  0  0  0  0  0  0  0  0  0
  -25.2970  -31.5720   26.2100 C   0  0  0  0  0  1  0  0  0  0  0  0
  -26.9860  -30.4330   24.7640 C   0  0  0  0  0  1  0  0  0  0  0  0
  -27.5360  -32.6140   25.8070 C   0  0  0  0  0  1  0  0  0  0  0  0
  -30.2360  -19.8060   20.6930 O   0  0  0  0  0  0  0  0  0  0  0  0
  -29.5140  -18.5370   20.8290 C   0  0  0  0  0  2  0  0  0  0  0  0
  -30.5000  -17.2790   20.7780 C   0  0  0  0  0  2  0  0  0  0  0  0
  -30.6740  -14.7380   20.4900 C   0  0  0  0  0  0  0  0  0  0  0  0
  -30.4090  -12.5380   19.3680 C   0  0  0  0  0  2  0  0  0  0  0  0
  -29.4690  -12.6950   18.1540 C   0  0  0  0  0  2  0  0  0  0  0  0
  -28.0000  -12.5180   18.5860 C   0  0  0  0  0  2  0  0  0  0  0  0
  -27.6410  -13.3540   19.8430 C   0  0  0  0  0  3  0  0  0  0  0  0
  -28.7030  -13.2050   20.9540 C   0  0  0  0  0  2  0  0  0  0  0  0
  -30.0060  -13.5470   20.3710 N   0  0  0  0  0  0  0  0  0  0  0  0
  -31.8480  -14.8430   20.1320 O   0  0  0  0  0  0  0  0  0  0  0  0
  -29.9600  -15.8660   20.8090 N   0  0  0  0  0  0  0  0  0  0  0  0
  -28.9870  -15.7430   21.0480 H   0  0  0  0  0  0  0  0  0  0  0  0
  -25.2420  -13.9160   20.5640 C   0  0  0  0  0  0  0  0  0  0  0  0
  -24.1830  -13.1270   20.9240 C   0  0  0  0  0  0  0  0  0  0  0  0
  -24.6610  -11.7820   20.8820 C   0  0  0  0  0  0  0  0  0  0  0  0
  -26.2970  -13.0500   20.3250 N   0  0  0  0  0  0  0  0  0  0  0  0
  -25.9530  -11.7610   20.5780 N   0  0  0  0  0  0  0  0  0  0  0  0
  -23.9480  -10.5090   21.0550 C   0  0  0  0  0  0  0  0  0  0  0  0
  -24.3680   -9.5490   22.0030 C   0  0  0  0  0  3  0  0  0  0  0  0
  -23.6530   -8.3420   22.1650 C   0  0  0  0  0  3  0  0  0  0  0  0
  -22.5040   -8.0860   21.3790 C   0  0  0  0  0  0  0  0  0  0  0  0
  -22.1040   -9.0350   20.4200 C   0  0  0  0  0  3  0  0  0  0  0  0
  -22.8210  -10.2330   20.2570 C   0  0  0  0  0  3  0  0  0  0  0  0
  -21.7640   -6.9320   21.4500 O   0  0  0  0  0  0  0  0  0  0  0  0
  -21.6650   -6.2100   22.6130 C   0  0  0  0  0  0  0  0  0  0  0  0
  -21.1350   -6.7700   23.7960 C   0  0  0  0  0  3  0  0  0  0  0  0
  -20.9890   -5.9720   24.9480 C   0  0  0  0  0  3  0  0  0  0  0  0
  -21.3610   -4.6160   24.9180 C   0  0  0  0  0  0  0  0  0  0  0  0
  -21.8830   -4.0540   23.7400 C   0  0  0  0  0  3  0  0  0  0  0  0
  -22.0320   -4.8490   22.5890 C   0  0  0  0  0  0  0  0  0  0  0  0
  -22.5160   -4.2980   21.4500 F   0  0  0  0  0  0  0  0  0  0  0  0
  -21.2120   -3.8460   26.0220 F   0  0  0  0  0  0  0  0  0  0  0  0
  -22.7790  -13.5860   21.1940 C   0  0  0  0  0  0  0  0  0  0  0  0
  -22.0560  -12.8740   22.0510 N   0  0  0  0  0  0  0  0  0  0  0  0
  -22.3330  -14.6110   20.6800 O   0  0  0  0  0  0  0  0  0  0  0  0
  -22.4300  -12.0440   22.4870 H   0  0  0  0  0  0  0  0  0  0  0  0
  -21.1150  -13.1630   22.2760 H   0  0  0  0  0  0  0  0  0  0  0  0
  -25.3920  -15.2890   20.3970 N   0  0  0  0  0  0  0  0  0  0  0  0
  -24.6150  -15.9340   20.5030 H   0  0  0  0  0  0  0  0  0  0  0  0
  -26.2310  -15.7380   20.0540 H   0  0  0  0  0  0  0  0  0  0  0  0
  2  4  1  0
  3  1  1  0
  3 10  1  0
  4 11  1  0
  4  1  2  0
  5  2  2  0
  5  6  1  0
  6  3  2  0
  7  5  1  0
  8  9  1  0
 10  8  1  0
 10  9  1  0
 12 11  1  0
 13 24  2  0
 14 12  1  0
 14 19  1  0
 15 23  1  0
 15 25  1  0
 16 22  1  0
 16 18  1  0
 17 23  1  0
 18 19  2  0
 18 17  1  0
 20 14  2  0
 21 20  1  0
 21 16  2  0
 22 15  1  0
 23 13  1  0
 25 27  2  0
 26 25  1  0
 28 26  1  0
 29 38  2  0
 29 34  1  0
 30 26  1  0
 30 34  1  0
 31 30  1  0
 32 33  1  0
 32 31  1  0
 33 29  1  0
 34 35  2  0
 35 36  1  0
 37 36  2  0
 38 37  1  0
 39 13  1  0
 39 40  1  0
 39 49  1  0
 40 43  1  0
 41 45  1  0
 41 40  1  0
 42 41  2  0
 45 44  1  0
 47 45  1  0
 47 48  1  0
 47 46  1  0
 49 52  1  1
 49 50  1  0
 51 49  1  0
 53  6  1  0
 53 54  1  0
 55 64  1  0
 55 54  1  0
 56 64  1  0
 57 62  1  0
 58 59  1  0
 58 57  1  0
 60 59  1  0
 60 69  1  0
 60 61  1  0
 62 56  1  0
 62 61  1  0
 63 56  2  0
 64 65  1  0
 66 67  2  0
 67 86  1  0
 68 67  1  0
 68 71  1  0
 69 66  1  0
 69 70  1  0
 70 68  2  0
 71 72  1  0
 72 73  2  0
 74 77  1  0
 74 73  1  0
 75 74  2  0
 76 75  1  0
 76 71  2  0
 77 78  1  0
 78 79  1  0
 79 80  2  0
 81 80  1  0
 81 85  1  0
 82 81  2  0
 83 78  2  0
 83 82  1  0
 84 83  1  0
 86 87  1  0
 87 90  1  0
 87 89  1  0
 88 86  2  0
 91 92  1  0
 91 66  1  0
 93 91  1  0
M  ISO  4  11 101  12 101  56 100  64 100
M  END
>  <TORSDO>  (45) 
F 21

>  <SCORE>  (45) 
-13.991

>  <name>  (45) 
44

>  <ligand_id>  (45) 
44

>  <original_smiles>  (45) 
[H]c1c([H])c([H])c2c(c1[H])C([H])([H])C([H])([H])C([H])([H])C2([H])N([H])C(=O)C1([H])N(C(=O)C([H])(N([H])C(=O)C([H])(N([H])C([H])([H])[H])C([H])([H])[H])C(C([H])([H])[H])(C([H])([H])[H])C([H])([H])[H])C([H])([H])c2c([H])c(OC([H])([H])c3c([H])c(C([H])([H])[H])c(OC([H])([H])C([H])([H])N([H])C(=O)N4C([H])([H])C([H])([H])C([H])([H])C([H])(n5nc(-c6c([H])c([H])c(Oc7c([H])c([H])c(F)c([H])c7F)c([H])c6[H])c(C(=O)N([H])[H])c5N([H])[H])C4([H])[H])c(C4([H])C([H])([H])C4([H])[H])c3[H])c([H])c([H])c2C1([H])[H]

>  <smiles>  (45) 
[H]c1c([H])c([H])c2c(c1[H])C([H])([H])C([H])([H])C([H])([H])C2([H])N([H])C(=O)C1([H])N(C(=O)C([H])(N([H])C(=O)C([H])(N([H])C([H])([H])[H])C([H])([H])[H])C(C([H])([H])[H])(C([H])([H])[H])C([H])([H])[H])C([H])([H])c2c([H])c(OC([H])([H])c3c([H])c(C([H])([H])[H])c(OC([H])([H])C([H])([H])N([H])C(=O)N4C([H])([H])C([H])([H])C([H])([H])C([H])(n5nc(-c6c([H])c([H])c(Oc7c([H])c([H])c(F)c([H])c7F)c([H])c6[H])c(C(=O)N([H])[H])c5N([H])[H])C4([H])[H])c(C4([H])C([H])([H])C4([H])[H])c3[H])c([H])c([H])c2C1([H])[H]

$$$$
45:0:0
     RDKit          3D

 99108  0  0  1  0  0  0  0  0999 V2000
  -28.7720  -21.9180   22.3230 C   0  0  0  0  0  2  0  0  0  0  0  0
  -29.0750  -21.1000   21.0520 C   0  0  0  0  0  3  0  0  0  0  0  0
  -28.7480  -22.3820   20.2400 C   0  0  0  0  0  3  0  0  0  0  0  0
  -27.9590  -22.8890   21.4590 C   0  0  0  0  0  3  0  0  0  0  0  0
  -27.9720  -22.2950   18.9250 C   0  0  0  0  0  1  0  0  0  0  0  0
  -31.3710  -20.5000   21.9960 C   0  0  0  0  0  3  0  0  0  0  0  0
  -32.5980  -19.8070   21.9480 C   0  0  0  0  0  3  0  0  0  0  0  0
  -31.9490  -18.8120   19.8270 C   0  0  0  0  0  3  0  0  0  0  0  0
  -30.4170  -20.3630   20.9590 C   0  0  0  0  0  0  0  0  0  0  0  0
  -30.7160  -19.4970   19.8780 C   0  0  0  0  0  0  0  0  0  0  0  0
  -32.8840  -18.9560   20.8650 C   0  0  0  0  0  0  0  0  0  0  0  0
  -34.0530  -18.2720   20.8220 F   0  0  0  0  0  0  0  0  0  0  0  0
  -29.8130  -19.3170   18.8690 O   0  0  0  0  0  0  0  0  0  0  0  0
  -28.8950  -18.2590   19.0980 C   0  0  0  0  0  2  0  0  0  0  0  0
  -29.5200  -16.9180   18.7230 C   0  0  0  0  0  2  0  0  0  0  0  0
  -30.5170  -15.0300   19.8580 C   0  0  0  0  0  0  0  0  0  0  0  0
  -30.5100  -12.6470   19.3390 C   0  0  0  0  0  2  0  0  0  0  0  0
  -29.5550  -12.4530   18.1430 C   0  0  0  0  0  2  0  0  0  0  0  0
  -28.1080  -12.2380   18.6320 C   0  0  0  0  0  2  0  0  0  0  0  0
  -27.6630  -13.3030   19.6740 C   0  0  0  0  0  3  0  0  0  0  0  0
  -28.7380  -13.5080   20.7690 C   0  0  0  0  0  2  0  0  0  0  0  0
  -30.0210  -13.7960   20.1080 N   0  0  0  0  0  0  0  0  0  0  0  0
  -31.6290  -15.2430   19.3690 O   0  0  0  0  0  0  0  0  0  0  0  0
  -29.5860  -15.9840   19.8420 N   0  0  0  0  0  0  0  0  0  0  0  0
  -28.7100  -15.7520   20.2880 H   0  0  0  0  0  0  0  0  0  0  0  0
  -25.3330  -13.8270   20.6360 C   0  0  0  0  0  0  0  0  0  0  0  0
  -24.3070  -13.0150   21.0400 C   0  0  0  0  0  0  0  0  0  0  0  0
  -24.7740  -11.6750   20.8650 C   0  0  0  0  0  0  0  0  0  0  0  0
  -26.3590  -12.9790   20.2480 N   0  0  0  0  0  0  0  0  0  0  0  0
  -26.0310  -11.6770   20.4420 N   0  0  0  0  0  0  0  0  0  0  0  0
  -24.0780  -10.3910   21.0190 C   0  0  0  0  0  0  0  0  0  0  0  0
  -24.5160   -9.4240   21.9520 C   0  0  0  0  0  3  0  0  0  0  0  0
  -23.8190   -8.2050   22.1000 C   0  0  0  0  0  3  0  0  0  0  0  0
  -22.6690   -7.9460   21.3160 C   0  0  0  0  0  0  0  0  0  0  0  0
  -22.2500   -8.9020   20.3730 C   0  0  0  0  0  3  0  0  0  0  0  0
  -22.9480  -10.1130   20.2240 C   0  0  0  0  0  3  0  0  0  0  0  0
  -21.9440   -6.7810   21.3710 O   0  0  0  0  0  0  0  0  0  0  0  0
  -21.7540   -6.1090   22.5500 C   0  0  0  0  0  0  0  0  0  0  0  0
  -21.1290   -6.7130   23.6620 C   0  0  0  0  0  3  0  0  0  0  0  0
  -20.8920   -5.9650   24.8320 C   0  0  0  0  0  3  0  0  0  0  0  0
  -21.2640   -4.6090   24.8880 C   0  0  0  0  0  0  0  0  0  0  0  0
  -21.8750   -4.0020   23.7780 C   0  0  0  0  0  3  0  0  0  0  0  0
  -22.1170   -4.7500   22.6110 C   0  0  0  0  0  0  0  0  0  0  0  0
  -22.6880   -4.1510   21.5380 F   0  0  0  0  0  0  0  0  0  0  0  0
  -21.0290   -3.8870   26.0090 F   0  0  0  0  0  0  0  0  0  0  0  0
  -22.9370  -13.4500   21.4770 C   0  0  0  0  0  0  0  0  0  0  0  0
  -22.3020  -12.6830   22.3550 N   0  0  0  0  0  0  0  0  0  0  0  0
  -22.4420  -14.5020   21.0750 O   0  0  0  0  0  0  0  0  0  0  0  0
  -22.7190  -11.8310   22.6990 H   0  0  0  0  0  0  0  0  0  0  0  0
  -21.3870  -12.9500   22.6880 H   0  0  0  0  0  0  0  0  0  0  0  0
  -25.4650  -15.2090   20.5420 N   0  0  0  0  0  0  0  0  0  0  0  0
  -24.7020  -15.8370   20.7670 H   0  0  0  0  0  0  0  0  0  0  0  0
  -26.2580  -15.6920   20.1360 H   0  0  0  0  0  0  0  0  0  0  0  0
  -28.1380  -24.3330   21.7610 N   0  0  0  0  0  4  0  0  0  0  0  0
  -29.0800  -24.4990   22.0840 H   0  0  0  0  0  0  0  0  0  0  0  0
  -27.5210  -24.5700   22.5220 H   0  0  0  0  0  0  0  0  0  0  0  0
  -27.8300  -25.2280   20.6090 C   0  0  0  0  0  2  0  0  0  0  0  0
  -28.4080  -26.6510   20.7740 C   0  0  0  0  0  2  0  0  0  0  0  0
  -28.0930  -27.4940   19.6500 O   0  0  0  0  0  0  0  0  0  0  0  0
  -24.6130  -32.2370   23.6210 C   0  0  0  0  0  0  0  0  0  0  0  0
  -26.9470  -28.2290   19.8240 C   0  0  0  0  0  0  0  0  0  0  0  0
  -23.2470  -30.9960   21.9740 C   0  0  0  0  0  3  0  0  0  0  0  0
  -24.5540  -29.6630   20.2340 C   0  0  0  0  0  0  0  0  0  0  0  0
  -25.7250  -31.4470   21.5350 C   0  0  0  0  0  2  0  0  0  0  0  0
  -25.7610  -30.1540   20.7460 C   0  0  0  0  0  0  0  0  0  0  0  0
  -26.9650  -29.4430   20.5410 C   0  0  0  0  0  3  0  0  0  0  0  0
  -25.7340  -27.7530   19.2900 C   0  0  0  0  0  3  0  0  0  0  0  0
  -24.5360  -28.4600   19.5030 C   0  0  0  0  0  3  0  0  0  0  0  0
  -23.3070  -30.4730   20.5150 C   0  0  0  0  0  2  0  0  0  0  0  0
  -24.5530  -31.5690   22.4340 N   0  0  0  0  0  0  0  0  0  0  0  0
  -23.5970  -32.4250   24.3020 O   0  0  0  0  0  0  0  0  0  0  0  0
  -22.7180  -29.8630   22.8800 C   0  0  0  0  0  0  0  0  0  0  0  0
  -21.4460  -29.4820   22.6790 N   0  0  0  0  0  0  0  0  0  0  0  0
  -23.4520  -29.3230   23.7120 O   0  0  0  0  0  0  0  0  0  0  0  0
  -20.9120  -29.9750   21.9770 H   0  0  0  0  0  0  0  0  0  0  0  0
  -18.3560  -27.6110   22.8110 C   0  0  0  0  0  0  0  0  0  0  0  0
  -20.7460  -28.4090   23.3890 C   0  0  0  0  0  3  0  0  0  0  0  0
  -21.2200  -27.0210   22.9010 C   0  0  0  0  0  2  0  0  0  0  0  0
  -20.3530  -26.4500   21.7770 C   0  0  0  0  0  2  0  0  0  0  0  0
  -18.8960  -26.3160   22.2310 C   0  0  0  0  0  2  0  0  0  0  0  0
  -19.2260  -28.6010   23.3390 C   0  0  0  0  0  0  0  0  0  0  0  0
  -18.6760  -29.8040   23.8310 C   0  0  0  0  0  3  0  0  0  0  0  0
  -17.2850  -30.0220   23.8050 C   0  0  0  0  0  3  0  0  0  0  0  0
  -16.4270  -29.0300   23.2970 C   0  0  0  0  0  3  0  0  0  0  0  0
  -16.9630  -27.8280   22.8040 C   0  0  0  0  0  3  0  0  0  0  0  0
  -25.9550  -32.8230   24.1630 C   0  0  0  0  0  3  0  0  0  0  0  0
  -25.7220  -34.2340   24.4850 N   0  0  0  0  0  0  0  0  0  0  0  0
  -26.0770  -35.2600   23.7000 C   0  0  0  0  0  0  0  0  0  0  0  0
  -26.7080  -35.1130   22.6480 O   0  0  0  0  0  0  0  0  0  0  0  0
  -25.1570  -34.4280   25.3010 H   0  0  0  0  0  0  0  0  0  0  0  0
  -24.4210  -37.1240   23.3780 C   0  0  0  0  0  1  0  0  0  0  0  0
  -25.6680  -36.6740   24.1540 C   0  0  0  0  0  3  0  0  0  0  0  0
  -27.8640  -37.4670   24.9060 C   0  0  0  0  0  1  0  0  0  0  0  0
  -26.7430  -37.6770   23.9940 N   0  0  0  0  0  0  0  0  0  0  0  0
  -26.3840  -38.6160   24.1430 H   0  0  0  0  0  0  0  0  0  0  0  0
  -26.5110  -32.0460   25.4200 C   0  0  1  0  0  0  0  0  0  0  0  0
  -25.4500  -31.8130   26.5220 C   0  0  0  0  0  1  0  0  0  0  0  0
  -27.0720  -30.6660   25.0000 C   0  0  0  0  0  1  0  0  0  0  0  0
  -27.6950  -32.8330   26.0370 C   0  0  0  0  0  1  0  0  0  0  0  0
  2  9  1  0
  2  1  1  0
  3  5  1  0
  3  2  1  0
  3  4  1  0
  4 54  1  0
  4  1  1  0
  7  6  1  0
  8 10  2  0
  8 11  1  0
  9  6  2  0
 10  9  1  0
 11  7  2  0
 12 11  1  0
 13 14  1  0
 13 10  1  0
 15 14  1  0
 15 24  1  0
 16 22  1  0
 17 22  1  0
 18 19  1  0
 18 17  1  0
 20 19  1  0
 20 29  1  0
 20 21  1  0
 22 21  1  0
 23 16  2  0
 24 16  1  0
 24 25  1  0
 26 27  2  0
 27 46  1  0
 28 31  1  0
 28 27  1  0
 29 30  1  0
 29 26  1  0
 30 28  2  0
 31 32  1  0
 32 33  2  0
 34 37  1  0
 34 33  1  0
 35 34  2  0
 36 35  1  0
 36 31  2  0
 37 38  1  0
 38 43  2  0
 38 39  1  0
 39 40  2  0
 40 41  1  0
 41 45  1  0
 42 41  2  0
 43 42  1  0
 44 43  1  0
 46 47  1  0
 47 50  1  0
 47 49  1  0
 48 46  2  0
 51 26  1  0
 51 52  1  0
 53 51  1  0
 54 55  1  0
 54 56  1  0
 57 58  1  0
 57 54  1  0
 59 61  1  0
 59 58  1  0
 60 71  2  0
 61 66  1  0
 62 70  1  0
 62 72  1  0
 63 69  1  0
 63 65  1  0
 64 70  1  0
 65 64  1  0
 66 65  2  0
 67 68  1  0
 67 61  2  0
 68 63  2  0
 69 62  1  0
 70 60  1  0
 72 74  2  0
 73 72  1  0
 75 73  1  0
 76 81  1  0
 77 73  1  0
 78 77  1  0
 79 80  1  0
 79 78  1  0
 80 76  1  0
 81 77  1  0
 81 82  2  0
 83 82  1  0
 84 83  2  0
 85 76  2  0
 85 84  1  0
 86 60  1  0
 86 87  1  0
 86 96  1  0
 87 90  1  0
 88 92  1  0
 88 87  1  0
 89 88  2  0
 92 91  1  0
 94 95  1  0
 94 92  1  0
 94 93  1  0
 96 99  1  1
 96 97  1  0
 98 96  1  0
M  ISO  4  16 100  24 100  58 101  59 101
M  END
>  <TORSDO>  (46) 
F 23

>  <SCORE>  (46) 
-11.755

>  <name>  (46) 
45

>  <ligand_id>  (46) 
45

>  <original_smiles>  (46) 
[H]c1c([H])c([H])c2c(c1[H])C([H])([H])C([H])([H])C([H])([H])C2([H])N([H])C(=O)C1([H])N(C(=O)C([H])(N([H])C(=O)C([H])(N([H])C([H])([H])[H])C([H])([H])[H])C(C([H])([H])[H])(C([H])([H])[H])C([H])([H])[H])C([H])([H])c2c([H])c(OC([H])([H])C([H])([H])[N+]([H])([H])C3([H])C([H])([H])C([H])(c4c([H])c([H])c(F)c([H])c4OC([H])([H])C([H])([H])N([H])C(=O)N4C([H])([H])C([H])([H])C([H])([H])C([H])(n5nc(-c6c([H])c([H])c(Oc7c([H])c([H])c(F)c([H])c7F)c([H])c6[H])c(C(=O)N([H])[H])c5N([H])[H])C4([H])[H])C3([H])C([H])([H])[H])c([H])c([H])c2C1([H])[H]

>  <smiles>  (46) 
[H]c1c([H])c([H])c2c(c1[H])C([H])([H])C([H])([H])C([H])([H])C2([H])N([H])C(=O)C1([H])N(C(=O)C([H])(N([H])C(=O)C([H])(N([H])C([H])([H])[H])C([H])([H])[H])C(C([H])([H])[H])(C([H])([H])[H])C([H])([H])[H])C([H])([H])c2c([H])c(OC([H])([H])C([H])([H])[N+]([H])([H])C3([H])C([H])([H])C([H])(c4c([H])c([H])c(F)c([H])c4OC([H])([H])C([H])([H])N([H])C(=O)N4C([H])([H])C([H])([H])C([H])([H])C([H])(n5nc(-c6c([H])c([H])c(Oc7c([H])c([H])c(F)c([H])c7F)c([H])c6[H])c(C(=O)N([H])[H])c5N([H])[H])C4([H])[H])C3([H])C([H])([H])[H])c([H])c([H])c2C1([H])[H]

$$$$
46:0:0
     RDKit          3D

100111  0  0  1  0  0  0  0  0999 V2000
  -31.2730  -25.1800   20.0720 C   0  0  0  0  0  3  0  0  0  0  0  0
  -29.0260  -24.3120   20.3690 C   0  0  0  0  0  3  0  0  0  0  0  0
  -29.9570  -25.3510   20.5250 C   0  0  0  0  0  0  0  0  0  0  0  0
  -30.6540  -22.9860   19.1150 C   0  0  0  0  0  0  0  0  0  0  0  0
  -31.6250  -24.0030   19.3660 C   0  0  0  0  0  0  0  0  0  0  0  0
  -29.3370  -23.1600   19.6360 C   0  0  0  0  0  0  0  0  0  0  0  0
  -28.0100  -22.1090   19.2780 Cl  0  0  0  0  0  0  0  0  0  0  0  0
  -33.4530  -25.0440   18.2340 C   0  0  0  0  0  1  0  0  0  0  0  0
  -32.8850  -23.8750   18.8240 O   0  0  0  0  0  0  0  0  0  0  0  0
  -29.4090  -26.7200   20.8680 C   0  0  0  0  0  2  0  0  0  0  0  0
  -28.4420  -26.9110   19.8570 O   0  0  0  0  0  0  0  0  0  0  0  0
  -24.6490  -31.9320   23.2520 C   0  0  0  0  0  0  0  0  0  0  0  0
  -27.2870  -27.5940   20.0850 C   0  0  0  0  0  0  0  0  0  0  0  0
  -23.4260  -30.5330   21.6130 C   0  0  0  0  0  3  0  0  0  0  0  0
  -24.8710  -29.0180   20.1720 C   0  0  0  0  0  0  0  0  0  0  0  0
  -25.9410  -30.9250   21.3800 C   0  0  0  0  0  2  0  0  0  0  0  0
  -26.0310  -29.5570   20.7490 C   0  0  0  0  0  0  0  0  0  0  0  0
  -27.2460  -28.8440   20.7220 C   0  0  0  0  0  3  0  0  0  0  0  0
  -26.1190  -27.0450   19.5220 C   0  0  0  0  0  3  0  0  0  0  0  0
  -24.9020  -27.7470   19.5740 C   0  0  0  0  0  3  0  0  0  0  0  0
  -23.6210  -29.8620   20.2270 C   0  0  0  0  0  2  0  0  0  0  0  0
  -24.6900  -31.1460   22.1410 N   0  0  0  0  0  0  0  0  0  0  0  0
  -23.5740  -32.1920   23.8100 O   0  0  0  0  0  0  0  0  0  0  0  0
  -22.8010  -29.4970   22.5730 C   0  0  0  0  0  0  0  0  0  0  0  0
  -21.4780  -29.2950   22.4500 N   0  0  0  0  0  0  0  0  0  0  0  0
  -23.5000  -28.8790   23.3810 O   0  0  0  0  0  0  0  0  0  0  0  0
  -20.9750  -29.8500   21.7710 H   0  0  0  0  0  0  0  0  0  0  0  0
  -18.1280  -28.0460   22.9420 C   0  0  0  0  0  0  0  0  0  0  0  0
  -20.6800  -28.3470   23.2230 C   0  0  0  0  0  3  0  0  0  0  0  0
  -20.8080  -26.9160   22.6510 C   0  0  0  0  0  2  0  0  0  0  0  0
  -19.7130  -26.5710   21.6350 C   0  0  0  0  0  2  0  0  0  0  0  0
  -18.3280  -26.6960   22.2760 C   0  0  0  0  0  2  0  0  0  0  0  0
  -19.2330  -28.8270   23.3740 C   0  0  0  0  0  0  0  0  0  0  0  0
  -18.9910  -30.0900   23.9580 C   0  0  0  0  0  3  0  0  0  0  0  0
  -17.6780  -30.5720   24.1150 C   0  0  0  0  0  3  0  0  0  0  0  0
  -16.5870  -29.7870   23.7010 C   0  0  0  0  0  3  0  0  0  0  0  0
  -16.8140  -28.5260   23.1220 C   0  0  0  0  0  3  0  0  0  0  0  0
  -25.9470  -32.5610   23.8550 C   0  0  0  0  0  3  0  0  0  0  0  0
  -25.6420  -33.9560   24.1920 N   0  0  0  0  0  0  0  0  0  0  0  0
  -25.9570  -35.0070   23.4240 C   0  0  0  0  0  0  0  0  0  0  0  0
  -26.6040  -34.9050   22.3780 O   0  0  0  0  0  0  0  0  0  0  0  0
  -25.0650  -34.1120   25.0060 H   0  0  0  0  0  0  0  0  0  0  0  0
  -24.2080  -36.7860   23.1090 C   0  0  0  0  0  1  0  0  0  0  0  0
  -25.4720  -36.3910   23.8890 C   0  0  0  0  0  3  0  0  0  0  0  0
  -27.6220  -37.2910   24.6650 C   0  0  0  0  0  1  0  0  0  0  0  0
  -26.4960  -37.4510   23.7490 N   0  0  0  0  0  0  0  0  0  0  0  0
  -26.0860  -38.3670   23.9060 H   0  0  0  0  0  0  0  0  0  0  0  0
  -26.4910  -31.7810   25.1160 C   0  0  1  0  0  0  0  0  0  0  0  0
  -25.4160  -31.5330   26.1990 C   0  0  0  0  0  1  0  0  0  0  0  0
  -27.0730  -30.4080   24.6990 C   0  0  0  0  0  1  0  0  0  0  0  0
  -27.6490  -32.5770   25.7640 C   0  0  0  0  0  1  0  0  0  0  0  0
  -31.0440  -21.8680   18.1250 C   0  0  0  0  0  3  0  0  0  0  0  0
  -32.1380  -22.8820   15.9710 C   0  0  0  0  0  2  0  0  0  0  0  0
  -31.3710  -21.6920   15.4770 C   0  0  0  0  0  2  0  0  0  0  0  0
  -30.8980  -22.4250   16.7130 C   0  0  0  0  0  3  0  0  0  0  0  0
  -31.2870  -19.2800   18.1280 C   0  0  0  0  0  2  0  0  0  0  0  0
  -30.5330  -19.5280   19.4260 C   0  0  0  0  0  3  0  0  0  0  0  0
  -30.3850  -20.4870   18.2480 C   0  0  0  0  0  3  0  0  0  0  0  0
  -30.6380  -14.5290   20.0740 C   0  0  0  0  0  0  0  0  0  0  0  0
  -30.3120  -12.3740   18.9470 C   0  0  0  0  0  2  0  0  0  0  0  0
  -29.2920  -12.5640   17.8030 C   0  0  0  0  0  2  0  0  0  0  0  0
  -27.8450  -12.4380   18.3160 C   0  0  0  0  0  2  0  0  0  0  0  0
  -27.5780  -13.2690   19.5950 C   0  0  0  0  0  3  0  0  0  0  0  0
  -28.6940  -13.0480   20.6430 C   0  0  0  0  0  2  0  0  0  0  0  0
  -29.9790  -13.3460   19.9940 N   0  0  0  0  0  0  0  0  0  0  0  0
  -31.8130  -14.6520   19.7110 O   0  0  0  0  0  0  0  0  0  0  0  0
  -28.8560  -17.6270   18.8260 C   0  0  0  0  0  2  0  0  0  0  0  0
  -29.7270  -17.8360   21.2030 C   0  0  0  0  0  2  0  0  0  0  0  0
  -29.7430  -16.3670   18.7490 C   0  0  0  0  0  2  0  0  0  0  0  0
  -29.3460  -16.3280   21.2130 C   0  0  0  0  0  2  0  0  0  0  0  0
  -29.3830  -18.6070   19.8960 C   0  0  0  0  0  3  0  0  0  0  0  0
  -29.8140  -15.6100   20.0160 N   0  0  0  0  0  0  0  0  0  0  0  0
  -25.2230  -13.8760   20.4230 C   0  0  0  0  0  0  0  0  0  0  0  0
  -24.1680  -13.1060   20.8270 C   0  0  0  0  0  0  0  0  0  0  0  0
  -24.6230  -11.7510   20.7650 C   0  0  0  0  0  0  0  0  0  0  0  0
  -26.2530  -12.9950   20.1360 N   0  0  0  0  0  0  0  0  0  0  0  0
  -25.9020  -11.7120   20.4090 N   0  0  0  0  0  0  0  0  0  0  0  0
  -23.9050  -10.4890   20.9710 C   0  0  0  0  0  0  0  0  0  0  0  0
  -24.3690   -9.5170   21.8860 C   0  0  0  0  0  3  0  0  0  0  0  0
  -23.6510   -8.3160   22.0830 C   0  0  0  0  0  3  0  0  0  0  0  0
  -22.4580   -8.0780   21.3610 C   0  0  0  0  0  0  0  0  0  0  0  0
  -22.0120   -9.0370   20.4360 C   0  0  0  0  0  3  0  0  0  0  0  0
  -22.7310  -10.2290   20.2370 C   0  0  0  0  0  3  0  0  0  0  0  0
  -21.7110   -6.9320   21.4670 O   0  0  0  0  0  0  0  0  0  0  0  0
  -21.6830   -6.1960   22.6220 C   0  0  0  0  0  0  0  0  0  0  0  0
  -21.2810   -6.7590   23.8540 C   0  0  0  0  0  3  0  0  0  0  0  0
  -21.1990   -5.9480   25.0040 C   0  0  0  0  0  3  0  0  0  0  0  0
  -21.5130   -4.5770   24.9240 C   0  0  0  0  0  0  0  0  0  0  0  0
  -21.9090   -4.0180   23.6970 C   0  0  0  0  0  3  0  0  0  0  0  0
  -21.9900   -4.8230   22.5500 C   0  0  0  0  0  0  0  0  0  0  0  0
  -22.3520   -4.2740   21.3650 F   0  0  0  0  0  0  0  0  0  0  0  0
  -21.4290   -3.7960   26.0260 F   0  0  0  0  0  0  0  0  0  0  0  0
  -22.7820  -13.5760   21.1590 C   0  0  0  0  0  0  0  0  0  0  0  0
  -22.0960  -12.8750   22.0530 N   0  0  0  0  0  0  0  0  0  0  0  0
  -22.3170  -14.6000   20.6610 O   0  0  0  0  0  0  0  0  0  0  0  0
  -22.4870  -12.0390   22.4680 H   0  0  0  0  0  0  0  0  0  0  0  0
  -21.1730  -13.1770   22.3330 H   0  0  0  0  0  0  0  0  0  0  0  0
  -25.3850  -15.2490   20.2550 N   0  0  0  0  0  0  0  0  0  0  0  0
  -24.6280  -15.9050   20.4100 H   0  0  0  0  0  0  0  0  0  0  0  0
  -26.2300  -15.6850   19.9090 H   0  0  0  0  0  0  0  0  0  0  0  0
  1  3  1  0
  2  3  2  0
  3 10  1  0
  4  5  1  0
  4  6  2  0
  5  1  2  0
  6  2  1  0
  7  6  1  0
  8  9  1  0
  9  5  1  0
 11 13  1  0
 11 10  1  0
 12 23  2  0
 13 18  1  0
 14 22  1  0
 14 24  1  0
 15 21  1  0
 15 17  1  0
 16 22  1  0
 17 16  1  0
 18 17  2  0
 19 20  1  0
 19 13  2  0
 20 15  2  0
 21 14  1  0
 22 12  1  0
 24 26  2  0
 25 24  1  0
 27 25  1  0
 28 37  2  0
 28 33  1  0
 29 25  1  0
 29 33  1  0
 30 29  1  0
 31 32  1  0
 31 30  1  0
 32 28  1  0
 33 34  2  0
 34 35  1  0
 36 35  2  0
 37 36  1  0
 38 12  1  0
 38 39  1  0
 38 48  1  0
 39 42  1  0
 40 44  1  0
 40 39  1  0
 41 40  2  0
 44 43  1  0
 46 44  1  0
 46 47  1  0
 46 45  1  0
 48 51  1  1
 48 49  1  0
 50 48  1  0
 52 55  1  0
 52  4  1  0
 53 55  1  0
 54 53  1  0
 54 55  1  0
 56 58  1  0
 57 56  1  0
 57 71  1  0
 58 52  1  0
 58 57  1  0
 60 65  1  0
 61 62  1  0
 61 60  1  0
 63 62  1  0
 63 76  1  0
 63 64  1  0
 65 59  1  0
 65 64  1  0
 66 59  2  0
 68 70  1  0
 69 67  1  0
 69 72  1  0
 71 67  1  0
 71 68  1  0
 72 59  1  0
 72 70  1  0
 73 74  2  0
 74 93  1  0
 75 74  1  0
 75 78  1  0
 76 77  1  0
 76 73  1  0
 77 75  2  0
 78 79  1  0
 79 80  2  0
 81 84  1  0
 81 80  1  0
 82 81  2  0
 83 82  1  0
 83 78  2  0
 84 85  1  0
 85 86  1  0
 86 87  2  0
 88 87  1  0
 88 92  1  0
 89 88  2  0
 90 85  2  0
 90 89  1  0
 91 90  1  0
 93 94  1  0
 94 97  1  0
 94 96  1  0
 95 93  2  0
 98 99  1  0
 98 73  1  0
100 98  1  0
M  ISO  4  10 101  11 101  59 100  72 100
M  END
>  <TORSDO>  (47) 
F 21

>  <SCORE>  (47) 
-13.420

>  <name>  (47) 
46

>  <ligand_id>  (47) 
46

>  <original_smiles>  (47) 
[H]c1c([H])c([H])c2c(c1[H])C([H])([H])C([H])([H])C([H])([H])C2([H])N([H])C(=O)C1([H])N(C(=O)C([H])(N([H])C(=O)C([H])(N([H])C([H])([H])[H])C([H])([H])[H])C(C([H])([H])[H])(C([H])([H])[H])C([H])([H])[H])C([H])([H])c2c([H])c(OC([H])([H])c3c([H])c(Cl)c(C([H])(C4([H])C([H])([H])C4([H])[H])C4([H])C([H])([H])C4([H])C4([H])C([H])([H])C([H])([H])N(C(=O)N5C([H])([H])C([H])([H])C([H])([H])C([H])(n6nc(-c7c([H])c([H])c(Oc8c([H])c([H])c(F)c([H])c8F)c([H])c7[H])c(C(=O)N([H])[H])c6N([H])[H])C5([H])[H])C([H])([H])C4([H])[H])c(OC([H])([H])[H])c3[H])c([H])c([H])c2C1([H])[H]

>  <smiles>  (47) 
[H]c1c([H])c([H])c2c(c1[H])C([H])([H])C([H])([H])C([H])([H])C2([H])N([H])C(=O)C1([H])N(C(=O)C([H])(N([H])C(=O)C([H])(N([H])C([H])([H])[H])C([H])([H])[H])C(C([H])([H])[H])(C([H])([H])[H])C([H])([H])[H])C([H])([H])c2c([H])c(OC([H])([H])c3c([H])c(Cl)c(C([H])(C4([H])C([H])([H])C4([H])[H])C4([H])C([H])([H])C4([H])C4([H])C([H])([H])C([H])([H])N(C(=O)N5C([H])([H])C([H])([H])C([H])([H])C([H])(n6nc(-c7c([H])c([H])c(Oc8c([H])c([H])c(F)c([H])c8F)c([H])c7[H])c(C(=O)N([H])[H])c6N([H])[H])C5([H])[H])C([H])([H])C4([H])[H])c(OC([H])([H])[H])c3[H])c([H])c([H])c2C1([H])[H]

$$$$
47:0:0
     RDKit          3D

 93103  0  0  1  0  0  0  0  0999 V2000
  -31.3230  -19.4810   20.9130 C   0  0  0  0  0  3  0  0  0  0  0  0
  -31.1760  -18.0570   20.8520 C   0  0  0  0  0  3  0  0  0  0  0  0
  -28.8200  -18.3420   20.3750 C   0  0  0  0  0  3  0  0  0  0  0  0
  -30.2170  -20.3420   20.6980 C   0  0  0  0  0  0  0  0  0  0  0  0
  -28.9890  -19.7770   20.4110 C   0  0  0  0  0  0  0  0  0  0  0  0
  -29.9220  -17.4250   20.5920 C   0  0  0  0  0  0  0  0  0  0  0  0
  -30.1390  -21.8910   20.7580 C   0  0  0  0  0  2  0  0  0  0  0  0
  -27.9720  -20.9230   20.2140 C   0  0  0  0  0  2  0  0  0  0  0  0
  -28.7470  -22.3280   20.1470 C   0  0  0  0  0  3  0  0  0  0  0  0
  -30.5340  -14.8400   20.3610 C   0  0  0  0  0  0  0  0  0  0  0  0
  -30.3500  -12.5630   19.3240 C   0  0  0  0  0  2  0  0  0  0  0  0
  -29.4100  -12.6400   18.0990 C   0  0  0  0  0  2  0  0  0  0  0  0
  -27.9380  -12.4690   18.5220 C   0  0  0  0  0  2  0  0  0  0  0  0
  -27.5630  -13.3500   19.7420 C   0  0  0  0  0  3  0  0  0  0  0  0
  -28.6190  -13.2470   20.8670 C   0  0  0  0  0  2  0  0  0  0  0  0
  -29.9190  -13.6080   20.2820 N   0  0  0  0  0  0  0  0  0  0  0  0
  -31.7170  -14.9510   20.0280 O   0  0  0  0  0  0  0  0  0  0  0  0
  -29.7200  -15.9430   20.6090 N   0  0  0  0  0  0  0  0  0  0  0  0
  -28.7650  -15.6640   20.7730 H   0  0  0  0  0  0  0  0  0  0  0  0
  -25.1700  -13.9530   20.4390 C   0  0  0  0  0  0  0  0  0  0  0  0
  -24.1010  -13.1860   20.8110 C   0  0  0  0  0  0  0  0  0  0  0  0
  -24.5630  -11.8340   20.8040 C   0  0  0  0  0  0  0  0  0  0  0  0
  -26.2140  -13.0700   20.2250 N   0  0  0  0  0  0  0  0  0  0  0  0
  -25.8560  -11.7900   20.5080 N   0  0  0  0  0  0  0  0  0  0  0  0
  -23.8320  -10.5760   21.0060 C   0  0  0  0  0  0  0  0  0  0  0  0
  -24.2660   -9.6110   21.9420 C   0  0  0  0  0  3  0  0  0  0  0  0
  -23.5330   -8.4200   22.1330 C   0  0  0  0  0  3  0  0  0  0  0  0
  -22.3530   -8.1850   21.3890 C   0  0  0  0  0  0  0  0  0  0  0  0
  -21.9390   -9.1380   20.4420 C   0  0  0  0  0  3  0  0  0  0  0  0
  -22.6720  -10.3210   20.2500 C   0  0  0  0  0  3  0  0  0  0  0  0
  -21.5920   -7.0450   21.4890 O   0  0  0  0  0  0  0  0  0  0  0  0
  -21.5670   -6.2950   22.6380 C   0  0  0  0  0  0  0  0  0  0  0  0
  -21.1940   -6.8500   23.8810 C   0  0  0  0  0  3  0  0  0  0  0  0
  -21.1140   -6.0290   25.0230 C   0  0  0  0  0  3  0  0  0  0  0  0
  -21.3970   -4.6530   24.9240 C   0  0  0  0  0  0  0  0  0  0  0  0
  -21.7630   -4.0970   23.6840 C   0  0  0  0  0  3  0  0  0  0  0  0
  -21.8450   -4.9170   22.5450 C   0  0  0  0  0  0  0  0  0  0  0  0
  -22.1770   -4.3720   21.3510 F   0  0  0  0  0  0  0  0  0  0  0  0
  -21.3120   -3.8630   26.0180 F   0  0  0  0  0  0  0  0  0  0  0  0
  -22.7000  -13.6690   21.0620 C   0  0  0  0  0  0  0  0  0  0  0  0
  -21.9660  -12.9880   21.9340 N   0  0  0  0  0  0  0  0  0  0  0  0
  -22.2690  -14.6880   20.5240 O   0  0  0  0  0  0  0  0  0  0  0  0
  -22.3250  -12.1630   22.3900 H   0  0  0  0  0  0  0  0  0  0  0  0
  -21.0280  -13.2980   22.1490 H   0  0  0  0  0  0  0  0  0  0  0  0
  -25.3350  -15.3220   20.2390 N   0  0  0  0  0  0  0  0  0  0  0  0
  -24.5610  -15.9720   20.3180 H   0  0  0  0  0  0  0  0  0  0  0  0
  -26.1720  -15.7500   19.8630 H   0  0  0  0  0  0  0  0  0  0  0  0
  -27.9390  -23.6640   20.6750 C   0  0  0  0  0  3  0  0  0  0  0  0
  -25.4390  -22.7800   20.5080 C   0  0  0  0  0  2  0  0  0  0  0  0
  -25.3520  -24.2530   20.7930 C   0  0  0  0  0  2  0  0  0  0  0  0
  -26.5510  -23.7030   20.0430 C   0  0  0  0  0  3  0  0  0  0  0  0
  -28.5470  -25.1880   20.8310 C   0  0  0  0  0  2  0  0  0  0  0  0
  -28.3740  -26.4510   20.0190 O   0  0  0  0  0  0  0  0  0  0  0  0
  -24.6260  -31.8910   23.1670 C   0  0  0  0  0  0  0  0  0  0  0  0
  -27.2640  -27.3200   20.1120 C   0  0  0  0  0  0  0  0  0  0  0  0
  -23.4380  -30.4940   21.5170 C   0  0  0  0  0  3  0  0  0  0  0  0
  -24.9040  -28.9580   20.0880 C   0  0  0  0  0  0  0  0  0  0  0  0
  -25.9760  -30.8180   21.3470 C   0  0  0  0  0  2  0  0  0  0  0  0
  -26.0680  -29.4350   20.7060 C   0  0  0  0  0  0  0  0  0  0  0  0
  -27.2550  -28.6280   20.7090 C   0  0  0  0  0  3  0  0  0  0  0  0
  -26.0950  -26.9360   19.4340 C   0  0  0  0  0  3  0  0  0  0  0  0
  -24.9230  -27.7150   19.4390 C   0  0  0  0  0  3  0  0  0  0  0  0
  -23.6640  -29.8290   20.1340 C   0  0  0  0  0  2  0  0  0  0  0  0
  -24.6990  -31.0880   22.0670 N   0  0  0  0  0  0  0  0  0  0  0  0
  -23.5380  -32.1550   23.7020 O   0  0  0  0  0  0  0  0  0  0  0  0
  -22.7800  -29.4640   22.4700 C   0  0  0  0  0  0  0  0  0  0  0  0
  -21.4520  -29.2960   22.3550 N   0  0  0  0  0  0  0  0  0  0  0  0
  -23.4640  -28.8260   23.2750 O   0  0  0  0  0  0  0  0  0  0  0  0
  -20.9590  -29.8710   21.6850 H   0  0  0  0  0  0  0  0  0  0  0  0
  -18.0730  -28.1050   22.8760 C   0  0  0  0  0  0  0  0  0  0  0  0
  -20.6380  -28.3460   23.1170 C   0  0  0  0  0  3  0  0  0  0  0  0
  -20.7240  -26.9250   22.5100 C   0  0  0  0  0  2  0  0  0  0  0  0
  -19.6050  -26.6270   21.5080 C   0  0  0  0  0  2  0  0  0  0  0  0
  -18.2310  -26.7670   22.1720 C   0  0  0  0  0  2  0  0  0  0  0  0
  -19.2030  -28.8520   23.3050 C   0  0  0  0  0  0  0  0  0  0  0  0
  -19.0010  -30.1040   23.9270 C   0  0  0  0  0  3  0  0  0  0  0  0
  -17.7020  -30.6090   24.1230 C   0  0  0  0  0  3  0  0  0  0  0  0
  -16.5870  -29.8580   23.7140 C   0  0  0  0  0  3  0  0  0  0  0  0
  -16.7740  -28.6080   23.0940 C   0  0  0  0  0  3  0  0  0  0  0  0
  -25.9020  -32.5330   23.7950 C   0  0  0  0  0  3  0  0  0  0  0  0
  -26.4320  -31.7470   25.0570 C   0  0  1  0  0  0  0  0  0  0  0  0
  -25.3440  -31.4760   26.1220 C   0  0  0  0  0  1  0  0  0  0  0  0
  -27.0360  -30.3860   24.6400 C   0  0  0  0  0  1  0  0  0  0  0  0
  -27.5700  -32.5490   25.7310 C   0  0  0  0  0  1  0  0  0  0  0  0
  -25.5700  -33.9200   24.1520 N   0  0  0  0  0  0  0  0  0  0  0  0
  -25.8720  -34.9930   23.4080 C   0  0  0  0  0  0  0  0  0  0  0  0
  -26.5260  -34.9190   22.3650 O   0  0  0  0  0  0  0  0  0  0  0  0
  -24.9980  -34.0530   24.9730 H   0  0  0  0  0  0  0  0  0  0  0  0
  -24.1020  -36.7560   23.1210 C   0  0  0  0  0  1  0  0  0  0  0  0
  -25.3690  -36.3650   23.8970 C   0  0  0  0  0  3  0  0  0  0  0  0
  -27.5060  -37.2830   24.6840 C   0  0  0  0  0  1  0  0  0  0  0  0
  -26.3770  -37.4400   23.7720 N   0  0  0  0  0  0  0  0  0  0  0  0
  -25.9560  -38.3500   23.9440 H   0  0  0  0  0  0  0  0  0  0  0  0
  2  1  1  0
  3  5  2  0
  3  6  1  0
  4  7  1  0
  4  1  2  0
  5  4  1  0
  6 18  1  0
  6  2  2  0
  8  5  1  0
  9  8  1  0
  9 48  1  0
  9  7  1  0
 10 18  1  0
 11 16  1  0
 12 13  1  0
 12 11  1  0
 14 13  1  0
 14 23  1  0
 14 15  1  0
 16 10  1  0
 16 15  1  0
 17 10  2  0
 18 19  1  0
 20 21  2  0
 21 40  1  0
 22 21  1  0
 22 25  1  0
 23 20  1  0
 23 24  1  0
 24 22  2  0
 25 26  1  0
 26 27  2  0
 28 31  1  0
 28 27  1  0
 29 28  2  0
 30 29  1  0
 30 25  2  0
 31 32  1  0
 32 33  1  0
 33 34  2  0
 35 34  1  0
 35 39  1  0
 36 35  2  0
 37 32  2  0
 37 36  1  0
 38 37  1  0
 40 41  1  0
 41 44  1  0
 41 43  1  0
 42 40  2  0
 45 46  1  0
 45 20  1  0
 47 45  1  0
 48 52  1  0
 49 50  1  0
 51 49  1  0
 51 48  1  0
 51 50  1  0
 53 55  1  0
 53 52  1  0
 54 65  2  0
 55 60  1  0
 56 64  1  0
 56 66  1  0
 57 63  1  0
 57 59  1  0
 58 64  1  0
 59 60  2  0
 59 58  1  0
 61 62  1  0
 61 55  2  0
 62 57  2  0
 63 56  1  0
 64 54  1  0
 66 68  2  0
 67 66  1  0
 69 67  1  0
 70 79  2  0
 70 75  1  0
 71 67  1  0
 71 75  1  0
 72 71  1  0
 73 74  1  0
 73 72  1  0
 74 70  1  0
 75 76  2  0
 76 77  1  0
 78 77  2  0
 79 78  1  0
 80 54  1  0
 80 85  1  0
 80 81  1  0
 81 84  1  1
 81 82  1  0
 83 81  1  0
 85 88  1  0
 86 90  1  0
 86 85  1  0
 87 86  2  0
 90 89  1  0
 92 90  1  0
 92 93  1  0
 92 91  1  0
M  ISO  4  10 100  18 100  52 101  53 101
M  END
>  <TORSDO>  (48) 
F 19

>  <SCORE>  (48) 
-14.283

>  <name>  (48) 
47

>  <ligand_id>  (48) 
47

>  <original_smiles>  (48) 
[H]c1c([H])c([H])c2c(c1[H])C([H])([H])C([H])([H])C([H])([H])C2([H])N([H])C(=O)C1([H])N(C(=O)C([H])(N([H])C(=O)C([H])(N([H])C([H])([H])[H])C([H])([H])[H])C(C([H])([H])[H])(C([H])([H])[H])C([H])([H])[H])C([H])([H])c2c([H])c(OC([H])([H])C([H])(C3([H])C([H])([H])c4c([H])c([H])c(N([H])C(=O)N5C([H])([H])C([H])([H])C([H])([H])C([H])(n6nc(-c7c([H])c([H])c(Oc8c([H])c([H])c(F)c([H])c8F)c([H])c7[H])c(C(=O)N([H])[H])c6N([H])[H])C5([H])[H])c([H])c4C3([H])[H])C3([H])C([H])([H])C3([H])[H])c([H])c([H])c2C1([H])[H]

>  <smiles>  (48) 
[H]c1c([H])c([H])c2c(c1[H])C([H])([H])C([H])([H])C([H])([H])C2([H])N([H])C(=O)C1([H])N(C(=O)C([H])(N([H])C(=O)C([H])(N([H])C([H])([H])[H])C([H])([H])[H])C(C([H])([H])[H])(C([H])([H])[H])C([H])([H])[H])C([H])([H])c2c([H])c(OC([H])([H])C([H])(C3([H])C([H])([H])c4c([H])c([H])c(N([H])C(=O)N5C([H])([H])C([H])([H])C([H])([H])C([H])(n6nc(-c7c([H])c([H])c(Oc8c([H])c([H])c(F)c([H])c8F)c([H])c7[H])c(C(=O)N([H])[H])c6N([H])[H])C5([H])[H])c([H])c4C3([H])[H])C3([H])C([H])([H])C3([H])[H])c([H])c([H])c2C1([H])[H]

$$$$
48:0:0
     RDKit          3D

 95105  0  0  1  0  0  0  0  0999 V2000
  -30.7270  -21.0360   20.1280 C   0  0  0  0  0  3  0  0  0  0  0  0
  -28.3550  -20.9710   20.4670 C   0  0  0  0  0  3  0  0  0  0  0  0
  -29.5230  -23.1700   20.5860 C   0  0  0  0  0  0  0  0  0  0  0  0
  -30.7280  -22.4490   20.3200 C   0  0  0  0  0  0  0  0  0  0  0  0
  -29.5530  -20.2480   20.2360 C   0  0  0  0  0  0  0  0  0  0  0  0
  -28.3340  -22.3900   20.6240 C   0  0  0  0  0  0  0  0  0  0  0  0
  -32.0780  -23.1490   20.3110 C   0  0  0  0  0  1  0  0  0  0  0  0
  -30.7510  -14.7170   19.9960 C   0  0  0  0  0  0  0  0  0  0  0  0
  -30.4350  -12.4800   18.9760 C   0  0  0  0  0  2  0  0  0  0  0  0
  -29.4450  -12.6130   17.8000 C   0  0  0  0  0  2  0  0  0  0  0  0
  -27.9880  -12.4760   18.2920 C   0  0  0  0  0  2  0  0  0  0  0  0
  -27.6950  -13.3510   19.5410 C   0  0  0  0  0  3  0  0  0  0  0  0
  -28.8020  -13.2080   20.6090 C   0  0  0  0  0  2  0  0  0  0  0  0
  -30.0800  -13.5230   19.9590 N   0  0  0  0  0  0  0  0  0  0  0  0
  -31.9170  -14.7880   19.5930 O   0  0  0  0  0  0  0  0  0  0  0  0
  -30.4720  -18.2060   19.1380 C   0  0  0  0  0  2  0  0  0  0  0  0
  -29.4730  -18.0130   21.3380 C   0  0  0  0  0  2  0  0  0  0  0  0
  -30.0310  -16.7620   18.7960 C   0  0  0  0  0  2  0  0  0  0  0  0
  -29.2700  -16.4630   21.1180 C   0  0  0  0  0  2  0  0  0  0  0  0
  -29.5640  -18.8170   20.1080 N   0  0  0  0  0  0  0  0  0  0  0  0
  -29.9810  -15.8570   19.9630 N   0  0  0  0  0  0  0  0  0  0  0  0
  -25.3490  -13.9720   20.3800 C   0  0  0  0  0  0  0  0  0  0  0  0
  -24.2920  -13.2080   20.7950 C   0  0  0  0  0  0  0  0  0  0  0  0
  -24.7350  -11.8510   20.7280 C   0  0  0  0  0  0  0  0  0  0  0  0
  -26.3700  -13.0810   20.0890 N   0  0  0  0  0  0  0  0  0  0  0  0
  -26.0080  -11.7990   20.3570 N   0  0  0  0  0  0  0  0  0  0  0  0
  -24.0010  -10.5960   20.9390 C   0  0  0  0  0  0  0  0  0  0  0  0
  -24.4570   -9.6200   21.8530 C   0  0  0  0  0  3  0  0  0  0  0  0
  -23.7250   -8.4300   22.0530 C   0  0  0  0  0  3  0  0  0  0  0  0
  -22.5230   -8.2070   21.3400 C   0  0  0  0  0  0  0  0  0  0  0  0
  -22.0860   -9.1720   20.4160 C   0  0  0  0  0  3  0  0  0  0  0  0
  -22.8180  -10.3540   20.2120 C   0  0  0  0  0  3  0  0  0  0  0  0
  -21.7590   -7.0710   21.4510 O   0  0  0  0  0  0  0  0  0  0  0  0
  -21.7320   -6.3320   22.6060 C   0  0  0  0  0  0  0  0  0  0  0  0
  -21.3460   -6.8920   23.8430 C   0  0  0  0  0  3  0  0  0  0  0  0
  -21.2690   -6.0800   24.9910 C   0  0  0  0  0  3  0  0  0  0  0  0
  -21.5670   -4.7060   24.9030 C   0  0  0  0  0  0  0  0  0  0  0  0
  -21.9450   -4.1440   23.6710 C   0  0  0  0  0  3  0  0  0  0  0  0
  -22.0250   -4.9540   22.5250 C   0  0  0  0  0  0  0  0  0  0  0  0
  -22.3690   -4.4050   21.3360 F   0  0  0  0  0  0  0  0  0  0  0  0
  -21.4840   -3.9220   26.0030 F   0  0  0  0  0  0  0  0  0  0  0  0
  -22.9170  -13.6990   21.1400 C   0  0  0  0  0  0  0  0  0  0  0  0
  -22.2270  -13.0090   22.0410 N   0  0  0  0  0  0  0  0  0  0  0  0
  -22.4640  -14.7320   20.6460 O   0  0  0  0  0  0  0  0  0  0  0  0
  -22.6040  -12.1740   22.4620 H   0  0  0  0  0  0  0  0  0  0  0  0
  -21.3060  -13.3200   22.3130 H   0  0  0  0  0  0  0  0  0  0  0  0
  -25.5210  -15.3420   20.2050 N   0  0  0  0  0  0  0  0  0  0  0  0
  -24.7720  -16.0060   20.3620 H   0  0  0  0  0  0  0  0  0  0  0  0
  -26.3580  -15.7720   19.8330 H   0  0  0  0  0  0  0  0  0  0  0  0
  -30.1810  -25.8060   20.5050 C   0  0  0  0  0  2  0  0  0  0  0  0
  -29.5230  -24.6250   21.1360 C   0  0  0  0  0  3  0  0  0  0  0  0
  -28.7040  -25.9400   20.8540 C   0  0  0  0  0  3  0  0  0  0  0  0
  -28.2680  -26.5860   19.6350 O   0  0  0  0  0  0  0  0  0  0  0  0
  -24.5490  -31.7560   23.0370 C   0  0  0  0  0  0  0  0  0  0  0  0
  -27.1500  -27.4010   19.7440 C   0  0  0  0  0  0  0  0  0  0  0  0
  -23.3200  -30.4010   21.3740 C   0  0  0  0  0  3  0  0  0  0  0  0
  -24.7550  -28.9280   19.8590 C   0  0  0  0  0  0  0  0  0  0  0  0
  -25.8420  -30.7780   21.1350 C   0  0  0  0  0  2  0  0  0  0  0  0
  -25.9270  -29.4250   20.4480 C   0  0  0  0  0  0  0  0  0  0  0  0
  -27.1300  -28.6690   20.3920 C   0  0  0  0  0  3  0  0  0  0  0  0
  -25.9650  -26.9390   19.1420 C   0  0  0  0  0  3  0  0  0  0  0  0
  -24.7720  -27.6850   19.2020 C   0  0  0  0  0  3  0  0  0  0  0  0
  -23.5050  -29.7750   19.9670 C   0  0  0  0  0  2  0  0  0  0  0  0
  -24.5900  -30.9940   21.9060 N   0  0  0  0  0  0  0  0  0  0  0  0
  -23.4770  -31.9970   23.6100 O   0  0  0  0  0  0  0  0  0  0  0  0
  -22.7000  -29.3400   22.3140 C   0  0  0  0  0  0  0  0  0  0  0  0
  -21.3710  -29.1580   22.2250 N   0  0  0  0  0  0  0  0  0  0  0  0
  -23.4120  -28.6820   23.0790 O   0  0  0  0  0  0  0  0  0  0  0  0
  -20.8570  -29.7420   21.5800 H   0  0  0  0  0  0  0  0  0  0  0  0
  -18.0160  -27.9450   22.8120 C   0  0  0  0  0  0  0  0  0  0  0  0
  -20.5850  -28.1850   22.9830 C   0  0  0  0  0  3  0  0  0  0  0  0
  -20.6560  -26.7840   22.3330 C   0  0  0  0  0  2  0  0  0  0  0  0
  -19.5090  -26.5140   21.3540 C   0  0  0  0  0  2  0  0  0  0  0  0
  -18.1570  -26.6310   22.0640 C   0  0  0  0  0  2  0  0  0  0  0  0
  -19.1560  -28.6820   23.2300 C   0  0  0  0  0  0  0  0  0  0  0  0
  -18.9690  -29.9150   23.8930 C   0  0  0  0  0  3  0  0  0  0  0  0
  -17.6740  -30.4110   24.1390 C   0  0  0  0  0  3  0  0  0  0  0  0
  -16.5500  -29.6700   23.7350 C   0  0  0  0  0  3  0  0  0  0  0  0
  -16.7220  -28.4380   23.0780 C   0  0  0  0  0  3  0  0  0  0  0  0
  -25.8420  -32.3810   23.6470 C   0  0  0  0  0  3  0  0  0  0  0  0
  -25.5230  -33.7600   24.0400 N   0  0  0  0  0  0  0  0  0  0  0  0
  -25.8430  -34.8480   23.3270 C   0  0  0  0  0  0  0  0  0  0  0  0
  -26.5080  -34.7960   22.2870 O   0  0  0  0  0  0  0  0  0  0  0  0
  -24.9330  -33.8750   24.8500 H   0  0  0  0  0  0  0  0  0  0  0  0
  -24.0980  -36.6400   23.0610 C   0  0  0  0  0  1  0  0  0  0  0  0
  -25.3480  -36.2120   23.8470 C   0  0  0  0  0  3  0  0  0  0  0  0
  -27.4800  -37.0760   24.7040 C   0  0  0  0  0  1  0  0  0  0  0  0
  -26.3710  -37.2760   23.7750 N   0  0  0  0  0  0  0  0  0  0  0  0
  -25.9580  -38.1860   23.9640 H   0  0  0  0  0  0  0  0  0  0  0  0
  -26.4050  -31.5660   24.8770 C   0  0  1  0  0  0  0  0  0  0  0  0
  -25.3470  -31.2770   25.9670 C   0  0  0  0  0  1  0  0  0  0  0  0
  -26.9880  -30.2110   24.4150 C   0  0  0  0  0  1  0  0  0  0  0  0
  -27.5670  -32.3480   25.5340 C   0  0  0  0  0  1  0  0  0  0  0  0
  -26.7890  -23.1390   22.2280 C   0  0  0  0  0  1  0  0  0  0  0  0
  -27.1330  -23.0110   20.8540 O   0  0  0  0  0  0  0  0  0  0  0  0
  1  5  2  0
  1  4  1  0
  2  6  2  0
  3  6  1  0
  4  3  2  0
  5  2  1  0
  6 95  1  0
  7  4  1  0
  9 14  1  0
 10 11  1  0
 10  9  1  0
 12 11  1  0
 12 25  1  0
 12 13  1  0
 14  8  1  0
 14 13  1  0
 15  8  2  0
 16 20  1  0
 18 16  1  0
 18 21  1  0
 19 17  1  0
 20  5  1  0
 20 17  1  0
 21  8  1  0
 21 19  1  0
 22 23  2  0
 23 42  1  0
 24 23  1  0
 24 27  1  0
 25 26  1  0
 25 22  1  0
 26 24  2  0
 27 28  1  0
 28 29  2  0
 30 33  1  0
 30 29  1  0
 31 30  2  0
 32 31  1  0
 32 27  2  0
 33 34  1  0
 34 35  1  0
 35 36  2  0
 37 36  1  0
 37 41  1  0
 38 37  2  0
 39 34  2  0
 39 38  1  0
 40 39  1  0
 42 43  1  0
 43 46  1  0
 43 45  1  0
 44 42  2  0
 47 48  1  0
 47 22  1  0
 49 47  1  0
 50 52  1  0
 50 51  1  0
 51  3  1  0
 52 53  1  0
 52 51  1  0
 53 55  1  0
 54 65  2  0
 55 60  1  0
 56 64  1  0
 56 66  1  0
 57 63  1  0
 57 59  1  0
 58 64  1  0
 59 58  1  0
 60 59  2  0
 61 62  1  0
 61 55  2  0
 62 57  2  0
 63 56  1  0
 64 54  1  0
 66 68  2  0
 67 66  1  0
 69 67  1  0
 70 79  2  0
 70 75  1  0
 71 67  1  0
 71 75  1  0
 72 71  1  0
 73 74  1  0
 73 72  1  0
 74 70  1  0
 75 76  2  0
 76 77  1  0
 78 77  2  0
 79 78  1  0
 80 54  1  0
 80 81  1  0
 80 90  1  0
 81 84  1  0
 82 86  1  0
 82 81  1  0
 83 82  2  0
 86 85  1  0
 88 86  1  0
 88 89  1  0
 88 87  1  0
 90 93  1  1
 90 91  1  0
 92 90  1  0
 95 94  1  0
M  ISO  4   8 100  21 100  52 101  53 101
M  END
>  <TORSDO>  (49) 
F 18

>  <SCORE>  (49) 
-13.896

>  <name>  (49) 
48

>  <ligand_id>  (49) 
48

>  <original_smiles>  (49) 
[H]c1c([H])c([H])c2c(c1[H])C([H])([H])C([H])([H])C([H])([H])C2([H])N([H])C(=O)C1([H])N(C(=O)C([H])(N([H])C(=O)C([H])(N([H])C([H])([H])[H])C([H])([H])[H])C(C([H])([H])[H])(C([H])([H])[H])C([H])([H])[H])C([H])([H])c2c([H])c(OC3([H])C([H])([H])C3([H])c3c(OC([H])([H])[H])c([H])c(N4C([H])([H])C([H])([H])N(C(=O)N5C([H])([H])C([H])([H])C([H])([H])C([H])(n6nc(-c7c([H])c([H])c(Oc8c([H])c([H])c(F)c([H])c8F)c([H])c7[H])c(C(=O)N([H])[H])c6N([H])[H])C5([H])[H])C([H])([H])C4([H])[H])c([H])c3C([H])([H])[H])c([H])c([H])c2C1([H])[H]

>  <smiles>  (49) 
[H]c1c([H])c([H])c2c(c1[H])C([H])([H])C([H])([H])C([H])([H])C2([H])N([H])C(=O)C1([H])N(C(=O)C([H])(N([H])C(=O)C([H])(N([H])C([H])([H])[H])C([H])([H])[H])C(C([H])([H])[H])(C([H])([H])[H])C([H])([H])[H])C([H])([H])c2c([H])c(OC3([H])C([H])([H])C3([H])c3c(OC([H])([H])[H])c([H])c(N4C([H])([H])C([H])([H])N(C(=O)N5C([H])([H])C([H])([H])C([H])([H])C([H])(n6nc(-c7c([H])c([H])c(Oc8c([H])c([H])c(F)c([H])c8F)c([H])c7[H])c(C(=O)N([H])[H])c6N([H])[H])C5([H])[H])C([H])([H])C4([H])[H])c([H])c3C([H])([H])[H])c([H])c([H])c2C1([H])[H]

$$$$
49:0:0
     RDKit          3D

101110  0  0  1  0  0  0  0  0999 V2000
  -30.5140  -19.6470   19.0220 C   0  0  0  0  0  3  0  0  0  0  0  0
  -29.8730  -20.9690   20.9700 C   0  0  0  0  0  3  0  0  0  0  0  0
  -30.0270  -20.6810   18.2100 C   0  0  0  0  0  0  0  0  0  0  0  0
  -29.4000  -21.8070   18.7420 C   0  0  0  0  0  0  0  0  0  0  0  0
  -29.3910  -22.0190   20.1480 C   0  0  0  0  0  0  0  0  0  0  0  0
  -30.3650  -19.7620   20.4260 C   0  0  0  0  0  0  0  0  0  0  0  0
  -30.0880  -20.7220   16.7060 C   0  0  0  0  0  2  0  0  0  0  0  0
  -29.6100  -22.1520   16.3840 C   0  0  0  0  0  2  0  0  0  0  0  0
  -28.7950  -22.6300   17.6110 C   0  0  0  0  0  3  0  0  0  0  0  0
  -27.3700  -22.2800   17.3930 N   0  0  0  0  0  4  0  0  0  0  0  0
  -27.3110  -21.2810   17.2820 H   0  0  0  0  0  0  0  0  0  0  0  0
  -27.0790  -22.7080   16.5300 H   0  0  0  0  0  0  0  0  0  0  0  0
  -26.4240  -22.6890   18.4510 C   0  0  0  0  0  2  0  0  0  0  0  0
  -24.5640  -23.5650   16.9160 C   0  0  0  0  0  1  0  0  0  0  0  0
  -24.5660  -21.1220   17.6720 C   0  0  0  0  0  1  0  0  0  0  0  0
  -24.9490  -22.5700   18.0220 C   0  0  0  0  0  3  0  0  0  0  0  0
  -28.8520  -23.2770   20.8320 C   0  0  0  0  0  2  0  0  0  0  0  0
  -29.4620  -24.6080   20.3590 C   0  0  0  0  0  2  0  0  0  0  0  0
  -28.7840  -25.8060   21.0400 C   0  0  0  0  0  2  0  0  0  0  0  0
  -28.7620  -26.9250   20.1570 O   0  0  0  0  0  0  0  0  0  0  0  0
  -24.7010  -31.8790   23.2120 C   0  0  0  0  0  0  0  0  0  0  0  0
  -27.5650  -27.5950   20.1460 C   0  0  0  0  0  0  0  0  0  0  0  0
  -23.5750  -30.4580   21.5250 C   0  0  0  0  0  3  0  0  0  0  0  0
  -25.1100  -28.9820   20.1210 C   0  0  0  0  0  0  0  0  0  0  0  0
  -26.0850  -30.9120   21.3810 C   0  0  0  0  0  2  0  0  0  0  0  0
  -26.2330  -29.5510   20.7370 C   0  0  0  0  0  0  0  0  0  0  0  0
  -27.4640  -28.8640   20.7470 C   0  0  0  0  0  3  0  0  0  0  0  0
  -26.4300  -27.0250   19.5290 C   0  0  0  0  0  3  0  0  0  0  0  0
  -25.2030  -27.7150   19.5130 C   0  0  0  0  0  3  0  0  0  0  0  0
  -23.8340  -29.7930   20.1440 C   0  0  0  0  0  2  0  0  0  0  0  0
  -24.8040  -31.0970   22.0990 N   0  0  0  0  0  0  0  0  0  0  0  0
  -23.6020  -32.1130   23.7310 O   0  0  0  0  0  0  0  0  0  0  0  0
  -22.9360  -29.4090   22.4610 C   0  0  0  0  0  0  0  0  0  0  0  0
  -21.6130  -29.2170   22.3270 N   0  0  0  0  0  0  0  0  0  0  0  0
  -23.6250  -28.7700   23.2600 O   0  0  0  0  0  0  0  0  0  0  0  0
  -21.1190  -29.7850   21.6540 H   0  0  0  0  0  0  0  0  0  0  0  0
  -18.2410  -28.0270   22.8240 C   0  0  0  0  0  0  0  0  0  0  0  0
  -20.8030  -28.2530   23.0700 C   0  0  0  0  0  3  0  0  0  0  0  0
  -20.8870  -26.8470   22.4320 C   0  0  0  0  0  2  0  0  0  0  0  0
  -19.7690  -26.5750   21.4230 C   0  0  0  0  0  2  0  0  0  0  0  0
  -18.3980  -26.7040   22.0930 C   0  0  0  0  0  2  0  0  0  0  0  0
  -19.3710  -28.7620   23.2690 C   0  0  0  0  0  0  0  0  0  0  0  0
  -19.1720  -30.0020   23.9120 C   0  0  0  0  0  3  0  0  0  0  0  0
  -17.8740  -30.5050   24.1190 C   0  0  0  0  0  3  0  0  0  0  0  0
  -16.7580  -29.7650   23.6930 C   0  0  0  0  0  3  0  0  0  0  0  0
  -16.9420  -28.5290   23.0490 C   0  0  0  0  0  3  0  0  0  0  0  0
  -25.9550  -32.5390   23.8670 C   0  0  0  0  0  3  0  0  0  0  0  0
  -26.4600  -31.7760   25.1540 C   0  0  1  0  0  0  0  0  0  0  0  0
  -25.3450  -31.5080   26.1920 C   0  0  0  0  0  1  0  0  0  0  0  0
  -27.0870  -30.4160   24.7680 C   0  0  0  0  0  1  0  0  0  0  0  0
  -27.5720  -32.5980   25.8490 C   0  0  0  0  0  1  0  0  0  0  0  0
  -25.6060  -33.9290   24.1870 N   0  0  0  0  0  0  0  0  0  0  0  0
  -25.9310  -34.9870   23.4320 C   0  0  0  0  0  0  0  0  0  0  0  0
  -26.6280  -34.8990   22.4180 O   0  0  0  0  0  0  0  0  0  0  0  0
  -24.9920  -34.0710   24.9750 H   0  0  0  0  0  0  0  0  0  0  0  0
  -24.1640  -36.7320   23.0350 C   0  0  0  0  0  1  0  0  0  0  0  0
  -25.3980  -36.3630   23.8740 C   0  0  0  0  0  3  0  0  0  0  0  0
  -27.4860  -37.3110   24.7520 C   0  0  0  0  0  1  0  0  0  0  0  0
  -26.4050  -37.4430   23.7790 N   0  0  0  0  0  0  0  0  0  0  0  0
  -25.9720  -38.3530   23.9120 H   0  0  0  0  0  0  0  0  0  0  0  0
  -30.6460  -18.7270   21.2910 O   0  0  0  0  0  0  0  0  0  0  0  0
  -30.4760  -17.4200   20.7500 C   0  0  0  0  0  2  0  0  0  0  0  0
  -30.6020  -16.3380   21.8350 C   0  0  0  0  0  2  0  0  0  0  0  0
  -30.4150  -14.3870   20.2910 C   0  0  0  0  0  0  0  0  0  0  0  0
  -29.9390  -12.4830   18.8000 C   0  0  0  0  0  2  0  0  0  0  0  0
  -28.8900  -12.8480   17.7340 C   0  0  0  0  0  2  0  0  0  0  0  0
  -27.4650  -12.6250   18.2740 C   0  0  0  0  0  2  0  0  0  0  0  0
  -27.2470  -13.2810   19.6620 C   0  0  0  0  0  3  0  0  0  0  0  0
  -28.3940  -12.9120   20.6310 C   0  0  0  0  0  2  0  0  0  0  0  0
  -29.6780  -13.2860   20.0050 N   0  0  0  0  0  0  0  0  0  0  0  0
  -31.3700  -14.7620   19.6070 O   0  0  0  0  0  0  0  0  0  0  0  0
  -30.0420  -15.0620   21.3850 N   0  0  0  0  0  0  0  0  0  0  0  0
  -29.2710  -14.6830   21.9150 H   0  0  0  0  0  0  0  0  0  0  0  0
  -24.8680  -13.7490   20.5330 C   0  0  0  0  0  0  0  0  0  0  0  0
  -23.8660  -12.9150   20.9510 C   0  0  0  0  0  0  0  0  0  0  0  0
  -24.3910  -11.5890   20.8560 C   0  0  0  0  0  0  0  0  0  0  0  0
  -25.9400  -12.9290   20.2160 N   0  0  0  0  0  0  0  0  0  0  0  0
  -25.6580  -11.6240   20.4650 N   0  0  0  0  0  0  0  0  0  0  0  0
  -23.7440  -10.2870   21.0620 C   0  0  0  0  0  0  0  0  0  0  0  0
  -24.2340   -9.3600   22.0080 C   0  0  0  0  0  3  0  0  0  0  0  0
  -23.5850   -8.1220   22.2010 C   0  0  0  0  0  3  0  0  0  0  0  0
  -22.4310   -7.8000   21.4470 C   0  0  0  0  0  0  0  0  0  0  0  0
  -21.9600   -8.7160   20.4900 C   0  0  0  0  0  3  0  0  0  0  0  0
  -22.6110   -9.9460   20.2950 C   0  0  0  0  0  3  0  0  0  0  0  0
  -21.7520   -6.6110   21.5470 O   0  0  0  0  0  0  0  0  0  0  0  0
  -21.6950   -5.9110   22.7260 C   0  0  0  0  0  0  0  0  0  0  0  0
  -21.1580   -6.4770   23.9020 C   0  0  0  0  0  3  0  0  0  0  0  0
  -21.0540   -5.7010   25.0740 C   0  0  0  0  0  3  0  0  0  0  0  0
  -21.4780   -4.3580   25.0700 C   0  0  0  0  0  0  0  0  0  0  0  0
  -22.0090   -3.7910   23.8970 C   0  0  0  0  0  3  0  0  0  0  0  0
  -22.1140   -4.5650   22.7280 C   0  0  0  0  0  0  0  0  0  0  0  0
  -22.6060   -4.0080   21.5960 F   0  0  0  0  0  0  0  0  0  0  0  0
  -21.3720   -3.6090   26.1920 F   0  0  0  0  0  0  0  0  0  0  0  0
  -22.4670  -13.3110   21.3270 C   0  0  0  0  0  0  0  0  0  0  0  0
  -21.8420  -12.5700   22.2350 N   0  0  0  0  0  0  0  0  0  0  0  0
  -21.9370  -14.3130   20.8510 O   0  0  0  0  0  0  0  0  0  0  0  0
  -22.2850  -11.7590   22.6410 H   0  0  0  0  0  0  0  0  0  0  0  0
  -20.9070  -12.8170   22.5280 H   0  0  0  0  0  0  0  0  0  0  0  0
  -24.9530  -15.1300   20.3810 N   0  0  0  0  0  0  0  0  0  0  0  0
  -24.1700  -15.7480   20.5590 H   0  0  0  0  0  0  0  0  0  0  0  0
  -25.7680  -15.6150   20.0230 H   0  0  0  0  0  0  0  0  0  0  0  0
  1  6  1  0
  3  4  1  0
  3  1  2  0
  4  5  2  0
  5 17  1  0
  5  2  1  0
  6  2  2  0
  6 61  1  0
  7  3  1  0
  8  7  1  0
  8  9  1  0
  9 10  1  0
  9  4  1  0
 10 13  1  0
 11 10  1  0
 12 10  1  0
 14 16  1  0
 15 16  1  0
 16 13  1  0
 18 17  1  0
 18 19  1  0
 20 19  1  0
 21 32  2  0
 22 20  1  0
 22 27  1  0
 23 31  1  0
 23 33  1  0
 24 30  1  0
 24 26  1  0
 25 31  1  0
 26 27  2  0
 26 25  1  0
 28 22  2  0
 29 28  1  0
 29 24  2  0
 30 23  1  0
 31 21  1  0
 33 35  2  0
 34 33  1  0
 36 34  1  0
 37 46  2  0
 37 42  1  0
 38 34  1  0
 38 42  1  0
 39 38  1  0
 40 41  1  0
 40 39  1  0
 41 37  1  0
 42 43  2  0
 43 44  1  0
 45 44  2  0
 46 45  1  0
 47 21  1  0
 47 52  1  0
 47 48  1  0
 48 51  1  1
 48 49  1  0
 50 48  1  0
 52 55  1  0
 53 57  1  0
 53 52  1  0
 54 53  2  0
 57 56  1  0
 59 57  1  0
 59 60  1  0
 59 58  1  0
 62 61  1  0
 62 63  1  0
 64 72  1  0
 65 70  1  0
 66 67  1  0
 66 65  1  0
 68 67  1  0
 68 77  1  0
 68 69  1  0
 70 64  1  0
 70 69  1  0
 71 64  2  0
 72 63  1  0
 72 73  1  0
 74 75  2  0
 75 94  1  0
 76 75  1  0
 76 79  1  0
 77 78  1  0
 77 74  1  0
 78 76  2  0
 79 80  1  0
 80 81  2  0
 82 85  1  0
 82 81  1  0
 83 82  2  0
 84 83  1  0
 84 79  2  0
 85 86  1  0
 86 91  2  0
 86 87  1  0
 87 88  2  0
 89 88  1  0
 89 93  1  0
 90 89  2  0
 91 90  1  0
 92 91  1  0
 94 95  1  0
 95 98  1  0
 95 97  1  0
 96 94  2  0
 99 74  1  0
 99100  1  0
101 99  1  0
M  ISO  4  19 101  20 101  64 100  72 100
M  END
>  <TORSDO>  (50) 
F 25

>  <SCORE>  (50) 
-11.874

>  <name>  (50) 
49

>  <ligand_id>  (50) 
49

>  <original_smiles>  (50) 
[H]c1c([H])c([H])c2c(c1[H])C([H])([H])C([H])([H])C([H])([H])C2([H])N([H])C(=O)C1([H])N(C(=O)C([H])(N([H])C(=O)C([H])(N([H])C([H])([H])[H])C([H])([H])[H])C(C([H])([H])[H])(C([H])([H])[H])C([H])([H])[H])C([H])([H])c2c([H])c(OC([H])([H])C([H])([H])C([H])([H])c3c([H])c(OC([H])([H])C([H])([H])N([H])C(=O)N4C([H])([H])C([H])([H])C([H])([H])C([H])(n5nc(-c6c([H])c([H])c(Oc7c([H])c([H])c(F)c([H])c7F)c([H])c6[H])c(C(=O)N([H])[H])c5N([H])[H])C4([H])[H])c([H])c4c3C([H])([N+]([H])([H])C([H])([H])C([H])(C([H])([H])[H])C([H])([H])[H])C([H])([H])C4([H])[H])c([H])c([H])c2C1([H])[H]

>  <smiles>  (50) 
[H]c1c([H])c([H])c2c(c1[H])C([H])([H])C([H])([H])C([H])([H])C2([H])N([H])C(=O)C1([H])N(C(=O)C([H])(N([H])C(=O)C([H])(N([H])C([H])([H])[H])C([H])([H])[H])C(C([H])([H])[H])(C([H])([H])[H])C([H])([H])[H])C([H])([H])c2c([H])c(OC([H])([H])C([H])([H])C([H])([H])c3c([H])c(OC([H])([H])C([H])([H])N([H])C(=O)N4C([H])([H])C([H])([H])C([H])([H])C([H])(n5nc(-c6c([H])c([H])c(Oc7c([H])c([H])c(F)c([H])c7F)c([H])c6[H])c(C(=O)N([H])[H])c5N([H])[H])C4([H])[H])c([H])c4c3C([H])([N+]([H])([H])C([H])([H])C([H])(C([H])([H])[H])C([H])([H])[H])C([H])([H])C4([H])[H])c([H])c([H])c2C1([H])[H]

$$$$
50:0:0
     RDKit          3D

 98108  0  0  1  0  0  0  0  0999 V2000
  -30.0500  -22.0460   22.0610 C   0  0  0  0  0  2  0  0  0  0  0  0
  -30.4290  -21.9730   19.5600 C   0  0  0  0  0  2  0  0  0  0  0  0
  -28.7900  -22.8990   21.8000 C   0  0  0  0  0  2  0  0  0  0  0  0
  -29.1550  -22.8210   19.3850 C   0  0  0  0  0  2  0  0  0  0  0  0
  -30.4140  -21.1400   20.8630 C   0  0  0  0  0  3  0  0  0  0  0  0
  -28.9430  -23.7060   20.5600 N   0  0  1  0  0  4  0  0  0  0  0  0
  -29.7980  -24.2360   20.6610 H   0  0  0  0  0  0  0  0  0  0  0  0
  -33.2240  -18.4670   21.2170 C   0  0  0  0  0  3  0  0  0  0  0  0
  -34.3560  -19.2940   21.2980 C   0  0  0  0  0  3  0  0  0  0  0  0
  -32.9100  -21.2350   21.1760 C   0  0  0  0  0  3  0  0  0  0  0  0
  -31.9110  -18.9960   21.1340 C   0  0  0  0  0  0  0  0  0  0  0  0
  -31.7550  -20.4180   21.0780 C   0  0  0  0  0  0  0  0  0  0  0  0
  -34.2000  -20.6870   21.2830 C   0  0  0  0  0  0  0  0  0  0  0  0
  -35.4090  -21.5980   21.3490 C   0  0  0  0  0  1  0  0  0  0  0  0
  -30.9520  -14.5710   19.6610 C   0  0  0  0  0  0  0  0  0  0  0  0
  -30.5630  -12.3070   18.7510 C   0  0  0  0  0  2  0  0  0  0  0  0
  -29.5500  -12.3530   17.5890 C   0  0  0  0  0  2  0  0  0  0  0  0
  -28.1080  -12.2350   18.1200 C   0  0  0  0  0  2  0  0  0  0  0  0
  -27.8310  -13.2090   19.2950 C   0  0  0  0  0  3  0  0  0  0  0  0
  -28.9530  -13.1130   20.3480 C   0  0  0  0  0  2  0  0  0  0  0  0
  -30.2400  -13.4020   19.6890 N   0  0  0  0  0  0  0  0  0  0  0  0
  -31.9460  -14.6800   18.9340 O   0  0  0  0  0  0  0  0  0  0  0  0
  -30.5520  -17.0730   22.2530 C   0  0  0  0  0  2  0  0  0  0  0  0
  -29.9950  -15.7730   21.6710 C   0  0  0  0  0  2  0  0  0  0  0  0
  -30.9280  -17.0170   19.8660 C   0  0  0  0  0  2  0  0  0  0  0  0
  -30.7490  -17.9890   21.0390 C   0  0  0  0  0  3  0  0  0  0  0  0
  -30.4570  -15.6810   20.2810 N   0  0  0  0  0  0  0  0  0  0  0  0
  -25.5390  -13.8850   20.2510 C   0  0  0  0  0  0  0  0  0  0  0  0
  -24.4820  -13.1400   20.7020 C   0  0  0  0  0  0  0  0  0  0  0  0
  -24.8820  -11.7740   20.5840 C   0  0  0  0  0  0  0  0  0  0  0  0
  -26.5190  -12.9710   19.8920 N   0  0  0  0  0  0  0  0  0  0  0  0
  -26.1320  -11.6950   20.1470 N   0  0  0  0  0  0  0  0  0  0  0  0
  -24.1290  -10.5330   20.8100 C   0  0  0  0  0  0  0  0  0  0  0  0
  -24.5360   -9.5870   21.7750 C   0  0  0  0  0  3  0  0  0  0  0  0
  -23.7850   -8.4110   21.9860 C   0  0  0  0  0  3  0  0  0  0  0  0
  -22.6120   -8.1730   21.2310 C   0  0  0  0  0  0  0  0  0  0  0  0
  -22.2240   -9.1070   20.2540 C   0  0  0  0  0  3  0  0  0  0  0  0
  -22.9750  -10.2760   20.0430 C   0  0  0  0  0  3  0  0  0  0  0  0
  -21.8340   -7.0470   21.3470 O   0  0  0  0  0  0  0  0  0  0  0  0
  -21.6470   -6.4230   22.5550 C   0  0  0  0  0  0  0  0  0  0  0  0
  -21.0830   -7.0950   23.6610 C   0  0  0  0  0  3  0  0  0  0  0  0
  -20.8450   -6.3970   24.8620 C   0  0  0  0  0  3  0  0  0  0  0  0
  -21.1600   -5.0280   24.9560 C   0  0  0  0  0  0  0  0  0  0  0  0
  -21.7160   -4.3560   23.8530 C   0  0  0  0  0  3  0  0  0  0  0  0
  -21.9560   -5.0520   22.6550 C   0  0  0  0  0  0  0  0  0  0  0  0
  -22.4720   -4.3940   21.5890 F   0  0  0  0  0  0  0  0  0  0  0  0
  -20.9240   -4.3550   26.1060 F   0  0  0  0  0  0  0  0  0  0  0  0
  -23.1400  -13.6600   21.1280 C   0  0  0  0  0  0  0  0  0  0  0  0
  -22.4850  -12.9770   22.0620 N   0  0  0  0  0  0  0  0  0  0  0  0
  -22.6840  -14.7050   20.6670 O   0  0  0  0  0  0  0  0  0  0  0  0
  -22.8700  -12.1300   22.4540 H   0  0  0  0  0  0  0  0  0  0  0  0
  -21.5880  -13.3050   22.3880 H   0  0  0  0  0  0  0  0  0  0  0  0
  -25.7440  -15.2520   20.1000 N   0  0  0  0  0  0  0  0  0  0  0  0
  -25.0250  -15.9360   20.3110 H   0  0  0  0  0  0  0  0  0  0  0  0
  -26.5860  -15.6660   19.7190 H   0  0  0  0  0  0  0  0  0  0  0  0
  -27.8700  -24.7170   20.3370 C   0  0  0  0  0  2  0  0  0  0  0  0
  -28.1650  -26.0750   21.0100 C   0  0  0  0  0  2  0  0  0  0  0  0
  -28.0040  -27.1410   20.0730 O   0  0  0  0  0  0  0  0  0  0  0  0
  -24.4830  -32.3470   23.3940 C   0  0  0  0  0  0  0  0  0  0  0  0
  -26.8410  -27.8580   20.1850 C   0  0  0  0  0  0  0  0  0  0  0  0
  -23.1440  -30.9600   21.8400 C   0  0  0  0  0  3  0  0  0  0  0  0
  -24.4740  -29.3820   20.3410 C   0  0  0  0  0  0  0  0  0  0  0  0
  -25.6540  -31.2770   21.4740 C   0  0  0  0  0  2  0  0  0  0  0  0
  -25.6740  -29.8990   20.8450 C   0  0  0  0  0  0  0  0  0  0  0  0
  -26.8620  -29.1450   20.7620 C   0  0  0  0  0  3  0  0  0  0  0  0
  -25.6290  -27.3410   19.6840 C   0  0  0  0  0  3  0  0  0  0  0  0
  -24.4430  -28.1000   19.7610 C   0  0  0  0  0  3  0  0  0  0  0  0
  -23.2510  -30.2630   20.4570 C   0  0  0  0  0  2  0  0  0  0  0  0
  -24.4500  -31.5430   22.2940 N   0  0  0  0  0  0  0  0  0  0  0  0
  -23.4450  -32.6420   24.0020 O   0  0  0  0  0  0  0  0  0  0  0  0
  -22.5380  -29.9590   22.8480 C   0  0  0  0  0  0  0  0  0  0  0  0
  -21.2500  -29.6290   22.6620 N   0  0  0  0  0  0  0  0  0  0  0  0
  -23.2260  -29.4730   23.7500 O   0  0  0  0  0  0  0  0  0  0  0  0
  -20.7520  -30.0760   21.9050 H   0  0  0  0  0  0  0  0  0  0  0  0
  -18.0270  -28.0270   22.9770 C   0  0  0  0  0  0  0  0  0  0  0  0
  -20.4810  -28.6760   23.4630 C   0  0  0  0  0  3  0  0  0  0  0  0
  -20.8330  -27.2190   23.0850 C   0  0  0  0  0  2  0  0  0  0  0  0
  -19.9060  -26.6310   22.0170 C   0  0  0  0  0  2  0  0  0  0  0  0
  -18.4530  -26.6480   22.5000 C   0  0  0  0  0  2  0  0  0  0  0  0
  -18.9810  -28.9840   23.4130 C   0  0  0  0  0  0  0  0  0  0  0  0
  -18.5350  -30.2630   23.8120 C   0  0  0  0  0  3  0  0  0  0  0  0
  -17.1670  -30.5900   23.7820 C   0  0  0  0  0  3  0  0  0  0  0  0
  -16.2250  -29.6330   23.3640 C   0  0  0  0  0  3  0  0  0  0  0  0
  -16.6550  -28.3540   22.9680 C   0  0  0  0  0  3  0  0  0  0  0  0
  -25.8200  -32.9530   23.9250 C   0  0  0  0  0  3  0  0  0  0  0  0
  -26.3840  -32.2030   25.1950 C   0  0  1  0  0  0  0  0  0  0  0  0
  -25.3310  -31.9810   26.3060 C   0  0  0  0  0  1  0  0  0  0  0  0
  -26.9540  -30.8200   24.8040 C   0  0  0  0  0  1  0  0  0  0  0  0
  -27.5580  -33.0080   25.8010 C   0  0  0  0  0  1  0  0  0  0  0  0
  -25.5750  -34.3710   24.2220 N   0  0  0  0  0  0  0  0  0  0  0  0
  -25.9300  -35.3860   23.4220 C   0  0  0  0  0  0  0  0  0  0  0  0
  -26.5680  -35.2260   22.3780 O   0  0  0  0  0  0  0  0  0  0  0  0
  -25.0110  -34.5720   25.0330 H   0  0  0  0  0  0  0  0  0  0  0  0
  -24.2710  -37.2370   23.0440 C   0  0  0  0  0  1  0  0  0  0  0  0
  -25.5070  -36.8040   23.8480 C   0  0  0  0  0  3  0  0  0  0  0  0
  -27.6920  -37.6170   24.6190 C   0  0  0  0  0  1  0  0  0  0  0  0
  -26.5800  -37.8100   23.6920 N   0  0  0  0  0  0  0  0  0  0  0  0
  -26.2150  -38.7490   23.8280 H   0  0  0  0  0  0  0  0  0  0  0  0
  2  5  1  0
  3  1  1  0
  4  2  1  0
  4  6  1  0
  5 12  1  0
  5  1  1  0
  6  7  1  1
  6  3  1  0
  8  9  1  0
 10 13  1  0
 11  8  2  0
 12 11  1  0
 12 10  2  0
 13  9  2  0
 13 14  1  0
 15 21  1  0
 15 27  1  0
 16 21  1  0
 17 18  1  0
 17 16  1  0
 19 18  1  0
 19 31  1  0
 19 20  1  0
 21 20  1  0
 22 15  2  0
 24 23  1  0
 25 27  1  0
 25 26  1  0
 26 11  1  0
 26 23  1  0
 27 24  1  0
 28 29  2  0
 29 48  1  0
 30 29  1  0
 30 33  1  0
 31 32  1  0
 31 28  1  0
 32 30  2  0
 33 34  1  0
 34 35  2  0
 36 39  1  0
 36 35  1  0
 37 36  2  0
 38 37  1  0
 38 33  2  0
 39 40  1  0
 40 45  2  0
 40 41  1  0
 41 42  2  0
 42 43  1  0
 43 47  1  0
 44 43  2  0
 45 44  1  0
 46 45  1  0
 48 49  1  0
 49 52  1  0
 49 51  1  0
 50 48  2  0
 53 28  1  0
 53 54  1  0
 55 53  1  0
 56  6  1  0
 56 57  1  0
 58 60  1  0
 58 57  1  0
 59 70  2  0
 60 65  1  0
 61 69  1  0
 61 71  1  0
 62 68  1  0
 62 64  1  0
 63 69  1  0
 64 63  1  0
 65 64  2  0
 66 67  1  0
 66 60  2  0
 67 62  2  0
 68 61  1  0
 69 59  1  0
 71 73  2  0
 72 71  1  0
 74 72  1  0
 75 80  1  0
 76 72  1  0
 77 76  1  0
 78 79  1  0
 78 77  1  0
 79 75  1  0
 80 76  1  0
 80 81  2  0
 82 81  1  0
 83 82  2  0
 84 75  2  0
 84 83  1  0
 85 59  1  0
 85 90  1  0
 85 86  1  0
 86 89  1  1
 86 87  1  0
 88 86  1  0
 90 93  1  0
 91 95  1  0
 91 90  1  0
 92 91  2  0
 95 94  1  0
 97 98  1  0
 97 95  1  0
 97 96  1  0
M  ISO  4  15 100  27 100  57 101  58 101
M  END
>  <TORSDO>  (51) 
F 19

>  <SCORE>  (51) 
-12.720

>  <name>  (51) 
50

>  <ligand_id>  (51) 
50

>  <original_smiles>  (51) 
[H]c1c([H])c([H])c2c(c1[H])C([H])([H])C([H])([H])C([H])([H])C2([H])N([H])C(=O)C1([H])N(C(=O)C([H])(N([H])C(=O)C([H])(N([H])C([H])([H])[H])C([H])([H])[H])C(C([H])([H])[H])(C([H])([H])[H])C([H])([H])[H])C([H])([H])c2c([H])c(OC([H])([H])C([H])([H])[N+]3([H])C([H])([H])C([H])([H])C([H])(c4c([H])c(C([H])([H])[H])c([H])c([H])c4C4([H])C([H])([H])N(C(=O)N5C([H])([H])C([H])([H])C([H])([H])C([H])(n6nc(-c7c([H])c([H])c(Oc8c([H])c([H])c(F)c([H])c8F)c([H])c7[H])c(C(=O)N([H])[H])c6N([H])[H])C5([H])[H])C([H])([H])C4([H])[H])C([H])([H])C3([H])[H])c([H])c([H])c2C1([H])[H]

>  <smiles>  (51) 
[H]c1c([H])c([H])c2c(c1[H])C([H])([H])C([H])([H])C([H])([H])C2([H])N([H])C(=O)C1([H])N(C(=O)C([H])(N([H])C(=O)C([H])(N([H])C([H])([H])[H])C([H])([H])[H])C(C([H])([H])[H])(C([H])([H])[H])C([H])([H])[H])C([H])([H])c2c([H])c(OC([H])([H])C([H])([H])[N+]3([H])C([H])([H])C([H])([H])C([H])(c4c([H])c(C([H])([H])[H])c([H])c([H])c4C4([H])C([H])([H])N(C(=O)N5C([H])([H])C([H])([H])C([H])([H])C([H])(n6nc(-c7c([H])c([H])c(Oc8c([H])c([H])c(F)c([H])c8F)c([H])c7[H])c(C(=O)N([H])[H])c6N([H])[H])C5([H])[H])C([H])([H])C4([H])[H])C([H])([H])C3([H])[H])c([H])c([H])c2C1([H])[H]

$$$$
51:0:0
     RDKit          3D

 94103  0  0  1  0  0  0  0  0999 V2000
  -27.8790  -22.9390   20.7610 C   0  0  0  0  0  3  0  0  0  0  0  0
  -29.9340  -23.6820   19.7970 C   0  0  0  0  0  3  0  0  0  0  0  0
  -28.7340  -24.0290   20.4670 C   0  0  0  0  0  0  0  0  0  0  0  0
  -28.1680  -21.5880   20.4070 C   0  0  0  0  0  0  0  0  0  0  0  0
  -30.2460  -22.3290   19.4200 C   0  0  0  0  0  0  0  0  0  0  0  0
  -29.3530  -21.2300   19.6850 C   0  0  0  0  0  0  0  0  0  0  0  0
  -27.1480  -20.5390   20.8420 C   0  0  0  0  0  1  0  0  0  0  0  0
  -31.5830  -22.1260   18.7220 C   0  0  0  0  0  1  0  0  0  0  0  0
  -29.6000  -19.8410   17.5340 C   0  0  0  0  0  1  0  0  0  0  0  0
  -29.5110  -19.7590   19.0730 C   0  0  0  0  0  3  0  0  0  0  0  0
  -31.4180  -15.0290   19.9430 C   0  0  0  0  0  0  0  0  0  0  0  0
  -31.0870  -12.7600   18.9870 C   0  0  0  0  0  2  0  0  0  0  0  0
  -30.1220  -12.8530   17.7870 C   0  0  0  0  0  2  0  0  0  0  0  0
  -28.6640  -12.7280   18.2680 C   0  0  0  0  0  2  0  0  0  0  0  0
  -28.3490  -13.6620   19.4670 C   0  0  0  0  0  3  0  0  0  0  0  0
  -29.4350  -13.5720   20.5640 C   0  0  0  0  0  2  0  0  0  0  0  0
  -30.7290  -13.8450   19.9240 N   0  0  0  0  0  0  0  0  0  0  0  0
  -32.5790  -15.0880   19.5290 O   0  0  0  0  0  0  0  0  0  0  0  0
  -31.1940  -17.0440   21.3540 C   0  0  0  0  0  2  0  0  0  0  0  0
  -30.2940  -17.1650   19.2020 C   0  0  0  0  0  2  0  0  0  0  0  0
  -30.6140  -18.4700   21.1640 C   0  0  0  0  0  3  0  0  0  0  0  0
  -30.5400  -18.6650   19.6470 C   0  0  0  0  0  3  0  0  0  0  0  0
  -31.4390  -19.5430   21.8900 C   0  0  0  0  0  1  0  0  0  0  0  0
  -30.7360  -16.1900   20.2460 N   0  0  0  0  0  0  0  0  0  0  0  0
  -26.0030  -14.3320   20.2660 C   0  0  0  0  0  0  0  0  0  0  0  0
  -24.9220  -13.5870   20.6580 C   0  0  0  0  0  0  0  0  0  0  0  0
  -25.3380  -12.2220   20.6000 C   0  0  0  0  0  0  0  0  0  0  0  0
  -27.0100  -13.4200   19.9950 N   0  0  0  0  0  0  0  0  0  0  0  0
  -26.6160  -12.1450   20.2520 N   0  0  0  0  0  0  0  0  0  0  0  0
  -24.5750  -10.9820   20.7910 C   0  0  0  0  0  0  0  0  0  0  0  0
  -24.9370  -10.0400   21.7810 C   0  0  0  0  0  3  0  0  0  0  0  0
  -24.1750   -8.8650   21.9640 C   0  0  0  0  0  3  0  0  0  0  0  0
  -23.0380   -8.6220   21.1540 C   0  0  0  0  0  0  0  0  0  0  0  0
  -22.6980   -9.5530   20.1560 C   0  0  0  0  0  3  0  0  0  0  0  0
  -23.4600  -10.7190   19.9720 C   0  0  0  0  0  3  0  0  0  0  0  0
  -22.2550   -7.4950   21.2410 O   0  0  0  0  0  0  0  0  0  0  0  0
  -22.0330   -6.8630   22.4390 C   0  0  0  0  0  0  0  0  0  0  0  0
  -21.4330   -7.5270   23.5320 C   0  0  0  0  0  3  0  0  0  0  0  0
  -21.1610   -6.8230   24.7220 C   0  0  0  0  0  3  0  0  0  0  0  0
  -21.4770   -5.4540   24.8170 C   0  0  0  0  0  0  0  0  0  0  0  0
  -22.0700   -4.7900   23.7300 C   0  0  0  0  0  3  0  0  0  0  0  0
  -22.3460   -5.4920   22.5440 C   0  0  0  0  0  0  0  0  0  0  0  0
  -22.8990   -4.8420   21.4910 F   0  0  0  0  0  0  0  0  0  0  0  0
  -21.2090   -4.7770   25.9580 F   0  0  0  0  0  0  0  0  0  0  0  0
  -23.5510  -14.1060   20.9770 C   0  0  0  0  0  0  0  0  0  0  0  0
  -22.8350  -13.4300   21.8710 N   0  0  0  0  0  0  0  0  0  0  0  0
  -23.1240  -15.1420   20.4690 O   0  0  0  0  0  0  0  0  0  0  0  0
  -23.1940  -12.5880   22.2950 H   0  0  0  0  0  0  0  0  0  0  0  0
  -21.9130  -13.7540   22.1260 H   0  0  0  0  0  0  0  0  0  0  0  0
  -26.2030  -15.6970   20.0910 N   0  0  0  0  0  0  0  0  0  0  0  0
  -25.4630  -16.3760   20.2210 H   0  0  0  0  0  0  0  0  0  0  0  0
  -27.0600  -16.1080   19.7420 H   0  0  0  0  0  0  0  0  0  0  0  0
  -28.4170  -25.4460   21.0930 C   0  0  0  0  0  2  0  0  0  0  0  0
  -28.5750  -26.7160   20.3620 O   0  0  0  0  0  0  0  0  0  0  0  0
  -24.6080  -32.0010   23.3250 C   0  0  0  0  0  0  0  0  0  0  0  0
  -27.4490  -27.5450   20.3370 C   0  0  0  0  0  0  0  0  0  0  0  0
  -23.4980  -30.5690   21.6440 C   0  0  0  0  0  3  0  0  0  0  0  0
  -25.0380  -29.0610   20.2650 C   0  0  0  0  0  0  0  0  0  0  0  0
  -26.0260  -30.9730   21.5340 C   0  0  0  0  0  2  0  0  0  0  0  0
  -26.1710  -29.5940   20.8970 C   0  0  0  0  0  0  0  0  0  0  0  0
  -27.3850  -28.8440   20.9250 C   0  0  0  0  0  3  0  0  0  0  0  0
  -26.3000  -27.0570   19.6850 C   0  0  0  0  0  3  0  0  0  0  0  0
  -25.1040  -27.7980   19.6520 C   0  0  0  0  0  3  0  0  0  0  0  0
  -23.7750  -29.8980   20.2740 C   0  0  0  0  0  2  0  0  0  0  0  0
  -24.7290  -31.1970   22.2270 N   0  0  0  0  0  0  0  0  0  0  0  0
  -23.5010  -32.2510   23.8220 O   0  0  0  0  0  0  0  0  0  0  0  0
  -22.8350  -29.5340   22.5830 C   0  0  0  0  0  0  0  0  0  0  0  0
  -21.5170  -29.3330   22.4220 N   0  0  0  0  0  0  0  0  0  0  0  0
  -23.5060  -28.9140   23.4120 O   0  0  0  0  0  0  0  0  0  0  0  0
  -21.0360  -29.8890   21.7310 H   0  0  0  0  0  0  0  0  0  0  0  0
  -18.1440  -28.1000   22.8580 C   0  0  0  0  0  0  0  0  0  0  0  0
  -20.6950  -28.3740   23.1620 C   0  0  0  0  0  3  0  0  0  0  0  0
  -20.8140  -26.9570   22.5560 C   0  0  0  0  0  2  0  0  0  0  0  0
  -19.7260  -26.6460   21.5210 C   0  0  0  0  0  2  0  0  0  0  0  0
  -18.3370  -26.7660   22.1570 C   0  0  0  0  0  2  0  0  0  0  0  0
  -19.2500  -28.8620   23.3140 C   0  0  0  0  0  0  0  0  0  0  0  0
  -19.0170  -30.1100   23.9290 C   0  0  0  0  0  3  0  0  0  0  0  0
  -17.7070  -30.6000   24.0900 C   0  0  0  0  0  3  0  0  0  0  0  0
  -16.6130  -29.8350   23.6480 C   0  0  0  0  0  3  0  0  0  0  0  0
  -16.8340  -28.5860   23.0410 C   0  0  0  0  0  3  0  0  0  0  0  0
  -25.8540  -32.6630   23.9920 C   0  0  0  0  0  3  0  0  0  0  0  0
  -25.5100  -34.0630   24.2800 N   0  0  0  0  0  0  0  0  0  0  0  0
  -25.8540  -35.1040   23.5100 C   0  0  0  0  0  0  0  0  0  0  0  0
  -26.5660  -34.9890   22.5100 O   0  0  0  0  0  0  0  0  0  0  0  0
  -24.8780  -34.2240   25.0500 H   0  0  0  0  0  0  0  0  0  0  0  0
  -24.1100  -36.8580   23.0470 C   0  0  0  0  0  1  0  0  0  0  0  0
  -25.3250  -36.4940   23.9160 C   0  0  0  0  0  3  0  0  0  0  0  0
  -27.4090  -37.4350   24.8100 C   0  0  0  0  0  1  0  0  0  0  0  0
  -26.3430  -37.5620   23.8210 N   0  0  0  0  0  0  0  0  0  0  0  0
  -25.9150  -38.4770   23.9310 H   0  0  0  0  0  0  0  0  0  0  0  0
  -26.3240  -31.9220   25.3050 C   0  0  1  0  0  0  0  0  0  0  0  0
  -25.1800  -31.6530   26.3120 C   0  0  0  0  0  1  0  0  0  0  0  0
  -26.9760  -30.5640   24.9570 C   0  0  0  0  0  1  0  0  0  0  0  0
  -27.4140  -32.7600   26.0160 C   0  0  0  0  0  1  0  0  0  0  0  0
  2  3  2  0
  3  1  1  0
  3 53  1  0
  4  1  2  0
  4  7  1  0
  5  6  2  0
  5  2  1  0
  6  4  1  0
  8  5  1  0
 10  9  1  0
 10  6  1  0
 11 24  1  0
 12 17  1  0
 13 14  1  0
 13 12  1  0
 15 14  1  0
 15 28  1  0
 15 16  1  0
 17 11  1  0
 17 16  1  0
 18 11  2  0
 20 22  1  0
 20 24  1  0
 21 19  1  0
 21 23  1  0
 22 10  1  0
 22 21  1  0
 24 19  1  0
 25 26  2  0
 26 45  1  0
 27 26  1  0
 27 30  1  0
 28 29  1  0
 28 25  1  0
 29 27  2  0
 30 31  1  0
 31 32  2  0
 33 36  1  0
 33 32  1  0
 34 33  2  0
 35 34  1  0
 35 30  2  0
 36 37  1  0
 37 42  2  0
 37 38  1  0
 38 39  2  0
 39 40  1  0
 40 44  1  0
 41 40  2  0
 42 41  1  0
 43 42  1  0
 45 46  1  0
 46 49  1  0
 46 48  1  0
 47 45  2  0
 50 51  1  0
 50 25  1  0
 52 50  1  0
 54 53  1  0
 55 66  2  0
 56 54  1  0
 56 61  1  0
 57 65  1  0
 57 67  1  0
 58 64  1  0
 58 60  1  0
 59 65  1  0
 60 61  2  0
 60 59  1  0
 62 56  2  0
 63 62  1  0
 63 58  2  0
 64 57  1  0
 65 55  1  0
 67 69  2  0
 68 67  1  0
 70 68  1  0
 71 80  2  0
 71 76  1  0
 72 68  1  0
 72 76  1  0
 73 72  1  0
 74 75  1  0
 74 73  1  0
 75 71  1  0
 76 77  2  0
 77 78  1  0
 79 78  2  0
 80 79  1  0
 81 55  1  0
 81 82  1  0
 81 91  1  0
 82 85  1  0
 83 87  1  0
 83 82  1  0
 84 83  2  0
 87 86  1  0
 89 87  1  0
 89 90  1  0
 89 88  1  0
 91 94  1  1
 91 92  1  0
 93 91  1  0
M  ISO  4  11 100  24 100  53 101  54 101
M  END
>  <TORSDO>  (52) 
F 18

>  <SCORE>  (52) 
-12.826

>  <name>  (52) 
51

>  <ligand_id>  (52) 
51

>  <original_smiles>  (52) 
[H]c1c([H])c([H])c2c(c1[H])C([H])([H])C([H])([H])C([H])([H])C2([H])N([H])C(=O)C1([H])N(C(=O)C([H])(N([H])C(=O)C([H])(N([H])C([H])([H])[H])C([H])([H])[H])C(C([H])([H])[H])(C([H])([H])[H])C([H])([H])[H])C([H])([H])c2c([H])c(OC([H])([H])c3c([H])c(C([H])([H])[H])c(C([H])(C([H])([H])[H])C4([H])C([H])([H])N(C(=O)N5C([H])([H])C([H])([H])C([H])([H])C([H])(n6nc(-c7c([H])c([H])c(Oc8c([H])c([H])c(F)c([H])c8F)c([H])c7[H])c(C(=O)N([H])[H])c6N([H])[H])C5([H])[H])C([H])([H])C4([H])C([H])([H])[H])c(C([H])([H])[H])c3[H])c([H])c([H])c2C1([H])[H]

>  <smiles>  (52) 
[H]c1c([H])c([H])c2c(c1[H])C([H])([H])C([H])([H])C([H])([H])C2([H])N([H])C(=O)C1([H])N(C(=O)C([H])(N([H])C(=O)C([H])(N([H])C([H])([H])[H])C([H])([H])[H])C(C([H])([H])[H])(C([H])([H])[H])C([H])([H])[H])C([H])([H])c2c([H])c(OC([H])([H])c3c([H])c(C([H])([H])[H])c(C([H])(C([H])([H])[H])C4([H])C([H])([H])N(C(=O)N5C([H])([H])C([H])([H])C([H])([H])C([H])(n6nc(-c7c([H])c([H])c(Oc8c([H])c([H])c(F)c([H])c8F)c([H])c7[H])c(C(=O)N([H])[H])c6N([H])[H])C5([H])[H])C([H])([H])C4([H])C([H])([H])[H])c(C([H])([H])[H])c3[H])c([H])c([H])c2C1([H])[H]

$$$$
52:0:0
     RDKit          3D

 91100  0  0  1  0  0  0  0  0999 V2000
  -29.9240  -23.2550   20.5070 C   0  0  0  0  0  3  0  0  0  0  0  0
  -27.9340  -22.5830   19.4260 C   0  0  0  0  0  3  0  0  0  0  0  0
  -28.7420  -23.6790   19.8540 C   0  0  0  0  0  0  0  0  0  0  0  0
  -30.2500  -21.8620   20.6530 C   0  0  0  0  0  0  0  0  0  0  0  0
  -29.3960  -20.8290   20.1440 C   0  0  0  0  0  0  0  0  0  0  0  0
  -31.5670  -21.5180   21.3320 C   0  0  0  0  0  1  0  0  0  0  0  0
  -28.2310  -21.2410   19.5670 N   0  0  0  0  0  0  0  0  0  0  0  0
  -30.6630  -14.8090   19.9530 C   0  0  0  0  0  0  0  0  0  0  0  0
  -30.3380  -12.5450   18.9410 C   0  0  0  0  0  2  0  0  0  0  0  0
  -29.3300  -12.6130   17.7770 C   0  0  0  0  0  2  0  0  0  0  0  0
  -27.8950  -12.4320   18.3050 C   0  0  0  0  0  2  0  0  0  0  0  0
  -27.5970  -13.3190   19.5430 C   0  0  0  0  0  3  0  0  0  0  0  0
  -28.7270  -13.2620   20.5920 C   0  0  0  0  0  2  0  0  0  0  0  0
  -29.9690  -13.6180   19.8980 N   0  0  0  0  0  0  0  0  0  0  0  0
  -31.8480  -14.7990   19.6030 O   0  0  0  0  0  0  0  0  0  0  0  0
  -29.1050  -18.2730   21.1710 C   0  0  0  0  0  2  0  0  0  0  0  0
  -29.6930  -18.4600   18.8420 C   0  0  0  0  0  2  0  0  0  0  0  0
  -29.7250  -16.7960   21.2340 C   0  0  0  0  0  2  0  0  0  0  0  0
  -30.3710  -17.0280   18.8890 C   0  0  0  0  0  2  0  0  0  0  0  0
  -29.7830  -19.2560   20.1670 C   0  0  0  0  0  3  0  0  0  0  0  0
  -29.9840  -16.0450   19.9610 N   0  0  0  0  0  0  0  0  0  0  0  0
  -25.2740  -13.8900   20.4620 C   0  0  0  0  0  0  0  0  0  0  0  0
  -24.2310  -13.1090   20.8770 C   0  0  0  0  0  0  0  0  0  0  0  0
  -24.6830  -11.7570   20.7740 C   0  0  0  0  0  0  0  0  0  0  0  0
  -26.2920  -13.0150   20.1250 N   0  0  0  0  0  0  0  0  0  0  0  0
  -25.9490  -11.7250   20.3760 N   0  0  0  0  0  0  0  0  0  0  0  0
  -23.9620  -10.4930   20.9730 C   0  0  0  0  0  0  0  0  0  0  0  0
  -24.4280   -9.5100   21.8730 C   0  0  0  0  0  3  0  0  0  0  0  0
  -23.7050   -8.3110   22.0620 C   0  0  0  0  0  3  0  0  0  0  0  0
  -22.5040   -8.0870   21.3500 C   0  0  0  0  0  0  0  0  0  0  0  0
  -22.0570   -9.0590   20.4360 C   0  0  0  0  0  3  0  0  0  0  0  0
  -22.7790  -10.2470   20.2460 C   0  0  0  0  0  3  0  0  0  0  0  0
  -21.7500   -6.9410   21.4490 O   0  0  0  0  0  0  0  0  0  0  0  0
  -21.7130   -6.2030   22.6050 C   0  0  0  0  0  0  0  0  0  0  0  0
  -21.2920   -6.7600   23.8320 C   0  0  0  0  0  3  0  0  0  0  0  0
  -21.2010   -5.9480   24.9790 C   0  0  0  0  0  3  0  0  0  0  0  0
  -21.5210   -4.5790   24.9020 C   0  0  0  0  0  0  0  0  0  0  0  0
  -21.9360   -4.0210   23.6800 C   0  0  0  0  0  3  0  0  0  0  0  0
  -22.0290   -4.8300   22.5340 C   0  0  0  0  0  0  0  0  0  0  0  0
  -22.4070   -4.2840   21.3540 F   0  0  0  0  0  0  0  0  0  0  0  0
  -21.4260   -3.7960   26.0030 F   0  0  0  0  0  0  0  0  0  0  0  0
  -22.8570  -13.5830   21.2550 C   0  0  0  0  0  0  0  0  0  0  0  0
  -22.1860  -12.8660   22.1480 N   0  0  0  0  0  0  0  0  0  0  0  0
  -22.3930  -14.6250   20.7950 O   0  0  0  0  0  0  0  0  0  0  0  0
  -22.5760  -12.0230   22.5430 H   0  0  0  0  0  0  0  0  0  0  0  0
  -21.2670  -13.1650   22.4430 H   0  0  0  0  0  0  0  0  0  0  0  0
  -25.4370  -15.2660   20.3200 N   0  0  0  0  0  0  0  0  0  0  0  0
  -24.6880  -15.9210   20.5130 H   0  0  0  0  0  0  0  0  0  0  0  0
  -26.2780  -15.7120   19.9750 H   0  0  0  0  0  0  0  0  0  0  0  0
  -28.4800  -25.1830   19.3570 C   0  0  0  0  0  2  0  0  0  0  0  0
  -28.3390  -26.3950   20.2380 O   0  0  0  0  0  0  0  0  0  0  0  0
  -24.6310  -31.8840   23.2460 C   0  0  0  0  0  0  0  0  0  0  0  0
  -27.2330  -27.2840   20.1620 C   0  0  0  0  0  0  0  0  0  0  0  0
  -23.4280  -30.4900   21.6070 C   0  0  0  0  0  3  0  0  0  0  0  0
  -24.8770  -28.9450   20.1680 C   0  0  0  0  0  0  0  0  0  0  0  0
  -25.9740  -30.7940   21.4230 C   0  0  0  0  0  2  0  0  0  0  0  0
  -26.0510  -29.4140   20.7670 C   0  0  0  0  0  0  0  0  0  0  0  0
  -27.2280  -28.5950   20.7560 C   0  0  0  0  0  3  0  0  0  0  0  0
  -26.0200  -26.8790   19.5560 C   0  0  0  0  0  3  0  0  0  0  0  0
  -24.8670  -27.6850   19.5550 C   0  0  0  0  0  3  0  0  0  0  0  0
  -23.6420  -29.8230   20.2230 C   0  0  0  0  0  2  0  0  0  0  0  0
  -24.6980  -31.0750   22.1480 N   0  0  0  0  0  0  0  0  0  0  0  0
  -23.5480  -32.1600   23.7810 O   0  0  0  0  0  0  0  0  0  0  0  0
  -22.7670  -29.4690   22.5650 C   0  0  0  0  0  0  0  0  0  0  0  0
  -21.4400  -29.2930   22.4420 N   0  0  0  0  0  0  0  0  0  0  0  0
  -23.4470  -28.8410   23.3790 O   0  0  0  0  0  0  0  0  0  0  0  0
  -20.9490  -29.8520   21.7580 H   0  0  0  0  0  0  0  0  0  0  0  0
  -18.0640  -28.0880   22.9450 C   0  0  0  0  0  0  0  0  0  0  0  0
  -20.6230  -28.3520   23.2120 C   0  0  0  0  0  3  0  0  0  0  0  0
  -20.7260  -26.9210   22.6350 C   0  0  0  0  0  2  0  0  0  0  0  0
  -19.6230  -26.5980   21.6210 C   0  0  0  0  0  2  0  0  0  0  0  0
  -18.2430  -26.7390   22.2680 C   0  0  0  0  0  2  0  0  0  0  0  0
  -19.1820  -28.8520   23.3750 C   0  0  0  0  0  0  0  0  0  0  0  0
  -18.9610  -30.1130   23.9700 C   0  0  0  0  0  3  0  0  0  0  0  0
  -17.6550  -30.6110   24.1390 C   0  0  0  0  0  3  0  0  0  0  0  0
  -16.5520  -29.8430   23.7250 C   0  0  0  0  0  3  0  0  0  0  0  0
  -16.7570  -28.5840   23.1340 C   0  0  0  0  0  3  0  0  0  0  0  0
  -25.9120  -32.5200   23.8680 C   0  0  0  0  0  3  0  0  0  0  0  0
  -25.5970  -33.9170   24.2040 N   0  0  0  0  0  0  0  0  0  0  0  0
  -25.9130  -34.9730   23.4440 C   0  0  0  0  0  0  0  0  0  0  0  0
  -26.5690  -34.8750   22.4030 O   0  0  0  0  0  0  0  0  0  0  0  0
  -25.0120  -34.0660   25.0130 H   0  0  0  0  0  0  0  0  0  0  0  0
  -24.1650  -36.7550   23.1260 C   0  0  0  0  0  1  0  0  0  0  0  0
  -25.4260  -36.3590   23.9110 C   0  0  0  0  0  3  0  0  0  0  0  0
  -27.5690  -37.2620   24.7000 C   0  0  0  0  0  1  0  0  0  0  0  0
  -26.4480  -37.4200   23.7770 N   0  0  0  0  0  0  0  0  0  0  0  0
  -26.0370  -38.3370   23.9300 H   0  0  0  0  0  0  0  0  0  0  0  0
  -26.4310  -31.7470   25.1430 C   0  0  1  0  0  0  0  0  0  0  0  0
  -25.3380  -31.5060   26.2110 C   0  0  0  0  0  1  0  0  0  0  0  0
  -27.0160  -30.3720   24.7500 C   0  0  0  0  0  1  0  0  0  0  0  0
  -27.5790  -32.5430   25.8060 C   0  0  0  0  0  1  0  0  0  0  0  0
  1  4  1  0
  2  7  2  0
  2  3  1  0
  3  1  2  0
  4  6  1  0
  5  4  2  0
  7  5  1  0
  8 21  1  0
  9 14  1  0
 10 11  1  0
 10  9  1  0
 12 11  1  0
 12 25  1  0
 12 13  1  0
 14  8  1  0
 14 13  1  0
 15  8  2  0
 16 18  1  0
 17 19  1  0
 17 20  1  0
 19 21  1  0
 20  5  1  0
 20 16  1  0
 21 18  1  0
 22 23  2  0
 23 42  1  0
 24 23  1  0
 24 27  1  0
 25 26  1  0
 25 22  1  0
 26 24  2  0
 27 28  1  0
 28 29  2  0
 30 33  1  0
 30 29  1  0
 31 30  2  0
 32 31  1  0
 32 27  2  0
 33 34  1  0
 34 35  1  0
 35 36  2  0
 37 36  1  0
 37 41  1  0
 38 37  2  0
 39 34  2  0
 39 38  1  0
 40 39  1  0
 42 43  1  0
 43 46  1  0
 43 45  1  0
 44 42  2  0
 47 22  1  0
 47 48  1  0
 49 47  1  0
 50  3  1  0
 50 51  1  0
 52 63  2  0
 53 51  1  0
 53 58  1  0
 54 62  1  0
 54 64  1  0
 55 61  1  0
 55 57  1  0
 56 62  1  0
 57 56  1  0
 58 57  2  0
 59 53  2  0
 60 59  1  0
 60 55  2  0
 61 54  1  0
 62 52  1  0
 64 66  2  0
 65 64  1  0
 67 65  1  0
 68 77  2  0
 68 73  1  0
 69 65  1  0
 69 73  1  0
 70 69  1  0
 71 72  1  0
 71 70  1  0
 72 68  1  0
 73 74  2  0
 74 75  1  0
 76 75  2  0
 77 76  1  0
 78 52  1  0
 78 79  1  0
 78 88  1  0
 79 82  1  0
 80 84  1  0
 80 79  1  0
 81 80  2  0
 84 83  1  0
 86 84  1  0
 86 87  1  0
 86 85  1  0
 88 91  1  1
 88 89  1  0
 90 88  1  0
M  ISO  4   8 100  21 100  50 101  51 101
M  END
>  <TORSDO>  (53) 
F 17

>  <SCORE>  (53) 
-14.912

>  <name>  (53) 
52

>  <ligand_id>  (53) 
52

>  <original_smiles>  (53) 
[H]c1nc(C2([H])C([H])([H])C([H])([H])N(C(=O)N3C([H])([H])C([H])([H])C([H])([H])C([H])(n4nc(-c5c([H])c([H])c(Oc6c([H])c([H])c(F)c([H])c6F)c([H])c5[H])c(C(=O)N([H])[H])c4N([H])[H])C3([H])[H])C([H])([H])C2([H])[H])c(C([H])([H])[H])c([H])c1C([H])([H])Oc1c([H])c([H])c2c(c1[H])C([H])([H])N(C(=O)C([H])(N([H])C(=O)C([H])(N([H])C([H])([H])[H])C([H])([H])[H])C(C([H])([H])[H])(C([H])([H])[H])C([H])([H])[H])C([H])(C(=O)N([H])C1([H])c3c([H])c([H])c([H])c([H])c3C([H])([H])C([H])([H])C1([H])[H])C2([H])[H]

>  <smiles>  (53) 
[H]c1nc(C2([H])C([H])([H])C([H])([H])N(C(=O)N3C([H])([H])C([H])([H])C([H])([H])C([H])(n4nc(-c5c([H])c([H])c(Oc6c([H])c([H])c(F)c([H])c6F)c([H])c5[H])c(C(=O)N([H])[H])c4N([H])[H])C3([H])[H])C([H])([H])C2([H])[H])c(C([H])([H])[H])c([H])c1C([H])([H])Oc1c([H])c([H])c2c(c1[H])C([H])([H])N(C(=O)C([H])(N([H])C(=O)C([H])(N([H])C([H])([H])[H])C([H])([H])[H])C(C([H])([H])[H])(C([H])([H])[H])C([H])([H])[H])C([H])(C(=O)N([H])C1([H])c3c([H])c([H])c([H])c([H])c3C([H])([H])C([H])([H])C1([H])[H])C2([H])[H]

$$$$
53:0:0
     RDKit          3D

 94103  0  0  1  0  0  0  0  0999 V2000
  -29.5950  -20.3280   18.7520 C   0  0  0  0  0  2  0  0  0  0  0  0
  -28.9270  -21.6830   18.4020 C   0  0  0  0  0  2  0  0  0  0  0  0
  -28.8350  -19.8270   19.9900 C   0  0  0  0  0  3  0  0  0  0  0  0
  -28.7490  -22.3830   19.7550 C   0  0  0  0  0  3  0  0  0  0  0  0
  -28.3880  -21.1650   20.5290 O   0  0  0  0  0  0  0  0  0  0  0  0
  -30.0090  -19.5670   22.1560 C   0  0  0  0  0  3  0  0  0  0  0  0
  -30.6720  -16.9400   22.1540 C   0  0  0  0  0  3  0  0  0  0  0  0
  -29.6040  -18.8450   21.0030 C   0  0  0  0  0  0  0  0  0  0  0  0
  -29.9190  -17.3780   21.0270 C   0  0  0  0  0  0  0  0  0  0  0  0
  -30.6350  -18.9530   23.2440 C   0  0  0  0  0  0  0  0  0  0  0  0
  -30.8530  -19.6830   24.5540 C   0  0  0  0  0  1  0  0  0  0  0  0
  -31.0030  -17.6700   23.2270 N   0  0  0  0  0  0  0  0  0  0  0  0
  -30.2470  -15.0470   19.9370 C   0  0  0  0  0  0  0  0  0  0  0  0
  -30.0720  -12.7600   18.9260 C   0  0  0  0  0  2  0  0  0  0  0  0
  -29.0360  -12.7190   17.7820 C   0  0  0  0  0  2  0  0  0  0  0  0
  -27.6200  -12.4680   18.3330 C   0  0  0  0  0  2  0  0  0  0  0  0
  -27.2870  -13.3650   19.5540 C   0  0  0  0  0  3  0  0  0  0  0  0
  -28.4290  -13.3920   20.5860 C   0  0  0  0  0  2  0  0  0  0  0  0
  -29.6380  -13.8130   19.8710 N   0  0  0  0  0  0  0  0  0  0  0  0
  -31.4190  -15.1490   19.5640 O   0  0  0  0  0  0  0  0  0  0  0  0
  -29.5020  -16.2080   20.1940 N   0  0  0  0  0  0  0  0  0  0  0  0
  -28.5050  -16.1140   20.0520 H   0  0  0  0  0  0  0  0  0  0  0  0
  -24.9790  -13.8530   20.5510 C   0  0  0  0  0  0  0  0  0  0  0  0
  -23.9750  -13.0300   20.9910 C   0  0  0  0  0  0  0  0  0  0  0  0
  -24.4650  -11.6980   20.8460 C   0  0  0  0  0  0  0  0  0  0  0  0
  -26.0110  -13.0130   20.1670 N   0  0  0  0  0  0  0  0  0  0  0  0
  -25.7190  -11.7090   20.4090 N   0  0  0  0  0  0  0  0  0  0  0  0
  -23.7900  -10.4050   21.0400 C   0  0  0  0  0  0  0  0  0  0  0  0
  -24.2970   -9.4310   21.9290 C   0  0  0  0  0  3  0  0  0  0  0  0
  -23.6180   -8.2060   22.1090 C   0  0  0  0  0  3  0  0  0  0  0  0
  -22.4180   -7.9490   21.4020 C   0  0  0  0  0  0  0  0  0  0  0  0
  -21.9330   -8.9130   20.5010 C   0  0  0  0  0  3  0  0  0  0  0  0
  -22.6130  -10.1290   20.3180 C   0  0  0  0  0  3  0  0  0  0  0  0
  -21.7030   -6.7800   21.4990 O   0  0  0  0  0  0  0  0  0  0  0  0
  -21.6930   -6.0320   22.6500 C   0  0  0  0  0  0  0  0  0  0  0  0
  -21.2260   -6.5550   23.8770 C   0  0  0  0  0  3  0  0  0  0  0  0
  -21.1740   -5.7300   25.0180 C   0  0  0  0  0  3  0  0  0  0  0  0
  -21.5760   -4.3830   24.9340 C   0  0  0  0  0  0  0  0  0  0  0  0
  -22.0370   -3.8610   23.7120 C   0  0  0  0  0  3  0  0  0  0  0  0
  -22.0940   -4.6830   22.5730 C   0  0  0  0  0  0  0  0  0  0  0  0
  -22.5180   -4.1670   21.3950 F   0  0  0  0  0  0  0  0  0  0  0  0
  -21.5210   -3.5900   26.0300 F   0  0  0  0  0  0  0  0  0  0  0  0
  -22.6000  -13.4570   21.4150 C   0  0  0  0  0  0  0  0  0  0  0  0
  -21.9690  -12.7020   22.3090 N   0  0  0  0  0  0  0  0  0  0  0  0
  -22.0900  -14.4900   20.9860 O   0  0  0  0  0  0  0  0  0  0  0  0
  -22.3880  -11.8640   22.6830 H   0  0  0  0  0  0  0  0  0  0  0  0
  -21.0480  -12.9690   22.6290 H   0  0  0  0  0  0  0  0  0  0  0  0
  -25.0970  -15.2330   20.4270 N   0  0  0  0  0  0  0  0  0  0  0  0
  -24.3310  -15.8680   20.6210 H   0  0  0  0  0  0  0  0  0  0  0  0
  -25.9100  -15.7050   20.0520 H   0  0  0  0  0  0  0  0  0  0  0  0
  -26.4280  -23.3700   19.3050 C   0  0  0  0  0  1  0  0  0  0  0  0
  -27.8210  -23.7460   19.8340 C   0  0  0  0  0  3  0  0  0  0  0  0
  -28.2810  -25.1760   19.1580 C   0  0  0  0  0  2  0  0  0  0  0  0
  -28.2320  -26.5640   19.7800 O   0  0  0  0  0  0  0  0  0  0  0  0
  -24.6820  -31.8350   23.2940 C   0  0  0  0  0  0  0  0  0  0  0  0
  -27.1340  -27.4630   19.7800 C   0  0  0  0  0  0  0  0  0  0  0  0
  -23.4150  -30.5920   21.5750 C   0  0  0  0  0  3  0  0  0  0  0  0
  -24.8030  -29.1510   19.9650 C   0  0  0  0  0  0  0  0  0  0  0  0
  -25.9570  -30.8790   21.3490 C   0  0  0  0  0  2  0  0  0  0  0  0
  -25.9950  -29.5570   20.5780 C   0  0  0  0  0  0  0  0  0  0  0  0
  -27.1570  -28.7250   20.4750 C   0  0  0  0  0  3  0  0  0  0  0  0
  -25.9200  -27.1320   19.1410 C   0  0  0  0  0  3  0  0  0  0  0  0
  -24.7750  -27.9520   19.2310 C   0  0  0  0  0  3  0  0  0  0  0  0
  -23.5750  -30.0290   20.1340 C   0  0  0  0  0  2  0  0  0  0  0  0
  -24.7060  -31.1170   22.1290 N   0  0  0  0  0  0  0  0  0  0  0  0
  -23.6150  -32.0780   23.8790 O   0  0  0  0  0  0  0  0  0  0  0  0
  -22.7660  -29.5090   22.4710 C   0  0  0  0  0  0  0  0  0  0  0  0
  -21.4410  -29.3290   22.3410 N   0  0  0  0  0  0  0  0  0  0  0  0
  -23.4590  -28.8320   23.2370 O   0  0  0  0  0  0  0  0  0  0  0  0
  -20.9450  -29.9340   21.7030 H   0  0  0  0  0  0  0  0  0  0  0  0
  -18.0820  -28.0450   22.7640 C   0  0  0  0  0  0  0  0  0  0  0  0
  -20.6370  -28.3260   23.0440 C   0  0  0  0  0  3  0  0  0  0  0  0
  -20.7550  -26.9380   22.3720 C   0  0  0  0  0  2  0  0  0  0  0  0
  -19.6570  -26.6670   21.3390 C   0  0  0  0  0  2  0  0  0  0  0  0
  -18.2760  -26.7490   21.9960 C   0  0  0  0  0  2  0  0  0  0  0  0
  -19.1910  -28.7930   23.2410 C   0  0  0  0  0  0  0  0  0  0  0  0
  -18.9550  -30.0090   23.9200 C   0  0  0  0  0  3  0  0  0  0  0  0
  -17.6440  -30.4760   24.1260 C   0  0  0  0  0  3  0  0  0  0  0  0
  -16.5490  -29.7230   23.6660 C   0  0  0  0  0  3  0  0  0  0  0  0
  -16.7700  -28.5080   22.9900 C   0  0  0  0  0  3  0  0  0  0  0  0
  -25.9860  -32.4020   23.9370 C   0  0  0  0  0  3  0  0  0  0  0  0
  -26.5000  -31.5520   25.1660 C   0  0  1  0  0  0  0  0  0  0  0  0
  -25.4150  -31.2820   26.2350 C   0  0  0  0  0  1  0  0  0  0  0  0
  -27.0460  -30.1880   24.6930 C   0  0  0  0  0  1  0  0  0  0  0  0
  -27.6840  -32.2810   25.8460 C   0  0  0  0  0  1  0  0  0  0  0  0
  -25.7130  -33.7850   24.3540 N   0  0  0  0  0  0  0  0  0  0  0  0
  -26.0740  -34.8780   23.6670 C   0  0  0  0  0  0  0  0  0  0  0  0
  -26.7420  -34.8220   22.6320 O   0  0  0  0  0  0  0  0  0  0  0  0
  -25.1230  -33.9020   25.1660 H   0  0  0  0  0  0  0  0  0  0  0  0
  -24.4060  -36.7440   23.4270 C   0  0  0  0  0  1  0  0  0  0  0  0
  -25.6280  -36.2470   24.2170 C   0  0  0  0  0  3  0  0  0  0  0  0
  -27.7790  -37.0030   25.1260 C   0  0  0  0  0  1  0  0  0  0  0  0
  -26.6930  -37.2740   24.1870 N   0  0  0  0  0  0  0  0  0  0  0  0
  -26.3140  -38.1910   24.4020 H   0  0  0  0  0  0  0  0  0  0  0  0
  1  3  1  0
  2  1  1  0
  2  4  1  0
  3  5  1  0
  3  8  1  0
  4 52  1  0
  4  5  1  0
  6 10  1  0
  7 12  1  0
  8  9  1  0
  8  6  2  0
  9  7  2  0
 10 11  1  0
 12 10  2  0
 13 21  1  0
 14 19  1  0
 15 16  1  0
 15 14  1  0
 17 16  1  0
 17 26  1  0
 17 18  1  0
 19 13  1  0
 19 18  1  0
 20 13  2  0
 21  9  1  0
 22 21  1  0
 23 24  2  0
 24 43  1  0
 25 24  1  0
 25 28  1  0
 26 27  1  0
 26 23  1  0
 27 25  2  0
 28 29  1  0
 29 30  2  0
 31 34  1  0
 31 30  1  0
 32 31  2  0
 33 32  1  0
 33 28  2  0
 34 35  1  0
 35 36  1  0
 36 37  2  0
 38 37  1  0
 38 42  1  0
 39 38  2  0
 40 35  2  0
 40 39  1  0
 41 40  1  0
 43 44  1  0
 44 47  1  0
 44 46  1  0
 45 43  2  0
 48 23  1  0
 48 49  1  0
 50 48  1  0
 52 51  1  0
 53 54  1  0
 53 52  1  0
 54 56  1  0
 55 66  2  0
 56 61  1  0
 57 65  1  0
 57 67  1  0
 58 64  1  0
 58 60  1  0
 59 65  1  0
 60 59  1  0
 61 60  2  0
 62 63  1  0
 62 56  2  0
 63 58  2  0
 64 57  1  0
 65 55  1  0
 67 69  2  0
 68 67  1  0
 70 68  1  0
 71 80  2  0
 71 76  1  0
 72 68  1  0
 72 76  1  0
 73 72  1  0
 74 75  1  0
 74 73  1  0
 75 71  1  0
 76 77  2  0
 77 78  1  0
 79 78  2  0
 80 79  1  0
 81 55  1  0
 81 86  1  0
 81 82  1  0
 82 85  1  1
 82 83  1  0
 84 82  1  0
 86 89  1  0
 87 91  1  0
 87 86  1  0
 88 87  2  0
 91 90  1  0
 93 91  1  0
 93 94  1  0
 93 92  1  0
M  ISO  4  13 100  21 100  53 101  54 101
M  END
>  <TORSDO>  (54) 
F 19

>  <SCORE>  (54) 
-12.227

>  <name>  (54) 
53

>  <ligand_id>  (54) 
53

>  <original_smiles>  (54) 
[H]c1nc(C([H])([H])[H])c([H])c(C2([H])OC([H])(C([H])(C([H])([H])[H])C([H])([H])Oc3c([H])c([H])c4c(c3[H])C([H])([H])N(C(=O)C([H])(N([H])C(=O)C([H])(N([H])C([H])([H])[H])C([H])([H])[H])C(C([H])([H])[H])(C([H])([H])[H])C([H])([H])[H])C([H])(C(=O)N([H])C3([H])c5c([H])c([H])c([H])c([H])c5C([H])([H])C([H])([H])C3([H])[H])C4([H])[H])C([H])([H])C2([H])[H])c1N([H])C(=O)N1C([H])([H])C([H])([H])C([H])([H])C([H])(n2nc(-c3c([H])c([H])c(Oc4c([H])c([H])c(F)c([H])c4F)c([H])c3[H])c(C(=O)N([H])[H])c2N([H])[H])C1([H])[H]

>  <smiles>  (54) 
[H]c1nc(C([H])([H])[H])c([H])c(C2([H])OC([H])(C([H])(C([H])([H])[H])C([H])([H])Oc3c([H])c([H])c4c(c3[H])C([H])([H])N(C(=O)C([H])(N([H])C(=O)C([H])(N([H])C([H])([H])[H])C([H])([H])[H])C(C([H])([H])[H])(C([H])([H])[H])C([H])([H])[H])C([H])(C(=O)N([H])C3([H])c5c([H])c([H])c([H])c([H])c5C([H])([H])C([H])([H])C3([H])[H])C4([H])[H])C([H])([H])C2([H])[H])c1N([H])C(=O)N1C([H])([H])C([H])([H])C([H])([H])C([H])(n2nc(-c3c([H])c([H])c(Oc4c([H])c([H])c(F)c([H])c4F)c([H])c3[H])c(C(=O)N([H])[H])c2N([H])[H])C1([H])[H]

$$$$
54:0:0
     RDKit          3D

 94103  0  0  1  0  0  0  0  0999 V2000
  -26.8390  -21.6380   18.6330 C   0  0  0  0  0  3  0  0  0  0  0  0
  -29.2870  -22.4880   19.5590 C   0  0  0  0  0  3  0  0  0  0  0  0
  -27.1160  -23.0210   18.6120 C   0  0  0  0  0  0  0  0  0  0  0  0
  -27.7600  -20.6570   19.0520 C   0  0  0  0  0  0  0  0  0  0  0  0
  -28.3300  -23.5400   19.1590 C   0  0  0  0  0  0  0  0  0  0  0  0
  -29.0680  -21.0280   19.4670 C   0  0  0  0  0  0  0  0  0  0  0  0
  -26.0660  -23.8550   17.8840 C   0  0  0  0  0  1  0  0  0  0  0  0
  -27.2350  -19.2290   19.0850 C   0  0  0  0  0  1  0  0  0  0  0  0
  -30.0550  -20.0070   19.8440 N   0  0  0  0  0  0  0  0  0  0  0  0
  -30.9210  -20.4320   20.1720 H   0  0  0  0  0  0  0  0  0  0  0  0
  -30.3480  -18.5730   19.3380 C   0  0  0  0  0  2  0  0  0  0  0  0
  -31.0360  -14.8290   19.5380 C   0  0  0  0  0  0  0  0  0  0  0  0
  -30.6600  -12.5230   18.5900 C   0  0  0  0  0  2  0  0  0  0  0  0
  -29.6120  -12.5540   17.4540 C   0  0  0  0  0  2  0  0  0  0  0  0
  -28.1960  -12.3940   18.0320 C   0  0  0  0  0  2  0  0  0  0  0  0
  -27.9440  -13.3440   19.2340 C   0  0  0  0  0  3  0  0  0  0  0  0
  -29.1020  -13.3150   20.2610 C   0  0  0  0  0  2  0  0  0  0  0  0
  -30.3500  -13.6230   19.5470 N   0  0  0  0  0  0  0  0  0  0  0  0
  -32.0850  -14.9040   18.8870 O   0  0  0  0  0  0  0  0  0  0  0  0
  -30.6600  -17.2910   22.2970 C   0  0  0  0  0  2  0  0  0  0  0  0
  -29.3810  -17.5650   21.5220 C   0  0  0  0  0  2  0  0  0  0  0  0
  -31.1910  -16.0060   21.6620 C   0  0  0  0  0  2  0  0  0  0  0  0
  -29.7760  -17.2120   20.0790 C   0  0  0  0  0  3  0  0  0  0  0  0
  -30.6180  -15.9230   20.3090 N   0  0  0  0  0  0  0  0  0  0  0  0
  -25.6830  -14.0090   20.2440 C   0  0  0  0  0  0  0  0  0  0  0  0
  -24.6250  -13.2720   20.6990 C   0  0  0  0  0  0  0  0  0  0  0  0
  -25.0090  -11.9010   20.5630 C   0  0  0  0  0  0  0  0  0  0  0  0
  -26.6480  -13.0960   19.8590 N   0  0  0  0  0  0  0  0  0  0  0  0
  -26.2560  -11.8200   20.1100 N   0  0  0  0  0  0  0  0  0  0  0  0
  -24.2430  -10.6670   20.7910 C   0  0  0  0  0  0  0  0  0  0  0  0
  -24.6560   -9.6980   21.7310 C   0  0  0  0  0  3  0  0  0  0  0  0
  -23.8920   -8.5320   21.9410 C   0  0  0  0  0  3  0  0  0  0  0  0
  -22.6980   -8.3230   21.2090 C   0  0  0  0  0  0  0  0  0  0  0  0
  -22.2990   -9.2820   20.2590 C   0  0  0  0  0  3  0  0  0  0  0  0
  -23.0670  -10.4390   20.0480 C   0  0  0  0  0  3  0  0  0  0  0  0
  -21.9050   -7.2060   21.3280 O   0  0  0  0  0  0  0  0  0  0  0  0
  -21.7670   -6.5430   22.5210 C   0  0  0  0  0  0  0  0  0  0  0  0
  -21.2930   -7.1940   23.6820 C   0  0  0  0  0  3  0  0  0  0  0  0
  -21.1070   -6.4620   24.8710 C   0  0  0  0  0  3  0  0  0  0  0  0
  -21.3810   -5.0820   24.8990 C   0  0  0  0  0  0  0  0  0  0  0  0
  -21.8490   -4.4320   23.7450 C   0  0  0  0  0  3  0  0  0  0  0  0
  -22.0410   -5.1590   22.5580 C   0  0  0  0  0  0  0  0  0  0  0  0
  -22.4720   -4.5280   21.4400 F   0  0  0  0  0  0  0  0  0  0  0  0
  -21.1950   -4.3750   26.0400 F   0  0  0  0  0  0  0  0  0  0  0  0
  -23.2930  -13.7980   21.1520 C   0  0  0  0  0  0  0  0  0  0  0  0
  -22.6710  -13.1290   22.1150 N   0  0  0  0  0  0  0  0  0  0  0  0
  -22.8270  -14.8400   20.6920 O   0  0  0  0  0  0  0  0  0  0  0  0
  -23.0620  -12.2780   22.4970 H   0  0  0  0  0  0  0  0  0  0  0  0
  -21.7880  -13.4650   22.4720 H   0  0  0  0  0  0  0  0  0  0  0  0
  -25.9090  -15.3750   20.1060 N   0  0  0  0  0  0  0  0  0  0  0  0
  -25.2190  -16.0820   20.3330 H   0  0  0  0  0  0  0  0  0  0  0  0
  -26.7640  -15.7570   19.7250 H   0  0  0  0  0  0  0  0  0  0  0  0
  -28.6690  -25.1300   18.9820 C   0  0  0  0  0  2  0  0  0  0  0  0
  -28.3220  -26.3250   19.8590 O   0  0  0  0  0  0  0  0  0  0  0  0
  -24.5360  -31.6340   23.0820 C   0  0  0  0  0  0  0  0  0  0  0  0
  -27.2160  -27.2190   19.7810 C   0  0  0  0  0  0  0  0  0  0  0  0
  -23.3500  -30.2830   21.3920 C   0  0  0  0  0  3  0  0  0  0  0  0
  -24.8230  -28.8380   19.8640 C   0  0  0  0  0  0  0  0  0  0  0  0
  -25.8860  -30.6550   21.1990 C   0  0  0  0  0  2  0  0  0  0  0  0
  -25.9920  -29.3070   20.4760 C   0  0  0  0  0  0  0  0  0  0  0  0
  -27.1840  -28.5080   20.4280 C   0  0  0  0  0  3  0  0  0  0  0  0
  -26.0150  -26.8200   19.1730 C   0  0  0  0  0  3  0  0  0  0  0  0
  -24.8410  -27.6010   19.2040 C   0  0  0  0  0  3  0  0  0  0  0  0
  -23.5690  -29.6880   19.9750 C   0  0  0  0  0  2  0  0  0  0  0  0
  -24.6120  -30.8740   21.9480 N   0  0  0  0  0  0  0  0  0  0  0  0
  -23.4520  -31.8600   23.6400 O   0  0  0  0  0  0  0  0  0  0  0  0
  -22.7280  -29.2020   22.3110 C   0  0  0  0  0  0  0  0  0  0  0  0
  -21.4000  -29.0080   22.2100 N   0  0  0  0  0  0  0  0  0  0  0  0
  -23.4360  -28.5480   23.0810 O   0  0  0  0  0  0  0  0  0  0  0  0
  -20.8820  -29.5880   21.5660 H   0  0  0  0  0  0  0  0  0  0  0  0
  -18.0560  -27.7300   22.7510 C   0  0  0  0  0  0  0  0  0  0  0  0
  -20.6190  -28.0160   22.9530 C   0  0  0  0  0  3  0  0  0  0  0  0
  -20.7240  -26.6190   22.3010 C   0  0  0  0  0  2  0  0  0  0  0  0
  -19.5950  -26.3240   21.3080 C   0  0  0  0  0  2  0  0  0  0  0  0
  -18.2320  -26.4180   22.0000 C   0  0  0  0  0  2  0  0  0  0  0  0
  -19.1760  -28.4850   23.1860 C   0  0  0  0  0  0  0  0  0  0  0  0
  -18.9580  -29.7100   23.8570 C   0  0  0  0  0  3  0  0  0  0  0  0
  -17.6520  -30.1770   24.0930 C   0  0  0  0  0  3  0  0  0  0  0  0
  -16.5470  -29.4190   23.6690 C   0  0  0  0  0  3  0  0  0  0  0  0
  -16.7500  -28.1960   23.0050 C   0  0  0  0  0  3  0  0  0  0  0  0
  -25.8070  -32.2750   23.7140 C   0  0  0  0  0  3  0  0  0  0  0  0
  -26.3420  -31.4860   24.9700 C   0  0  1  0  0  0  0  0  0  0  0  0
  -25.2570  -31.2100   26.0350 C   0  0  0  0  0  1  0  0  0  0  0  0
  -26.9410  -30.1220   24.5550 C   0  0  0  0  0  1  0  0  0  0  0  0
  -27.4860  -32.2800   25.6390 C   0  0  0  0  0  1  0  0  0  0  0  0
  -25.4730  -33.6620   24.0730 N   0  0  0  0  0  0  0  0  0  0  0  0
  -25.7880  -34.7370   23.3410 C   0  0  0  0  0  0  0  0  0  0  0  0
  -26.4590  -34.6720   22.3060 O   0  0  0  0  0  0  0  0  0  0  0  0
  -24.8700  -33.7900   24.8720 H   0  0  0  0  0  0  0  0  0  0  0  0
  -24.0330  -36.5130   23.0230 C   0  0  0  0  0  1  0  0  0  0  0  0
  -25.2770  -36.1080   23.8290 C   0  0  0  0  0  3  0  0  0  0  0  0
  -27.3920  -37.0050   24.6990 C   0  0  0  0  0  1  0  0  0  0  0  0
  -26.2960  -37.1770   23.7480 N   0  0  0  0  0  0  0  0  0  0  0  0
  -25.8730  -38.0860   23.9120 H   0  0  0  0  0  0  0  0  0  0  0  0
  1  4  1  0
  3  1  2  0
  3  5  1  0
  4  8  1  0
  4  6  2  0
  5  2  2  0
  6  2  1  0
  6  9  1  0
  7  3  1  0
  9 10  1  0
 11  9  1  0
 12 18  1  0
 12 24  1  0
 13 18  1  0
 14 15  1  0
 14 13  1  0
 16 15  1  0
 16 28  1  0
 16 17  1  0
 18 17  1  0
 19 12  2  0
 21 20  1  0
 22 20  1  0
 23 11  1  0
 23 24  1  0
 23 21  1  0
 24 22  1  0
 25 26  2  0
 26 45  1  0
 27 26  1  0
 27 30  1  0
 28 29  1  0
 28 25  1  0
 29 27  2  0
 30 31  1  0
 31 32  2  0
 33 36  1  0
 33 32  1  0
 34 33  2  0
 35 34  1  0
 35 30  2  0
 36 37  1  0
 37 42  2  0
 37 38  1  0
 38 39  2  0
 39 40  1  0
 40 44  1  0
 41 40  2  0
 42 41  1  0
 43 42  1  0
 45 46  1  0
 46 49  1  0
 46 48  1  0
 47 45  2  0
 50 25  1  0
 50 51  1  0
 52 50  1  0
 53  5  1  0
 53 54  1  0
 55 66  2  0
 56 54  1  0
 56 61  1  0
 57 65  1  0
 57 67  1  0
 58 64  1  0
 58 60  1  0
 59 65  1  0
 60 59  1  0
 61 60  2  0
 62 63  1  0
 62 56  2  0
 63 58  2  0
 64 57  1  0
 65 55  1  0
 67 69  2  0
 68 67  1  0
 70 68  1  0
 71 80  2  0
 71 76  1  0
 72 68  1  0
 72 76  1  0
 73 72  1  0
 74 75  1  0
 74 73  1  0
 75 71  1  0
 76 77  2  0
 77 78  1  0
 79 78  2  0
 80 79  1  0
 81 55  1  0
 81 86  1  0
 81 82  1  0
 82 85  1  1
 82 83  1  0
 84 82  1  0
 86 89  1  0
 87 91  1  0
 87 86  1  0
 88 87  2  0
 91 90  1  0
 93 91  1  0
 93 94  1  0
 93 92  1  0
M  ISO  4  12 100  24 100  53 101  54 101
M  END
>  <TORSDO>  (55) 
F 19

>  <SCORE>  (55) 
-13.207

>  <name>  (55) 
54

>  <ligand_id>  (55) 
54

>  <original_smiles>  (55) 
[H]c1c([H])c([H])c2c(c1[H])C([H])([H])C([H])([H])C([H])([H])C2([H])N([H])C(=O)C1([H])N(C(=O)C([H])(N([H])C(=O)C([H])(N([H])C([H])([H])[H])C([H])([H])[H])C(C([H])([H])[H])(C([H])([H])[H])C([H])([H])[H])C([H])([H])c2c([H])c(OC([H])([H])c3c([H])c(N([H])C([H])([H])C4([H])N(C(=O)N5C([H])([H])C([H])([H])C([H])([H])C([H])(n6nc(-c7c([H])c([H])c(Oc8c([H])c([H])c(F)c([H])c8F)c([H])c7[H])c(C(=O)N([H])[H])c6N([H])[H])C5([H])[H])C([H])([H])C([H])([H])C4([H])[H])c(C([H])([H])[H])c([H])c3C([H])([H])[H])c([H])c([H])c2C1([H])[H]

>  <smiles>  (55) 
[H]c1c([H])c([H])c2c(c1[H])C([H])([H])C([H])([H])C([H])([H])C2([H])N([H])C(=O)C1([H])N(C(=O)C([H])(N([H])C(=O)C([H])(N([H])C([H])([H])[H])C([H])([H])[H])C(C([H])([H])[H])(C([H])([H])[H])C([H])([H])[H])C([H])([H])c2c([H])c(OC([H])([H])c3c([H])c(N([H])C([H])([H])C4([H])N(C(=O)N5C([H])([H])C([H])([H])C([H])([H])C([H])(n6nc(-c7c([H])c([H])c(Oc8c([H])c([H])c(F)c([H])c8F)c([H])c7[H])c(C(=O)N([H])[H])c6N([H])[H])C5([H])[H])C([H])([H])C([H])([H])C4([H])[H])c(C([H])([H])[H])c([H])c3C([H])([H])[H])c([H])c([H])c2C1([H])[H]

$$$$
55:0:0
     RDKit          3D

 95105  0  0  1  0  0  0  0  0999 V2000
  -28.3450  -21.4440   19.6820 C   0  0  0  0  0  3  0  0  0  0  0  0
  -28.0110  -22.7730   19.3150 C   0  0  0  0  0  3  0  0  0  0  0  0
  -29.2550  -21.2100   20.7410 C   0  0  0  0  0  0  0  0  0  0  0  0
  -29.7420  -22.3810   21.4000 C   0  0  0  0  0  0  0  0  0  0  0  0
  -28.5800  -23.8740   19.9980 C   0  0  0  0  0  0  0  0  0  0  0  0
  -29.4260  -23.6560   21.0320 N   0  0  0  0  0  0  0  0  0  0  0  0
  -30.5290  -21.3680   23.7020 C   0  0  0  0  0  2  0  0  0  0  0  0
  -30.3790  -22.8520   23.9090 C   0  0  0  0  0  2  0  0  0  0  0  0
  -30.7280  -22.3150   22.5350 C   0  0  0  0  0  3  0  0  0  0  0  0
  -29.6990  -19.9160   21.1550 N   0  0  0  0  0  0  0  0  0  0  0  0
  -30.4510  -19.9080   21.8390 H   0  0  0  0  0  0  0  0  0  0  0  0
  -30.5110  -14.4710   20.1030 C   0  0  0  0  0  0  0  0  0  0  0  0
  -30.2140  -12.2960   18.9560 C   0  0  0  0  0  2  0  0  0  0  0  0
  -29.1880  -12.4800   17.8190 C   0  0  0  0  0  2  0  0  0  0  0  0
  -27.7500  -12.2860   18.3440 C   0  0  0  0  0  2  0  0  0  0  0  0
  -27.4750  -13.0790   19.6510 C   0  0  0  0  0  3  0  0  0  0  0  0
  -28.6140  -12.8820   20.6750 C   0  0  0  0  0  2  0  0  0  0  0  0
  -29.8700  -13.2650   20.0150 N   0  0  0  0  0  0  0  0  0  0  0  0
  -31.6510  -14.6120   19.6460 O   0  0  0  0  0  0  0  0  0  0  0  0
  -29.4490  -17.5290   21.8600 C   0  0  0  0  0  2  0  0  0  0  0  0
  -29.9630  -18.0340   19.5010 C   0  0  0  0  0  2  0  0  0  0  0  0
  -29.0950  -16.0540   21.4860 C   0  0  0  0  0  2  0  0  0  0  0  0
  -29.5730  -16.5700   19.1320 C   0  0  0  0  0  2  0  0  0  0  0  0
  -29.2150  -18.5770   20.7380 C   0  0  0  0  0  3  0  0  0  0  0  0
  -29.7100  -15.5820   20.2290 N   0  0  0  0  0  0  0  0  0  0  0  0
  -25.1200  -13.5930   20.5380 C   0  0  0  0  0  0  0  0  0  0  0  0
  -24.1010  -12.7820   20.9610 C   0  0  0  0  0  0  0  0  0  0  0  0
  -24.5980  -11.4460   20.8700 C   0  0  0  0  0  0  0  0  0  0  0  0
  -26.1710  -12.7490   20.2180 N   0  0  0  0  0  0  0  0  0  0  0  0
  -25.8660  -11.4510   20.4750 N   0  0  0  0  0  0  0  0  0  0  0  0
  -23.9220  -10.1600   21.0790 C   0  0  0  0  0  0  0  0  0  0  0  0
  -24.3700   -9.2390   22.0520 C   0  0  0  0  0  3  0  0  0  0  0  0
  -23.6920   -8.0170   22.2470 C   0  0  0  0  0  3  0  0  0  0  0  0
  -22.5520   -7.7060   21.4700 C   0  0  0  0  0  0  0  0  0  0  0  0
  -22.1220   -8.6150   20.4890 C   0  0  0  0  0  3  0  0  0  0  0  0
  -22.8010   -9.8290   20.2910 C   0  0  0  0  0  3  0  0  0  0  0  0
  -21.8460   -6.5310   21.5730 O   0  0  0  0  0  0  0  0  0  0  0  0
  -21.7140   -5.8730   22.7690 C   0  0  0  0  0  0  0  0  0  0  0  0
  -21.1100   -6.4800   23.8920 C   0  0  0  0  0  3  0  0  0  0  0  0
  -20.9320   -5.7440   25.0800 C   0  0  0  0  0  3  0  0  0  0  0  0
  -21.3480   -4.4000   25.1460 C   0  0  0  0  0  0  0  0  0  0  0  0
  -21.9450   -3.7930   24.0270 C   0  0  0  0  0  3  0  0  0  0  0  0
  -22.1250   -4.5270   22.8420 C   0  0  0  0  0  0  0  0  0  0  0  0
  -22.6810   -3.9290   21.7610 F   0  0  0  0  0  0  0  0  0  0  0  0
  -21.1710   -3.6900   26.2840 F   0  0  0  0  0  0  0  0  0  0  0  0
  -22.7130  -13.2120   21.3350 C   0  0  0  0  0  0  0  0  0  0  0  0
  -22.0680  -12.4840   22.2400 N   0  0  0  0  0  0  0  0  0  0  0  0
  -22.2090  -14.2310   20.8610 O   0  0  0  0  0  0  0  0  0  0  0  0
  -22.4890  -11.6610   22.6440 H   0  0  0  0  0  0  0  0  0  0  0  0
  -21.1400  -12.7540   22.5330 H   0  0  0  0  0  0  0  0  0  0  0  0
  -25.2330  -14.9710   20.3790 N   0  0  0  0  0  0  0  0  0  0  0  0
  -24.4570  -15.6000   20.5510 H   0  0  0  0  0  0  0  0  0  0  0  0
  -26.0490  -15.4390   20.0050 H   0  0  0  0  0  0  0  0  0  0  0  0
  -28.4470  -25.3280   19.4470 C   0  0  0  0  0  2  0  0  0  0  0  0
  -28.2220  -26.4350   20.3750 O   0  0  0  0  0  0  0  0  0  0  0  0
  -24.5330  -31.8780   23.2310 C   0  0  0  0  0  0  0  0  0  0  0  0
  -27.0750  -27.2260   20.2990 C   0  0  0  0  0  0  0  0  0  0  0  0
  -23.3050  -30.4630   21.6210 C   0  0  0  0  0  3  0  0  0  0  0  0
  -24.7280  -28.8460   20.2470 C   0  0  0  0  0  0  0  0  0  0  0  0
  -25.8470  -30.7330   21.4390 C   0  0  0  0  0  2  0  0  0  0  0  0
  -25.9000  -29.3390   20.8340 C   0  0  0  0  0  0  0  0  0  0  0  0
  -27.0710  -28.5360   20.8560 C   0  0  0  0  0  3  0  0  0  0  0  0
  -25.8690  -26.7600   19.7220 C   0  0  0  0  0  3  0  0  0  0  0  0
  -24.7110  -27.5590   19.6910 C   0  0  0  0  0  3  0  0  0  0  0  0
  -23.5090  -29.7430   20.2610 C   0  0  0  0  0  2  0  0  0  0  0  0
  -24.5810  -31.0430   22.1540 N   0  0  0  0  0  0  0  0  0  0  0  0
  -23.4530  -32.1920   23.7530 O   0  0  0  0  0  0  0  0  0  0  0  0
  -22.6180  -29.4860   22.6030 C   0  0  0  0  0  0  0  0  0  0  0  0
  -21.2910  -29.3250   22.4640 N   0  0  0  0  0  0  0  0  0  0  0  0
  -23.2780  -28.8730   23.4480 O   0  0  0  0  0  0  0  0  0  0  0  0
  -20.8210  -29.8690   21.7550 H   0  0  0  0  0  0  0  0  0  0  0  0
  -17.8850  -28.2270   22.9720 C   0  0  0  0  0  0  0  0  0  0  0  0
  -20.4470  -28.4270   23.2530 C   0  0  0  0  0  3  0  0  0  0  0  0
  -20.5170  -26.9800   22.7130 C   0  0  0  0  0  2  0  0  0  0  0  0
  -19.4130  -26.6600   21.7000 C   0  0  0  0  0  2  0  0  0  0  0  0
  -18.0320  -26.8560   22.3310 C   0  0  0  0  0  2  0  0  0  0  0  0
  -19.0200  -28.9700   23.3910 C   0  0  0  0  0  0  0  0  0  0  0  0
  -18.8300  -30.2530   23.9490 C   0  0  0  0  0  3  0  0  0  0  0  0
  -17.5370  -30.7910   24.0930 C   0  0  0  0  0  3  0  0  0  0  0  0
  -16.4170  -30.0440   23.6920 C   0  0  0  0  0  3  0  0  0  0  0  0
  -16.5910  -28.7640   23.1370 C   0  0  0  0  0  3  0  0  0  0  0  0
  -25.8270  -32.4960   23.8440 C   0  0  0  0  0  3  0  0  0  0  0  0
  -26.3510  -31.7120   25.1100 C   0  0  1  0  0  0  0  0  0  0  0  0
  -25.2640  -31.4640   26.1810 C   0  0  0  0  0  1  0  0  0  0  0  0
  -26.9320  -30.3390   24.7000 C   0  0  0  0  0  1  0  0  0  0  0  0
  -27.5050  -32.5000   25.7730 C   0  0  0  0  0  1  0  0  0  0  0  0
  -25.5320  -33.8940   24.1870 N   0  0  0  0  0  0  0  0  0  0  0  0
  -25.8570  -34.9500   23.4290 C   0  0  0  0  0  0  0  0  0  0  0  0
  -26.5100  -34.8480   22.3860 O   0  0  0  0  0  0  0  0  0  0  0  0
  -24.9500  -34.0470   24.9980 H   0  0  0  0  0  0  0  0  0  0  0  0
  -24.1350  -36.7550   23.1110 C   0  0  0  0  0  1  0  0  0  0  0  0
  -25.3850  -36.3380   23.9020 C   0  0  0  0  0  3  0  0  0  0  0  0
  -27.5320  -37.2100   24.7140 C   0  0  0  0  0  1  0  0  0  0  0  0
  -26.4220  -37.3850   23.7810 N   0  0  0  0  0  0  0  0  0  0  0  0
  -26.0220  -38.3080   23.9340 H   0  0  0  0  0  0  0  0  0  0  0  0
  1  3  1  0
  2  1  2  0
  2  5  1  0
  3 10  1  0
  3  4  2  0
  4  9  1  0
  5  6  2  0
  6  4  1  0
  7  8  1  0
  9  7  1  0
  9  8  1  0
 10 11  1  0
 12 25  1  0
 13 18  1  0
 14 15  1  0
 14 13  1  0
 16 15  1  0
 16 29  1  0
 16 17  1  0
 18 12  1  0
 18 17  1  0
 19 12  2  0
 21 24  1  0
 22 20  1  0
 23 21  1  0
 23 25  1  0
 24 10  1  0
 24 20  1  0
 25 22  1  0
 26 27  2  0
 27 46  1  0
 28 27  1  0
 28 31  1  0
 29 30  1  0
 29 26  1  0
 30 28  2  0
 31 32  1  0
 32 33  2  0
 34 37  1  0
 34 33  1  0
 35 34  2  0
 36 35  1  0
 36 31  2  0
 37 38  1  0
 38 43  2  0
 38 39  1  0
 39 40  2  0
 40 41  1  0
 41 45  1  0
 42 41  2  0
 43 42  1  0
 44 43  1  0
 46 47  1  0
 47 50  1  0
 47 49  1  0
 48 46  2  0
 51 26  1  0
 51 52  1  0
 53 51  1  0
 54  5  1  0
 54 55  1  0
 56 67  2  0
 57 55  1  0
 57 62  1  0
 58 66  1  0
 58 68  1  0
 59 65  1  0
 59 61  1  0
 60 66  1  0
 61 62  2  0
 61 60  1  0
 63 57  2  0
 64 63  1  0
 64 59  2  0
 65 58  1  0
 66 56  1  0
 68 70  2  0
 69 68  1  0
 71 69  1  0
 72 81  2  0
 72 77  1  0
 73 69  1  0
 73 77  1  0
 74 73  1  0
 75 76  1  0
 75 74  1  0
 76 72  1  0
 77 78  2  0
 78 79  1  0
 80 79  2  0
 81 80  1  0
 82 56  1  0
 82 87  1  0
 82 83  1  0
 83 86  1  1
 83 84  1  0
 85 83  1  0
 87 90  1  0
 88 92  1  0
 88 87  1  0
 89 88  2  0
 92 91  1  0
 94 92  1  0
 94 95  1  0
 94 93  1  0
M  ISO  4  12 100  25 100  54 101  55 101
M  END
>  <TORSDO>  (56) 
F 19

>  <SCORE>  (56) 
-13.305

>  <name>  (56) 
55

>  <ligand_id>  (56) 
55

>  <original_smiles>  (56) 
[H]c1c(C([H])([H])Oc2c([H])c([H])c3c(c2[H])C([H])([H])N(C(=O)C([H])(N([H])C(=O)C([H])(N([H])C([H])([H])[H])C([H])([H])[H])C(C([H])([H])[H])(C([H])([H])[H])C([H])([H])[H])C([H])(C(=O)N([H])C2([H])c4c([H])c([H])c([H])c([H])c4C([H])([H])C([H])([H])C2([H])[H])C3([H])[H])nc(C2([H])C([H])([H])C2([H])[H])c(N([H])C2([H])C([H])([H])C([H])([H])N(C(=O)N3C([H])([H])C([H])([H])C([H])([H])C([H])(n4nc(-c5c([H])c([H])c(Oc6c([H])c([H])c(F)c([H])c6F)c([H])c5[H])c(C(=O)N([H])[H])c4N([H])[H])C3([H])[H])C([H])([H])C2([H])[H])c1[H]

>  <smiles>  (56) 
[H]c1c(C([H])([H])Oc2c([H])c([H])c3c(c2[H])C([H])([H])N(C(=O)C([H])(N([H])C(=O)C([H])(N([H])C([H])([H])[H])C([H])([H])[H])C(C([H])([H])[H])(C([H])([H])[H])C([H])([H])[H])C([H])(C(=O)N([H])C2([H])c4c([H])c([H])c([H])c([H])c4C([H])([H])C([H])([H])C2([H])[H])C3([H])[H])nc(C2([H])C([H])([H])C2([H])[H])c(N([H])C2([H])C([H])([H])C([H])([H])N(C(=O)N3C([H])([H])C([H])([H])C([H])([H])C([H])(n4nc(-c5c([H])c([H])c(Oc6c([H])c([H])c(F)c([H])c6F)c([H])c5[H])c(C(=O)N([H])[H])c4N([H])[H])C3([H])[H])C([H])([H])C2([H])[H])c1[H]

$$$$
56:0:0
     RDKit          3D

 96106  0  0  1  0  0  0  0  0999 V2000
  -29.4950  -22.7150   21.1460 C   0  0  0  0  0  3  0  0  0  0  0  0
  -30.2970  -22.3380   18.9140 C   0  0  0  0  0  3  0  0  0  0  0  0
  -29.7930  -23.2340   19.8750 C   0  0  0  0  0  0  0  0  0  0  0  0
  -30.0790  -20.4060   20.4400 C   0  0  0  0  0  0  0  0  0  0  0  0
  -29.6370  -21.3360   21.4360 C   0  0  0  0  0  0  0  0  0  0  0  0
  -30.4640  -20.9520   19.1700 C   0  0  0  0  0  0  0  0  0  0  0  0
  -29.2910  -20.9080   22.8550 C   0  0  0  0  0  1  0  0  0  0  0  0
  -30.9280  -14.8030   20.0540 C   0  0  0  0  0  0  0  0  0  0  0  0
  -30.5540  -12.6170   18.9500 C   0  0  0  0  0  2  0  0  0  0  0  0
  -29.5460  -12.7460   17.7910 C   0  0  0  0  0  2  0  0  0  0  0  0
  -28.1110  -12.5320   18.3070 C   0  0  0  0  0  2  0  0  0  0  0  0
  -27.7990  -13.4000   19.5500 C   0  0  0  0  0  3  0  0  0  0  0  0
  -28.9290  -13.3210   20.6090 C   0  0  0  0  0  2  0  0  0  0  0  0
  -30.2090  -13.6410   19.9550 N   0  0  0  0  0  0  0  0  0  0  0  0
  -32.0590  -14.8990   19.5720 O   0  0  0  0  0  0  0  0  0  0  0  0
  -29.2860  -18.0040   19.7540 C   0  0  0  0  0  2  0  0  0  0  0  0
  -31.4010  -18.1910   21.0930 C   0  0  0  0  0  2  0  0  0  0  0  0
  -29.1380  -16.5340   20.2070 C   0  0  0  0  0  2  0  0  0  0  0  0
  -31.1790  -16.7350   21.5960 C   0  0  0  0  0  2  0  0  0  0  0  0
  -30.0570  -18.8720   20.7590 C   0  0  0  0  0  3  0  0  0  0  0  0
  -30.3770  -15.8810   20.6880 N   0  0  0  0  0  0  0  0  0  0  0  0
  -25.4710  -13.9950   20.4510 C   0  0  0  0  0  0  0  0  0  0  0  0
  -24.4240  -13.2120   20.8520 C   0  0  0  0  0  0  0  0  0  0  0  0
  -24.8770  -11.8620   20.7390 C   0  0  0  0  0  0  0  0  0  0  0  0
  -26.4900  -13.1150   20.1170 N   0  0  0  0  0  0  0  0  0  0  0  0
  -26.1440  -11.8280   20.3530 N   0  0  0  0  0  0  0  0  0  0  0  0
  -24.1600  -10.5960   20.9170 C   0  0  0  0  0  0  0  0  0  0  0  0
  -24.5560   -9.6600   21.8980 C   0  0  0  0  0  3  0  0  0  0  0  0
  -23.8420   -8.4540   22.0610 C   0  0  0  0  0  3  0  0  0  0  0  0
  -22.7200   -8.1780   21.2430 C   0  0  0  0  0  0  0  0  0  0  0  0
  -22.3460   -9.1030   20.2530 C   0  0  0  0  0  3  0  0  0  0  0  0
  -23.0620  -10.3010   20.0880 C   0  0  0  0  0  3  0  0  0  0  0  0
  -21.9800   -7.0240   21.3160 O   0  0  0  0  0  0  0  0  0  0  0  0
  -21.7520   -6.3890   22.5100 C   0  0  0  0  0  0  0  0  0  0  0  0
  -21.0540   -7.0170   23.5660 C   0  0  0  0  0  3  0  0  0  0  0  0
  -20.7810   -6.3050   24.7500 C   0  0  0  0  0  3  0  0  0  0  0  0
  -21.1960   -4.9650   24.8790 C   0  0  0  0  0  0  0  0  0  0  0  0
  -21.8870   -4.3380   23.8290 C   0  0  0  0  0  3  0  0  0  0  0  0
  -22.1620   -5.0490   22.6460 C   0  0  0  0  0  0  0  0  0  0  0  0
  -22.8100   -4.4330   21.6280 F   0  0  0  0  0  0  0  0  0  0  0  0
  -20.9270   -4.2790   26.0140 F   0  0  0  0  0  0  0  0  0  0  0  0
  -23.0470  -13.6820   21.2260 C   0  0  0  0  0  0  0  0  0  0  0  0
  -22.3690  -12.9510   22.1030 N   0  0  0  0  0  0  0  0  0  0  0  0
  -22.5840  -14.7280   20.7750 O   0  0  0  0  0  0  0  0  0  0  0  0
  -22.7580  -12.1010   22.4860 H   0  0  0  0  0  0  0  0  0  0  0  0
  -21.4490  -13.2450   22.3960 H   0  0  0  0  0  0  0  0  0  0  0  0
  -25.6320  -15.3720   20.3190 N   0  0  0  0  0  0  0  0  0  0  0  0
  -24.8780  -16.0250   20.5060 H   0  0  0  0  0  0  0  0  0  0  0  0
  -26.4640  -15.8200   19.9580 H   0  0  0  0  0  0  0  0  0  0  0  0
  -28.7280  -25.0900   18.3660 C   0  0  0  0  0  2  0  0  0  0  0  0
  -29.6050  -24.7050   19.5430 C   0  0  0  0  0  3  0  0  0  0  0  0
  -28.3000  -25.4690   19.7620 C   0  0  0  0  0  3  0  0  0  0  0  0
  -28.3870  -26.8920   19.9740 O   0  0  0  0  0  0  0  0  0  0  0  0
  -24.5310  -31.9250   23.2310 C   0  0  0  0  0  0  0  0  0  0  0  0
  -27.1990  -27.6040   19.9820 C   0  0  0  0  0  0  0  0  0  0  0  0
  -23.3180  -30.5450   21.5750 C   0  0  0  0  0  3  0  0  0  0  0  0
  -24.7740  -29.0750   20.0790 C   0  0  0  0  0  0  0  0  0  0  0  0
  -25.8340  -30.9530   21.3390 C   0  0  0  0  0  2  0  0  0  0  0  0
  -25.9340  -29.6010   20.6590 C   0  0  0  0  0  0  0  0  0  0  0  0
  -27.1470  -28.8740   20.6050 C   0  0  0  0  0  3  0  0  0  0  0  0
  -26.0160  -27.1000   19.3890 C   0  0  0  0  0  3  0  0  0  0  0  0
  -24.8100  -27.8250   19.4390 C   0  0  0  0  0  3  0  0  0  0  0  0
  -23.5130  -29.9070   20.1740 C   0  0  0  0  0  2  0  0  0  0  0  0
  -24.5810  -31.1550   22.1070 N   0  0  0  0  0  0  0  0  0  0  0  0
  -23.4560  -32.1630   23.7990 O   0  0  0  0  0  0  0  0  0  0  0  0
  -22.7040  -29.4870   22.5200 C   0  0  0  0  0  0  0  0  0  0  0  0
  -21.3940  -29.2350   22.3660 N   0  0  0  0  0  0  0  0  0  0  0  0
  -23.4040  -28.8950   23.3460 O   0  0  0  0  0  0  0  0  0  0  0  0
  -20.8880  -29.7690   21.6740 H   0  0  0  0  0  0  0  0  0  0  0  0
  -18.0840  -27.8450   22.7780 C   0  0  0  0  0  0  0  0  0  0  0  0
  -20.6130  -28.2510   23.1170 C   0  0  0  0  0  3  0  0  0  0  0  0
  -20.8160  -26.8280   22.5470 C   0  0  0  0  0  2  0  0  0  0  0  0
  -19.7620  -26.4420   21.5040 C   0  0  0  0  0  2  0  0  0  0  0  0
  -18.3560  -26.5070   22.1100 C   0  0  0  0  0  2  0  0  0  0  0  0
  -19.1440  -28.6700   23.2370 C   0  0  0  0  0  0  0  0  0  0  0  0
  -18.8370  -29.9200   23.8170 C   0  0  0  0  0  3  0  0  0  0  0  0
  -17.5020  -30.3460   23.9450 C   0  0  0  0  0  3  0  0  0  0  0  0
  -16.4550  -29.5180   23.5050 C   0  0  0  0  0  3  0  0  0  0  0  0
  -16.7470  -28.2690   22.9260 C   0  0  0  0  0  3  0  0  0  0  0  0
  -25.8180  -32.5620   23.8430 C   0  0  0  0  0  3  0  0  0  0  0  0
  -25.5030  -33.9550   24.1860 N   0  0  0  0  0  0  0  0  0  0  0  0
  -25.8190  -35.0150   23.4290 C   0  0  0  0  0  0  0  0  0  0  0  0
  -26.4790  -34.9220   22.3900 O   0  0  0  0  0  0  0  0  0  0  0  0
  -24.9160  -34.1010   24.9940 H   0  0  0  0  0  0  0  0  0  0  0  0
  -24.0820  -36.8010   23.0900 C   0  0  0  0  0  1  0  0  0  0  0  0
  -25.3240  -36.3950   23.8990 C   0  0  0  0  0  3  0  0  0  0  0  0
  -27.4440  -37.2920   24.7540 C   0  0  0  0  0  1  0  0  0  0  0  0
  -26.3510  -37.4540   23.7980 N   0  0  0  0  0  0  0  0  0  0  0  0
  -25.9380  -38.3720   23.9410 H   0  0  0  0  0  0  0  0  0  0  0  0
  -26.3570  -31.7850   25.1070 C   0  0  1  0  0  0  0  0  0  0  0  0
  -25.2720  -31.5080   26.1740 C   0  0  0  0  0  1  0  0  0  0  0  0
  -26.9700  -30.4260   24.6930 C   0  0  0  0  0  1  0  0  0  0  0  0
  -27.4910  -32.5950   25.7760 C   0  0  0  0  0  1  0  0  0  0  0  0
  -32.4660  -20.6250   17.6370 C   0  0  0  0  0  1  0  0  0  0  0  0
  -30.1280  -20.0720   16.8140 C   0  0  0  0  0  1  0  0  0  0  0  0
  -31.0670  -20.1230   18.0310 C   0  0  0  0  0  3  0  0  0  0  0  0
  1  5  1  0
  2  6  2  0
  2  3  1  0
  3  1  2  0
  4  5  2  0
  5  7  1  0
  6  4  1  0
  8 21  1  0
  9 14  1  0
 10 11  1  0
 10  9  1  0
 12 11  1  0
 12 25  1  0
 12 13  1  0
 14  8  1  0
 14 13  1  0
 15  8  2  0
 16 18  1  0
 16 20  1  0
 17 19  1  0
 18 21  1  0
 20  4  1  0
 20 17  1  0
 21 19  1  0
 22 23  2  0
 23 42  1  0
 24 23  1  0
 24 27  1  0
 25 26  1  0
 25 22  1  0
 26 24  2  0
 27 28  1  0
 28 29  2  0
 30 33  1  0
 30 29  1  0
 31 30  2  0
 32 31  1  0
 32 27  2  0
 33 34  1  0
 34 39  2  0
 34 35  1  0
 35 36  2  0
 36 37  1  0
 37 41  1  0
 38 37  2  0
 39 38  1  0
 40 39  1  0
 42 43  1  0
 43 46  1  0
 43 45  1  0
 44 42  2  0
 47 22  1  0
 47 48  1  0
 49 47  1  0
 50 51  1  0
 50 52  1  0
 51 52  1  0
 51  3  1  0
 52 53  1  0
 53 55  1  0
 54 65  2  0
 55 60  1  0
 56 64  1  0
 56 66  1  0
 57 63  1  0
 57 59  1  0
 58 64  1  0
 59 58  1  0
 60 59  2  0
 61 62  1  0
 61 55  2  0
 62 57  2  0
 63 56  1  0
 64 54  1  0
 66 68  2  0
 67 66  1  0
 69 67  1  0
 70 79  2  0
 70 75  1  0
 71 67  1  0
 71 75  1  0
 72 71  1  0
 73 74  1  0
 73 72  1  0
 74 70  1  0
 75 76  2  0
 76 77  1  0
 78 77  2  0
 79 78  1  0
 80 54  1  0
 80 81  1  0
 80 90  1  0
 81 84  1  0
 82 86  1  0
 82 81  1  0
 83 82  2  0
 86 85  1  0
 88 86  1  0
 88 89  1  0
 88 87  1  0
 90 93  1  1
 90 91  1  0
 92 90  1  0
 94 96  1  0
 95 96  1  0
 96  6  1  0
M  ISO  4   8 100  21 100  52 101  53 101
M  END
>  <TORSDO>  (57) 
F 18

>  <SCORE>  (57) 
-13.824

>  <name>  (57) 
56

>  <ligand_id>  (57) 
56

>  <original_smiles>  (57) 
[H]c1c([H])c([H])c2c(c1[H])C([H])([H])C([H])([H])C([H])([H])C2([H])N([H])C(=O)C1([H])N(C(=O)C([H])(N([H])C(=O)C([H])(N([H])C([H])([H])[H])C([H])([H])[H])C(C([H])([H])[H])(C([H])([H])[H])C([H])([H])[H])C([H])([H])c2c([H])c(OC3([H])C([H])([H])C3([H])c3c([H])c(C([H])([H])[H])c(C4([H])C([H])([H])C([H])([H])N(C(=O)N5C([H])([H])C([H])([H])C([H])([H])C([H])(n6nc(-c7c([H])c([H])c(Oc8c([H])c([H])c(F)c([H])c8F)c([H])c7[H])c(C(=O)N([H])[H])c6N([H])[H])C5([H])[H])C([H])([H])C4([H])[H])c(C([H])(C([H])([H])[H])C([H])([H])[H])c3[H])c([H])c([H])c2C1([H])[H]

>  <smiles>  (57) 
[H]c1c([H])c([H])c2c(c1[H])C([H])([H])C([H])([H])C([H])([H])C2([H])N([H])C(=O)C1([H])N(C(=O)C([H])(N([H])C(=O)C([H])(N([H])C([H])([H])[H])C([H])([H])[H])C(C([H])([H])[H])(C([H])([H])[H])C([H])([H])[H])C([H])([H])c2c([H])c(OC3([H])C([H])([H])C3([H])c3c([H])c(C([H])([H])[H])c(C4([H])C([H])([H])C([H])([H])N(C(=O)N5C([H])([H])C([H])([H])C([H])([H])C([H])(n6nc(-c7c([H])c([H])c(Oc8c([H])c([H])c(F)c([H])c8F)c([H])c7[H])c(C(=O)N([H])[H])c6N([H])[H])C5([H])[H])C([H])([H])C4([H])[H])c(C([H])(C([H])([H])[H])C([H])([H])[H])c3[H])c([H])c([H])c2C1([H])[H]

$$$$
57:0:0
     RDKit          3D

 92101  0  0  1  0  0  0  0  0999 V2000
  -30.6670  -19.9640   22.6320 C   0  0  0  0  0  3  0  0  0  0  0  0
  -30.5240  -18.7740   21.9060 C   0  0  0  0  0  3  0  0  0  0  0  0
  -30.3620  -21.2310   22.0730 C   0  0  0  0  0  3  0  0  0  0  0  0
  -30.0940  -18.8270   20.5800 C   0  0  0  0  0  3  0  0  0  0  0  0
  -29.9180  -21.2820   20.7140 C   0  0  0  0  0  0  0  0  0  0  0  0
  -29.7970  -20.0730   20.0150 N   0  0  0  0  0  0  0  0  0  0  0  0
  -30.5650  -22.3260   24.4960 C   0  0  0  0  0  2  0  0  0  0  0  0
  -29.4130  -22.9930   23.7960 C   0  0  0  0  0  2  0  0  0  0  0  0
  -30.5570  -22.4240   22.9780 C   0  0  0  0  0  3  0  0  0  0  0  0
  -30.0800  -17.4670   19.7490 C   0  0  0  0  0  2  0  0  0  0  0  0
  -30.7270  -14.9490   20.2160 C   0  0  0  0  0  0  0  0  0  0  0  0
  -30.5610  -12.6170   19.3270 C   0  0  0  0  0  2  0  0  0  0  0  0
  -29.6220  -12.6220   18.1000 C   0  0  0  0  0  2  0  0  0  0  0  0
  -28.1560  -12.4490   18.5380 C   0  0  0  0  0  2  0  0  0  0  0  0
  -27.7720  -13.3840   19.7160 C   0  0  0  0  0  3  0  0  0  0  0  0
  -28.8320  -13.3620   20.8400 C   0  0  0  0  0  2  0  0  0  0  0  0
  -30.1250  -13.7080   20.2340 N   0  0  0  0  0  0  0  0  0  0  0  0
  -31.8950  -15.0510   19.8300 O   0  0  0  0  0  0  0  0  0  0  0  0
  -29.9390  -16.0790   20.3930 N   0  0  0  0  0  0  0  0  0  0  0  0
  -29.0230  -15.8970   20.7720 H   0  0  0  0  0  0  0  0  0  0  0  0
  -25.4000  -13.9860   20.4850 C   0  0  0  0  0  0  0  0  0  0  0  0
  -24.3310  -13.2170   20.8570 C   0  0  0  0  0  0  0  0  0  0  0  0
  -24.7800  -11.8610   20.7960 C   0  0  0  0  0  0  0  0  0  0  0  0
  -26.4320  -13.1000   20.2190 N   0  0  0  0  0  0  0  0  0  0  0  0
  -26.0660  -11.8160   20.4680 N   0  0  0  0  0  0  0  0  0  0  0  0
  -24.0410  -10.6040   20.9740 C   0  0  0  0  0  0  0  0  0  0  0  0
  -24.4680   -9.6200   21.8930 C   0  0  0  0  0  3  0  0  0  0  0  0
  -23.7310   -8.4270   22.0590 C   0  0  0  0  0  3  0  0  0  0  0  0
  -22.5520   -8.2110   21.3070 C   0  0  0  0  0  0  0  0  0  0  0  0
  -22.1440   -9.1840   20.3780 C   0  0  0  0  0  3  0  0  0  0  0  0
  -22.8830  -10.3680   20.2090 C   0  0  0  0  0  3  0  0  0  0  0  0
  -21.7860   -7.0730   21.3850 O   0  0  0  0  0  0  0  0  0  0  0  0
  -21.7410   -6.3120   22.5250 C   0  0  0  0  0  0  0  0  0  0  0  0
  -21.3060   -6.8430   23.7590 C   0  0  0  0  0  3  0  0  0  0  0  0
  -21.2090   -6.0080   24.8900 C   0  0  0  0  0  3  0  0  0  0  0  0
  -21.5370   -4.6430   24.7880 C   0  0  0  0  0  0  0  0  0  0  0  0
  -21.9640   -4.1110   23.5590 C   0  0  0  0  0  3  0  0  0  0  0  0
  -22.0630   -4.9430   22.4300 C   0  0  0  0  0  0  0  0  0  0  0  0
  -22.4550   -4.4210   21.2430 F   0  0  0  0  0  0  0  0  0  0  0  0
  -21.4360   -3.8380   25.8720 F   0  0  0  0  0  0  0  0  0  0  0  0
  -22.9430  -13.7040   21.1570 C   0  0  0  0  0  0  0  0  0  0  0  0
  -22.2210  -13.0030   22.0220 N   0  0  0  0  0  0  0  0  0  0  0  0
  -22.5100  -14.7420   20.6580 O   0  0  0  0  0  0  0  0  0  0  0  0
  -22.5850  -12.1620   22.4470 H   0  0  0  0  0  0  0  0  0  0  0  0
  -21.2890  -13.3100   22.2650 H   0  0  0  0  0  0  0  0  0  0  0  0
  -25.5750  -15.3570   20.3280 N   0  0  0  0  0  0  0  0  0  0  0  0
  -24.8130  -16.0140   20.4560 H   0  0  0  0  0  0  0  0  0  0  0  0
  -26.4120  -15.7920   19.9600 H   0  0  0  0  0  0  0  0  0  0  0  0
  -29.5630  -22.4800   19.9940 O   0  0  0  0  0  0  0  0  0  0  0  0
  -29.6100  -23.9000   20.5120 C   0  0  0  0  0  3  0  0  0  0  0  0
  -28.8350  -25.1180   19.7610 C   0  0  0  0  0  3  0  0  0  0  0  0
  -28.8690  -26.5600   20.2400 O   0  0  0  0  0  0  0  0  0  0  0  0
  -24.7670  -31.7270   23.3030 C   0  0  0  0  0  0  0  0  0  0  0  0
  -27.7350  -27.4120   20.1440 C   0  0  0  0  0  0  0  0  0  0  0  0
  -23.7130  -30.3620   21.5400 C   0  0  0  0  0  3  0  0  0  0  0  0
  -25.3040  -28.9620   20.0990 C   0  0  0  0  0  0  0  0  0  0  0  0
  -26.2460  -30.7940   21.5010 C   0  0  0  0  0  2  0  0  0  0  0  0
  -26.4220  -29.4550   20.7850 C   0  0  0  0  0  0  0  0  0  0  0  0
  -27.6360  -28.6900   20.8000 C   0  0  0  0  0  3  0  0  0  0  0  0
  -26.5960  -27.0100   19.4090 C   0  0  0  0  0  3  0  0  0  0  0  0
  -25.3990  -27.7510   19.4000 C   0  0  0  0  0  3  0  0  0  0  0  0
  -24.0250  -29.7770   20.1370 C   0  0  0  0  0  2  0  0  0  0  0  0
  -24.9240  -30.9780   22.1710 N   0  0  0  0  0  0  0  0  0  0  0  0
  -23.6480  -31.9240   23.7980 O   0  0  0  0  0  0  0  0  0  0  0  0
  -23.0590  -29.2650   22.4140 C   0  0  0  0  0  0  0  0  0  0  0  0
  -21.7440  -29.0500   22.2370 N   0  0  0  0  0  0  0  0  0  0  0  0
  -23.7360  -28.6130   23.2140 O   0  0  0  0  0  0  0  0  0  0  0  0
  -21.2550  -29.6310   21.5710 H   0  0  0  0  0  0  0  0  0  0  0  0
  -18.3910  -27.7320   22.5940 C   0  0  0  0  0  0  0  0  0  0  0  0
  -20.9380  -28.0370   22.9240 C   0  0  0  0  0  3  0  0  0  0  0  0
  -21.0870  -26.6550   22.2460 C   0  0  0  0  0  2  0  0  0  0  0  0
  -20.0090  -26.3800   21.1930 C   0  0  0  0  0  2  0  0  0  0  0  0
  -18.6140  -26.4410   21.8230 C   0  0  0  0  0  2  0  0  0  0  0  0
  -19.4830  -28.4890   23.0970 C   0  0  0  0  0  0  0  0  0  0  0  0
  -19.2210  -29.6970   23.7780 C   0  0  0  0  0  3  0  0  0  0  0  0
  -17.9010  -30.1500   23.9600 C   0  0  0  0  0  3  0  0  0  0  0  0
  -16.8240  -29.3900   23.4730 C   0  0  0  0  0  3  0  0  0  0  0  0
  -17.0700  -28.1810   22.7950 C   0  0  0  0  0  3  0  0  0  0  0  0
  -25.9850  -32.3900   24.0170 C   0  0  0  0  0  3  0  0  0  0  0  0
  -25.6130  -33.7760   24.3380 N   0  0  0  0  0  0  0  0  0  0  0  0
  -25.9490  -34.8450   23.6050 C   0  0  0  0  0  0  0  0  0  0  0  0
  -26.6720  -34.7710   22.6070 O   0  0  0  0  0  0  0  0  0  0  0  0
  -24.9740  -33.9050   25.1090 H   0  0  0  0  0  0  0  0  0  0  0  0
  -24.1720  -36.5790   23.1890 C   0  0  0  0  0  1  0  0  0  0  0  0
  -25.3960  -36.2150   24.0450 C   0  0  0  0  0  3  0  0  0  0  0  0
  -27.4600  -37.1780   24.9650 C   0  0  0  0  0  1  0  0  0  0  0  0
  -26.3940  -37.3040   23.9730 N   0  0  0  0  0  0  0  0  0  0  0  0
  -25.9490  -38.2100   24.0990 H   0  0  0  0  0  0  0  0  0  0  0  0
  -26.4330  -31.6220   25.3230 C   0  0  1  0  0  0  0  0  0  0  0  0
  -25.2750  -31.3490   26.3120 C   0  0  0  0  0  1  0  0  0  0  0  0
  -27.0760  -30.2620   24.9660 C   0  0  0  0  0  1  0  0  0  0  0  0
  -27.5140  -32.4400   26.0660 C   0  0  0  0  0  1  0  0  0  0  0  0
  2  1  2  0
  3  1  1  0
  3  9  1  0
  4 10  1  0
  4  2  1  0
  5  3  1  0
  6  4  1  0
  6  5  2  0
  8  7  1  0
  9  8  1  0
  9  7  1  0
 10 19  1  0
 11 17  1  0
 11 19  1  0
 12 17  1  0
 13 14  1  0
 13 12  1  0
 15 14  1  0
 15 24  1  0
 15 16  1  0
 17 16  1  0
 18 11  2  0
 19 20  1  0
 21 22  2  0
 22 41  1  0
 23 22  1  0
 23 26  1  0
 24 25  1  0
 24 21  1  0
 25 23  2  0
 26 27  1  0
 27 28  2  0
 29 32  1  0
 29 28  1  0
 30 29  2  0
 31 30  1  0
 31 26  2  0
 32 33  1  0
 33 34  1  0
 34 35  2  0
 36 35  1  0
 36 40  1  0
 37 36  2  0
 38 33  2  0
 38 37  1  0
 39 38  1  0
 41 42  1  0
 42 45  1  0
 42 44  1  0
 43 41  2  0
 46 47  1  0
 46 21  1  0
 48 46  1  0
 49 50  1  0
 49  5  1  0
 51 52  1  0
 51 50  2  0
 53 64  2  0
 54 52  1  0
 54 59  1  0
 55 63  1  0
 55 65  1  0
 56 62  1  0
 56 58  1  0
 57 63  1  0
 58 59  2  0
 58 57  1  0
 60 54  2  0
 61 60  1  0
 61 56  2  0
 62 55  1  0
 63 53  1  0
 65 67  2  0
 66 65  1  0
 68 66  1  0
 69 78  2  0
 69 74  1  0
 70 66  1  0
 70 74  1  0
 71 70  1  0
 72 73  1  0
 72 71  1  0
 73 69  1  0
 74 75  2  0
 75 76  1  0
 77 76  2  0
 78 77  1  0
 79 53  1  0
 79 80  1  0
 79 89  1  0
 80 83  1  0
 81 85  1  0
 81 80  1  0
 82 81  2  0
 85 84  1  0
 87 85  1  0
 87 88  1  0
 87 86  1  0
 89 92  1  1
 89 90  1  0
 91 89  1  0
M  ISO  4  11 100  19 100  51 101  52 101
M  END
>  <TORSDO>  (58) 
F 21

>  <SCORE>  (58) 
-12.852

>  <name>  (58) 
57

>  <ligand_id>  (58) 
57

>  <original_smiles>  (58) 
[H]c1c(C([H])([H])N([H])C(=O)N2C([H])([H])C([H])([H])C([H])([H])C([H])(n3nc(-c4c([H])c([H])c(Oc5c([H])c([H])c(F)c([H])c5F)c([H])c4[H])c(C(=O)N([H])[H])c3N([H])[H])C2([H])[H])nc(OC([H])([H])C([H])([H])Oc2c([H])c([H])c3c(c2[H])C([H])([H])N(C(=O)C([H])(N([H])C(=O)C([H])(N([H])C([H])([H])[H])C([H])([H])[H])C(C([H])([H])[H])(C([H])([H])[H])C([H])([H])[H])C([H])(C(=O)N([H])C2([H])c4c([H])c([H])c([H])c([H])c4C([H])([H])C([H])([H])C2([H])[H])C3([H])[H])c(C2([H])C([H])([H])C2([H])[H])c1[H]

>  <smiles>  (58) 
[H]c1c(C([H])([H])N([H])C(=O)N2C([H])([H])C([H])([H])C([H])([H])C([H])(n3nc(-c4c([H])c([H])c(Oc5c([H])c([H])c(F)c([H])c5F)c([H])c4[H])c(C(=O)N([H])[H])c3N([H])[H])C2([H])[H])nc(OC([H])([H])C([H])([H])Oc2c([H])c([H])c3c(c2[H])C([H])([H])N(C(=O)C([H])(N([H])C(=O)C([H])(N([H])C([H])([H])[H])C([H])([H])[H])C(C([H])([H])[H])(C([H])([H])[H])C([H])([H])[H])C([H])(C(=O)N([H])C2([H])c4c([H])c([H])c([H])c([H])c4C([H])([H])C([H])([H])C2([H])[H])C3([H])[H])c(C2([H])C([H])([H])C2([H])[H])c1[H]

$$$$
58:0:0
     RDKit          3D

 95104  0  0  1  0  0  0  0  0999 V2000
  -28.0530  -22.6170   18.9530 C   0  0  0  0  0  2  0  0  0  0  0  0
  -27.6090  -21.4380   19.8220 C   0  0  0  0  0  2  0  0  0  0  0  0
  -28.9610  -23.0290   20.1160 C   0  0  0  0  0  3  0  0  0  0  0  0
  -28.8450  -21.5810   20.5950 N   0  0  2  0  0  4  0  0  0  0  0  0
  -28.6530  -21.5190   21.5830 H   0  0  0  0  0  0  0  0  0  0  0  0
  -27.0120  -24.2140   21.4600 C   0  0  0  0  0  1  0  0  0  0  0  0
  -28.5130  -24.1910   21.1160 C   0  0  0  0  0  3  0  0  0  0  0  0
  -29.0430  -25.6860   20.8830 C   0  0  0  0  0  2  0  0  0  0  0  0
  -28.6180  -26.5650   19.7960 O   0  0  0  0  0  0  0  0  0  0  0  0
  -24.6410  -31.6910   23.0310 C   0  0  0  0  0  0  0  0  0  0  0  0
  -27.4620  -27.3310   19.9140 C   0  0  0  0  0  0  0  0  0  0  0  0
  -23.5050  -30.2700   21.3590 C   0  0  0  0  0  3  0  0  0  0  0  0
  -25.0290  -28.8100   19.9200 C   0  0  0  0  0  0  0  0  0  0  0  0
  -26.0250  -30.7070   21.1970 C   0  0  0  0  0  2  0  0  0  0  0  0
  -26.1680  -29.3420   20.5400 C   0  0  0  0  0  0  0  0  0  0  0  0
  -27.3900  -28.6100   20.5380 C   0  0  0  0  0  3  0  0  0  0  0  0
  -26.3100  -26.8490   19.2640 C   0  0  0  0  0  3  0  0  0  0  0  0
  -25.0980  -27.5640   19.2770 C   0  0  0  0  0  3  0  0  0  0  0  0
  -23.7560  -29.6290   19.9700 C   0  0  0  0  0  2  0  0  0  0  0  0
  -24.7410  -30.9080   21.9190 N   0  0  0  0  0  0  0  0  0  0  0  0
  -23.5450  -31.9100   23.5670 O   0  0  0  0  0  0  0  0  0  0  0  0
  -22.8840  -29.2070   22.2970 C   0  0  0  0  0  0  0  0  0  0  0  0
  -21.5630  -28.9970   22.1790 N   0  0  0  0  0  0  0  0  0  0  0  0
  -23.5900  -28.5750   23.0880 O   0  0  0  0  0  0  0  0  0  0  0  0
  -21.0490  -29.5580   21.5140 H   0  0  0  0  0  0  0  0  0  0  0  0
  -18.2250  -27.7030   22.6910 C   0  0  0  0  0  0  0  0  0  0  0  0
  -20.7800  -28.0150   22.9330 C   0  0  0  0  0  3  0  0  0  0  0  0
  -20.9090  -26.6060   22.3090 C   0  0  0  0  0  2  0  0  0  0  0  0
  -19.7990  -26.2880   21.3010 C   0  0  0  0  0  2  0  0  0  0  0  0
  -18.4240  -26.3800   21.9700 C   0  0  0  0  0  2  0  0  0  0  0  0
  -19.3320  -28.4790   23.1280 C   0  0  0  0  0  0  0  0  0  0  0  0
  -19.0910  -29.7180   23.7610 C   0  0  0  0  0  3  0  0  0  0  0  0
  -17.7770  -30.1800   23.9610 C   0  0  0  0  0  3  0  0  0  0  0  0
  -16.6850  -29.4020   23.5390 C   0  0  0  0  0  3  0  0  0  0  0  0
  -16.9110  -28.1640   22.9110 C   0  0  0  0  0  3  0  0  0  0  0  0
  -25.8940  -32.3670   23.6710 C   0  0  0  0  0  3  0  0  0  0  0  0
  -26.4560  -31.5800   24.9180 C   0  0  1  0  0  0  0  0  0  0  0  0
  -25.3840  -31.2550   25.9830 C   0  0  0  0  0  1  0  0  0  0  0  0
  -27.1010  -30.2440   24.4790 C   0  0  0  0  0  1  0  0  0  0  0  0
  -27.5730  -32.4060   25.5990 C   0  0  0  0  0  1  0  0  0  0  0  0
  -25.5160  -33.7350   24.0500 N   0  0  0  0  0  0  0  0  0  0  0  0
  -25.7820  -34.8280   23.3220 C   0  0  0  0  0  0  0  0  0  0  0  0
  -26.4430  -34.7940   22.2800 O   0  0  0  0  0  0  0  0  0  0  0  0
  -24.9320  -33.8340   24.8680 H   0  0  0  0  0  0  0  0  0  0  0  0
  -23.9520  -36.5320   23.0510 C   0  0  0  0  0  1  0  0  0  0  0  0
  -25.2280  -36.1730   23.8300 C   0  0  0  0  0  3  0  0  0  0  0  0
  -27.3260  -37.1470   24.6540 C   0  0  0  0  0  1  0  0  0  0  0  0
  -26.2000  -37.2850   23.7350 N   0  0  0  0  0  0  0  0  0  0  0  0
  -25.7470  -38.1760   23.9190 H   0  0  0  0  0  0  0  0  0  0  0  0
  -29.9700  -20.6150   20.2320 C   0  0  0  0  0  2  0  0  0  0  0  0
  -29.7080  -16.7800   19.3130 C   0  0  0  0  0  3  0  0  0  0  0  0
  -30.2870  -16.1060   20.4140 C   0  0  0  0  0  0  0  0  0  0  0  0
  -29.5250  -18.1950   19.2710 C   0  0  0  0  0  0  0  0  0  0  0  0
  -29.8610  -19.0320   20.3840 C   0  0  0  0  0  0  0  0  0  0  0  0
  -30.3410  -18.3370   21.5450 C   0  0  0  0  0  0  0  0  0  0  0  0
  -30.5640  -16.9140   21.5480 C   0  0  0  0  0  0  0  0  0  0  0  0
  -29.1140  -18.7670   17.9210 C   0  0  0  0  0  1  0  0  0  0  0  0
  -30.7580  -19.1220   22.7810 C   0  0  0  0  0  1  0  0  0  0  0  0
  -31.1380  -16.3410   22.6340 F   0  0  0  0  0  0  0  0  0  0  0  0
  -30.9180  -14.7140   20.1920 C   0  0  0  0  0  0  0  0  0  0  0  0
  -30.5350  -12.5330   19.0810 C   0  0  0  0  0  2  0  0  0  0  0  0
  -29.5710  -12.7380   17.8920 C   0  0  0  0  0  2  0  0  0  0  0  0
  -28.1090  -12.6090   18.3610 C   0  0  0  0  0  2  0  0  0  0  0  0
  -27.8130  -13.4350   19.6430 C   0  0  0  0  0  3  0  0  0  0  0  0
  -28.9050  -13.2620   20.7170 C   0  0  0  0  0  2  0  0  0  0  0  0
  -30.1980  -13.5520   20.0980 N   0  0  0  0  0  0  0  0  0  0  0  0
  -32.0890  -14.7410   19.8070 O   0  0  0  0  0  0  0  0  0  0  0  0
  -25.4610  -14.0300   20.4740 C   0  0  0  0  0  0  0  0  0  0  0  0
  -24.4020  -13.2580   20.8660 C   0  0  0  0  0  0  0  0  0  0  0  0
  -24.8470  -11.9030   20.7850 C   0  0  0  0  0  0  0  0  0  0  0  0
  -26.4850  -13.1470   20.1750 N   0  0  0  0  0  0  0  0  0  0  0  0
  -26.1250  -11.8610   20.4250 N   0  0  0  0  0  0  0  0  0  0  0  0
  -24.1130  -10.6430   20.9710 C   0  0  0  0  0  0  0  0  0  0  0  0
  -24.5280   -9.6780   21.9140 C   0  0  0  0  0  3  0  0  0  0  0  0
  -23.7930   -8.4850   22.0890 C   0  0  0  0  0  3  0  0  0  0  0  0
  -22.6280   -8.2490   21.3210 C   0  0  0  0  0  0  0  0  0  0  0  0
  -22.2330   -9.2030   20.3670 C   0  0  0  0  0  3  0  0  0  0  0  0
  -22.9670  -10.3880   20.1910 C   0  0  0  0  0  3  0  0  0  0  0  0
  -21.8680   -7.1070   21.4030 O   0  0  0  0  0  0  0  0  0  0  0  0
  -21.7450   -6.4070   22.5750 C   0  0  0  0  0  0  0  0  0  0  0  0
  -21.2520   -7.0080   23.7540 C   0  0  0  0  0  3  0  0  0  0  0  0
  -21.0770   -6.2350   24.9190 C   0  0  0  0  0  3  0  0  0  0  0  0
  -21.3840   -4.8610   24.9050 C   0  0  0  0  0  0  0  0  0  0  0  0
  -21.8690   -4.2590   23.7310 C   0  0  0  0  0  3  0  0  0  0  0  0
  -22.0460   -5.0310   22.5690 C   0  0  0  0  0  0  0  0  0  0  0  0
  -22.4940   -4.4410   21.4340 F   0  0  0  0  0  0  0  0  0  0  0  0
  -21.2080   -4.1150   26.0210 F   0  0  0  0  0  0  0  0  0  0  0  0
  -23.0200  -13.7430   21.1990 C   0  0  0  0  0  0  0  0  0  0  0  0
  -22.3270  -13.0530   22.0970 N   0  0  0  0  0  0  0  0  0  0  0  0
  -22.5670  -14.7700   20.6970 O   0  0  0  0  0  0  0  0  0  0  0  0
  -22.7050  -12.2200   22.5260 H   0  0  0  0  0  0  0  0  0  0  0  0
  -21.4010  -13.3610   22.3590 H   0  0  0  0  0  0  0  0  0  0  0  0
  -25.6380  -15.4030   20.3270 N   0  0  0  0  0  0  0  0  0  0  0  0
  -24.8920  -16.0690   20.4940 H   0  0  0  0  0  0  0  0  0  0  0  0
  -26.4950  -15.8380   20.0080 H   0  0  0  0  0  0  0  0  0  0  0  0
  1  2  1  0
  1  3  1  0
  2  4  1  0
  3  4  1  0
  3  7  1  0
  4  5  1  1
  7  6  1  0
  8  7  1  0
  9 11  1  0
  9  8  1  0
 10 21  2  0
 11 16  1  0
 12 20  1  0
 12 22  1  0
 13 19  1  0
 13 15  1  0
 14 20  1  0
 15 14  1  0
 16 15  2  0
 17 18  1  0
 17 11  2  0
 18 13  2  0
 19 12  1  0
 20 10  1  0
 22 24  2  0
 23 22  1  0
 25 23  1  0
 26 35  2  0
 26 31  1  0
 27 23  1  0
 27 31  1  0
 28 27  1  0
 29 30  1  0
 29 28  1  0
 30 26  1  0
 31 32  2  0
 32 33  1  0
 34 33  2  0
 35 34  1  0
 36 10  1  0
 36 41  1  0
 36 37  1  0
 37 40  1  1
 37 38  1  0
 39 37  1  0
 41 44  1  0
 42 46  1  0
 42 41  1  0
 43 42  2  0
 46 45  1  0
 48 46  1  0
 48 49  1  0
 48 47  1  0
 50 54  1  0
 50  4  1  0
 51 52  1  0
 52 56  2  0
 53 51  2  0
 53 54  1  0
 54 55  2  0
 55 56  1  0
 55 58  1  0
 56 59  1  0
 57 53  1  0
 60 52  1  0
 61 66  1  0
 62 63  1  0
 62 61  1  0
 64 63  1  0
 64 71  1  0
 64 65  1  0
 66 60  1  0
 66 65  1  0
 67 60  2  0
 68 69  2  0
 69 88  1  0
 70 69  1  0
 70 73  1  0
 71 72  1  0
 71 68  1  0
 72 70  2  0
 73 74  1  0
 74 75  2  0
 76 79  1  0
 76 75  1  0
 77 76  2  0
 78 77  1  0
 78 73  2  0
 79 80  1  0
 80 81  1  0
 81 82  2  0
 83 82  1  0
 83 87  1  0
 84 83  2  0
 85 80  2  0
 85 84  1  0
 86 85  1  0
 88 89  1  0
 89 92  1  0
 89 91  1  0
 90 88  2  0
 93 68  1  0
 93 94  1  0
 95 93  1  0
M  ISO  4   8 101   9 101  52 100  60 100
M  END
>  <TORSDO>  (59) 
F 20

>  <SCORE>  (59) 
-13.525

>  <name>  (59) 
58

>  <ligand_id>  (59) 
58

>  <original_smiles>  (59) 
[H]c1c([H])c([H])c2c(c1[H])C([H])([H])C([H])([H])C([H])([H])C2([H])N([H])C(=O)C1([H])N(C(=O)C([H])(N([H])C(=O)C([H])(N([H])C([H])([H])[H])C([H])([H])[H])C(C([H])([H])[H])(C([H])([H])[H])C([H])([H])[H])C([H])([H])c2c([H])c(OC([H])([H])C([H])(C([H])([H])[H])C3([H])C([H])([H])C([H])([H])[N+]3([H])C([H])([H])c3c(C([H])([H])[H])c([H])c(C(=O)N4C([H])([H])C([H])([H])C([H])([H])C([H])(n5nc(-c6c([H])c([H])c(Oc7c([H])c([H])c(F)c([H])c7F)c([H])c6[H])c(C(=O)N([H])[H])c5N([H])[H])C4([H])[H])c(F)c3C([H])([H])[H])c([H])c([H])c2C1([H])[H]

>  <smiles>  (59) 
[H]c1c([H])c([H])c2c(c1[H])C([H])([H])C([H])([H])C([H])([H])C2([H])N([H])C(=O)C1([H])N(C(=O)C([H])(N([H])C(=O)C([H])(N([H])C([H])([H])[H])C([H])([H])[H])C(C([H])([H])[H])(C([H])([H])[H])C([H])([H])[H])C([H])([H])c2c([H])c(OC([H])([H])C([H])(C([H])([H])[H])C3([H])C([H])([H])C([H])([H])[N+]3([H])C([H])([H])c3c(C([H])([H])[H])c([H])c(C(=O)N4C([H])([H])C([H])([H])C([H])([H])C([H])(n5nc(-c6c([H])c([H])c(Oc7c([H])c([H])c(F)c([H])c7F)c([H])c6[H])c(C(=O)N([H])[H])c5N([H])[H])C4([H])[H])c(F)c3C([H])([H])[H])c([H])c([H])c2C1([H])[H]

$$$$
59:0:0
     RDKit          3D

 91100  0  0  1  0  0  0  0  0999 V2000
  -28.0050  -22.7520   19.7460 C   0  0  0  0  0  3  0  0  0  0  0  0
  -28.4300  -21.3860   19.8900 C   0  0  0  0  0  3  0  0  0  0  0  0
  -30.2850  -23.4860   19.7870 C   0  0  0  0  0  3  0  0  0  0  0  0
  -28.9180  -23.8470   19.6700 C   0  0  0  0  0  0  0  0  0  0  0  0
  -30.7140  -22.1280   19.9230 C   0  0  0  0  0  0  0  0  0  0  0  0
  -29.8060  -21.0290   19.9620 C   0  0  0  0  0  0  0  0  0  0  0  0
  -32.2040  -21.8450   19.9830 C   0  0  0  0  0  1  0  0  0  0  0  0
  -28.4890  -25.3000   19.2010 C   0  0  0  0  0  2  0  0  0  0  0  0
  -28.3110  -26.4440   20.1360 O   0  0  0  0  0  0  0  0  0  0  0  0
  -24.5860  -31.8250   23.2260 C   0  0  0  0  0  0  0  0  0  0  0  0
  -27.1850  -27.2910   20.0820 C   0  0  0  0  0  0  0  0  0  0  0  0
  -23.3780  -30.4560   21.5670 C   0  0  0  0  0  3  0  0  0  0  0  0
  -24.8210  -28.9240   20.1170 C   0  0  0  0  0  0  0  0  0  0  0  0
  -25.9220  -30.7620   21.3910 C   0  0  0  0  0  2  0  0  0  0  0  0
  -25.9950  -29.3950   20.7160 C   0  0  0  0  0  0  0  0  0  0  0  0
  -27.1750  -28.5900   20.6900 C   0  0  0  0  0  3  0  0  0  0  0  0
  -25.9710  -26.8700   19.4880 C   0  0  0  0  0  3  0  0  0  0  0  0
  -24.8120  -27.6670   19.4980 C   0  0  0  0  0  3  0  0  0  0  0  0
  -23.5880  -29.8030   20.1770 C   0  0  0  0  0  2  0  0  0  0  0  0
  -24.6480  -31.0320   22.1170 N   0  0  0  0  0  0  0  0  0  0  0  0
  -23.5030  -32.0980   23.7630 O   0  0  0  0  0  0  0  0  0  0  0  0
  -22.7110  -29.4260   22.5110 C   0  0  0  0  0  0  0  0  0  0  0  0
  -21.3900  -29.2310   22.3590 N   0  0  0  0  0  0  0  0  0  0  0  0
  -23.3820  -28.8070   23.3410 O   0  0  0  0  0  0  0  0  0  0  0  0
  -20.9090  -29.7810   21.6610 H   0  0  0  0  0  0  0  0  0  0  0  0
  -18.0270  -27.9550   22.7510 C   0  0  0  0  0  0  0  0  0  0  0  0
  -20.5680  -28.2820   23.1110 C   0  0  0  0  0  3  0  0  0  0  0  0
  -20.7260  -26.8480   22.5570 C   0  0  0  0  0  2  0  0  0  0  0  0
  -19.6710  -26.4850   21.5080 C   0  0  0  0  0  2  0  0  0  0  0  0
  -18.2630  -26.6030   22.0990 C   0  0  0  0  0  2  0  0  0  0  0  0
  -19.1110  -28.7510   23.2110 C   0  0  0  0  0  0  0  0  0  0  0  0
  -18.8370  -30.0150   23.7770 C   0  0  0  0  0  3  0  0  0  0  0  0
  -17.5150  -30.4840   23.8900 C   0  0  0  0  0  3  0  0  0  0  0  0
  -16.4460  -29.6840   23.4500 C   0  0  0  0  0  3  0  0  0  0  0  0
  -16.7030  -28.4220   22.8850 C   0  0  0  0  0  3  0  0  0  0  0  0
  -25.8690  -32.4450   23.8570 C   0  0  0  0  0  3  0  0  0  0  0  0
  -25.5700  -33.8460   24.1890 N   0  0  0  0  0  0  0  0  0  0  0  0
  -25.8970  -34.8970   23.4260 C   0  0  0  0  0  0  0  0  0  0  0  0
  -26.5530  -34.7910   22.3860 O   0  0  0  0  0  0  0  0  0  0  0  0
  -24.9880  -34.0020   24.9980 H   0  0  0  0  0  0  0  0  0  0  0  0
  -24.1620  -36.6900   23.1070 C   0  0  0  0  0  1  0  0  0  0  0  0
  -25.4220  -36.2880   23.8910 C   0  0  0  0  0  3  0  0  0  0  0  0
  -27.5760  -37.1740   24.6690 C   0  0  0  0  0  1  0  0  0  0  0  0
  -26.4520  -37.3400   23.7510 N   0  0  0  0  0  0  0  0  0  0  0  0
  -26.0500  -38.2610   23.9050 H   0  0  0  0  0  0  0  0  0  0  0  0
  -26.3690  -31.6680   25.1370 C   0  0  1  0  0  0  0  0  0  0  0  0
  -25.2660  -31.4420   26.1970 C   0  0  0  0  0  1  0  0  0  0  0  0
  -26.9410  -30.2840   24.7490 C   0  0  0  0  0  1  0  0  0  0  0  0
  -27.5220  -32.4490   25.8080 C   0  0  0  0  0  1  0  0  0  0  0  0
  -30.3600  -19.7230   20.0510 O   0  0  0  0  0  0  0  0  0  0  0  0
  -30.7750  -14.7180   19.9670 C   0  0  0  0  0  0  0  0  0  0  0  0
  -30.4510  -12.4730   18.9340 C   0  0  0  0  0  2  0  0  0  0  0  0
  -29.4380  -12.5660   17.7730 C   0  0  0  0  0  2  0  0  0  0  0  0
  -27.9980  -12.3970   18.2940 C   0  0  0  0  0  2  0  0  0  0  0  0
  -27.7080  -13.2650   19.5470 C   0  0  0  0  0  3  0  0  0  0  0  0
  -28.8390  -13.1440   20.5900 C   0  0  0  0  0  2  0  0  0  0  0  0
  -30.0880  -13.5220   19.9160 N   0  0  0  0  0  0  0  0  0  0  0  0
  -31.9320  -14.7600   19.5370 O   0  0  0  0  0  0  0  0  0  0  0  0
  -29.2160  -17.8620   21.3160 C   0  0  0  0  0  2  0  0  0  0  0  0
  -29.1260  -16.3190   21.1340 C   0  0  0  0  0  2  0  0  0  0  0  0
  -30.5560  -17.2250   19.5020 C   0  0  0  0  0  2  0  0  0  0  0  0
  -29.6520  -18.4330   19.9660 C   0  0  0  0  0  3  0  0  0  0  0  0
  -30.0880  -15.9250   20.0960 N   0  0  0  0  0  0  0  0  0  0  0  0
  -25.3750  -13.8540   20.4370 C   0  0  0  0  0  0  0  0  0  0  0  0
  -24.3280  -13.0780   20.8530 C   0  0  0  0  0  0  0  0  0  0  0  0
  -24.7750  -11.7250   20.7530 C   0  0  0  0  0  0  0  0  0  0  0  0
  -26.3950  -12.9740   20.1130 N   0  0  0  0  0  0  0  0  0  0  0  0
  -26.0430  -11.6870   20.3620 N   0  0  0  0  0  0  0  0  0  0  0  0
  -24.0500  -10.4630   20.9530 C   0  0  0  0  0  0  0  0  0  0  0  0
  -24.5060   -9.4890   21.8680 C   0  0  0  0  0  3  0  0  0  0  0  0
  -23.7830   -8.2910   22.0580 C   0  0  0  0  0  3  0  0  0  0  0  0
  -22.5900   -8.0600   21.3330 C   0  0  0  0  0  0  0  0  0  0  0  0
  -22.1540   -9.0220   20.4060 C   0  0  0  0  0  3  0  0  0  0  0  0
  -22.8760  -10.2120   20.2140 C   0  0  0  0  0  3  0  0  0  0  0  0
  -21.8360   -6.9170   21.4330 O   0  0  0  0  0  0  0  0  0  0  0  0
  -21.7700   -6.1980   22.6010 C   0  0  0  0  0  0  0  0  0  0  0  0
  -21.3210   -6.7780   23.8080 C   0  0  0  0  0  3  0  0  0  0  0  0
  -21.2040   -5.9850   24.9670 C   0  0  0  0  0  3  0  0  0  0  0  0
  -21.5230   -4.6150   24.9200 C   0  0  0  0  0  0  0  0  0  0  0  0
  -21.9630   -4.0360   23.7170 C   0  0  0  0  0  3  0  0  0  0  0  0
  -22.0830   -4.8250   22.5610 C   0  0  0  0  0  0  0  0  0  0  0  0
  -22.4890   -4.2580   21.3990 F   0  0  0  0  0  0  0  0  0  0  0  0
  -21.4020   -3.8510   26.0310 F   0  0  0  0  0  0  0  0  0  0  0  0
  -22.9560  -13.5570   21.2250 C   0  0  0  0  0  0  0  0  0  0  0  0
  -22.2820  -12.8460   22.1240 N   0  0  0  0  0  0  0  0  0  0  0  0
  -22.4920  -14.5960   20.7560 O   0  0  0  0  0  0  0  0  0  0  0  0
  -22.6770  -12.0060   22.5210 H   0  0  0  0  0  0  0  0  0  0  0  0
  -21.3620  -13.1450   22.4160 H   0  0  0  0  0  0  0  0  0  0  0  0
  -25.5390  -15.2270   20.2870 N   0  0  0  0  0  0  0  0  0  0  0  0
  -24.7960  -15.8890   20.4850 H   0  0  0  0  0  0  0  0  0  0  0  0
  -26.3700  -15.6640   19.9100 H   0  0  0  0  0  0  0  0  0  0  0  0
  1  2  1  0
  2  6  2  0
  3  5  2  0
  4  1  2  0
  4  3  1  0
  5  6  1  0
  5  7  1  0
  6 50  1  0
  8  4  1  0
  8  9  1  0
 10 21  2  0
 11  9  1  0
 11 16  1  0
 12 20  1  0
 12 22  1  0
 13 19  1  0
 13 15  1  0
 14 20  1  0
 15 14  1  0
 16 15  2  0
 17 18  1  0
 17 11  2  0
 18 13  2  0
 19 12  1  0
 20 10  1  0
 22 24  2  0
 23 22  1  0
 25 23  1  0
 26 35  2  0
 26 31  1  0
 27 23  1  0
 27 31  1  0
 28 27  1  0
 29 30  1  0
 29 28  1  0
 30 26  1  0
 31 32  2  0
 32 33  1  0
 34 33  2  0
 35 34  1  0
 36 10  1  0
 36 37  1  0
 36 46  1  0
 37 40  1  0
 38 42  1  0
 38 37  1  0
 39 38  2  0
 42 41  1  0
 44 42  1  0
 44 45  1  0
 44 43  1  0
 46 49  1  1
 46 47  1  0
 48 46  1  0
 51 63  1  0
 52 57  1  0
 53 54  1  0
 53 52  1  0
 55 54  1  0
 55 67  1  0
 55 56  1  0
 57 51  1  0
 57 56  1  0
 58 51  2  0
 60 59  1  0
 61 62  1  0
 61 63  1  0
 62 50  1  0
 62 59  1  0
 63 60  1  0
 64 65  2  0
 65 84  1  0
 66 65  1  0
 66 69  1  0
 67 68  1  0
 67 64  1  0
 68 66  2  0
 69 70  1  0
 70 71  2  0
 72 75  1  0
 72 71  1  0
 73 72  2  0
 74 73  1  0
 74 69  2  0
 75 76  1  0
 76 77  1  0
 77 78  2  0
 79 78  1  0
 79 83  1  0
 80 79  2  0
 81 76  2  0
 81 80  1  0
 82 81  1  0
 84 85  1  0
 85 88  1  0
 85 87  1  0
 86 84  2  0
 89 64  1  0
 89 90  1  0
 91 89  1  0
M  ISO  4   8 101   9 101  51 100  63 100
M  END
>  <TORSDO>  (60) 
F 18

>  <SCORE>  (60) 
-14.146

>  <name>  (60) 
59

>  <ligand_id>  (60) 
59

>  <original_smiles>  (60) 
[H]c1c([H])c([H])c2c(c1[H])C([H])([H])C([H])([H])C([H])([H])C2([H])N([H])C(=O)C1([H])N(C(=O)C([H])(N([H])C(=O)C([H])(N([H])C([H])([H])[H])C([H])([H])[H])C(C([H])([H])[H])(C([H])([H])[H])C([H])([H])[H])C([H])([H])c2c([H])c(OC([H])([H])c3c([H])c([H])c(OC4([H])C([H])([H])N(C(=O)N5C([H])([H])C([H])([H])C([H])([H])C([H])(n6nc(-c7c([H])c([H])c(Oc8c([H])c([H])c(F)c([H])c8F)c([H])c7[H])c(C(=O)N([H])[H])c6N([H])[H])C5([H])[H])C([H])([H])C4([H])[H])c(C([H])([H])[H])c3[H])c([H])c([H])c2C1([H])[H]

>  <smiles>  (60) 
[H]c1c([H])c([H])c2c(c1[H])C([H])([H])C([H])([H])C([H])([H])C2([H])N([H])C(=O)C1([H])N(C(=O)C([H])(N([H])C(=O)C([H])(N([H])C([H])([H])[H])C([H])([H])[H])C(C([H])([H])[H])(C([H])([H])[H])C([H])([H])[H])C([H])([H])c2c([H])c(OC([H])([H])c3c([H])c([H])c(OC4([H])C([H])([H])N(C(=O)N5C([H])([H])C([H])([H])C([H])([H])C([H])(n6nc(-c7c([H])c([H])c(Oc8c([H])c([H])c(F)c([H])c8F)c([H])c7[H])c(C(=O)N([H])[H])c6N([H])[H])C5([H])[H])C([H])([H])C4([H])[H])c(C([H])([H])[H])c3[H])c([H])c([H])c2C1([H])[H]

$$$$
60:0:0
     RDKit          3D

 96105  0  0  1  0  0  0  0  0999 V2000
  -30.5180  -20.0930   22.6980 C   0  0  0  0  0  3  0  0  0  0  0  0
  -30.0420  -20.1140   20.3270 C   0  0  0  0  0  3  0  0  0  0  0  0
  -29.7060  -22.1610   21.6400 C   0  0  0  0  0  0  0  0  0  0  0  0
  -30.1550  -21.4520   22.7900 C   0  0  0  0  0  0  0  0  0  0  0  0
  -30.4610  -19.4030   21.4670 C   0  0  0  0  0  0  0  0  0  0  0  0
  -29.6440  -21.4750   20.3960 C   0  0  0  0  0  0  0  0  0  0  0  0
  -30.2270  -22.1050   24.1640 C   0  0  0  0  0  1  0  0  0  0  0  0
  -27.6640  -23.6420   21.9390 C   0  0  0  0  0  2  0  0  0  0  0  0
  -27.2940  -25.0660   21.5570 C   0  0  0  0  0  2  0  0  0  0  0  0
  -29.5360  -24.6750   20.7150 C   0  0  0  0  0  2  0  0  0  0  0  0
  -29.1850  -23.6060   21.7890 C   0  0  0  0  0  3  0  0  0  0  0  0
  -28.2120  -25.3920   20.3620 C   0  0  0  0  0  3  0  0  0  0  0  0
  -28.3850  -26.8060   20.1440 O   0  0  0  0  0  0  0  0  0  0  0  0
  -24.6520  -31.9470   23.2990 C   0  0  0  0  0  0  0  0  0  0  0  0
  -27.2310  -27.5630   20.0940 C   0  0  0  0  0  0  0  0  0  0  0  0
  -23.4150  -30.5820   21.6490 C   0  0  0  0  0  3  0  0  0  0  0  0
  -24.8420  -29.0740   20.1650 C   0  0  0  0  0  0  0  0  0  0  0  0
  -25.9380  -30.9380   21.4180 C   0  0  0  0  0  2  0  0  0  0  0  0
  -26.0090  -29.5830   20.7480 C   0  0  0  0  0  0  0  0  0  0  0  0
  -27.2070  -28.8350   20.7090 C   0  0  0  0  0  3  0  0  0  0  0  0
  -26.0510  -27.0810   19.4790 C   0  0  0  0  0  3  0  0  0  0  0  0
  -24.8570  -27.8230   19.5260 C   0  0  0  0  0  3  0  0  0  0  0  0
  -23.5990  -29.9290   20.2540 C   0  0  0  0  0  2  0  0  0  0  0  0
  -24.6880  -31.1690   22.1810 N   0  0  0  0  0  0  0  0  0  0  0  0
  -23.5790  -32.2140   23.8590 O   0  0  0  0  0  0  0  0  0  0  0  0
  -22.7740  -29.5440   22.5980 C   0  0  0  0  0  0  0  0  0  0  0  0
  -21.4520  -29.3520   22.4680 N   0  0  0  0  0  0  0  0  0  0  0  0
  -23.4630  -28.9160   23.4060 O   0  0  0  0  0  0  0  0  0  0  0  0
  -20.9580  -29.9130   21.7880 H   0  0  0  0  0  0  0  0  0  0  0  0
  -18.0870  -28.1250   22.9470 C   0  0  0  0  0  0  0  0  0  0  0  0
  -20.6410  -28.3980   23.2260 C   0  0  0  0  0  3  0  0  0  0  0  0
  -20.7550  -26.9760   22.6310 C   0  0  0  0  0  2  0  0  0  0  0  0
  -19.6570  -26.6560   21.6120 C   0  0  0  0  0  2  0  0  0  0  0  0
  -18.2730  -26.7840   22.2570 C   0  0  0  0  0  2  0  0  0  0  0  0
  -19.1980  -28.8890   23.3870 C   0  0  0  0  0  0  0  0  0  0  0  0
  -18.9720  -30.1450   23.9900 C   0  0  0  0  0  3  0  0  0  0  0  0
  -17.6640  -30.6360   24.1590 C   0  0  0  0  0  3  0  0  0  0  0  0
  -16.5650  -29.8690   23.7350 C   0  0  0  0  0  3  0  0  0  0  0  0
  -16.7770  -28.6150   23.1360 C   0  0  0  0  0  3  0  0  0  0  0  0
  -25.9490  -32.5600   23.9130 C   0  0  0  0  0  3  0  0  0  0  0  0
  -25.6650  -33.9640   24.2370 N   0  0  0  0  0  0  0  0  0  0  0  0
  -25.9900  -35.0040   23.4580 C   0  0  0  0  0  0  0  0  0  0  0  0
  -26.6340  -34.8820   22.4120 O   0  0  0  0  0  0  0  0  0  0  0  0
  -25.0890  -34.1310   25.0500 H   0  0  0  0  0  0  0  0  0  0  0  0
  -24.2600  -36.8010   23.1430 C   0  0  0  0  0  1  0  0  0  0  0  0
  -25.5300  -36.4020   23.9120 C   0  0  0  0  0  3  0  0  0  0  0  0
  -27.6970  -37.2920   24.6490 C   0  0  0  0  0  1  0  0  0  0  0  0
  -26.5630  -37.4450   23.7400 N   0  0  0  0  0  0  0  0  0  0  0  0
  -26.1680  -38.3720   23.8780 H   0  0  0  0  0  0  0  0  0  0  0  0
  -26.4600  -31.7820   25.1880 C   0  0  1  0  0  0  0  0  0  0  0  0
  -25.3610  -31.5350   26.2460 C   0  0  0  0  0  1  0  0  0  0  0  0
  -27.0510  -30.4080   24.7890 C   0  0  0  0  0  1  0  0  0  0  0  0
  -27.6040  -32.5770   25.8610 C   0  0  0  0  0  1  0  0  0  0  0  0
  -29.2310  -21.5340   18.0210 C   0  0  0  0  0  1  0  0  0  0  0  0
  -29.1510  -22.1530   19.3000 O   0  0  0  0  0  0  0  0  0  0  0  0
  -30.7850  -18.0670   21.3030 O   0  0  0  0  0  0  0  0  0  0  0  0
  -30.9150  -17.2550   22.4690 C   0  0  0  0  0  2  0  0  0  0  0  0
  -31.4500  -15.8590   22.1160 C   0  0  0  0  0  2  0  0  0  0  0  0
  -30.6280  -14.4380   20.2540 C   0  0  0  0  0  0  0  0  0  0  0  0
  -30.1280  -12.4570   18.8740 C   0  0  0  0  0  2  0  0  0  0  0  0
  -29.1100  -12.7440   17.7580 C   0  0  0  0  0  2  0  0  0  0  0  0
  -27.6770  -12.5600   18.2830 C   0  0  0  0  0  2  0  0  0  0  0  0
  -27.4280  -13.3300   19.6050 C   0  0  0  0  0  3  0  0  0  0  0  0
  -28.5490  -13.0550   20.6330 C   0  0  0  0  0  2  0  0  0  0  0  0
  -29.8510  -13.3510   20.0070 N   0  0  0  0  0  0  0  0  0  0  0  0
  -31.5340  -14.8060   19.5030 O   0  0  0  0  0  0  0  0  0  0  0  0
  -30.4660  -14.9890   21.4620 N   0  0  0  0  0  0  0  0  0  0  0  0
  -29.7190  -14.6210   22.0320 H   0  0  0  0  0  0  0  0  0  0  0  0
  -25.0710  -13.8910   20.4780 C   0  0  0  0  0  0  0  0  0  0  0  0
  -24.0320  -13.0960   20.8830 C   0  0  0  0  0  0  0  0  0  0  0  0
  -24.5000  -11.7510   20.7740 C   0  0  0  0  0  0  0  0  0  0  0  0
  -26.1070  -13.0290   20.1550 N   0  0  0  0  0  0  0  0  0  0  0  0
  -25.7690  -11.7340   20.3860 N   0  0  0  0  0  0  0  0  0  0  0  0
  -23.7960  -10.4760   20.9610 C   0  0  0  0  0  0  0  0  0  0  0  0
  -24.2490   -9.5100   21.8880 C   0  0  0  0  0  3  0  0  0  0  0  0
  -23.5430   -8.3000   22.0640 C   0  0  0  0  0  3  0  0  0  0  0  0
  -22.3720   -8.0450   21.3100 C   0  0  0  0  0  0  0  0  0  0  0  0
  -21.9390   -9.0000   20.3730 C   0  0  0  0  0  3  0  0  0  0  0  0
  -22.6450  -10.2020   20.1960 C   0  0  0  0  0  3  0  0  0  0  0  0
  -21.6380   -6.8870   21.3950 O   0  0  0  0  0  0  0  0  0  0  0  0
  -21.5550   -6.1710   22.5620 C   0  0  0  0  0  0  0  0  0  0  0  0
  -21.0390   -6.7350   23.7490 C   0  0  0  0  0  3  0  0  0  0  0  0
  -20.9070   -5.9420   24.9060 C   0  0  0  0  0  3  0  0  0  0  0  0
  -21.2820   -4.5860   24.8780 C   0  0  0  0  0  0  0  0  0  0  0  0
  -21.7930   -4.0210   23.6960 C   0  0  0  0  0  3  0  0  0  0  0  0
  -21.9260   -4.8110   22.5410 C   0  0  0  0  0  0  0  0  0  0  0  0
  -22.3980   -4.2560   21.3990 F   0  0  0  0  0  0  0  0  0  0  0  0
  -21.1490   -3.8220   25.9880 F   0  0  0  0  0  0  0  0  0  0  0  0
  -22.6510  -13.5500   21.2590 C   0  0  0  0  0  0  0  0  0  0  0  0
  -21.9790  -12.8070   22.1320 N   0  0  0  0  0  0  0  0  0  0  0  0
  -22.1790  -14.5970   20.8160 O   0  0  0  0  0  0  0  0  0  0  0  0
  -22.3740  -11.9580   22.5090 H   0  0  0  0  0  0  0  0  0  0  0  0
  -21.0550  -13.0920   22.4270 H   0  0  0  0  0  0  0  0  0  0  0  0
  -25.2170  -15.2690   20.3420 N   0  0  0  0  0  0  0  0  0  0  0  0
  -24.4580  -15.9180   20.5200 H   0  0  0  0  0  0  0  0  0  0  0  0
  -26.0570  -15.7230   20.0030 H   0  0  0  0  0  0  0  0  0  0  0  0
  1  4  1  0
  2  6  2  0
  2  5  1  0
  3  4  2  0
  4  7  1  0
  5  1  2  0
  6  3  1  0
  9  8  1  0
 10 11  1  0
 11  3  1  0
 11  8  1  0
 12 13  1  0
 12 10  1  0
 12  9  1  0
 14 25  2  0
 15 13  1  0
 15 20  1  0
 16 24  1  0
 16 26  1  0
 17 23  1  0
 17 19  1  0
 18 24  1  0
 19 18  1  0
 20 19  2  0
 21 22  1  0
 21 15  2  0
 22 17  2  0
 23 16  1  0
 24 14  1  0
 26 28  2  0
 27 26  1  0
 29 27  1  0
 30 39  2  0
 30 35  1  0
 31 27  1  0
 31 35  1  0
 32 31  1  0
 33 34  1  0
 33 32  1  0
 34 30  1  0
 35 36  2  0
 36 37  1  0
 38 37  2  0
 39 38  1  0
 40 14  1  0
 40 41  1  0
 40 50  1  0
 41 44  1  0
 42 46  1  0
 42 41  1  0
 43 42  2  0
 46 45  1  0
 48 49  1  0
 48 46  1  0
 48 47  1  0
 50 53  1  1
 50 51  1  0
 52 50  1  0
 54 55  1  0
 55  6  1  0
 56  5  1  0
 56 57  1  0
 58 57  1  0
 59 67  1  0
 60 65  1  0
 61 62  1  0
 61 60  1  0
 63 62  1  0
 63 72  1  0
 63 64  1  0
 65 59  1  0
 65 64  1  0
 66 59  2  0
 67 68  1  0
 67 58  1  0
 69 70  2  0
 70 89  1  0
 71 70  1  0
 71 74  1  0
 72 73  1  0
 72 69  1  0
 73 71  2  0
 74 75  1  0
 75 76  2  0
 77 80  1  0
 77 76  1  0
 78 77  2  0
 79 78  1  0
 79 74  2  0
 80 81  1  0
 81 82  1  0
 82 83  2  0
 84 83  1  0
 84 88  1  0
 85 84  2  0
 86 81  2  0
 86 85  1  0
 87 86  1  0
 89 90  1  0
 90 93  1  0
 90 92  1  0
 91 89  2  0
 94 69  1  0
 94 95  1  0
 96 94  1  0
M  ISO  4  12 101  13 101  59 100  67 100
M  END
>  <TORSDO>  (61) 
F 21

>  <SCORE>  (61) 
-13.019

>  <name>  (61) 
60

>  <ligand_id>  (61) 
60

>  <original_smiles>  (61) 
[H]c1c([H])c([H])c2c(c1[H])C([H])([H])C([H])([H])C([H])([H])C2([H])N([H])C(=O)C1([H])N(C(=O)C([H])(N([H])C(=O)C([H])(N([H])C([H])([H])[H])C([H])([H])[H])C(C([H])([H])[H])(C([H])([H])[H])C([H])([H])[H])C([H])([H])c2c([H])c(OC3([H])C([H])([H])C([H])([H])C([H])(c4c(OC([H])([H])[H])c([H])c(OC([H])([H])C([H])([H])N([H])C(=O)N5C([H])([H])C([H])([H])C([H])([H])C([H])(n6nc(-c7c([H])c([H])c(Oc8c([H])c([H])c(F)c([H])c8F)c([H])c7[H])c(C(=O)N([H])[H])c6N([H])[H])C5([H])[H])c([H])c4C([H])([H])[H])C3([H])[H])c([H])c([H])c2C1([H])[H]

>  <smiles>  (61) 
[H]c1c([H])c([H])c2c(c1[H])C([H])([H])C([H])([H])C([H])([H])C2([H])N([H])C(=O)C1([H])N(C(=O)C([H])(N([H])C(=O)C([H])(N([H])C([H])([H])[H])C([H])([H])[H])C(C([H])([H])[H])(C([H])([H])[H])C([H])([H])[H])C([H])([H])c2c([H])c(OC3([H])C([H])([H])C([H])([H])C([H])(c4c(OC([H])([H])[H])c([H])c(OC([H])([H])C([H])([H])N([H])C(=O)N5C([H])([H])C([H])([H])C([H])([H])C([H])(n6nc(-c7c([H])c([H])c(Oc8c([H])c([H])c(F)c([H])c8F)c([H])c7[H])c(C(=O)N([H])[H])c6N([H])[H])C5([H])[H])c([H])c4C([H])([H])[H])C3([H])[H])c([H])c([H])c2C1([H])[H]

$$$$
61:0:0
     RDKit          3D

 98107  0  0  1  0  0  0  0  0999 V2000
  -31.6830  -20.7540   20.8980 C   0  0  0  0  0  3  0  0  0  0  0  0
  -32.4230  -23.0250   20.5170 C   0  0  0  0  0  3  0  0  0  0  0  0
  -30.3790  -21.0170   20.3920 C   0  0  0  0  0  0  0  0  0  0  0  0
  -32.6820  -21.7380   20.9940 C   0  0  0  0  0  0  0  0  0  0  0  0
  -31.1480  -23.3530   20.0390 C   0  0  0  0  0  0  0  0  0  0  0  0
  -30.0660  -22.4270   20.1140 C   0  0  0  0  0  0  0  0  0  0  0  0
  -34.0550  -21.3930   21.5370 C   0  0  0  0  0  1  0  0  0  0  0  0
  -31.0320  -24.6930   19.3180 C   0  0  0  0  0  1  0  0  0  0  0  0
  -28.2610  -18.1740   18.4400 C   0  0  0  0  0  2  0  0  0  0  0  0
  -28.8910  -16.8880   18.9810 C   0  0  0  0  0  2  0  0  0  0  0  0
  -30.0240  -18.3310   20.7560 C   0  0  0  0  0  2  0  0  0  0  0  0
  -29.4630  -19.7270   20.1500 C   0  0  0  0  0  3  0  0  0  0  0  0
  -29.1520  -19.4310   18.6330 C   0  0  0  0  0  3  0  0  0  0  0  0
  -29.1650  -17.0230   20.4820 C   0  0  0  0  0  3  0  0  0  0  0  0
  -30.3680  -14.6930   20.7740 C   0  0  0  0  0  0  0  0  0  0  0  0
  -30.2840  -12.4540   19.7010 C   0  0  0  0  0  2  0  0  0  0  0  0
  -29.3760  -12.5900   18.4590 C   0  0  0  0  0  2  0  0  0  0  0  0
  -27.8940  -12.3860   18.8370 C   0  0  0  0  0  2  0  0  0  0  0  0
  -27.4760  -13.2010   20.0900 C   0  0  0  0  0  3  0  0  0  0  0  0
  -28.5070  -13.0420   21.2340 C   0  0  0  0  0  2  0  0  0  0  0  0
  -29.8230  -13.4360   20.7040 N   0  0  0  0  0  0  0  0  0  0  0  0
  -31.5030  -14.9270   20.3520 O   0  0  0  0  0  0  0  0  0  0  0  0
  -29.4970  -15.6920   21.1230 N   0  0  0  0  0  0  0  0  0  0  0  0
  -28.7060  -15.3130   21.6240 H   0  0  0  0  0  0  0  0  0  0  0  0
  -25.0410  -13.7190   20.7290 C   0  0  0  0  0  0  0  0  0  0  0  0
  -23.9880  -12.9090   21.0570 C   0  0  0  0  0  0  0  0  0  0  0  0
  -24.4940  -11.5740   21.0280 C   0  0  0  0  0  0  0  0  0  0  0  0
  -26.1210  -12.8740   20.5240 N   0  0  0  0  0  0  0  0  0  0  0  0
  -25.7950  -11.5780   20.7610 N   0  0  0  0  0  0  0  0  0  0  0  0
  -23.8050  -10.2880   21.1870 C   0  0  0  0  0  0  0  0  0  0  0  0
  -24.2250   -9.3350   22.1410 C   0  0  0  0  0  3  0  0  0  0  0  0
  -23.5330   -8.1130   22.2880 C   0  0  0  0  0  3  0  0  0  0  0  0
  -22.4060   -7.8350   21.4790 C   0  0  0  0  0  0  0  0  0  0  0  0
  -22.0070   -8.7760   20.5130 C   0  0  0  0  0  3  0  0  0  0  0  0
  -22.7000   -9.9880   20.3660 C   0  0  0  0  0  3  0  0  0  0  0  0
  -21.6900   -6.6630   21.5330 O   0  0  0  0  0  0  0  0  0  0  0  0
  -21.6070   -5.9200   22.6840 C   0  0  0  0  0  0  0  0  0  0  0  0
  -21.0600   -6.4470   23.8740 C   0  0  0  0  0  3  0  0  0  0  0  0
  -20.9330   -5.6300   25.0140 C   0  0  0  0  0  3  0  0  0  0  0  0
  -21.3430   -4.2840   24.9630 C   0  0  0  0  0  0  0  0  0  0  0  0
  -21.8820   -3.7540   23.7780 C   0  0  0  0  0  3  0  0  0  0  0  0
  -22.0100   -4.5700   22.6390 C   0  0  0  0  0  0  0  0  0  0  0  0
  -22.5130   -4.0500   21.4920 F   0  0  0  0  0  0  0  0  0  0  0  0
  -21.2120   -3.4930   26.0530 F   0  0  0  0  0  0  0  0  0  0  0  0
  -22.5670  -13.3370   21.2900 C   0  0  0  0  0  0  0  0  0  0  0  0
  -21.8390  -12.6020   22.1210 N   0  0  0  0  0  0  0  0  0  0  0  0
  -22.1120  -14.3550   20.7710 O   0  0  0  0  0  0  0  0  0  0  0  0
  -22.2230  -11.7760   22.5570 H   0  0  0  0  0  0  0  0  0  0  0  0
  -20.8860  -12.8650   22.3240 H   0  0  0  0  0  0  0  0  0  0  0  0
  -25.1720  -15.0970   20.5650 N   0  0  0  0  0  0  0  0  0  0  0  0
  -24.3890  -15.7330   20.6650 H   0  0  0  0  0  0  0  0  0  0  0  0
  -26.0190  -15.5550   20.2590 H   0  0  0  0  0  0  0  0  0  0  0  0
  -29.5010  -21.2810   16.8750 C   0  0  0  0  0  1  0  0  0  0  0  0
  -28.5130  -20.5830   17.8210 C   0  0  0  0  0  2  0  0  0  0  0  0
  -28.8290  -22.9250   19.7100 O   0  0  0  0  0  0  0  0  0  0  0  0
  -28.0040  -23.8630   20.4990 C   0  0  0  0  0  2  0  0  0  0  0  0
  -28.4230  -25.2190   21.2250 C   0  0  0  0  0  2  0  0  0  0  0  0
  -28.4990  -26.5170   20.5320 O   0  0  0  0  0  0  0  0  0  0  0  0
  -24.6110  -31.8900   23.3810 C   0  0  0  0  0  0  0  0  0  0  0  0
  -27.3580  -27.3170   20.5060 C   0  0  0  0  0  0  0  0  0  0  0  0
  -23.4740  -30.4640   21.7160 C   0  0  0  0  0  3  0  0  0  0  0  0
  -24.9830  -28.8890   20.3800 C   0  0  0  0  0  0  0  0  0  0  0  0
  -26.0170  -30.7890   21.6310 C   0  0  0  0  0  2  0  0  0  0  0  0
  -26.1240  -29.4030   21.0120 C   0  0  0  0  0  0  0  0  0  0  0  0
  -27.3170  -28.6290   21.0630 C   0  0  0  0  0  3  0  0  0  0  0  0
  -26.1970  -26.8370   19.8660 C   0  0  0  0  0  3  0  0  0  0  0  0
  -25.0200  -27.6080   19.8020 C   0  0  0  0  0  3  0  0  0  0  0  0
  -23.7430  -29.7600   20.3590 C   0  0  0  0  0  2  0  0  0  0  0  0
  -24.7170  -31.0660   22.3000 N   0  0  0  0  0  0  0  0  0  0  0  0
  -23.5070  -32.1780   23.8660 O   0  0  0  0  0  0  0  0  0  0  0  0
  -22.7740  -29.4620   22.6640 C   0  0  0  0  0  0  0  0  0  0  0  0
  -21.4600  -29.2650   22.4660 N   0  0  0  0  0  0  0  0  0  0  0  0
  -23.4140  -28.8660   23.5330 O   0  0  0  0  0  0  0  0  0  0  0  0
  -21.0050  -29.8000   21.7400 H   0  0  0  0  0  0  0  0  0  0  0  0
  -18.0740  -28.0400   22.7960 C   0  0  0  0  0  0  0  0  0  0  0  0
  -20.6090  -28.3360   23.2110 C   0  0  0  0  0  3  0  0  0  0  0  0
  -20.7600  -26.8920   22.6800 C   0  0  0  0  0  2  0  0  0  0  0  0
  -19.7240  -26.5290   21.6120 C   0  0  0  0  0  2  0  0  0  0  0  0
  -18.3050  -26.6750   22.1690 C   0  0  0  0  0  2  0  0  0  0  0  0
  -19.1580  -28.8260   23.2700 C   0  0  0  0  0  0  0  0  0  0  0  0
  -18.8900  -30.1020   23.8120 C   0  0  0  0  0  3  0  0  0  0  0  0
  -17.5740  -30.5920   23.8870 C   0  0  0  0  0  3  0  0  0  0  0  0
  -16.5040  -29.8020   23.4310 C   0  0  0  0  0  3  0  0  0  0  0  0
  -16.7550  -28.5280   22.8910 C   0  0  0  0  0  3  0  0  0  0  0  0
  -25.8680  -32.5310   24.0460 C   0  0  0  0  0  3  0  0  0  0  0  0
  -25.5620  -33.9440   24.3070 N   0  0  0  0  0  0  0  0  0  0  0  0
  -25.9450  -34.9630   23.5250 C   0  0  0  0  0  0  0  0  0  0  0  0
  -26.6610  -34.8120   22.5320 O   0  0  0  0  0  0  0  0  0  0  0  0
  -24.9320  -34.1360   25.0710 H   0  0  0  0  0  0  0  0  0  0  0  0
  -24.2600  -36.7610   23.0160 C   0  0  0  0  0  1  0  0  0  0  0  0
  -25.4530  -36.3730   23.9050 C   0  0  0  0  0  3  0  0  0  0  0  0
  -27.5470  -37.2710   24.8190 C   0  0  0  0  0  1  0  0  0  0  0  0
  -26.5040  -37.4100   23.8060 N   0  0  0  0  0  0  0  0  0  0  0  0
  -26.1020  -38.3390   23.8890 H   0  0  0  0  0  0  0  0  0  0  0  0
  -26.3050  -31.8030   25.3770 C   0  0  1  0  0  0  0  0  0  0  0  0
  -25.1500  -31.6130   26.3890 C   0  0  0  0  0  1  0  0  0  0  0  0
  -26.8980  -30.4090   25.0690 C   0  0  0  0  0  1  0  0  0  0  0  0
  -27.4220  -32.6140   26.0750 C   0  0  0  0  0  1  0  0  0  0  0  0
  1  4  1  0
  2  4  2  0
  3  1  2  0
  4  7  1  0
  5  6  2  0
  5  2  1  0
  6  3  1  0
  8  5  1  0
  9 13  1  0
  9 10  1  0
 10 14  1  0
 12  3  1  0
 12 11  1  0
 13 54  1  0
 13 12  1  0
 14 11  1  0
 14 23  1  0
 15 23  1  0
 16 21  1  0
 17 18  1  0
 17 16  1  0
 19 18  1  0
 19 28  1  0
 19 20  1  0
 21 15  1  0
 21 20  1  0
 22 15  2  0
 23 24  1  0
 25 26  2  0
 26 45  1  0
 27 26  1  0
 27 30  1  0
 28 25  1  0
 28 29  1  0
 29 27  2  0
 30 31  1  0
 31 32  2  0
 33 36  1  0
 33 32  1  0
 34 33  2  0
 35 34  1  0
 35 30  2  0
 36 37  1  0
 37 38  1  0
 38 39  2  0
 40 39  1  0
 40 44  1  0
 41 40  2  0
 42 37  2  0
 42 41  1  0
 43 42  1  0
 45 46  1  0
 46 49  1  0
 46 48  1  0
 47 45  2  0
 50 51  1  0
 50 25  1  0
 52 50  1  0
 53 54  1  0
 55  6  1  0
 55 56  1  0
 56 57  1  0
 58 57  1  0
 59 70  2  0
 60 58  1  0
 60 65  1  0
 61 69  1  0
 61 71  1  0
 62 64  1  0
 63 69  1  0
 64 65  2  0
 64 63  1  0
 66 60  2  0
 67 66  1  0
 67 62  2  0
 68 62  1  0
 68 61  1  0
 69 59  1  0
 71 73  2  0
 72 71  1  0
 74 72  1  0
 75 84  2  0
 75 80  1  0
 76 72  1  0
 76 80  1  0
 77 76  1  0
 78 79  1  0
 78 77  1  0
 79 75  1  0
 80 81  2  0
 81 82  1  0
 83 82  2  0
 84 83  1  0
 85 59  1  0
 85 86  1  0
 85 95  1  0
 86 89  1  0
 87 91  1  0
 87 86  1  0
 88 87  2  0
 91 90  1  0
 93 94  1  0
 93 91  1  0
 93 92  1  0
 95 98  1  1
 95 96  1  0
 97 95  1  0
M  ISO  4  15 100  23 100  57 101  58 101
M  END
>  <TORSDO>  (62) 
F 21

>  <SCORE>  (62) 
-13.267

>  <name>  (62) 
61

>  <ligand_id>  (62) 
61

>  <original_smiles>  (62) 
[H]c1c([H])c([H])c2c(c1[H])C([H])([H])C([H])([H])C([H])([H])C2([H])N([H])C(=O)C1([H])N(C(=O)C([H])(N([H])C(=O)C([H])(N([H])C([H])([H])[H])C([H])([H])[H])C(C([H])([H])[H])(C([H])([H])[H])C([H])([H])[H])C([H])([H])c2c([H])c(OC([H])([H])C([H])([H])Oc3c(C([H])([H])[H])c([H])c(C([H])([H])[H])c([H])c3C3([H])C([H])([H])C([H])(N([H])C(=O)N4C([H])([H])C([H])([H])C([H])([H])C([H])(n5nc(-c6c([H])c([H])c(Oc7c([H])c([H])c(F)c([H])c7F)c([H])c6[H])c(C(=O)N([H])[H])c5N([H])[H])C4([H])[H])C([H])([H])C([H])([H])C3([H])C([H])([H])C([H])([H])[H])c([H])c([H])c2C1([H])[H]

>  <smiles>  (62) 
[H]c1c([H])c([H])c2c(c1[H])C([H])([H])C([H])([H])C([H])([H])C2([H])N([H])C(=O)C1([H])N(C(=O)C([H])(N([H])C(=O)C([H])(N([H])C([H])([H])[H])C([H])([H])[H])C(C([H])([H])[H])(C([H])([H])[H])C([H])([H])[H])C([H])([H])c2c([H])c(OC([H])([H])C([H])([H])Oc3c(C([H])([H])[H])c([H])c(C([H])([H])[H])c([H])c3C3([H])C([H])([H])C([H])(N([H])C(=O)N4C([H])([H])C([H])([H])C([H])([H])C([H])(n5nc(-c6c([H])c([H])c(Oc7c([H])c([H])c(F)c([H])c7F)c([H])c6[H])c(C(=O)N([H])[H])c5N([H])[H])C4([H])[H])C([H])([H])C([H])([H])C3([H])C([H])([H])C([H])([H])[H])c([H])c([H])c2C1([H])[H]

$$$$
62:0:0
     RDKit          3D

 93102  0  0  1  0  0  0  0  0999 V2000
  -28.0700  -18.2050   19.8250 C   0  0  0  0  0  3  0  0  0  0  0  0
  -29.3020  -19.9700   20.4190 C   0  0  0  0  0  0  0  0  0  0  0  0
  -29.2980  -18.4960   20.3870 C   0  0  0  0  0  0  0  0  0  0  0  0
  -28.1590  -20.4160   19.8960 C   0  0  0  0  0  0  0  0  0  0  0  0
  -30.0720  -21.2440   20.7610 C   0  0  0  0  0  2  0  0  0  0  0  0
  -29.2030  -22.4140   20.0620 C   0  0  0  0  0  3  0  0  0  0  0  0
  -26.0430  -19.4490   18.9170 C   0  0  0  0  0  1  0  0  0  0  0  0
  -27.3540  -19.3660   19.5250 N   0  0  0  0  0  0  0  0  0  0  0  0
  -27.9420  -21.7460   19.7680 O   0  0  0  0  0  0  0  0  0  0  0  0
  -31.6540  -17.7410   20.0310 C   0  0  0  0  0  1  0  0  0  0  0  0
  -30.3580  -17.3990   20.7880 C   0  0  0  0  0  3  0  0  0  0  0  0
  -30.6790  -14.7710   20.4280 C   0  0  0  0  0  0  0  0  0  0  0  0
  -30.4100  -12.5480   19.3350 C   0  0  0  0  0  2  0  0  0  0  0  0
  -29.4700  -12.6800   18.1200 C   0  0  0  0  0  2  0  0  0  0  0  0
  -27.9990  -12.5160   18.5510 C   0  0  0  0  0  2  0  0  0  0  0  0
  -27.6420  -13.3640   19.8010 C   0  0  0  0  0  3  0  0  0  0  0  0
  -28.7090  -13.2380   20.9140 C   0  0  0  0  0  2  0  0  0  0  0  0
  -30.0060  -13.5800   20.3170 N   0  0  0  0  0  0  0  0  0  0  0  0
  -31.8730  -14.8200   20.1310 O   0  0  0  0  0  0  0  0  0  0  0  0
  -29.9500  -15.9230   20.6720 N   0  0  0  0  0  0  0  0  0  0  0  0
  -28.9730  -15.7530   20.8450 H   0  0  0  0  0  0  0  0  0  0  0  0
  -25.2510  -13.9380   20.5270 C   0  0  0  0  0  0  0  0  0  0  0  0
  -24.1860  -13.1580   20.8830 C   0  0  0  0  0  0  0  0  0  0  0  0
  -24.6530  -11.8100   20.8400 C   0  0  0  0  0  0  0  0  0  0  0  0
  -26.3000  -13.0670   20.2870 N   0  0  0  0  0  0  0  0  0  0  0  0
  -25.9450  -11.7780   20.5360 N   0  0  0  0  0  0  0  0  0  0  0  0
  -23.9290  -10.5420   21.0070 C   0  0  0  0  0  0  0  0  0  0  0  0
  -24.3300   -9.5840   21.9640 C   0  0  0  0  0  3  0  0  0  0  0  0
  -23.6040   -8.3820   22.1240 C   0  0  0  0  0  3  0  0  0  0  0  0
  -22.4640   -8.1300   21.3250 C   0  0  0  0  0  0  0  0  0  0  0  0
  -22.0780   -9.0800   20.3610 C   0  0  0  0  0  3  0  0  0  0  0  0
  -22.8050  -10.2730   20.1990 C   0  0  0  0  0  3  0  0  0  0  0  0
  -21.7150   -6.9800   21.3940 O   0  0  0  0  0  0  0  0  0  0  0  0
  -21.5940   -6.2680   22.5610 C   0  0  0  0  0  0  0  0  0  0  0  0
  -21.0120   -6.8300   23.7180 C   0  0  0  0  0  3  0  0  0  0  0  0
  -20.8420   -6.0420   24.8730 C   0  0  0  0  0  3  0  0  0  0  0  0
  -21.2450   -4.6940   24.8720 C   0  0  0  0  0  0  0  0  0  0  0  0
  -21.8190   -4.1310   23.7190 C   0  0  0  0  0  3  0  0  0  0  0  0
  -21.9900   -4.9150   22.5650 C   0  0  0  0  0  0  0  0  0  0  0  0
  -22.5260   -4.3630   21.4500 F   0  0  0  0  0  0  0  0  0  0  0  0
  -21.0750   -3.9340   25.9800 F   0  0  0  0  0  0  0  0  0  0  0  0
  -22.7860  -13.6300   21.1520 C   0  0  0  0  0  0  0  0  0  0  0  0
  -22.0500  -12.9170   22.0000 N   0  0  0  0  0  0  0  0  0  0  0  0
  -22.3490  -14.6610   20.6420 O   0  0  0  0  0  0  0  0  0  0  0  0
  -22.4140  -12.0770   22.4260 H   0  0  0  0  0  0  0  0  0  0  0  0
  -21.1120  -13.2150   22.2250 H   0  0  0  0  0  0  0  0  0  0  0  0
  -25.4170  -15.3090   20.3640 N   0  0  0  0  0  0  0  0  0  0  0  0
  -24.6530  -15.9670   20.4660 H   0  0  0  0  0  0  0  0  0  0  0  0
  -26.2660  -15.7290   20.0180 H   0  0  0  0  0  0  0  0  0  0  0  0
  -28.1780  -23.8350   21.9860 C   0  0  0  0  0  1  0  0  0  0  0  0
  -29.0480  -23.8890   20.7120 C   0  0  0  0  0  3  0  0  0  0  0  0
  -28.4950  -25.0570   19.7550 C   0  0  0  0  0  2  0  0  0  0  0  0
  -28.5300  -26.4950   20.1830 O   0  0  0  0  0  0  0  0  0  0  0  0
  -24.6870  -31.8490   23.1840 C   0  0  0  0  0  0  0  0  0  0  0  0
  -27.4010  -27.3400   20.0920 C   0  0  0  0  0  0  0  0  0  0  0  0
  -23.5280  -30.4620   21.5030 C   0  0  0  0  0  3  0  0  0  0  0  0
  -25.0240  -28.9570   20.0730 C   0  0  0  0  0  0  0  0  0  0  0  0
  -26.0710  -30.8040   21.3720 C   0  0  0  0  0  2  0  0  0  0  0  0
  -26.1770  -29.4350   20.7060 C   0  0  0  0  0  0  0  0  0  0  0  0
  -27.3640  -28.6350   20.7120 C   0  0  0  0  0  3  0  0  0  0  0  0
  -26.2260  -26.9410   19.4110 C   0  0  0  0  0  3  0  0  0  0  0  0
  -25.0550  -27.7190   19.4180 C   0  0  0  0  0  3  0  0  0  0  0  0
  -23.7770  -29.8190   20.1130 C   0  0  0  0  0  2  0  0  0  0  0  0
  -24.7800  -31.0560   22.0740 N   0  0  0  0  0  0  0  0  0  0  0  0
  -23.5910  -32.0990   23.7040 O   0  0  0  0  0  0  0  0  0  0  0  0
  -22.8660  -29.4170   22.4310 C   0  0  0  0  0  0  0  0  0  0  0  0
  -21.5370  -29.2470   22.3050 N   0  0  0  0  0  0  0  0  0  0  0  0
  -23.5440  -28.7640   23.2280 O   0  0  0  0  0  0  0  0  0  0  0  0
  -21.0510  -29.8210   21.6290 H   0  0  0  0  0  0  0  0  0  0  0  0
  -18.1470  -28.1040   22.8380 C   0  0  0  0  0  0  0  0  0  0  0  0
  -20.7170  -28.2920   23.0530 C   0  0  0  0  0  3  0  0  0  0  0  0
  -20.7700  -26.8900   22.4050 C   0  0  0  0  0  2  0  0  0  0  0  0
  -19.6330  -26.6400   21.4100 C   0  0  0  0  0  2  0  0  0  0  0  0
  -18.2720  -26.7870   22.0940 C   0  0  0  0  0  2  0  0  0  0  0  0
  -19.2930  -28.8190   23.2740 C   0  0  0  0  0  0  0  0  0  0  0  0
  -19.1170  -30.0570   23.9300 C   0  0  0  0  0  3  0  0  0  0  0  0
  -17.8290  -30.5770   24.1570 C   0  0  0  0  0  3  0  0  0  0  0  0
  -16.6970  -29.8570   23.7350 C   0  0  0  0  0  3  0  0  0  0  0  0
  -16.8570  -28.6250   23.0790 C   0  0  0  0  0  3  0  0  0  0  0  0
  -25.9480  -32.4890   23.8390 C   0  0  0  0  0  3  0  0  0  0  0  0
  -26.4200  -31.7320   25.1420 C   0  0  1  0  0  0  0  0  0  0  0  0
  -25.2910  -31.5150   26.1770 C   0  0  0  0  0  1  0  0  0  0  0  0
  -27.0100  -30.3450   24.7880 C   0  0  0  0  0  1  0  0  0  0  0  0
  -27.5470  -32.5330   25.8300 C   0  0  0  0  0  1  0  0  0  0  0  0
  -25.6270  -33.8910   24.1440 N   0  0  0  0  0  0  0  0  0  0  0  0
  -25.9790  -34.9350   23.3830 C   0  0  0  0  0  0  0  0  0  0  0  0
  -26.6780  -34.8190   22.3730 O   0  0  0  0  0  0  0  0  0  0  0  0
  -25.0190  -34.0580   24.9330 H   0  0  0  0  0  0  0  0  0  0  0  0
  -24.2840  -36.7370   22.9270 C   0  0  0  0  0  1  0  0  0  0  0  0
  -25.4760  -36.3270   23.8070 C   0  0  0  0  0  3  0  0  0  0  0  0
  -27.5550  -37.2200   24.7620 C   0  0  0  0  0  1  0  0  0  0  0  0
  -26.5200  -37.3750   23.7440 N   0  0  0  0  0  0  0  0  0  0  0  0
  -26.1110  -38.2990   23.8440 H   0  0  0  0  0  0  0  0  0  0  0  0
  1  3  2  0
  2  5  1  0
  3  2  1  0
  3 11  1  0
  4  2  2  0
  6 51  1  0
  6  5  1  0
  7  8  1  0
  8  1  1  0
  8  4  1  0
  9  4  1  0
  9  6  1  0
 11 10  1  0
 12 20  1  0
 13 18  1  0
 14 15  1  0
 14 13  1  0
 16 15  1  0
 16 25  1  0
 16 17  1  0
 18 12  1  0
 18 17  1  0
 19 12  2  0
 20 11  1  0
 20 21  1  0
 22 23  2  0
 23 42  1  0
 24 23  1  0
 24 27  1  0
 25 22  1  0
 25 26  1  0
 26 24  2  0
 27 28  1  0
 28 29  2  0
 30 33  1  0
 30 29  1  0
 31 30  2  0
 32 31  1  0
 32 27  2  0
 33 34  1  0
 34 39  2  0
 34 35  1  0
 35 36  2  0
 37 36  1  0
 37 41  1  0
 38 37  2  0
 39 38  1  0
 40 39  1  0
 42 43  1  0
 43 46  1  0
 43 45  1  0
 44 42  2  0
 47 48  1  0
 47 22  1  0
 49 47  1  0
 51 50  1  0
 52 53  1  0
 52 51  1  0
 54 65  2  0
 55 53  1  0
 55 60  1  0
 56 64  1  0
 56 66  1  0
 57 63  1  0
 57 59  1  0
 58 64  1  0
 59 60  2  0
 59 58  1  0
 61 62  1  0
 61 55  2  0
 62 57  2  0
 63 56  1  0
 64 54  1  0
 66 68  2  0
 67 66  1  0
 69 67  1  0
 70 79  2  0
 70 75  1  0
 71 67  1  0
 71 75  1  0
 72 71  1  0
 73 74  1  0
 73 72  1  0
 74 70  1  0
 75 76  2  0
 76 77  1  0
 78 77  2  0
 79 78  1  0
 80 54  1  0
 80 85  1  0
 80 81  1  0
 81 84  1  1
 81 82  1  0
 83 81  1  0
 85 88  1  0
 86 90  1  0
 86 85  1  0
 87 86  2  0
 90 89  1  0
 92 90  1  0
 92 93  1  0
 92 91  1  0
M  ISO  4  12 100  20 100  52 101  53 101
M  END
>  <TORSDO>  (63) 
F 19

>  <SCORE>  (63) 
-13.980

>  <name>  (63) 
62

>  <ligand_id>  (63) 
62

>  <original_smiles>  (63) 
[H]c1c([H])c([H])c2c(c1[H])C([H])([H])C([H])([H])C([H])([H])C2([H])N([H])C(=O)C1([H])N(C(=O)C([H])(N([H])C(=O)C([H])(N([H])C([H])([H])[H])C([H])([H])[H])C(C([H])([H])[H])(C([H])([H])[H])C([H])([H])[H])C([H])([H])c2c([H])c(OC([H])([H])C([H])(C([H])([H])[H])C3([H])Oc4c(c(C([H])(N([H])C(=O)N5C([H])([H])C([H])([H])C([H])([H])C([H])(n6nc(-c7c([H])c([H])c(Oc8c([H])c([H])c(F)c([H])c8F)c([H])c7[H])c(C(=O)N([H])[H])c6N([H])[H])C5([H])[H])C([H])([H])[H])c([H])n4C([H])([H])[H])C3([H])[H])c([H])c([H])c2C1([H])[H]

>  <smiles>  (63) 
[H]c1c([H])c([H])c2c(c1[H])C([H])([H])C([H])([H])C([H])([H])C2([H])N([H])C(=O)C1([H])N(C(=O)C([H])(N([H])C(=O)C([H])(N([H])C([H])([H])[H])C([H])([H])[H])C(C([H])([H])[H])(C([H])([H])[H])C([H])([H])[H])C([H])([H])c2c([H])c(OC([H])([H])C([H])(C([H])([H])[H])C3([H])Oc4c(c(C([H])(N([H])C(=O)N5C([H])([H])C([H])([H])C([H])([H])C([H])(n6nc(-c7c([H])c([H])c(Oc8c([H])c([H])c(F)c([H])c8F)c([H])c7[H])c(C(=O)N([H])[H])c6N([H])[H])C5([H])[H])C([H])([H])[H])c([H])n4C([H])([H])[H])C3([H])[H])c([H])c([H])c2C1([H])[H]

$$$$
63:0:0
     RDKit          3D

 97106  0  0  1  0  0  0  0  0999 V2000
  -30.7740  -22.9890   18.1100 C   0  0  0  0  0  3  0  0  0  0  0  0
  -29.1020  -24.0210   20.0950 C   0  0  0  0  0  3  0  0  0  0  0  0
  -30.4310  -22.1660   19.2080 C   0  0  0  0  0  0  0  0  0  0  0  0
  -29.4360  -24.8250   18.9930 C   0  0  0  0  0  0  0  0  0  0  0  0
  -29.6050  -22.7110   20.2360 C   0  0  0  0  0  0  0  0  0  0  0  0
  -30.2910  -24.3080   17.9980 C   0  0  0  0  0  0  0  0  0  0  0  0
  -29.0890  -22.6520   22.5810 C   0  0  0  0  0  1  0  0  0  0  0  0
  -29.2610  -21.9730   21.3430 O   0  0  0  0  0  0  0  0  0  0  0  0
  -30.6480  -25.0710   16.9220 O   0  0  0  0  0  0  0  0  0  0  0  0
  -31.3540  -24.6980   16.4060 H   0  0  0  0  0  0  0  0  0  0  0  0
  -30.9480  -20.7140   19.1540 C   0  0  0  0  0  2  0  0  0  0  0  0
  -32.0100  -20.2770   21.4110 C   0  0  0  0  0  1  0  0  0  0  0  0
  -30.8830  -19.8410   20.4450 C   0  0  0  0  0  3  0  0  0  0  0  0
  -30.9380  -14.4350   20.1150 C   0  0  0  0  0  0  0  0  0  0  0  0
  -30.5680  -12.2950   18.9880 C   0  0  0  0  0  2  0  0  0  0  0  0
  -29.5660  -12.5420   17.8430 C   0  0  0  0  0  2  0  0  0  0  0  0
  -28.1150  -12.4120   18.3500 C   0  0  0  0  0  2  0  0  0  0  0  0
  -27.8490  -13.2410   19.6330 C   0  0  0  0  0  3  0  0  0  0  0  0
  -28.9580  -12.9950   20.6820 C   0  0  0  0  0  2  0  0  0  0  0  0
  -30.2590  -13.2640   20.0440 N   0  0  0  0  0  0  0  0  0  0  0  0
  -32.0920  -14.5800   19.6980 O   0  0  0  0  0  0  0  0  0  0  0  0
  -29.7070  -17.8240   19.3260 C   0  0  0  0  0  2  0  0  0  0  0  0
  -30.7720  -17.5270   21.5770 C   0  0  0  0  0  2  0  0  0  0  0  0
  -29.8410  -16.3220   19.0340 C   0  0  0  0  0  2  0  0  0  0  0  0
  -29.9790  -16.1990   21.5210 C   0  0  0  0  0  2  0  0  0  0  0  0
  -30.8630  -18.3010   20.2290 C   0  0  0  0  0  3  0  0  0  0  0  0
  -30.1290  -15.5100   20.2350 N   0  0  0  0  0  0  0  0  0  0  0  0
  -25.5090  -13.8930   20.4760 C   0  0  0  0  0  0  0  0  0  0  0  0
  -24.4430  -13.1320   20.8790 C   0  0  0  0  0  0  0  0  0  0  0  0
  -24.8760  -11.7720   20.7930 C   0  0  0  0  0  0  0  0  0  0  0  0
  -26.5200  -12.9920   20.1740 N   0  0  0  0  0  0  0  0  0  0  0  0
  -26.1480  -11.7140   20.4280 N   0  0  0  0  0  0  0  0  0  0  0  0
  -24.1380  -10.5180   20.9830 C   0  0  0  0  0  0  0  0  0  0  0  0
  -24.5680   -9.5450   21.9130 C   0  0  0  0  0  3  0  0  0  0  0  0
  -23.8330   -8.3540   22.0940 C   0  0  0  0  0  3  0  0  0  0  0  0
  -22.6530   -8.1290   21.3450 C   0  0  0  0  0  0  0  0  0  0  0  0
  -22.2410   -9.0890   20.4040 C   0  0  0  0  0  3  0  0  0  0  0  0
  -22.9780  -10.2730   20.2210 C   0  0  0  0  0  3  0  0  0  0  0  0
  -21.8890   -6.9910   21.4360 O   0  0  0  0  0  0  0  0  0  0  0  0
  -21.8050   -6.2760   22.6010 C   0  0  0  0  0  0  0  0  0  0  0  0
  -21.3050   -6.8450   23.7930 C   0  0  0  0  0  3  0  0  0  0  0  0
  -21.1660   -6.0530   24.9490 C   0  0  0  0  0  3  0  0  0  0  0  0
  -21.5220   -4.6910   24.9150 C   0  0  0  0  0  0  0  0  0  0  0  0
  -22.0210   -4.1210   23.7300 C   0  0  0  0  0  3  0  0  0  0  0  0
  -22.1570   -4.9100   22.5760 C   0  0  0  0  0  0  0  0  0  0  0  0
  -22.6150   -4.3520   21.4300 F   0  0  0  0  0  0  0  0  0  0  0  0
  -21.3840   -3.9250   26.0230 F   0  0  0  0  0  0  0  0  0  0  0  0
  -23.0720  -13.6280   21.2290 C   0  0  0  0  0  0  0  0  0  0  0  0
  -22.3700  -12.9210   22.1080 N   0  0  0  0  0  0  0  0  0  0  0  0
  -22.6300  -14.6760   20.7580 O   0  0  0  0  0  0  0  0  0  0  0  0
  -22.7380  -12.0720   22.5110 H   0  0  0  0  0  0  0  0  0  0  0  0
  -21.4530  -13.2390   22.3890 H   0  0  0  0  0  0  0  0  0  0  0  0
  -25.6970  -15.2620   20.3240 N   0  0  0  0  0  0  0  0  0  0  0  0
  -24.9590  -15.9400   20.4830 H   0  0  0  0  0  0  0  0  0  0  0  0
  -26.5600  -15.6870   20.0090 H   0  0  0  0  0  0  0  0  0  0  0  0
  -28.8340  -26.2140   18.8880 C   0  0  0  0  0  2  0  0  0  0  0  0
  -28.3060  -26.6530   20.1350 O   0  0  0  0  0  0  0  0  0  0  0  0
  -24.4740  -31.7480   23.1840 C   0  0  0  0  0  0  0  0  0  0  0  0
  -27.1190  -27.3350   20.1100 C   0  0  0  0  0  0  0  0  0  0  0  0
  -23.2720  -30.3770   21.5070 C   0  0  0  0  0  3  0  0  0  0  0  0
  -24.7280  -28.8250   20.1000 C   0  0  0  0  0  0  0  0  0  0  0  0
  -25.7990  -30.7070   21.3550 C   0  0  0  0  0  2  0  0  0  0  0  0
  -25.8750  -29.3390   20.7170 C   0  0  0  0  0  0  0  0  0  0  0  0
  -27.0660  -28.5930   20.7390 C   0  0  0  0  0  3  0  0  0  0  0  0
  -25.9540  -26.8050   19.5160 C   0  0  0  0  0  3  0  0  0  0  0  0
  -24.7570  -27.5480   19.5080 C   0  0  0  0  0  3  0  0  0  0  0  0
  -23.4930  -29.6970   20.1290 C   0  0  0  0  0  2  0  0  0  0  0  0
  -24.5320  -30.9600   22.0750 N   0  0  0  0  0  0  0  0  0  0  0  0
  -23.3890  -32.0340   23.7100 O   0  0  0  0  0  0  0  0  0  0  0  0
  -22.5930  -29.3580   22.4480 C   0  0  0  0  0  0  0  0  0  0  0  0
  -21.2640  -29.2180   22.3120 N   0  0  0  0  0  0  0  0  0  0  0  0
  -23.2550  -28.6990   23.2540 O   0  0  0  0  0  0  0  0  0  0  0  0
  -20.7940  -29.8020   21.6340 H   0  0  0  0  0  0  0  0  0  0  0  0
  -17.8480  -28.1630   22.8160 C   0  0  0  0  0  0  0  0  0  0  0  0
  -20.4170  -28.2920   23.0620 C   0  0  0  0  0  3  0  0  0  0  0  0
  -20.4470  -26.8790   22.4370 C   0  0  0  0  0  2  0  0  0  0  0  0
  -19.3180  -26.6430   21.4280 C   0  0  0  0  0  2  0  0  0  0  0  0
  -17.9530  -26.8300   22.0960 C   0  0  0  0  0  2  0  0  0  0  0  0
  -19.0070  -28.8570   23.2560 C   0  0  0  0  0  0  0  0  0  0  0  0
  -18.8570  -30.1110   23.8880 C   0  0  0  0  0  3  0  0  0  0  0  0
  -17.5790  -30.6680   24.0870 C   0  0  0  0  0  3  0  0  0  0  0  0
  -16.4350  -29.9710   23.6610 C   0  0  0  0  0  3  0  0  0  0  0  0
  -16.5710  -28.7200   23.0320 C   0  0  0  0  0  3  0  0  0  0  0  0
  -25.7600  -32.3500   23.8330 C   0  0  0  0  0  3  0  0  0  0  0  0
  -25.4700  -33.7500   24.1670 N   0  0  0  0  0  0  0  0  0  0  0  0
  -25.8260  -34.8000   23.4130 C   0  0  0  0  0  0  0  0  0  0  0  0
  -26.5060  -34.6910   22.3870 O   0  0  0  0  0  0  0  0  0  0  0  0
  -24.8720  -33.9110   24.9630 H   0  0  0  0  0  0  0  0  0  0  0  0
  -24.1310  -36.6190   23.0380 C   0  0  0  0  0  1  0  0  0  0  0  0
  -25.3530  -36.1940   23.8680 C   0  0  0  0  0  3  0  0  0  0  0  0
  -27.4840  -37.0480   24.7390 C   0  0  0  0  0  1  0  0  0  0  0  0
  -26.4050  -37.2310   23.7730 N   0  0  0  0  0  0  0  0  0  0  0  0
  -26.0090  -38.1570   23.9080 H   0  0  0  0  0  0  0  0  0  0  0  0
  -26.2450  -31.5590   25.1100 C   0  0  1  0  0  0  0  0  0  0  0  0
  -25.1290  -31.3270   26.1570 C   0  0  0  0  0  1  0  0  0  0  0  0
  -26.8170  -30.1760   24.7120 C   0  0  0  0  0  1  0  0  0  0  0  0
  -27.3910  -32.3320   25.8020 C   0  0  0  0  0  1  0  0  0  0  0  0
  1  3  1  0
  2  5  1  0
  3  5  2  0
  4  2  2  0
  5  8  1  0
  6  1  2  0
  6  4  1  0
  8  7  1  0
  9  6  1  0
 10  9  1  0
 11  3  1  0
 11 13  1  0
 13 12  1  0
 14 27  1  0
 15 20  1  0
 16 17  1  0
 16 15  1  0
 18 17  1  0
 18 31  1  0
 18 19  1  0
 20 14  1  0
 20 19  1  0
 21 14  2  0
 22 26  1  0
 24 22  1  0
 24 27  1  0
 25 23  1  0
 26 13  1  0
 26 23  1  0
 27 25  1  0
 28 29  2  0
 29 48  1  0
 30 29  1  0
 30 33  1  0
 31 32  1  0
 31 28  1  0
 32 30  2  0
 33 34  1  0
 34 35  2  0
 36 39  1  0
 36 35  1  0
 37 36  2  0
 38 37  1  0
 38 33  2  0
 39 40  1  0
 40 41  1  0
 41 42  2  0
 43 42  1  0
 43 47  1  0
 44 43  2  0
 45 40  2  0
 45 44  1  0
 46 45  1  0
 48 49  1  0
 49 52  1  0
 49 51  1  0
 50 48  2  0
 53 28  1  0
 53 54  1  0
 55 53  1  0
 56  4  1  0
 56 57  1  0
 58 69  2  0
 59 57  1  0
 59 64  1  0
 60 68  1  0
 60 70  1  0
 61 67  1  0
 61 63  1  0
 62 68  1  0
 63 64  2  0
 63 62  1  0
 65 59  2  0
 66 65  1  0
 66 61  2  0
 67 60  1  0
 68 58  1  0
 70 72  2  0
 71 70  1  0
 73 71  1  0
 74 83  2  0
 74 79  1  0
 75 71  1  0
 75 79  1  0
 76 75  1  0
 77 78  1  0
 77 76  1  0
 78 74  1  0
 79 80  2  0
 80 81  1  0
 82 81  2  0
 83 82  1  0
 84 58  1  0
 84 85  1  0
 84 94  1  0
 85 88  1  0
 86 90  1  0
 86 85  1  0
 87 86  2  0
 90 89  1  0
 92 90  1  0
 92 93  1  0
 92 91  1  0
 94 97  1  1
 94 95  1  0
 96 94  1  0
M  ISO  4  14 100  27 100  56 101  57 101
M  END
>  <TORSDO>  (64) 
F 21

>  <SCORE>  (64) 
-13.650

>  <name>  (64) 
63

>  <ligand_id>  (64) 
63

>  <original_smiles>  (64) 
[H]Oc1c([H])c(C([H])([H])C([H])(C([H])([H])[H])C2([H])C([H])([H])C([H])([H])N(C(=O)N3C([H])([H])C([H])([H])C([H])([H])C([H])(n4nc(-c5c([H])c([H])c(Oc6c([H])c([H])c(F)c([H])c6F)c([H])c5[H])c(C(=O)N([H])[H])c4N([H])[H])C3([H])[H])C([H])([H])C2([H])[H])c(OC([H])([H])[H])c([H])c1C([H])([H])Oc1c([H])c([H])c2c(c1[H])C([H])([H])N(C(=O)C([H])(N([H])C(=O)C([H])(N([H])C([H])([H])[H])C([H])([H])[H])C(C([H])([H])[H])(C([H])([H])[H])C([H])([H])[H])C([H])(C(=O)N([H])C1([H])c3c([H])c([H])c([H])c([H])c3C([H])([H])C([H])([H])C1([H])[H])C2([H])[H]

>  <smiles>  (64) 
[H]Oc1c([H])c(C([H])([H])C([H])(C([H])([H])[H])C2([H])C([H])([H])C([H])([H])N(C(=O)N3C([H])([H])C([H])([H])C([H])([H])C([H])(n4nc(-c5c([H])c([H])c(Oc6c([H])c([H])c(F)c([H])c6F)c([H])c5[H])c(C(=O)N([H])[H])c4N([H])[H])C3([H])[H])C([H])([H])C2([H])[H])c(OC([H])([H])[H])c([H])c1C([H])([H])Oc1c([H])c([H])c2c(c1[H])C([H])([H])N(C(=O)C([H])(N([H])C(=O)C([H])(N([H])C([H])([H])[H])C([H])([H])[H])C(C([H])([H])[H])(C([H])([H])[H])C([H])([H])[H])C([H])(C(=O)N([H])C1([H])c3c([H])c([H])c([H])c([H])c3C([H])([H])C([H])([H])C1([H])[H])C2([H])[H]

$$$$
64:0:0
     RDKit          3D

 90 99  0  0  1  0  0  0  0  0999 V2000
  -30.4830  -15.0090   20.3820 C   0  0  0  0  0  0  0  0  0  0  0  0
  -30.4200  -12.6480   19.4630 C   0  0  0  0  0  2  0  0  0  0  0  0
  -29.4860  -12.5890   18.2290 C   0  0  0  0  0  2  0  0  0  0  0  0
  -28.0090  -12.4130   18.6450 C   0  0  0  0  0  2  0  0  0  0  0  0
  -27.6030  -13.3310   19.8290 C   0  0  0  0  0  3  0  0  0  0  0  0
  -28.6530  -13.2990   20.9580 C   0  0  0  0  0  2  0  0  0  0  0  0
  -29.9220  -13.7310   20.3560 N   0  0  0  0  0  0  0  0  0  0  0  0
  -31.7120  -15.0770   20.2170 O   0  0  0  0  0  0  0  0  0  0  0  0
  -29.2030  -18.8480   17.9100 C   0  0  0  0  0  3  0  0  0  0  0  0
  -29.3590  -18.9750   20.7750 C   0  0  0  0  0  3  0  0  0  0  0  0
  -29.4530  -17.7130   18.6770 C   0  0  0  0  0  0  0  0  0  0  0  0
  -29.0340  -20.0970   18.5760 C   0  0  0  0  0  0  0  0  0  0  0  0
  -29.0770  -20.2510   20.0150 C   0  0  0  0  0  0  0  0  0  0  0  0
  -29.6040  -17.6790   20.0920 C   0  0  0  0  0  0  0  0  0  0  0  0
  -29.4790  -16.2230   18.5580 C   0  0  0  0  0  2  0  0  0  0  0  0
  -28.7090  -21.2570   17.6560 C   0  0  0  0  0  1  0  0  0  0  0  0
  -29.6390  -16.1260   20.0620 N   0  0  0  0  0  0  0  0  0  0  0  0
  -25.2150  -13.9430   20.5160 C   0  0  0  0  0  0  0  0  0  0  0  0
  -24.1380  -13.1810   20.8740 C   0  0  0  0  0  0  0  0  0  0  0  0
  -24.5950  -11.8260   20.8680 C   0  0  0  0  0  0  0  0  0  0  0  0
  -26.2560  -13.0530   20.3090 N   0  0  0  0  0  0  0  0  0  0  0  0
  -25.8910  -11.7760   20.5870 N   0  0  0  0  0  0  0  0  0  0  0  0
  -23.8580  -10.5690   21.0570 C   0  0  0  0  0  0  0  0  0  0  0  0
  -24.2800   -9.5960   21.9910 C   0  0  0  0  0  3  0  0  0  0  0  0
  -23.5410   -8.4070   22.1700 C   0  0  0  0  0  3  0  0  0  0  0  0
  -22.3680   -8.1800   21.4150 C   0  0  0  0  0  0  0  0  0  0  0  0
  -21.9650   -9.1390   20.4710 C   0  0  0  0  0  3  0  0  0  0  0  0
  -22.7040  -10.3200   20.2880 C   0  0  0  0  0  3  0  0  0  0  0  0
  -21.6000   -7.0440   21.5050 O   0  0  0  0  0  0  0  0  0  0  0  0
  -21.5590   -6.2940   22.6510 C   0  0  0  0  0  0  0  0  0  0  0  0
  -21.1740   -6.8470   23.8920 C   0  0  0  0  0  3  0  0  0  0  0  0
  -21.0790   -6.0230   25.0320 C   0  0  0  0  0  3  0  0  0  0  0  0
  -21.3560   -4.6470   24.9320 C   0  0  0  0  0  0  0  0  0  0  0  0
  -21.7320   -4.0930   23.6950 C   0  0  0  0  0  3  0  0  0  0  0  0
  -21.8290   -4.9140   22.5590 C   0  0  0  0  0  0  0  0  0  0  0  0
  -22.1740   -4.3720   21.3650 F   0  0  0  0  0  0  0  0  0  0  0  0
  -21.2550   -3.8530   26.0220 F   0  0  0  0  0  0  0  0  0  0  0  0
  -22.7370  -13.6680   21.1040 C   0  0  0  0  0  0  0  0  0  0  0  0
  -21.9860  -12.9920   21.9660 N   0  0  0  0  0  0  0  0  0  0  0  0
  -22.3130  -14.6850   20.5570 O   0  0  0  0  0  0  0  0  0  0  0  0
  -22.3350  -12.1680   22.4340 H   0  0  0  0  0  0  0  0  0  0  0  0
  -21.0440  -13.2990   22.1580 H   0  0  0  0  0  0  0  0  0  0  0  0
  -25.3880  -15.3110   20.3270 N   0  0  0  0  0  0  0  0  0  0  0  0
  -24.6340  -15.9760   20.4540 H   0  0  0  0  0  0  0  0  0  0  0  0
  -26.2600  -15.7490   20.0600 H   0  0  0  0  0  0  0  0  0  0  0  0
  -28.6490  -21.7230   20.6910 C   0  0  0  0  0  3  0  0  0  0  0  0
  -28.7790  -23.3160   20.0790 C   0  0  0  0  0  3  0  0  0  0  0  0
  -28.7370  -24.7740   22.2280 C   0  0  0  0  0  1  0  0  0  0  0  0
  -28.1820  -24.7300   20.7980 C   0  0  0  0  0  3  0  0  0  0  0  0
  -28.3700  -26.2110   20.3280 O   0  0  0  0  0  0  0  0  0  0  0  0
  -24.6650  -31.9090   23.2460 C   0  0  0  0  0  0  0  0  0  0  0  0
  -27.3010  -27.1750   20.3150 C   0  0  0  0  0  0  0  0  0  0  0  0
  -23.4900  -30.4870   21.6170 C   0  0  0  0  0  3  0  0  0  0  0  0
  -24.9580  -28.8990   20.2290 C   0  0  0  0  0  0  0  0  0  0  0  0
  -26.0400  -30.7750   21.4530 C   0  0  0  0  0  2  0  0  0  0  0  0
  -26.1300  -29.3680   20.8370 C   0  0  0  0  0  0  0  0  0  0  0  0
  -27.3010  -28.5220   20.8640 C   0  0  0  0  0  3  0  0  0  0  0  0
  -26.1070  -26.8050   19.6630 C   0  0  0  0  0  3  0  0  0  0  0  0
  -24.9580  -27.6290   19.6290 C   0  0  0  0  0  3  0  0  0  0  0  0
  -23.7230  -29.7870   20.2500 C   0  0  0  0  0  2  0  0  0  0  0  0
  -24.7530  -31.0780   22.1610 N   0  0  0  0  0  0  0  0  0  0  0  0
  -23.5730  -32.1890   23.7630 O   0  0  0  0  0  0  0  0  0  0  0  0
  -22.8170  -29.4850   22.5870 C   0  0  0  0  0  0  0  0  0  0  0  0
  -21.4920  -29.3080   22.4590 N   0  0  0  0  0  0  0  0  0  0  0  0
  -23.4940  -28.8730   23.4180 O   0  0  0  0  0  0  0  0  0  0  0  0
  -21.0010  -29.8570   21.7670 H   0  0  0  0  0  0  0  0  0  0  0  0
  -18.1260  -28.0790   22.9720 C   0  0  0  0  0  0  0  0  0  0  0  0
  -20.6790  -28.3740   23.2420 C   0  0  0  0  0  3  0  0  0  0  0  0
  -20.8000  -26.9340   22.6880 C   0  0  0  0  0  2  0  0  0  0  0  0
  -19.7030  -26.5830   21.6780 C   0  0  0  0  0  2  0  0  0  0  0  0
  -18.3170  -26.7230   22.3130 C   0  0  0  0  0  2  0  0  0  0  0  0
  -19.2350  -28.8590   23.3950 C   0  0  0  0  0  0  0  0  0  0  0  0
  -18.9960  -30.1260   23.9730 C   0  0  0  0  0  3  0  0  0  0  0  0
  -17.6840  -30.6110   24.1280 C   0  0  0  0  0  3  0  0  0  0  0  0
  -16.5920  -29.8340   23.7070 C   0  0  0  0  0  3  0  0  0  0  0  0
  -16.8120  -28.5680   23.1380 C   0  0  0  0  0  3  0  0  0  0  0  0
  -25.9290  -32.5700   23.8730 C   0  0  0  0  0  3  0  0  0  0  0  0
  -25.5850  -33.9650   24.1970 N   0  0  0  0  0  0  0  0  0  0  0  0
  -25.9100  -35.0240   23.4450 C   0  0  0  0  0  0  0  0  0  0  0  0
  -26.5920  -34.9300   22.4190 O   0  0  0  0  0  0  0  0  0  0  0  0
  -24.9570  -34.1100   24.9720 H   0  0  0  0  0  0  0  0  0  0  0  0
  -24.1500  -36.7970   23.1010 C   0  0  0  0  0  1  0  0  0  0  0  0
  -25.4020  -36.4090   23.9020 C   0  0  0  0  0  3  0  0  0  0  0  0
  -27.5360  -37.3310   24.7060 C   0  0  0  0  0  1  0  0  0  0  0  0
  -26.4200  -37.4750   23.7740 N   0  0  0  0  0  0  0  0  0  0  0  0
  -26.0020  -38.3950   23.9020 H   0  0  0  0  0  0  0  0  0  0  0  0
  -26.4450  -31.8210   25.1610 C   0  0  1  0  0  0  0  0  0  0  0  0
  -25.3490  -31.5820   26.2270 C   0  0  0  0  0  1  0  0  0  0  0  0
  -27.0550  -30.4510   24.7820 C   0  0  0  0  0  1  0  0  0  0  0  0
  -27.5790  -32.6350   25.8260 C   0  0  0  0  0  1  0  0  0  0  0  0
  2  7  1  0
  3  4  1  0
  3  2  1  0
  5  4  1  0
  5 21  1  0
  5  6  1  0
  7  1  1  0
  7  6  1  0
  8  1  2  0
  9 12  2  0
  9 11  1  0
 11 14  2  0
 12 13  1  0
 13 46  1  0
 13 10  2  0
 14 10  1  0
 15 11  1  0
 15 17  1  0
 16 12  1  0
 17 14  1  0
 17  1  1  0
 18 19  2  0
 19 38  1  0
 20 19  1  0
 20 23  1  0
 21 18  1  0
 21 22  1  0
 22 20  2  0
 23 24  1  0
 24 25  2  0
 26 29  1  0
 26 25  1  0
 27 26  2  0
 28 27  1  0
 28 23  2  0
 29 30  1  0
 30 31  1  0
 31 32  2  0
 33 32  1  0
 33 37  1  0
 34 33  2  0
 35 30  2  0
 35 34  1  0
 36 35  1  0
 38 39  1  0
 39 42  1  0
 39 41  1  0
 40 38  2  0
 43 44  1  0
 43 18  1  0
 45 43  1  0
 47 46  2  0
 47 49  1  0
 49 48  1  0
 50 49  1  0
 51 62  2  0
 52 50  1  0
 52 57  1  0
 53 61  1  0
 53 63  1  0
 54 60  1  0
 54 56  1  0
 55 61  1  0
 56 57  2  0
 56 55  1  0
 58 52  2  0
 59 58  1  0
 59 54  2  0
 60 53  1  0
 61 51  1  0
 63 65  2  0
 64 63  1  0
 66 64  1  0
 67 76  2  0
 67 72  1  0
 68 64  1  0
 68 72  1  0
 69 68  1  0
 70 71  1  0
 70 69  1  0
 71 67  1  0
 72 73  2  0
 73 74  1  0
 75 74  2  0
 76 75  1  0
 77 51  1  0
 77 78  1  0
 77 87  1  0
 78 81  1  0
 79 83  1  0
 79 78  1  0
 80 79  2  0
 83 82  1  0
 85 83  1  0
 85 86  1  0
 85 84  1  0
 87 90  1  1
 87 88  1  0
 89 87  1  0
M  ISO  4   1 100  17 100  49 101  50 101
M  END
>  <TORSDO>  (65) 
F 18

>  <SCORE>  (65) 
-15.423

>  <name>  (65) 
64

>  <ligand_id>  (65) 
64

>  <original_smiles>  (65) 
[H]c1c([H])c([H])c2c(c1[H])C([H])([H])C([H])([H])C([H])([H])C2([H])N([H])C(=O)C1([H])N(C(=O)C([H])(N([H])C(=O)C([H])(N([H])C([H])([H])[H])C([H])([H])[H])C(C([H])([H])[H])(C([H])([H])[H])C([H])([H])[H])C([H])([H])c2c([H])c(OC([H])(C([H])([H])[H])C([H])([H])C([H])([H])c3c([H])c4c(c([H])c3C([H])([H])[H])C([H])([H])N4C(=O)N3C([H])([H])C([H])([H])C([H])([H])C([H])(n4nc(-c5c([H])c([H])c(Oc6c([H])c([H])c(F)c([H])c6F)c([H])c5[H])c(C(=O)N([H])[H])c4N([H])[H])C3([H])[H])c([H])c([H])c2C1([H])[H]

>  <smiles>  (65) 
[H]c1c([H])c([H])c2c(c1[H])C([H])([H])C([H])([H])C([H])([H])C2([H])N([H])C(=O)C1([H])N(C(=O)C([H])(N([H])C(=O)C([H])(N([H])C([H])([H])[H])C([H])([H])[H])C(C([H])([H])[H])(C([H])([H])[H])C([H])([H])[H])C([H])([H])c2c([H])c(OC([H])(C([H])([H])[H])C([H])([H])C([H])([H])c3c([H])c4c(c([H])c3C([H])([H])[H])C([H])([H])N4C(=O)N3C([H])([H])C([H])([H])C([H])([H])C([H])(n4nc(-c5c([H])c([H])c(Oc6c([H])c([H])c(F)c([H])c6F)c([H])c5[H])c(C(=O)N([H])[H])c4N([H])[H])C3([H])[H])c([H])c([H])c2C1([H])[H]

$$$$
65:0:0
     RDKit          3D

 95105  0  0  1  0  0  0  0  0999 V2000
  -29.8440  -21.3780   22.7360 C   0  0  0  0  0  3  0  0  0  0  0  0
  -29.6390  -20.0820   22.2080 C   0  0  0  0  0  3  0  0  0  0  0  0
  -29.1730  -21.0450   20.0020 C   0  0  0  0  0  3  0  0  0  0  0  0
  -29.6940  -22.4910   21.8870 C   0  0  0  0  0  0  0  0  0  0  0  0
  -29.3810  -22.3330   20.5470 C   0  0  0  0  0  0  0  0  0  0  0  0
  -29.2860  -19.9080   20.8460 C   0  0  0  0  0  0  0  0  0  0  0  0
  -29.8020  -23.9480   22.2610 C   0  0  0  0  0  2  0  0  0  0  0  0
  -29.2780  -23.6690   19.8400 C   0  0  0  0  0  2  0  0  0  0  0  0
  -29.5550  -24.7450   20.9400 C   0  0  0  0  0  3  0  0  0  0  0  0
  -28.9680  -18.6450   20.3180 N   0  0  0  0  0  0  0  0  0  0  0  0
  -28.7990  -18.6760   19.3190 H   0  0  0  0  0  0  0  0  0  0  0  0
  -29.6840  -17.4280   20.7240 C   0  0  0  0  0  2  0  0  0  0  0  0
  -31.5110  -14.7470   20.4970 C   0  0  0  0  0  0  0  0  0  0  0  0
  -31.1660  -12.4700   19.6990 C   0  0  0  0  0  2  0  0  0  0  0  0
  -30.2990  -12.5030   18.4230 C   0  0  0  0  0  2  0  0  0  0  0  0
  -28.8050  -12.4770   18.7830 C   0  0  0  0  0  2  0  0  0  0  0  0
  -28.4110  -13.5010   19.8820 C   0  0  0  0  0  3  0  0  0  0  0  0
  -29.4010  -13.4600   21.0670 C   0  0  0  0  0  2  0  0  0  0  0  0
  -30.7600  -13.6140   20.5190 N   0  0  0  0  0  0  0  0  0  0  0  0
  -32.7190  -14.7290   20.7200 O   0  0  0  0  0  0  0  0  0  0  0  0
  -31.2960  -16.6530   17.3590 C   0  0  0  0  0  2  0  0  0  0  0  0
  -30.4920  -17.5590   18.2730 C   0  0  0  0  0  2  0  0  0  0  0  0
  -31.9660  -15.6940   18.3340 C   0  0  0  0  0  2  0  0  0  0  0  0
  -30.7930  -17.0670   19.7130 C   0  0  0  0  0  3  0  0  0  0  0  0
  -31.1070  -15.6300   19.5370 N   0  0  0  0  0  0  0  0  0  0  0  0
  -26.0230  -14.2630   20.4740 C   0  0  0  0  0  0  0  0  0  0  0  0
  -24.8830  -13.5660   20.7670 C   0  0  0  0  0  0  0  0  0  0  0  0
  -25.2570  -12.1880   20.7690 C   0  0  0  0  0  0  0  0  0  0  0  0
  -27.0220  -13.3160   20.3060 N   0  0  0  0  0  0  0  0  0  0  0  0
  -26.5610  -12.0640   20.5540 N   0  0  0  0  0  0  0  0  0  0  0  0
  -24.4410  -10.9750   20.9040 C   0  0  0  0  0  0  0  0  0  0  0  0
  -24.7680   -9.9680   21.8370 C   0  0  0  0  0  3  0  0  0  0  0  0
  -23.9580   -8.8180   21.9610 C   0  0  0  0  0  3  0  0  0  0  0  0
  -22.8060   -8.6690   21.1530 C   0  0  0  0  0  0  0  0  0  0  0  0
  -22.4970   -9.6670   20.2120 C   0  0  0  0  0  3  0  0  0  0  0  0
  -23.3080  -10.8070   20.0840 C   0  0  0  0  0  3  0  0  0  0  0  0
  -21.9730   -7.5760   21.1870 O   0  0  0  0  0  0  0  0  0  0  0  0
  -21.8190   -6.8230   22.3240 C   0  0  0  0  0  0  0  0  0  0  0  0
  -21.3520   -7.3850   23.5330 C   0  0  0  0  0  3  0  0  0  0  0  0
  -21.1420   -6.5630   24.6570 C   0  0  0  0  0  3  0  0  0  0  0  0
  -21.3890   -5.1780   24.5740 C   0  0  0  0  0  0  0  0  0  0  0  0
  -21.8460   -4.6150   23.3690 C   0  0  0  0  0  3  0  0  0  0  0  0
  -22.0560   -5.4360   22.2460 C   0  0  0  0  0  0  0  0  0  0  0  0
  -22.4760   -4.8840   21.0820 F   0  0  0  0  0  0  0  0  0  0  0  0
  -21.1790   -4.3870   25.6520 F   0  0  0  0  0  0  0  0  0  0  0  0
  -23.5020  -14.1350   20.9350 C   0  0  0  0  0  0  0  0  0  0  0  0
  -22.6810  -13.5080   21.7700 N   0  0  0  0  0  0  0  0  0  0  0  0
  -23.1580  -15.1630   20.3580 O   0  0  0  0  0  0  0  0  0  0  0  0
  -22.9670  -12.6730   22.2600 H   0  0  0  0  0  0  0  0  0  0  0  0
  -21.7470  -13.8670   21.9180 H   0  0  0  0  0  0  0  0  0  0  0  0
  -26.2880  -15.6180   20.3090 N   0  0  0  0  0  0  0  0  0  0  0  0
  -25.5700  -16.3270   20.4070 H   0  0  0  0  0  0  0  0  0  0  0  0
  -27.1930  -16.0020   20.0740 H   0  0  0  0  0  0  0  0  0  0  0  0
  -28.4410  -25.8200   21.0950 C   0  0  0  0  0  2  0  0  0  0  0  0
  -28.4740  -26.8770   20.1150 O   0  0  0  0  0  0  0  0  0  0  0  0
  -24.6190  -31.9790   23.2690 C   0  0  0  0  0  0  0  0  0  0  0  0
  -27.3260  -27.6350   20.1120 C   0  0  0  0  0  0  0  0  0  0  0  0
  -23.4320  -30.5830   21.6090 C   0  0  0  0  0  3  0  0  0  0  0  0
  -24.9090  -29.1020   20.1460 C   0  0  0  0  0  0  0  0  0  0  0  0
  -25.9510  -30.9960   21.4040 C   0  0  0  0  0  2  0  0  0  0  0  0
  -26.0620  -29.6390   20.7370 C   0  0  0  0  0  0  0  0  0  0  0  0
  -27.2770  -28.9160   20.7100 C   0  0  0  0  0  3  0  0  0  0  0  0
  -26.1580  -27.1090   19.5210 C   0  0  0  0  0  3  0  0  0  0  0  0
  -24.9530  -27.8370   19.5340 C   0  0  0  0  0  3  0  0  0  0  0  0
  -23.6460  -29.9330   20.2180 C   0  0  0  0  0  2  0  0  0  0  0  0
  -24.6850  -31.1990   22.1520 N   0  0  0  0  0  0  0  0  0  0  0  0
  -23.5370  -32.2210   23.8200 O   0  0  0  0  0  0  0  0  0  0  0  0
  -22.8070  -29.5310   22.5550 C   0  0  0  0  0  0  0  0  0  0  0  0
  -21.4890  -29.3160   22.4220 N   0  0  0  0  0  0  0  0  0  0  0  0
  -23.5050  -28.9100   23.3610 O   0  0  0  0  0  0  0  0  0  0  0  0
  -20.9860  -29.8660   21.7410 H   0  0  0  0  0  0  0  0  0  0  0  0
  -18.1410  -28.0430   22.9080 C   0  0  0  0  0  0  0  0  0  0  0  0
  -20.6930  -28.3480   23.1790 C   0  0  0  0  0  3  0  0  0  0  0  0
  -20.8230  -26.9300   22.5780 C   0  0  0  0  0  2  0  0  0  0  0  0
  -19.7280  -26.6030   21.5600 C   0  0  0  0  0  2  0  0  0  0  0  0
  -18.3440  -26.7090   22.2090 C   0  0  0  0  0  2  0  0  0  0  0  0
  -19.2450  -28.8200   23.3490 C   0  0  0  0  0  0  0  0  0  0  0  0
  -19.0040  -30.0680   23.9610 C   0  0  0  0  0  3  0  0  0  0  0  0
  -17.6900  -30.5410   24.1370 C   0  0  0  0  0  3  0  0  0  0  0  0
  -16.5990  -29.7610   23.7150 C   0  0  0  0  0  3  0  0  0  0  0  0
  -16.8270  -28.5130   23.1070 C   0  0  0  0  0  3  0  0  0  0  0  0
  -25.8970  -32.6250   23.8910 C   0  0  0  0  0  3  0  0  0  0  0  0
  -26.4100  -31.8690   25.1770 C   0  0  1  0  0  0  0  0  0  0  0  0
  -25.3090  -31.6180   26.2330 C   0  0  0  0  0  1  0  0  0  0  0  0
  -27.0190  -30.4980   24.7980 C   0  0  0  0  0  1  0  0  0  0  0  0
  -27.5400  -32.6840   25.8500 C   0  0  0  0  0  1  0  0  0  0  0  0
  -25.5770  -34.0230   24.2050 N   0  0  0  0  0  0  0  0  0  0  0  0
  -25.9160  -35.0710   23.4410 C   0  0  0  0  0  0  0  0  0  0  0  0
  -26.6020  -34.9600   22.4210 O   0  0  0  0  0  0  0  0  0  0  0  0
  -24.9640  -34.1820   24.9920 H   0  0  0  0  0  0  0  0  0  0  0  0
  -24.1830  -36.8490   23.0440 C   0  0  0  0  0  1  0  0  0  0  0  0
  -25.4140  -36.4590   23.8780 C   0  0  0  0  0  3  0  0  0  0  0  0
  -27.5280  -37.3640   24.7390 C   0  0  0  0  0  1  0  0  0  0  0  0
  -26.4420  -37.5170   23.7750 N   0  0  0  0  0  0  0  0  0  0  0  0
  -26.0280  -38.4350   23.9060 H   0  0  0  0  0  0  0  0  0  0  0  0
  2  1  1  0
  3  5  2  0
  3  6  1  0
  4  7  1  0
  4  1  2  0
  5  4  1  0
  6  2  2  0
  8  5  1  0
  8  9  1  0
  9 54  1  0
  9  7  1  0
 10 12  1  0
 10  6  1  0
 11 10  1  0
 13 19  1  0
 13 20  2  0
 14 19  1  0
 15 16  1  0
 15 14  1  0
 17 16  1  0
 17 29  1  0
 17 18  1  0
 19 18  1  0
 21 22  1  0
 21 23  1  0
 22 24  1  0
 23 25  1  0
 24 12  1  0
 25 24  1  0
 25 13  1  0
 26 27  2  0
 27 28  1  0
 27 46  1  0
 28 31  1  0
 29 26  1  0
 29 30  1  0
 30 28  2  0
 31 32  1  0
 32 33  2  0
 34 37  1  0
 34 33  1  0
 35 34  2  0
 36 35  1  0
 36 31  2  0
 37 38  1  0
 38 39  1  0
 39 40  2  0
 41 40  1  0
 41 45  1  0
 42 41  2  0
 43 38  2  0
 43 42  1  0
 44 43  1  0
 46 47  1  0
 47 50  1  0
 47 49  1  0
 48 46  2  0
 51 52  1  0
 51 26  1  0
 53 51  1  0
 55 54  1  0
 56 67  2  0
 57 55  1  0
 57 62  1  0
 58 66  1  0
 58 68  1  0
 59 65  1  0
 59 61  1  0
 60 66  1  0
 61 60  1  0
 62 61  2  0
 63 64  1  0
 63 57  2  0
 64 59  2  0
 65 58  1  0
 66 56  1  0
 68 70  2  0
 69 68  1  0
 71 69  1  0
 72 81  2  0
 72 77  1  0
 73 69  1  0
 73 77  1  0
 74 73  1  0
 75 76  1  0
 75 74  1  0
 76 72  1  0
 77 78  2  0
 78 79  1  0
 80 79  2  0
 81 80  1  0
 82 56  1  0
 82 87  1  0
 82 83  1  0
 83 86  1  1
 83 84  1  0
 85 83  1  0
 87 90  1  0
 88 92  1  0
 88 87  1  0
 89 88  2  0
 92 91  1  0
 94 92  1  0
 94 95  1  0
 94 93  1  0
M  ISO  4  13 100  25 100  54 101  55 101
M  END
>  <TORSDO>  (66) 
F 19

>  <SCORE>  (66) 
-12.837

>  <name>  (66) 
65

>  <ligand_id>  (66) 
65

>  <original_smiles>  (66) 
[H]c1c([H])c([H])c2c(c1[H])C([H])([H])C([H])([H])C([H])([H])C2([H])N([H])C(=O)C1([H])N(C(=O)C([H])(N([H])C(=O)C([H])(N([H])C([H])([H])[H])C([H])([H])[H])C(C([H])([H])[H])(C([H])([H])[H])C([H])([H])[H])C([H])([H])c2c([H])c(OC([H])([H])C3([H])C([H])([H])c4c([H])c([H])c(N([H])C([H])([H])C5([H])N(C(=O)N6C([H])([H])C([H])([H])C([H])([H])C([H])(n7nc(-c8c([H])c([H])c(Oc9c([H])c([H])c(F)c([H])c9F)c([H])c8[H])c(C(=O)N([H])[H])c7N([H])[H])C6([H])[H])C([H])([H])C([H])([H])C5([H])[H])c([H])c4C3([H])[H])c([H])c([H])c2C1([H])[H]

>  <smiles>  (66) 
[H]c1c([H])c([H])c2c(c1[H])C([H])([H])C([H])([H])C([H])([H])C2([H])N([H])C(=O)C1([H])N(C(=O)C([H])(N([H])C(=O)C([H])(N([H])C([H])([H])[H])C([H])([H])[H])C(C([H])([H])[H])(C([H])([H])[H])C([H])([H])[H])C([H])([H])c2c([H])c(OC([H])([H])C3([H])C([H])([H])c4c([H])c([H])c(N([H])C([H])([H])C5([H])N(C(=O)N6C([H])([H])C([H])([H])C([H])([H])C([H])(n7nc(-c8c([H])c([H])c(Oc9c([H])c([H])c(F)c([H])c9F)c([H])c8[H])c(C(=O)N([H])[H])c7N([H])[H])C6([H])[H])C([H])([H])C([H])([H])C5([H])[H])c([H])c4C3([H])[H])c([H])c([H])c2C1([H])[H]

$$$$
66:0:0
     RDKit          3D

 93102  0  0  1  0  0  0  0  0999 V2000
  -31.4090  -21.2160   20.0830 C   0  0  0  0  0  1  0  0  0  0  0  0
  -29.9450  -20.8640   20.3880 C   0  0  0  0  0  3  0  0  0  0  0  0
  -30.9020  -15.1110   20.9480 C   0  0  0  0  0  0  0  0  0  0  0  0
  -30.9010  -12.6320   20.3450 C   0  0  0  0  0  2  0  0  0  0  0  0
  -30.1460  -12.3390   19.0270 C   0  0  0  0  0  2  0  0  0  0  0  0
  -28.6410  -12.1490   19.2910 C   0  0  0  0  0  2  0  0  0  0  0  0
  -28.0620  -13.2280   20.2400 C   0  0  0  0  0  3  0  0  0  0  0  0
  -28.9570  -13.4880   21.4710 C   0  0  0  0  0  2  0  0  0  0  0  0
  -30.2880  -13.8490   20.9580 N   0  0  0  0  0  0  0  0  0  0  0  0
  -32.1340  -15.1080   21.0470 O   0  0  0  0  0  0  0  0  0  0  0  0
  -28.3610  -17.1300   19.1660 C   0  0  0  0  0  2  0  0  0  0  0  0
  -29.6950  -16.3650   19.1910 C   0  0  0  0  0  2  0  0  0  0  0  0
  -30.3320  -17.8740   20.9470 C   0  0  0  0  0  2  0  0  0  0  0  0
  -28.4770  -18.6850   19.1610 C   0  0  0  0  0  3  0  0  0  0  0  0
  -29.7450  -19.1800   19.9850 C   0  0  0  0  0  3  0  0  0  0  0  0
  -30.2020  -16.3250   20.5630 N   0  0  0  0  0  0  0  0  0  0  0  0
  -25.6160  -13.8590   20.6240 C   0  0  0  0  0  0  0  0  0  0  0  0
  -24.5020  -13.1220   20.8930 C   0  0  0  0  0  0  0  0  0  0  0  0
  -24.9470  -11.7710   21.0010 C   0  0  0  0  0  0  0  0  0  0  0  0
  -26.6710  -12.9660   20.5860 N   0  0  0  0  0  0  0  0  0  0  0  0
  -26.2690  -11.7040   20.8810 N   0  0  0  0  0  0  0  0  0  0  0  0
  -24.1820  -10.5320   21.1560 C   0  0  0  0  0  0  0  0  0  0  0  0
  -24.5260   -9.5770   22.1360 C   0  0  0  0  0  3  0  0  0  0  0  0
  -23.7600   -8.4020   22.2830 C   0  0  0  0  0  3  0  0  0  0  0  0
  -22.6370   -8.1790   21.4510 C   0  0  0  0  0  0  0  0  0  0  0  0
  -22.3170   -9.1230   20.4590 C   0  0  0  0  0  3  0  0  0  0  0  0
  -23.0840  -10.2890   20.3090 C   0  0  0  0  0  3  0  0  0  0  0  0
  -21.8470   -7.0560   21.5080 O   0  0  0  0  0  0  0  0  0  0  0  0
  -21.7450   -6.3040   22.6500 C   0  0  0  0  0  0  0  0  0  0  0  0
  -21.2820   -6.8540   23.8640 C   0  0  0  0  0  3  0  0  0  0  0  0
  -21.1190   -6.0290   24.9940 C   0  0  0  0  0  3  0  0  0  0  0  0
  -21.4130   -4.6550   24.9130 C   0  0  0  0  0  0  0  0  0  0  0  0
  -21.8730   -4.1030   23.7030 C   0  0  0  0  0  3  0  0  0  0  0  0
  -22.0340   -4.9250   22.5730 C   0  0  0  0  0  0  0  0  0  0  0  0
  -22.4540   -4.3840   21.4050 F   0  0  0  0  0  0  0  0  0  0  0  0
  -21.2520   -3.8610   25.9970 F   0  0  0  0  0  0  0  0  0  0  0  0
  -23.0910  -13.6340   20.9420 C   0  0  0  0  0  0  0  0  0  0  0  0
  -22.2500  -13.0200   21.7640 N   0  0  0  0  0  0  0  0  0  0  0  0
  -22.7400  -14.6160   20.2880 O   0  0  0  0  0  0  0  0  0  0  0  0
  -22.5520  -12.2370   22.3230 H   0  0  0  0  0  0  0  0  0  0  0  0
  -21.2950  -13.3380   21.8360 H   0  0  0  0  0  0  0  0  0  0  0  0
  -25.8060  -15.2080   20.3820 N   0  0  0  0  0  0  0  0  0  0  0  0
  -25.0160  -15.8380   20.3080 H   0  0  0  0  0  0  0  0  0  0  0  0
  -26.6890  -15.6280   20.1280 H   0  0  0  0  0  0  0  0  0  0  0  0
  -26.8170  -20.3360   18.1640 C   0  0  0  0  0  1  0  0  0  0  0  0
  -26.9320  -20.0520   20.7470 C   0  0  0  0  0  1  0  0  0  0  0  0
  -25.8690  -18.4160   19.2740 C   0  0  0  0  0  1  0  0  0  0  0  0
  -27.0720  -19.3840   19.3560 C   0  0  2  0  0  0  0  0  0  0  0  0
  -29.1960  -23.4110   18.9160 C   0  0  0  0  0  2  0  0  0  0  0  0
  -28.9910  -23.6450   20.8930 C   0  0  0  0  0  2  0  0  0  0  0  0
  -29.0100  -22.2740   20.0460 C   0  0  0  0  0  3  0  0  0  0  0  0
  -28.3650  -24.5330   19.7170 C   0  0  0  0  0  3  0  0  0  0  0  0
  -28.5180  -26.0950   19.6020 O   0  0  0  0  0  0  0  0  0  0  0  0
  -24.6900  -31.5180   22.8640 C   0  0  0  0  0  0  0  0  0  0  0  0
  -27.4080  -27.0300   19.6020 C   0  0  0  0  0  0  0  0  0  0  0  0
  -23.5240  -30.1660   21.1630 C   0  0  0  0  0  3  0  0  0  0  0  0
  -25.0160  -28.7020   19.6570 C   0  0  0  0  0  0  0  0  0  0  0  0
  -26.0670  -30.5170   20.9990 C   0  0  0  0  0  2  0  0  0  0  0  0
  -26.1820  -29.1580   20.2840 C   0  0  0  0  0  0  0  0  0  0  0  0
  -27.3770  -28.3410   20.2340 C   0  0  0  0  0  3  0  0  0  0  0  0
  -26.2110  -26.6770   18.9390 C   0  0  0  0  0  3  0  0  0  0  0  0
  -25.0440  -27.4790   18.9640 C   0  0  0  0  0  3  0  0  0  0  0  0
  -23.7600  -29.5580   19.7530 C   0  0  0  0  0  2  0  0  0  0  0  0
  -24.7800  -30.7540   21.7320 N   0  0  0  0  0  0  0  0  0  0  0  0
  -23.5970  -31.7430   23.4090 O   0  0  0  0  0  0  0  0  0  0  0  0
  -22.8770  -29.0950   22.0800 C   0  0  0  0  0  0  0  0  0  0  0  0
  -21.5440  -28.9370   21.9930 N   0  0  0  0  0  0  0  0  0  0  0  0
  -23.5750  -28.4100   22.8300 O   0  0  0  0  0  0  0  0  0  0  0  0
  -21.0340  -29.5430   21.3660 H   0  0  0  0  0  0  0  0  0  0  0  0
  -18.1700  -27.7580   22.5920 C   0  0  0  0  0  0  0  0  0  0  0  0
  -20.7470  -27.9470   22.7250 C   0  0  0  0  0  3  0  0  0  0  0  0
  -20.7760  -26.5700   22.0200 C   0  0  0  0  0  2  0  0  0  0  0  0
  -19.6120  -26.3670   21.0470 C   0  0  0  0  0  2  0  0  0  0  0  0
  -18.2770  -26.4710   21.7900 C   0  0  0  0  0  2  0  0  0  0  0  0
  -19.3320  -28.4570   23.0190 C   0  0  0  0  0  0  0  0  0  0  0  0
  -19.1780  -29.6600   23.7400 C   0  0  0  0  0  3  0  0  0  0  0  0
  -17.8980  -30.1650   24.0340 C   0  0  0  0  0  3  0  0  0  0  0  0
  -16.7530  -29.4650   23.6190 C   0  0  0  0  0  3  0  0  0  0  0  0
  -16.8900  -28.2620   22.9020 C   0  0  0  0  0  3  0  0  0  0  0  0
  -25.9490  -32.1600   23.5200 C   0  0  0  0  0  3  0  0  0  0  0  0
  -26.5180  -31.3140   24.7260 C   0  0  1  0  0  0  0  0  0  0  0  0
  -25.4570  -30.9660   25.7950 C   0  0  0  0  0  1  0  0  0  0  0  0
  -27.1350  -29.9880   24.2250 C   0  0  0  0  0  1  0  0  0  0  0  0
  -27.6570  -32.0950   25.4220 C   0  0  0  0  0  1  0  0  0  0  0  0
  -25.5830  -33.5120   23.9710 N   0  0  0  0  0  0  0  0  0  0  0  0
  -25.9030  -34.6450   23.3340 C   0  0  0  0  0  0  0  0  0  0  0  0
  -26.6040  -34.6620   22.3190 O   0  0  0  0  0  0  0  0  0  0  0  0
  -24.9590  -33.5690   24.7640 H   0  0  0  0  0  0  0  0  0  0  0  0
  -24.1450  -36.4310   23.0960 C   0  0  0  0  0  1  0  0  0  0  0  0
  -25.3640  -35.9700   23.9110 C   0  0  0  0  0  3  0  0  0  0  0  0
  -27.4370  -36.8160   24.9210 C   0  0  0  0  0  1  0  0  0  0  0  0
  -26.3740  -37.0520   23.9480 N   0  0  0  0  0  0  0  0  0  0  0  0
  -25.9370  -37.9440   24.1630 H   0  0  0  0  0  0  0  0  0  0  0  0
  2  1  1  0
  3  9  1  0
  3 10  2  0
  4  9  1  0
  5  6  1  0
  5  4  1  0
  7  6  1  0
  7 20  1  0
  7  8  1  0
  9  8  1  0
 11 12  1  0
 12 16  1  0
 14 11  1  0
 14 48  1  0
 14 15  1  0
 15  2  1  0
 15 13  1  0
 16 13  1  0
 16  3  1  0
 17 18  2  0
 18 37  1  0
 18 19  1  0
 19 22  1  0
 20 17  1  0
 20 21  1  0
 21 19  2  0
 22 23  1  0
 23 24  2  0
 25 28  1  0
 25 24  1  0
 26 25  2  0
 27 26  1  0
 27 22  2  0
 28 29  1  0
 29 30  1  0
 30 31  2  0
 32 31  1  0
 32 36  1  0
 33 32  2  0
 34 29  2  0
 34 33  1  0
 35 34  1  0
 37 38  1  0
 38 41  1  0
 38 40  1  0
 39 37  2  0
 42 17  1  0
 43 42  1  0
 44 42  1  0
 48 45  1  6
 47 48  1  0
 48 46  1  0
 49 52  1  0
 49 51  1  0
 51  2  1  0
 51 50  1  0
 52 53  1  0
 52 50  1  0
 54 65  2  0
 55 53  1  0
 55 60  1  0
 56 64  1  0
 56 66  1  0
 57 63  1  0
 57 59  1  0
 58 64  1  0
 59 58  1  0
 60 59  2  0
 61 62  1  0
 61 55  2  0
 62 57  2  0
 63 56  1  0
 64 54  1  0
 66 68  2  0
 67 66  1  0
 69 67  1  0
 70 79  2  0
 70 75  1  0
 71 67  1  0
 71 75  1  0
 72 71  1  0
 73 74  1  0
 73 72  1  0
 74 70  1  0
 75 76  2  0
 76 77  1  0
 78 77  2  0
 79 78  1  0
 80 54  1  0
 80 85  1  0
 80 81  1  0
 81 84  1  1
 81 82  1  0
 83 81  1  0
 85 88  1  0
 86 90  1  0
 86 85  1  0
 87 86  2  0
 90 89  1  0
 90 92  1  0
 92 93  1  0
 92 91  1  0
M  ISO  4   3 100  16 100  52 101  53 101
M  END
>  <TORSDO>  (67) 
F 18

>  <SCORE>  (67) 
-12.223

>  <name>  (67) 
66

>  <ligand_id>  (67) 
66

>  <original_smiles>  (67) 
[H]c1c([H])c([H])c2c(c1[H])C([H])([H])C([H])([H])C([H])([H])C2([H])N([H])C(=O)C1([H])N(C(=O)C([H])(N([H])C(=O)C([H])(N([H])C([H])([H])[H])C([H])([H])[H])C(C([H])([H])[H])(C([H])([H])[H])C([H])([H])[H])C([H])([H])c2c([H])c(OC3([H])C([H])([H])C([H])(C([H])(C([H])([H])[H])C4([H])C([H])([H])N(C(=O)N5C([H])([H])C([H])([H])C([H])([H])C([H])(n6nc(-c7c([H])c([H])c(Oc8c([H])c([H])c(F)c([H])c8F)c([H])c7[H])c(C(=O)N([H])[H])c6N([H])[H])C5([H])[H])C([H])([H])C([H])([H])C4([H])C(C([H])([H])[H])(C([H])([H])[H])C([H])([H])[H])C3([H])[H])c([H])c([H])c2C1([H])[H]

>  <smiles>  (67) 
[H]c1c([H])c([H])c2c(c1[H])C([H])([H])C([H])([H])C([H])([H])C2([H])N([H])C(=O)C1([H])N(C(=O)C([H])(N([H])C(=O)C([H])(N([H])C([H])([H])[H])C([H])([H])[H])C(C([H])([H])[H])(C([H])([H])[H])C([H])([H])[H])C([H])([H])c2c([H])c(OC3([H])C([H])([H])C([H])(C([H])(C([H])([H])[H])C4([H])C([H])([H])N(C(=O)N5C([H])([H])C([H])([H])C([H])([H])C([H])(n6nc(-c7c([H])c([H])c(Oc8c([H])c([H])c(F)c([H])c8F)c([H])c7[H])c(C(=O)N([H])[H])c6N([H])[H])C5([H])[H])C([H])([H])C([H])([H])C4([H])C(C([H])([H])[H])(C([H])([H])[H])C([H])([H])[H])C3([H])[H])c([H])c([H])c2C1([H])[H]

$$$$
67:0:0
     RDKit          3D

 90 99  0  0  1  0  0  0  0  0999 V2000
  -27.9340  -21.0150   18.3040 C   0  0  0  0  0  3  0  0  0  0  0  0
  -28.9380  -21.2080   20.8240 C   0  0  0  0  0  3  0  0  0  0  0  0
  -28.5620  -19.8730   18.8650 C   0  0  0  0  0  0  0  0  0  0  0  0
  -29.0320  -19.7940   20.1780 C   0  0  0  0  0  0  0  0  0  0  0  0
  -27.8190  -22.2820   18.9570 C   0  0  0  0  0  0  0  0  0  0  0  0
  -28.3610  -22.5460   20.2450 C   0  0  0  0  0  0  0  0  0  0  0  0
  -29.0270  -18.6810   18.0600 C   0  0  0  0  0  2  0  0  0  0  0  0
  -30.2810  -18.1940   18.8320 C   0  0  0  0  0  2  0  0  0  0  0  0
  -29.9020  -18.2500   20.3290 C   0  0  0  0  0  3  0  0  0  0  0  0
  -27.0790  -23.3980   18.2450 C   0  0  0  0  0  1  0  0  0  0  0  0
  -30.3530  -15.3210   20.3870 C   0  0  0  0  0  0  0  0  0  0  0  0
  -30.3600  -12.8560   19.5140 C   0  0  0  0  0  2  0  0  0  0  0  0
  -29.4690  -12.6560   18.2610 C   0  0  0  0  0  2  0  0  0  0  0  0
  -28.0200  -12.3710   18.6850 C   0  0  0  0  0  2  0  0  0  0  0  0
  -27.5520  -13.3310   19.8050 C   0  0  0  0  0  3  0  0  0  0  0  0
  -28.5760  -13.4790   20.9500 C   0  0  0  0  0  2  0  0  0  0  0  0
  -29.8080  -14.0000   20.3390 N   0  0  0  0  0  0  0  0  0  0  0  0
  -31.5610  -15.3270   20.0980 O   0  0  0  0  0  0  0  0  0  0  0  0
  -29.5910  -16.6000   20.5550 N   0  0  0  0  0  0  0  0  0  0  0  0
  -28.6460  -16.4270   20.8680 H   0  0  0  0  0  0  0  0  0  0  0  0
  -25.1780  -13.8820   20.5320 C   0  0  0  0  0  0  0  0  0  0  0  0
  -24.1150  -13.1050   20.8860 C   0  0  0  0  0  0  0  0  0  0  0  0
  -24.5840  -11.7540   20.8590 C   0  0  0  0  0  0  0  0  0  0  0  0
  -26.2210  -13.0080   20.2940 N   0  0  0  0  0  0  0  0  0  0  0  0
  -25.8770  -11.7230   20.5610 N   0  0  0  0  0  0  0  0  0  0  0  0
  -23.8580  -10.4890   21.0430 C   0  0  0  0  0  0  0  0  0  0  0  0
  -24.2840   -9.5220   21.9810 C   0  0  0  0  0  3  0  0  0  0  0  0
  -23.5540   -8.3270   22.1530 C   0  0  0  0  0  3  0  0  0  0  0  0
  -22.3900   -8.0850   21.3850 C   0  0  0  0  0  0  0  0  0  0  0  0
  -21.9840   -9.0430   20.4380 C   0  0  0  0  0  3  0  0  0  0  0  0
  -22.7120  -10.2310   20.2630 C   0  0  0  0  0  3  0  0  0  0  0  0
  -21.6360   -6.9400   21.4670 O   0  0  0  0  0  0  0  0  0  0  0  0
  -21.5700   -6.2030   22.6230 C   0  0  0  0  0  0  0  0  0  0  0  0
  -21.1080   -6.7590   23.8370 C   0  0  0  0  0  3  0  0  0  0  0  0
  -20.9870   -5.9490   24.9850 C   0  0  0  0  0  3  0  0  0  0  0  0
  -21.3220   -4.5830   24.9190 C   0  0  0  0  0  0  0  0  0  0  0  0
  -21.7820   -4.0270   23.7110 C   0  0  0  0  0  3  0  0  0  0  0  0
  -21.8990   -4.8340   22.5660 C   0  0  0  0  0  0  0  0  0  0  0  0
  -22.3210   -4.2890   21.3990 F   0  0  0  0  0  0  0  0  0  0  0  0
  -21.2000   -3.8010   26.0170 F   0  0  0  0  0  0  0  0  0  0  0  0
  -22.7130  -13.5750   21.1440 C   0  0  0  0  0  0  0  0  0  0  0  0
  -21.9790  -12.8730   21.9980 N   0  0  0  0  0  0  0  0  0  0  0  0
  -22.2800  -14.6030   20.6190 O   0  0  0  0  0  0  0  0  0  0  0  0
  -22.3470  -12.0430   22.4410 H   0  0  0  0  0  0  0  0  0  0  0  0
  -21.0400  -13.1700   22.2270 H   0  0  0  0  0  0  0  0  0  0  0  0
  -25.3500  -15.2570   20.3650 N   0  0  0  0  0  0  0  0  0  0  0  0
  -24.5920  -15.9210   20.5010 H   0  0  0  0  0  0  0  0  0  0  0  0
  -26.1950  -15.6870   20.0180 H   0  0  0  0  0  0  0  0  0  0  0  0
  -28.0640  -24.1830   20.8840 C   0  0  0  0  0  2  0  0  0  0  0  0
  -28.1690  -25.7570   20.2940 O   0  0  0  0  0  0  0  0  0  0  0  0
  -24.6130  -31.8370   23.2000 C   0  0  0  0  0  0  0  0  0  0  0  0
  -27.1690  -26.8860   20.2860 C   0  0  0  0  0  0  0  0  0  0  0  0
  -23.4360  -30.4400   21.5500 C   0  0  0  0  0  3  0  0  0  0  0  0
  -24.9000  -28.8270   20.1600 C   0  0  0  0  0  0  0  0  0  0  0  0
  -26.0120  -30.6320   21.4450 C   0  0  0  0  0  2  0  0  0  0  0  0
  -26.0850  -29.2140   20.8020 C   0  0  0  0  0  0  0  0  0  0  0  0
  -27.2150  -28.2700   20.8340 C   0  0  0  0  0  3  0  0  0  0  0  0
  -25.9630  -26.6780   19.5760 C   0  0  0  0  0  3  0  0  0  0  0  0
  -24.8710  -27.5820   19.5190 C   0  0  0  0  0  3  0  0  0  0  0  0
  -23.6880  -29.7590   20.1790 C   0  0  0  0  0  2  0  0  0  0  0  0
  -24.7090  -31.0010   22.1160 N   0  0  0  0  0  0  0  0  0  0  0  0
  -23.5180  -32.1310   23.7070 O   0  0  0  0  0  0  0  0  0  0  0  0
  -22.7310  -29.4470   22.5100 C   0  0  0  0  0  0  0  0  0  0  0  0
  -21.4020  -29.2790   22.3720 N   0  0  0  0  0  0  0  0  0  0  0  0
  -23.3890  -28.8270   23.3500 O   0  0  0  0  0  0  0  0  0  0  0  0
  -20.9240  -29.8230   21.6700 H   0  0  0  0  0  0  0  0  0  0  0  0
  -18.0170  -28.0680   22.8670 C   0  0  0  0  0  0  0  0  0  0  0  0
  -20.5770  -28.3430   23.1430 C   0  0  0  0  0  3  0  0  0  0  0  0
  -20.6830  -26.9120   22.5720 C   0  0  0  0  0  2  0  0  0  0  0  0
  -19.5870  -26.5840   21.5510 C   0  0  0  0  0  2  0  0  0  0  0  0
  -18.2020  -26.7220   22.1880 C   0  0  0  0  0  2  0  0  0  0  0  0
  -19.1320  -28.8360   23.3010 C   0  0  0  0  0  0  0  0  0  0  0  0
  -18.9020  -30.0930   23.8990 C   0  0  0  0  0  3  0  0  0  0  0  0
  -17.5930  -30.5840   24.0680 C   0  0  0  0  0  3  0  0  0  0  0  0
  -16.4940  -29.8150   23.6440 C   0  0  0  0  0  3  0  0  0  0  0  0
  -16.7080  -28.5590   23.0480 C   0  0  0  0  0  3  0  0  0  0  0  0
  -25.8790  -32.4820   23.8430 C   0  0  0  0  0  3  0  0  0  0  0  0
  -25.5630  -33.8870   24.1580 N   0  0  0  0  0  0  0  0  0  0  0  0
  -25.9100  -34.9420   23.4080 C   0  0  0  0  0  0  0  0  0  0  0  0
  -26.5980  -34.8360   22.3910 O   0  0  0  0  0  0  0  0  0  0  0  0
  -24.9490  -34.0410   24.9440 H   0  0  0  0  0  0  0  0  0  0  0  0
  -24.2040  -36.7570   23.0220 C   0  0  0  0  0  1  0  0  0  0  0  0
  -25.4210  -36.3360   23.8590 C   0  0  0  0  0  3  0  0  0  0  0  0
  -27.5350  -37.2100   24.7520 C   0  0  0  0  0  1  0  0  0  0  0  0
  -26.4630  -37.3820   23.7760 N   0  0  0  0  0  0  0  0  0  0  0  0
  -26.0560  -38.3050   23.9080 H   0  0  0  0  0  0  0  0  0  0  0  0
  -26.3630  -31.7320   25.1480 C   0  0  1  0  0  0  0  0  0  0  0  0
  -25.2440  -31.5210   26.1950 C   0  0  0  0  0  1  0  0  0  0  0  0
  -26.9460  -30.3400   24.8070 C   0  0  0  0  0  1  0  0  0  0  0  0
  -27.4990  -32.5360   25.8220 C   0  0  0  0  0  1  0  0  0  0  0  0
  1  3  2  0
  1  5  1  0
  3  4  1  0
  4  9  1  0
  4  2  2  0
  5  6  2  0
  6  2  1  0
  6 49  1  0
  7  8  1  0
  7  3  1  0
  8  9  1  0
  9 19  1  0
 10  5  1  0
 11 19  1  0
 12 17  1  0
 13 14  1  0
 13 12  1  0
 15 14  1  0
 15 24  1  0
 15 16  1  0
 17 11  1  0
 17 16  1  0
 18 11  2  0
 19 20  1  0
 21 22  2  0
 22 41  1  0
 23 22  1  0
 23 26  1  0
 24 21  1  0
 24 25  1  0
 25 23  2  0
 26 27  1  0
 27 28  2  0
 29 32  1  0
 29 28  1  0
 30 29  2  0
 31 30  1  0
 31 26  2  0
 32 33  1  0
 33 34  1  0
 34 35  2  0
 36 35  1  0
 36 40  1  0
 37 36  2  0
 38 33  2  0
 38 37  1  0
 39 38  1  0
 41 42  1  0
 42 45  1  0
 42 44  1  0
 43 41  2  0
 46 47  1  0
 46 21  1  0
 48 46  1  0
 50 49  1  0
 51 62  2  0
 52 50  1  0
 52 57  1  0
 53 61  1  0
 53 63  1  0
 54 60  1  0
 54 56  1  0
 55 61  1  0
 56 57  2  0
 56 55  1  0
 58 52  2  0
 59 58  1  0
 59 54  2  0
 60 53  1  0
 61 51  1  0
 63 65  2  0
 64 63  1  0
 66 64  1  0
 67 76  2  0
 67 72  1  0
 68 64  1  0
 68 72  1  0
 69 68  1  0
 70 71  1  0
 70 69  1  0
 71 67  1  0
 72 73  2  0
 73 74  1  0
 75 74  2  0
 76 75  1  0
 77 51  1  0
 77 78  1  0
 77 87  1  0
 78 81  1  0
 79 83  1  0
 79 78  1  0
 80 79  2  0
 83 82  1  0
 85 83  1  0
 85 86  1  0
 85 84  1  0
 87 90  1  1
 87 88  1  0
 89 87  1  0
M  ISO  4  11 100  19 100  49 101  50 101
M  END
>  <TORSDO>  (68) 
F 17

>  <SCORE>  (68) 
-16.969

>  <name>  (68) 
67

>  <ligand_id>  (68) 
67

>  <original_smiles>  (68) 
[H]c1c([H])c([H])c2c(c1[H])C([H])([H])C([H])([H])C([H])([H])C2([H])N([H])C(=O)C1([H])N(C(=O)C([H])(N([H])C(=O)C([H])(N([H])C([H])([H])[H])C([H])([H])[H])C(C([H])([H])[H])(C([H])([H])[H])C([H])([H])[H])C([H])([H])c2c([H])c(OC([H])([H])c3c([H])c4c(c([H])c3C([H])([H])[H])C([H])([H])C([H])([H])C4([H])N([H])C(=O)N3C([H])([H])C([H])([H])C([H])([H])C([H])(n4nc(-c5c([H])c([H])c(Oc6c([H])c([H])c(F)c([H])c6F)c([H])c5[H])c(C(=O)N([H])[H])c4N([H])[H])C3([H])[H])c([H])c([H])c2C1([H])[H]

>  <smiles>  (68) 
[H]c1c([H])c([H])c2c(c1[H])C([H])([H])C([H])([H])C([H])([H])C2([H])N([H])C(=O)C1([H])N(C(=O)C([H])(N([H])C(=O)C([H])(N([H])C([H])([H])[H])C([H])([H])[H])C(C([H])([H])[H])(C([H])([H])[H])C([H])([H])[H])C([H])([H])c2c([H])c(OC([H])([H])c3c([H])c4c(c([H])c3C([H])([H])[H])C([H])([H])C([H])([H])C4([H])N([H])C(=O)N3C([H])([H])C([H])([H])C([H])([H])C([H])(n4nc(-c5c([H])c([H])c(Oc6c([H])c([H])c(F)c([H])c6F)c([H])c5[H])c(C(=O)N([H])[H])c4N([H])[H])C3([H])[H])c([H])c([H])c2C1([H])[H]

$$$$
68:0:0
     RDKit          3D

 93102  0  0  1  0  0  0  0  0999 V2000
  -30.5490  -14.8220   20.4090 C   0  0  0  0  0  0  0  0  0  0  0  0
  -30.3740  -12.5330   19.4150 C   0  0  0  0  0  2  0  0  0  0  0  0
  -29.4560  -12.6650   18.1800 C   0  0  0  0  0  2  0  0  0  0  0  0
  -27.9750  -12.4930   18.5790 C   0  0  0  0  0  2  0  0  0  0  0  0
  -27.6010  -13.3250   19.8340 C   0  0  0  0  0  3  0  0  0  0  0  0
  -28.6510  -13.2010   20.9550 C   0  0  0  0  0  2  0  0  0  0  0  0
  -29.9540  -13.5710   20.3870 N   0  0  0  0  0  0  0  0  0  0  0  0
  -31.7350  -14.9180   20.0840 O   0  0  0  0  0  0  0  0  0  0  0  0
  -30.2000  -17.5070   18.7770 C   0  0  0  0  0  3  0  0  0  0  0  0
  -29.6180  -19.8740   18.8120 C   0  0  0  0  0  3  0  0  0  0  0  0
  -30.0980  -18.7490   18.1100 C   0  0  0  0  0  0  0  0  0  0  0  0
  -29.7690  -17.3430   20.1160 C   0  0  0  0  0  0  0  0  0  0  0  0
  -29.1850  -19.7400   20.1410 C   0  0  0  0  0  0  0  0  0  0  0  0
  -29.2420  -18.4830   20.7490 N   0  0  0  0  0  0  0  0  0  0  0  0
  -29.7630  -15.9520   20.6710 N   0  0  0  0  0  0  0  0  0  0  0  0
  -28.9290  -15.7340   21.1880 H   0  0  0  0  0  0  0  0  0  0  0  0
  -25.2040  -13.8940   20.5350 C   0  0  0  0  0  0  0  0  0  0  0  0
  -24.1400  -13.1170   20.9010 C   0  0  0  0  0  0  0  0  0  0  0  0
  -24.6120  -11.7690   20.8760 C   0  0  0  0  0  0  0  0  0  0  0  0
  -26.2560  -13.0220   20.3110 N   0  0  0  0  0  0  0  0  0  0  0  0
  -25.9050  -11.7380   20.5770 N   0  0  0  0  0  0  0  0  0  0  0  0
  -23.8880  -10.5030   21.0580 C   0  0  0  0  0  0  0  0  0  0  0  0
  -24.3210   -9.5350   21.9940 C   0  0  0  0  0  3  0  0  0  0  0  0
  -23.5970   -8.3340   22.1670 C   0  0  0  0  0  3  0  0  0  0  0  0
  -22.4280   -8.0940   21.4070 C   0  0  0  0  0  0  0  0  0  0  0  0
  -22.0130   -9.0520   20.4640 C   0  0  0  0  0  3  0  0  0  0  0  0
  -22.7360  -10.2430   20.2890 C   0  0  0  0  0  3  0  0  0  0  0  0
  -21.6720   -6.9500   21.4940 O   0  0  0  0  0  0  0  0  0  0  0  0
  -21.6200   -6.2040   22.6450 C   0  0  0  0  0  0  0  0  0  0  0  0
  -21.2020   -6.7580   23.8740 C   0  0  0  0  0  3  0  0  0  0  0  0
  -21.1020   -5.9380   25.0150 C   0  0  0  0  0  3  0  0  0  0  0  0
  -21.4060   -4.5670   24.9270 C   0  0  0  0  0  0  0  0  0  0  0  0
  -21.8130   -4.0130   23.7000 C   0  0  0  0  0  3  0  0  0  0  0  0
  -21.9170   -4.8290   22.5630 C   0  0  0  0  0  0  0  0  0  0  0  0
  -22.2920   -4.2860   21.3790 F   0  0  0  0  0  0  0  0  0  0  0  0
  -21.3010   -3.7780   26.0220 F   0  0  0  0  0  0  0  0  0  0  0  0
  -22.7370  -13.5860   21.1580 C   0  0  0  0  0  0  0  0  0  0  0  0
  -22.0030  -12.8890   22.0210 N   0  0  0  0  0  0  0  0  0  0  0  0
  -22.2980  -14.6040   20.6240 O   0  0  0  0  0  0  0  0  0  0  0  0
  -22.3730  -12.0660   22.4750 H   0  0  0  0  0  0  0  0  0  0  0  0
  -21.0610  -13.1860   22.2330 H   0  0  0  0  0  0  0  0  0  0  0  0
  -25.3650  -15.2630   20.3460 N   0  0  0  0  0  0  0  0  0  0  0  0
  -24.5950  -15.9200   20.4290 H   0  0  0  0  0  0  0  0  0  0  0  0
  -26.2070  -15.6980   19.9960 H   0  0  0  0  0  0  0  0  0  0  0  0
  -31.7210  -18.4870   16.0360 C   0  0  0  0  0  2  0  0  0  0  0  0
  -31.2700  -19.9270   16.0400 C   0  0  0  0  0  2  0  0  0  0  0  0
  -30.3830  -18.8530   16.6330 C   0  0  0  0  0  3  0  0  0  0  0  0
  -28.5820  -20.8960   20.7770 N   0  0  0  0  0  0  0  0  0  0  0  0
  -28.1410  -20.6780   21.6670 H   0  0  0  0  0  0  0  0  0  0  0  0
  -29.0900  -22.3360   20.7090 C   0  0  0  0  0  2  0  0  0  0  0  0
  -28.1420  -23.6080   20.2900 C   0  0  0  0  0  2  0  0  0  0  0  0
  -28.3910  -25.0690   20.9790 C   0  0  0  0  0  2  0  0  0  0  0  0
  -28.3850  -26.4270   20.3250 O   0  0  0  0  0  0  0  0  0  0  0  0
  -24.6210  -31.9350   23.2660 C   0  0  0  0  0  0  0  0  0  0  0  0
  -27.2630  -27.2790   20.3460 C   0  0  0  0  0  0  0  0  0  0  0  0
  -23.4420  -30.5070   21.6340 C   0  0  0  0  0  3  0  0  0  0  0  0
  -24.9120  -28.9210   20.2560 C   0  0  0  0  0  0  0  0  0  0  0  0
  -25.9840  -30.8130   21.4770 C   0  0  0  0  0  2  0  0  0  0  0  0
  -26.0730  -29.4140   20.8680 C   0  0  0  0  0  0  0  0  0  0  0  0
  -27.2540  -28.6040   20.8990 C   0  0  0  0  0  3  0  0  0  0  0  0
  -26.0880  -26.8460   19.7030 C   0  0  0  0  0  3  0  0  0  0  0  0
  -24.9260  -27.6470   19.6600 C   0  0  0  0  0  3  0  0  0  0  0  0
  -23.6750  -29.8030   20.2700 C   0  0  0  0  0  2  0  0  0  0  0  0
  -24.7030  -31.1030   22.1830 N   0  0  0  0  0  0  0  0  0  0  0  0
  -23.5300  -32.2230   23.7790 O   0  0  0  0  0  0  0  0  0  0  0  0
  -22.7630  -29.5090   22.6030 C   0  0  0  0  0  0  0  0  0  0  0  0
  -21.4380  -29.3350   22.4690 N   0  0  0  0  0  0  0  0  0  0  0  0
  -23.4320  -28.8930   23.4380 O   0  0  0  0  0  0  0  0  0  0  0  0
  -20.9570  -29.8910   21.7750 H   0  0  0  0  0  0  0  0  0  0  0  0
  -18.0540  -28.1580   22.9650 C   0  0  0  0  0  0  0  0  0  0  0  0
  -20.6130  -28.4090   23.2450 C   0  0  0  0  0  3  0  0  0  0  0  0
  -20.7100  -26.9720   22.6850 C   0  0  0  0  0  2  0  0  0  0  0  0
  -19.6130  -26.6450   21.6670 C   0  0  0  0  0  2  0  0  0  0  0  0
  -18.2270  -26.8020   22.3010 C   0  0  0  0  0  2  0  0  0  0  0  0
  -19.1740  -28.9190   23.3940 C   0  0  0  0  0  0  0  0  0  0  0  0
  -18.9570  -30.1870   23.9740 C   0  0  0  0  0  3  0  0  0  0  0  0
  -17.6530  -30.6960   24.1280 C   0  0  0  0  0  3  0  0  0  0  0  0
  -16.5470  -29.9320   23.7130 C   0  0  0  0  0  3  0  0  0  0  0  0
  -16.7500  -28.6650   23.1390 C   0  0  0  0  0  3  0  0  0  0  0  0
  -25.8950  -32.5780   23.8950 C   0  0  0  0  0  3  0  0  0  0  0  0
  -26.3990  -31.8210   25.1860 C   0  0  1  0  0  0  0  0  0  0  0  0
  -25.2950  -31.5900   26.2430 C   0  0  0  0  0  1  0  0  0  0  0  0
  -26.9900  -30.4420   24.8110 C   0  0  0  0  0  1  0  0  0  0  0  0
  -27.5420  -32.6260   25.8500 C   0  0  0  0  0  1  0  0  0  0  0  0
  -25.5780  -33.9810   24.2120 N   0  0  0  0  0  0  0  0  0  0  0  0
  -25.9120  -35.0290   23.4450 C   0  0  0  0  0  0  0  0  0  0  0  0
  -26.5910  -34.9160   22.4210 O   0  0  0  0  0  0  0  0  0  0  0  0
  -24.9810  -34.1390   25.0080 H   0  0  0  0  0  0  0  0  0  0  0  0
  -24.1830  -36.8160   23.0550 C   0  0  0  0  0  1  0  0  0  0  0  0
  -25.4180  -36.4210   23.8830 C   0  0  0  0  0  3  0  0  0  0  0  0
  -27.5460  -37.3210   24.7230 C   0  0  0  0  0  1  0  0  0  0  0  0
  -26.4490  -37.4780   23.7680 N   0  0  0  0  0  0  0  0  0  0  0  0
  -26.0400  -38.3970   23.9050 H   0  0  0  0  0  0  0  0  0  0  0  0
  1 15  1  0
  2  7  1  0
  3  4  1  0
  3  2  1  0
  5  4  1  0
  5 20  1  0
  5  6  1  0
  7  1  1  0
  7  6  1  0
  8  1  2  0
  9 12  1  0
 10 13  2  0
 11  9  2  0
 11 10  1  0
 12 15  1  0
 12 14  2  0
 13 14  1  0
 13 48  1  0
 15 16  1  0
 17 18  2  0
 18 37  1  0
 19 18  1  0
 19 22  1  0
 20 17  1  0
 20 21  1  0
 21 19  2  0
 22 23  1  0
 23 24  2  0
 25 28  1  0
 25 24  1  0
 26 25  2  0
 27 26  1  0
 27 22  2  0
 28 29  1  0
 29 30  1  0
 30 31  2  0
 32 31  1  0
 32 36  1  0
 33 32  2  0
 34 29  2  0
 34 33  1  0
 35 34  1  0
 37 38  1  0
 38 41  1  0
 38 40  1  0
 39 37  2  0
 42 43  1  0
 42 17  1  0
 44 42  1  0
 45 46  1  0
 45 47  1  0
 46 47  1  0
 47 11  1  0
 48 49  1  0
 50 48  1  0
 51 50  1  0
 51 52  1  0
 53 55  1  0
 53 52  1  0
 54 65  2  0
 55 60  1  0
 56 64  1  0
 56 66  1  0
 57 63  1  0
 57 59  1  0
 58 64  1  0
 59 60  2  0
 59 58  1  0
 61 55  2  0
 62 61  1  0
 62 57  2  0
 63 56  1  0
 64 54  1  0
 66 68  2  0
 67 66  1  0
 69 67  1  0
 70 79  2  0
 70 75  1  0
 71 67  1  0
 71 75  1  0
 72 71  1  0
 73 74  1  0
 73 72  1  0
 74 70  1  0
 75 76  2  0
 76 77  1  0
 78 77  2  0
 79 78  1  0
 80 54  1  0
 80 85  1  0
 80 81  1  0
 81 84  1  1
 81 82  1  0
 83 81  1  0
 85 88  1  0
 86 90  1  0
 86 85  1  0
 87 86  2  0
 90 89  1  0
 92 90  1  0
 92 93  1  0
 92 91  1  0
M  ISO  4   1 100  15 100  52 101  53 101
M  END
>  <TORSDO>  (69) 
F 20

>  <SCORE>  (69) 
-14.040

>  <name>  (69) 
68

>  <ligand_id>  (69) 
68

>  <original_smiles>  (69) 
[H]c1c([H])c([H])c2c(c1[H])C([H])([H])C([H])([H])C([H])([H])C2([H])N([H])C(=O)C1([H])N(C(=O)C([H])(N([H])C(=O)C([H])(N([H])C([H])([H])[H])C([H])([H])[H])C(C([H])([H])[H])(C([H])([H])[H])C([H])([H])[H])C([H])([H])c2c([H])c(OC([H])([H])C([H])([H])C([H])([H])N([H])c3nc(N([H])C(=O)N4C([H])([H])C([H])([H])C([H])([H])C([H])(n5nc(-c6c([H])c([H])c(Oc7c([H])c([H])c(F)c([H])c7F)c([H])c6[H])c(C(=O)N([H])[H])c5N([H])[H])C4([H])[H])c([H])c(C4([H])C([H])([H])C4([H])[H])c3[H])c([H])c([H])c2C1([H])[H]

>  <smiles>  (69) 
[H]c1c([H])c([H])c2c(c1[H])C([H])([H])C([H])([H])C([H])([H])C2([H])N([H])C(=O)C1([H])N(C(=O)C([H])(N([H])C(=O)C([H])(N([H])C([H])([H])[H])C([H])([H])[H])C(C([H])([H])[H])(C([H])([H])[H])C([H])([H])[H])C([H])([H])c2c([H])c(OC([H])([H])C([H])([H])C([H])([H])N([H])c3nc(N([H])C(=O)N4C([H])([H])C([H])([H])C([H])([H])C([H])(n5nc(-c6c([H])c([H])c(Oc7c([H])c([H])c(F)c([H])c7F)c([H])c6[H])c(C(=O)N([H])[H])c5N([H])[H])C4([H])[H])c([H])c(C4([H])C([H])([H])C4([H])[H])c3[H])c([H])c([H])c2C1([H])[H]

$$$$
69:0:0
     RDKit          3D

 96105  0  0  1  0  0  0  0  0999 V2000
  -30.4310  -22.3990   18.5810 C   0  0  0  0  0  3  0  0  0  0  0  0
  -28.0480  -21.9800   18.6400 C   0  0  0  0  0  3  0  0  0  0  0  0
  -29.6080  -20.0930   18.7910 C   0  0  0  0  0  0  0  0  0  0  0  0
  -30.6830  -21.0190   18.7060 C   0  0  0  0  0  0  0  0  0  0  0  0
  -29.1110  -22.8950   18.5350 C   0  0  0  0  0  0  0  0  0  0  0  0
  -28.2730  -20.5820   18.7390 C   0  0  0  0  0  0  0  0  0  0  0  0
  -32.1370  -20.5690   18.6990 C   0  0  0  0  0  1  0  0  0  0  0  0
  -30.8510  -17.8980   19.8310 C   0  0  0  0  0  2  0  0  0  0  0  0
  -28.9310  -17.4450   19.1550 C   0  0  0  0  0  2  0  0  0  0  0  0
  -29.9140  -18.5880   18.8050 C   0  0  0  0  0  3  0  0  0  0  0  0
  -30.1850  -16.5900   19.3710 C   0  0  0  0  0  3  0  0  0  0  0  0
  -30.8150  -14.4190   20.2170 C   0  0  0  0  0  0  0  0  0  0  0  0
  -30.4270  -12.2720   19.1210 C   0  0  0  0  0  2  0  0  0  0  0  0
  -29.4730  -12.5410   17.9380 C   0  0  0  0  0  2  0  0  0  0  0  0
  -28.0030  -12.4520   18.3910 C   0  0  0  0  0  2  0  0  0  0  0  0
  -27.7160  -13.2740   19.6770 C   0  0  0  0  0  3  0  0  0  0  0  0
  -28.7930  -13.0210   20.7620 C   0  0  0  0  0  2  0  0  0  0  0  0
  -30.1150  -13.2580   20.1640 N   0  0  0  0  0  0  0  0  0  0  0  0
  -31.9760  -14.5330   19.8160 O   0  0  0  0  0  0  0  0  0  0  0  0
  -30.0490  -15.5100   20.3540 N   0  0  0  0  0  0  0  0  0  0  0  0
  -29.1270  -15.3540   20.7340 H   0  0  0  0  0  0  0  0  0  0  0  0
  -25.3430  -13.9300   20.4290 C   0  0  0  0  0  0  0  0  0  0  0  0
  -24.2670  -13.1790   20.8190 C   0  0  0  0  0  0  0  0  0  0  0  0
  -24.7020  -11.8200   20.7810 C   0  0  0  0  0  0  0  0  0  0  0  0
  -26.3670  -13.0290   20.1810 N   0  0  0  0  0  0  0  0  0  0  0  0
  -25.9850  -11.7540   20.4500 N   0  0  0  0  0  0  0  0  0  0  0  0
  -23.9530  -10.5730   20.9860 C   0  0  0  0  0  0  0  0  0  0  0  0
  -24.3860   -9.5960   21.9100 C   0  0  0  0  0  3  0  0  0  0  0  0
  -23.6410   -8.4120   22.1030 C   0  0  0  0  0  3  0  0  0  0  0  0
  -22.4480   -8.1980   21.3730 C   0  0  0  0  0  0  0  0  0  0  0  0
  -22.0350   -9.1620   20.4360 C   0  0  0  0  0  3  0  0  0  0  0  0
  -22.7800  -10.3360   20.2410 C   0  0  0  0  0  3  0  0  0  0  0  0
  -21.6750   -7.0680   21.4750 O   0  0  0  0  0  0  0  0  0  0  0  0
  -21.6420   -6.3190   22.6250 C   0  0  0  0  0  0  0  0  0  0  0  0
  -21.2560   -6.8740   23.8640 C   0  0  0  0  0  3  0  0  0  0  0  0
  -21.1690   -6.0540   25.0060 C   0  0  0  0  0  3  0  0  0  0  0  0
  -21.4590   -4.6800   24.9120 C   0  0  0  0  0  0  0  0  0  0  0  0
  -21.8370   -4.1250   23.6770 C   0  0  0  0  0  3  0  0  0  0  0  0
  -21.9260   -4.9420   22.5360 C   0  0  0  0  0  0  0  0  0  0  0  0
  -22.2710   -4.3980   21.3450 F   0  0  0  0  0  0  0  0  0  0  0  0
  -21.3690   -3.8890   26.0060 F   0  0  0  0  0  0  0  0  0  0  0  0
  -22.8850  -13.6830   21.1190 C   0  0  0  0  0  0  0  0  0  0  0  0
  -22.1620  -13.0030   22.0000 N   0  0  0  0  0  0  0  0  0  0  0  0
  -22.4570  -14.7180   20.6070 O   0  0  0  0  0  0  0  0  0  0  0  0
  -22.5190  -12.1650   22.4350 H   0  0  0  0  0  0  0  0  0  0  0  0
  -21.2350  -13.3230   22.2440 H   0  0  0  0  0  0  0  0  0  0  0  0
  -25.5260  -15.2980   20.2460 N   0  0  0  0  0  0  0  0  0  0  0  0
  -24.7670  -15.9600   20.3630 H   0  0  0  0  0  0  0  0  0  0  0  0
  -26.3720  -15.7290   19.8950 H   0  0  0  0  0  0  0  0  0  0  0  0
  -25.9340  -20.1040   18.3940 C   0  0  0  0  0  1  0  0  0  0  0  0
  -27.2400  -19.6680   18.7520 O   0  0  0  0  0  0  0  0  0  0  0  0
  -28.7950  -24.2300   18.3870 O   0  0  0  0  0  0  0  0  0  0  0  0
  -29.7780  -25.0840   17.8050 C   0  0  0  0  0  2  0  0  0  0  0  0
  -29.2790  -26.5360   17.7670 C   0  0  0  0  0  2  0  0  0  0  0  0
  -29.3610  -27.2420   19.1300 C   0  0  0  0  0  2  0  0  0  0  0  0
  -28.3820  -26.7140   20.0200 O   0  0  0  0  0  0  0  0  0  0  0  0
  -24.5670  -31.8170   23.1890 C   0  0  0  0  0  0  0  0  0  0  0  0
  -27.2170  -27.4340   20.0650 C   0  0  0  0  0  0  0  0  0  0  0  0
  -23.3600  -30.4330   21.5270 C   0  0  0  0  0  3  0  0  0  0  0  0
  -24.8150  -28.9010   20.0980 C   0  0  0  0  0  0  0  0  0  0  0  0
  -25.8810  -30.7980   21.3340 C   0  0  0  0  0  2  0  0  0  0  0  0
  -25.9680  -29.4320   20.6900 C   0  0  0  0  0  0  0  0  0  0  0  0
  -27.1740  -28.7040   20.6770 C   0  0  0  0  0  3  0  0  0  0  0  0
  -26.0510  -26.8930   19.4940 C   0  0  0  0  0  3  0  0  0  0  0  0
  -24.8460  -27.6260   19.5020 C   0  0  0  0  0  3  0  0  0  0  0  0
  -23.5710  -29.7590   20.1450 C   0  0  0  0  0  2  0  0  0  0  0  0
  -24.6210  -31.0280   22.0770 N   0  0  0  0  0  0  0  0  0  0  0  0
  -23.4870  -32.0880   23.7290 O   0  0  0  0  0  0  0  0  0  0  0  0
  -22.7040  -29.4070   22.4780 C   0  0  0  0  0  0  0  0  0  0  0  0
  -21.3760  -29.2490   22.3610 N   0  0  0  0  0  0  0  0  0  0  0  0
  -23.3850  -28.7550   23.2750 O   0  0  0  0  0  0  0  0  0  0  0  0
  -20.8880  -29.8250   21.6880 H   0  0  0  0  0  0  0  0  0  0  0  0
  -17.9840  -28.1320   22.8910 C   0  0  0  0  0  0  0  0  0  0  0  0
  -20.5510  -28.3130   23.1230 C   0  0  0  0  0  3  0  0  0  0  0  0
  -20.6050  -26.8960   22.5070 C   0  0  0  0  0  2  0  0  0  0  0  0
  -19.4760  -26.6300   21.5050 C   0  0  0  0  0  2  0  0  0  0  0  0
  -18.1110  -26.7960   22.1790 C   0  0  0  0  0  2  0  0  0  0  0  0
  -19.1290  -28.8510   23.3210 C   0  0  0  0  0  0  0  0  0  0  0  0
  -18.9560  -30.1050   23.9470 C   0  0  0  0  0  3  0  0  0  0  0  0
  -17.6690  -30.6380   24.1490 C   0  0  0  0  0  3  0  0  0  0  0  0
  -16.5380  -29.9140   23.7360 C   0  0  0  0  0  3  0  0  0  0  0  0
  -16.6950  -28.6630   23.1130 C   0  0  0  0  0  3  0  0  0  0  0  0
  -25.8560  -32.4350   23.8170 C   0  0  0  0  0  3  0  0  0  0  0  0
  -25.5560  -33.8300   24.1580 N   0  0  0  0  0  0  0  0  0  0  0  0
  -25.8940  -34.8850   23.4050 C   0  0  0  0  0  0  0  0  0  0  0  0
  -26.5640  -34.7870   22.3720 O   0  0  0  0  0  0  0  0  0  0  0  0
  -24.9660  -33.9820   24.9610 H   0  0  0  0  0  0  0  0  0  0  0  0
  -24.1760  -36.6870   23.0570 C   0  0  0  0  0  1  0  0  0  0  0  0
  -25.4120  -36.2730   23.8700 C   0  0  0  0  0  3  0  0  0  0  0  0
  -27.5470  -37.1440   24.7140 C   0  0  0  0  0  1  0  0  0  0  0  0
  -26.4510  -37.3220   23.7670 N   0  0  0  0  0  0  0  0  0  0  0  0
  -26.0490  -38.2430   23.9180 H   0  0  0  0  0  0  0  0  0  0  0  0
  -26.3700  -31.6470   25.0840 C   0  0  1  0  0  0  0  0  0  0  0  0
  -25.2750  -31.4020   26.1480 C   0  0  0  0  0  1  0  0  0  0  0  0
  -26.9480  -30.2720   24.6720 C   0  0  0  0  0  1  0  0  0  0  0  0
  -27.5240  -32.4280   25.7560 C   0  0  0  0  0  1  0  0  0  0  0  0
  1  4  1  0
  2  6  2  0
  4  3  2  0
  5  1  2  0
  5  2  1  0
  6 51  1  0
  6  3  1  0
  7  4  1  0
  9 11  1  0
 10  3  1  0
 10  9  1  0
 10  8  1  0
 11  8  1  0
 11 20  1  0
 12 20  1  0
 13 18  1  0
 14 15  1  0
 14 13  1  0
 16 15  1  0
 16 25  1  0
 16 17  1  0
 18 12  1  0
 18 17  1  0
 19 12  2  0
 20 21  1  0
 22 23  2  0
 23 42  1  0
 24 23  1  0
 24 27  1  0
 25 22  1  0
 25 26  1  0
 26 24  2  0
 27 28  1  0
 28 29  2  0
 30 33  1  0
 30 29  1  0
 31 30  2  0
 32 31  1  0
 32 27  2  0
 33 34  1  0
 34 35  1  0
 35 36  2  0
 37 36  1  0
 37 41  1  0
 38 37  2  0
 39 34  2  0
 39 38  1  0
 40 39  1  0
 42 43  1  0
 43 46  1  0
 43 45  1  0
 44 42  2  0
 47 48  1  0
 47 22  1  0
 49 47  1  0
 50 51  1  0
 52  5  1  0
 53 52  1  0
 54 53  1  0
 54 55  1  0
 55 56  1  0
 56 58  1  0
 57 68  2  0
 58 63  1  0
 59 67  1  0
 59 69  1  0
 60 66  1  0
 60 62  1  0
 61 67  1  0
 62 61  1  0
 63 62  2  0
 64 65  1  0
 64 58  2  0
 65 60  2  0
 66 59  1  0
 67 57  1  0
 69 71  2  0
 70 69  1  0
 72 70  1  0
 73 82  2  0
 73 78  1  0
 74 70  1  0
 74 78  1  0
 75 74  1  0
 76 77  1  0
 76 75  1  0
 77 73  1  0
 78 79  2  0
 79 80  1  0
 81 80  2  0
 82 81  1  0
 83 57  1  0
 83 84  1  0
 83 93  1  0
 84 87  1  0
 85 89  1  0
 85 84  1  0
 86 85  2  0
 89 88  1  0
 91 89  1  0
 91 92  1  0
 91 90  1  0
 93 96  1  1
 93 94  1  0
 95 93  1  0
M  ISO  4  12 100  20 100  55 101  56 101
M  END
>  <TORSDO>  (70) 
F 22

>  <SCORE>  (70) 
-13.216

>  <name>  (70) 
69

>  <ligand_id>  (70) 
69

>  <original_smiles>  (70) 
[H]c1c([H])c([H])c2c(c1[H])C([H])([H])C([H])([H])C([H])([H])C2([H])N([H])C(=O)C1([H])N(C(=O)C([H])(N([H])C(=O)C([H])(N([H])C([H])([H])[H])C([H])([H])[H])C(C([H])([H])[H])(C([H])([H])[H])C([H])([H])[H])C([H])([H])c2c([H])c(OC([H])([H])C([H])([H])C([H])([H])Oc3c([H])c(OC([H])([H])[H])c(C4([H])C([H])([H])C([H])(N([H])C(=O)N5C([H])([H])C([H])([H])C([H])([H])C([H])(n6nc(-c7c([H])c([H])c(Oc8c([H])c([H])c(F)c([H])c8F)c([H])c7[H])c(C(=O)N([H])[H])c6N([H])[H])C5([H])[H])C4([H])[H])c(C([H])([H])[H])c3[H])c([H])c([H])c2C1([H])[H]

>  <smiles>  (70) 
[H]c1c([H])c([H])c2c(c1[H])C([H])([H])C([H])([H])C([H])([H])C2([H])N([H])C(=O)C1([H])N(C(=O)C([H])(N([H])C(=O)C([H])(N([H])C([H])([H])[H])C([H])([H])[H])C(C([H])([H])[H])(C([H])([H])[H])C([H])([H])[H])C([H])([H])c2c([H])c(OC([H])([H])C([H])([H])C([H])([H])Oc3c([H])c(OC([H])([H])[H])c(C4([H])C([H])([H])C([H])(N([H])C(=O)N5C([H])([H])C([H])([H])C([H])([H])C([H])(n6nc(-c7c([H])c([H])c(Oc8c([H])c([H])c(F)c([H])c8F)c([H])c7[H])c(C(=O)N([H])[H])c6N([H])[H])C5([H])[H])C4([H])[H])c(C([H])([H])[H])c3[H])c([H])c([H])c2C1([H])[H]

$$$$
70:0:0
     RDKit          3D

 97106  0  0  1  0  0  0  0  0999 V2000
  -28.3610  -23.5930   21.2070 C   0  0  0  0  0  0  0  0  0  0  0  0
  -28.0180  -23.1960   22.4430 C   0  0  0  0  0  2  0  0  0  0  0  0
  -29.8850  -24.8000   19.8500 C   0  0  0  0  0  2  0  0  0  0  0  0
  -27.4820  -24.4180   20.2760 C   0  0  0  0  0  3  0  0  0  0  0  0
  -29.7430  -23.4480   20.6200 C   0  0  0  0  0  3  0  0  0  0  0  0
  -28.4830  -25.4760   19.6780 C   0  0  0  0  0  3  0  0  0  0  0  0
  -25.7120  -22.5850   19.9150 C   0  0  0  0  0  1  0  0  0  0  0  0
  -26.1470  -24.0780   18.0030 C   0  0  0  0  0  1  0  0  0  0  0  0
  -26.7990  -23.4480   19.2430 C   0  0  0  0  0  3  0  0  0  0  0  0
  -29.8310  -22.2110   19.7690 N   0  0  0  0  0  4  0  0  0  0  0  0
  -30.4650  -22.4010   19.0100 H   0  0  0  0  0  0  0  0  0  0  0  0
  -28.9190  -22.0510   19.3750 H   0  0  0  0  0  0  0  0  0  0  0  0
  -30.3200  -20.9390   20.4070 C   0  0  0  0  0  2  0  0  0  0  0  0
  -28.2240  -19.4700   20.3890 C   0  0  0  0  0  1  0  0  0  0  0  0
  -29.6650  -19.6090   19.8580 C   0  0  0  0  0  3  0  0  0  0  0  0
  -31.1500  -14.8130   19.9450 C   0  0  0  0  0  0  0  0  0  0  0  0
  -30.7760  -12.5750   18.9570 C   0  0  0  0  0  2  0  0  0  0  0  0
  -29.7960  -12.6640   17.7670 C   0  0  0  0  0  2  0  0  0  0  0  0
  -28.3350  -12.5780   18.2460 C   0  0  0  0  0  2  0  0  0  0  0  0
  -28.0420  -13.5150   19.4490 C   0  0  0  0  0  3  0  0  0  0  0  0
  -29.1320  -13.3890   20.5360 C   0  0  0  0  0  2  0  0  0  0  0  0
  -30.4370  -13.6480   19.9080 N   0  0  0  0  0  0  0  0  0  0  0  0
  -32.2430  -14.9170   19.3770 O   0  0  0  0  0  0  0  0  0  0  0  0
  -31.0340  -18.1070   21.5440 C   0  0  0  0  0  2  0  0  0  0  0  0
  -31.4030  -16.6120   21.6030 C   0  0  0  0  0  2  0  0  0  0  0  0
  -29.8360  -16.9190   19.8670 C   0  0  0  0  0  2  0  0  0  0  0  0
  -30.5000  -18.3020   20.1300 C   0  0  0  0  0  3  0  0  0  0  0  0
  -30.6040  -15.8820   20.5990 N   0  0  0  0  0  0  0  0  0  0  0  0
  -25.7210  -14.2150   20.3020 C   0  0  0  0  0  0  0  0  0  0  0  0
  -24.6310  -13.4840   20.7000 C   0  0  0  0  0  0  0  0  0  0  0  0
  -25.0190  -12.1140   20.6010 C   0  0  0  0  0  0  0  0  0  0  0  0
  -26.7020  -13.2900   19.9870 N   0  0  0  0  0  0  0  0  0  0  0  0
  -26.2880  -12.0180   20.2230 N   0  0  0  0  0  0  0  0  0  0  0  0
  -24.2340  -10.8840   20.7840 C   0  0  0  0  0  0  0  0  0  0  0  0
  -24.6290   -9.8920   21.7090 C   0  0  0  0  0  3  0  0  0  0  0  0
  -23.8520   -8.7260   21.8880 C   0  0  0  0  0  3  0  0  0  0  0  0
  -22.6630   -8.5450   21.1420 C   0  0  0  0  0  0  0  0  0  0  0  0
  -22.2840   -9.5250   20.2070 C   0  0  0  0  0  3  0  0  0  0  0  0
  -23.0610  -10.6820   20.0270 C   0  0  0  0  0  3  0  0  0  0  0  0
  -21.8600   -7.4330   21.2300 O   0  0  0  0  0  0  0  0  0  0  0  0
  -21.7440   -6.7170   22.3930 C   0  0  0  0  0  0  0  0  0  0  0  0
  -21.3040   -7.3130   23.5950 C   0  0  0  0  0  3  0  0  0  0  0  0
  -21.1330   -6.5250   24.7510 C   0  0  0  0  0  3  0  0  0  0  0  0
  -21.3910   -5.1420   24.7040 C   0  0  0  0  0  0  0  0  0  0  0  0
  -21.8240   -4.5440   23.5070 C   0  0  0  0  0  3  0  0  0  0  0  0
  -21.9970   -5.3300   22.3540 C   0  0  0  0  0  0  0  0  0  0  0  0
  -22.3940   -4.7470   21.1970 F   0  0  0  0  0  0  0  0  0  0  0  0
  -21.2190   -4.3850   25.8120 F   0  0  0  0  0  0  0  0  0  0  0  0
  -23.2750  -14.0250   21.0480 C   0  0  0  0  0  0  0  0  0  0  0  0
  -22.5500  -13.3500   21.9370 N   0  0  0  0  0  0  0  0  0  0  0  0
  -22.8630  -15.0800   20.5710 O   0  0  0  0  0  0  0  0  0  0  0  0
  -22.8910  -12.5010   22.3590 H   0  0  0  0  0  0  0  0  0  0  0  0
  -21.6380  -13.6990   22.2000 H   0  0  0  0  0  0  0  0  0  0  0  0
  -25.9490  -15.5780   20.1590 N   0  0  0  0  0  0  0  0  0  0  0  0
  -25.2270  -16.2670   20.3380 H   0  0  0  0  0  0  0  0  0  0  0  0
  -26.8080  -15.9790   19.8070 H   0  0  0  0  0  0  0  0  0  0  0  0
  -28.4900  -26.8230   20.2810 O   0  0  0  0  0  0  0  0  0  0  0  0
  -24.6630  -32.0340   23.3870 C   0  0  0  0  0  0  0  0  0  0  0  0
  -27.3540  -27.6320   20.2250 C   0  0  0  0  0  0  0  0  0  0  0  0
  -23.4830  -30.6560   21.7110 C   0  0  0  0  0  3  0  0  0  0  0  0
  -24.9600  -29.1810   20.2460 C   0  0  0  0  0  0  0  0  0  0  0  0
  -26.0120  -31.0340   21.5390 C   0  0  0  0  0  2  0  0  0  0  0  0
  -26.1150  -29.6730   20.8670 C   0  0  0  0  0  0  0  0  0  0  0  0
  -27.3120  -28.9040   20.8620 C   0  0  0  0  0  3  0  0  0  0  0  0
  -26.1880  -27.2080   19.5560 C   0  0  0  0  0  3  0  0  0  0  0  0
  -24.9970  -27.9470   19.5790 C   0  0  0  0  0  3  0  0  0  0  0  0
  -23.7090  -30.0290   20.3110 C   0  0  0  0  0  2  0  0  0  0  0  0
  -24.7390  -31.2550   22.2700 N   0  0  0  0  0  0  0  0  0  0  0  0
  -23.5740  -32.2770   23.9260 O   0  0  0  0  0  0  0  0  0  0  0  0
  -22.8450  -29.5950   22.6400 C   0  0  0  0  0  0  0  0  0  0  0  0
  -21.5300  -29.3720   22.4840 N   0  0  0  0  0  0  0  0  0  0  0  0
  -23.5310  -28.9820   23.4610 O   0  0  0  0  0  0  0  0  0  0  0  0
  -21.0330  -29.9260   21.7990 H   0  0  0  0  0  0  0  0  0  0  0  0
  -18.1890  -28.0480   22.8880 C   0  0  0  0  0  0  0  0  0  0  0  0
  -20.7270  -28.3980   23.2270 C   0  0  0  0  0  3  0  0  0  0  0  0
  -20.8970  -26.9750   22.6480 C   0  0  0  0  0  2  0  0  0  0  0  0
  -19.8340  -26.6180   21.6030 C   0  0  0  0  0  2  0  0  0  0  0  0
  -18.4310  -26.7110   22.2090 C   0  0  0  0  0  2  0  0  0  0  0  0
  -19.2670  -28.8480   23.3520 C   0  0  0  0  0  0  0  0  0  0  0  0
  -18.9880  -30.0990   23.9420 C   0  0  0  0  0  3  0  0  0  0  0  0
  -17.6620  -30.5530   24.0710 C   0  0  0  0  0  3  0  0  0  0  0  0
  -16.5970  -29.7510   23.6220 C   0  0  0  0  0  3  0  0  0  0  0  0
  -16.8630  -28.5000   23.0380 C   0  0  0  0  0  3  0  0  0  0  0  0
  -25.9360  -32.6720   24.0240 C   0  0  0  0  0  3  0  0  0  0  0  0
  -26.4070  -31.9350   25.3380 C   0  0  1  0  0  0  0  0  0  0  0  0
  -25.2760  -31.7250   26.3720 C   0  0  0  0  0  1  0  0  0  0  0  0
  -27.0060  -30.5500   25.0020 C   0  0  0  0  0  1  0  0  0  0  0  0
  -27.5300  -32.7500   26.0220 C   0  0  0  0  0  1  0  0  0  0  0  0
  -25.6330  -34.0820   24.3010 N   0  0  0  0  0  0  0  0  0  0  0  0
  -25.9840  -35.1040   23.5100 C   0  0  0  0  0  0  0  0  0  0  0  0
  -26.6720  -34.9600   22.4950 O   0  0  0  0  0  0  0  0  0  0  0  0
  -25.0320  -34.2680   25.0900 H   0  0  0  0  0  0  0  0  0  0  0  0
  -24.2720  -36.8930   23.0590 C   0  0  0  0  0  1  0  0  0  0  0  0
  -25.4960  -36.5110   23.9100 C   0  0  0  0  0  3  0  0  0  0  0  0
  -27.6190  -37.4110   24.7530 C   0  0  0  0  0  1  0  0  0  0  0  0
  -26.5370  -37.5550   23.7810 N   0  0  0  0  0  0  0  0  0  0  0  0
  -26.1340  -38.4810   23.8890 H   0  0  0  0  0  0  0  0  0  0  0  0
  1  2  2  0
  3  5  1  0
  4  9  1  0
  4  1  1  0
  5 10  1  0
  5  1  1  0
  6  3  1  0
  6  4  1  0
  6 57  1  0
  8  9  1  0
  9  7  1  0
 10 13  1  0
 11 10  1  0
 12 10  1  0
 15 14  1  0
 15 13  1  0
 16 28  1  0
 17 22  1  0
 18 19  1  0
 18 17  1  0
 20 19  1  0
 20 32  1  0
 20 21  1  0
 22 16  1  0
 22 21  1  0
 23 16  2  0
 24 25  1  0
 26 27  1  0
 26 28  1  0
 27 15  1  0
 27 24  1  0
 28 25  1  0
 29 30  2  0
 30 49  1  0
 31 30  1  0
 31 34  1  0
 32 33  1  0
 32 29  1  0
 33 31  2  0
 34 35  1  0
 35 36  2  0
 37 40  1  0
 37 36  1  0
 38 37  2  0
 39 38  1  0
 39 34  2  0
 40 41  1  0
 41 42  1  0
 42 43  2  0
 44 43  1  0
 44 48  1  0
 45 44  2  0
 46 41  2  0
 46 45  1  0
 47 46  1  0
 49 50  1  0
 50 53  1  0
 50 52  1  0
 51 49  2  0
 54 29  1  0
 54 55  1  0
 56 54  1  0
 58 69  2  0
 59 57  1  0
 59 64  1  0
 60 68  1  0
 60 70  1  0
 61 67  1  0
 61 63  1  0
 62 68  1  0
 63 62  1  0
 64 63  2  0
 65 66  1  0
 65 59  2  0
 66 61  2  0
 67 60  1  0
 68 58  1  0
 70 72  2  0
 71 70  1  0
 73 71  1  0
 74 83  2  0
 74 79  1  0
 75 71  1  0
 75 79  1  0
 76 75  1  0
 77 78  1  0
 77 76  1  0
 78 74  1  0
 79 80  2  0
 80 81  1  0
 82 81  2  0
 83 82  1  0
 84 58  1  0
 84 89  1  0
 84 85  1  0
 85 88  1  1
 85 86  1  0
 87 85  1  0
 89 92  1  0
 90 94  1  0
 90 89  1  0
 91 90  2  0
 94 93  1  0
 96 97  1  0
 96 94  1  0
 96 95  1  0
M  ISO  4   6 101  16 100  28 100  57 101
M  END
>  <TORSDO>  (71) 
F 20

>  <SCORE>  (71) 
-13.028

>  <name>  (71) 
70

>  <ligand_id>  (71) 
70

>  <original_smiles>  (71) 
[H]C([H])=C1C([H])(C([H])(C([H])([H])[H])C([H])([H])[H])C([H])(Oc2c([H])c([H])c3c(c2[H])C([H])([H])N(C(=O)C([H])(N([H])C(=O)C([H])(N([H])C([H])([H])[H])C([H])([H])[H])C(C([H])([H])[H])(C([H])([H])[H])C([H])([H])[H])C([H])(C(=O)N([H])C2([H])c4c([H])c([H])c([H])c([H])c4C([H])([H])C([H])([H])C2([H])[H])C3([H])[H])C([H])([H])C1([H])[N+]([H])([H])C([H])([H])C([H])(C([H])([H])[H])C1([H])C([H])([H])N(C(=O)N2C([H])([H])C([H])([H])C([H])([H])C([H])(n3nc(-c4c([H])c([H])c(Oc5c([H])c([H])c(F)c([H])c5F)c([H])c4[H])c(C(=O)N([H])[H])c3N([H])[H])C2([H])[H])C([H])([H])C1([H])[H]

>  <smiles>  (71) 
[H]C([H])=C1C([H])(C([H])(C([H])([H])[H])C([H])([H])[H])C([H])(Oc2c([H])c([H])c3c(c2[H])C([H])([H])N(C(=O)C([H])(N([H])C(=O)C([H])(N([H])C([H])([H])[H])C([H])([H])[H])C(C([H])([H])[H])(C([H])([H])[H])C([H])([H])[H])C([H])(C(=O)N([H])C2([H])c4c([H])c([H])c([H])c([H])c4C([H])([H])C([H])([H])C2([H])[H])C3([H])[H])C([H])([H])C1([H])[N+]([H])([H])C([H])([H])C([H])(C([H])([H])[H])C1([H])C([H])([H])N(C(=O)N2C([H])([H])C([H])([H])C([H])([H])C([H])(n3nc(-c4c([H])c([H])c(Oc5c([H])c([H])c(F)c([H])c5F)c([H])c4[H])c(C(=O)N([H])[H])c3N([H])[H])C2([H])[H])C([H])([H])C1([H])[H]

$$$$
71:0:0
     RDKit          3D

 90 99  0  0  1  0  0  0  0  0999 V2000
  -29.9060  -21.5780   21.9410 C   0  0  0  0  0  3  0  0  0  0  0  0
  -28.4350  -21.7990   19.6180 C   0  0  0  0  0  3  0  0  0  0  0  0
  -29.6990  -20.3760   21.1960 C   0  0  0  0  0  0  0  0  0  0  0  0
  -28.9640  -20.4700   20.0300 C   0  0  0  0  0  0  0  0  0  0  0  0
  -29.3880  -22.8710   21.5410 C   0  0  0  0  0  0  0  0  0  0  0  0
  -28.6210  -23.0840   20.3480 C   0  0  0  0  0  0  0  0  0  0  0  0
  -30.1380  -18.8910   21.5160 C   0  0  0  0  0  2  0  0  0  0  0  0
  -28.8640  -18.9710   19.4640 C   0  0  0  0  0  2  0  0  0  0  0  0
  -29.8960  -17.9460   20.2450 C   0  0  0  0  0  3  0  0  0  0  0  0
  -29.6390  -24.0550   22.4570 C   0  0  0  0  0  1  0  0  0  0  0  0
  -30.4660  -15.1440   20.2250 C   0  0  0  0  0  0  0  0  0  0  0  0
  -30.3850  -12.7640   19.2950 C   0  0  0  0  0  2  0  0  0  0  0  0
  -29.4330  -12.6550   18.0780 C   0  0  0  0  0  2  0  0  0  0  0  0
  -27.9860  -12.4070   18.5420 C   0  0  0  0  0  2  0  0  0  0  0  0
  -27.5750  -13.3470   19.7040 C   0  0  0  0  0  3  0  0  0  0  0  0
  -28.6450  -13.4100   20.8150 C   0  0  0  0  0  2  0  0  0  0  0  0
  -29.8900  -13.8650   20.1820 N   0  0  0  0  0  0  0  0  0  0  0  0
  -31.6660  -15.2000   19.9280 O   0  0  0  0  0  0  0  0  0  0  0  0
  -29.6800  -16.3450   20.3960 N   0  0  0  0  0  0  0  0  0  0  0  0
  -28.7230  -16.1170   20.6190 H   0  0  0  0  0  0  0  0  0  0  0  0
  -25.2110  -13.9080   20.4920 C   0  0  0  0  0  0  0  0  0  0  0  0
  -24.1550  -13.1260   20.8710 C   0  0  0  0  0  0  0  0  0  0  0  0
  -24.6220  -11.7780   20.8220 C   0  0  0  0  0  0  0  0  0  0  0  0
  -26.2510  -13.0350   20.2250 N   0  0  0  0  0  0  0  0  0  0  0  0
  -25.9100  -11.7480   20.4910 N   0  0  0  0  0  0  0  0  0  0  0  0
  -23.9010  -10.5120   21.0110 C   0  0  0  0  0  0  0  0  0  0  0  0
  -24.3350   -9.5480   21.9470 C   0  0  0  0  0  3  0  0  0  0  0  0
  -23.6120   -8.3470   22.1250 C   0  0  0  0  0  3  0  0  0  0  0  0
  -22.4430   -8.1030   21.3660 C   0  0  0  0  0  0  0  0  0  0  0  0
  -22.0300   -9.0570   20.4190 C   0  0  0  0  0  3  0  0  0  0  0  0
  -22.7520  -10.2480   20.2400 C   0  0  0  0  0  3  0  0  0  0  0  0
  -21.6930   -6.9550   21.4530 O   0  0  0  0  0  0  0  0  0  0  0  0
  -21.6250   -6.2270   22.6130 C   0  0  0  0  0  0  0  0  0  0  0  0
  -21.1540   -6.7920   23.8190 C   0  0  0  0  0  3  0  0  0  0  0  0
  -21.0340   -5.9890   24.9720 C   0  0  0  0  0  3  0  0  0  0  0  0
  -21.3730   -4.6240   24.9180 C   0  0  0  0  0  0  0  0  0  0  0  0
  -21.8350   -4.0590   23.7170 C   0  0  0  0  0  3  0  0  0  0  0  0
  -21.9570   -4.8590   22.5670 C   0  0  0  0  0  0  0  0  0  0  0  0
  -22.3840   -4.3050   21.4060 F   0  0  0  0  0  0  0  0  0  0  0  0
  -21.2490   -3.8500   26.0230 F   0  0  0  0  0  0  0  0  0  0  0  0
  -22.7600  -13.5980   21.1640 C   0  0  0  0  0  0  0  0  0  0  0  0
  -22.0460  -12.8970   22.0360 N   0  0  0  0  0  0  0  0  0  0  0  0
  -22.3130  -14.6250   20.6520 O   0  0  0  0  0  0  0  0  0  0  0  0
  -22.4220  -12.0680   22.4720 H   0  0  0  0  0  0  0  0  0  0  0  0
  -21.1100  -13.1950   22.2740 H   0  0  0  0  0  0  0  0  0  0  0  0
  -25.3660  -15.2810   20.3220 N   0  0  0  0  0  0  0  0  0  0  0  0
  -24.5940  -15.9270   20.4440 H   0  0  0  0  0  0  0  0  0  0  0  0
  -26.1930  -15.7200   19.9380 H   0  0  0  0  0  0  0  0  0  0  0  0
  -27.8670  -24.5490   19.9500 C   0  0  0  0  0  2  0  0  0  0  0  0
  -28.1880  -26.0660   20.3160 O   0  0  0  0  0  0  0  0  0  0  0  0
  -24.6440  -31.9020   23.2770 C   0  0  0  0  0  0  0  0  0  0  0  0
  -27.1810  -27.1250   20.2220 C   0  0  0  0  0  0  0  0  0  0  0  0
  -23.4380  -30.5180   21.6340 C   0  0  0  0  0  3  0  0  0  0  0  0
  -24.8760  -28.9410   20.1930 C   0  0  0  0  0  0  0  0  0  0  0  0
  -25.9980  -30.7540   21.4740 C   0  0  0  0  0  2  0  0  0  0  0  0
  -26.0620  -29.3580   20.8110 C   0  0  0  0  0  0  0  0  0  0  0  0
  -27.2120  -28.4670   20.8100 C   0  0  0  0  0  3  0  0  0  0  0  0
  -25.9730  -26.8410   19.5460 C   0  0  0  0  0  3  0  0  0  0  0  0
  -24.8490  -27.6990   19.5430 C   0  0  0  0  0  3  0  0  0  0  0  0
  -23.6560  -29.8500   20.2510 C   0  0  0  0  0  2  0  0  0  0  0  0
  -24.7140  -31.0800   22.1830 N   0  0  0  0  0  0  0  0  0  0  0  0
  -23.5600  -32.1900   23.8060 O   0  0  0  0  0  0  0  0  0  0  0  0
  -22.7530  -29.5120   22.5940 C   0  0  0  0  0  0  0  0  0  0  0  0
  -21.4250  -29.3380   22.4650 N   0  0  0  0  0  0  0  0  0  0  0  0
  -23.4200  -28.8870   23.4220 O   0  0  0  0  0  0  0  0  0  0  0  0
  -20.9390  -29.8950   21.7750 H   0  0  0  0  0  0  0  0  0  0  0  0
  -18.0460  -28.1220   22.9540 C   0  0  0  0  0  0  0  0  0  0  0  0
  -20.6030  -28.3990   23.2330 C   0  0  0  0  0  3  0  0  0  0  0  0
  -20.7140  -26.9660   22.6630 C   0  0  0  0  0  2  0  0  0  0  0  0
  -19.6200  -26.6350   21.6440 C   0  0  0  0  0  2  0  0  0  0  0  0
  -18.2330  -26.7720   22.2810 C   0  0  0  0  0  2  0  0  0  0  0  0
  -19.1580  -28.8920   23.3880 C   0  0  0  0  0  0  0  0  0  0  0  0
  -18.9280  -30.1520   23.9800 C   0  0  0  0  0  3  0  0  0  0  0  0
  -17.6180  -30.6440   24.1400 C   0  0  0  0  0  3  0  0  0  0  0  0
  -16.5210  -29.8710   23.7240 C   0  0  0  0  0  3  0  0  0  0  0  0
  -16.7350  -28.6110   23.1360 C   0  0  0  0  0  3  0  0  0  0  0  0
  -25.9230  -32.5350   23.9030 C   0  0  0  0  0  3  0  0  0  0  0  0
  -25.6180  -33.9360   24.2350 N   0  0  0  0  0  0  0  0  0  0  0  0
  -25.9290  -34.9890   23.4690 C   0  0  0  0  0  0  0  0  0  0  0  0
  -26.5690  -34.8850   22.4180 O   0  0  0  0  0  0  0  0  0  0  0  0
  -25.0510  -34.0920   25.0550 H   0  0  0  0  0  0  0  0  0  0  0  0
  -24.1800  -36.7770   23.1820 C   0  0  0  0  0  1  0  0  0  0  0  0
  -25.4580  -36.3800   23.9390 C   0  0  0  0  0  3  0  0  0  0  0  0
  -27.6200  -37.2850   24.6710 C   0  0  0  0  0  1  0  0  0  0  0  0
  -26.4790  -37.4370   23.7720 N   0  0  0  0  0  0  0  0  0  0  0  0
  -26.0740  -38.3570   23.9260 H   0  0  0  0  0  0  0  0  0  0  0  0
  -26.4280  -31.7670   25.1870 C   0  0  1  0  0  0  0  0  0  0  0  0
  -25.3280  -31.5410   26.2520 C   0  0  0  0  0  1  0  0  0  0  0  0
  -27.0070  -30.3840   24.8110 C   0  0  0  0  0  1  0  0  0  0  0  0
  -27.5800  -32.5580   25.8500 C   0  0  0  0  0  1  0  0  0  0  0  0
  2  4  2  0
  2  6  1  0
  3  7  1  0
  3  1  2  0
  4  3  1  0
  5  1  1  0
  5 10  1  0
  6  5  2  0
  8  4  1  0
  8  9  1  0
  9 19  1  0
  9  7  1  0
 11 19  1  0
 12 17  1  0
 13 14  1  0
 13 12  1  0
 15 14  1  0
 15 24  1  0
 15 16  1  0
 17 11  1  0
 17 16  1  0
 18 11  2  0
 19 20  1  0
 21 22  2  0
 22 41  1  0
 23 22  1  0
 23 26  1  0
 24 25  1  0
 24 21  1  0
 25 23  2  0
 26 27  1  0
 27 28  2  0
 29 32  1  0
 29 28  1  0
 30 29  2  0
 31 30  1  0
 31 26  2  0
 32 33  1  0
 33 34  1  0
 34 35  2  0
 36 35  1  0
 36 40  1  0
 37 36  2  0
 38 33  2  0
 38 37  1  0
 39 38  1  0
 41 42  1  0
 42 45  1  0
 42 44  1  0
 43 41  2  0
 46 47  1  0
 46 21  1  0
 48 46  1  0
 49 50  1  0
 49  6  1  0
 51 62  2  0
 52 50  1  0
 52 57  1  0
 53 61  1  0
 53 63  1  0
 54 60  1  0
 54 56  1  0
 55 61  1  0
 56 55  1  0
 57 56  2  0
 58 52  2  0
 59 58  1  0
 59 54  2  0
 60 53  1  0
 61 51  1  0
 63 65  2  0
 64 63  1  0
 66 64  1  0
 67 76  2  0
 67 72  1  0
 68 64  1  0
 68 72  1  0
 69 68  1  0
 70 71  1  0
 70 69  1  0
 71 67  1  0
 72 73  2  0
 73 74  1  0
 75 74  2  0
 76 75  1  0
 77 51  1  0
 77 78  1  0
 77 87  1  0
 78 81  1  0
 79 83  1  0
 79 78  1  0
 80 79  2  0
 83 82  1  0
 85 86  1  0
 85 83  1  0
 85 84  1  0
 87 90  1  1
 87 88  1  0
 89 87  1  0
M  ISO  4  11 100  19 100  49 101  50 101
M  END
>  <TORSDO>  (72) 
F 17

>  <SCORE>  (72) 
-15.768

>  <name>  (72) 
71

>  <ligand_id>  (72) 
71

>  <original_smiles>  (72) 
[H]c1c([H])c([H])c2c(c1[H])C([H])([H])C([H])([H])C([H])([H])C2([H])N([H])C(=O)C1([H])N(C(=O)C([H])(N([H])C(=O)C([H])(N([H])C([H])([H])[H])C([H])([H])[H])C(C([H])([H])[H])(C([H])([H])[H])C([H])([H])[H])C([H])([H])c2c([H])c(OC([H])([H])c3c([H])c4c(c([H])c3C([H])([H])[H])C([H])([H])C([H])(N([H])C(=O)N3C([H])([H])C([H])([H])C([H])([H])C([H])(n5nc(-c6c([H])c([H])c(Oc7c([H])c([H])c(F)c([H])c7F)c([H])c6[H])c(C(=O)N([H])[H])c5N([H])[H])C3([H])[H])C4([H])[H])c([H])c([H])c2C1([H])[H]

>  <smiles>  (72) 
[H]c1c([H])c([H])c2c(c1[H])C([H])([H])C([H])([H])C([H])([H])C2([H])N([H])C(=O)C1([H])N(C(=O)C([H])(N([H])C(=O)C([H])(N([H])C([H])([H])[H])C([H])([H])[H])C(C([H])([H])[H])(C([H])([H])[H])C([H])([H])[H])C([H])([H])c2c([H])c(OC([H])([H])c3c([H])c4c(c([H])c3C([H])([H])[H])C([H])([H])C([H])(N([H])C(=O)N3C([H])([H])C([H])([H])C([H])([H])C([H])(n5nc(-c6c([H])c([H])c(Oc7c([H])c([H])c(F)c([H])c7F)c([H])c6[H])c(C(=O)N([H])[H])c5N([H])[H])C3([H])[H])C4([H])[H])c([H])c([H])c2C1([H])[H]

$$$$
72:0:0
     RDKit          3D

 99109  0  0  1  0  0  0  0  0999 V2000
  -30.2200  -21.9780   20.0230 C   0  0  0  0  0  2  0  0  0  0  0  0
  -31.3830  -21.9230   22.2220 C   0  0  0  0  0  2  0  0  0  0  0  0
  -30.2200  -23.5250   20.0650 C   0  0  0  0  0  2  0  0  0  0  0  0
  -31.4030  -23.4700   22.2200 C   0  0  0  0  0  2  0  0  0  0  0  0
  -31.4080  -21.3520   20.7890 C   0  0  0  0  0  3  0  0  0  0  0  0
  -30.2650  -24.0640   21.4510 N   0  0  1  0  0  4  0  0  0  0  0  0
  -29.4230  -23.7600   21.9190 H   0  0  0  0  0  0  0  0  0  0  0  0
  -31.4730  -19.2250   19.3970 C   0  0  0  0  0  3  0  0  0  0  0  0
  -31.2110  -18.9650   21.7960 C   0  0  0  0  0  3  0  0  0  0  0  0
  -31.3920  -19.8140   20.6780 C   0  0  0  0  0  0  0  0  0  0  0  0
  -30.8700  -17.0400   20.3160 C   0  0  0  0  0  0  0  0  0  0  0  0
  -31.1980  -17.8450   19.1940 C   0  0  0  0  0  0  0  0  0  0  0  0
  -30.9590  -17.5880   21.6210 C   0  0  0  0  0  0  0  0  0  0  0  0
  -30.6040  -16.6190   23.0100 Cl  0  0  0  0  0  0  0  0  0  0  0  0
  -30.7510  -14.6130   19.9400 C   0  0  0  0  0  0  0  0  0  0  0  0
  -30.3940  -12.3880   18.9090 C   0  0  0  0  0  2  0  0  0  0  0  0
  -29.3690  -12.4710   17.7610 C   0  0  0  0  0  2  0  0  0  0  0  0
  -27.9420  -12.2580   18.3020 C   0  0  0  0  0  2  0  0  0  0  0  0
  -27.6470  -13.1560   19.5290 C   0  0  0  0  0  3  0  0  0  0  0  0
  -28.7920  -13.0760   20.5730 C   0  0  0  0  0  2  0  0  0  0  0  0
  -30.0370  -13.4410   19.8800 N   0  0  0  0  0  0  0  0  0  0  0  0
  -31.9420  -14.6120   19.6190 O   0  0  0  0  0  0  0  0  0  0  0  0
  -30.1220  -15.8280   20.1220 N   0  0  0  0  0  0  0  0  0  0  0  0
  -25.3330  -13.8220   20.4410 C   0  0  0  0  0  0  0  0  0  0  0  0
  -24.2790  -13.0640   20.8650 C   0  0  0  0  0  0  0  0  0  0  0  0
  -24.7080  -11.7070   20.7630 C   0  0  0  0  0  0  0  0  0  0  0  0
  -26.3360  -12.9190   20.1090 N   0  0  0  0  0  0  0  0  0  0  0  0
  -25.9690  -11.6430   20.3650 N   0  0  0  0  0  0  0  0  0  0  0  0
  -23.9740  -10.4550   20.9610 C   0  0  0  0  0  0  0  0  0  0  0  0
  -24.4270   -9.4730   21.8670 C   0  0  0  0  0  3  0  0  0  0  0  0
  -23.6960   -8.2820   22.0510 C   0  0  0  0  0  3  0  0  0  0  0  0
  -22.4980   -8.0680   21.3280 C   0  0  0  0  0  0  0  0  0  0  0  0
  -22.0670   -9.0380   20.4080 C   0  0  0  0  0  3  0  0  0  0  0  0
  -22.7990  -10.2220   20.2220 C   0  0  0  0  0  3  0  0  0  0  0  0
  -21.7320   -6.9320   21.4250 O   0  0  0  0  0  0  0  0  0  0  0  0
  -21.6680   -6.2090   22.5890 C   0  0  0  0  0  0  0  0  0  0  0  0
  -21.2210   -6.7810   23.7990 C   0  0  0  0  0  3  0  0  0  0  0  0
  -21.1040   -5.9830   24.9550 C   0  0  0  0  0  3  0  0  0  0  0  0
  -21.4260   -4.6130   24.9010 C   0  0  0  0  0  0  0  0  0  0  0  0
  -21.8700   -4.0410   23.6950 C   0  0  0  0  0  3  0  0  0  0  0  0
  -21.9880   -4.8370   22.5420 C   0  0  0  0  0  0  0  0  0  0  0  0
  -22.3940   -4.2770   21.3770 F   0  0  0  0  0  0  0  0  0  0  0  0
  -21.3060   -3.8430   26.0070 F   0  0  0  0  0  0  0  0  0  0  0  0
  -22.9150  -13.5630   21.2460 C   0  0  0  0  0  0  0  0  0  0  0  0
  -22.2380  -12.8560   22.1460 N   0  0  0  0  0  0  0  0  0  0  0  0
  -22.4640  -14.6090   20.7830 O   0  0  0  0  0  0  0  0  0  0  0  0
  -22.6220  -12.0110   22.5400 H   0  0  0  0  0  0  0  0  0  0  0  0
  -21.3260  -13.1670   22.4460 H   0  0  0  0  0  0  0  0  0  0  0  0
  -25.4970  -15.1940   20.2860 N   0  0  0  0  0  0  0  0  0  0  0  0
  -24.7300  -15.8390   20.4420 H   0  0  0  0  0  0  0  0  0  0  0  0
  -26.3080  -15.6310   19.8690 H   0  0  0  0  0  0  0  0  0  0  0  0
  -28.1140  -17.5020   19.8730 C   0  0  0  0  0  2  0  0  0  0  0  0
  -28.1200  -16.5670   18.7040 C   0  0  0  0  0  2  0  0  0  0  0  0
  -28.6950  -16.0910   20.0350 C   0  0  0  0  0  3  0  0  0  0  0  0
  -31.6770  -17.9890   16.8430 C   0  0  0  0  0  1  0  0  0  0  0  0
  -31.1150  -17.2760   17.9390 O   0  0  0  0  0  0  0  0  0  0  0  0
  -30.2730  -25.5660   21.4860 C   0  0  0  0  0  2  0  0  0  0  0  0
  -28.8760  -26.2470   21.5080 C   0  0  0  0  0  2  0  0  0  0  0  0
  -28.3790  -26.5940   20.2030 O   0  0  0  0  0  0  0  0  0  0  0  0
  -24.5780  -31.8380   23.2050 C   0  0  0  0  0  0  0  0  0  0  0  0
  -27.2340  -27.3680   20.2000 C   0  0  0  0  0  0  0  0  0  0  0  0
  -23.3690  -30.4250   21.5680 C   0  0  0  0  0  3  0  0  0  0  0  0
  -24.8290  -28.8690   20.1630 C   0  0  0  0  0  0  0  0  0  0  0  0
  -25.8930  -30.7830   21.3720 C   0  0  0  0  0  2  0  0  0  0  0  0
  -25.9800  -29.4030   20.7570 C   0  0  0  0  0  0  0  0  0  0  0  0
  -27.1820  -28.6590   20.7770 C   0  0  0  0  0  3  0  0  0  0  0  0
  -26.0730  -26.8550   19.5810 C   0  0  0  0  0  3  0  0  0  0  0  0
  -24.8700  -27.5920   19.5710 C   0  0  0  0  0  3  0  0  0  0  0  0
  -23.5840  -29.7290   20.1950 C   0  0  0  0  0  2  0  0  0  0  0  0
  -24.6300  -31.0300   22.1090 N   0  0  0  0  0  0  0  0  0  0  0  0
  -23.4960  -32.1210   23.7400 O   0  0  0  0  0  0  0  0  0  0  0  0
  -22.7080  -29.4190   22.5370 C   0  0  0  0  0  0  0  0  0  0  0  0
  -21.3860  -29.2310   22.3950 N   0  0  0  0  0  0  0  0  0  0  0  0
  -23.3810  -28.8090   23.3720 O   0  0  0  0  0  0  0  0  0  0  0  0
  -20.9040  -29.7770   21.6940 H   0  0  0  0  0  0  0  0  0  0  0  0
  -18.0150  -28.0060   22.8320 C   0  0  0  0  0  0  0  0  0  0  0  0
  -20.5600  -28.3020   23.1650 C   0  0  0  0  0  3  0  0  0  0  0  0
  -20.6950  -26.8580   22.6270 C   0  0  0  0  0  2  0  0  0  0  0  0
  -19.6250  -26.4990   21.5910 C   0  0  0  0  0  2  0  0  0  0  0  0
  -18.2250  -26.6430   22.1930 C   0  0  0  0  0  2  0  0  0  0  0  0
  -19.1130  -28.7920   23.2730 C   0  0  0  0  0  0  0  0  0  0  0  0
  -18.8630  -30.0680   23.8240 C   0  0  0  0  0  3  0  0  0  0  0  0
  -17.5490  -30.5580   23.9420 C   0  0  0  0  0  3  0  0  0  0  0  0
  -16.4660  -29.7680   23.5200 C   0  0  0  0  0  3  0  0  0  0  0  0
  -16.6990  -28.4960   22.9690 C   0  0  0  0  0  3  0  0  0  0  0  0
  -25.8680  -32.4660   23.8220 C   0  0  0  0  0  3  0  0  0  0  0  0
  -25.5680  -33.8660   24.1500 N   0  0  0  0  0  0  0  0  0  0  0  0
  -25.9000  -34.9130   23.3850 C   0  0  0  0  0  0  0  0  0  0  0  0
  -26.5660  -34.8030   22.3500 O   0  0  0  0  0  0  0  0  0  0  0  0
  -24.9800  -34.0270   24.9550 H   0  0  0  0  0  0  0  0  0  0  0  0
  -24.1740  -36.7070   23.0340 C   0  0  0  0  0  1  0  0  0  0  0  0
  -25.4190  -36.3040   23.8400 C   0  0  0  0  0  3  0  0  0  0  0  0
  -27.5580  -37.1880   24.6560 C   0  0  0  0  0  1  0  0  0  0  0  0
  -26.4520  -37.3560   23.7190 N   0  0  0  0  0  0  0  0  0  0  0  0
  -26.0460  -38.2760   23.8690 H   0  0  0  0  0  0  0  0  0  0  0  0
  -26.3870  -31.6940   25.0970 C   0  0  1  0  0  0  0  0  0  0  0  0
  -25.2970  -31.4580   26.1660 C   0  0  0  0  0  1  0  0  0  0  0  0
  -26.9650  -30.3150   24.6980 C   0  0  0  0  0  1  0  0  0  0  0  0
  -27.5380  -32.4870   25.7580 C   0  0  0  0  0  1  0  0  0  0  0  0
  1  3  1  0
  1  5  1  0
  3  6  1  0
  4  2  1  0
  5 10  1  0
  5  2  1  0
  6 57  1  0
  6  7  1  1
  6  4  1  0
  8 10  1  0
 10  9  2  0
 11 13  2  0
 12  8  2  0
 12 11  1  0
 13  9  1  0
 13 14  1  0
 15 23  1  0
 16 21  1  0
 17 18  1  0
 17 16  1  0
 19 18  1  0
 19 27  1  0
 19 20  1  0
 21 15  1  0
 21 20  1  0
 22 15  2  0
 23 11  1  0
 24 25  2  0
 25 44  1  0
 26 25  1  0
 26 29  1  0
 27 28  1  0
 27 24  1  0
 28 26  2  0
 29 30  1  0
 30 31  2  0
 32 35  1  0
 32 31  1  0
 33 32  2  0
 34 33  1  0
 34 29  2  0
 35 36  1  0
 36 37  1  0
 37 38  2  0
 39 38  1  0
 39 43  1  0
 40 39  2  0
 41 36  2  0
 41 40  1  0
 42 41  1  0
 44 45  1  0
 45 48  1  0
 45 47  1  0
 46 44  2  0
 49 24  1  0
 49 50  1  0
 51 49  1  0
 52 54  1  0
 53 52  1  0
 53 54  1  0
 54 23  1  0
 55 56  1  0
 56 12  1  0
 57 58  1  0
 59 58  1  0
 60 71  2  0
 61 59  1  0
 61 66  1  0
 62 70  1  0
 62 72  1  0
 63 69  1  0
 63 65  1  0
 64 70  1  0
 65 66  2  0
 65 64  1  0
 67 61  2  0
 68 67  1  0
 68 63  2  0
 69 62  1  0
 70 60  1  0
 72 74  2  0
 73 72  1  0
 75 73  1  0
 76 85  2  0
 76 81  1  0
 77 73  1  0
 77 81  1  0
 78 77  1  0
 79 80  1  0
 79 78  1  0
 80 76  1  0
 81 82  2  0
 82 83  1  0
 84 83  2  0
 85 84  1  0
 86 60  1  0
 86 87  1  0
 86 96  1  0
 87 90  1  0
 88 92  1  0
 88 87  1  0
 89 88  2  0
 92 91  1  0
 94 92  1  0
 94 95  1  0
 94 93  1  0
 96 99  1  1
 96 97  1  0
 98 96  1  0
M  ISO  4  15 100  23 100  58 101  59 101
M  END
>  <TORSDO>  (73) 
F 21

>  <SCORE>  (73) 
-12.572

>  <name>  (73) 
72

>  <ligand_id>  (73) 
72

>  <original_smiles>  (73) 
[H]c1c([H])c([H])c2c(c1[H])C([H])([H])C([H])([H])C([H])([H])C2([H])N([H])C(=O)C1([H])N(C(=O)C([H])(N([H])C(=O)C([H])(N([H])C([H])([H])[H])C([H])([H])[H])C(C([H])([H])[H])(C([H])([H])[H])C([H])([H])[H])C([H])([H])c2c([H])c(OC([H])([H])C([H])([H])[N+]3([H])C([H])([H])C([H])([H])C([H])(c4c([H])c(Cl)c(N(C(=O)N5C([H])([H])C([H])([H])C([H])([H])C([H])(n6nc(-c7c([H])c([H])c(Oc8c([H])c([H])c(F)c([H])c8F)c([H])c7[H])c(C(=O)N([H])[H])c6N([H])[H])C5([H])[H])C5([H])C([H])([H])C5([H])[H])c(OC([H])([H])[H])c4[H])C([H])([H])C3([H])[H])c([H])c([H])c2C1([H])[H]

>  <smiles>  (73) 
[H]c1c([H])c([H])c2c(c1[H])C([H])([H])C([H])([H])C([H])([H])C2([H])N([H])C(=O)C1([H])N(C(=O)C([H])(N([H])C(=O)C([H])(N([H])C([H])([H])[H])C([H])([H])[H])C(C([H])([H])[H])(C([H])([H])[H])C([H])([H])[H])C([H])([H])c2c([H])c(OC([H])([H])C([H])([H])[N+]3([H])C([H])([H])C([H])([H])C([H])(c4c([H])c(Cl)c(N(C(=O)N5C([H])([H])C([H])([H])C([H])([H])C([H])(n6nc(-c7c([H])c([H])c(Oc8c([H])c([H])c(F)c([H])c8F)c([H])c7[H])c(C(=O)N([H])[H])c6N([H])[H])C5([H])[H])C5([H])C([H])([H])C5([H])[H])c(OC([H])([H])[H])c4[H])C([H])([H])C3([H])[H])c([H])c([H])c2C1([H])[H]

$$$$
73:0:0
     RDKit          3D

100109  0  0  1  0  0  0  0  0999 V2000
  -28.8950  -21.9250   20.7530 C   0  0  0  0  0  2  0  0  0  0  0  0
  -30.4020  -22.5890   18.8870 C   0  0  0  0  0  2  0  0  0  0  0  0
  -29.2850  -23.2180   21.5030 C   0  0  0  0  0  2  0  0  0  0  0  0
  -30.8090  -23.8510   19.6580 C   0  0  0  0  0  2  0  0  0  0  0  0
  -30.0480  -21.4480   19.8560 C   0  0  0  0  0  3  0  0  0  0  0  0
  -29.7370  -24.3020   20.5810 N   0  0  2  0  0  4  0  0  0  0  0  0
  -28.9490  -24.5510   19.9960 H   0  0  0  0  0  0  0  0  0  0  0  0
  -29.7650  -20.1310   19.0890 C   0  0  0  0  0  2  0  0  0  0  0  0
  -29.5440  -17.8220   20.0620 C   0  0  0  0  0  3  0  0  0  0  0  0
  -30.4000  -16.8370   20.4570 C   0  0  0  0  0  0  0  0  0  0  0  0
  -31.7050  -17.3880   20.4880 C   0  0  0  0  0  0  0  0  0  0  0  0
  -31.6760  -18.6380   19.9340 C   0  0  0  0  0  0  0  0  0  0  0  0
  -30.3180  -18.9300   19.7120 N   0  0  0  0  0  0  0  0  0  0  0  0
  -30.6410  -14.4540   20.0730 C   0  0  0  0  0  0  0  0  0  0  0  0
  -30.2030  -12.3440   18.9000 C   0  0  0  0  0  2  0  0  0  0  0  0
  -29.1990  -12.6060   17.7620 C   0  0  0  0  0  2  0  0  0  0  0  0
  -27.7550  -12.4710   18.2820 C   0  0  0  0  0  2  0  0  0  0  0  0
  -27.5070  -13.2760   19.5860 C   0  0  0  0  0  3  0  0  0  0  0  0
  -28.6280  -13.0300   20.6220 C   0  0  0  0  0  2  0  0  0  0  0  0
  -29.9180  -13.3100   19.9730 N   0  0  0  0  0  0  0  0  0  0  0  0
  -31.7300  -14.5860   19.5080 O   0  0  0  0  0  0  0  0  0  0  0  0
  -30.0510  -15.4830   20.7080 N   0  0  0  0  0  0  0  0  0  0  0  0
  -29.1260  -15.2980   21.0640 H   0  0  0  0  0  0  0  0  0  0  0  0
  -25.1590  -13.8670   20.4580 C   0  0  0  0  0  0  0  0  0  0  0  0
  -24.1150  -13.0860   20.8770 C   0  0  0  0  0  0  0  0  0  0  0  0
  -24.5710  -11.7360   20.7870 C   0  0  0  0  0  0  0  0  0  0  0  0
  -26.1860  -12.9920   20.1420 N   0  0  0  0  0  0  0  0  0  0  0  0
  -25.8380  -11.7030   20.3960 N   0  0  0  0  0  0  0  0  0  0  0  0
  -23.8570  -10.4700   20.9940 C   0  0  0  0  0  0  0  0  0  0  0  0
  -24.3110   -9.5080   21.9240 C   0  0  0  0  0  3  0  0  0  0  0  0
  -23.5960   -8.3060   22.1160 C   0  0  0  0  0  3  0  0  0  0  0  0
  -22.4130   -8.0580   21.3820 C   0  0  0  0  0  0  0  0  0  0  0  0
  -21.9780   -9.0070   20.4410 C   0  0  0  0  0  3  0  0  0  0  0  0
  -22.6930  -10.2010   20.2460 C   0  0  0  0  0  3  0  0  0  0  0  0
  -21.6670   -6.9080   21.4860 O   0  0  0  0  0  0  0  0  0  0  0  0
  -21.6110   -6.1910   22.6540 C   0  0  0  0  0  0  0  0  0  0  0  0
  -21.1490   -6.7630   23.8600 C   0  0  0  0  0  3  0  0  0  0  0  0
  -21.0420   -5.9700   25.0200 C   0  0  0  0  0  3  0  0  0  0  0  0
  -21.3860   -4.6050   24.9750 C   0  0  0  0  0  0  0  0  0  0  0  0
  -21.8420   -4.0330   23.7750 C   0  0  0  0  0  3  0  0  0  0  0  0
  -21.9510   -4.8220   22.6170 C   0  0  0  0  0  0  0  0  0  0  0  0
  -22.3700   -4.2610   21.4570 F   0  0  0  0  0  0  0  0  0  0  0  0
  -21.2760   -3.8420   26.0870 F   0  0  0  0  0  0  0  0  0  0  0  0
  -22.7380  -13.5590   21.2500 C   0  0  0  0  0  0  0  0  0  0  0  0
  -22.0620  -12.8370   22.1380 N   0  0  0  0  0  0  0  0  0  0  0  0
  -22.2750  -14.6020   20.7910 O   0  0  0  0  0  0  0  0  0  0  0  0
  -22.4520  -11.9930   22.5290 H   0  0  0  0  0  0  0  0  0  0  0  0
  -21.1420  -13.1340   22.4300 H   0  0  0  0  0  0  0  0  0  0  0  0
  -25.3160  -15.2400   20.2990 N   0  0  0  0  0  0  0  0  0  0  0  0
  -24.5630  -15.8970   20.4720 H   0  0  0  0  0  0  0  0  0  0  0  0
  -26.1470  -15.6820   19.9250 H   0  0  0  0  0  0  0  0  0  0  0  0
  -33.7150  -18.9130   18.4670 C   0  0  0  0  0  1  0  0  0  0  0  0
  -33.6380  -20.0380   20.7350 C   0  0  0  0  0  1  0  0  0  0  0  0
  -32.8130  -19.5540   19.5320 C   0  0  0  0  0  3  0  0  0  0  0  0
  -32.8360  -16.7020   20.9130 N   0  0  0  0  0  0  0  0  0  0  0  0
  -32.7760  -16.4820   21.9000 H   0  0  0  0  0  0  0  0  0  0  0  0
  -32.8190  -15.7890   20.4600 H   0  0  0  0  0  0  0  0  0  0  0  0
  -30.1220  -25.5540   21.2850 C   0  0  0  0  0  2  0  0  0  0  0  0
  -28.9480  -26.5240   21.4250 C   0  0  0  0  0  2  0  0  0  0  0  0
  -28.4190  -26.7850   20.1250 O   0  0  0  0  0  0  0  0  0  0  0  0
  -24.5280  -31.8770   23.2090 C   0  0  0  0  0  0  0  0  0  0  0  0
  -27.2640  -27.5250   20.1290 C   0  0  0  0  0  0  0  0  0  0  0  0
  -23.3530  -30.4720   21.5440 C   0  0  0  0  0  3  0  0  0  0  0  0
  -24.8420  -28.9670   20.1180 C   0  0  0  0  0  0  0  0  0  0  0  0
  -25.8680  -30.8800   21.3650 C   0  0  0  0  0  2  0  0  0  0  0  0
  -25.9790  -29.5150   20.7240 C   0  0  0  0  0  0  0  0  0  0  0  0
  -27.1940  -28.8000   20.7330 C   0  0  0  0  0  3  0  0  0  0  0  0
  -26.1200  -26.9910   19.5060 C   0  0  0  0  0  3  0  0  0  0  0  0
  -24.9040  -27.7030   19.5060 C   0  0  0  0  0  3  0  0  0  0  0  0
  -23.5810  -29.8020   20.1600 C   0  0  0  0  0  2  0  0  0  0  0  0
  -24.6010  -31.0900   22.0990 N   0  0  0  0  0  0  0  0  0  0  0  0
  -23.4400  -32.1290   23.7450 O   0  0  0  0  0  0  0  0  0  0  0  0
  -22.7090  -29.4350   22.4910 C   0  0  0  0  0  0  0  0  0  0  0  0
  -21.3930  -29.2220   22.3350 N   0  0  0  0  0  0  0  0  0  0  0  0
  -23.3920  -28.8230   23.3170 O   0  0  0  0  0  0  0  0  0  0  0  0
  -20.9050  -29.7660   21.6380 H   0  0  0  0  0  0  0  0  0  0  0  0
  -18.0420  -27.9340   22.7340 C   0  0  0  0  0  0  0  0  0  0  0  0
  -20.5820  -28.2660   23.0860 C   0  0  0  0  0  3  0  0  0  0  0  0
  -20.7440  -26.8350   22.5210 C   0  0  0  0  0  2  0  0  0  0  0  0
  -19.6840  -26.4760   21.4760 C   0  0  0  0  0  2  0  0  0  0  0  0
  -18.2800  -26.5860   22.0750 C   0  0  0  0  0  2  0  0  0  0  0  0
  -19.1250  -28.7300   23.1950 C   0  0  0  0  0  0  0  0  0  0  0  0
  -18.8520  -29.9900   23.7680 C   0  0  0  0  0  3  0  0  0  0  0  0
  -17.5300  -30.4570   23.8860 C   0  0  0  0  0  3  0  0  0  0  0  0
  -16.4620  -29.6580   23.4440 C   0  0  0  0  0  3  0  0  0  0  0  0
  -16.7190  -28.3990   22.8740 C   0  0  0  0  0  3  0  0  0  0  0  0
  -25.8040  -32.5150   23.8460 C   0  0  0  0  0  3  0  0  0  0  0  0
  -25.4770  -33.9050   24.1870 N   0  0  0  0  0  0  0  0  0  0  0  0
  -25.7940  -34.9670   23.4330 C   0  0  0  0  0  0  0  0  0  0  0  0
  -26.4640  -34.8800   22.4000 O   0  0  0  0  0  0  0  0  0  0  0  0
  -24.8830  -34.0480   24.9910 H   0  0  0  0  0  0  0  0  0  0  0  0
  -24.0370  -36.7340   23.0930 C   0  0  0  0  0  1  0  0  0  0  0  0
  -25.2860  -36.3440   23.8990 C   0  0  0  0  0  3  0  0  0  0  0  0
  -27.4070  -37.2580   24.7320 C   0  0  0  0  0  1  0  0  0  0  0  0
  -26.3020  -37.4140   23.7900 N   0  0  0  0  0  0  0  0  0  0  0  0
  -25.8810  -38.3270   23.9430 H   0  0  0  0  0  0  0  0  0  0  0  0
  -26.3250  -31.7350   25.1140 C   0  0  1  0  0  0  0  0  0  0  0  0
  -25.2310  -31.4680   26.1730 C   0  0  0  0  0  1  0  0  0  0  0  0
  -26.9280  -30.3710   24.7020 C   0  0  0  0  0  1  0  0  0  0  0  0
  -27.4610  -32.5370   25.7920 C   0  0  0  0  0  1  0  0  0  0  0  0
  1  3  1  0
  2  4  1  0
  2  5  1  0
  4  6  1  0
  5  8  1  0
  5  1  1  0
  6 58  1  0
  6  3  1  0
  6  7  1  6
  8 13  1  0
  9 10  2  0
 10 11  1  0
 10 22  1  0
 11 55  1  0
 12 11  2  0
 13 12  1  0
 13  9  1  0
 14 22  1  0
 15 20  1  0
 16 17  1  0
 16 15  1  0
 18 17  1  0
 18 27  1  0
 18 19  1  0
 20 14  1  0
 20 19  1  0
 21 14  2  0
 22 23  1  0
 24 25  2  0
 25 44  1  0
 26 25  1  0
 26 29  1  0
 27 28  1  0
 27 24  1  0
 28 26  2  0
 29 30  1  0
 30 31  2  0
 32 35  1  0
 32 31  1  0
 33 32  2  0
 34 33  1  0
 34 29  2  0
 35 36  1  0
 36 37  1  0
 37 38  2  0
 39 38  1  0
 39 43  1  0
 40 39  2  0
 41 36  2  0
 41 40  1  0
 42 41  1  0
 44 45  1  0
 45 48  1  0
 45 47  1  0
 46 44  2  0
 49 24  1  0
 49 50  1  0
 51 49  1  0
 52 54  1  0
 54 12  1  0
 54 53  1  0
 55 56  1  0
 57 55  1  0
 58 59  1  0
 60 62  1  0
 60 59  1  0
 61 72  2  0
 62 67  1  0
 63 71  1  0
 63 73  1  0
 64 70  1  0
 64 66  1  0
 65 71  1  0
 66 67  2  0
 66 65  1  0
 68 62  2  0
 69 68  1  0
 69 64  2  0
 70 63  1  0
 71 61  1  0
 73 75  2  0
 74 73  1  0
 76 74  1  0
 77 86  2  0
 77 82  1  0
 78 74  1  0
 78 82  1  0
 79 78  1  0
 80 81  1  0
 80 79  1  0
 81 77  1  0
 82 83  2  0
 83 84  1  0
 85 84  2  0
 86 85  1  0
 87 61  1  0
 87 88  1  0
 87 97  1  0
 88 91  1  0
 89 93  1  0
 89 88  1  0
 90 89  2  0
 93 92  1  0
 95 93  1  0
 95 96  1  0
 95 94  1  0
 97100  1  1
 97 98  1  0
 99 97  1  0
M  ISO  4  14 100  22 100  59 101  60 101
M  END
>  <TORSDO>  (74) 
F 22

>  <SCORE>  (74) 
-12.794

>  <name>  (74) 
73

>  <ligand_id>  (74) 
73

>  <original_smiles>  (74) 
[H]c1c([H])c([H])c2c(c1[H])C([H])([H])C([H])([H])C([H])([H])C2([H])N([H])C(=O)C1([H])N(C(=O)C([H])(N([H])C(=O)C([H])(N([H])C([H])([H])[H])C([H])([H])[H])C(C([H])([H])[H])(C([H])([H])[H])C([H])([H])[H])C([H])([H])c2c([H])c(OC([H])([H])C([H])([H])[N+]3([H])C([H])([H])C([H])([H])C([H])(C([H])([H])n4c([H])c(N([H])C(=O)N5C([H])([H])C([H])([H])C([H])([H])C([H])(n6nc(-c7c([H])c([H])c(Oc8c([H])c([H])c(F)c([H])c8F)c([H])c7[H])c(C(=O)N([H])[H])c6N([H])[H])C5([H])[H])c(N([H])[H])c4C([H])(C([H])([H])[H])C([H])([H])[H])C([H])([H])C3([H])[H])c([H])c([H])c2C1([H])[H]

>  <smiles>  (74) 
[H]c1c([H])c([H])c2c(c1[H])C([H])([H])C([H])([H])C([H])([H])C2([H])N([H])C(=O)C1([H])N(C(=O)C([H])(N([H])C(=O)C([H])(N([H])C([H])([H])[H])C([H])([H])[H])C(C([H])([H])[H])(C([H])([H])[H])C([H])([H])[H])C([H])([H])c2c([H])c(OC([H])([H])C([H])([H])[N+]3([H])C([H])([H])C([H])([H])C([H])(C([H])([H])n4c([H])c(N([H])C(=O)N5C([H])([H])C([H])([H])C([H])([H])C([H])(n6nc(-c7c([H])c([H])c(Oc8c([H])c([H])c(F)c([H])c8F)c([H])c7[H])c(C(=O)N([H])[H])c6N([H])[H])C5([H])[H])c(N([H])[H])c4C([H])(C([H])([H])[H])C([H])([H])[H])C([H])([H])C3([H])[H])c([H])c([H])c2C1([H])[H]

$$$$
74:0:0
     RDKit          3D

 96105  0  0  1  0  0  0  0  0999 V2000
  -30.9710  -20.9740   18.5430 C   0  0  0  0  0  2  0  0  0  0  0  0
  -30.7950  -14.7220   19.4850 C   0  0  0  0  0  0  0  0  0  0  0  0
  -30.2370  -12.6530   18.2620 C   0  0  0  0  0  2  0  0  0  0  0  0
  -29.1660  -12.8790   17.1790 C   0  0  0  0  0  2  0  0  0  0  0  0
  -27.7600  -12.7090   17.7790 C   0  0  0  0  0  2  0  0  0  0  0  0
  -27.5670  -13.5440   19.0690 C   0  0  0  0  0  3  0  0  0  0  0  0
  -28.7380  -13.3450   20.0500 C   0  0  0  0  0  2  0  0  0  0  0  0
  -30.0110  -13.6130   19.3550 N   0  0  0  0  0  0  0  0  0  0  0  0
  -31.7060  -14.9790   18.6900 O   0  0  0  0  0  0  0  0  0  0  0  0
  -29.7720  -18.7320   18.6550 C   0  0  0  0  0  3  0  0  0  0  0  0
  -29.6740  -17.4210   19.1590 C   0  0  0  0  0  3  0  0  0  0  0  0
  -31.4590  -19.2370   20.3270 C   0  0  0  0  0  3  0  0  0  0  0  0
  -31.3870  -17.9180   20.8260 C   0  0  0  0  0  0  0  0  0  0  0  0
  -30.7010  -19.6330   19.2100 C   0  0  0  0  0  0  0  0  0  0  0  0
  -30.5200  -16.9720   20.2050 C   0  0  0  0  0  0  0  0  0  0  0  0
  -32.3430  -17.5400   21.9460 C   0  0  0  0  0  2  0  0  0  0  0  0
  -31.6360  -17.0860   23.2320 C   0  0  0  0  0  2  0  0  0  0  0  0
  -30.5200  -16.0590   23.0000 C   0  0  0  0  0  2  0  0  0  0  0  0
  -30.8560  -15.0640   21.8770 C   0  0  0  0  0  2  0  0  0  0  0  0
  -30.5390  -15.5630   20.5190 N   0  0  0  0  0  0  0  0  0  0  0  0
  -25.2600  -14.1180   20.0570 C   0  0  0  0  0  0  0  0  0  0  0  0
  -24.2600  -13.3310   20.5620 C   0  0  0  0  0  0  0  0  0  0  0  0
  -24.7410  -11.9880   20.4960 C   0  0  0  0  0  0  0  0  0  0  0  0
  -26.2860  -13.2530   19.7100 N   0  0  0  0  0  0  0  0  0  0  0  0
  -25.9850  -11.9680   20.0310 N   0  0  0  0  0  0  0  0  0  0  0  0
  -24.0700  -10.7160   20.7880 C   0  0  0  0  0  0  0  0  0  0  0  0
  -24.4380   -9.9230   21.8990 C   0  0  0  0  0  3  0  0  0  0  0  0
  -23.7630   -8.7130   22.1700 C   0  0  0  0  0  3  0  0  0  0  0  0
  -22.7090   -8.2840   21.3290 C   0  0  0  0  0  0  0  0  0  0  0  0
  -22.3630   -9.0650   20.2110 C   0  0  0  0  0  3  0  0  0  0  0  0
  -23.0380  -10.2670   19.9400 C   0  0  0  0  0  3  0  0  0  0  0  0
  -22.0160   -7.1100   21.4980 O   0  0  0  0  0  0  0  0  0  0  0  0
  -21.7010   -6.6340   22.7440 C   0  0  0  0  0  0  0  0  0  0  0  0
  -20.8910   -7.3670   23.6400 C   0  0  0  0  0  3  0  0  0  0  0  0
  -20.5340   -6.8100   24.8840 C   0  0  0  0  0  3  0  0  0  0  0  0
  -20.9780   -5.5210   25.2320 C   0  0  0  0  0  0  0  0  0  0  0  0
  -21.7800   -4.7870   24.3400 C   0  0  0  0  0  3  0  0  0  0  0  0
  -22.1370   -5.3410   23.0990 C   0  0  0  0  0  0  0  0  0  0  0  0
  -22.8940   -4.6220   22.2350 F   0  0  0  0  0  0  0  0  0  0  0  0
  -20.6280   -4.9820   26.4240 F   0  0  0  0  0  0  0  0  0  0  0  0
  -22.8960  -13.7860   20.9950 C   0  0  0  0  0  0  0  0  0  0  0  0
  -22.3060  -13.1100   21.9760 N   0  0  0  0  0  0  0  0  0  0  0  0
  -22.3640  -14.7760   20.4950 O   0  0  0  0  0  0  0  0  0  0  0  0
  -22.7510  -12.3090   22.3990 H   0  0  0  0  0  0  0  0  0  0  0  0
  -21.3960  -13.3980   22.3070 H   0  0  0  0  0  0  0  0  0  0  0  0
  -25.3760  -15.4880   19.8460 N   0  0  0  0  0  0  0  0  0  0  0  0
  -24.6220  -16.1350   20.0530 H   0  0  0  0  0  0  0  0  0  0  0  0
  -26.1830  -15.9410   19.4340 H   0  0  0  0  0  0  0  0  0  0  0  0
  -29.9360  -21.9850   18.8190 N   0  0  0  0  0  4  0  0  0  0  0  0
  -29.8830  -22.1300   19.8130 H   0  0  0  0  0  0  0  0  0  0  0  0
  -29.0500  -21.6250   18.5060 H   0  0  0  0  0  0  0  0  0  0  0  0
  -30.2180  -23.2700   18.1420 C   0  0  0  0  0  2  0  0  0  0  0  0
  -29.0660  -24.2800   18.2540 C   0  0  0  0  0  2  0  0  0  0  0  0
  -29.3940  -25.5970   17.5260 C   0  0  0  0  0  2  0  0  0  0  0  0
  -28.2630  -26.6260   17.6060 C   0  0  0  0  0  2  0  0  0  0  0  0
  -28.0120  -26.9460   18.9700 O   0  0  0  0  0  0  0  0  0  0  0  0
  -24.5490  -31.6110   23.0620 C   0  0  0  0  0  0  0  0  0  0  0  0
  -26.8370  -27.6150   19.2070 C   0  0  0  0  0  0  0  0  0  0  0  0
  -23.1630  -30.3750   21.4270 C   0  0  0  0  0  3  0  0  0  0  0  0
  -24.4450  -29.0300   19.6840 C   0  0  0  0  0  0  0  0  0  0  0  0
  -25.6420  -30.8060   20.9760 C   0  0  0  0  0  2  0  0  0  0  0  0
  -25.6590  -29.5120   20.1900 C   0  0  0  0  0  0  0  0  0  0  0  0
  -26.8570  -28.8030   19.9640 C   0  0  0  0  0  3  0  0  0  0  0  0
  -25.6050  -27.1220   18.7220 C   0  0  0  0  0  3  0  0  0  0  0  0
  -24.4100  -27.8270   18.9550 C   0  0  0  0  0  3  0  0  0  0  0  0
  -23.2100  -29.8540   19.9660 C   0  0  0  0  0  2  0  0  0  0  0  0
  -24.4760  -30.9390   21.8790 N   0  0  0  0  0  0  0  0  0  0  0  0
  -23.5390  -31.8030   23.7530 O   0  0  0  0  0  0  0  0  0  0  0  0
  -22.6370  -29.2430   22.3370 C   0  0  0  0  0  0  0  0  0  0  0  0
  -21.3330  -28.9430   22.2230 N   0  0  0  0  0  0  0  0  0  0  0  0
  -23.3960  -28.6400   23.1000 O   0  0  0  0  0  0  0  0  0  0  0  0
  -20.7770  -29.4880   21.5810 H   0  0  0  0  0  0  0  0  0  0  0  0
  -18.1290  -27.3240   22.6130 C   0  0  0  0  0  0  0  0  0  0  0  0
  -20.6270  -27.8890   22.9510 C   0  0  0  0  0  3  0  0  0  0  0  0
  -20.9200  -26.4980   22.3420 C   0  0  0  0  0  2  0  0  0  0  0  0
  -19.8880  -26.0690   21.2940 C   0  0  0  0  0  2  0  0  0  0  0  0
  -18.4850  -26.0250   21.9090 C   0  0  0  0  0  2  0  0  0  0  0  0
  -19.1330  -28.2060   23.0880 C   0  0  0  0  0  0  0  0  0  0  0  0
  -18.7480  -29.4170   23.7020 C   0  0  0  0  0  3  0  0  0  0  0  0
  -17.3880  -29.7490   23.8480 C   0  0  0  0  0  3  0  0  0  0  0  0
  -16.3960  -28.8640   23.3900 C   0  0  0  0  0  3  0  0  0  0  0  0
  -16.7670  -27.6540   22.7790 C   0  0  0  0  0  3  0  0  0  0  0  0
  -25.8980  -32.1920   23.5910 C   0  0  0  0  0  3  0  0  0  0  0  0
  -25.6180  -33.5210   24.1510 N   0  0  0  0  0  0  0  0  0  0  0  0
  -25.8650  -34.6780   23.5200 C   0  0  0  0  0  0  0  0  0  0  0  0
  -26.4240  -34.7360   22.4220 O   0  0  0  0  0  0  0  0  0  0  0  0
  -25.1110  -33.5480   25.0230 H   0  0  0  0  0  0  0  0  0  0  0  0
  -24.1090  -36.4760   23.5830 C   0  0  0  0  0  1  0  0  0  0  0  0
  -25.4160  -35.9750   24.2180 C   0  0  0  0  0  3  0  0  0  0  0  0
  -27.6060  -36.7630   25.0000 C   0  0  0  0  0  1  0  0  0  0  0  0
  -26.4330  -37.0480   24.1770 N   0  0  0  0  0  0  0  0  0  0  0  0
  -26.0360  -37.9310   24.4860 H   0  0  0  0  0  0  0  0  0  0  0  0
  -26.5950  -31.2690   24.6650 C   0  0  1  0  0  0  0  0  0  0  0  0
  -25.6340  -30.7650   25.7680 C   0  0  0  0  0  1  0  0  0  0  0  0
  -27.2290  -30.0320   23.9890 C   0  0  0  0  0  1  0  0  0  0  0  0
  -27.7470  -32.0400   25.3520 C   0  0  0  0  0  1  0  0  0  0  0  0
  1 49  1  0
  1 14  1  0
  2 20  1  0
  3  8  1  0
  4  5  1  0
  4  3  1  0
  6  5  1  0
  6 24  1  0
  6  7  1  0
  8  2  1  0
  8  7  1  0
  9  2  2  0
 10 11  2  0
 10 14  1  0
 11 15  1  0
 12 13  1  0
 13 16  1  0
 14 12  2  0
 15 20  1  0
 15 13  2  0
 16 17  1  0
 18 17  1  0
 19 18  1  0
 20 19  1  0
 21 22  2  0
 22 41  1  0
 23 22  1  0
 23 26  1  0
 24 25  1  0
 24 21  1  0
 25 23  2  0
 26 27  1  0
 27 28  2  0
 29 32  1  0
 29 28  1  0
 30 29  2  0
 31 30  1  0
 31 26  2  0
 32 33  1  0
 33 38  2  0
 33 34  1  0
 34 35  2  0
 35 36  1  0
 36 40  1  0
 37 36  2  0
 38 37  1  0
 39 38  1  0
 41 42  1  0
 42 45  1  0
 42 44  1  0
 43 41  2  0
 46 47  1  0
 46 21  1  0
 48 46  1  0
 49 50  1  0
 51 49  1  0
 52 53  1  0
 52 49  1  0
 54 55  1  0
 54 53  1  0
 55 56  1  0
 56 58  1  0
 57 68  2  0
 58 63  1  0
 59 67  1  0
 59 69  1  0
 60 66  1  0
 60 62  1  0
 61 67  1  0
 62 61  1  0
 63 62  2  0
 64 65  1  0
 64 58  2  0
 65 60  2  0
 66 59  1  0
 67 57  1  0
 69 71  2  0
 70 69  1  0
 72 70  1  0
 73 82  2  0
 73 78  1  0
 74 70  1  0
 74 78  1  0
 75 74  1  0
 76 77  1  0
 76 75  1  0
 77 73  1  0
 78 79  2  0
 79 80  1  0
 81 80  2  0
 82 81  1  0
 83 57  1  0
 83 84  1  0
 83 93  1  0
 84 87  1  0
 85 84  1  0
 85 89  1  0
 86 85  2  0
 89 88  1  0
 91 89  1  0
 91 92  1  0
 91 90  1  0
 93 96  1  1
 93 94  1  0
 95 93  1  0
M  ISO  4   2 100  20 100  55 101  56 101
M  END
>  <TORSDO>  (75) 
F 21

>  <SCORE>  (75) 
-5.991

>  <name>  (75) 
74

>  <ligand_id>  (75) 
74

>  <original_smiles>  (75) 
[H]c1c([H])c([H])c2c(c1[H])C([H])([H])C([H])([H])C([H])([H])C2([H])N([H])C(=O)C1([H])N(C(=O)C([H])(N([H])C(=O)C([H])(N([H])C([H])([H])[H])C([H])([H])[H])C(C([H])([H])[H])(C([H])([H])[H])C([H])([H])[H])C([H])([H])c2c([H])c(OC([H])([H])C([H])([H])C([H])([H])C([H])([H])[N+]([H])([H])C([H])([H])c3c([H])c([H])c4c(c3[H])C([H])([H])C([H])([H])C([H])([H])C([H])([H])N4C(=O)N3C([H])([H])C([H])([H])C([H])([H])C([H])(n4nc(-c5c([H])c([H])c(Oc6c([H])c([H])c(F)c([H])c6F)c([H])c5[H])c(C(=O)N([H])[H])c4N([H])[H])C3([H])[H])c([H])c([H])c2C1([H])[H]

>  <smiles>  (75) 
[H]c1c([H])c([H])c2c(c1[H])C([H])([H])C([H])([H])C([H])([H])C2([H])N([H])C(=O)C1([H])N(C(=O)C([H])(N([H])C(=O)C([H])(N([H])C([H])([H])[H])C([H])([H])[H])C(C([H])([H])[H])(C([H])([H])[H])C([H])([H])[H])C([H])([H])c2c([H])c(OC([H])([H])C([H])([H])C([H])([H])C([H])([H])[N+]([H])([H])C([H])([H])c3c([H])c([H])c4c(c3[H])C([H])([H])C([H])([H])C([H])([H])C([H])([H])N4C(=O)N3C([H])([H])C([H])([H])C([H])([H])C([H])(n4nc(-c5c([H])c([H])c(Oc6c([H])c([H])c(F)c([H])c6F)c([H])c5[H])c(C(=O)N([H])[H])c4N([H])[H])C3([H])[H])c([H])c([H])c2C1([H])[H]

$$$$
75:0:0
     RDKit          3D

 99110  0  0  1  0  0  0  0  0999 V2000
  -28.8040  -23.3930   19.2830 C   0  0  0  0  0  3  0  0  0  0  0  0
  -31.0920  -21.8700   19.7520 C   0  0  0  0  0  3  0  0  0  0  0  0
  -30.0570  -24.0480   19.1850 C   0  0  0  0  0  0  0  0  0  0  0  0
  -28.6850  -21.9980   19.5510 C   0  0  0  0  0  0  0  0  0  0  0  0
  -31.2050  -23.2520   19.4680 C   0  0  0  0  0  0  0  0  0  0  0  0
  -29.8410  -21.2040   19.7910 C   0  0  0  0  0  0  0  0  0  0  0  0
  -32.6040  -23.8490   19.4340 C   0  0  0  0  0  1  0  0  0  0  0  0
  -29.1020  -26.1220   17.8260 C   0  0  0  0  0  2  0  0  0  0  0  0
  -30.2120  -25.4870   18.6400 C   0  0  0  0  0  3  0  0  0  0  0  0
  -29.5880  -26.8340   19.0680 C   0  0  0  0  0  3  0  0  0  0  0  0
  -28.7330  -26.9100   20.2130 O   0  0  0  0  0  0  0  0  0  0  0  0
  -24.6900  -31.9760   23.2250 C   0  0  0  0  0  0  0  0  0  0  0  0
  -27.5910  -27.6850   20.1210 C   0  0  0  0  0  0  0  0  0  0  0  0
  -23.5870  -30.5600   21.5260 C   0  0  0  0  0  3  0  0  0  0  0  0
  -25.1420  -29.1150   20.1070 C   0  0  0  0  0  0  0  0  0  0  0  0
  -26.1050  -31.0160   21.4070 C   0  0  0  0  0  2  0  0  0  0  0  0
  -26.2660  -29.6640   20.7370 C   0  0  0  0  0  0  0  0  0  0  0  0
  -27.4940  -28.9540   20.7480 C   0  0  0  0  0  3  0  0  0  0  0  0
  -26.4410  -27.1500   19.5060 C   0  0  0  0  0  3  0  0  0  0  0  0
  -25.2260  -27.8570   19.4900 C   0  0  0  0  0  3  0  0  0  0  0  0
  -23.8610  -29.9220   20.1390 C   0  0  0  0  0  2  0  0  0  0  0  0
  -24.8100  -31.1990   22.1120 N   0  0  0  0  0  0  0  0  0  0  0  0
  -23.5830  -32.1950   23.7390 O   0  0  0  0  0  0  0  0  0  0  0  0
  -22.9510  -29.4940   22.4480 C   0  0  0  0  0  0  0  0  0  0  0  0
  -21.6380  -29.2670   22.2860 N   0  0  0  0  0  0  0  0  0  0  0  0
  -23.6380  -28.8760   23.2670 O   0  0  0  0  0  0  0  0  0  0  0  0
  -21.1420  -29.8220   21.6000 H   0  0  0  0  0  0  0  0  0  0  0  0
  -18.2920  -27.9610   22.7020 C   0  0  0  0  0  0  0  0  0  0  0  0
  -20.8380  -28.2830   23.0160 C   0  0  0  0  0  3  0  0  0  0  0  0
  -20.9880  -26.8740   22.3980 C   0  0  0  0  0  2  0  0  0  0  0  0
  -19.9100  -26.5510   21.3600 C   0  0  0  0  0  2  0  0  0  0  0  0
  -18.5160  -26.6380   21.9890 C   0  0  0  0  0  2  0  0  0  0  0  0
  -19.3840  -28.7410   23.1700 C   0  0  0  0  0  0  0  0  0  0  0  0
  -19.1210  -29.9780   23.7960 C   0  0  0  0  0  3  0  0  0  0  0  0
  -17.8000  -30.4390   23.9570 C   0  0  0  0  0  3  0  0  0  0  0  0
  -16.7230  -29.6560   23.5060 C   0  0  0  0  0  3  0  0  0  0  0  0
  -16.9700  -28.4180   22.8850 C   0  0  0  0  0  3  0  0  0  0  0  0
  -25.9310  -32.6480   23.8920 C   0  0  0  0  0  3  0  0  0  0  0  0
  -26.4190  -31.8970   25.1910 C   0  0  1  0  0  0  0  0  0  0  0  0
  -25.2900  -31.6200   26.2110 C   0  0  0  0  0  1  0  0  0  0  0  0
  -27.0680  -30.5410   24.8260 C   0  0  0  0  0  1  0  0  0  0  0  0
  -27.5120  -32.7320   25.9010 C   0  0  0  0  0  1  0  0  0  0  0  0
  -25.5700  -34.0380   24.1990 N   0  0  0  0  0  0  0  0  0  0  0  0
  -25.9070  -35.0950   23.4470 C   0  0  0  0  0  0  0  0  0  0  0  0
  -26.6230  -35.0030   22.4460 O   0  0  0  0  0  0  0  0  0  0  0  0
  -24.9370  -34.1820   24.9710 H   0  0  0  0  0  0  0  0  0  0  0  0
  -24.1440  -36.8330   23.0090 C   0  0  0  0  0  1  0  0  0  0  0  0
  -25.3620  -36.4710   23.8730 C   0  0  0  0  0  3  0  0  0  0  0  0
  -27.4320  -37.4270   24.7830 C   0  0  0  0  0  1  0  0  0  0  0  0
  -26.3690  -37.5530   23.7910 N   0  0  0  0  0  0  0  0  0  0  0  0
  -25.9300  -38.4630   23.9100 H   0  0  0  0  0  0  0  0  0  0  0  0
  -26.4870  -21.7550   20.7920 C   0  0  0  0  0  1  0  0  0  0  0  0
  -27.3020  -21.3400   19.5610 C   0  0  0  0  0  3  0  0  0  0  0  0
  -27.0170  -21.0340   16.9530 C   0  0  0  0  0  2  0  0  0  0  0  0
  -25.7760  -20.4520   17.5860 C   0  0  0  0  0  2  0  0  0  0  0  0
  -26.5180  -21.5770   18.2740 C   0  0  0  0  0  3  0  0  0  0  0  0
  -29.6850  -19.8340   20.0490 O   0  0  0  0  0  0  0  0  0  0  0  0
  -31.2370  -14.8760   20.1970 C   0  0  0  0  0  0  0  0  0  0  0  0
  -30.9760  -12.6060   19.2660 C   0  0  0  0  0  2  0  0  0  0  0  0
  -30.0480  -12.7010   18.0370 C   0  0  0  0  0  2  0  0  0  0  0  0
  -28.5680  -12.5870   18.4590 C   0  0  0  0  0  2  0  0  0  0  0  0
  -28.2100  -13.5070   19.6590 C   0  0  0  0  0  3  0  0  0  0  0  0
  -29.2640  -13.4000   20.7840 C   0  0  0  0  0  2  0  0  0  0  0  0
  -30.5760  -13.6810   20.1900 N   0  0  0  0  0  0  0  0  0  0  0  0
  -32.4160  -14.9560   19.8390 O   0  0  0  0  0  0  0  0  0  0  0  0
  -30.5370  -18.0270   21.5480 C   0  0  0  0  0  2  0  0  0  0  0  0
  -31.2990  -18.1670   19.1380 C   0  0  0  0  0  2  0  0  0  0  0  0
  -29.8090  -16.6970   21.2080 C   0  0  0  0  0  2  0  0  0  0  0  0
  -30.5000  -16.8600   18.8950 C   0  0  0  0  0  2  0  0  0  0  0  0
  -30.8160  -18.9840   20.3570 C   0  0  0  0  0  3  0  0  0  0  0  0
  -30.4460  -15.9870   20.0860 N   0  0  0  0  0  0  0  0  0  0  0  0
  -25.8400  -14.1540   20.4100 C   0  0  0  0  0  0  0  0  0  0  0  0
  -24.7560  -13.4010   20.7730 C   0  0  0  0  0  0  0  0  0  0  0  0
  -25.1840  -12.0400   20.7110 C   0  0  0  0  0  0  0  0  0  0  0  0
  -26.8590  -13.2520   20.1500 N   0  0  0  0  0  0  0  0  0  0  0  0
  -26.4700  -11.9730   20.3900 N   0  0  0  0  0  0  0  0  0  0  0  0
  -24.4260  -10.7920   20.8810 C   0  0  0  0  0  0  0  0  0  0  0  0
  -24.7740   -9.8470   21.8710 C   0  0  0  0  0  3  0  0  0  0  0  0
  -24.0190   -8.6640   22.0310 C   0  0  0  0  0  3  0  0  0  0  0  0
  -22.9020   -8.4190   21.1970 C   0  0  0  0  0  0  0  0  0  0  0  0
  -22.5730   -9.3530   20.1980 C   0  0  0  0  0  3  0  0  0  0  0  0
  -23.3290  -10.5270   20.0380 C   0  0  0  0  0  3  0  0  0  0  0  0
  -22.1270   -7.2870   21.2610 O   0  0  0  0  0  0  0  0  0  0  0  0
  -21.8920   -6.6410   22.4470 C   0  0  0  0  0  0  0  0  0  0  0  0
  -21.2540   -7.2830   23.5320 C   0  0  0  0  0  3  0  0  0  0  0  0
  -20.9710   -6.5630   24.7090 C   0  0  0  0  0  3  0  0  0  0  0  0
  -21.3120   -5.2000   24.8000 C   0  0  0  0  0  0  0  0  0  0  0  0
  -21.9420   -4.5570   23.7200 C   0  0  0  0  0  3  0  0  0  0  0  0
  -22.2270   -5.2760   22.5460 C   0  0  0  0  0  0  0  0  0  0  0  0
  -22.8140   -4.6460   21.5000 F   0  0  0  0  0  0  0  0  0  0  0  0
  -21.0320   -4.5050   25.9280 F   0  0  0  0  0  0  0  0  0  0  0  0
  -23.3740  -13.9080   21.0660 C   0  0  0  0  0  0  0  0  0  0  0  0
  -22.6430  -13.2230   21.9380 N   0  0  0  0  0  0  0  0  0  0  0  0
  -22.9530  -14.9460   20.5580 O   0  0  0  0  0  0  0  0  0  0  0  0
  -22.9980  -12.3840   22.3710 H   0  0  0  0  0  0  0  0  0  0  0  0
  -21.7140  -13.5430   22.1750 H   0  0  0  0  0  0  0  0  0  0  0  0
  -26.0360  -15.5230   20.2570 N   0  0  0  0  0  0  0  0  0  0  0  0
  -25.2880  -16.1940   20.3910 H   0  0  0  0  0  0  0  0  0  0  0  0
  -26.8980  -15.9470   19.9370 H   0  0  0  0  0  0  0  0  0  0  0  0
  1  4  1  0
  2  6  1  0
  3  1  2  0
  3  5  1  0
  4 53  1  0
  4  6  2  0
  5  2  2  0
  6 57  1  0
  7  5  1  0
  8  9  1  0
  8 10  1  0
  9 10  1  0
  9  3  1  0
 10 11  1  0
 12 23  2  0
 13 11  1  0
 13 18  1  0
 14 22  1  0
 14 24  1  0
 15 21  1  0
 15 17  1  0
 16 22  1  0
 17 18  2  0
 17 16  1  0
 19 13  2  0
 20 19  1  0
 20 15  2  0
 21 14  1  0
 22 12  1  0
 24 26  2  0
 25 24  1  0
 27 25  1  0
 28 37  2  0
 28 33  1  0
 29 25  1  0
 29 33  1  0
 30 29  1  0
 31 32  1  0
 31 30  1  0
 32 28  1  0
 33 34  2  0
 34 35  1  0
 36 35  2  0
 37 36  1  0
 38 12  1  0
 38 43  1  0
 38 39  1  0
 39 42  1  1
 39 40  1  0
 41 39  1  0
 43 46  1  0
 44 48  1  0
 44 43  1  0
 45 44  2  0
 48 47  1  0
 50 48  1  0
 50 51  1  0
 50 49  1  0
 53 52  1  0
 54 55  1  0
 54 56  1  0
 55 56  1  0
 56 53  1  0
 59 64  1  0
 60 61  1  0
 60 59  1  0
 62 61  1  0
 62 75  1  0
 62 63  1  0
 64 58  1  0
 64 63  1  0
 65 58  2  0
 67 70  1  0
 68 66  1  0
 69 67  1  0
 69 71  1  0
 70 57  1  0
 70 66  1  0
 71 58  1  0
 71 68  1  0
 72 73  2  0
 73 92  1  0
 74 73  1  0
 74 77  1  0
 75 76  1  0
 75 72  1  0
 76 74  2  0
 77 78  1  0
 78 79  2  0
 80 83  1  0
 80 79  1  0
 81 80  2  0
 82 81  1  0
 82 77  2  0
 83 84  1  0
 84 89  2  0
 84 85  1  0
 85 86  2  0
 86 87  1  0
 87 91  1  0
 88 87  2  0
 89 88  1  0
 90 89  1  0
 92 93  1  0
 93 96  1  0
 93 95  1  0
 94 92  2  0
 97 98  1  0
 97 72  1  0
 99 97  1  0
M  ISO  4  10 101  11 101  58 100  71 100
M  END
>  <TORSDO>  (76) 
F 20

>  <SCORE>  (76) 
-12.021

>  <name>  (76) 
75

>  <ligand_id>  (76) 
75

>  <original_smiles>  (76) 
[H]c1c([H])c([H])c2c(c1[H])C([H])([H])C([H])([H])C([H])([H])C2([H])N([H])C(=O)C1([H])N(C(=O)C([H])(N([H])C(=O)C([H])(N([H])C([H])([H])[H])C([H])([H])[H])C(C([H])([H])[H])(C([H])([H])[H])C([H])([H])[H])C([H])([H])c2c([H])c(OC3([H])C([H])([H])C3([H])c3c([H])c(C([H])(C([H])([H])[H])C4([H])C([H])([H])C4([H])[H])c(OC4([H])C([H])([H])C([H])([H])N(C(=O)N5C([H])([H])C([H])([H])C([H])([H])C([H])(n6nc(-c7c([H])c([H])c(Oc8c([H])c([H])c(F)c([H])c8F)c([H])c7[H])c(C(=O)N([H])[H])c6N([H])[H])C5([H])[H])C([H])([H])C4([H])[H])c([H])c3C([H])([H])[H])c([H])c([H])c2C1([H])[H]

>  <smiles>  (76) 
[H]c1c([H])c([H])c2c(c1[H])C([H])([H])C([H])([H])C([H])([H])C2([H])N([H])C(=O)C1([H])N(C(=O)C([H])(N([H])C(=O)C([H])(N([H])C([H])([H])[H])C([H])([H])[H])C(C([H])([H])[H])(C([H])([H])[H])C([H])([H])[H])C([H])([H])c2c([H])c(OC3([H])C([H])([H])C3([H])c3c([H])c(C([H])(C([H])([H])[H])C4([H])C([H])([H])C4([H])[H])c(OC4([H])C([H])([H])C([H])([H])N(C(=O)N5C([H])([H])C([H])([H])C([H])([H])C([H])(n6nc(-c7c([H])c([H])c(Oc8c([H])c([H])c(F)c([H])c8F)c([H])c7[H])c(C(=O)N([H])[H])c6N([H])[H])C5([H])[H])C([H])([H])C4([H])[H])c([H])c3C([H])([H])[H])c([H])c([H])c2C1([H])[H]

$$$$
76:0:0
     RDKit          3D

 94103  0  0  1  0  0  0  0  0999 V2000
  -28.4720  -23.1020   18.9790 C   0  0  0  0  0  3  0  0  0  0  0  0
  -28.6310  -23.4400   20.2900 C   0  0  0  0  0  0  0  0  0  0  0  0
  -29.0940  -22.1410   20.8630 C   0  0  0  0  0  0  0  0  0  0  0  0
  -29.0940  -21.0760   19.9260 C   0  0  0  0  0  0  0  0  0  0  0  0
  -29.4990  -21.9360   22.3000 C   0  0  0  0  0  1  0  0  0  0  0  0
  -28.7460  -21.7460   18.7370 N   0  0  0  0  0  0  0  0  0  0  0  0
  -30.8730  -14.9690   20.1430 C   0  0  0  0  0  0  0  0  0  0  0  0
  -30.5820  -12.6700   19.1460 C   0  0  0  0  0  2  0  0  0  0  0  0
  -29.6080  -12.6630   17.9520 C   0  0  0  0  0  2  0  0  0  0  0  0
  -28.1660  -12.4560   18.4480 C   0  0  0  0  0  2  0  0  0  0  0  0
  -27.8160  -13.3600   19.6590 C   0  0  0  0  0  3  0  0  0  0  0  0
  -28.9220  -13.3730   20.7350 C   0  0  0  0  0  2  0  0  0  0  0  0
  -30.1610  -13.7760   20.0570 N   0  0  0  0  0  0  0  0  0  0  0  0
  -32.0750  -14.8830   19.8680 O   0  0  0  0  0  0  0  0  0  0  0  0
  -30.8070  -18.9200   19.6220 C   0  0  0  0  0  2  0  0  0  0  0  0
  -28.9510  -18.4590   21.0440 C   0  0  0  0  0  2  0  0  0  0  0  0
  -30.9520  -17.3670   19.2660 C   0  0  0  0  0  2  0  0  0  0  0  0
  -29.0770  -16.8580   20.7770 C   0  0  0  0  0  2  0  0  0  0  0  0
  -29.3750  -19.4520   19.8990 C   0  0  0  0  0  3  0  0  0  0  0  0
  -30.2890  -16.2790   20.0890 N   0  0  0  0  0  0  0  0  0  0  0  0
  -25.4770  -13.9210   20.5280 C   0  0  0  0  0  0  0  0  0  0  0  0
  -24.4240  -13.1390   20.9150 C   0  0  0  0  0  0  0  0  0  0  0  0
  -24.8790  -11.7880   20.8160 C   0  0  0  0  0  0  0  0  0  0  0  0
  -26.5030  -13.0490   20.2130 N   0  0  0  0  0  0  0  0  0  0  0  0
  -26.1570  -11.7570   20.4530 N   0  0  0  0  0  0  0  0  0  0  0  0
  -24.1540  -10.5220   20.9930 C   0  0  0  0  0  0  0  0  0  0  0  0
  -24.5730   -9.5560   21.9350 C   0  0  0  0  0  3  0  0  0  0  0  0
  -23.8480   -8.3560   22.0990 C   0  0  0  0  0  3  0  0  0  0  0  0
  -22.6880   -8.1140   21.3240 C   0  0  0  0  0  0  0  0  0  0  0  0
  -22.2890   -9.0700   20.3730 C   0  0  0  0  0  3  0  0  0  0  0  0
  -23.0150  -10.2610   20.2060 C   0  0  0  0  0  3  0  0  0  0  0  0
  -21.9360   -6.9680   21.3980 O   0  0  0  0  0  0  0  0  0  0  0  0
  -21.7980   -6.2710   22.5720 C   0  0  0  0  0  0  0  0  0  0  0  0
  -21.1990   -6.8460   23.7140 C   0  0  0  0  0  3  0  0  0  0  0  0
  -21.0140   -6.0730   24.8780 C   0  0  0  0  0  3  0  0  0  0  0  0
  -21.4180   -4.7240   24.8980 C   0  0  0  0  0  0  0  0  0  0  0  0
  -22.0100   -4.1480   23.7600 C   0  0  0  0  0  3  0  0  0  0  0  0
  -22.1960   -4.9190   22.6000 C   0  0  0  0  0  0  0  0  0  0  0  0
  -22.7470   -4.3520   21.4990 F   0  0  0  0  0  0  0  0  0  0  0  0
  -21.2360   -3.9790   26.0130 F   0  0  0  0  0  0  0  0  0  0  0  0
  -23.0420  -13.6140   21.2560 C   0  0  0  0  0  0  0  0  0  0  0  0
  -22.3420  -12.8950   22.1250 N   0  0  0  0  0  0  0  0  0  0  0  0
  -22.5930  -14.6590   20.7870 O   0  0  0  0  0  0  0  0  0  0  0  0
  -22.7180  -12.0500   22.5300 H   0  0  0  0  0  0  0  0  0  0  0  0
  -21.4150  -13.1960   22.3900 H   0  0  0  0  0  0  0  0  0  0  0  0
  -25.6380  -15.2970   20.3910 N   0  0  0  0  0  0  0  0  0  0  0  0
  -24.8880  -15.9530   20.5750 H   0  0  0  0  0  0  0  0  0  0  0  0
  -26.4790  -15.7440   20.0530 H   0  0  0  0  0  0  0  0  0  0  0  0
  -29.0820  -22.0320   16.2660 C   0  0  0  0  0  1  0  0  0  0  0  0
  -27.1410  -20.6890   17.1720 C   0  0  0  0  0  1  0  0  0  0  0  0
  -28.5970  -21.1260   17.4140 C   0  0  0  0  0  3  0  0  0  0  0  0
  -28.4270  -24.9690   22.4340 C   0  0  0  0  0  1  0  0  0  0  0  0
  -28.1600  -24.8830   20.9260 C   0  0  0  0  0  3  0  0  0  0  0  0
  -28.4680  -26.2790   20.3670 O   0  0  0  0  0  0  0  0  0  0  0  0
  -24.7230  -31.9010   23.2630 C   0  0  0  0  0  0  0  0  0  0  0  0
  -27.4140  -27.2440   20.3160 C   0  0  0  0  0  0  0  0  0  0  0  0
  -23.5720  -30.4780   21.6110 C   0  0  0  0  0  3  0  0  0  0  0  0
  -25.0670  -28.9240   20.2250 C   0  0  0  0  0  0  0  0  0  0  0  0
  -26.1210  -30.7910   21.4880 C   0  0  0  0  0  2  0  0  0  0  0  0
  -26.2270  -29.3990   20.8530 C   0  0  0  0  0  0  0  0  0  0  0  0
  -27.4090  -28.5750   20.8820 C   0  0  0  0  0  3  0  0  0  0  0  0
  -26.2370  -26.8610   19.6440 C   0  0  0  0  0  3  0  0  0  0  0  0
  -25.0810  -27.6660   19.6060 C   0  0  0  0  0  3  0  0  0  0  0  0
  -23.8280  -29.8010   20.2410 C   0  0  0  0  0  2  0  0  0  0  0  0
  -24.8240  -31.0790   22.1760 N   0  0  0  0  0  0  0  0  0  0  0  0
  -23.6230  -32.1720   23.7710 O   0  0  0  0  0  0  0  0  0  0  0  0
  -22.8940  -29.4640   22.5650 C   0  0  0  0  0  0  0  0  0  0  0  0
  -21.5700  -29.2810   22.4230 N   0  0  0  0  0  0  0  0  0  0  0  0
  -23.5620  -28.8440   23.3980 O   0  0  0  0  0  0  0  0  0  0  0  0
  -21.0880  -29.8330   21.7270 H   0  0  0  0  0  0  0  0  0  0  0  0
  -18.1870  -28.0830   22.9120 C   0  0  0  0  0  0  0  0  0  0  0  0
  -20.7460  -28.3400   23.1860 C   0  0  0  0  0  3  0  0  0  0  0  0
  -20.8460  -26.9110   22.6030 C   0  0  0  0  0  2  0  0  0  0  0  0
  -19.7450  -26.5940   21.5850 C   0  0  0  0  0  2  0  0  0  0  0  0
  -18.3630  -26.7370   22.2280 C   0  0  0  0  0  2  0  0  0  0  0  0
  -19.3050  -28.8410   23.3470 C   0  0  0  0  0  0  0  0  0  0  0  0
  -19.0870  -30.0990   23.9500 C   0  0  0  0  0  3  0  0  0  0  0  0
  -17.7820  -30.5990   24.1180 C   0  0  0  0  0  3  0  0  0  0  0  0
  -16.6780  -29.8390   23.6960 C   0  0  0  0  0  3  0  0  0  0  0  0
  -16.8800  -28.5820   23.0990 C   0  0  0  0  0  3  0  0  0  0  0  0
  -25.9810  -32.5570   23.9100 C   0  0  0  0  0  3  0  0  0  0  0  0
  -25.6480  -33.9580   24.2090 N   0  0  0  0  0  0  0  0  0  0  0  0
  -25.9850  -35.0030   23.4390 C   0  0  0  0  0  0  0  0  0  0  0  0
  -26.6730  -34.8890   22.4230 O   0  0  0  0  0  0  0  0  0  0  0  0
  -25.0330  -34.1200   24.9930 H   0  0  0  0  0  0  0  0  0  0  0  0
  -24.2570  -36.7840   23.0150 C   0  0  0  0  0  1  0  0  0  0  0  0
  -25.4770  -36.3950   23.8660 C   0  0  0  0  0  3  0  0  0  0  0  0
  -27.5740  -37.3140   24.7560 C   0  0  0  0  0  1  0  0  0  0  0  0
  -26.5070  -37.4530   23.7680 N   0  0  0  0  0  0  0  0  0  0  0  0
  -26.0890  -38.3740   23.8780 H   0  0  0  0  0  0  0  0  0  0  0  0
  -26.4660  -31.8140   25.2160 C   0  0  1  0  0  0  0  0  0  0  0  0
  -25.3430  -31.5800   26.2530 C   0  0  0  0  0  1  0  0  0  0  0  0
  -27.0790  -30.4380   24.8690 C   0  0  0  0  0  1  0  0  0  0  0  0
  -27.5850  -32.6360   25.8990 C   0  0  0  0  0  1  0  0  0  0  0  0
  1  2  2  0
  2  3  1  0
  2 53  1  0
  3  5  1  0
  4  3  2  0
  6  1  1  0
  6  4  1  0
  8 13  1  0
  9 10  1  0
  9  8  1  0
 11 10  1  0
 11 24  1  0
 11 12  1  0
 13  7  1  0
 13 12  1  0
 14  7  2  0
 15 19  1  0
 17 15  1  0
 17 20  1  0
 18 16  1  0
 19  4  1  0
 19 16  1  0
 20  7  1  0
 20 18  1  0
 21 22  2  0
 22 41  1  0
 23 22  1  0
 23 26  1  0
 24 25  1  0
 24 21  1  0
 25 23  2  0
 26 27  1  0
 27 28  2  0
 29 32  1  0
 29 28  1  0
 30 29  2  0
 31 30  1  0
 31 26  2  0
 32 33  1  0
 33 38  2  0
 33 34  1  0
 34 35  2  0
 35 36  1  0
 36 40  1  0
 37 36  2  0
 38 37  1  0
 39 38  1  0
 41 42  1  0
 42 45  1  0
 42 44  1  0
 43 41  2  0
 46 21  1  0
 46 47  1  0
 48 46  1  0
 49 51  1  0
 50 51  1  0
 51  6  1  0
 53 52  1  0
 54 53  1  0
 55 66  2  0
 56 54  1  0
 56 61  1  0
 57 65  1  0
 57 67  1  0
 58 64  1  0
 58 60  1  0
 59 65  1  0
 60 61  2  0
 60 59  1  0
 62 56  2  0
 63 62  1  0
 63 58  2  0
 64 57  1  0
 65 55  1  0
 67 69  2  0
 68 67  1  0
 70 68  1  0
 71 80  2  0
 71 76  1  0
 72 68  1  0
 72 76  1  0
 73 72  1  0
 74 75  1  0
 74 73  1  0
 75 71  1  0
 76 77  2  0
 77 78  1  0
 79 78  2  0
 80 79  1  0
 81 55  1  0
 81 82  1  0
 81 91  1  0
 82 85  1  0
 83 87  1  0
 83 82  1  0
 84 83  2  0
 87 86  1  0
 89 87  1  0
 89 90  1  0
 89 88  1  0
 91 94  1  1
 91 92  1  0
 93 91  1  0
M  ISO  4   7 100  20 100  53 101  54 101
M  END
>  <TORSDO>  (77) 
F 18

>  <SCORE>  (77) 
-14.079

>  <name>  (77) 
76

>  <ligand_id>  (77) 
76

>  <original_smiles>  (77) 
[H]c1c([H])c([H])c2c(c1[H])C([H])([H])C([H])([H])C([H])([H])C2([H])N([H])C(=O)C1([H])N(C(=O)C([H])(N([H])C(=O)C([H])(N([H])C([H])([H])[H])C([H])([H])[H])C(C([H])([H])[H])(C([H])([H])[H])C([H])([H])[H])C([H])([H])c2c([H])c(OC([H])(c3c(C([H])([H])[H])c(C4([H])C([H])([H])C([H])([H])N(C(=O)N5C([H])([H])C([H])([H])C([H])([H])C([H])(n6nc(-c7c([H])c([H])c(Oc8c([H])c([H])c(F)c([H])c8F)c([H])c7[H])c(C(=O)N([H])[H])c6N([H])[H])C5([H])[H])C([H])([H])C4([H])[H])n(C([H])(C([H])([H])[H])C([H])([H])[H])c3[H])C([H])([H])[H])c([H])c([H])c2C1([H])[H]

>  <smiles>  (77) 
[H]c1c([H])c([H])c2c(c1[H])C([H])([H])C([H])([H])C([H])([H])C2([H])N([H])C(=O)C1([H])N(C(=O)C([H])(N([H])C(=O)C([H])(N([H])C([H])([H])[H])C([H])([H])[H])C(C([H])([H])[H])(C([H])([H])[H])C([H])([H])[H])C([H])([H])c2c([H])c(OC([H])(c3c(C([H])([H])[H])c(C4([H])C([H])([H])C([H])([H])N(C(=O)N5C([H])([H])C([H])([H])C([H])([H])C([H])(n6nc(-c7c([H])c([H])c(Oc8c([H])c([H])c(F)c([H])c8F)c([H])c7[H])c(C(=O)N([H])[H])c6N([H])[H])C5([H])[H])C([H])([H])C4([H])[H])n(C([H])(C([H])([H])[H])C([H])([H])[H])c3[H])C([H])([H])[H])c([H])c([H])c2C1([H])[H]

$$$$
77:0:0
     RDKit          3D

 93102  0  0  1  0  0  0  0  0999 V2000
  -27.9480  -22.6000   18.9290 C   0  0  0  0  0  3  0  0  0  0  0  0
  -28.6190  -23.6990   19.5320 C   0  0  0  0  0  0  0  0  0  0  0  0
  -28.3490  -21.4170   19.4680 C   0  0  0  0  0  0  0  0  0  0  0  0
  -29.5810  -23.0970   20.3310 C   0  0  0  0  0  0  0  0  0  0  0  0
  -27.6860  -20.0960   19.2770 C   0  0  0  0  0  1  0  0  0  0  0  0
  -30.5890  -23.7770   21.2070 C   0  0  0  0  0  1  0  0  0  0  0  0
  -29.4280  -21.6670   20.3090 N   0  0  0  0  0  0  0  0  0  0  0  0
  -29.5960  -20.8170   22.6330 C   0  0  0  0  0  1  0  0  0  0  0  0
  -30.1430  -20.6760   21.2020 C   0  0  0  0  0  3  0  0  0  0  0  0
  -31.3540  -14.8190   19.9790 C   0  0  0  0  0  0  0  0  0  0  0  0
  -30.8890  -12.5990   18.9540 C   0  0  0  0  0  2  0  0  0  0  0  0
  -29.9170  -12.7110   17.7640 C   0  0  0  0  0  2  0  0  0  0  0  0
  -28.4590  -12.6180   18.2540 C   0  0  0  0  0  2  0  0  0  0  0  0
  -28.1800  -13.5280   19.4810 C   0  0  0  0  0  3  0  0  0  0  0  0
  -29.2810  -13.3760   20.5550 C   0  0  0  0  0  2  0  0  0  0  0  0
  -30.5560  -13.6950   19.9000 N   0  0  0  0  0  0  0  0  0  0  0  0
  -32.5230  -14.7140   19.5930 O   0  0  0  0  0  0  0  0  0  0  0  0
  -31.2570  -18.7010   19.6630 C   0  0  0  0  0  2  0  0  0  0  0  0
  -29.2860  -18.0510   20.9230 C   0  0  0  0  0  2  0  0  0  0  0  0
  -31.7950  -17.2360   19.7780 C   0  0  0  0  0  2  0  0  0  0  0  0
  -29.7670  -16.5610   21.0490 C   0  0  0  0  0  2  0  0  0  0  0  0
  -30.4220  -19.1120   20.8770 C   0  0  0  0  0  3  0  0  0  0  0  0
  -30.8540  -16.1150   20.1350 N   0  0  0  0  0  0  0  0  0  0  0  0
  -25.8600  -14.2310   20.3240 C   0  0  0  0  0  0  0  0  0  0  0  0
  -24.7690  -13.5050   20.7150 C   0  0  0  0  0  0  0  0  0  0  0  0
  -25.1520  -12.1320   20.6240 C   0  0  0  0  0  0  0  0  0  0  0  0
  -26.8430  -13.3030   20.0220 N   0  0  0  0  0  0  0  0  0  0  0  0
  -26.4260  -12.0330   20.2620 N   0  0  0  0  0  0  0  0  0  0  0  0
  -24.3650  -10.9060   20.8060 C   0  0  0  0  0  0  0  0  0  0  0  0
  -24.7480   -9.9140   21.7360 C   0  0  0  0  0  3  0  0  0  0  0  0
  -23.9620   -8.7530   21.9070 C   0  0  0  0  0  3  0  0  0  0  0  0
  -22.7820   -8.5770   21.1480 C   0  0  0  0  0  0  0  0  0  0  0  0
  -22.4180   -9.5570   20.2070 C   0  0  0  0  0  3  0  0  0  0  0  0
  -23.2030  -10.7090   20.0340 C   0  0  0  0  0  3  0  0  0  0  0  0
  -21.9690   -7.4720   21.2310 O   0  0  0  0  0  0  0  0  0  0  0  0
  -21.8230   -6.7720   22.4010 C   0  0  0  0  0  0  0  0  0  0  0  0
  -21.3700   -7.3890   23.5880 C   0  0  0  0  0  3  0  0  0  0  0  0
  -21.1690   -6.6170   24.7490 C   0  0  0  0  0  3  0  0  0  0  0  0
  -21.4110   -5.2300   24.7250 C   0  0  0  0  0  0  0  0  0  0  0  0
  -21.8570   -4.6140   23.5430 C   0  0  0  0  0  3  0  0  0  0  0  0
  -22.0610   -5.3830   22.3840 C   0  0  0  0  0  0  0  0  0  0  0  0
  -22.4710   -4.7810   21.2410 F   0  0  0  0  0  0  0  0  0  0  0  0
  -21.2080   -4.4860   25.8380 F   0  0  0  0  0  0  0  0  0  0  0  0
  -23.4130  -14.0490   21.0650 C   0  0  0  0  0  0  0  0  0  0  0  0
  -22.6950  -13.3720   21.9540 N   0  0  0  0  0  0  0  0  0  0  0  0
  -23.0040  -15.1050   20.5850 O   0  0  0  0  0  0  0  0  0  0  0  0
  -23.0420  -12.5160   22.3590 H   0  0  0  0  0  0  0  0  0  0  0  0
  -21.7880  -13.7160   22.2370 H   0  0  0  0  0  0  0  0  0  0  0  0
  -26.0910  -15.5960   20.1750 N   0  0  0  0  0  0  0  0  0  0  0  0
  -25.3650  -16.2850   20.3380 H   0  0  0  0  0  0  0  0  0  0  0  0
  -26.9510  -15.9970   19.8290 H   0  0  0  0  0  0  0  0  0  0  0  0
  -28.0240  -25.1180   19.2390 C   0  0  0  0  0  2  0  0  0  0  0  0
  -28.3010  -26.4490   19.8420 O   0  0  0  0  0  0  0  0  0  0  0  0
  -24.5210  -31.7500   23.0470 C   0  0  0  0  0  0  0  0  0  0  0  0
  -27.2100  -27.3570   19.7900 C   0  0  0  0  0  0  0  0  0  0  0  0
  -23.3420  -30.3740   21.3770 C   0  0  0  0  0  3  0  0  0  0  0  0
  -24.8180  -28.9460   19.8730 C   0  0  0  0  0  0  0  0  0  0  0  0
  -25.8780  -30.7550   21.1980 C   0  0  0  0  0  2  0  0  0  0  0  0
  -25.9830  -29.4080   20.4980 C   0  0  0  0  0  0  0  0  0  0  0  0
  -27.1770  -28.6180   20.4710 C   0  0  0  0  0  3  0  0  0  0  0  0
  -26.0250  -27.0160   19.0790 C   0  0  0  0  0  3  0  0  0  0  0  0
  -24.8420  -27.7530   19.1580 C   0  0  0  0  0  3  0  0  0  0  0  0
  -23.5610  -29.7790   19.9680 C   0  0  0  0  0  2  0  0  0  0  0  0
  -24.5980  -30.9760   21.9280 N   0  0  0  0  0  0  0  0  0  0  0  0
  -23.4340  -31.9790   23.5980 O   0  0  0  0  0  0  0  0  0  0  0  0
  -22.7230  -29.2940   22.2980 C   0  0  0  0  0  0  0  0  0  0  0  0
  -21.4050  -29.0640   22.1670 N   0  0  0  0  0  0  0  0  0  0  0  0
  -23.4270  -28.6740   23.0990 O   0  0  0  0  0  0  0  0  0  0  0  0
  -20.8980  -29.5950   21.4750 H   0  0  0  0  0  0  0  0  0  0  0  0
  -18.0720  -27.7490   22.6650 C   0  0  0  0  0  0  0  0  0  0  0  0
  -20.6220  -28.0910   22.9320 C   0  0  0  0  0  3  0  0  0  0  0  0
  -20.7660  -26.6690   22.3440 C   0  0  0  0  0  2  0  0  0  0  0  0
  -19.6790  -26.3330   21.3160 C   0  0  0  0  0  2  0  0  0  0  0  0
  -18.2940  -26.4180   21.9650 C   0  0  0  0  0  2  0  0  0  0  0  0
  -19.1670  -28.5410   23.1060 C   0  0  0  0  0  0  0  0  0  0  0  0
  -18.9090  -29.7820   23.7270 C   0  0  0  0  0  3  0  0  0  0  0  0
  -17.5900  -30.2330   23.9140 C   0  0  0  0  0  3  0  0  0  0  0  0
  -16.5100  -29.4400   23.4900 C   0  0  0  0  0  3  0  0  0  0  0  0
  -16.7520  -28.1990   22.8700 C   0  0  0  0  0  3  0  0  0  0  0  0
  -25.7910  -32.4010   23.6720 C   0  0  0  0  0  3  0  0  0  0  0  0
  -25.4360  -33.7720   24.0620 N   0  0  0  0  0  0  0  0  0  0  0  0
  -25.7260  -34.8660   23.3480 C   0  0  0  0  0  0  0  0  0  0  0  0
  -26.3960  -34.8310   22.3110 O   0  0  0  0  0  0  0  0  0  0  0  0
  -24.8450  -33.8710   24.8750 H   0  0  0  0  0  0  0  0  0  0  0  0
  -23.9390  -36.6150   23.0740 C   0  0  0  0  0  1  0  0  0  0  0  0
  -25.1940  -36.2150   23.8670 C   0  0  0  0  0  3  0  0  0  0  0  0
  -27.2980  -37.1310   24.7410 C   0  0  0  0  0  1  0  0  0  0  0  0
  -26.1910  -37.3060   23.8040 N   0  0  0  0  0  0  0  0  0  0  0  0
  -25.7540  -38.2040   23.9950 H   0  0  0  0  0  0  0  0  0  0  0  0
  -26.3560  -31.5970   24.9090 C   0  0  1  0  0  0  0  0  0  0  0  0
  -25.2880  -31.2810   25.9810 C   0  0  0  0  0  1  0  0  0  0  0  0
  -26.9810  -30.2560   24.4590 C   0  0  0  0  0  1  0  0  0  0  0  0
  -27.4880  -32.4060   25.5830 C   0  0  0  0  0  1  0  0  0  0  0  0
  1  3  2  0
  1  2  1  0
  2  4  2  0
  3  7  1  0
  4  6  1  0
  5  3  1  0
  7  4  1  0
  7  9  1  0
  9  8  1  0
 10 23  1  0
 11 16  1  0
 12 13  1  0
 12 11  1  0
 14 13  1  0
 14 27  1  0
 14 15  1  0
 16 10  1  0
 16 15  1  0
 17 10  2  0
 18 20  1  0
 18 22  1  0
 19 21  1  0
 20 23  1  0
 22 19  1  0
 22  9  1  0
 23 21  1  0
 24 25  2  0
 25 44  1  0
 26 25  1  0
 26 29  1  0
 27 28  1  0
 27 24  1  0
 28 26  2  0
 29 30  1  0
 30 31  2  0
 32 35  1  0
 32 31  1  0
 33 32  2  0
 34 33  1  0
 34 29  2  0
 35 36  1  0
 36 37  1  0
 37 38  2  0
 39 38  1  0
 39 43  1  0
 40 39  2  0
 41 36  2  0
 41 40  1  0
 42 41  1  0
 44 45  1  0
 45 48  1  0
 45 47  1  0
 46 44  2  0
 49 24  1  0
 49 50  1  0
 51 49  1  0
 52  2  1  0
 52 53  1  0
 54 65  2  0
 55 53  1  0
 55 60  1  0
 56 64  1  0
 56 66  1  0
 57 63  1  0
 57 59  1  0
 58 64  1  0
 59 58  1  0
 60 59  2  0
 61 62  1  0
 61 55  2  0
 62 57  2  0
 63 56  1  0
 64 54  1  0
 66 68  2  0
 67 66  1  0
 69 67  1  0
 70 79  2  0
 70 75  1  0
 71 67  1  0
 71 75  1  0
 72 71  1  0
 73 74  1  0
 73 72  1  0
 74 70  1  0
 75 76  2  0
 76 77  1  0
 78 77  2  0
 79 78  1  0
 80 54  1  0
 80 81  1  0
 80 90  1  0
 81 84  1  0
 82 86  1  0
 82 81  1  0
 83 82  2  0
 86 85  1  0
 88 86  1  0
 88 89  1  0
 88 87  1  0
 90 93  1  1
 90 91  1  0
 92 90  1  0
M  ISO  4  10 100  23 100  52 101  53 101
M  END
>  <TORSDO>  (78) 
F 18

>  <SCORE>  (78) 
-13.798

>  <name>  (78) 
77

>  <ligand_id>  (78) 
77

>  <original_smiles>  (78) 
[H]c1c([H])c([H])c2c(c1[H])C([H])([H])C([H])([H])C([H])([H])C2([H])N([H])C(=O)C1([H])N(C(=O)C([H])(N([H])C(=O)C([H])(N([H])C([H])([H])[H])C([H])([H])[H])C(C([H])([H])[H])(C([H])([H])[H])C([H])([H])[H])C([H])([H])c2c([H])c(OC([H])([H])c3c([H])c(C([H])([H])[H])n(C([H])(C([H])([H])[H])C4([H])C([H])([H])C([H])([H])N(C(=O)N5C([H])([H])C([H])([H])C([H])([H])C([H])(n6nc(-c7c([H])c([H])c(Oc8c([H])c([H])c(F)c([H])c8F)c([H])c7[H])c(C(=O)N([H])[H])c6N([H])[H])C5([H])[H])C([H])([H])C4([H])[H])c3C([H])([H])[H])c([H])c([H])c2C1([H])[H]

>  <smiles>  (78) 
[H]c1c([H])c([H])c2c(c1[H])C([H])([H])C([H])([H])C([H])([H])C2([H])N([H])C(=O)C1([H])N(C(=O)C([H])(N([H])C(=O)C([H])(N([H])C([H])([H])[H])C([H])([H])[H])C(C([H])([H])[H])(C([H])([H])[H])C([H])([H])[H])C([H])([H])c2c([H])c(OC([H])([H])c3c([H])c(C([H])([H])[H])n(C([H])(C([H])([H])[H])C4([H])C([H])([H])C([H])([H])N(C(=O)N5C([H])([H])C([H])([H])C([H])([H])C([H])(n6nc(-c7c([H])c([H])c(Oc8c([H])c([H])c(F)c([H])c8F)c([H])c7[H])c(C(=O)N([H])[H])c6N([H])[H])C5([H])[H])C([H])([H])C4([H])[H])c3C([H])([H])[H])c([H])c([H])c2C1([H])[H]

$$$$
78:0:0
     RDKit          3D

 93102  0  0  1  0  0  0  0  0999 V2000
  -30.2930  -14.6100   20.2170 C   0  0  0  0  0  0  0  0  0  0  0  0
  -30.1330  -12.2650   19.2180 C   0  0  0  0  0  2  0  0  0  0  0  0
  -29.1310  -12.2160   18.0400 C   0  0  0  0  0  2  0  0  0  0  0  0
  -27.7010  -11.9690   18.5530 C   0  0  0  0  0  2  0  0  0  0  0  0
  -27.3520  -12.8620   19.7710 C   0  0  0  0  0  3  0  0  0  0  0  0
  -28.4710  -12.8820   20.8330 C   0  0  0  0  0  2  0  0  0  0  0  0
  -29.6870  -13.3450   20.1520 N   0  0  0  0  0  0  0  0  0  0  0  0
  -31.4910  -14.6240   19.9040 O   0  0  0  0  0  0  0  0  0  0  0  0
  -31.6620  -18.9240   21.1250 C   0  0  0  0  0  3  0  0  0  0  0  0
  -31.2070  -17.6280   20.8450 C   0  0  0  0  0  3  0  0  0  0  0  0
  -30.8100  -20.0560   21.1670 C   0  0  0  0  0  3  0  0  0  0  0  0
  -29.8660  -17.3560   20.5340 C   0  0  0  0  0  3  0  0  0  0  0  0
  -29.4610  -19.9160   20.7270 C   0  0  0  0  0  0  0  0  0  0  0  0
  -29.0420  -18.5520   20.4590 N   0  0  0  0  0  0  0  0  0  0  0  0
  -29.5320  -15.8340   20.3910 N   0  0  0  0  0  0  0  0  0  0  0  0
  -28.5460  -15.6450   20.4680 H   0  0  0  0  0  0  0  0  0  0  0  0
  -25.0240  -13.4080   20.6730 C   0  0  0  0  0  0  0  0  0  0  0  0
  -23.9840  -12.6180   21.0770 C   0  0  0  0  0  0  0  0  0  0  0  0
  -24.4450  -11.2710   20.9700 C   0  0  0  0  0  0  0  0  0  0  0  0
  -26.0500  -12.5400   20.3400 N   0  0  0  0  0  0  0  0  0  0  0  0
  -25.7160  -11.2470   20.5840 N   0  0  0  0  0  0  0  0  0  0  0  0
  -23.7280  -10.0020   21.1530 C   0  0  0  0  0  0  0  0  0  0  0  0
  -24.1960   -9.0090   22.0420 C   0  0  0  0  0  3  0  0  0  0  0  0
  -23.4780   -7.8070   22.2170 C   0  0  0  0  0  3  0  0  0  0  0  0
  -22.2760   -7.5890   21.5030 C   0  0  0  0  0  0  0  0  0  0  0  0
  -21.8260   -8.5690   20.6010 C   0  0  0  0  0  3  0  0  0  0  0  0
  -22.5460   -9.7630   20.4240 C   0  0  0  0  0  3  0  0  0  0  0  0
  -21.5260   -6.4410   21.5880 O   0  0  0  0  0  0  0  0  0  0  0  0
  -21.5150   -5.6710   22.7240 C   0  0  0  0  0  0  0  0  0  0  0  0
  -21.0710   -6.1800   23.9630 C   0  0  0  0  0  3  0  0  0  0  0  0
  -21.0100   -5.3360   25.0900 C   0  0  0  0  0  3  0  0  0  0  0  0
  -21.3840   -3.9840   24.9780 C   0  0  0  0  0  0  0  0  0  0  0  0
  -21.8210   -3.4730   23.7440 C   0  0  0  0  0  3  0  0  0  0  0  0
  -21.8830   -4.3150   22.6190 C   0  0  0  0  0  0  0  0  0  0  0  0
  -22.2850   -3.8130   21.4260 F   0  0  0  0  0  0  0  0  0  0  0  0
  -21.3170   -3.1700   26.0580 F   0  0  0  0  0  0  0  0  0  0  0  0
  -22.6050  -13.0850   21.4420 C   0  0  0  0  0  0  0  0  0  0  0  0
  -21.9320  -12.3680   22.3330 N   0  0  0  0  0  0  0  0  0  0  0  0
  -22.1370  -14.1220   20.9730 O   0  0  0  0  0  0  0  0  0  0  0  0
  -22.3290  -11.5310   22.7340 H   0  0  0  0  0  0  0  0  0  0  0  0
  -21.0080  -12.6570   22.6180 H   0  0  0  0  0  0  0  0  0  0  0  0
  -25.1790  -14.7840   20.5320 N   0  0  0  0  0  0  0  0  0  0  0  0
  -24.4170  -15.4320   20.6920 H   0  0  0  0  0  0  0  0  0  0  0  0
  -25.9930  -15.2310   20.1290 H   0  0  0  0  0  0  0  0  0  0  0  0
  -31.1260  -21.8500   23.1090 C   0  0  0  0  0  2  0  0  0  0  0  0
  -31.4190  -21.3350   21.7070 C   0  0  0  0  0  3  0  0  0  0  0  0
  -33.6060  -21.8580   22.8660 C   0  0  0  0  0  1  0  0  0  0  0  0
  -32.3310  -21.1110   22.8310 N   0  0  1  0  0  4  0  0  0  0  0  0
  -32.3250  -20.1870   23.2350 H   0  0  0  0  0  0  0  0  0  0  0  0
  -28.5500  -21.0940   20.5630 O   0  0  0  0  0  0  0  0  0  0  0  0
  -28.8370  -22.6510   20.7390 C   0  0  0  0  0  3  0  0  0  0  0  0
  -27.8860  -24.0540   20.3840 C   0  0  0  0  0  3  0  0  0  0  0  0
  -28.1790  -25.6020   20.6310 O   0  0  0  0  0  0  0  0  0  0  0  0
  -24.6710  -31.5950   23.2890 C   0  0  0  0  0  0  0  0  0  0  0  0
  -27.1900  -26.6650   20.4830 C   0  0  0  0  0  0  0  0  0  0  0  0
  -23.5000  -30.2160   21.6180 C   0  0  0  0  0  3  0  0  0  0  0  0
  -24.9490  -28.5440   20.3000 C   0  0  0  0  0  0  0  0  0  0  0  0
  -26.0720  -30.3540   21.5850 C   0  0  0  0  0  2  0  0  0  0  0  0
  -26.1180  -28.9430   20.9600 C   0  0  0  0  0  0  0  0  0  0  0  0
  -27.2400  -28.0220   21.0280 C   0  0  0  0  0  3  0  0  0  0  0  0
  -25.9990  -26.3840   19.7780 C   0  0  0  0  0  3  0  0  0  0  0  0
  -24.9070  -27.2790   19.6960 C   0  0  0  0  0  3  0  0  0  0  0  0
  -23.7640  -29.4990   20.2680 C   0  0  0  0  0  2  0  0  0  0  0  0
  -24.7670  -30.7470   22.2190 N   0  0  0  0  0  0  0  0  0  0  0  0
  -23.5720  -31.9360   23.7560 O   0  0  0  0  0  0  0  0  0  0  0  0
  -22.7310  -29.2600   22.5640 C   0  0  0  0  0  0  0  0  0  0  0  0
  -21.4060  -29.1360   22.3690 N   0  0  0  0  0  0  0  0  0  0  0  0
  -23.3340  -28.6270   23.4350 O   0  0  0  0  0  0  0  0  0  0  0  0
  -20.9770  -29.6990   21.6490 H   0  0  0  0  0  0  0  0  0  0  0  0
  -17.9580  -28.0780   22.7320 C   0  0  0  0  0  0  0  0  0  0  0  0
  -20.5110  -28.2460   23.1150 C   0  0  0  0  0  3  0  0  0  0  0  0
  -20.5790  -26.8000   22.5730 C   0  0  0  0  0  2  0  0  0  0  0  0
  -19.5150  -26.5010   21.5110 C   0  0  0  0  0  2  0  0  0  0  0  0
  -18.1120  -26.7110   22.0870 C   0  0  0  0  0  2  0  0  0  0  0  0
  -19.0860  -28.8050   23.2010 C   0  0  0  0  0  0  0  0  0  0  0  0
  -18.8890  -30.0820   23.7660 C   0  0  0  0  0  3  0  0  0  0  0  0
  -17.6000  -30.6360   23.8660 C   0  0  0  0  0  3  0  0  0  0  0  0
  -16.4860  -29.9080   23.4120 C   0  0  0  0  0  3  0  0  0  0  0  0
  -16.6660  -28.6310   22.8510 C   0  0  0  0  0  3  0  0  0  0  0  0
  -25.9400  -32.1960   23.9680 C   0  0  0  0  0  3  0  0  0  0  0  0
  -26.3450  -31.4450   25.2970 C   0  0  1  0  0  0  0  0  0  0  0  0
  -25.1790  -31.2940   26.3040 C   0  0  0  0  0  1  0  0  0  0  0  0
  -26.8880  -30.0290   24.9950 C   0  0  0  0  0  1  0  0  0  0  0  0
  -27.4880  -32.2140   26.0020 C   0  0  0  0  0  1  0  0  0  0  0  0
  -25.6710  -33.6150   24.2450 N   0  0  0  0  0  0  0  0  0  0  0  0
  -26.0640  -34.6360   23.4710 C   0  0  0  0  0  0  0  0  0  0  0  0
  -26.7570  -34.4780   22.4620 O   0  0  0  0  0  0  0  0  0  0  0  0
  -25.0530  -33.8140   25.0170 H   0  0  0  0  0  0  0  0  0  0  0  0
  -24.4050  -36.4800   23.0400 C   0  0  0  0  0  1  0  0  0  0  0  0
  -25.6220  -36.0550   23.8780 C   0  0  0  0  0  3  0  0  0  0  0  0
  -27.7680  -36.9040   24.7200 C   0  0  0  0  0  1  0  0  0  0  0  0
  -26.6910  -37.0680   23.7470 N   0  0  0  0  0  0  0  0  0  0  0  0
  -26.3130  -38.0060   23.8490 H   0  0  0  0  0  0  0  0  0  0  0  0
  1 15  1  0
  2  7  1  0
  3  4  1  0
  3  2  1  0
  5  4  1  0
  5 20  1  0
  5  6  1  0
  7  1  1  0
  7  6  1  0
  8  1  2  0
 10  9  2  0
 11  9  1  0
 11 46  1  0
 12 15  1  0
 12 10  1  0
 13 11  1  0
 14 12  1  0
 14 13  2  0
 15 16  1  0
 17 18  2  0
 18 37  1  0
 19 18  1  0
 19 22  1  0
 20 21  1  0
 20 17  1  0
 21 19  2  0
 22 23  1  0
 23 24  2  0
 25 28  1  0
 25 24  1  0
 26 25  2  0
 27 26  1  0
 27 22  2  0
 28 29  1  0
 29 30  1  0
 30 31  2  0
 32 31  1  0
 32 36  1  0
 33 32  2  0
 34 29  2  0
 34 33  1  0
 35 34  1  0
 37 38  1  0
 38 41  1  0
 38 40  1  0
 39 37  2  0
 42 17  1  0
 42 43  1  0
 44 42  1  0
 46 48  1  0
 46 45  1  0
 48 47  1  0
 48 45  1  0
 48 49  1  1
 50 13  1  0
 50 51  1  0
 52 53  1  0
 52 51  2  0
 54 65  2  0
 55 53  1  0
 55 60  1  0
 56 64  1  0
 56 66  1  0
 57 59  1  0
 58 64  1  0
 59 60  2  0
 59 58  1  0
 61 55  2  0
 62 61  1  0
 62 57  2  0
 63 57  1  0
 63 56  1  0
 64 54  1  0
 66 68  2  0
 67 66  1  0
 69 67  1  0
 70 79  2  0
 70 75  1  0
 71 67  1  0
 71 75  1  0
 72 71  1  0
 73 74  1  0
 73 72  1  0
 74 70  1  0
 75 76  2  0
 76 77  1  0
 78 77  2  0
 79 78  1  0
 80 54  1  0
 80 85  1  0
 80 81  1  0
 81 84  1  1
 81 82  1  0
 83 81  1  0
 85 88  1  0
 86 90  1  0
 86 85  1  0
 87 86  2  0
 90 89  1  0
 92 93  1  0
 92 90  1  0
 92 91  1  0
M  ISO  4   1 100  15 100  52 101  53 101
M  END
>  <TORSDO>  (79) 
F 19

>  <SCORE>  (79) 
-12.820

>  <name>  (79) 
78

>  <ligand_id>  (79) 
78

>  <original_smiles>  (79) 
[H]c1c(N([H])C(=O)N2C([H])([H])C([H])([H])C([H])([H])C([H])(n3nc(-c4c([H])c([H])c(Oc5c([H])c([H])c(F)c([H])c5F)c([H])c4[H])c(C(=O)N([H])[H])c3N([H])[H])C2([H])[H])nc(OC([H])([H])C([H])([H])Oc2c([H])c([H])c3c(c2[H])C([H])([H])N(C(=O)C([H])(N([H])C(=O)C([H])(N([H])C([H])([H])[H])C([H])([H])[H])C(C([H])([H])[H])(C([H])([H])[H])C([H])([H])[H])C([H])(C(=O)N([H])C2([H])c4c([H])c([H])c([H])c([H])c4C([H])([H])C([H])([H])C2([H])[H])C3([H])[H])c(C2([H])C([H])([H])[N+]2([H])C([H])([H])[H])c1[H]

>  <smiles>  (79) 
[H]c1c(N([H])C(=O)N2C([H])([H])C([H])([H])C([H])([H])C([H])(n3nc(-c4c([H])c([H])c(Oc5c([H])c([H])c(F)c([H])c5F)c([H])c4[H])c(C(=O)N([H])[H])c3N([H])[H])C2([H])[H])nc(OC([H])([H])C([H])([H])Oc2c([H])c([H])c3c(c2[H])C([H])([H])N(C(=O)C([H])(N([H])C(=O)C([H])(N([H])C([H])([H])[H])C([H])([H])[H])C(C([H])([H])[H])(C([H])([H])[H])C([H])([H])[H])C([H])(C(=O)N([H])C2([H])c4c([H])c([H])c([H])c([H])c4C([H])([H])C([H])([H])C2([H])[H])C3([H])[H])c(C2([H])C([H])([H])[N+]2([H])C([H])([H])[H])c1[H]

$$$$
79:0:0
     RDKit          3D

 94 90  0  0  1  0  0  0  0  0999 V2000
  -23.1300  -28.8660   20.0110 C   0  0  0  0  0  1  0  0  0  0  0  0
  -25.5620  -26.8990   18.0130 C   0  0  0  0  0  2  0  0  0  0  0  0
  -23.7710  -27.1520   18.1490 C   0  0  0  0  0  2  0  0  0  0  0  0
  -24.3720  -29.5340   20.8780 C   0  0  0  0  0  3  0  0  0  0  0  0
  -25.9580  -29.0350   20.6710 C   0  0  0  0  0  1  0  0  0  0  0  0
  -26.8140  -27.6640   18.9680 C   0  0  0  0  0  1  0  0  0  0  0  0
  -23.0130  -26.2280   17.1500 C   0  0  0  0  0  1  0  0  0  0  0  0
  -23.9940  -30.6640   21.8080 C   0  0  0  0  0  1  0  0  0  0  0  0
  -32.5970  -27.3890   18.2200 C   0  0  0  0  0  1  0  0  0  0  0  0
  -32.1160  -25.6090   18.2030 C   0  0  0  0  0  1  0  0  0  0  0  0
  -30.6360  -27.9550   18.7650 C   0  0  0  0  0  2  0  0  0  0  0  0
  -30.2030  -26.1490   18.8020 C   0  0  0  0  0  2  0  0  0  0  0  0
  -34.0850  -25.9960   18.3380 C   0  0  0  0  0 15  0  0  0  0  0  0
  -28.9090  -27.4220   18.8120 N   0  0  0  0  0  2  0  0  0  0  0  0
  -38.0090  -24.5720   17.3770 C   0  0  0  0  0  2  0  0  0  0  0  0
  -40.2690  -22.7860   16.3300 C   0  0  0  0  0  2  0  0  0  0  0  0
  -40.2700  -21.4490   15.4140 C   0  0  0  0  0  2  0  0  0  0  0  0
  -39.5570  -20.2810   16.0950 C   0  0  0  0  0  2  0  0  0  0  0  0
  -38.5260  -20.9610   16.9880 C   0  0  0  0  0  3  0  0  0  0  0  0
  -39.0370  -22.0140   17.9840 C   0  0  0  0  0  2  0  0  0  0  0  0
  -38.9200  -23.2420   17.1980 N   0  0  0  0  0  0  0  0  0  0  0  0
  -39.0860  -25.1810   16.9260 O   0  0  0  0  0  1  0  0  0  0  0  0
  -36.2590  -25.2980   17.8160 N   0  0  0  0  0  1  0  0  0  0  0  0
  -36.6120  -26.2380   17.6830 H   0  0  0  0  0  0  0  0  0  0  0  0
  -36.7420  -20.6600   18.6160 C   0  0  0  0  0  0  0  0  0  0  0  0
  -36.1150  -19.5610   19.0910 C   0  0  0  0  0  0  0  0  0  0  0  0
  -36.7200  -18.4430   18.4340 C   0  0  0  0  0  0  0  0  0  0  0  0
  -37.6380  -20.1620   17.7030 N   0  0  0  0  0  0  0  0  0  0  0  0
  -37.7090  -18.8230   17.6450 N   0  0  0  0  0  0  0  0  0  0  0  0
  -36.3580  -17.0370   18.4420 C   0  0  0  0  0  0  0  0  0  0  0  0
  -35.0190  -16.6220   18.5930 C   0  0  0  0  0  3  0  0  0  0  0  0
  -34.7030  -15.2490   18.5750 C   0  0  0  0  0  3  0  0  0  0  0  0
  -35.7300  -14.2910   18.4060 C   0  0  0  0  0  0  0  0  0  0  0  0
  -37.0640  -14.7150   18.2880 C   0  0  0  0  0  3  0  0  0  0  0  0
  -37.3800  -16.0800   18.3110 C   0  0  0  0  0  3  0  0  0  0  0  0
  -35.5220  -12.9350   18.3950 O   0  0  0  0  0  0  0  0  0  0  0  0
  -36.4320  -12.0770   17.8360 C   0  0  0  0  0  0  0  0  0  0  0  0
  -37.2910  -11.2810   18.6250 C   0  0  0  0  0  3  0  0  0  0  0  0
  -38.1620  -10.3630   18.0060 C   0  0  0  0  0  3  0  0  0  0  0  0
  -38.1670  -10.2330   16.6040 C   0  0  0  0  0  0  0  0  0  0  0  0
  -37.3110  -11.0240   15.8190 C   0  0  0  0  0  3  0  0  0  0  0  0
  -36.4430  -11.9420   16.4350 C   0  0  0  0  0  0  0  0  0  0  0  0
  -35.6030  -12.6880   15.6770 F   0  0  0  0  0  0  0  0  0  0  0  0
  -38.9970   -9.3440   16.0090 F   0  0  0  0  0  0  0  0  0  0  0  0
  -34.9470  -19.5780   20.0160 C   0  0  0  0  0  0  0  0  0  0  0  0
  -35.0210  -18.8170   21.1000 N   0  0  0  0  0  0  0  0  0  0  0  0
  -33.9820  -20.3100   19.8020 O   0  0  0  0  0  0  0  0  0  0  0  0
  -35.8270  -18.2370   21.2800 H   0  0  0  0  0  0  0  0  0  0  0  0
  -34.2600  -18.8220   21.7640 H   0  0  0  0  0  0  0  0  0  0  0  0
  -36.6240  -22.0290   18.8650 N   0  0  0  0  0  0  0  0  0  0  0  0
  -35.9240  -22.4050   19.4950 H   0  0  0  0  0  0  0  0  0  0  0  0
  -37.0820  -22.7360   18.3100 H   0  0  0  0  0  0  0  0  0  0  0  0
  -27.0750  -29.4790   22.2930 C   0  0  0  0  0 15  0  0  0  0  0  0
  -27.2470  -28.8050   24.0430 O   0  0  0  0  0  1  0  0  0  0  0  0
  -29.1500  -31.6080   28.4670 C   0  0  0  0  0  0  0  0  0  0  0  0
  -26.6900  -27.8040   24.9540 C   0  0  0  0  0  3  0  0  0  0  0  0
  -29.8780  -30.5070   26.4290 C   0  0  0  0  0  3  0  0  0  0  0  0
  -29.0150  -28.1230   25.9490 C   0  0  0  0  0  3  0  0  0  0  0  0
  -28.3280  -29.2850   28.0330 C   0  0  0  0  0  2  0  0  0  0  0  0
  -27.9730  -28.4560   26.8120 C   0  0  0  0  0  3  0  0  0  0  0  0
  -26.6840  -28.1440   26.3500 C   0  0  0  0  0  2  0  0  0  0  0  0
  -27.4720  -26.7310   24.6610 C   0  0  0  0  0  2  0  0  0  0  0  0
  -28.7920  -27.1190   24.9580 C   0  0  0  0  0  2  0  0  0  0  0  0
  -30.2310  -29.0100   26.0650 C   0  0  0  0  0  2  0  0  0  0  0  0
  -29.1660  -30.4760   27.7230 N   0  0  0  0  0  0  0  0  0  0  0  0
  -29.8100  -32.6060   28.1440 O   0  0  0  0  0  0  0  0  0  0  0  0
  -28.8930  -31.3140   25.5300 C   0  0  0  0  0  0  0  0  0  0  0  0
  -28.5030  -32.5080   25.7700 N   0  0  0  0  0  0  0  0  0  0  0  0
  -28.3240  -30.8340   24.5690 O   0  0  0  0  0  0  0  0  0  0  0  0
  -28.8420  -33.0150   26.5770 H   0  0  0  0  0  0  0  0  0  0  0  0
  -30.5640  -35.8330   24.5890 C   0  0  0  0  0  3  0  0  0  0  0  0
  -27.9390  -33.3340   24.6420 C   0  0  0  0  0  2  0  0  0  0  0  0
  -28.4720  -32.8780   22.7100 C   0  0  0  0  0 15  0  0  0  0  0  0
  -30.5660  -33.9340   21.8980 C   0  0  0  0  0 15  0  0  0  0  0  0
  -31.2700  -35.4570   23.0680 C   0  0  0  0  0  1  0  0  0  0  0  0
  -28.6530  -34.5740   25.4340 C   0  0  0  0  0  3  0  0  0  0  0  0
  -28.2580  -35.0030   27.1570 C   0  0  0  0  0  3  0  0  0  0  0  0
  -29.1310  -36.1890   28.0560 C   0  0  0  0  0  3  0  0  0  0  0  0
  -30.4410  -37.1210   27.4870 C   0  0  0  0  0  3  0  0  0  0  0  0
  -31.1640  -37.0260   25.8910 C   0  0  0  0  0  3  0  0  0  0  0  0
  -28.3100  -31.6700   29.7620 C   0  0  0  0  0  3  0  0  0  0  0  0
  -29.2590  -31.4800   30.8600 N   0  0  0  0  0  0  0  0  0  0  0  0
  -28.9210  -31.0160   32.0670 C   0  0  0  0  0  0  0  0  0  0  0  0
  -27.7520  -30.7930   32.3970 O   0  0  0  0  0  0  0  0  0  0  0  0
  -30.2370  -31.6010   30.6460 H   0  0  0  0  0  0  0  0  0  0  0  0
  -29.8740  -29.4010   33.7430 C   0  0  0  0  0  1  0  0  0  0  0  0
  -30.0620  -30.7690   33.0680 C   0  0  0  0  0  3  0  0  0  0  0  0
  -30.5300  -33.1310   33.5460 C   0  0  0  0  0  1  0  0  0  0  0  0
  -30.1810  -31.8240   34.0960 N   0  0  0  0  0  0  0  0  0  0  0  0
  -30.8840  -31.5740   34.7860 H   0  0  0  0  0  0  0  0  0  0  0  0
  -27.5070  -33.0170   29.9300 C   0  0  1  0  0  0  0  0  0  0  0  0
  -28.3760  -34.2880   29.7920 C   0  0  0  0  0  1  0  0  0  0  0  0
  -26.3530  -33.1240   28.9050 C   0  0  0  0  0  1  0  0  0  0  0  0
  -26.8400  -33.0350   31.3240 C   0  0  0  0  0  1  0  0  0  0  0  0
  1  4  1  0
  2  3  1  0
  2  6  1  0
  4  8  1  0
  5  4  1  0
  7  3  1  0
 10  9  1  0
 11 12  1  0
 11 14  1  0
 12 14  1  0
 16 21  1  0
 17 18  1  0
 17 16  1  0
 19 18  1  0
 19 28  1  0
 19 20  1  0
 21 15  1  0
 21 20  1  0
 22 15  1  0
 24 23  1  0
 25 50  1  0
 25 26  2  0
 26 45  1  0
 27 30  1  0
 27 26  1  0
 28 25  1  0
 29 28  1  0
 29 27  2  0
 30 31  1  0
 32 31  2  0
 33 32  1  0
 34 35  1  0
 34 33  2  0
 35 30  2  0
 36 33  1  0
 37 36  1  0
 37 38  1  0
 39 38  2  0
 40 39  1  0
 41 42  1  0
 41 40  2  0
 42 37  2  0
 43 42  1  0
 44 40  1  0
 45 46  1  0
 46 48  1  0
 46 49  1  0
 47 45  2  0
 50 51  1  0
 52 50  1  0
 56 54  1  0
 56 61  1  0
 57 67  1  0
 57 65  1  0
 58 63  1  0
 58 64  1  0
 58 60  1  0
 60 61  1  0
 60 59  1  0
 62 56  1  0
 62 63  1  0
 64 57  1  0
 65 59  1  0
 65 55  1  0
 66 55  2  0
 67 68  1  0
 68 70  1  0
 69 67  2  0
 71 80  2  0
 72 76  1  0
 72 68  1  0
 75 71  1  0
 76 77  2  0
 77 78  1  0
 79 78  2  0
 80 79  1  0
 81 55  1  0
 81 91  1  0
 81 82  1  0
 82 83  1  0
 83 84  2  0
 83 87  1  0
 85 82  1  0
 87 86  1  0
 87 89  1  0
 88 89  1  0
 89 90  1  0
 91 94  1  1
 92 91  1  0
 93 91  1  0
M  ISO  4  15 100  23 100  53 101  54 101
M  END
>  <TORSDO>  (80) 
F 18

>  <SCORE>  (80) 
0.757

>  <name>  (80) 
79

>  <ligand_id>  (80) 
79

>  <original_smiles>  (80) 
[H]c1c([H])c([H])c2c(c1[H])C([H])([H])C([H])([H])C([H])([H])C2([H])N([H])C(=O)C1([H])N(C(=O)C([H])(N([H])C(=O)C([H])(N([H])C([H])([H])[H])C([H])([H])[H])C(C([H])([H])[H])(C([H])([H])[H])C([H])([H])[H])C([H])([H])c2c([H])c(OC([H])([H])c3c(N4C([H])([H])C([H])([H])C([H])(N([H])C(=O)N5C([H])([H])C([H])([H])C([H])([H])C([H])(n6nc(-c7c([H])c([H])c(Oc8c([H])c([H])c(F)c([H])c8F)c([H])c7[H])c(C(=O)N([H])[H])c6N([H])[H])C5([H])[H])C([H])([H])C4([H])[H])c([H])c(C([H])([H])[H])c([H])c3C([H])([H])[H])c([H])c([H])c2C1([H])[H]

>  <smiles>  (80) 
[H]c1c([H])c([H])c2c(c1[H])C([H])([H])C([H])([H])C([H])([H])C2([H])N([H])C(=O)C1([H])N(C(=O)C([H])(N([H])C(=O)C([H])(N([H])C([H])([H])[H])C([H])([H])[H])C(C([H])([H])[H])(C([H])([H])[H])C([H])([H])[H])C([H])([H])c2c([H])c(OC([H])([H])c3c(N4C([H])([H])C([H])([H])C([H])(N([H])C(=O)N5C([H])([H])C([H])([H])C([H])([H])C([H])(n6nc(-c7c([H])c([H])c(Oc8c([H])c([H])c(F)c([H])c8F)c([H])c7[H])c(C(=O)N([H])[H])c6N([H])[H])C5([H])[H])C([H])([H])C4([H])[H])c([H])c(C([H])([H])[H])c([H])c3C([H])([H])[H])c([H])c([H])c2C1([H])[H]

$$$$
80:0:0
     RDKit          3D

107118  0  0  1  0  0  0  0  0999 V2000
  -30.2060  -20.7780   18.4650 C   0  0  0  0  0  3  0  0  0  0  0  0
  -30.5800  -22.0130   17.8730 C   0  0  0  0  0  0  0  0  0  0  0  0
  -30.3580  -19.5520   17.7710 C   0  0  0  0  0  0  0  0  0  0  0  0
  -31.2660  -22.0000   16.6270 C   0  0  0  0  0  0  0  0  0  0  0  0
  -30.8040  -19.5950   16.4150 C   0  0  0  0  0  0  0  0  0  0  0  0
  -31.3680  -20.7900   15.8960 C   0  0  0  0  0  0  0  0  0  0  0  0
  -31.8960  -23.2850   16.0680 C   0  0  0  0  0  1  0  0  0  0  0  0
  -30.6540  -18.3890   15.4820 C   0  0  0  0  0  1  0  0  0  0  0  0
  -30.6880  -14.7440   20.7800 C   0  0  0  0  0  0  0  0  0  0  0  0
  -30.5200  -12.4660   19.9020 C   0  0  0  0  0  2  0  0  0  0  0  0
  -29.6710  -12.4890   18.6110 C   0  0  0  0  0  2  0  0  0  0  0  0
  -28.1690  -12.3860   18.9370 C   0  0  0  0  0  2  0  0  0  0  0  0
  -27.7080  -13.3260   20.0830 C   0  0  0  0  0  3  0  0  0  0  0  0
  -28.6890  -13.3020   21.2770 C   0  0  0  0  0  2  0  0  0  0  0  0
  -30.0370  -13.5520   20.7610 N   0  0  0  0  0  0  0  0  0  0  0  0
  -31.9170  -14.8120   20.8370 O   0  0  0  0  0  0  0  0  0  0  0  0
  -31.2210  -17.2330   18.4240 C   0  0  0  0  0  2  0  0  0  0  0  0
  -29.5180  -18.1620   19.9000 C   0  0  0  0  0  2  0  0  0  0  0  0
  -30.6810  -15.8230   18.6180 C   0  0  0  0  0  2  0  0  0  0  0  0
  -29.1510  -16.7120   20.3790 C   0  0  0  0  0  2  0  0  0  0  0  0
  -30.0200  -18.1950   18.4330 C   0  0  0  0  0  3  0  0  0  0  0  0
  -30.0950  -15.6470   19.9580 N   0  0  0  0  0  0  0  0  0  0  0  0
  -25.2630  -13.9010   20.6360 C   0  0  0  0  0  0  0  0  0  0  0  0
  -24.1850  -13.1130   20.9370 C   0  0  0  0  0  0  0  0  0  0  0  0
  -24.6720  -11.7700   20.9670 C   0  0  0  0  0  0  0  0  0  0  0  0
  -26.3370  -13.0370   20.4920 N   0  0  0  0  0  0  0  0  0  0  0  0
  -25.9810  -11.7540   20.7580 N   0  0  0  0  0  0  0  0  0  0  0  0
  -23.9600  -10.4970   21.1240 C   0  0  0  0  0  0  0  0  0  0  0  0
  -24.3450   -9.5510   22.1000 C   0  0  0  0  0  3  0  0  0  0  0  0
  -23.6330   -8.3410   22.2440 C   0  0  0  0  0  3  0  0  0  0  0  0
  -22.5220   -8.0680   21.4110 C   0  0  0  0  0  0  0  0  0  0  0  0
  -22.1580   -9.0030   20.4250 C   0  0  0  0  0  3  0  0  0  0  0  0
  -22.8720  -10.2040   20.2800 C   0  0  0  0  0  3  0  0  0  0  0  0
  -21.7850   -6.9100   21.4620 O   0  0  0  0  0  0  0  0  0  0  0  0
  -21.6620   -6.1890   22.6220 C   0  0  0  0  0  0  0  0  0  0  0  0
  -21.0740   -6.7370   23.7830 C   0  0  0  0  0  3  0  0  0  0  0  0
  -20.9030   -5.9380   24.9300 C   0  0  0  0  0  3  0  0  0  0  0  0
  -21.3100   -4.5920   24.9190 C   0  0  0  0  0  0  0  0  0  0  0  0
  -21.8900   -4.0410   23.7620 C   0  0  0  0  0  3  0  0  0  0  0  0
  -22.0640   -4.8380   22.6160 C   0  0  0  0  0  0  0  0  0  0  0  0
  -22.6030   -4.2960   21.4990 F   0  0  0  0  0  0  0  0  0  0  0  0
  -21.1410   -3.8220   26.0190 F   0  0  0  0  0  0  0  0  0  0  0  0
  -22.7610  -13.5650   21.0950 C   0  0  0  0  0  0  0  0  0  0  0  0
  -21.9860  -12.8690   21.9190 N   0  0  0  0  0  0  0  0  0  0  0  0
  -22.3430  -14.5720   20.5260 O   0  0  0  0  0  0  0  0  0  0  0  0
  -22.3400  -12.0580   22.4040 H   0  0  0  0  0  0  0  0  0  0  0  0
  -21.0280  -13.1520   22.0670 H   0  0  0  0  0  0  0  0  0  0  0  0
  -25.4130  -15.2710   20.4460 N   0  0  0  0  0  0  0  0  0  0  0  0
  -24.6320  -15.9160   20.5050 H   0  0  0  0  0  0  0  0  0  0  0  0
  -26.2840  -15.7240   20.2020 H   0  0  0  0  0  0  0  0  0  0  0  0
  -32.1880  -21.5280   12.3360 C   0  0  0  0  0  2  0  0  0  0  0  0
  -34.2940  -20.9360   13.6240 C   0  0  0  0  0  2  0  0  0  0  0  0
  -31.3460  -20.8240   13.4140 C   0  0  0  0  0  2  0  0  0  0  0  0
  -33.4310  -20.2480   14.6970 C   0  0  0  0  0  2  0  0  0  0  0  0
  -33.6190  -20.9470   12.2320 C   0  0  0  0  0  3  0  0  0  0  0  0
  -32.0760  -20.7890   14.6780 N   0  0  0  0  0  0  0  0  0  0  0  0
  -33.6480  -19.6190   11.5810 N   0  0  0  0  0  4  0  0  0  0  0  0
  -33.1420  -18.9300   12.1060 H   0  0  0  0  0  0  0  0  0  0  0  0
  -34.5950  -19.3020   11.4760 H   0  0  0  0  0  0  0  0  0  0  0  0
  -33.2460  -19.6730   10.6610 H   0  0  0  0  0  0  0  0  0  0  0  0
  -29.9540  -23.3810   20.0370 C   0  0  0  0  0  2  0  0  0  0  0  0
  -28.9560  -23.9460   17.8110 C   0  0  0  0  0  2  0  0  0  0  0  0
  -29.6830  -24.8310   20.5160 C   0  0  0  0  0  2  0  0  0  0  0  0
  -28.7130  -25.3980   18.2450 C   0  0  0  0  0  2  0  0  0  0  0  0
  -30.2020  -23.3580   18.5130 C   0  0  0  0  0  3  0  0  0  0  0  0
  -28.5080  -25.5010   19.7650 C   0  0  0  0  0  3  0  0  0  0  0  0
  -28.4450  -26.8890   20.1250 O   0  0  0  0  0  0  0  0  0  0  0  0
  -24.5680  -31.9620   23.2230 C   0  0  0  0  0  0  0  0  0  0  0  0
  -27.2390  -27.5660   20.0980 C   0  0  0  0  0  0  0  0  0  0  0  0
  -23.3620  -30.5540   21.5850 C   0  0  0  0  0  3  0  0  0  0  0  0
  -24.8190  -29.0420   20.1380 C   0  0  0  0  0  0  0  0  0  0  0  0
  -25.8810  -30.9440   21.3660 C   0  0  0  0  0  2  0  0  0  0  0  0
  -25.9750  -29.5780   20.7170 C   0  0  0  0  0  0  0  0  0  0  0  0
  -27.1820  -28.8470   20.6940 C   0  0  0  0  0  3  0  0  0  0  0  0
  -26.0590  -27.0440   19.5150 C   0  0  0  0  0  3  0  0  0  0  0  0
  -24.8550  -27.7740   19.5370 C   0  0  0  0  0  3  0  0  0  0  0  0
  -23.5650  -29.8860   20.2000 C   0  0  0  0  0  2  0  0  0  0  0  0
  -24.6220  -31.1680   22.1160 N   0  0  0  0  0  0  0  0  0  0  0  0
  -23.4900  -32.2180   23.7760 O   0  0  0  0  0  0  0  0  0  0  0  0
  -22.7340  -29.5200   22.5460 C   0  0  0  0  0  0  0  0  0  0  0  0
  -21.4110  -29.3190   22.4280 N   0  0  0  0  0  0  0  0  0  0  0  0
  -23.4320  -28.9020   23.3540 O   0  0  0  0  0  0  0  0  0  0  0  0
  -20.9080  -29.8710   21.7470 H   0  0  0  0  0  0  0  0  0  0  0  0
  -18.0570  -28.0820   22.9520 C   0  0  0  0  0  0  0  0  0  0  0  0
  -20.6140  -28.3670   23.2010 C   0  0  0  0  0  3  0  0  0  0  0  0
  -20.7280  -26.9420   22.6140 C   0  0  0  0  0  2  0  0  0  0  0  0
  -19.6190  -26.6130   21.6090 C   0  0  0  0  0  2  0  0  0  0  0  0
  -18.2430  -26.7390   22.2660 C   0  0  0  0  0  2  0  0  0  0  0  0
  -19.1710  -28.8540   23.3770 C   0  0  0  0  0  0  0  0  0  0  0  0
  -18.9440  -30.1120   23.9760 C   0  0  0  0  0  3  0  0  0  0  0  0
  -17.6370  -30.5980   24.1570 C   0  0  0  0  0  3  0  0  0  0  0  0
  -16.5370  -29.8230   23.7490 C   0  0  0  0  0  3  0  0  0  0  0  0
  -16.7480  -28.5680   23.1530 C   0  0  0  0  0  3  0  0  0  0  0  0
  -25.8530  -32.6050   23.8320 C   0  0  0  0  0  3  0  0  0  0  0  0
  -26.3890  -31.8400   25.1060 C   0  0  1  0  0  0  0  0  0  0  0  0
  -25.3070  -31.5900   26.1810 C   0  0  0  0  0  1  0  0  0  0  0  0
  -26.9860  -30.4700   24.7080 C   0  0  0  0  0  1  0  0  0  0  0  0
  -27.5340  -32.6490   25.7580 C   0  0  0  0  0  1  0  0  0  0  0  0
  -25.5340  -34.0000   24.1610 N   0  0  0  0  0  0  0  0  0  0  0  0
  -25.8600  -35.0550   23.4010 C   0  0  0  0  0  0  0  0  0  0  0  0
  -26.5310  -34.9550   22.3690 O   0  0  0  0  0  0  0  0  0  0  0  0
  -24.9400  -34.1530   24.9620 H   0  0  0  0  0  0  0  0  0  0  0  0
  -24.1370  -36.8480   23.0170 C   0  0  0  0  0  1  0  0  0  0  0  0
  -25.3610  -36.4400   23.8540 C   0  0  0  0  0  3  0  0  0  0  0  0
  -27.4710  -37.3260   24.7460 C   0  0  0  0  0  1  0  0  0  0  0  0
  -26.3950  -37.4940   23.7720 N   0  0  0  0  0  0  0  0  0  0  0  0
  -25.9830  -38.4130   23.9120 H   0  0  0  0  0  0  0  0  0  0  0  0
  2  1  1  0
  3  1  2  0
  4  2  2  0
  5  3  1  0
  6  5  2  0
  6  4  1  0
  7  4  1  0
  8  5  1  0
  9 16  2  0
 10 15  1  0
 11 12  1  0
 11 10  1  0
 13 12  1  0
 13 26  1  0
 13 14  1  0
 15  9  1  0
 15 14  1  0
 17 21  1  0
 17 19  1  0
 18 20  1  0
 19 22  1  0
 21  3  1  0
 21 18  1  0
 22 20  1  0
 22  9  1  0
 23 24  2  0
 24 25  1  0
 24 43  1  0
 25 28  1  0
 26 23  1  0
 26 27  1  0
 27 25  2  0
 28 29  1  0
 29 30  2  0
 31 34  1  0
 31 30  1  0
 32 31  2  0
 33 32  1  0
 33 28  2  0
 34 35  1  0
 35 36  1  0
 36 37  2  0
 38 37  1  0
 38 42  1  0
 39 38  2  0
 40 35  2  0
 40 39  1  0
 41 40  1  0
 43 44  1  0
 44 47  1  0
 44 46  1  0
 45 43  2  0
 48 49  1  0
 48 23  1  0
 50 48  1  0
 51 53  1  0
 52 54  1  0
 53 56  1  0
 55 57  1  0
 55 51  1  0
 55 52  1  0
 56 54  1  0
 56  6  1  0
 57 58  1  0
 59 57  1  0
 60 57  1  0
 61 63  1  0
 62 64  1  0
 62 65  1  0
 64 66  1  0
 65  2  1  0
 65 61  1  0
 66 67  1  0
 66 63  1  0
 68 79  2  0
 69 67  1  0
 69 74  1  0
 70 78  1  0
 70 80  1  0
 71 77  1  0
 71 73  1  0
 72 78  1  0
 73 72  1  0
 74 73  2  0
 75 76  1  0
 75 69  2  0
 76 71  2  0
 77 70  1  0
 78 68  1  0
 80 82  2  0
 81 80  1  0
 83 81  1  0
 84 93  2  0
 84 89  1  0
 85 81  1  0
 85 89  1  0
 86 85  1  0
 87 88  1  0
 87 86  1  0
 88 84  1  0
 89 90  2  0
 90 91  1  0
 92 91  2  0
 93 92  1  0
 94 68  1  0
 94 99  1  0
 94 95  1  0
 95 98  1  1
 95 96  1  0
 97 95  1  0
 99102  1  0
100104  1  0
100 99  1  0
101100  2  0
104103  1  0
106104  1  0
106107  1  0
106105  1  0
M  ISO  4   9 100  22 100  66 101  67 101
M  END
>  <TORSDO>  (81) 
F 19

>  <SCORE>  (81) 
-14.390

>  <name>  (81) 
80

>  <ligand_id>  (81) 
80

>  <original_smiles>  (81) 
[H]c1c([H])c([H])c2c(c1[H])C([H])([H])C([H])([H])C([H])([H])C2([H])N([H])C(=O)C1([H])N(C(=O)C([H])(N([H])C(=O)C([H])(N([H])C([H])([H])[H])C([H])([H])[H])C(C([H])([H])[H])(C([H])([H])[H])C([H])([H])[H])C([H])([H])c2c([H])c(OC3([H])C([H])([H])C([H])([H])C([H])(c4c([H])c(C5([H])C([H])([H])C([H])([H])N(C(=O)N6C([H])([H])C([H])([H])C([H])([H])C([H])(n7nc(-c8c([H])c([H])c(Oc9c([H])c([H])c(F)c([H])c9F)c([H])c8[H])c(C(=O)N([H])[H])c7N([H])[H])C6([H])[H])C([H])([H])C5([H])[H])c(C([H])([H])[H])c(N5C([H])([H])C([H])([H])C([H])([N+]([H])([H])[H])C([H])([H])C5([H])[H])c4C([H])([H])[H])C([H])([H])C3([H])[H])c([H])c([H])c2C1([H])[H]

>  <smiles>  (81) 
[H]c1c([H])c([H])c2c(c1[H])C([H])([H])C([H])([H])C([H])([H])C2([H])N([H])C(=O)C1([H])N(C(=O)C([H])(N([H])C(=O)C([H])(N([H])C([H])([H])[H])C([H])([H])[H])C(C([H])([H])[H])(C([H])([H])[H])C([H])([H])[H])C([H])([H])c2c([H])c(OC3([H])C([H])([H])C([H])([H])C([H])(c4c([H])c(C5([H])C([H])([H])C([H])([H])N(C(=O)N6C([H])([H])C([H])([H])C([H])([H])C([H])(n7nc(-c8c([H])c([H])c(Oc9c([H])c([H])c(F)c([H])c9F)c([H])c8[H])c(C(=O)N([H])[H])c7N([H])[H])C6([H])[H])C([H])([H])C5([H])[H])c(C([H])([H])[H])c(N5C([H])([H])C([H])([H])C([H])([N+]([H])([H])[H])C([H])([H])C5([H])[H])c4C([H])([H])[H])C([H])([H])C3([H])[H])c([H])c([H])c2C1([H])[H]

$$$$
81:0:0
     RDKit          3D

 98107  0  0  1  0  0  0  0  0999 V2000
  -29.7530  -24.9960   22.9450 C   0  0  0  0  0  3  0  0  0  0  0  0
  -29.4010  -25.0800   21.5870 C   0  0  0  0  0  0  0  0  0  0  0  0
  -29.2420  -23.8560   20.8660 C   0  0  0  0  0  0  0  0  0  0  0  0
  -29.3400  -22.6130   21.5790 C   0  0  0  0  0  0  0  0  0  0  0  0
  -29.6640  -22.6790   22.9580 C   0  0  0  0  0  0  0  0  0  0  0  0
  -28.9520  -23.8740   19.3690 C   0  0  0  0  0  1  0  0  0  0  0  0
  -29.7610  -21.4430   23.8370 C   0  0  0  0  0  1  0  0  0  0  0  0
  -29.8950  -23.8360   23.6110 N   0  0  0  0  0  0  0  0  0  0  0  0
  -28.9650  -21.2460   20.9380 C   0  0  0  0  0  2  0  0  0  0  0  0
  -30.0700  -20.2640   20.7030 N   0  0  0  0  0  4  0  0  0  0  0  0
  -30.4920  -20.0350   21.5870 H   0  0  0  0  0  0  0  0  0  0  0  0
  -30.7800  -20.6970   20.1330 H   0  0  0  0  0  0  0  0  0  0  0  0
  -29.6480  -18.9810   20.0480 C   0  0  0  0  0  3  0  0  0  0  0  0
  -28.6690  -18.2050   17.7190 C   0  0  0  0  0  2  0  0  0  0  0  0
  -28.0450  -19.5500   18.0000 C   0  0  0  0  0  2  0  0  0  0  0  0
  -29.4140  -19.2210   18.5590 C   0  0  0  0  0  3  0  0  0  0  0  0
  -30.6780  -17.8140   20.2310 C   0  0  0  0  0  2  0  0  0  0  0  0
  -30.4970  -16.8690   21.4610 C   0  0  0  0  0  2  0  0  0  0  0  0
  -30.6950  -14.5040   20.5460 C   0  0  0  0  0  0  0  0  0  0  0  0
  -30.3860  -12.3620   19.3510 C   0  0  0  0  0  2  0  0  0  0  0  0
  -29.4530  -12.5740   18.1420 C   0  0  0  0  0  2  0  0  0  0  0  0
  -27.9760  -12.4370   18.5580 C   0  0  0  0  0  2  0  0  0  0  0  0
  -27.6320  -13.2700   19.8220 C   0  0  0  0  0  3  0  0  0  0  0  0
  -28.6760  -13.0360   20.9370 C   0  0  0  0  0  2  0  0  0  0  0  0
  -30.0070  -13.3390   20.3840 N   0  0  0  0  0  0  0  0  0  0  0  0
  -31.8160  -14.6920   20.0700 O   0  0  0  0  0  0  0  0  0  0  0  0
  -30.0220  -15.5010   21.1580 N   0  0  0  0  0  0  0  0  0  0  0  0
  -29.1050  -15.2530   21.5020 H   0  0  0  0  0  0  0  0  0  0  0  0
  -25.2270  -13.8920   20.4950 C   0  0  0  0  0  0  0  0  0  0  0  0
  -24.1510  -13.1280   20.8570 C   0  0  0  0  0  0  0  0  0  0  0  0
  -24.6070  -11.7740   20.8420 C   0  0  0  0  0  0  0  0  0  0  0  0
  -26.2720  -13.0050   20.2850 N   0  0  0  0  0  0  0  0  0  0  0  0
  -25.9000  -11.7270   20.5500 N   0  0  0  0  0  0  0  0  0  0  0  0
  -23.8720  -10.5160   21.0320 C   0  0  0  0  0  0  0  0  0  0  0  0
  -24.3030   -9.5420   21.9590 C   0  0  0  0  0  3  0  0  0  0  0  0
  -23.5690   -8.3500   22.1380 C   0  0  0  0  0  3  0  0  0  0  0  0
  -22.3900   -8.1220   21.3900 C   0  0  0  0  0  0  0  0  0  0  0  0
  -21.9780   -9.0860   20.4520 C   0  0  0  0  0  3  0  0  0  0  0  0
  -22.7120  -10.2700   20.2710 C   0  0  0  0  0  3  0  0  0  0  0  0
  -21.6270   -6.9830   21.4770 O   0  0  0  0  0  0  0  0  0  0  0  0
  -21.5960   -6.2250   22.6200 C   0  0  0  0  0  0  0  0  0  0  0  0
  -21.2140   -6.7700   23.8660 C   0  0  0  0  0  3  0  0  0  0  0  0
  -21.1280   -5.9400   25.0010 C   0  0  0  0  0  3  0  0  0  0  0  0
  -21.4130   -4.5660   24.8920 C   0  0  0  0  0  0  0  0  0  0  0  0
  -21.7880   -4.0200   23.6530 C   0  0  0  0  0  3  0  0  0  0  0  0
  -21.8760   -4.8470   22.5190 C   0  0  0  0  0  0  0  0  0  0  0  0
  -22.2180   -4.3120   21.3220 F   0  0  0  0  0  0  0  0  0  0  0  0
  -21.3230   -3.7660   25.9810 F   0  0  0  0  0  0  0  0  0  0  0  0
  -22.7530  -13.6140   21.1090 C   0  0  0  0  0  0  0  0  0  0  0  0
  -22.0130  -12.9290   21.9730 N   0  0  0  0  0  0  0  0  0  0  0  0
  -22.3260  -14.6370   20.5750 O   0  0  0  0  0  0  0  0  0  0  0  0
  -22.3700  -12.1010   22.4270 H   0  0  0  0  0  0  0  0  0  0  0  0
  -21.0740  -13.2370   22.1860 H   0  0  0  0  0  0  0  0  0  0  0  0
  -25.4010  -15.2610   20.3070 N   0  0  0  0  0  0  0  0  0  0  0  0
  -24.6320  -15.9170   20.3860 H   0  0  0  0  0  0  0  0  0  0  0  0
  -26.2530  -15.6890   19.9700 H   0  0  0  0  0  0  0  0  0  0  0  0
  -29.2640  -26.5020   21.0000 C   0  0  0  0  0  2  0  0  0  0  0  0
  -28.2830  -26.6240   19.9720 O   0  0  0  0  0  0  0  0  0  0  0  0
  -24.5510  -31.8830   23.2100 C   0  0  0  0  0  0  0  0  0  0  0  0
  -27.1610  -27.4140   20.1270 C   0  0  0  0  0  0  0  0  0  0  0  0
  -23.3240  -30.4700   21.5950 C   0  0  0  0  0  3  0  0  0  0  0  0
  -24.7620  -28.9170   20.1690 C   0  0  0  0  0  0  0  0  0  0  0  0
  -25.8470  -30.8230   21.3640 C   0  0  0  0  0  2  0  0  0  0  0  0
  -25.9290  -29.4440   20.7430 C   0  0  0  0  0  0  0  0  0  0  0  0
  -27.1340  -28.6990   20.7290 C   0  0  0  0  0  3  0  0  0  0  0  0
  -25.9810  -26.9110   19.5500 C   0  0  0  0  0  3  0  0  0  0  0  0
  -24.7800  -27.6430   19.5770 C   0  0  0  0  0  3  0  0  0  0  0  0
  -23.5180  -29.7760   20.2220 C   0  0  0  0  0  2  0  0  0  0  0  0
  -24.5920  -31.0740   22.1130 N   0  0  0  0  0  0  0  0  0  0  0  0
  -23.4770  -32.1610   23.7630 O   0  0  0  0  0  0  0  0  0  0  0  0
  -22.6840  -29.4550   22.5720 C   0  0  0  0  0  0  0  0  0  0  0  0
  -21.3610  -29.2670   22.4560 N   0  0  0  0  0  0  0  0  0  0  0  0
  -23.3770  -28.8400   23.3870 O   0  0  0  0  0  0  0  0  0  0  0  0
  -20.8620  -29.8100   21.7660 H   0  0  0  0  0  0  0  0  0  0  0  0
  -17.9980  -28.0490   22.9810 C   0  0  0  0  0  0  0  0  0  0  0  0
  -20.5550  -28.3330   23.2420 C   0  0  0  0  0  3  0  0  0  0  0  0
  -20.6670  -26.8940   22.6840 C   0  0  0  0  0  2  0  0  0  0  0  0
  -19.5640  -26.5490   21.6780 C   0  0  0  0  0  2  0  0  0  0  0  0
  -18.1830  -26.6920   22.3250 C   0  0  0  0  0  2  0  0  0  0  0  0
  -19.1120  -28.8260   23.3970 C   0  0  0  0  0  0  0  0  0  0  0  0
  -18.8850  -30.0960   23.9710 C   0  0  0  0  0  3  0  0  0  0  0  0
  -17.5780  -30.5910   24.1340 C   0  0  0  0  0  3  0  0  0  0  0  0
  -16.4780  -29.8120   23.7350 C   0  0  0  0  0  3  0  0  0  0  0  0
  -16.6880  -28.5430   23.1640 C   0  0  0  0  0  3  0  0  0  0  0  0
  -25.8460  -32.5180   23.8080 C   0  0  0  0  0  3  0  0  0  0  0  0
  -25.5410  -33.9160   24.1400 N   0  0  0  0  0  0  0  0  0  0  0  0
  -25.8640  -34.9670   23.3740 C   0  0  0  0  0  0  0  0  0  0  0  0
  -26.5240  -34.8630   22.3360 O   0  0  0  0  0  0  0  0  0  0  0  0
  -24.9560  -34.0700   24.9490 H   0  0  0  0  0  0  0  0  0  0  0  0
  -24.1320  -36.7560   23.0350 C   0  0  0  0  0  1  0  0  0  0  0  0
  -25.3810  -36.3540   23.8370 C   0  0  0  0  0  3  0  0  0  0  0  0
  -27.5260  -37.2360   24.6440 C   0  0  0  0  0  1  0  0  0  0  0  0
  -26.4140  -37.4070   23.7120 N   0  0  0  0  0  0  0  0  0  0  0  0
  -26.0110  -38.3280   23.8680 H   0  0  0  0  0  0  0  0  0  0  0  0
  -26.3880  -31.7490   25.0750 C   0  0  1  0  0  0  0  0  0  0  0  0
  -25.3160  -31.5110   26.1640 C   0  0  0  0  0  1  0  0  0  0  0  0
  -26.9690  -30.3730   24.6700 C   0  0  0  0  0  1  0  0  0  0  0  0
  -27.5510  -32.5470   25.7130 C   0  0  0  0  0  1  0  0  0  0  0  0
  1  8  1  0
  2  1  2  0
  3  4  2  0
  3  2  1  0
  4  5  1  0
  5  8  2  0
  5  7  1  0
  6  3  1  0
  9  4  1  0
 10  9  1  0
 10 11  1  0
 12 10  1  0
 13 17  1  0
 13 10  1  0
 14 15  1  0
 14 16  1  0
 15 16  1  0
 16 13  1  0
 17 18  1  0
 19 27  1  0
 20 25  1  0
 21 22  1  0
 21 20  1  0
 23 22  1  0
 23 32  1  0
 23 24  1  0
 25 19  1  0
 25 24  1  0
 26 19  2  0
 27 18  1  0
 27 28  1  0
 29 30  2  0
 30 49  1  0
 31 30  1  0
 31 34  1  0
 32 29  1  0
 32 33  1  0
 33 31  2  0
 34 35  1  0
 35 36  2  0
 37 40  1  0
 37 36  1  0
 38 37  2  0
 39 38  1  0
 39 34  2  0
 40 41  1  0
 41 42  1  0
 42 43  2  0
 44 43  1  0
 44 48  1  0
 45 44  2  0
 46 41  2  0
 46 45  1  0
 47 46  1  0
 49 50  1  0
 50 53  1  0
 50 52  1  0
 51 49  2  0
 54 55  1  0
 54 29  1  0
 56 54  1  0
 57  2  1  0
 58 60  1  0
 58 57  1  0
 59 70  2  0
 60 65  1  0
 61 69  1  0
 61 71  1  0
 62 68  1  0
 62 64  1  0
 63 69  1  0
 64 63  1  0
 65 64  2  0
 66 67  1  0
 66 60  2  0
 67 62  2  0
 68 61  1  0
 69 59  1  0
 71 73  2  0
 72 71  1  0
 74 72  1  0
 75 84  2  0
 75 80  1  0
 76 72  1  0
 76 80  1  0
 77 76  1  0
 78 79  1  0
 78 77  1  0
 79 75  1  0
 80 81  2  0
 81 82  1  0
 83 82  2  0
 84 83  1  0
 85 59  1  0
 85 86  1  0
 85 95  1  0
 86 89  1  0
 87 91  1  0
 87 86  1  0
 88 87  2  0
 91 90  1  0
 93 91  1  0
 93 94  1  0
 93 92  1  0
 95 98  1  1
 95 96  1  0
 97 95  1  0
M  ISO  4  19 100  27 100  57 101  58 101
M  END
>  <TORSDO>  (82) 
F 23

>  <SCORE>  (82) 
-13.059

>  <name>  (82) 
81

>  <ligand_id>  (82) 
81

>  <original_smiles>  (82) 
[H]c1nc(C([H])([H])[H])c(C([H])([H])[N+]([H])([H])C([H])(C([H])([H])C([H])([H])N([H])C(=O)N2C([H])([H])C([H])([H])C([H])([H])C([H])(n3nc(-c4c([H])c([H])c(Oc5c([H])c([H])c(F)c([H])c5F)c([H])c4[H])c(C(=O)N([H])[H])c3N([H])[H])C2([H])[H])C2([H])C([H])([H])C2([H])[H])c(C([H])([H])[H])c1C([H])([H])Oc1c([H])c([H])c2c(c1[H])C([H])([H])N(C(=O)C([H])(N([H])C(=O)C([H])(N([H])C([H])([H])[H])C([H])([H])[H])C(C([H])([H])[H])(C([H])([H])[H])C([H])([H])[H])C([H])(C(=O)N([H])C1([H])c3c([H])c([H])c([H])c([H])c3C([H])([H])C([H])([H])C1([H])[H])C2([H])[H]

>  <smiles>  (82) 
[H]c1nc(C([H])([H])[H])c(C([H])([H])[N+]([H])([H])C([H])(C([H])([H])C([H])([H])N([H])C(=O)N2C([H])([H])C([H])([H])C([H])([H])C([H])(n3nc(-c4c([H])c([H])c(Oc5c([H])c([H])c(F)c([H])c5F)c([H])c4[H])c(C(=O)N([H])[H])c3N([H])[H])C2([H])[H])C2([H])C([H])([H])C2([H])[H])c(C([H])([H])[H])c1C([H])([H])Oc1c([H])c([H])c2c(c1[H])C([H])([H])N(C(=O)C([H])(N([H])C(=O)C([H])(N([H])C([H])([H])[H])C([H])([H])[H])C(C([H])([H])[H])(C([H])([H])[H])C([H])([H])[H])C([H])(C(=O)N([H])C1([H])c3c([H])c([H])c([H])c([H])c3C([H])([H])C([H])([H])C1([H])[H])C2([H])[H]

$$$$
82:0:0
     RDKit          3D

 95104  0  0  1  0  0  0  0  0999 V2000
  -30.2650  -22.7790   19.6920 C   0  0  0  0  0  3  0  0  0  0  0  0
  -30.3430  -22.9380   22.1130 C   0  0  0  0  0  3  0  0  0  0  0  0
  -30.1480  -23.5560   20.8590 C   0  0  0  0  0  0  0  0  0  0  0  0
  -30.6540  -21.4270   19.7640 C   0  0  0  0  0  0  0  0  0  0  0  0
  -30.7180  -21.5770   22.1980 C   0  0  0  0  0  0  0  0  0  0  0  0
  -30.8950  -20.8120   21.0190 C   0  0  0  0  0  0  0  0  0  0  0  0
  -30.8600  -20.6770   18.4680 C   0  0  0  0  0  1  0  0  0  0  0  0
  -30.9950  -20.9680   23.5600 C   0  0  0  0  0  1  0  0  0  0  0  0
  -31.1020  -25.7160   19.9890 C   0  0  0  0  0  1  0  0  0  0  0  0
  -29.9300  -25.0670   20.7520 C   0  0  0  0  0  3  0  0  0  0  0  0
  -28.5640  -25.4540   20.1390 C   0  0  0  0  0  2  0  0  0  0  0  0
  -28.5170  -26.8770   20.0480 O   0  0  0  0  0  0  0  0  0  0  0  0
  -24.5490  -31.8650   23.1230 C   0  0  0  0  0  0  0  0  0  0  0  0
  -27.2980  -27.5140   20.0330 C   0  0  0  0  0  0  0  0  0  0  0  0
  -23.3750  -30.4450   21.4680 C   0  0  0  0  0  3  0  0  0  0  0  0
  -24.8630  -28.9430   20.0420 C   0  0  0  0  0  0  0  0  0  0  0  0
  -25.8870  -30.8680   21.2720 C   0  0  0  0  0  2  0  0  0  0  0  0
  -26.0030  -29.5020   20.6310 C   0  0  0  0  0  0  0  0  0  0  0  0
  -27.2220  -28.7940   20.6210 C   0  0  0  0  0  3  0  0  0  0  0  0
  -26.1410  -26.9570   19.4430 C   0  0  0  0  0  3  0  0  0  0  0  0
  -24.9260  -27.6700   19.4460 C   0  0  0  0  0  3  0  0  0  0  0  0
  -23.5990  -29.7720   20.0870 C   0  0  0  0  0  2  0  0  0  0  0  0
  -24.6210  -31.0740   22.0140 N   0  0  0  0  0  0  0  0  0  0  0  0
  -23.4630  -32.1110   23.6640 O   0  0  0  0  0  0  0  0  0  0  0  0
  -22.7450  -29.4080   22.4240 C   0  0  0  0  0  0  0  0  0  0  0  0
  -21.4250  -29.1980   22.2920 N   0  0  0  0  0  0  0  0  0  0  0  0
  -23.4400  -28.7920   23.2370 O   0  0  0  0  0  0  0  0  0  0  0  0
  -20.9260  -29.7490   21.6080 H   0  0  0  0  0  0  0  0  0  0  0  0
  -18.0770  -27.9230   22.7550 C   0  0  0  0  0  0  0  0  0  0  0  0
  -20.6250  -28.2410   23.0540 C   0  0  0  0  0  3  0  0  0  0  0  0
  -20.7690  -26.8140   22.4780 C   0  0  0  0  0  2  0  0  0  0  0  0
  -19.6850  -26.4660   21.4520 C   0  0  0  0  0  2  0  0  0  0  0  0
  -18.2930  -26.5780   22.0810 C   0  0  0  0  0  2  0  0  0  0  0  0
  -19.1730  -28.7100   23.1960 C   0  0  0  0  0  0  0  0  0  0  0  0
  -18.9200  -29.9690   23.7850 C   0  0  0  0  0  3  0  0  0  0  0  0
  -17.6020  -30.4400   23.9370 C   0  0  0  0  0  3  0  0  0  0  0  0
  -16.5200  -29.6490   23.5120 C   0  0  0  0  0  3  0  0  0  0  0  0
  -16.7580  -28.3930   22.9260 C   0  0  0  0  0  3  0  0  0  0  0  0
  -25.8230  -32.5170   23.7490 C   0  0  0  0  0  3  0  0  0  0  0  0
  -26.3730  -31.7310   25.0010 C   0  0  1  0  0  0  0  0  0  0  0  0
  -25.3000  -31.4350   26.0730 C   0  0  0  0  0  1  0  0  0  0  0  0
  -26.9920  -30.3810   24.5660 C   0  0  0  0  0  1  0  0  0  0  0  0
  -27.5070  -32.5410   25.6730 C   0  0  0  0  0  1  0  0  0  0  0  0
  -25.4790  -33.8980   24.1120 N   0  0  0  0  0  0  0  0  0  0  0  0
  -25.8140  -34.9780   23.3950 C   0  0  0  0  0  0  0  0  0  0  0  0
  -26.5160  -34.9180   22.3800 O   0  0  0  0  0  0  0  0  0  0  0  0
  -24.8620  -34.0180   24.9010 H   0  0  0  0  0  0  0  0  0  0  0  0
  -24.0850  -36.7620   23.0150 C   0  0  0  0  0  1  0  0  0  0  0  0
  -25.2870  -36.3420   23.8760 C   0  0  0  0  0  3  0  0  0  0  0  0
  -27.3610  -37.2190   24.8530 C   0  0  0  0  0  1  0  0  0  0  0  0
  -26.3100  -37.4100   23.8580 N   0  0  0  0  0  0  0  0  0  0  0  0
  -25.8840  -38.3200   24.0180 H   0  0  0  0  0  0  0  0  0  0  0  0
  -31.4510  -19.5520   21.0800 O   0  0  0  0  0  0  0  0  0  0  0  0
  -30.5750  -18.4290   21.2260 C   0  0  0  0  0  2  0  0  0  0  0  0
  -31.0960  -14.7380   20.6860 C   0  0  0  0  0  0  0  0  0  0  0  0
  -30.7310  -12.5370   19.6750 C   0  0  0  0  0  2  0  0  0  0  0  0
  -29.8680  -12.6520   18.4050 C   0  0  0  0  0  2  0  0  0  0  0  0
  -28.3630  -12.6230   18.7570 C   0  0  0  0  0  2  0  0  0  0  0  0
  -27.9650  -13.4970   19.9830 C   0  0  0  0  0  3  0  0  0  0  0  0
  -28.9840  -13.3950   21.1390 C   0  0  0  0  0  2  0  0  0  0  0  0
  -30.3250  -13.6180   20.5830 N   0  0  0  0  0  0  0  0  0  0  0  0
  -32.3230  -14.6680   20.6330 O   0  0  0  0  0  0  0  0  0  0  0  0
  -30.6860  -17.1540   18.3960 C   0  0  0  0  0  2  0  0  0  0  0  0
  -31.8860  -17.4420   19.2800 C   0  0  0  0  0  2  0  0  0  0  0  0
  -29.8060  -16.2310   19.2470 C   0  0  0  0  0  2  0  0  0  0  0  0
  -31.3410  -17.1840   20.6910 C   0  0  0  0  0  3  0  0  0  0  0  0
  -30.5050  -15.9630   20.5200 N   0  0  0  0  0  0  0  0  0  0  0  0
  -25.5520  -14.1320   20.5740 C   0  0  0  0  0  0  0  0  0  0  0  0
  -24.4570  -13.3720   20.8850 C   0  0  0  0  0  0  0  0  0  0  0  0
  -24.9090  -12.0170   20.8950 C   0  0  0  0  0  0  0  0  0  0  0  0
  -26.5980  -13.2370   20.4130 N   0  0  0  0  0  0  0  0  0  0  0  0
  -26.2150  -11.9620   20.6710 N   0  0  0  0  0  0  0  0  0  0  0  0
  -24.1640  -10.7630   21.0470 C   0  0  0  0  0  0  0  0  0  0  0  0
  -24.5500   -9.7840   21.9880 C   0  0  0  0  0  3  0  0  0  0  0  0
  -23.8030   -8.5950   22.1310 C   0  0  0  0  0  3  0  0  0  0  0  0
  -22.6570   -8.3770   21.3300 C   0  0  0  0  0  0  0  0  0  0  0  0
  -22.2920   -9.3440   20.3780 C   0  0  0  0  0  3  0  0  0  0  0  0
  -23.0400  -10.5240   20.2320 C   0  0  0  0  0  3  0  0  0  0  0  0
  -21.8890   -7.2390   21.3810 O   0  0  0  0  0  0  0  0  0  0  0  0
  -21.8010   -6.4820   22.5220 C   0  0  0  0  0  0  0  0  0  0  0  0
  -21.3340   -7.0220   23.7400 C   0  0  0  0  0  3  0  0  0  0  0  0
  -21.1930   -6.1920   24.8710 C   0  0  0  0  0  3  0  0  0  0  0  0
  -21.5090   -4.8230   24.7840 C   0  0  0  0  0  0  0  0  0  0  0  0
  -21.9700   -4.2830   23.5700 C   0  0  0  0  0  3  0  0  0  0  0  0
  -22.1130   -5.1100   22.4420 C   0  0  0  0  0  0  0  0  0  0  0  0
  -22.5370   -4.5800   21.2690 F   0  0  0  0  0  0  0  0  0  0  0  0
  -21.3660   -4.0220   25.8650 F   0  0  0  0  0  0  0  0  0  0  0  0
  -23.0520  -13.8650   21.0670 C   0  0  0  0  0  0  0  0  0  0  0  0
  -22.2680  -13.1880   21.9010 N   0  0  0  0  0  0  0  0  0  0  0  0
  -22.6550  -14.8870   20.5090 O   0  0  0  0  0  0  0  0  0  0  0  0
  -22.6000  -12.3640   22.3770 H   0  0  0  0  0  0  0  0  0  0  0  0
  -21.3240  -13.5060   22.0680 H   0  0  0  0  0  0  0  0  0  0  0  0
  -25.7370  -15.5000   20.3950 N   0  0  0  0  0  0  0  0  0  0  0  0
  -24.9760  -16.1650   20.4710 H   0  0  0  0  0  0  0  0  0  0  0  0
  -26.6190  -15.9320   20.1510 H   0  0  0  0  0  0  0  0  0  0  0  0
  1  4  2  0
  1  3  1  0
  2  5  1  0
  3  2  2  0
  4  6  1  0
  5  8  1  0
  6 53  1  0
  6  5  2  0
  7  4  1  0
 10  9  1  0
 10  3  1  0
 11 10  1  0
 12 11  1  0
 13 24  2  0
 14 12  1  0
 14 19  1  0
 15 23  1  0
 15 25  1  0
 16 22  1  0
 16 18  1  0
 17 23  1  0
 18 17  1  0
 19 18  2  0
 20 21  1  0
 20 14  2  0
 21 16  2  0
 22 15  1  0
 23 13  1  0
 25 27  2  0
 26 25  1  0
 28 26  1  0
 29 38  2  0
 29 34  1  0
 30 26  1  0
 30 34  1  0
 31 30  1  0
 32 33  1  0
 32 31  1  0
 33 29  1  0
 34 35  2  0
 35 36  1  0
 37 36  2  0
 38 37  1  0
 39 13  1  0
 39 44  1  0
 39 40  1  0
 40 43  1  1
 40 41  1  0
 42 40  1  0
 44 47  1  0
 45 49  1  0
 45 44  1  0
 46 45  2  0
 49 48  1  0
 51 49  1  0
 51 52  1  0
 51 50  1  0
 53 54  1  0
 56 61  1  0
 57 58  1  0
 57 56  1  0
 59 58  1  0
 59 71  1  0
 59 60  1  0
 61 55  1  0
 61 60  1  0
 62 55  2  0
 63 65  1  0
 63 64  1  0
 64 66  1  0
 65 67  1  0
 66 54  1  0
 67 55  1  0
 67 66  1  0
 68 69  2  0
 69 70  1  0
 69 88  1  0
 70 73  1  0
 71 68  1  0
 71 72  1  0
 72 70  2  0
 73 74  1  0
 74 75  2  0
 76 79  1  0
 76 75  1  0
 77 76  2  0
 78 77  1  0
 78 73  2  0
 79 80  1  0
 80 81  1  0
 81 82  2  0
 83 82  1  0
 83 87  1  0
 84 83  2  0
 85 80  2  0
 85 84  1  0
 86 85  1  0
 88 89  1  0
 89 92  1  0
 89 91  1  0
 90 88  2  0
 93 94  1  0
 93 68  1  0
 95 93  1  0
M  ISO  4  11 101  12 101  55 100  67 100
M  END
>  <TORSDO>  (83) 
F 20

>  <SCORE>  (83) 
-14.118

>  <name>  (83) 
82

>  <ligand_id>  (83) 
82

>  <original_smiles>  (83) 
[H]c1c([H])c([H])c2c(c1[H])C([H])([H])C([H])([H])C([H])([H])C2([H])N([H])C(=O)C1([H])N(C(=O)C([H])(N([H])C(=O)C([H])(N([H])C([H])([H])[H])C([H])([H])[H])C(C([H])([H])[H])(C([H])([H])[H])C([H])([H])[H])C([H])([H])c2c([H])c(OC([H])([H])C([H])(c3c([H])c(C([H])([H])[H])c(OC([H])([H])C4([H])N(C(=O)N5C([H])([H])C([H])([H])C([H])([H])C([H])(n6nc(-c7c([H])c([H])c(Oc8c([H])c([H])c(F)c([H])c8F)c([H])c7[H])c(C(=O)N([H])[H])c6N([H])[H])C5([H])[H])C([H])([H])C([H])([H])C4([H])[H])c(C([H])([H])[H])c3[H])C([H])([H])[H])c([H])c([H])c2C1([H])[H]

>  <smiles>  (83) 
[H]c1c([H])c([H])c2c(c1[H])C([H])([H])C([H])([H])C([H])([H])C2([H])N([H])C(=O)C1([H])N(C(=O)C([H])(N([H])C(=O)C([H])(N([H])C([H])([H])[H])C([H])([H])[H])C(C([H])([H])[H])(C([H])([H])[H])C([H])([H])[H])C([H])([H])c2c([H])c(OC([H])([H])C([H])(c3c([H])c(C([H])([H])[H])c(OC([H])([H])C4([H])N(C(=O)N5C([H])([H])C([H])([H])C([H])([H])C([H])(n6nc(-c7c([H])c([H])c(Oc8c([H])c([H])c(F)c([H])c8F)c([H])c7[H])c(C(=O)N([H])[H])c6N([H])[H])C5([H])[H])C([H])([H])C([H])([H])C4([H])[H])c(C([H])([H])[H])c3[H])C([H])([H])[H])c([H])c([H])c2C1([H])[H]

$$$$
83:0:0
     RDKit          3D

 94 94  0  0  1  0  0  0  0  0999 V2000
  -19.4320  -27.6240   19.0570 C   0  0  0  0  0  3  0  0  0  0  0  0
  -18.0220  -26.8140   18.4810 C   0  0  0  0  0  3  0  0  0  0  0  0
  -18.4070  -24.2520   20.1380 C   0  0  0  0  0  3  0  0  0  0  0  0
  -20.5180  -26.8260   20.1400 C   0  0  0  0  0  1  0  0  0  0  0  0
  -17.5360  -25.2300   19.0100 C   0  0  0  0  0  0  0  0  0  0  0  0
  -19.9690  -24.6110   20.7260 C   0  0  0  0  0  1  0  0  0  0  0  0
  -16.2880  -24.6450   18.3870 C   0  0  0  0  0  1  0  0  0  0  0  0
  -23.6630  -27.2930   18.9690 C   0  0  0  0  0  3  0  0  0  0  0  0
  -23.8410  -26.2190   20.5480 C   0  0  0  0  0  3  0  0  0  0  0  0
  -25.0380  -26.8740   19.8990 C   0  0  0  0  0  3  0  0  0  0  0  0
  -22.5130  -27.2680   20.0780 C   0  0  0  0  0  3  0  0  0  0  0  0
  -23.2730  -28.1860   21.4230 Cl  0  0  0  0  0  0  0  0  0  0  0  0
  -26.1180  -27.4620   20.9810 O   0  0  0  0  0  0  0  0  0  0  0  0
  -27.9720  -31.9950   25.5610 C   0  0  0  0  0  0  0  0  0  0  0  0
  -26.7750  -28.6230   20.6860 C   0  0  0  0  0  3  0  0  0  0  0  0
  -25.7550  -31.4610   24.6790 C   0  0  0  0  0  3  0  0  0  0  0  0
  -25.7910  -30.7430   22.1270 C   0  0  0  0  0  0  0  0  0  0  0  0
  -27.8870  -31.3190   23.1990 C   0  0  0  0  0  2  0  0  0  0  0  0
  -27.1300  -30.4120   22.2820 C   0  0  0  0  0  0  0  0  0  0  0  0
  -27.6520  -29.2750   21.6000 C   0  0  0  0  0  3  0  0  0  0  0  0
  -25.7850  -29.3710   20.1170 C   0  0  0  0  0  2  0  0  0  0  0  0
  -25.1780  -30.3100   20.9570 C   0  0  0  0  0  3  0  0  0  0  0  0
  -25.0530  -31.4660   23.2600 C   0  0  0  0  0  2  0  0  0  0  0  0
  -27.2310  -31.6290   24.4930 N   0  0  0  0  0  0  0  0  0  0  0  0
  -27.4470  -32.2830   26.6450 O   0  0  0  0  0  0  0  0  0  0  0  0
  -25.5190  -30.2540   25.6850 C   0  0  0  0  0  0  0  0  0  0  0  0
  -24.7810  -29.1820   25.4090 N   0  0  0  0  0  0  0  0  0  0  0  0
  -26.2570  -30.1110   26.6580 O   0  0  0  0  0  0  0  0  0  0  0  0
  -24.1700  -29.1970   24.6080 H   0  0  0  0  0  0  0  0  0  0  0  0
  -24.5110  -25.9880   24.1590 C   0  0  0  0  0  3  0  0  0  0  0  0
  -24.9160  -27.8260   26.1400 C   0  0  0  0  0  2  0  0  0  0  0  0
  -26.7860  -27.2270   26.6880 C   0  0  0  0  0 15  0  0  0  0  0  0
  -28.3690  -26.2320   25.0460 C   0  0  0  0  0  1  0  0  0  0  0  0
  -27.3350  -25.3790   23.6290 C   0  0  0  0  0  1  0  0  0  0  0  0
  -23.9220  -27.0930   25.0190 C   0  0  0  0  0  0  0  0  0  0  0  0
  -22.5750  -27.7390   24.8080 C   0  0  0  0  0  3  0  0  0  0  0  0
  -21.5750  -27.4260   23.8470 C   0  0  0  0  0  3  0  0  0  0  0  0
  -21.9140  -26.3220   23.0800 C   0  0  0  0  0  3  0  0  0  0  0  0
  -23.2260  -25.6960   23.2700 C   0  0  0  0  0  3  0  0  0  0  0  0
  -29.5160  -32.0960   25.4550 C   0  0  0  0  0  3  0  0  0  0  0  0
  -30.2640  -30.8120   25.9790 C   0  0  1  0  0  0  0  0  0  0  0  0
  -29.7910  -30.3420   27.3740 C   0  0  0  0  0  1  0  0  0  0  0  0
  -30.1000  -29.6100   25.0170 C   0  0  0  0  0  1  0  0  0  0  0  0
  -31.7800  -31.1070   26.0460 C   0  0  0  0  0  1  0  0  0  0  0  0
  -29.8910  -33.2850   26.2210 N   0  0  0  0  0  0  0  0  0  0  0  0
  -30.1180  -34.4870   25.6820 C   0  0  0  0  0  0  0  0  0  0  0  0
  -30.1330  -34.6870   24.4640 O   0  0  0  0  0  0  0  0  0  0  0  0
  -29.8410  -33.2100   27.2280 H   0  0  0  0  0  0  0  0  0  0  0  0
  -29.1210  -36.5200   26.7740 C   0  0  0  0  0  1  0  0  0  0  0  0
  -30.3820  -35.6510   26.6540 C   0  0  0  0  0  3  0  0  0  0  0  0
  -32.8180  -35.7900   26.3890 C   0  0  0  0  0  1  0  0  0  0  0  0
  -31.5380  -36.4840   26.2630 N   0  0  0  0  0  0  0  0  0  0  0  0
  -31.5800  -37.3300   26.8280 H   0  0  0  0  0  0  0  0  0  0  0  0
  -21.4050  -23.0970   20.6270 O   0  0  0  0  0 15  0  0  0  0  0  0
  -23.4210  -21.9220   20.1100 C   0  0  0  0  0 15  0  0  0  0  0  0
  -25.2560  -20.0320   19.5370 C   0  0  0  0  0 15  0  0  0  0  0  0
  -28.5880  -17.2450   19.4120 C   0  0  0  0  0  2  0  0  0  0  0  0
  -30.3030  -14.7470   18.7770 C   0  0  0  0  0  2  0  0  0  0  0  0
  -29.9840  -13.4320   17.8750 C   0  0  0  0  0  2  0  0  0  0  0  0
  -28.8200  -12.6170   18.4350 C   0  0  0  0  0  2  0  0  0  0  0  0
  -27.9790  -13.6600   19.1560 C   0  0  0  0  0  3  0  0  0  0  0  0
  -28.6740  -14.5160   20.2240 C   0  0  0  0  0  2  0  0  0  0  0  0
  -29.0770  -15.6820   19.4340 N   0  0  0  0  0  0  0  0  0  0  0  0
  -29.8440  -17.4410   19.0590 O   0  0  0  0  0  1  0  0  0  0  0  0
  -27.0330  -18.4430   19.6220 N   0  0  0  0  0  1  0  0  0  0  0  0
  -27.7030  -19.2030   19.6350 H   0  0  0  0  0  0  0  0  0  0  0  0
  -25.8390  -14.1790   20.1810 C   0  0  0  0  0  0  0  0  0  0  0  0
  -24.8520  -13.4020   20.6770 C   0  0  0  0  0  0  0  0  0  0  0  0
  -25.2820  -12.0520   20.4880 C   0  0  0  0  0  0  0  0  0  0  0  0
  -26.7670  -13.2810   19.7160 N   0  0  0  0  0  0  0  0  0  0  0  0
  -26.4970  -11.9920   19.9730 N   0  0  0  0  0  0  0  0  0  0  0  0
  -24.5690  -10.8060   20.6910 C   0  0  0  0  0  0  0  0  0  0  0  0
  -24.9330   -9.9060   21.7140 C   0  0  0  0  0  3  0  0  0  0  0  0
  -24.2040   -8.7140   21.8910 C   0  0  0  0  0  3  0  0  0  0  0  0
  -23.1080   -8.4260   21.0430 C   0  0  0  0  0  0  0  0  0  0  0  0
  -22.7760   -9.3160   20.0080 C   0  0  0  0  0  3  0  0  0  0  0  0
  -23.5040  -10.4980   19.8290 C   0  0  0  0  0  3  0  0  0  0  0  0
  -22.3510   -7.2870   21.1280 O   0  0  0  0  0  0  0  0  0  0  0  0
  -21.9280   -6.8020   22.3360 C   0  0  0  0  0  0  0  0  0  0  0  0
  -21.1240   -7.5670   23.2100 C   0  0  0  0  0  3  0  0  0  0  0  0
  -20.6540   -6.9990   24.4100 C   0  0  0  0  0  3  0  0  0  0  0  0
  -20.9810   -5.6680   24.7330 C   0  0  0  0  0  0  0  0  0  0  0  0
  -21.7790   -4.9050   23.8630 C   0  0  0  0  0  3  0  0  0  0  0  0
  -22.2500   -5.4720   22.6660 C   0  0  0  0  0  0  0  0  0  0  0  0
  -23.0030   -4.7290   21.8190 F   0  0  0  0  0  0  0  0  0  0  0  0
  -20.5220   -5.1170   25.8810 F   0  0  0  0  0  0  0  0  0  0  0  0
  -23.5420  -13.9070   21.1780 C   0  0  0  0  0  0  0  0  0  0  0  0
  -22.9440  -13.1960   22.1210 N   0  0  0  0  0  0  0  0  0  0  0  0
  -23.0760  -14.9700   20.7690 O   0  0  0  0  0  0  0  0  0  0  0  0
  -23.3510  -12.3380   22.4640 H   0  0  0  0  0  0  0  0  0  0  0  0
  -22.0660  -13.5090   22.5120 H   0  0  0  0  0  0  0  0  0  0  0  0
  -26.0150  -15.5600   20.0700 N   0  0  0  0  0  0  0  0  0  0  0  0
  -25.2780  -16.2020   20.3480 H   0  0  0  0  0  0  0  0  0  0  0  0
  -26.7270  -16.0050   19.5100 H   0  0  0  0  0  0  0  0  0  0  0  0
  1  4  1  0
  2  5  1  0
  2  1  2  0
  3  6  1  0
  5  3  2  0
  7  5  1  0
  8 10  1  0
  8 11  1  0
  8  9  1  0
 10  9  1  0
 10 13  1  0
 11  9  1  0
 11 12  1  0
 14 25  2  0
 15 13  1  0
 15 20  1  0
 16 26  1  0
 17 19  1  0
 17 23  1  0
 18 24  1  0
 19 18  1  0
 20 19  2  0
 21 15  1  0
 21 22  1  0
 22 17  2  0
 23 16  1  0
 24 16  1  0
 24 14  1  0
 26 28  2  0
 27 26  1  0
 27 31  1  0
 29 27  1  0
 30 35  1  0
 34 33  1  0
 35 31  1  0
 36 35  2  0
 37 36  1  0
 38 39  1  0
 38 37  2  0
 39 30  2  0
 40 14  1  0
 40 41  1  0
 40 45  1  0
 41 44  1  1
 41 42  1  0
 43 41  1  0
 45 48  1  0
 46 45  1  0
 46 50  1  0
 47 46  2  0
 50 49  1  0
 52 51  1  0
 52 50  1  0
 52 53  1  0
 57 63  1  0
 58 63  1  0
 59 60  1  0
 59 58  1  0
 60 61  1  0
 61 70  1  0
 61 62  1  0
 63 62  1  0
 64 57  1  0
 65 66  1  0
 67 68  2  0
 68 87  1  0
 69 68  1  0
 69 72  1  0
 70 71  1  0
 70 67  1  0
 71 69  2  0
 72 73  1  0
 73 74  2  0
 75 78  1  0
 75 74  1  0
 76 75  2  0
 77 76  1  0
 77 72  2  0
 78 79  1  0
 79 84  2  0
 79 80  1  0
 80 81  2  0
 81 82  1  0
 82 86  1  0
 83 82  2  0
 84 83  1  0
 85 84  1  0
 87 88  1  0
 88 90  1  0
 88 91  1  0
 89 87  2  0
 92 67  1  0
 92 93  1  0
 94 92  1  0
M  ISO  4  10 101  13 101  57 100  65 100
M  END
>  <TORSDO>  (84) 
F 20

>  <SCORE>  (84) 
-6.607

>  <name>  (84) 
83

>  <ligand_id>  (84) 
83

>  <original_smiles>  (84) 
[H]c1c([H])c([H])c2c(c1[H])C([H])([H])C([H])([H])C([H])([H])C2([H])N([H])C(=O)C1([H])N(C(=O)C([H])(N([H])C(=O)C([H])(N([H])C([H])([H])[H])C([H])([H])[H])C(C([H])([H])[H])(C([H])([H])[H])C([H])([H])[H])C([H])([H])c2c([H])c(OC3([H])C([H])([H])C(Cl)(c4c([H])c([H])c(C([H])([H])[H])c([H])c4OC([H])([H])C([H])([H])N([H])C(=O)N4C([H])([H])C([H])([H])C([H])([H])C([H])(n5nc(-c6c([H])c([H])c(Oc7c([H])c([H])c(F)c([H])c7F)c([H])c6[H])c(C(=O)N([H])[H])c5N([H])[H])C4([H])[H])C3([H])[H])c([H])c([H])c2C1([H])[H]

>  <smiles>  (84) 
[H]c1c([H])c([H])c2c(c1[H])C([H])([H])C([H])([H])C([H])([H])C2([H])N([H])C(=O)C1([H])N(C(=O)C([H])(N([H])C(=O)C([H])(N([H])C([H])([H])[H])C([H])([H])[H])C(C([H])([H])[H])(C([H])([H])[H])C([H])([H])[H])C([H])([H])c2c([H])c(OC3([H])C([H])([H])C(Cl)(c4c([H])c([H])c(C([H])([H])[H])c([H])c4OC([H])([H])C([H])([H])N([H])C(=O)N4C([H])([H])C([H])([H])C([H])([H])C([H])(n5nc(-c6c([H])c([H])c(Oc7c([H])c([H])c(F)c([H])c7F)c([H])c6[H])c(C(=O)N([H])[H])c5N([H])[H])C4([H])[H])C3([H])[H])c([H])c([H])c2C1([H])[H]

$$$$
84:0:0
     RDKit          3D

 97107  0  0  1  0  0  0  0  0999 V2000
  -31.1100  -20.0230   20.4020 C   0  0  0  0  0  3  0  0  0  0  0  0
  -31.2660  -18.6130   20.4610 C   0  0  0  0  0  0  0  0  0  0  0  0
  -30.0900  -17.8070   20.3710 C   0  0  0  0  0  0  0  0  0  0  0  0
  -28.8860  -18.5050   20.0320 C   0  0  0  0  0  0  0  0  0  0  0  0
  -29.8550  -20.6190   20.2020 C   0  0  0  0  0  0  0  0  0  0  0  0
  -27.5710  -17.7880   19.8000 C   0  0  0  0  0  1  0  0  0  0  0  0
  -28.7750  -19.8620   19.9490 N   0  0  0  0  0  0  0  0  0  0  0  0
  -29.7330  -22.0130   20.3980 N   0  0  0  0  0  0  0  0  0  0  0  0
  -30.5890  -22.4300   20.7440 H   0  0  0  0  0  0  0  0  0  0  0  0
  -29.7650  -24.2190   19.3460 C   0  0  0  0  0  2  0  0  0  0  0  0
  -27.6610  -23.4940   20.4900 C   0  0  0  0  0  2  0  0  0  0  0  0
  -29.0060  -25.3990   18.7010 C   0  0  0  0  0  2  0  0  0  0  0  0
  -26.9110  -24.7050   19.8340 C   0  0  0  0  0  2  0  0  0  0  0  0
  -28.8860  -22.9860   19.6780 C   0  0  0  0  0  3  0  0  0  0  0  0
  -27.8380  -25.9230   19.5600 C   0  0  0  0  0  3  0  0  0  0  0  0
  -27.3150  -27.0530   18.8150 O   0  0  0  0  0  0  0  0  0  0  0  0
  -24.6610  -31.8640   23.4510 C   0  0  0  0  0  0  0  0  0  0  0  0
  -26.2490  -27.8120   19.2690 C   0  0  0  0  0  0  0  0  0  0  0  0
  -23.0590  -30.9020   21.8330 C   0  0  0  0  0  3  0  0  0  0  0  0
  -24.0800  -29.5160   19.9470 C   0  0  0  0  0  0  0  0  0  0  0  0
  -25.5480  -31.0560   21.2620 C   0  0  0  0  0  2  0  0  0  0  0  0
  -25.3710  -29.8140   20.4040 C   0  0  0  0  0  0  0  0  0  0  0  0
  -26.4580  -28.9720   20.0570 C   0  0  0  0  0  3  0  0  0  0  0  0
  -24.9430  -27.5390   18.8120 C   0  0  0  0  0  3  0  0  0  0  0  0
  -23.8620  -28.3780   19.1500 C   0  0  0  0  0  3  0  0  0  0  0  0
  -22.9710  -30.4660   20.3450 C   0  0  0  0  0  2  0  0  0  0  0  0
  -24.4520  -31.2780   22.2380 N   0  0  0  0  0  0  0  0  0  0  0  0
  -23.7170  -32.1280   24.2090 O   0  0  0  0  0  0  0  0  0  0  0  0
  -22.4460  -29.7850   22.7100 C   0  0  0  0  0  0  0  0  0  0  0  0
  -21.1200  -29.5990   22.6050 N   0  0  0  0  0  0  0  0  0  0  0  0
  -23.1600  -29.0920   23.4390 O   0  0  0  0  0  0  0  0  0  0  0  0
  -20.6040  -30.2140   21.9910 H   0  0  0  0  0  0  0  0  0  0  0  0
  -17.8190  -28.1590   22.9030 C   0  0  0  0  0  0  0  0  0  0  0  0
  -20.3380  -28.5790   23.3030 C   0  0  0  0  0  3  0  0  0  0  0  0
  -20.5640  -27.1820   22.6800 C   0  0  0  0  0  2  0  0  0  0  0  0
  -19.5330  -26.8270   21.6040 C   0  0  0  0  0  2  0  0  0  0  0  0
  -18.1180  -26.8520   22.1880 C   0  0  0  0  0  2  0  0  0  0  0  0
  -18.8620  -28.9770   23.4140 C   0  0  0  0  0  0  0  0  0  0  0  0
  -18.5310  -30.1980   24.0390 C   0  0  0  0  0  3  0  0  0  0  0  0
  -17.1890  -30.6040   24.1640 C   0  0  0  0  0  3  0  0  0  0  0  0
  -16.1590  -29.7830   23.6720 C   0  0  0  0  0  3  0  0  0  0  0  0
  -16.4740  -28.5620   23.0470 C   0  0  0  0  0  3  0  0  0  0  0  0
  -26.0930  -32.2520   23.9370 C   0  0  0  0  0  3  0  0  0  0  0  0
  -26.6760  -31.2570   25.0130 C   0  0  1  0  0  0  0  0  0  0  0  0
  -25.6940  -30.9450   26.1660 C   0  0  0  0  0  1  0  0  0  0  0  0
  -27.0760  -29.9150   24.3570 C   0  0  0  0  0  1  0  0  0  0  0  0
  -27.9660  -31.8480   25.6280 C   0  0  0  0  0  1  0  0  0  0  0  0
  -26.0230  -33.6170   24.4750 N   0  0  0  0  0  0  0  0  0  0  0  0
  -26.4370  -34.7140   23.8270 C   0  0  0  0  0  0  0  0  0  0  0  0
  -26.9900  -34.6700   22.7240 O   0  0  0  0  0  0  0  0  0  0  0  0
  -25.5320  -33.7330   25.3500 H   0  0  0  0  0  0  0  0  0  0  0  0
  -24.9880  -36.7670   23.8680 C   0  0  0  0  0  1  0  0  0  0  0  0
  -26.2000  -36.0740   24.5100 C   0  0  0  0  0  3  0  0  0  0  0  0
  -28.4950  -36.5060   25.2670 C   0  0  0  0  0  1  0  0  0  0  0  0
  -27.3720  -36.9740   24.4570 N   0  0  0  0  0  0  0  0  0  0  0  0
  -27.1230  -37.9070   24.7720 H   0  0  0  0  0  0  0  0  0  0  0  0
  -33.7970  -18.9380   21.1200 C   0  0  0  0  0  2  0  0  0  0  0  0
  -33.8150  -18.2930   19.7520 C   0  0  0  0  0  2  0  0  0  0  0  0
  -32.6530  -18.0470   20.6910 C   0  0  0  0  0  3  0  0  0  0  0  0
  -30.4310  -16.1540   22.3280 C   0  0  0  0  0  1  0  0  0  0  0  0
  -30.0520  -16.2960   20.8320 C   0  0  0  0  0  3  0  0  0  0  0  0
  -30.7240  -15.1740   19.9490 C   0  0  0  0  0  0  0  0  0  0  0  0
  -30.5580  -12.9290   18.8680 C   0  0  0  0  0  2  0  0  0  0  0  0
  -29.4980  -12.9520   17.7450 C   0  0  0  0  0  2  0  0  0  0  0  0
  -28.0830  -12.6990   18.3040 C   0  0  0  0  0  2  0  0  0  0  0  0
  -27.7740  -13.5760   19.5460 C   0  0  0  0  0  3  0  0  0  0  0  0
  -28.9310  -13.4910   20.5630 C   0  0  0  0  0  2  0  0  0  0  0  0
  -30.1650  -13.9240   19.8840 N   0  0  0  0  0  0  0  0  0  0  0  0
  -31.7270  -15.4490   19.2820 O   0  0  0  0  0  0  0  0  0  0  0  0
  -25.4810  -14.0600   20.6100 C   0  0  0  0  0  0  0  0  0  0  0  0
  -24.4690  -13.2360   21.0210 C   0  0  0  0  0  0  0  0  0  0  0  0
  -24.9250  -11.9050   20.7790 C   0  0  0  0  0  0  0  0  0  0  0  0
  -26.4900  -13.2280   20.1520 N   0  0  0  0  0  0  0  0  0  0  0  0
  -26.1660  -11.9200   20.3080 N   0  0  0  0  0  0  0  0  0  0  0  0
  -24.2290  -10.6190   20.9110 C   0  0  0  0  0  0  0  0  0  0  0  0
  -24.6110   -9.6700   21.8840 C   0  0  0  0  0  3  0  0  0  0  0  0
  -23.9150   -8.4480   22.0050 C   0  0  0  0  0  3  0  0  0  0  0  0
  -22.8240   -8.1670   21.1490 C   0  0  0  0  0  0  0  0  0  0  0  0
  -22.4620   -9.1060   20.1670 C   0  0  0  0  0  3  0  0  0  0  0  0
  -23.1590  -10.3190   20.0450 C   0  0  0  0  0  3  0  0  0  0  0  0
  -22.1040   -6.9960   21.1750 O   0  0  0  0  0  0  0  0  0  0  0  0
  -21.7420   -6.4010   22.3570 C   0  0  0  0  0  0  0  0  0  0  0  0
  -20.9310   -7.0620   23.3060 C   0  0  0  0  0  3  0  0  0  0  0  0
  -20.5250   -6.3880   24.4750 C   0  0  0  0  0  3  0  0  0  0  0  0
  -20.9210   -5.0550   24.6920 C   0  0  0  0  0  0  0  0  0  0  0  0
  -21.7250   -4.3950   23.7480 C   0  0  0  0  0  3  0  0  0  0  0  0
  -22.1330   -5.0650   22.5810 C   0  0  0  0  0  0  0  0  0  0  0  0
  -22.8900   -4.4180   21.6630 F   0  0  0  0  0  0  0  0  0  0  0  0
  -20.5250   -4.4040   25.8120 F   0  0  0  0  0  0  0  0  0  0  0  0
  -23.1160  -13.6590   21.5160 C   0  0  0  0  0  0  0  0  0  0  0  0
  -22.5140  -12.8740   22.4020 N   0  0  0  0  0  0  0  0  0  0  0  0
  -22.6060  -14.7190   21.1540 O   0  0  0  0  0  0  0  0  0  0  0  0
  -22.9410  -12.0160   22.7160 H   0  0  0  0  0  0  0  0  0  0  0  0
  -21.6110  -13.1370   22.7730 H   0  0  0  0  0  0  0  0  0  0  0  0
  -25.6120  -15.4430   20.5660 N   0  0  0  0  0  0  0  0  0  0  0  0
  -24.8460  -16.0580   20.8220 H   0  0  0  0  0  0  0  0  0  0  0  0
  -26.3800  -15.9280   20.1260 H   0  0  0  0  0  0  0  0  0  0  0  0
  1  2  1  0
  2 59  1  0
  3  2  2  0
  3 61  1  0
  4  3  1  0
  5  8  1  0
  5  1  2  0
  6  4  1  0
  7  4  2  0
  7  5  1  0
  8  9  1  0
 10 14  1  0
 12 10  1  0
 12 15  1  0
 13 11  1  0
 14  8  1  0
 14 11  1  0
 15 16  1  0
 15 13  1  0
 16 18  1  0
 17 28  2  0
 18 23  1  0
 19 27  1  0
 19 29  1  0
 20 26  1  0
 20 22  1  0
 21 27  1  0
 22 21  1  0
 23 22  2  0
 24 25  1  0
 24 18  2  0
 25 20  2  0
 26 19  1  0
 27 17  1  0
 29 31  2  0
 30 29  1  0
 32 30  1  0
 33 42  2  0
 33 38  1  0
 34 30  1  0
 34 38  1  0
 35 34  1  0
 36 37  1  0
 36 35  1  0
 37 33  1  0
 38 39  2  0
 39 40  1  0
 41 40  2  0
 42 41  1  0
 43 17  1  0
 43 48  1  0
 43 44  1  0
 44 47  1  1
 44 45  1  0
 46 44  1  0
 48 51  1  0
 49 48  1  0
 49 53  1  0
 50 49  2  0
 53 52  1  0
 55 53  1  0
 55 56  1  0
 55 54  1  0
 58 59  1  0
 58 57  1  0
 59 57  1  0
 61 60  1  0
 62 61  1  0
 63 68  1  0
 64 65  1  0
 64 63  1  0
 66 65  1  0
 66 73  1  0
 66 67  1  0
 68 62  1  0
 68 67  1  0
 69 62  2  0
 70 71  2  0
 71 90  1  0
 72 75  1  0
 72 71  1  0
 73 74  1  0
 73 70  1  0
 74 72  2  0
 75 76  1  0
 76 77  2  0
 78 81  1  0
 78 77  1  0
 79 78  2  0
 80 79  1  0
 80 75  2  0
 81 82  1  0
 82 87  2  0
 82 83  1  0
 83 84  2  0
 84 85  1  0
 85 89  1  0
 86 85  2  0
 87 86  1  0
 88 87  1  0
 90 91  1  0
 91 93  1  0
 91 94  1  0
 92 90  2  0
 95 70  1  0
 95 96  1  0
 97 95  1  0
M  ISO  4  15 101  16 101  61 100  62 100
M  END
>  <TORSDO>  (85) 
F 19

>  <SCORE>  (85) 
-12.194

>  <name>  (85) 
84

>  <ligand_id>  (85) 
84

>  <original_smiles>  (85) 
[H]c1c([H])c([H])c2c(c1[H])C([H])([H])C([H])([H])C([H])([H])C2([H])N([H])C(=O)C1([H])N(C(=O)C([H])(N([H])C(=O)C([H])(N([H])C([H])([H])[H])C([H])([H])[H])C(C([H])([H])[H])(C([H])([H])[H])C([H])([H])[H])C([H])([H])c2c([H])c(OC3([H])C([H])([H])C([H])([H])C([H])(N([H])c4nc(C([H])([H])[H])c(C([H])(C(=O)N5C([H])([H])C([H])([H])C([H])([H])C([H])(n6nc(-c7c([H])c([H])c(Oc8c([H])c([H])c(F)c([H])c8F)c([H])c7[H])c(C(=O)N([H])[H])c6N([H])[H])C5([H])[H])C([H])([H])[H])c(C5([H])C([H])([H])C5([H])[H])c4[H])C([H])([H])C3([H])[H])c([H])c([H])c2C1([H])[H]

>  <smiles>  (85) 
[H]c1c([H])c([H])c2c(c1[H])C([H])([H])C([H])([H])C([H])([H])C2([H])N([H])C(=O)C1([H])N(C(=O)C([H])(N([H])C(=O)C([H])(N([H])C([H])([H])[H])C([H])([H])[H])C(C([H])([H])[H])(C([H])([H])[H])C([H])([H])[H])C([H])([H])c2c([H])c(OC3([H])C([H])([H])C([H])([H])C([H])(N([H])c4nc(C([H])([H])[H])c(C([H])(C(=O)N5C([H])([H])C([H])([H])C([H])([H])C([H])(n6nc(-c7c([H])c([H])c(Oc8c([H])c([H])c(F)c([H])c8F)c([H])c7[H])c(C(=O)N([H])[H])c6N([H])[H])C5([H])[H])C([H])([H])[H])c(C5([H])C([H])([H])C5([H])[H])c4[H])C([H])([H])C3([H])[H])c([H])c([H])c2C1([H])[H]

$$$$
85:0:0
     RDKit          3D

 99108  0  0  1  0  0  0  0  0999 V2000
  -28.2790  -24.4850   21.3080 C   0  0  0  0  0  3  0  0  0  0  0  0
  -30.9340  -23.6770   21.6370 C   0  0  0  0  0  3  0  0  0  0  0  0
  -28.5570  -23.2000   21.8240 C   0  0  0  0  0  0  0  0  0  0  0  0
  -30.6560  -24.9640   21.1260 C   0  0  0  0  0  0  0  0  0  0  0  0
  -29.3120  -25.3800   20.9560 C   0  0  0  0  0  0  0  0  0  0  0  0
  -29.9030  -22.7800   21.9990 C   0  0  0  0  0  0  0  0  0  0  0  0
  -27.3870  -22.3140   22.2180 C   0  0  0  0  0  1  0  0  0  0  0  0
  -31.8200  -25.8820   20.7860 C   0  0  0  0  0  1  0  0  0  0  0  0
  -30.6210  -21.6900   24.1560 C   0  0  0  0  0  1  0  0  0  0  0  0
  -30.2410  -21.4350   22.6810 C   0  0  0  0  0  3  0  0  0  0  0  0
  -31.3450  -20.6200   21.9530 C   0  0  0  0  0  0  0  0  0  0  0  0
  -31.7480  -17.3390   20.6910 C   0  0  0  0  0  2  0  0  0  0  0  0
  -32.0570  -18.8200   20.4010 C   0  0  0  0  0  2  0  0  0  0  0  0
  -29.6980  -19.4050   20.4620 C   0  0  0  0  0  2  0  0  0  0  0  0
  -29.2840  -17.9390   20.7470 C   0  0  0  0  0  3  0  0  0  0  0  0
  -30.3460  -16.9710   20.1690 C   0  0  0  0  0  3  0  0  0  0  0  0
  -27.8820  -17.6540   20.1890 C   0  0  0  0  0  1  0  0  0  0  0  0
  -31.0320  -19.6810   21.0190 N   0  0  0  0  0  0  0  0  0  0  0  0
  -32.5200  -20.8280   22.2780 O   0  0  0  0  0  0  0  0  0  0  0  0
  -30.6330  -14.5240   19.8190 C   0  0  0  0  0  0  0  0  0  0  0  0
  -30.3360  -12.2440   18.9400 C   0  0  0  0  0  2  0  0  0  0  0  0
  -29.3160  -12.2630   17.7830 C   0  0  0  0  0  2  0  0  0  0  0  0
  -27.8820  -12.1130   18.3270 C   0  0  0  0  0  2  0  0  0  0  0  0
  -27.5790  -13.0880   19.4960 C   0  0  0  0  0  3  0  0  0  0  0  0
  -28.7100  -13.0570   20.5510 C   0  0  0  0  0  2  0  0  0  0  0  0
  -29.9880  -13.3290   19.8690 N   0  0  0  0  0  0  0  0  0  0  0  0
  -31.6700  -14.6990   19.1730 O   0  0  0  0  0  0  0  0  0  0  0  0
  -30.0150  -15.5580   20.4130 N   0  0  0  0  0  0  0  0  0  0  0  0
  -29.1740  -15.3520   20.9310 H   0  0  0  0  0  0  0  0  0  0  0  0
  -25.2580  -13.6930   20.4370 C   0  0  0  0  0  0  0  0  0  0  0  0
  -24.2240  -12.9200   20.8900 C   0  0  0  0  0  0  0  0  0  0  0  0
  -24.6700  -11.5670   20.7880 C   0  0  0  0  0  0  0  0  0  0  0  0
  -26.2720  -12.8130   20.0920 N   0  0  0  0  0  0  0  0  0  0  0  0
  -25.9250  -11.5260   20.3590 N   0  0  0  0  0  0  0  0  0  0  0  0
  -23.9550  -10.3060   21.0180 C   0  0  0  0  0  0  0  0  0  0  0  0
  -24.4030   -9.3670   21.9740 C   0  0  0  0  0  3  0  0  0  0  0  0
  -23.6880   -8.1700   22.1920 C   0  0  0  0  0  3  0  0  0  0  0  0
  -22.5100   -7.9020   21.4530 C   0  0  0  0  0  0  0  0  0  0  0  0
  -22.0820   -8.8280   20.4860 C   0  0  0  0  0  3  0  0  0  0  0  0
  -22.7980  -10.0170   20.2680 C   0  0  0  0  0  3  0  0  0  0  0  0
  -21.7660   -6.7540   21.5790 O   0  0  0  0  0  0  0  0  0  0  0  0
  -21.6570   -6.0950   22.7770 C   0  0  0  0  0  0  0  0  0  0  0  0
  -21.1470   -6.7250   23.9320 C   0  0  0  0  0  3  0  0  0  0  0  0
  -20.9870   -5.9910   25.1230 C   0  0  0  0  0  3  0  0  0  0  0  0
  -21.3270   -4.6250   25.1600 C   0  0  0  0  0  0  0  0  0  0  0  0
  -21.8310   -3.9940   24.0090 C   0  0  0  0  0  3  0  0  0  0  0  0
  -21.9920   -4.7260   22.8210 C   0  0  0  0  0  0  0  0  0  0  0  0
  -22.4580   -4.1070   21.7090 F   0  0  0  0  0  0  0  0  0  0  0  0
  -21.1670   -3.9170   26.3020 F   0  0  0  0  0  0  0  0  0  0  0  0
  -22.8620  -13.4000   21.3030 C   0  0  0  0  0  0  0  0  0  0  0  0
  -22.2260  -12.7040   22.2380 N   0  0  0  0  0  0  0  0  0  0  0  0
  -22.3750  -14.4250   20.8310 O   0  0  0  0  0  0  0  0  0  0  0  0
  -22.6350  -11.8740   22.6410 H   0  0  0  0  0  0  0  0  0  0  0  0
  -21.3160  -13.0070   22.5570 H   0  0  0  0  0  0  0  0  0  0  0  0
  -25.4120  -15.0660   20.2700 N   0  0  0  0  0  0  0  0  0  0  0  0
  -24.6590  -15.7190   20.4630 H   0  0  0  0  0  0  0  0  0  0  0  0
  -26.2230  -15.5080   19.8610 H   0  0  0  0  0  0  0  0  0  0  0  0
  -28.9520  -26.7870   20.4720 C   0  0  0  0  0  2  0  0  0  0  0  0
  -27.9240  -26.7730   19.4800 O   0  0  0  0  0  0  0  0  0  0  0  0
  -24.5080  -31.8990   23.1190 C   0  0  0  0  0  0  0  0  0  0  0  0
  -26.8110  -27.5580   19.6730 C   0  0  0  0  0  0  0  0  0  0  0  0
  -23.1420  -30.5820   21.5320 C   0  0  0  0  0  3  0  0  0  0  0  0
  -24.4450  -29.0780   19.9370 C   0  0  0  0  0  0  0  0  0  0  0  0
  -25.6440  -30.9180   21.1320 C   0  0  0  0  0  2  0  0  0  0  0  0
  -25.6530  -29.5690   20.4470 C   0  0  0  0  0  0  0  0  0  0  0  0
  -26.8400  -28.8180   20.3170 C   0  0  0  0  0  3  0  0  0  0  0  0
  -25.5900  -27.0830   19.1550 C   0  0  0  0  0  3  0  0  0  0  0  0
  -24.4050  -27.8310   19.2890 C   0  0  0  0  0  3  0  0  0  0  0  0
  -23.2220  -29.9500   20.1160 C   0  0  0  0  0  2  0  0  0  0  0  0
  -24.4540  -31.1450   21.9860 N   0  0  0  0  0  0  0  0  0  0  0  0
  -23.4820  -32.1680   23.7590 O   0  0  0  0  0  0  0  0  0  0  0  0
  -22.5540  -29.5360   22.5050 C   0  0  0  0  0  0  0  0  0  0  0  0
  -21.2340  -29.3140   22.4190 N   0  0  0  0  0  0  0  0  0  0  0  0
  -23.2810  -28.9280   23.2950 O   0  0  0  0  0  0  0  0  0  0  0  0
  -20.7070  -29.8590   21.7500 H   0  0  0  0  0  0  0  0  0  0  0  0
  -17.9380  -27.9190   22.9080 C   0  0  0  0  0  0  0  0  0  0  0  0
  -20.4690  -28.3490   23.2060 C   0  0  0  0  0  3  0  0  0  0  0  0
  -20.6730  -26.9110   22.6740 C   0  0  0  0  0  2  0  0  0  0  0  0
  -19.6080  -26.4900   21.6560 C   0  0  0  0  0  2  0  0  0  0  0  0
  -18.2100  -26.5650   22.2770 C   0  0  0  0  0  2  0  0  0  0  0  0
  -18.9990  -28.7630   23.3300 C   0  0  0  0  0  0  0  0  0  0  0  0
  -18.6900  -30.0270   23.8790 C   0  0  0  0  0  3  0  0  0  0  0  0
  -17.3530  -30.4490   24.0110 C   0  0  0  0  0  3  0  0  0  0  0  0
  -16.3080  -29.6020   23.6060 C   0  0  0  0  0  3  0  0  0  0  0  0
  -16.6000  -28.3410   23.0590 C   0  0  0  0  0  3  0  0  0  0  0  0
  -25.8550  -32.4820   23.6520 C   0  0  0  0  0  3  0  0  0  0  0  0
  -26.4710  -31.6420   24.8370 C   0  0  1  0  0  0  0  0  0  0  0  0
  -25.4740  -31.3720   25.9880 C   0  0  0  0  0  1  0  0  0  0  0  0
  -26.9880  -30.2770   24.3270 C   0  0  0  0  0  1  0  0  0  0  0  0
  -27.6910  -32.3870   25.4280 C   0  0  0  0  0  1  0  0  0  0  0  0
  -25.6030  -33.8660   24.0700 N   0  0  0  0  0  0  0  0  0  0  0  0
  -25.9190  -34.9480   23.3450 C   0  0  0  0  0  0  0  0  0  0  0  0
  -26.5250  -34.8820   22.2710 O   0  0  0  0  0  0  0  0  0  0  0  0
  -25.0560  -33.9920   24.9090 H   0  0  0  0  0  0  0  0  0  0  0  0
  -24.2200  -36.7930   23.1790 C   0  0  0  0  0  1  0  0  0  0  0  0
  -25.4940  -36.3210   23.8980 C   0  0  0  0  0  3  0  0  0  0  0  0
  -27.6960  -37.1110   24.6440 C   0  0  0  0  0  1  0  0  0  0  0  0
  -26.5460  -37.3550   23.7770 N   0  0  0  0  0  0  0  0  0  0  0  0
  -26.1730  -38.2750   23.9970 H   0  0  0  0  0  0  0  0  0  0  0  0
  1  3  1  0
  2  6  1  0
  3  6  2  0
  3  7  1  0
  4  2  2  0
  5  4  1  0
  5  1  2  0
  6 10  1  0
  8  4  1  0
 10  9  1  0
 11 19  2  0
 11 10  1  0
 13 12  1  0
 13 18  1  0
 14 15  1  0
 14 18  1  0
 15 17  1  0
 16 28  1  0
 16 12  1  0
 16 15  1  0
 18 11  1  0
 20 26  1  0
 20 28  1  0
 21 26  1  0
 22 23  1  0
 22 21  1  0
 24 23  1  0
 24 33  1  0
 24 25  1  0
 26 25  1  0
 27 20  2  0
 28 29  1  0
 30 31  2  0
 31 50  1  0
 32 31  1  0
 32 35  1  0
 33 34  1  0
 33 30  1  0
 34 32  2  0
 35 36  1  0
 36 37  2  0
 38 41  1  0
 38 37  1  0
 39 38  2  0
 40 39  1  0
 40 35  2  0
 41 42  1  0
 42 47  2  0
 42 43  1  0
 43 44  2  0
 44 45  1  0
 45 49  1  0
 46 45  2  0
 47 46  1  0
 48 47  1  0
 50 51  1  0
 51 54  1  0
 51 53  1  0
 52 50  2  0
 55 30  1  0
 55 56  1  0
 57 55  1  0
 58  5  1  0
 59 61  1  0
 59 58  1  0
 60 71  2  0
 61 66  1  0
 62 70  1  0
 62 72  1  0
 63 69  1  0
 63 65  1  0
 64 70  1  0
 65 64  1  0
 66 65  2  0
 67 68  1  0
 67 61  2  0
 68 63  2  0
 69 62  1  0
 70 60  1  0
 72 74  2  0
 73 72  1  0
 75 73  1  0
 76 85  2  0
 76 81  1  0
 77 73  1  0
 77 81  1  0
 78 77  1  0
 79 80  1  0
 79 78  1  0
 80 76  1  0
 81 82  2  0
 82 83  1  0
 84 83  2  0
 85 84  1  0
 86 60  1  0
 86 91  1  0
 86 87  1  0
 87 90  1  1
 87 88  1  0
 89 87  1  0
 91 94  1  0
 92 96  1  0
 92 91  1  0
 93 92  2  0
 96 95  1  0
 98 96  1  0
 98 99  1  0
 98 97  1  0
M  ISO  4  20 100  28 100  58 101  59 101
M  END
>  <TORSDO>  (86) 
F 19

>  <SCORE>  (86) 
-13.897

>  <name>  (86) 
85

>  <ligand_id>  (86) 
85

>  <original_smiles>  (86) 
[H]c1c([H])c([H])c2c(c1[H])C([H])([H])C([H])([H])C([H])([H])C2([H])N([H])C(=O)C1([H])N(C(=O)C([H])(N([H])C(=O)C([H])(N([H])C([H])([H])[H])C([H])([H])[H])C(C([H])([H])[H])(C([H])([H])[H])C([H])([H])[H])C([H])([H])c2c([H])c(OC([H])([H])c3c([H])c(C([H])([H])[H])c(C([H])(C(=O)N4C([H])([H])C([H])([H])C([H])(N([H])C(=O)N5C([H])([H])C([H])([H])C([H])([H])C([H])(n6nc(-c7c([H])c([H])c(Oc8c([H])c([H])c(F)c([H])c8F)c([H])c7[H])c(C(=O)N([H])[H])c6N([H])[H])C5([H])[H])C([H])(C([H])([H])[H])C4([H])[H])C([H])([H])[H])c([H])c3C([H])([H])[H])c([H])c([H])c2C1([H])[H]

>  <smiles>  (86) 
[H]c1c([H])c([H])c2c(c1[H])C([H])([H])C([H])([H])C([H])([H])C2([H])N([H])C(=O)C1([H])N(C(=O)C([H])(N([H])C(=O)C([H])(N([H])C([H])([H])[H])C([H])([H])[H])C(C([H])([H])[H])(C([H])([H])[H])C([H])([H])[H])C([H])([H])c2c([H])c(OC([H])([H])c3c([H])c(C([H])([H])[H])c(C([H])(C(=O)N4C([H])([H])C([H])([H])C([H])(N([H])C(=O)N5C([H])([H])C([H])([H])C([H])([H])C([H])(n6nc(-c7c([H])c([H])c(Oc8c([H])c([H])c(F)c([H])c8F)c([H])c7[H])c(C(=O)N([H])[H])c6N([H])[H])C5([H])[H])C([H])(C([H])([H])[H])C4([H])[H])C([H])([H])[H])c([H])c3C([H])([H])[H])c([H])c([H])c2C1([H])[H]

$$$$
86:0:0
     RDKit          3D

 95104  0  0  1  0  0  0  0  0999 V2000
  -28.6760  -20.5560   22.4090 C   0  0  0  0  0  1  0  0  0  0  0  0
  -28.7060  -20.7470   20.8720 C   0  0  0  0  0  3  0  0  0  0  0  0
  -28.4420  -22.8700   19.2230 C   0  0  0  0  0  2  0  0  0  0  0  0
  -29.0820  -23.2800   21.6090 C   0  0  0  0  0  2  0  0  0  0  0  0
  -28.6040  -24.4050   18.9550 C   0  0  0  0  0  2  0  0  0  0  0  0
  -29.3410  -24.7740   21.2550 C   0  0  0  0  0  2  0  0  0  0  0  0
  -29.2010  -22.2330   20.4440 C   0  0  0  0  0  3  0  0  0  0  0  0
  -28.3560  -25.2950   20.1910 C   0  0  0  0  0  3  0  0  0  0  0  0
  -28.5000  -26.7370   19.9510 O   0  0  0  0  0  0  0  0  0  0  0  0
  -24.6310  -31.8260   23.1960 C   0  0  0  0  0  0  0  0  0  0  0  0
  -27.3440  -27.5170   19.9370 C   0  0  0  0  0  0  0  0  0  0  0  0
  -23.4510  -30.4720   21.4990 C   0  0  0  0  0  3  0  0  0  0  0  0
  -24.9310  -29.0280   19.9980 C   0  0  0  0  0  0  0  0  0  0  0  0
  -25.9740  -30.8780   21.3140 C   0  0  0  0  0  2  0  0  0  0  0  0
  -26.0850  -29.5360   20.6070 C   0  0  0  0  0  0  0  0  0  0  0  0
  -27.2970  -28.7930   20.5640 C   0  0  0  0  0  3  0  0  0  0  0  0
  -26.1690  -27.0490   19.3050 C   0  0  0  0  0  3  0  0  0  0  0  0
  -24.9720  -27.7880   19.3390 C   0  0  0  0  0  3  0  0  0  0  0  0
  -23.6690  -29.8610   20.0890 C   0  0  0  0  0  2  0  0  0  0  0  0
  -24.7030  -31.0740   22.0600 N   0  0  0  0  0  0  0  0  0  0  0  0
  -23.5450  -32.0520   23.7500 O   0  0  0  0  0  0  0  0  0  0  0  0
  -22.8240  -29.3960   22.4170 C   0  0  0  0  0  0  0  0  0  0  0  0
  -21.5100  -29.1680   22.2640 N   0  0  0  0  0  0  0  0  0  0  0  0
  -23.5200  -28.7720   23.2230 O   0  0  0  0  0  0  0  0  0  0  0  0
  -21.0090  -29.7250   21.5870 H   0  0  0  0  0  0  0  0  0  0  0  0
  -18.1790  -27.8230   22.6680 C   0  0  0  0  0  0  0  0  0  0  0  0
  -20.7190  -28.1730   22.9900 C   0  0  0  0  0  3  0  0  0  0  0  0
  -20.8870  -26.7680   22.3680 C   0  0  0  0  0  2  0  0  0  0  0  0
  -19.8130  -26.4350   21.3260 C   0  0  0  0  0  2  0  0  0  0  0  0
  -18.4170  -26.5060   21.9510 C   0  0  0  0  0  2  0  0  0  0  0  0
  -19.2580  -28.6140   23.1400 C   0  0  0  0  0  0  0  0  0  0  0  0
  -18.9820  -29.8470   23.7690 C   0  0  0  0  0  3  0  0  0  0  0  0
  -17.6550  -30.2900   23.9320 C   0  0  0  0  0  3  0  0  0  0  0  0
  -16.5880  -29.4950   23.4780 C   0  0  0  0  0  3  0  0  0  0  0  0
  -16.8500  -28.2650   22.8500 C   0  0  0  0  0  3  0  0  0  0  0  0
  -25.9040  -32.4590   23.8410 C   0  0  0  0  0  3  0  0  0  0  0  0
  -26.4070  -31.6780   25.1170 C   0  0  1  0  0  0  0  0  0  0  0  0
  -25.2980  -31.4110   26.1620 C   0  0  0  0  0  1  0  0  0  0  0  0
  -27.0180  -30.3140   24.7190 C   0  0  0  0  0  1  0  0  0  0  0  0
  -27.5350  -32.4800   25.8090 C   0  0  0  0  0  1  0  0  0  0  0  0
  -25.5830  -33.8520   24.1780 N   0  0  0  0  0  0  0  0  0  0  0  0
  -25.9020  -34.9120   23.4230 C   0  0  0  0  0  0  0  0  0  0  0  0
  -26.5680  -34.8210   22.3890 O   0  0  0  0  0  0  0  0  0  0  0  0
  -24.9900  -33.9950   24.9840 H   0  0  0  0  0  0  0  0  0  0  0  0
  -24.1500  -36.6860   23.0880 C   0  0  0  0  0  1  0  0  0  0  0  0
  -25.4010  -36.2930   23.8910 C   0  0  0  0  0  3  0  0  0  0  0  0
  -27.5240  -37.2090   24.7190 C   0  0  0  0  0  1  0  0  0  0  0  0
  -26.4190  -37.3590   23.7740 N   0  0  0  0  0  0  0  0  0  0  0  0
  -26.0020  -38.2750   23.9150 H   0  0  0  0  0  0  0  0  0  0  0  0
  -29.8160  -18.3170   20.9160 C   0  0  0  0  0  3  0  0  0  0  0  0
  -30.1530  -17.1370   18.8450 C   0  0  0  0  0  3  0  0  0  0  0  0
  -29.3160  -19.4560   20.1880 C   0  0  0  0  0  0  0  0  0  0  0  0
  -30.1980  -17.1110   20.2490 C   0  0  0  0  0  0  0  0  0  0  0  0
  -29.2010  -19.2650   18.7920 C   0  0  0  0  0  0  0  0  0  0  0  0
  -29.6600  -18.1720   18.1440 N   0  0  0  0  0  0  0  0  0  0  0  0
  -31.1770  -14.8060   20.4260 C   0  0  0  0  0  0  0  0  0  0  0  0
  -30.9480  -12.5780   19.3730 C   0  0  0  0  0  2  0  0  0  0  0  0
  -30.0240  -12.7320   18.1410 C   0  0  0  0  0  2  0  0  0  0  0  0
  -28.5420  -12.5950   18.5460 C   0  0  0  0  0  2  0  0  0  0  0  0
  -28.1800  -13.4620   19.7810 C   0  0  0  0  0  3  0  0  0  0  0  0
  -29.2170  -13.2790   20.9130 C   0  0  0  0  0  2  0  0  0  0  0  0
  -30.5470  -13.5940   20.3670 N   0  0  0  0  0  0  0  0  0  0  0  0
  -32.2980  -14.9830   19.9390 O   0  0  0  0  0  0  0  0  0  0  0  0
  -30.4700  -15.8560   20.9340 N   0  0  0  0  0  0  0  0  0  0  0  0
  -29.7720  -15.5910   21.6130 H   0  0  0  0  0  0  0  0  0  0  0  0
  -25.7850  -14.0990   20.4630 C   0  0  0  0  0  0  0  0  0  0  0  0
  -24.6980  -13.3420   20.8110 C   0  0  0  0  0  0  0  0  0  0  0  0
  -25.1350  -11.9830   20.7740 C   0  0  0  0  0  0  0  0  0  0  0  0
  -26.8180  -13.2020   20.2380 N   0  0  0  0  0  0  0  0  0  0  0  0
  -26.4290  -11.9220   20.4800 N   0  0  0  0  0  0  0  0  0  0  0  0
  -24.3830  -10.7320   20.9520 C   0  0  0  0  0  0  0  0  0  0  0  0
  -24.7430   -9.7910   21.9420 C   0  0  0  0  0  3  0  0  0  0  0  0
  -24.0000   -8.6020   22.1030 C   0  0  0  0  0  3  0  0  0  0  0  0
  -22.8800   -8.3470   21.2750 C   0  0  0  0  0  0  0  0  0  0  0  0
  -22.5400   -9.2770   20.2770 C   0  0  0  0  0  3  0  0  0  0  0  0
  -23.2840  -10.4570   20.1140 C   0  0  0  0  0  3  0  0  0  0  0  0
  -22.1120   -7.2120   21.3430 O   0  0  0  0  0  0  0  0  0  0  0  0
  -21.9100   -6.5480   22.5270 C   0  0  0  0  0  0  0  0  0  0  0  0
  -21.2950   -7.1720   23.6330 C   0  0  0  0  0  3  0  0  0  0  0  0
  -21.0470   -6.4330   24.8080 C   0  0  0  0  0  3  0  0  0  0  0  0
  -21.3990   -5.0720   24.8730 C   0  0  0  0  0  0  0  0  0  0  0  0
  -22.0030   -4.4470   23.7660 C   0  0  0  0  0  3  0  0  0  0  0  0
  -22.2580   -5.1840   22.5970 C   0  0  0  0  0  0  0  0  0  0  0  0
  -22.8230   -4.5730   21.5290 F   0  0  0  0  0  0  0  0  0  0  0  0
  -21.1520   -4.3590   25.9960 F   0  0  0  0  0  0  0  0  0  0  0  0
  -23.3070  -13.8430   21.0740 C   0  0  0  0  0  0  0  0  0  0  0  0
  -22.5590  -13.1590   21.9320 N   0  0  0  0  0  0  0  0  0  0  0  0
  -22.8910  -14.8770   20.5520 O   0  0  0  0  0  0  0  0  0  0  0  0
  -22.9080  -12.3270   22.3850 H   0  0  0  0  0  0  0  0  0  0  0  0
  -21.6250  -13.4780   22.1450 H   0  0  0  0  0  0  0  0  0  0  0  0
  -25.9790  -15.4680   20.3010 N   0  0  0  0  0  0  0  0  0  0  0  0
  -25.2260  -16.1380   20.4060 H   0  0  0  0  0  0  0  0  0  0  0  0
  -26.8580  -15.8920   20.0310 H   0  0  0  0  0  0  0  0  0  0  0  0
  -28.2980  -19.9340   16.6550 C   0  0  0  0  0  1  0  0  0  0  0  0
  -28.4920  -20.1740   18.0450 O   0  0  0  0  0  0  0  0  0  0  0  0
  2  1  1  0
  3  7  1  0
  5  3  1  0
  5  8  1  0
  6  4  1  0
  7  2  1  0
  7  4  1  0
  8  9  1  0
  8  6  1  0
 10 21  2  0
 11  9  1  0
 11 16  1  0
 12 20  1  0
 12 22  1  0
 13 19  1  0
 13 15  1  0
 14 20  1  0
 15 14  1  0
 16 15  2  0
 17 18  1  0
 17 11  2  0
 18 13  2  0
 19 12  1  0
 20 10  1  0
 22 24  2  0
 23 22  1  0
 25 23  1  0
 26 35  2  0
 26 31  1  0
 27 23  1  0
 27 31  1  0
 28 27  1  0
 29 30  1  0
 29 28  1  0
 30 26  1  0
 31 32  2  0
 32 33  1  0
 34 33  2  0
 35 34  1  0
 36 10  1  0
 36 41  1  0
 36 37  1  0
 37 40  1  1
 37 38  1  0
 39 37  1  0
 41 44  1  0
 42 46  1  0
 42 41  1  0
 43 42  2  0
 46 45  1  0
 48 46  1  0
 48 49  1  0
 48 47  1  0
 51 53  2  0
 52  2  1  0
 52 50  2  0
 53 50  1  0
 53 64  1  0
 54 52  1  0
 55 54  2  0
 55 51  1  0
 56 64  1  0
 57 62  1  0
 58 59  1  0
 58 57  1  0
 60 59  1  0
 60 69  1  0
 60 61  1  0
 62 56  1  0
 62 61  1  0
 63 56  2  0
 64 65  1  0
 66 67  2  0
 67 86  1  0
 68 67  1  0
 68 71  1  0
 69 66  1  0
 69 70  1  0
 70 68  2  0
 71 72  1  0
 72 73  2  0
 74 77  1  0
 74 73  1  0
 75 74  2  0
 76 75  1  0
 76 71  2  0
 77 78  1  0
 78 83  2  0
 78 79  1  0
 79 80  2  0
 80 81  1  0
 81 85  1  0
 82 81  2  0
 83 82  1  0
 84 83  1  0
 86 87  1  0
 87 90  1  0
 87 89  1  0
 88 86  2  0
 91 92  1  0
 91 66  1  0
 93 91  1  0
 94 95  1  0
 95 54  1  0
M  ISO  4   8 101   9 101  56 100  64 100
M  END
>  <TORSDO>  (87) 
F 19

>  <SCORE>  (87) 
-12.425

>  <name>  (87) 
86

>  <ligand_id>  (87) 
86

>  <original_smiles>  (87) 
[H]c1nc(OC([H])([H])[H])c(C([H])(C([H])([H])[H])C2([H])C([H])([H])C([H])([H])C([H])(Oc3c([H])c([H])c4c(c3[H])C([H])([H])N(C(=O)C([H])(N([H])C(=O)C([H])(N([H])C([H])([H])[H])C([H])([H])[H])C(C([H])([H])[H])(C([H])([H])[H])C([H])([H])[H])C([H])(C(=O)N([H])C3([H])c5c([H])c([H])c([H])c([H])c5C([H])([H])C([H])([H])C3([H])[H])C4([H])[H])C([H])([H])C2([H])[H])c([H])c1N([H])C(=O)N1C([H])([H])C([H])([H])C([H])([H])C([H])(n2nc(-c3c([H])c([H])c(Oc4c([H])c([H])c(F)c([H])c4F)c([H])c3[H])c(C(=O)N([H])[H])c2N([H])[H])C1([H])[H]

>  <smiles>  (87) 
[H]c1nc(OC([H])([H])[H])c(C([H])(C([H])([H])[H])C2([H])C([H])([H])C([H])([H])C([H])(Oc3c([H])c([H])c4c(c3[H])C([H])([H])N(C(=O)C([H])(N([H])C(=O)C([H])(N([H])C([H])([H])[H])C([H])([H])[H])C(C([H])([H])[H])(C([H])([H])[H])C([H])([H])[H])C([H])(C(=O)N([H])C3([H])c5c([H])c([H])c([H])c([H])c5C([H])([H])C([H])([H])C3([H])[H])C4([H])[H])C([H])([H])C2([H])[H])c([H])c1N([H])C(=O)N1C([H])([H])C([H])([H])C([H])([H])C([H])(n2nc(-c3c([H])c([H])c(Oc4c([H])c([H])c(F)c([H])c4F)c([H])c3[H])c(C(=O)N([H])[H])c2N([H])[H])C1([H])[H]

$$$$
87:0:0
     RDKit          3D

102111  0  0  1  0  0  0  0  0999 V2000
  -31.2070  -14.8810   20.3330 C   0  0  0  0  0  0  0  0  0  0  0  0
  -30.8650  -12.6410   19.2580 C   0  0  0  0  0  2  0  0  0  0  0  0
  -29.9280  -12.6870   18.0300 C   0  0  0  0  0  2  0  0  0  0  0  0
  -28.4580  -12.5680   18.4650 C   0  0  0  0  0  2  0  0  0  0  0  0
  -28.1100  -13.4740   19.6740 C   0  0  0  0  0  3  0  0  0  0  0  0
  -29.1600  -13.3460   20.7950 C   0  0  0  0  0  2  0  0  0  0  0  0
  -30.4650  -13.7050   20.2130 N   0  0  0  0  0  0  0  0  0  0  0  0
  -32.3730  -14.8660   19.9220 O   0  0  0  0  0  0  0  0  0  0  0  0
  -30.1600  -20.2570   22.4160 C   0  0  0  0  0  3  0  0  0  0  0  0
  -31.2500  -21.2800   20.5450 C   0  0  0  0  0  3  0  0  0  0  0  0
  -30.3380  -18.9560   21.8250 C   0  0  0  0  0  0  0  0  0  0  0  0
  -30.9140  -18.8000   20.5470 C   0  0  0  0  0  0  0  0  0  0  0  0
  -30.5180  -21.4600   21.7420 C   0  0  0  0  0  0  0  0  0  0  0  0
  -31.5350  -19.9770   20.0070 C   0  0  0  0  0  0  0  0  0  0  0  0
  -29.9270  -17.7200   22.6150 C   0  0  0  0  0  3  0  0  0  0  0  0
  -29.9330  -16.3180   21.9130 C   0  0  0  0  0  3  0  0  0  0  0  0
  -30.7800  -17.4220   19.7530 C   0  0  0  0  0  3  0  0  0  0  0  0
  -30.5890  -16.1210   20.5850 N   0  0  0  0  0  0  0  0  0  0  0  0
  -25.7190  -14.1300   20.3840 C   0  0  0  0  0  0  0  0  0  0  0  0
  -24.6280  -13.4100   20.7490 C   0  0  0  0  0  0  0  0  0  0  0  0
  -25.0480  -12.0420   20.7490 C   0  0  0  0  0  0  0  0  0  0  0  0
  -26.7440  -13.2300   20.1520 N   0  0  0  0  0  0  0  0  0  0  0  0
  -26.3400  -11.9640   20.4450 N   0  0  0  0  0  0  0  0  0  0  0  0
  -24.2830  -10.8030   20.9440 C   0  0  0  0  0  0  0  0  0  0  0  0
  -24.6750   -9.8220   21.8880 C   0  0  0  0  0  3  0  0  0  0  0  0
  -23.9100   -8.6470   22.0600 C   0  0  0  0  0  3  0  0  0  0  0  0
  -22.7340   -8.4480   21.2970 C   0  0  0  0  0  0  0  0  0  0  0  0
  -22.3650   -9.4090   20.3360 C   0  0  0  0  0  3  0  0  0  0  0  0
  -23.1320  -10.5730   20.1630 C   0  0  0  0  0  3  0  0  0  0  0  0
  -21.9350   -7.3330   21.3930 O   0  0  0  0  0  0  0  0  0  0  0  0
  -21.8760   -6.5930   22.5470 C   0  0  0  0  0  0  0  0  0  0  0  0
  -21.4600   -7.1600   23.7720 C   0  0  0  0  0  3  0  0  0  0  0  0
  -21.3520   -6.3520   24.9230 C   0  0  0  0  0  3  0  0  0  0  0  0
  -21.6330   -4.9750   24.8450 C   0  0  0  0  0  0  0  0  0  0  0  0
  -22.0420   -4.4080   23.6260 C   0  0  0  0  0  3  0  0  0  0  0  0
  -22.1620   -5.2150   22.4790 C   0  0  0  0  0  0  0  0  0  0  0  0
  -22.5380   -4.6630   21.3010 F   0  0  0  0  0  0  0  0  0  0  0  0
  -21.5180   -4.1930   25.9440 F   0  0  0  0  0  0  0  0  0  0  0  0
  -23.2430  -13.9430   20.9900 C   0  0  0  0  0  0  0  0  0  0  0  0
  -22.4810  -13.3160   21.8720 N   0  0  0  0  0  0  0  0  0  0  0  0
  -22.8590  -14.9700   20.4290 O   0  0  0  0  0  0  0  0  0  0  0  0
  -22.8190  -12.4930   22.3480 H   0  0  0  0  0  0  0  0  0  0  0  0
  -21.5510  -13.6560   22.0850 H   0  0  0  0  0  0  0  0  0  0  0  0
  -25.9330  -15.4870   20.2070 N   0  0  0  0  0  0  0  0  0  0  0  0
  -25.2200  -16.2010   20.2960 H   0  0  0  0  0  0  0  0  0  0  0  0
  -26.8400  -15.8270   19.9310 H   0  0  0  0  0  0  0  0  0  0  0  0
  -28.3630  -16.8950   19.2050 C   0  0  0  0  0  1  0  0  0  0  0  0
  -30.0960  -16.9450   17.2500 C   0  0  0  0  0  1  0  0  0  0  0  0
  -29.6340  -17.5480   18.6040 C   0  0  2  0  0  0  0  0  0  0  0  0
  -29.1830  -18.9840   18.1250 C   0  0  0  0  0  2  0  0  0  0  0  0
  -27.6920  -19.1840   18.0330 N   0  0  0  0  0  4  0  0  0  0  0  0
  -27.2880  -18.6860   18.8070 H   0  0  0  0  0  0  0  0  0  0  0  0
  -27.3270  -18.7490   17.1930 H   0  0  0  0  0  0  0  0  0  0  0  0
  -27.9700  -21.4790   19.0440 C   0  0  0  0  0  1  0  0  0  0  0  0
  -25.6570  -20.5850   18.5070 C   0  0  0  0  0  1  0  0  0  0  0  0
  -27.1520  -20.5730   18.0990 C   0  0  0  0  0  3  0  0  0  0  0  0
  -33.4750  -20.7290   18.7930 C   0  0  0  0  0  1  0  0  0  0  0  0
  -32.3450  -19.8470   18.8980 O   0  0  0  0  0  0  0  0  0  0  0  0
  -30.2470  -22.8900   22.3680 C   0  0  0  0  0  2  0  0  0  0  0  0
  -29.8700  -24.1110   21.4120 C   0  0  0  0  0  3  0  0  0  0  0  0
  -29.4990  -25.5340   22.0190 C   0  0  0  0  0  3  0  0  0  0  0  0
  -29.5460  -26.6600   21.0800 O   0  0  0  0  0  0  0  0  0  0  0  0
  -25.1270  -31.7620   23.4310 C   0  0  0  0  0  0  0  0  0  0  0  0
  -28.3710  -27.3800   20.8870 C   0  0  0  0  0  0  0  0  0  0  0  0
  -24.2080  -30.2420   21.7100 C   0  0  0  0  0  3  0  0  0  0  0  0
  -25.9170  -28.7680   20.5030 C   0  0  0  0  0  0  0  0  0  0  0  0
  -26.7100  -30.7630   21.7770 C   0  0  0  0  0  2  0  0  0  0  0  0
  -26.9600  -29.3760   21.2100 C   0  0  0  0  0  0  0  0  0  0  0  0
  -28.1940  -28.6940   21.3900 C   0  0  0  0  0  3  0  0  0  0  0  0
  -27.3190  -26.8020   20.1480 C   0  0  0  0  0  3  0  0  0  0  0  0
  -26.0970  -27.4840   19.9580 C   0  0  0  0  0  3  0  0  0  0  0  0
  -24.6170  -29.5450   20.3820 C   0  0  0  0  0  2  0  0  0  0  0  0
  -25.3580  -30.9460   22.3600 N   0  0  0  0  0  0  0  0  0  0  0  0
  -23.9800  -31.9630   23.8460 O   0  0  0  0  0  0  0  0  0  0  0  0
  -23.5270  -29.1990   22.6270 C   0  0  0  0  0  0  0  0  0  0  0  0
  -22.2280  -28.9520   22.3960 N   0  0  0  0  0  0  0  0  0  0  0  0
  -24.1710  -28.6150   23.5020 O   0  0  0  0  0  0  0  0  0  0  0  0
  -21.7660  -29.4760   21.6620 H   0  0  0  0  0  0  0  0  0  0  0  0
  -18.8750  -27.6470   22.6890 C   0  0  0  0  0  0  0  0  0  0  0  0
  -21.4000  -27.9880   23.1200 C   0  0  0  0  0  3  0  0  0  0  0  0
  -21.5840  -26.5630   22.5560 C   0  0  0  0  0  2  0  0  0  0  0  0
  -20.5600  -26.2030   21.4730 C   0  0  0  0  0  2  0  0  0  0  0  0
  -19.1360  -26.3040   22.0270 C   0  0  0  0  0  2  0  0  0  0  0  0
  -19.9390  -28.4430   23.1910 C   0  0  0  0  0  0  0  0  0  0  0  0
  -19.6420  -29.6930   23.7720 C   0  0  0  0  0  3  0  0  0  0  0  0
  -18.3140  -30.1520   23.8600 C   0  0  0  0  0  3  0  0  0  0  0  0
  -17.2640  -29.3560   23.3710 C   0  0  0  0  0  3  0  0  0  0  0  0
  -17.5440  -28.1080   22.7900 C   0  0  0  0  0  3  0  0  0  0  0  0
  -26.2930  -32.4960   24.1610 C   0  0  0  0  0  3  0  0  0  0  0  0
  -25.8760  -33.8910   24.3550 N   0  0  0  0  0  0  0  0  0  0  0  0
  -26.2400  -34.9120   23.5710 C   0  0  0  0  0  0  0  0  0  0  0  0
  -27.0310  -34.7840   22.6290 O   0  0  0  0  0  0  0  0  0  0  0  0
  -25.1740  -34.0560   25.0620 H   0  0  0  0  0  0  0  0  0  0  0  0
  -24.4720  -36.5810   22.9010 C   0  0  0  0  0  1  0  0  0  0  0  0
  -25.6300  -36.2940   23.8720 C   0  0  0  0  0  3  0  0  0  0  0  0
  -27.6020  -37.3570   24.8800 C   0  0  0  0  0  1  0  0  0  0  0  0
  -26.6090  -37.3990   23.8110 N   0  0  0  0  0  0  0  0  0  0  0  0
  -26.1360  -38.2980   23.8490 H   0  0  0  0  0  0  0  0  0  0  0  0
  -26.6810  -31.8330   25.5400 C   0  0  1  0  0  0  0  0  0  0  0  0
  -25.4760  -31.5950   26.4780 C   0  0  0  0  0  1  0  0  0  0  0  0
  -27.3860  -30.4720   25.3210 C   0  0  0  0  0  1  0  0  0  0  0  0
  -27.6790  -32.7430   26.2980 C   0  0  0  0  0  1  0  0  0  0  0  0
  1 18  1  0
  2  7  1  0
  3  4  1  0
  3  2  1  0
  5  4  1  0
  5 22  1  0
  5  6  1  0
  7  1  1  0
  7  6  1  0
  8  1  2  0
 10 13  1  0
 11  9  1  0
 11 15  1  0
 12 11  2  0
 13 59  1  0
 13  9  2  0
 14 10  2  0
 14 12  1  0
 16 15  2  0
 17 49  1  0
 17 12  1  0
 17 18  1  0
 18 16  1  0
 19 20  2  0
 20 39  1  0
 21 20  1  0
 21 24  1  0
 22 19  1  0
 22 23  1  0
 23 21  2  0
 24 25  1  0
 25 26  2  0
 27 30  1  0
 27 26  1  0
 28 27  2  0
 29 28  1  0
 29 24  2  0
 30 31  1  0
 31 32  1  0
 32 33  2  0
 34 33  1  0
 34 38  1  0
 35 34  2  0
 36 31  2  0
 36 35  1  0
 37 36  1  0
 39 40  1  0
 40 43  1  0
 40 42  1  0
 41 39  2  0
 44 45  1  0
 44 19  1  0
 46 44  1  0
 49 48  1  6
 49 47  1  0
 50 49  1  0
 51 56  1  0
 51 50  1  0
 51 52  1  0
 53 51  1  0
 56 55  1  0
 56 54  1  0
 57 58  1  0
 58 14  1  0
 60 61  2  0
 60 59  1  0
 62 61  1  0
 63 74  2  0
 64 62  1  0
 64 69  1  0
 65 73  1  0
 65 75  1  0
 66 68  1  0
 67 73  1  0
 68 69  2  0
 68 67  1  0
 70 64  2  0
 71 70  1  0
 71 66  2  0
 72 66  1  0
 72 65  1  0
 73 63  1  0
 75 77  2  0
 76 75  1  0
 78 76  1  0
 79 88  2  0
 79 84  1  0
 80 76  1  0
 80 84  1  0
 81 80  1  0
 82 83  1  0
 82 81  1  0
 83 79  1  0
 84 85  2  0
 85 86  1  0
 87 86  2  0
 88 87  1  0
 89 63  1  0
 89 90  1  0
 89 99  1  0
 90 93  1  0
 91 95  1  0
 91 90  1  0
 92 91  2  0
 95 94  1  0
 97 98  1  0
 97 95  1  0
 97 96  1  0
 99102  1  1
 99100  1  0
101 99  1  0
M  ISO  4   1 100  18 100  61 101  62 101
M  END
>  <TORSDO>  (88) 
F 23

>  <SCORE>  (88) 
-10.322

>  <name>  (88) 
87

>  <ligand_id>  (88) 
87

>  <original_smiles>  (88) 
[H]c1c([H])c([H])c2c(c1[H])C([H])([H])C([H])([H])C([H])([H])C2([H])N([H])C(=O)C1([H])N(C(=O)C([H])(N([H])C(=O)C([H])(N([H])C([H])([H])[H])C([H])([H])[H])C(C([H])([H])[H])(C([H])([H])[H])C([H])([H])[H])C([H])([H])c2c([H])c(OC([H])([H])C([H])([H])C([H])([H])c3c([H])c(OC([H])([H])[H])c4c(c3[H])C([H])([H])C([H])([H])N(C(=O)N3C([H])([H])C([H])([H])C([H])([H])C([H])(n5nc(-c6c([H])c([H])c(Oc7c([H])c([H])c(F)c([H])c7F)c([H])c6[H])c(C(=O)N([H])[H])c5N([H])[H])C3([H])[H])C4([H])C(C([H])([H])[H])(C([H])([H])[H])C([H])([H])[N+]([H])([H])C([H])(C([H])([H])[H])C([H])([H])[H])c([H])c([H])c2C1([H])[H]

>  <smiles>  (88) 
[H]c1c([H])c([H])c2c(c1[H])C([H])([H])C([H])([H])C([H])([H])C2([H])N([H])C(=O)C1([H])N(C(=O)C([H])(N([H])C(=O)C([H])(N([H])C([H])([H])[H])C([H])([H])[H])C(C([H])([H])[H])(C([H])([H])[H])C([H])([H])[H])C([H])([H])c2c([H])c(OC([H])([H])C([H])([H])C([H])([H])c3c([H])c(OC([H])([H])[H])c4c(c3[H])C([H])([H])C([H])([H])N(C(=O)N3C([H])([H])C([H])([H])C([H])([H])C([H])(n5nc(-c6c([H])c([H])c(Oc7c([H])c([H])c(F)c([H])c7F)c([H])c6[H])c(C(=O)N([H])[H])c5N([H])[H])C3([H])[H])C4([H])C(C([H])([H])[H])(C([H])([H])[H])C([H])([H])[N+]([H])([H])C([H])(C([H])([H])[H])C([H])([H])[H])c([H])c([H])c2C1([H])[H]

$$$$
88:0:0
     RDKit          3D

 96106  0  0  1  0  0  0  0  0999 V2000
  -31.3830  -23.7110   17.5790 C   0  0  0  0  0  3  0  0  0  0  0  0
  -32.5140  -23.1720   16.9370 C   0  0  0  0  0  3  0  0  0  0  0  0
  -32.2230  -21.1130   18.1900 C   0  0  0  0  0  3  0  0  0  0  0  0
  -30.6560  -22.9670   18.5390 C   0  0  0  0  0  0  0  0  0  0  0  0
  -32.9370  -21.8690   17.2430 C   0  0  0  0  0  0  0  0  0  0  0  0
  -31.0970  -21.6470   18.8610 C   0  0  0  0  0  0  0  0  0  0  0  0
  -34.1580  -21.2850   16.5610 C   0  0  0  0  0  1  0  0  0  0  0  0
  -29.5930  -24.5530   20.4020 C   0  0  0  0  0  2  0  0  0  0  0  0
  -28.5960  -24.7380   18.5530 C   0  0  0  0  0  2  0  0  0  0  0  0
  -29.4250  -23.6030   19.2020 C   0  0  0  0  0  3  0  0  0  0  0  0
  -28.3110  -25.2810   19.9620 C   0  0  0  0  0  3  0  0  0  0  0  0
  -28.3870  -26.7110   20.0880 O   0  0  0  0  0  0  0  0  0  0  0  0
  -24.6130  -31.8770   23.2160 C   0  0  0  0  0  0  0  0  0  0  0  0
  -27.2050  -27.4270   20.0840 C   0  0  0  0  0  0  0  0  0  0  0  0
  -23.3790  -30.4820   21.5860 C   0  0  0  0  0  3  0  0  0  0  0  0
  -24.8090  -28.9420   20.1390 C   0  0  0  0  0  0  0  0  0  0  0  0
  -25.9050  -30.8270   21.3610 C   0  0  0  0  0  2  0  0  0  0  0  0
  -25.9760  -29.4590   20.7120 C   0  0  0  0  0  0  0  0  0  0  0  0
  -27.1750  -28.7100   20.6790 C   0  0  0  0  0  3  0  0  0  0  0  0
  -26.0150  -26.9260   19.5050 C   0  0  0  0  0  3  0  0  0  0  0  0
  -24.8240  -27.6740   19.5330 C   0  0  0  0  0  3  0  0  0  0  0  0
  -23.5680  -29.8020   20.2030 C   0  0  0  0  0  2  0  0  0  0  0  0
  -24.6510  -31.0770   22.1110 N   0  0  0  0  0  0  0  0  0  0  0  0
  -23.5390  -32.1520   23.7710 O   0  0  0  0  0  0  0  0  0  0  0  0
  -22.7380  -29.4620   22.5540 C   0  0  0  0  0  0  0  0  0  0  0  0
  -21.4100  -29.2820   22.4410 N   0  0  0  0  0  0  0  0  0  0  0  0
  -23.4280  -28.8340   23.3610 O   0  0  0  0  0  0  0  0  0  0  0  0
  -20.9150  -29.8410   21.7610 H   0  0  0  0  0  0  0  0  0  0  0  0
  -18.0430  -28.0840   22.9660 C   0  0  0  0  0  0  0  0  0  0  0  0
  -20.6020  -28.3460   23.2200 C   0  0  0  0  0  3  0  0  0  0  0  0
  -20.7030  -26.9140   22.6470 C   0  0  0  0  0  2  0  0  0  0  0  0
  -19.5950  -26.5860   21.6410 C   0  0  0  0  0  2  0  0  0  0  0  0
  -18.2170  -26.7330   22.2930 C   0  0  0  0  0  2  0  0  0  0  0  0
  -19.1630  -28.8480   23.3860 C   0  0  0  0  0  0  0  0  0  0  0  0
  -18.9470  -30.1140   23.9750 C   0  0  0  0  0  3  0  0  0  0  0  0
  -17.6430  -30.6160   24.1460 C   0  0  0  0  0  3  0  0  0  0  0  0
  -16.5380  -29.8480   23.7410 C   0  0  0  0  0  3  0  0  0  0  0  0
  -16.7370  -28.5850   23.1580 C   0  0  0  0  0  3  0  0  0  0  0  0
  -25.9100  -32.5000   23.8200 C   0  0  0  0  0  3  0  0  0  0  0  0
  -26.4550  -31.7130   25.0750 C   0  0  1  0  0  0  0  0  0  0  0  0
  -25.3850  -31.4630   26.1630 C   0  0  0  0  0  1  0  0  0  0  0  0
  -27.0300  -30.3420   24.6540 C   0  0  0  0  0  1  0  0  0  0  0  0
  -27.6190  -32.5010   25.7200 C   0  0  0  0  0  1  0  0  0  0  0  0
  -25.6070  -33.8930   24.1730 N   0  0  0  0  0  0  0  0  0  0  0  0
  -25.9210  -34.9550   23.4180 C   0  0  0  0  0  0  0  0  0  0  0  0
  -26.5690  -34.8640   22.3710 O   0  0  0  0  0  0  0  0  0  0  0  0
  -25.0300  -34.0380   24.9890 H   0  0  0  0  0  0  0  0  0  0  0  0
  -24.1790  -36.7430   23.1230 C   0  0  0  0  0  1  0  0  0  0  0  0
  -25.4410  -36.3360   23.9000 C   0  0  0  0  0  3  0  0  0  0  0  0
  -27.5930  -37.2180   24.6860 C   0  0  0  0  0  1  0  0  0  0  0  0
  -26.4660  -37.3940   23.7730 N   0  0  0  0  0  0  0  0  0  0  0  0
  -26.0620  -38.3110   23.9420 H   0  0  0  0  0  0  0  0  0  0  0  0
  -30.3840  -20.7670   19.8910 C   0  0  0  0  0  2  0  0  0  0  0  0
  -31.1410  -19.6010   20.2300 O   0  0  0  0  0  0  0  0  0  0  0  0
  -30.6840  -14.4850   20.4680 C   0  0  0  0  0  0  0  0  0  0  0  0
  -30.3310  -12.3150   19.3520 C   0  0  0  0  0  2  0  0  0  0  0  0
  -29.4070  -12.5030   18.1330 C   0  0  0  0  0  2  0  0  0  0  0  0
  -27.9290  -12.3580   18.5470 C   0  0  0  0  0  2  0  0  0  0  0  0
  -27.5730  -13.2050   19.7980 C   0  0  0  0  0  3  0  0  0  0  0  0
  -28.6320  -13.0570   20.9170 C   0  0  0  0  0  2  0  0  0  0  0  0
  -29.9600  -13.3350   20.3450 N   0  0  0  0  0  0  0  0  0  0  0  0
  -31.8310  -14.5920   20.0290 O   0  0  0  0  0  0  0  0  0  0  0  0
  -29.7140  -17.6940   19.7540 C   0  0  0  0  0  2  0  0  0  0  0  0
  -31.4320  -17.6240   21.5530 C   0  0  0  0  0  2  0  0  0  0  0  0
  -29.1160  -16.3820   20.3070 C   0  0  0  0  0  2  0  0  0  0  0  0
  -30.7930  -16.3230   22.0960 C   0  0  0  0  0  2  0  0  0  0  0  0
  -30.4190  -18.5280   20.8330 C   0  0  0  0  0  3  0  0  0  0  0  0
  -30.0850  -15.5530   21.0560 N   0  0  0  0  0  0  0  0  0  0  0  0
  -25.1820  -13.8290   20.4930 C   0  0  0  0  0  0  0  0  0  0  0  0
  -24.1100  -13.0640   20.8620 C   0  0  0  0  0  0  0  0  0  0  0  0
  -24.5700  -11.7110   20.8520 C   0  0  0  0  0  0  0  0  0  0  0  0
  -26.2240  -12.9390   20.2800 N   0  0  0  0  0  0  0  0  0  0  0  0
  -25.8620  -11.6630   20.5560 N   0  0  0  0  0  0  0  0  0  0  0  0
  -23.8420  -10.4530   21.0460 C   0  0  0  0  0  0  0  0  0  0  0  0
  -24.2850   -9.4850   21.9750 C   0  0  0  0  0  3  0  0  0  0  0  0
  -23.5600   -8.2880   22.1600 C   0  0  0  0  0  3  0  0  0  0  0  0
  -22.3800   -8.0530   21.4150 C   0  0  0  0  0  0  0  0  0  0  0  0
  -21.9580   -9.0080   20.4730 C   0  0  0  0  0  3  0  0  0  0  0  0
  -22.6830  -10.1980   20.2860 C   0  0  0  0  0  3  0  0  0  0  0  0
  -21.6240   -6.9100   21.5090 O   0  0  0  0  0  0  0  0  0  0  0  0
  -21.6030   -6.1530   22.6520 C   0  0  0  0  0  0  0  0  0  0  0  0
  -21.2300   -6.6970   23.9000 C   0  0  0  0  0  3  0  0  0  0  0  0
  -21.1580   -5.8680   25.0370 C   0  0  0  0  0  3  0  0  0  0  0  0
  -21.4450   -4.4950   24.9260 C   0  0  0  0  0  0  0  0  0  0  0  0
  -21.8100   -3.9470   23.6830 C   0  0  0  0  0  3  0  0  0  0  0  0
  -21.8860   -4.7750   22.5490 C   0  0  0  0  0  0  0  0  0  0  0  0
  -22.2180   -4.2410   21.3490 F   0  0  0  0  0  0  0  0  0  0  0  0
  -21.3660   -3.6950   26.0160 F   0  0  0  0  0  0  0  0  0  0  0  0
  -22.7110  -13.5450   21.1150 C   0  0  0  0  0  0  0  0  0  0  0  0
  -21.9740  -12.8630   21.9850 N   0  0  0  0  0  0  0  0  0  0  0  0
  -22.2800  -14.5640   20.5750 O   0  0  0  0  0  0  0  0  0  0  0  0
  -22.3330  -12.0390   22.4450 H   0  0  0  0  0  0  0  0  0  0  0  0
  -21.0340  -13.1680   22.1940 H   0  0  0  0  0  0  0  0  0  0  0  0
  -25.3510  -15.1970   20.3000 N   0  0  0  0  0  0  0  0  0  0  0  0
  -24.5850  -15.8550   20.3980 H   0  0  0  0  0  0  0  0  0  0  0  0
  -26.2080  -15.6340   19.9910 H   0  0  0  0  0  0  0  0  0  0  0  0
  1  4  1  0
  2  5  1  0
  2  1  2  0
  3  6  1  0
  4  6  2  0
  5  3  2  0
  6 53  1  0
  7  5  1  0
  9 10  1  0
  9 11  1  0
 10  4  1  0
 10  8  1  0
 11 12  1  0
 11  8  1  0
 13 24  2  0
 14 12  1  0
 14 19  1  0
 15 23  1  0
 15 25  1  0
 16 22  1  0
 16 18  1  0
 17 23  1  0
 18 17  1  0
 19 18  2  0
 20 21  1  0
 20 14  2  0
 21 16  2  0
 22 15  1  0
 23 13  1  0
 25 27  2  0
 26 25  1  0
 28 26  1  0
 29 38  2  0
 29 34  1  0
 30 26  1  0
 30 34  1  0
 31 30  1  0
 32 33  1  0
 32 31  1  0
 33 29  1  0
 34 35  2  0
 35 36  1  0
 37 36  2  0
 38 37  1  0
 39 13  1  0
 39 44  1  0
 39 40  1  0
 40 43  1  1
 40 41  1  0
 42 40  1  0
 44 47  1  0
 45 49  1  0
 45 44  1  0
 46 45  2  0
 49 48  1  0
 51 49  1  0
 51 52  1  0
 51 50  1  0
 53 54  1  0
 55 68  1  0
 56 61  1  0
 57 58  1  0
 57 56  1  0
 59 58  1  0
 59 72  1  0
 59 60  1  0
 61 55  1  0
 61 60  1  0
 62 55  2  0
 63 65  1  0
 63 67  1  0
 64 66  1  0
 65 68  1  0
 67 54  1  0
 67 64  1  0
 68 66  1  0
 69 70  2  0
 70 89  1  0
 71 70  1  0
 71 74  1  0
 72 69  1  0
 72 73  1  0
 73 71  2  0
 74 75  1  0
 75 76  2  0
 77 80  1  0
 77 76  1  0
 78 77  2  0
 79 78  1  0
 79 74  2  0
 80 81  1  0
 81 82  1  0
 82 83  2  0
 84 83  1  0
 84 88  1  0
 85 84  2  0
 86 81  2  0
 86 85  1  0
 87 86  1  0
 89 90  1  0
 90 93  1  0
 90 92  1  0
 91 89  2  0
 94 95  1  0
 94 69  1  0
 96 94  1  0
M  ISO  4  11 101  12 101  55 100  68 100
M  END
>  <TORSDO>  (89) 
F 19

>  <SCORE>  (89) 
-14.345

>  <name>  (89) 
88

>  <ligand_id>  (89) 
88

>  <original_smiles>  (89) 
[H]c1c([H])c([H])c2c(c1[H])C([H])([H])C([H])([H])C([H])([H])C2([H])N([H])C(=O)C1([H])N(C(=O)C([H])(N([H])C(=O)C([H])(N([H])C([H])([H])[H])C([H])([H])[H])C(C([H])([H])[H])(C([H])([H])[H])C([H])([H])[H])C([H])([H])c2c([H])c(OC3([H])C([H])([H])C([H])(c4c([H])c([H])c(C([H])([H])[H])c([H])c4C([H])([H])OC4([H])C([H])([H])C([H])([H])N(C(=O)N5C([H])([H])C([H])([H])C([H])([H])C([H])(n6nc(-c7c([H])c([H])c(Oc8c([H])c([H])c(F)c([H])c8F)c([H])c7[H])c(C(=O)N([H])[H])c6N([H])[H])C5([H])[H])C([H])([H])C4([H])[H])C3([H])[H])c([H])c([H])c2C1([H])[H]

>  <smiles>  (89) 
[H]c1c([H])c([H])c2c(c1[H])C([H])([H])C([H])([H])C([H])([H])C2([H])N([H])C(=O)C1([H])N(C(=O)C([H])(N([H])C(=O)C([H])(N([H])C([H])([H])[H])C([H])([H])[H])C(C([H])([H])[H])(C([H])([H])[H])C([H])([H])[H])C([H])([H])c2c([H])c(OC3([H])C([H])([H])C([H])(c4c([H])c([H])c(C([H])([H])[H])c([H])c4C([H])([H])OC4([H])C([H])([H])C([H])([H])N(C(=O)N5C([H])([H])C([H])([H])C([H])([H])C([H])(n6nc(-c7c([H])c([H])c(Oc8c([H])c([H])c(F)c([H])c8F)c([H])c7[H])c(C(=O)N([H])[H])c6N([H])[H])C5([H])[H])C([H])([H])C4([H])[H])C3([H])[H])c([H])c([H])c2C1([H])[H]

$$$$
89:0:0
     RDKit          3D

 92101  0  0  1  0  0  0  0  0999 V2000
  -28.1050  -22.6710   19.0940 C   0  0  0  0  0  2  0  0  0  0  0  0
  -29.0150  -22.7200   21.4090 C   0  0  0  0  0  2  0  0  0  0  0  0
  -28.3120  -24.2280   18.9800 C   0  0  0  0  0  2  0  0  0  0  0  0
  -29.1950  -24.2840   21.2790 C   0  0  0  0  0  2  0  0  0  0  0  0
  -29.0700  -21.9120   20.0680 C   0  0  0  0  0  3  0  0  0  0  0  0
  -28.1780  -24.9900   20.3300 C   0  0  0  0  0  3  0  0  0  0  0  0
  -28.7190  -20.4260   20.2040 N   0  0  0  0  0  4  0  0  0  0  0  0
  -28.1350  -20.2080   19.4130 H   0  0  0  0  0  0  0  0  0  0  0  0
  -28.1290  -20.3230   21.0140 H   0  0  0  0  0  0  0  0  0  0  0  0
  -29.6410  -18.1870   21.2910 C   0  0  0  0  0  2  0  0  0  0  0  0
  -29.6790  -18.1500   19.2250 C   0  0  0  0  0  2  0  0  0  0  0  0
  -30.3320  -17.2080   20.2870 C   0  0  0  0  0  3  0  0  0  0  0  0
  -29.7980  -19.3440   20.2410 C   0  0  0  0  0  3  0  0  0  0  0  0
  -30.6420  -14.6450   19.9930 C   0  0  0  0  0  0  0  0  0  0  0  0
  -30.3480  -12.4020   18.9580 C   0  0  0  0  0  2  0  0  0  0  0  0
  -29.3390  -12.5190   17.7950 C   0  0  0  0  0  2  0  0  0  0  0  0
  -27.8950  -12.3590   18.3110 C   0  0  0  0  0  2  0  0  0  0  0  0
  -27.6060  -13.2330   19.5620 C   0  0  0  0  0  3  0  0  0  0  0  0
  -28.7280  -13.1040   20.6160 C   0  0  0  0  0  2  0  0  0  0  0  0
  -29.9960  -13.4360   19.9530 N   0  0  0  0  0  0  0  0  0  0  0  0
  -31.7950  -14.7600   19.5690 O   0  0  0  0  0  0  0  0  0  0  0  0
  -29.9020  -15.7570   20.3220 N   0  0  0  0  0  0  0  0  0  0  0  0
  -28.9560  -15.5700   20.6190 H   0  0  0  0  0  0  0  0  0  0  0  0
  -25.2760  -13.8350   20.4550 C   0  0  0  0  0  0  0  0  0  0  0  0
  -24.2240  -13.0640   20.8700 C   0  0  0  0  0  0  0  0  0  0  0  0
  -24.6650  -11.7080   20.7690 C   0  0  0  0  0  0  0  0  0  0  0  0
  -26.2900  -12.9490   20.1270 N   0  0  0  0  0  0  0  0  0  0  0  0
  -25.9330  -11.6630   20.3770 N   0  0  0  0  0  0  0  0  0  0  0  0
  -23.9340  -10.4490   20.9660 C   0  0  0  0  0  0  0  0  0  0  0  0
  -24.3780   -9.4750   21.8860 C   0  0  0  0  0  3  0  0  0  0  0  0
  -23.6470   -8.2810   22.0720 C   0  0  0  0  0  3  0  0  0  0  0  0
  -22.4590   -8.0540   21.3380 C   0  0  0  0  0  0  0  0  0  0  0  0
  -22.0350   -9.0170   20.4060 C   0  0  0  0  0  3  0  0  0  0  0  0
  -22.7660  -10.2020   20.2180 C   0  0  0  0  0  3  0  0  0  0  0  0
  -21.6990   -6.9140   21.4340 O   0  0  0  0  0  0  0  0  0  0  0  0
  -21.6250   -6.1940   22.5990 C   0  0  0  0  0  0  0  0  0  0  0  0
  -21.1370   -6.7620   23.7960 C   0  0  0  0  0  3  0  0  0  0  0  0
  -21.0130   -5.9670   24.9540 C   0  0  0  0  0  3  0  0  0  0  0  0
  -21.3660   -4.6060   24.9140 C   0  0  0  0  0  0  0  0  0  0  0  0
  -21.8480   -4.0370   23.7220 C   0  0  0  0  0  3  0  0  0  0  0  0
  -21.9740   -4.8280   22.5670 C   0  0  0  0  0  0  0  0  0  0  0  0
  -22.4180   -4.2710   21.4150 F   0  0  0  0  0  0  0  0  0  0  0  0
  -21.2400   -3.8390   26.0230 F   0  0  0  0  0  0  0  0  0  0  0  0
  -22.8550  -13.5490   21.2430 C   0  0  0  0  0  0  0  0  0  0  0  0
  -22.1770  -12.8420   22.1400 N   0  0  0  0  0  0  0  0  0  0  0  0
  -22.3950  -14.5910   20.7760 O   0  0  0  0  0  0  0  0  0  0  0  0
  -22.5620  -11.9990   22.5400 H   0  0  0  0  0  0  0  0  0  0  0  0
  -21.2600  -13.1480   22.4330 H   0  0  0  0  0  0  0  0  0  0  0  0
  -25.4480  -15.2090   20.3070 N   0  0  0  0  0  0  0  0  0  0  0  0
  -24.6920  -15.8630   20.4780 H   0  0  0  0  0  0  0  0  0  0  0  0
  -26.2650  -15.6460   19.9050 H   0  0  0  0  0  0  0  0  0  0  0  0
  -28.3600  -26.4650   20.2550 O   0  0  0  0  0  0  0  0  0  0  0  0
  -24.6190  -31.8690   23.2430 C   0  0  0  0  0  0  0  0  0  0  0  0
  -27.2350  -27.3050   20.2040 C   0  0  0  0  0  0  0  0  0  0  0  0
  -23.4180  -30.4700   21.6010 C   0  0  0  0  0  3  0  0  0  0  0  0
  -24.8710  -28.9160   20.1810 C   0  0  0  0  0  0  0  0  0  0  0  0
  -25.9580  -30.7880   21.4230 C   0  0  0  0  0  2  0  0  0  0  0  0
  -26.0380  -29.4090   20.7780 C   0  0  0  0  0  0  0  0  0  0  0  0
  -27.2240  -28.6160   20.7750 C   0  0  0  0  0  3  0  0  0  0  0  0
  -26.0450  -26.8650   19.5840 C   0  0  0  0  0  3  0  0  0  0  0  0
  -24.8770  -27.6500   19.5740 C   0  0  0  0  0  3  0  0  0  0  0  0
  -23.6350  -29.7920   20.2230 C   0  0  0  0  0  2  0  0  0  0  0  0
  -24.6840  -31.0600   22.1460 N   0  0  0  0  0  0  0  0  0  0  0  0
  -23.5340  -32.1480   23.7750 O   0  0  0  0  0  0  0  0  0  0  0  0
  -22.7520  -29.4560   22.5610 C   0  0  0  0  0  0  0  0  0  0  0  0
  -21.4250  -29.2830   22.4310 N   0  0  0  0  0  0  0  0  0  0  0  0
  -23.4270  -28.8280   23.3800 O   0  0  0  0  0  0  0  0  0  0  0  0
  -20.9400  -29.8410   21.7430 H   0  0  0  0  0  0  0  0  0  0  0  0
  -18.0390  -28.1220   22.9470 C   0  0  0  0  0  0  0  0  0  0  0  0
  -20.6020  -28.3490   23.2000 C   0  0  0  0  0  3  0  0  0  0  0  0
  -20.6830  -26.9210   22.6120 C   0  0  0  0  0  2  0  0  0  0  0  0
  -19.5690  -26.6190   21.6040 C   0  0  0  0  0  2  0  0  0  0  0  0
  -18.1940  -26.7760   22.2590 C   0  0  0  0  0  2  0  0  0  0  0  0
  -19.1690  -28.8670   23.3740 C   0  0  0  0  0  0  0  0  0  0  0  0
  -18.9690  -30.1280   23.9780 C   0  0  0  0  0  3  0  0  0  0  0  0
  -17.6710  -30.6430   24.1570 C   0  0  0  0  0  3  0  0  0  0  0  0
  -16.5550  -29.8940   23.7450 C   0  0  0  0  0  3  0  0  0  0  0  0
  -16.7390  -28.6350   23.1450 C   0  0  0  0  0  3  0  0  0  0  0  0
  -25.9020  -32.5000   23.8690 C   0  0  0  0  0  3  0  0  0  0  0  0
  -25.5900  -33.8970   24.2060 N   0  0  0  0  0  0  0  0  0  0  0  0
  -25.8980  -34.9520   23.4400 C   0  0  0  0  0  0  0  0  0  0  0  0
  -26.5450  -34.8520   22.3940 O   0  0  0  0  0  0  0  0  0  0  0  0
  -25.0130  -34.0470   25.0210 H   0  0  0  0  0  0  0  0  0  0  0  0
  -24.1430  -36.7280   23.1360 C   0  0  0  0  0  1  0  0  0  0  0  0
  -25.4130  -36.3380   23.9090 C   0  0  0  0  0  3  0  0  0  0  0  0
  -27.5600  -37.2500   24.6750 C   0  0  0  0  0  1  0  0  0  0  0  0
  -26.4320  -37.4000   23.7590 N   0  0  0  0  0  0  0  0  0  0  0  0
  -26.0210  -38.3170   23.9110 H   0  0  0  0  0  0  0  0  0  0  0  0
  -26.4170  -31.7250   25.1440 C   0  0  1  0  0  0  0  0  0  0  0  0
  -25.3210  -31.4780   26.2080 C   0  0  0  0  0  1  0  0  0  0  0  0
  -27.0050  -30.3510   24.7460 C   0  0  0  0  0  1  0  0  0  0  0  0
  -27.5630  -32.5190   25.8130 C   0  0  0  0  0  1  0  0  0  0  0  0
  1  5  1  0
  3  1  1  0
  3  6  1  0
  4  2  1  0
  5  7  1  0
  5  2  1  0
  6 52  1  0
  6  4  1  0
  7  9  1  0
  8  7  1  0
 11 13  1  0
 11 12  1  0
 12 22  1  0
 12 10  1  0
 13  7  1  0
 13 10  1  0
 14 22  1  0
 15 20  1  0
 16 17  1  0
 16 15  1  0
 18 17  1  0
 18 27  1  0
 18 19  1  0
 20 14  1  0
 20 19  1  0
 21 14  2  0
 22 23  1  0
 24 25  2  0
 25 44  1  0
 26 25  1  0
 26 29  1  0
 27 28  1  0
 27 24  1  0
 28 26  2  0
 29 30  1  0
 30 31  2  0
 32 35  1  0
 32 31  1  0
 33 32  2  0
 34 33  1  0
 34 29  2  0
 35 36  1  0
 36 37  1  0
 37 38  2  0
 39 38  1  0
 39 43  1  0
 40 39  2  0
 41 36  2  0
 41 40  1  0
 42 41  1  0
 44 45  1  0
 45 48  1  0
 45 47  1  0
 46 44  2  0
 49 24  1  0
 49 50  1  0
 51 49  1  0
 53 64  2  0
 54 52  1  0
 54 59  1  0
 55 63  1  0
 55 65  1  0
 56 62  1  0
 56 58  1  0
 57 63  1  0
 58 57  1  0
 59 58  2  0
 60 54  2  0
 61 60  1  0
 61 56  2  0
 62 55  1  0
 63 53  1  0
 65 67  2  0
 66 65  1  0
 68 66  1  0
 69 78  2  0
 69 74  1  0
 70 66  1  0
 70 74  1  0
 71 70  1  0
 72 73  1  0
 72 71  1  0
 73 69  1  0
 74 75  2  0
 75 76  1  0
 77 76  2  0
 78 77  1  0
 79 53  1  0
 79 80  1  0
 79 89  1  0
 80 83  1  0
 81 85  1  0
 81 80  1  0
 82 81  2  0
 85 84  1  0
 87 85  1  0
 87 88  1  0
 87 86  1  0
 89 92  1  1
 89 90  1  0
 91 89  1  0
M  ISO  4   6 101  14 100  22 100  52 101
M  END
>  <TORSDO>  (90) 
F 18

>  <SCORE>  (90) 
-14.372

>  <name>  (90) 
89

>  <ligand_id>  (90) 
89

>  <original_smiles>  (90) 
[H]c1c([H])c([H])c2c(c1[H])C([H])([H])C([H])([H])C([H])([H])C2([H])N([H])C(=O)C1([H])N(C(=O)C([H])(N([H])C(=O)C([H])(N([H])C([H])([H])[H])C([H])([H])[H])C(C([H])([H])[H])(C([H])([H])[H])C([H])([H])[H])C([H])([H])c2c([H])c(OC3([H])C([H])([H])C([H])([H])C([H])([N+]([H])([H])C4([H])C([H])([H])C([H])(N([H])C(=O)N5C([H])([H])C([H])([H])C([H])([H])C([H])(n6nc(-c7c([H])c([H])c(Oc8c([H])c([H])c(F)c([H])c8F)c([H])c7[H])c(C(=O)N([H])[H])c6N([H])[H])C5([H])[H])C4([H])[H])C([H])([H])C3([H])[H])c([H])c([H])c2C1([H])[H]

>  <smiles>  (90) 
[H]c1c([H])c([H])c2c(c1[H])C([H])([H])C([H])([H])C([H])([H])C2([H])N([H])C(=O)C1([H])N(C(=O)C([H])(N([H])C(=O)C([H])(N([H])C([H])([H])[H])C([H])([H])[H])C(C([H])([H])[H])(C([H])([H])[H])C([H])([H])[H])C([H])([H])c2c([H])c(OC3([H])C([H])([H])C([H])([H])C([H])([N+]([H])([H])C4([H])C([H])([H])C([H])(N([H])C(=O)N5C([H])([H])C([H])([H])C([H])([H])C([H])(n6nc(-c7c([H])c([H])c(Oc8c([H])c([H])c(F)c([H])c8F)c([H])c7[H])c(C(=O)N([H])[H])c6N([H])[H])C5([H])[H])C4([H])[H])C([H])([H])C3([H])[H])c([H])c([H])c2C1([H])[H]

$$$$
90:0:0
     RDKit          3D

 96106  0  0  1  0  0  0  0  0999 V2000
  -28.2750  -23.1450   19.6980 C   0  0  0  0  0  3  0  0  0  0  0  0
  -28.6160  -21.7560   19.6370 C   0  0  0  0  0  3  0  0  0  0  0  0
  -29.5900  -23.3680   21.7000 C   0  0  0  0  0  3  0  0  0  0  0  0
  -28.7510  -23.9830   20.7400 C   0  0  0  0  0  0  0  0  0  0  0  0
  -29.9160  -21.9830   21.6610 C   0  0  0  0  0  0  0  0  0  0  0  0
  -29.4350  -21.1390   20.6240 C   0  0  0  0  0  0  0  0  0  0  0  0
  -30.7390  -21.3920   22.8010 C   0  0  0  0  0  3  0  0  0  0  0  0
  -30.4330  -21.9920   23.9550 F   0  0  0  0  0  0  0  0  0  0  0  0
  -33.2010  -20.7020   23.3830 C   0  0  0  0  0  2  0  0  0  0  0  0
  -33.0130  -20.4100   21.9170 C   0  0  0  0  0  2  0  0  0  0  0  0
  -32.2300  -21.5270   22.5680 C   0  0  0  0  0  3  0  0  0  0  0  0
  -28.1990  -25.4190   21.0320 C   0  0  0  0  0  2  0  0  0  0  0  0
  -28.4630  -26.5630   20.1540 O   0  0  0  0  0  0  0  0  0  0  0  0
  -24.6240  -31.8000   23.2390 C   0  0  0  0  0  0  0  0  0  0  0  0
  -27.3700  -27.4230   20.0930 C   0  0  0  0  0  0  0  0  0  0  0  0
  -23.4610  -30.3940   21.5710 C   0  0  0  0  0  3  0  0  0  0  0  0
  -24.9590  -28.9280   20.1090 C   0  0  0  0  0  0  0  0  0  0  0  0
  -25.9840  -30.8100   21.3880 C   0  0  0  0  0  2  0  0  0  0  0  0
  -26.1090  -29.4510   20.7160 C   0  0  0  0  0  0  0  0  0  0  0  0
  -27.3230  -28.7070   20.7040 C   0  0  0  0  0  3  0  0  0  0  0  0
  -26.2080  -26.9460   19.4540 C   0  0  0  0  0  3  0  0  0  0  0  0
  -25.0070  -27.6790   19.4680 C   0  0  0  0  0  3  0  0  0  0  0  0
  -23.6910  -29.7540   20.1770 C   0  0  0  0  0  2  0  0  0  0  0  0
  -24.7070  -31.0180   22.1240 N   0  0  0  0  0  0  0  0  0  0  0  0
  -23.5340  -32.0310   23.7810 O   0  0  0  0  0  0  0  0  0  0  0  0
  -22.8350  -29.3380   22.5130 C   0  0  0  0  0  0  0  0  0  0  0  0
  -21.5230  -29.0960   22.3590 N   0  0  0  0  0  0  0  0  0  0  0  0
  -23.5300  -28.7420   23.3400 O   0  0  0  0  0  0  0  0  0  0  0  0
  -21.0210  -29.6330   21.6660 H   0  0  0  0  0  0  0  0  0  0  0  0
  -18.2140  -27.6840   22.7370 C   0  0  0  0  0  0  0  0  0  0  0  0
  -20.7360  -28.1150   23.1090 C   0  0  0  0  0  3  0  0  0  0  0  0
  -20.9560  -26.6870   22.5580 C   0  0  0  0  0  2  0  0  0  0  0  0
  -19.9210  -26.2820   21.5040 C   0  0  0  0  0  2  0  0  0  0  0  0
  -18.5060  -26.3430   22.0880 C   0  0  0  0  0  2  0  0  0  0  0  0
  -19.2620  -28.5230   23.2020 C   0  0  0  0  0  0  0  0  0  0  0  0
  -18.9360  -29.7750   23.7670 C   0  0  0  0  0  3  0  0  0  0  0  0
  -17.5960  -30.1920   23.8720 C   0  0  0  0  0  3  0  0  0  0  0  0
  -16.5620  -29.3510   23.4240 C   0  0  0  0  0  3  0  0  0  0  0  0
  -16.8720  -28.1000   22.8620 C   0  0  0  0  0  3  0  0  0  0  0  0
  -25.8880  -32.4580   23.8710 C   0  0  0  0  0  3  0  0  0  0  0  0
  -26.4050  -31.7040   25.1580 C   0  0  1  0  0  0  0  0  0  0  0  0
  -25.3030  -31.4530   26.2130 C   0  0  0  0  0  1  0  0  0  0  0  0
  -27.0170  -30.3350   24.7820 C   0  0  0  0  0  1  0  0  0  0  0  0
  -27.5330  -32.5230   25.8290 C   0  0  0  0  0  1  0  0  0  0  0  0
  -25.5510  -33.8530   24.1880 N   0  0  0  0  0  0  0  0  0  0  0  0
  -25.8810  -34.9070   23.4290 C   0  0  0  0  0  0  0  0  0  0  0  0
  -26.5710  -34.8090   22.4110 O   0  0  0  0  0  0  0  0  0  0  0  0
  -24.9380  -34.0020   24.9760 H   0  0  0  0  0  0  0  0  0  0  0  0
  -24.1320  -36.6710   23.0350 C   0  0  0  0  0  1  0  0  0  0  0  0
  -25.3640  -36.2890   23.8710 C   0  0  0  0  0  3  0  0  0  0  0  0
  -27.4680  -37.2120   24.7390 C   0  0  0  0  0  1  0  0  0  0  0  0
  -26.3820  -37.3580   23.7720 N   0  0  0  0  0  0  0  0  0  0  0  0
  -25.9590  -38.2730   23.9080 H   0  0  0  0  0  0  0  0  0  0  0  0
  -29.8320  -19.7900   20.6130 O   0  0  0  0  0  0  0  0  0  0  0  0
  -30.7940  -14.6510   19.9820 C   0  0  0  0  0  0  0  0  0  0  0  0
  -30.4420  -12.4110   18.9790 C   0  0  0  0  0  2  0  0  0  0  0  0
  -29.4670  -12.5360   17.7900 C   0  0  0  0  0  2  0  0  0  0  0  0
  -28.0110  -12.4110   18.2770 C   0  0  0  0  0  2  0  0  0  0  0  0
  -27.7100  -13.3070   19.5080 C   0  0  0  0  0  3  0  0  0  0  0  0
  -28.8080  -13.1920   20.5880 C   0  0  0  0  0  2  0  0  0  0  0  0
  -30.0920  -13.4760   19.9400 N   0  0  0  0  0  0  0  0  0  0  0  0
  -31.9640  -14.6900   19.5890 O   0  0  0  0  0  0  0  0  0  0  0  0
  -29.3280  -18.0030   18.9110 C   0  0  0  0  0  2  0  0  0  0  0  0
  -28.7840  -17.6310   21.3220 C   0  0  0  0  0  2  0  0  0  0  0  0
  -30.4090  -16.8900   19.0680 C   0  0  0  0  0  2  0  0  0  0  0  0
  -29.8860  -16.5180   21.3560 C   0  0  0  0  0  2  0  0  0  0  0  0
  -28.9300  -18.7220   20.2200 C   0  0  0  0  0  3  0  0  0  0  0  0
  -30.0800  -15.8320   20.0600 N   0  0  0  0  0  0  0  0  0  0  0  0
  -25.3710  -13.9410   20.3510 C   0  0  0  0  0  0  0  0  0  0  0  0
  -24.3070  -13.1850   20.7610 C   0  0  0  0  0  0  0  0  0  0  0  0
  -24.7390  -11.8250   20.6950 C   0  0  0  0  0  0  0  0  0  0  0  0
  -26.3840  -13.0430   20.0570 N   0  0  0  0  0  0  0  0  0  0  0  0
  -26.0130  -11.7640   20.3250 N   0  0  0  0  0  0  0  0  0  0  0  0
  -23.9960  -10.5750   20.9050 C   0  0  0  0  0  0  0  0  0  0  0  0
  -24.4210   -9.6110   21.8450 C   0  0  0  0  0  3  0  0  0  0  0  0
  -23.6780   -8.4250   22.0420 C   0  0  0  0  0  3  0  0  0  0  0  0
  -22.4940   -8.2000   21.3010 C   0  0  0  0  0  0  0  0  0  0  0  0
  -22.0870   -9.1530   20.3500 C   0  0  0  0  0  3  0  0  0  0  0  0
  -22.8310  -10.3270   20.1500 C   0  0  0  0  0  3  0  0  0  0  0  0
  -21.7220   -7.0690   21.4070 O   0  0  0  0  0  0  0  0  0  0  0  0
  -21.6290   -6.3680   22.5830 C   0  0  0  0  0  0  0  0  0  0  0  0
  -21.1670   -6.9690   23.7740 C   0  0  0  0  0  3  0  0  0  0  0  0
  -21.0230   -6.1950   24.9440 C   0  0  0  0  0  3  0  0  0  0  0  0
  -21.3290   -4.8210   24.9200 C   0  0  0  0  0  0  0  0  0  0  0  0
  -21.7830   -4.2190   23.7340 C   0  0  0  0  0  3  0  0  0  0  0  0
  -21.9300   -4.9910   22.5680 C   0  0  0  0  0  0  0  0  0  0  0  0
  -22.3480   -4.4020   21.4220 F   0  0  0  0  0  0  0  0  0  0  0  0
  -21.1830   -4.0750   26.0400 F   0  0  0  0  0  0  0  0  0  0  0  0
  -22.9340  -13.6880   21.1030 C   0  0  0  0  0  0  0  0  0  0  0  0
  -22.2330  -12.9990   21.9960 N   0  0  0  0  0  0  0  0  0  0  0  0
  -22.4940  -14.7260   20.6120 O   0  0  0  0  0  0  0  0  0  0  0  0
  -22.6030  -12.1580   22.4150 H   0  0  0  0  0  0  0  0  0  0  0  0
  -21.3130  -13.3160   22.2650 H   0  0  0  0  0  0  0  0  0  0  0  0
  -25.5560  -15.3100   20.1820 N   0  0  0  0  0  0  0  0  0  0  0  0
  -24.8090  -15.9780   20.3380 H   0  0  0  0  0  0  0  0  0  0  0  0
  -26.4060  -15.7350   19.8340 H   0  0  0  0  0  0  0  0  0  0  0  0
  1  4  1  0
  2  1  2  0
  2  6  1  0
  4 12  1  0
  4  3  2  0
  5  3  1  0
  5  7  1  0
  6  5  2  0
  7  8  1  0
 10 11  1  0
 10  9  1  0
 11  7  1  0
 11  9  1  0
 13 12  1  0
 14 25  2  0
 15 13  1  0
 15 20  1  0
 16 24  1  0
 16 26  1  0
 17 23  1  0
 17 19  1  0
 18 24  1  0
 19 18  1  0
 20 19  2  0
 21 22  1  0
 21 15  2  0
 22 17  2  0
 23 16  1  0
 24 14  1  0
 26 28  2  0
 27 26  1  0
 29 27  1  0
 30 39  2  0
 30 35  1  0
 31 27  1  0
 31 35  1  0
 32 31  1  0
 33 34  1  0
 33 32  1  0
 34 30  1  0
 35 36  2  0
 36 37  1  0
 38 37  2  0
 39 38  1  0
 40 14  1  0
 40 45  1  0
 40 41  1  0
 41 44  1  1
 41 42  1  0
 43 41  1  0
 45 48  1  0
 46 50  1  0
 46 45  1  0
 47 46  2  0
 50 49  1  0
 52 50  1  0
 52 53  1  0
 52 51  1  0
 54  6  1  0
 55 68  1  0
 56 61  1  0
 57 58  1  0
 57 56  1  0
 59 58  1  0
 59 72  1  0
 59 60  1  0
 61 55  1  0
 61 60  1  0
 62 55  2  0
 63 65  1  0
 63 67  1  0
 64 66  1  0
 65 68  1  0
 67 54  1  0
 67 64  1  0
 68 66  1  0
 69 70  2  0
 70 89  1  0
 71 70  1  0
 71 74  1  0
 72 73  1  0
 72 69  1  0
 73 71  2  0
 74 75  1  0
 75 76  2  0
 77 80  1  0
 77 76  1  0
 78 77  2  0
 79 78  1  0
 79 74  2  0
 80 81  1  0
 81 82  1  0
 82 83  2  0
 84 83  1  0
 84 88  1  0
 85 84  2  0
 86 81  2  0
 86 85  1  0
 87 86  1  0
 89 90  1  0
 90 93  1  0
 90 92  1  0
 91 89  2  0
 94 95  1  0
 94 69  1  0
 96 94  1  0
M  ISO  4  12 101  13 101  55 100  68 100
M  END
>  <TORSDO>  (91) 
F 20

>  <SCORE>  (91) 
-13.681

>  <name>  (91) 
90

>  <ligand_id>  (91) 
90

>  <original_smiles>  (91) 
[H]c1c([H])c([H])c2c(c1[H])C([H])([H])C([H])([H])C([H])([H])C2([H])N([H])C(=O)C1([H])N(C(=O)C([H])(N([H])C(=O)C([H])(N([H])C([H])([H])[H])C([H])([H])[H])C(C([H])([H])[H])(C([H])([H])[H])C([H])([H])[H])C([H])([H])c2c([H])c(OC([H])([H])c3c([H])c([H])c(OC4([H])C([H])([H])C([H])([H])N(C(=O)N5C([H])([H])C([H])([H])C([H])([H])C([H])(n6nc(-c7c([H])c([H])c(Oc8c([H])c([H])c(F)c([H])c8F)c([H])c7[H])c(C(=O)N([H])[H])c6N([H])[H])C5([H])[H])C([H])([H])C4([H])[H])c(C([H])(F)C4([H])C([H])([H])C4([H])[H])c3[H])c([H])c([H])c2C1([H])[H]

>  <smiles>  (91) 
[H]c1c([H])c([H])c2c(c1[H])C([H])([H])C([H])([H])C([H])([H])C2([H])N([H])C(=O)C1([H])N(C(=O)C([H])(N([H])C(=O)C([H])(N([H])C([H])([H])[H])C([H])([H])[H])C(C([H])([H])[H])(C([H])([H])[H])C([H])([H])[H])C([H])([H])c2c([H])c(OC([H])([H])c3c([H])c([H])c(OC4([H])C([H])([H])C([H])([H])N(C(=O)N5C([H])([H])C([H])([H])C([H])([H])C([H])(n6nc(-c7c([H])c([H])c(Oc8c([H])c([H])c(F)c([H])c8F)c([H])c7[H])c(C(=O)N([H])[H])c6N([H])[H])C5([H])[H])C([H])([H])C4([H])[H])c(C([H])(F)C4([H])C([H])([H])C4([H])[H])c3[H])c([H])c([H])c2C1([H])[H]

$$$$
91:0:0
     RDKit          3D

 97106  0  0  1  0  0  0  0  0999 V2000
  -28.0140  -21.9210   20.7750 C   0  0  0  0  0  3  0  0  0  0  0  0
  -30.1990  -21.9400   19.7880 C   0  0  0  0  0  3  0  0  0  0  0  0
  -28.8740  -24.0540   19.8460 C   0  0  0  0  0  0  0  0  0  0  0  0
  -27.8470  -23.3160   20.5050 C   0  0  0  0  0  0  0  0  0  0  0  0
  -29.1680  -21.1850   20.4080 C   0  0  0  0  0  0  0  0  0  0  0  0
  -30.0710  -23.3430   19.5190 C   0  0  0  0  0  0  0  0  0  0  0  0
  -32.3710  -23.4810   18.7860 C   0  0  0  0  0  1  0  0  0  0  0  0
  -31.0770  -24.0610   18.8990 O   0  0  0  0  0  0  0  0  0  0  0  0
  -26.6620  -23.9800   20.8650 N   0  0  0  0  0  0  0  0  0  0  0  0
  -26.6150  -24.9890   20.7460 H   0  0  0  0  0  0  0  0  0  0  0  0
  -24.2150  -24.1910   21.0650 C   0  0  0  0  0  1  0  0  0  0  0  0
  -25.4230  -23.2520   21.0970 C   0  0  0  0  0  2  0  0  0  0  0  0
  -28.6510  -25.5210   19.3080 C   0  0  0  0  0  2  0  0  0  0  0  0
  -28.4090  -26.6370   20.2300 O   0  0  0  0  0  0  0  0  0  0  0  0
  -24.5990  -31.9330   23.2360 C   0  0  0  0  0  0  0  0  0  0  0  0
  -27.2570  -27.4290   20.1540 C   0  0  0  0  0  0  0  0  0  0  0  0
  -23.4060  -30.5320   21.5870 C   0  0  0  0  0  3  0  0  0  0  0  0
  -24.8690  -28.9990   20.1590 C   0  0  0  0  0  0  0  0  0  0  0  0
  -25.9410  -30.8720   21.4120 C   0  0  0  0  0  2  0  0  0  0  0  0
  -26.0280  -29.4980   20.7630 C   0  0  0  0  0  0  0  0  0  0  0  0
  -27.2190  -28.7200   20.7610 C   0  0  0  0  0  3  0  0  0  0  0  0
  -26.0670  -26.9700   19.5420 C   0  0  0  0  0  3  0  0  0  0  0  0
  -24.8870  -27.7370   19.5460 C   0  0  0  0  0  3  0  0  0  0  0  0
  -23.6250  -29.8620   20.2050 C   0  0  0  0  0  2  0  0  0  0  0  0
  -24.6670  -31.1290   22.1350 N   0  0  0  0  0  0  0  0  0  0  0  0
  -23.5130  -32.2040   23.7680 O   0  0  0  0  0  0  0  0  0  0  0  0
  -22.7490  -29.5080   22.5410 C   0  0  0  0  0  0  0  0  0  0  0  0
  -21.4220  -29.3340   22.4170 N   0  0  0  0  0  0  0  0  0  0  0  0
  -23.4300  -28.8760   23.3530 O   0  0  0  0  0  0  0  0  0  0  0  0
  -20.9340  -29.8950   21.7350 H   0  0  0  0  0  0  0  0  0  0  0  0
  -18.0400  -28.1630   22.9330 C   0  0  0  0  0  0  0  0  0  0  0  0
  -20.6030  -28.3930   23.1830 C   0  0  0  0  0  3  0  0  0  0  0  0
  -20.6870  -26.9680   22.5870 C   0  0  0  0  0  2  0  0  0  0  0  0
  -19.5720  -26.6690   21.5800 C   0  0  0  0  0  2  0  0  0  0  0  0
  -18.1970  -26.8200   22.2390 C   0  0  0  0  0  2  0  0  0  0  0  0
  -19.1700  -28.9080   23.3630 C   0  0  0  0  0  0  0  0  0  0  0  0
  -18.9700  -30.1650   23.9730 C   0  0  0  0  0  3  0  0  0  0  0  0
  -17.6720  -30.6770   24.1580 C   0  0  0  0  0  3  0  0  0  0  0  0
  -16.5560  -29.9280   23.7450 C   0  0  0  0  0  3  0  0  0  0  0  0
  -16.7410  -28.6730   23.1400 C   0  0  0  0  0  3  0  0  0  0  0  0
  -25.8780  -32.5680   23.8640 C   0  0  0  0  0  3  0  0  0  0  0  0
  -25.5640  -33.9670   24.1890 N   0  0  0  0  0  0  0  0  0  0  0  0
  -25.8990  -35.0170   23.4290 C   0  0  0  0  0  0  0  0  0  0  0  0
  -26.5730  -34.9140   22.4020 O   0  0  0  0  0  0  0  0  0  0  0  0
  -24.9650  -34.1220   24.9860 H   0  0  0  0  0  0  0  0  0  0  0  0
  -24.1760  -36.8130   23.0530 C   0  0  0  0  0  1  0  0  0  0  0  0
  -25.4070  -36.4070   23.8800 C   0  0  0  0  0  3  0  0  0  0  0  0
  -27.5260  -37.2930   24.7450 C   0  0  0  0  0  1  0  0  0  0  0  0
  -26.4420  -37.4580   23.7810 N   0  0  0  0  0  0  0  0  0  0  0  0
  -26.0340  -38.3790   23.9140 H   0  0  0  0  0  0  0  0  0  0  0  0
  -26.3880  -31.8000   25.1450 C   0  0  1  0  0  0  0  0  0  0  0  0
  -25.2870  -31.5580   26.2040 C   0  0  0  0  0  1  0  0  0  0  0  0
  -26.9820  -30.4260   24.7600 C   0  0  0  0  0  1  0  0  0  0  0  0
  -27.5280  -32.6030   25.8150 C   0  0  0  0  0  1  0  0  0  0  0  0
  -29.1850  -19.8000   20.6960 O   0  0  0  0  0  0  0  0  0  0  0  0
  -30.6570  -14.6940   20.3160 C   0  0  0  0  0  0  0  0  0  0  0  0
  -30.3710  -12.4780   19.2390 C   0  0  0  0  0  2  0  0  0  0  0  0
  -29.4080  -12.6300   18.0440 C   0  0  0  0  0  2  0  0  0  0  0  0
  -27.9430  -12.4790   18.5040 C   0  0  0  0  0  2  0  0  0  0  0  0
  -27.6140  -13.3330   19.7580 C   0  0  0  0  0  3  0  0  0  0  0  0
  -28.6970  -13.1840   20.8490 C   0  0  0  0  0  2  0  0  0  0  0  0
  -29.9930  -13.5010   20.2320 N   0  0  0  0  0  0  0  0  0  0  0  0
  -31.8320  -14.8070   19.9560 O   0  0  0  0  0  0  0  0  0  0  0  0
  -30.8130  -18.0290   21.4780 C   0  0  0  0  0  2  0  0  0  0  0  0
  -29.8850  -17.9280   19.1410 C   0  0  0  0  0  2  0  0  0  0  0  0
  -30.0940  -16.6740   21.7730 C   0  0  0  0  0  2  0  0  0  0  0  0
  -29.2000  -16.5830   19.5390 C   0  0  0  0  0  2  0  0  0  0  0  0
  -30.2570  -18.8860   20.3060 C   0  0  0  0  0  3  0  0  0  0  0  0
  -29.9050  -15.8140   20.5890 N   0  0  0  0  0  0  0  0  0  0  0  0
  -25.2480  -13.9450   20.5420 C   0  0  0  0  0  0  0  0  0  0  0  0
  -24.1810  -13.1770   20.9190 C   0  0  0  0  0  0  0  0  0  0  0  0
  -24.6280  -11.8220   20.8540 C   0  0  0  0  0  0  0  0  0  0  0  0
  -26.2770  -13.0580   20.2690 N   0  0  0  0  0  0  0  0  0  0  0  0
  -25.9110  -11.7740   20.5170 N   0  0  0  0  0  0  0  0  0  0  0  0
  -23.8930  -10.5640   21.0340 C   0  0  0  0  0  0  0  0  0  0  0  0
  -24.3170   -9.5880   21.9620 C   0  0  0  0  0  3  0  0  0  0  0  0
  -23.5830   -8.3940   22.1300 C   0  0  0  0  0  3  0  0  0  0  0  0
  -22.4120   -8.1680   21.3700 C   0  0  0  0  0  0  0  0  0  0  0  0
  -22.0070   -9.1330   20.4310 C   0  0  0  0  0  3  0  0  0  0  0  0
  -22.7410  -10.3180   20.2610 C   0  0  0  0  0  3  0  0  0  0  0  0
  -21.6500   -7.0280   21.4490 O   0  0  0  0  0  0  0  0  0  0  0  0
  -21.5720   -6.2920   22.6050 C   0  0  0  0  0  0  0  0  0  0  0  0
  -21.0870   -6.8480   23.8090 C   0  0  0  0  0  3  0  0  0  0  0  0
  -20.9580   -6.0380   24.9550 C   0  0  0  0  0  3  0  0  0  0  0  0
  -21.3030   -4.6750   24.8980 C   0  0  0  0  0  0  0  0  0  0  0  0
  -21.7790   -4.1190   23.6970 C   0  0  0  0  0  3  0  0  0  0  0  0
  -21.9110   -4.9250   22.5540 C   0  0  0  0  0  0  0  0  0  0  0  0
  -22.3520   -4.3810   21.3940 F   0  0  0  0  0  0  0  0  0  0  0  0
  -21.1720   -3.8950   25.9960 F   0  0  0  0  0  0  0  0  0  0  0  0
  -22.7950  -13.6630   21.2300 C   0  0  0  0  0  0  0  0  0  0  0  0
  -22.0770  -12.9560   22.0940 N   0  0  0  0  0  0  0  0  0  0  0  0
  -22.3580  -14.7050   20.7420 O   0  0  0  0  0  0  0  0  0  0  0  0
  -22.4420  -12.1120   22.5110 H   0  0  0  0  0  0  0  0  0  0  0  0
  -21.1470  -13.2630   22.3440 H   0  0  0  0  0  0  0  0  0  0  0  0
  -25.4240  -15.3170   20.3880 N   0  0  0  0  0  0  0  0  0  0  0  0
  -24.6710  -15.9830   20.5320 H   0  0  0  0  0  0  0  0  0  0  0  0
  -26.2810  -15.7520   20.0750 H   0  0  0  0  0  0  0  0  0  0  0  0
  2  5  1  0
  3  4  2  0
  4  1  1  0
  4  9  1  0
  5 55  1  0
  5  1  2  0
  6  2  2  0
  6  3  1  0
  7  8  1  0
  8  6  1  0
  9 12  1  0
 10  9  1  0
 11 12  1  0
 13  3  1  0
 13 14  1  0
 15 26  2  0
 16 14  1  0
 16 21  1  0
 17 25  1  0
 17 27  1  0
 18 24  1  0
 18 20  1  0
 19 25  1  0
 20 19  1  0
 21 20  2  0
 22 23  1  0
 22 16  2  0
 23 18  2  0
 24 17  1  0
 25 15  1  0
 27 29  2  0
 28 27  1  0
 30 28  1  0
 31 40  2  0
 31 36  1  0
 32 28  1  0
 32 36  1  0
 33 32  1  0
 34 35  1  0
 34 33  1  0
 35 31  1  0
 36 37  2  0
 37 38  1  0
 39 38  2  0
 40 39  1  0
 41 15  1  0
 41 42  1  0
 41 51  1  0
 42 45  1  0
 43 47  1  0
 43 42  1  0
 44 43  2  0
 47 46  1  0
 49 47  1  0
 49 50  1  0
 49 48  1  0
 51 54  1  1
 51 52  1  0
 53 51  1  0
 56 69  1  0
 57 62  1  0
 58 59  1  0
 58 57  1  0
 60 59  1  0
 60 73  1  0
 60 61  1  0
 62 56  1  0
 62 61  1  0
 63 56  2  0
 64 66  1  0
 65 67  1  0
 65 68  1  0
 67 69  1  0
 68 55  1  0
 68 64  1  0
 69 66  1  0
 70 71  2  0
 71 90  1  0
 72 71  1  0
 72 75  1  0
 73 74  1  0
 73 70  1  0
 74 72  2  0
 75 76  1  0
 76 77  2  0
 78 81  1  0
 78 77  1  0
 79 78  2  0
 80 79  1  0
 80 75  2  0
 81 82  1  0
 82 83  1  0
 83 84  2  0
 85 84  1  0
 85 89  1  0
 86 85  2  0
 87 82  2  0
 87 86  1  0
 88 87  1  0
 90 91  1  0
 91 94  1  0
 91 93  1  0
 92 90  2  0
 95 96  1  0
 95 70  1  0
 97 95  1  0
M  ISO  4  13 101  14 101  56 100  69 100
M  END
>  <TORSDO>  (92) 
F 21

>  <SCORE>  (92) 
-13.973

>  <name>  (92) 
91

>  <ligand_id>  (92) 
91

>  <original_smiles>  (92) 
[H]c1c([H])c([H])c2c(c1[H])C([H])([H])C([H])([H])C([H])([H])C2([H])N([H])C(=O)C1([H])N(C(=O)C([H])(N([H])C(=O)C([H])(N([H])C([H])([H])[H])C([H])([H])[H])C(C([H])([H])[H])(C([H])([H])[H])C([H])([H])[H])C([H])([H])c2c([H])c(OC([H])([H])c3c(OC([H])([H])[H])c([H])c(OC4([H])C([H])([H])C([H])([H])N(C(=O)N5C([H])([H])C([H])([H])C([H])([H])C([H])(n6nc(-c7c([H])c([H])c(Oc8c([H])c([H])c(F)c([H])c8F)c([H])c7[H])c(C(=O)N([H])[H])c6N([H])[H])C5([H])[H])C([H])([H])C4([H])[H])c([H])c3N([H])C([H])([H])C([H])([H])[H])c([H])c([H])c2C1([H])[H]

>  <smiles>  (92) 
[H]c1c([H])c([H])c2c(c1[H])C([H])([H])C([H])([H])C([H])([H])C2([H])N([H])C(=O)C1([H])N(C(=O)C([H])(N([H])C(=O)C([H])(N([H])C([H])([H])[H])C([H])([H])[H])C(C([H])([H])[H])(C([H])([H])[H])C([H])([H])[H])C([H])([H])c2c([H])c(OC([H])([H])c3c(OC([H])([H])[H])c([H])c(OC4([H])C([H])([H])C([H])([H])N(C(=O)N5C([H])([H])C([H])([H])C([H])([H])C([H])(n6nc(-c7c([H])c([H])c(Oc8c([H])c([H])c(F)c([H])c8F)c([H])c7[H])c(C(=O)N([H])[H])c6N([H])[H])C5([H])[H])C([H])([H])C4([H])[H])c([H])c3N([H])C([H])([H])C([H])([H])[H])c([H])c([H])c2C1([H])[H]

$$$$
92:0:0
     RDKit          3D

 96106  0  0  1  0  0  0  0  0999 V2000
  -28.2360  -22.9750   19.5910 C   0  0  0  0  0  3  0  0  0  0  0  0
  -28.8400  -23.9290   20.4750 C   0  0  0  0  0  0  0  0  0  0  0  0
  -30.2880  -22.2100   21.1560 C   0  0  0  0  0  3  0  0  0  0  0  0
  -29.6410  -21.2490   20.3300 C   0  0  0  0  0  0  0  0  0  0  0  0
  -31.4350  -21.8010   22.0550 C   0  0  0  0  0  1  0  0  0  0  0  0
  -29.8940  -23.5180   21.2350 N   0  0  0  0  0  0  0  0  0  0  0  0
  -28.6240  -21.6580   19.5270 N   0  0  0  0  0  0  0  0  0  0  0  0
  -27.0800  -23.3380   18.6790 C   0  0  0  0  0  2  0  0  0  0  0  0
  -24.4590  -23.3390   18.5330 C   0  0  0  0  0  2  0  0  0  0  0  0
  -24.8590  -21.9220   18.8520 C   0  0  0  0  0  2  0  0  0  0  0  0
  -25.7260  -23.0730   19.3150 C   0  0  0  0  0  3  0  0  0  0  0  0
  -28.1710  -25.2920   20.8930 C   0  0  0  0  0  2  0  0  0  0  0  0
  -28.5020  -26.5820   20.2610 O   0  0  0  0  0  0  0  0  0  0  0  0
  -24.6530  -31.8560   23.3200 C   0  0  0  0  0  0  0  0  0  0  0  0
  -27.4090  -27.4510   20.2070 C   0  0  0  0  0  0  0  0  0  0  0  0
  -23.5060  -30.4700   21.6290 C   0  0  0  0  0  3  0  0  0  0  0  0
  -25.0140  -28.9940   20.1890 C   0  0  0  0  0  0  0  0  0  0  0  0
  -26.0390  -30.8560   21.4940 C   0  0  0  0  0  2  0  0  0  0  0  0
  -26.1620  -29.4970   20.8180 C   0  0  0  0  0  0  0  0  0  0  0  0
  -27.3670  -28.7370   20.8220 C   0  0  0  0  0  3  0  0  0  0  0  0
  -26.2460  -27.0040   19.5440 C   0  0  0  0  0  3  0  0  0  0  0  0
  -25.0570  -27.7520   19.5430 C   0  0  0  0  0  3  0  0  0  0  0  0
  -23.7570  -29.8350   20.2370 C   0  0  0  0  0  2  0  0  0  0  0  0
  -24.7500  -31.0750   22.2050 N   0  0  0  0  0  0  0  0  0  0  0  0
  -23.5550  -32.0970   23.8430 O   0  0  0  0  0  0  0  0  0  0  0  0
  -22.8520  -29.4150   22.5520 C   0  0  0  0  0  0  0  0  0  0  0  0
  -21.5310  -29.2230   22.4090 N   0  0  0  0  0  0  0  0  0  0  0  0
  -23.5340  -28.7740   23.3570 O   0  0  0  0  0  0  0  0  0  0  0  0
  -21.0400  -29.7940   21.7350 H   0  0  0  0  0  0  0  0  0  0  0  0
  -18.1610  -27.9900   22.8630 C   0  0  0  0  0  0  0  0  0  0  0  0
  -20.7170  -28.2550   23.1460 C   0  0  0  0  0  3  0  0  0  0  0  0
  -20.8280  -26.8450   22.5250 C   0  0  0  0  0  2  0  0  0  0  0  0
  -19.7300  -26.5490   21.4980 C   0  0  0  0  0  2  0  0  0  0  0  0
  -18.3460  -26.6650   22.1430 C   0  0  0  0  0  2  0  0  0  0  0  0
  -19.2740  -28.7440   23.3200 C   0  0  0  0  0  0  0  0  0  0  0  0
  -19.0460  -29.9860   23.9530 C   0  0  0  0  0  3  0  0  0  0  0  0
  -17.7370  -30.4730   24.1320 C   0  0  0  0  0  3  0  0  0  0  0  0
  -16.6390  -29.7160   23.6910 C   0  0  0  0  0  3  0  0  0  0  0  0
  -16.8500  -28.4760   23.0630 C   0  0  0  0  0  3  0  0  0  0  0  0
  -25.9120  -32.4990   23.9770 C   0  0  0  0  0  3  0  0  0  0  0  0
  -26.3960  -31.7370   25.2710 C   0  0  1  0  0  0  0  0  0  0  0  0
  -25.2690  -31.4860   26.3020 C   0  0  0  0  0  1  0  0  0  0  0  0
  -27.0100  -30.3670   24.9030 C   0  0  0  0  0  1  0  0  0  0  0  0
  -27.5120  -32.5480   25.9710 C   0  0  0  0  0  1  0  0  0  0  0  0
  -25.5830  -33.8960   24.2910 N   0  0  0  0  0  0  0  0  0  0  0  0
  -25.9320  -34.9480   23.5370 C   0  0  0  0  0  0  0  0  0  0  0  0
  -26.6340  -34.8440   22.5280 O   0  0  0  0  0  0  0  0  0  0  0  0
  -24.9650  -34.0500   25.0730 H   0  0  0  0  0  0  0  0  0  0  0  0
  -24.2130  -36.7340   23.1090 C   0  0  0  0  0  1  0  0  0  0  0  0
  -25.4210  -36.3350   23.9730 C   0  0  0  0  0  3  0  0  0  0  0  0
  -27.5100  -37.2350   24.8960 C   0  0  0  0  0  1  0  0  0  0  0  0
  -26.4540  -37.3920   23.9010 N   0  0  0  0  0  0  0  0  0  0  0  0
  -26.0380  -38.3110   24.0210 H   0  0  0  0  0  0  0  0  0  0  0  0
  -30.0500  -19.8990   20.3380 O   0  0  0  0  0  0  0  0  0  0  0  0
  -30.9900  -14.7160   19.9030 C   0  0  0  0  0  0  0  0  0  0  0  0
  -30.6610  -12.4610   18.9320 C   0  0  0  0  0  2  0  0  0  0  0  0
  -29.6660  -12.5560   17.7570 C   0  0  0  0  0  2  0  0  0  0  0  0
  -28.2190  -12.4160   18.2690 C   0  0  0  0  0  2  0  0  0  0  0  0
  -27.9230  -13.3250   19.4940 C   0  0  0  0  0  3  0  0  0  0  0  0
  -29.0380  -13.2370   20.5570 C   0  0  0  0  0  2  0  0  0  0  0  0
  -30.3080  -13.5300   19.8860 N   0  0  0  0  0  0  0  0  0  0  0  0
  -32.1560  -14.7740   19.4970 O   0  0  0  0  0  0  0  0  0  0  0  0
  -29.3660  -17.9890   18.8230 C   0  0  0  0  0  2  0  0  0  0  0  0
  -29.1310  -17.7630   21.3010 C   0  0  0  0  0  2  0  0  0  0  0  0
  -30.4610  -16.8830   18.9080 C   0  0  0  0  0  2  0  0  0  0  0  0
  -30.2190  -16.6370   21.2590 C   0  0  0  0  0  2  0  0  0  0  0  0
  -29.1290  -18.7880   20.1260 C   0  0  0  0  0  3  0  0  0  0  0  0
  -30.2560  -15.8820   19.9870 N   0  0  0  0  0  0  0  0  0  0  0  0
  -25.6020  -13.9400   20.4020 C   0  0  0  0  0  0  0  0  0  0  0  0
  -24.5440  -13.1760   20.8110 C   0  0  0  0  0  0  0  0  0  0  0  0
  -24.9700  -11.8170   20.6940 C   0  0  0  0  0  0  0  0  0  0  0  0
  -26.6060  -13.0490   20.0610 N   0  0  0  0  0  0  0  0  0  0  0  0
  -26.2350  -11.7630   20.2970 N   0  0  0  0  0  0  0  0  0  0  0  0
  -24.2260  -10.5630   20.8810 C   0  0  0  0  0  0  0  0  0  0  0  0
  -24.6160   -9.6100   21.8470 C   0  0  0  0  0  3  0  0  0  0  0  0
  -23.8740   -8.4210   22.0210 C   0  0  0  0  0  3  0  0  0  0  0  0
  -22.7280   -8.1780   21.2270 C   0  0  0  0  0  0  0  0  0  0  0  0
  -22.3570   -9.1200   20.2520 C   0  0  0  0  0  3  0  0  0  0  0  0
  -23.1000  -10.2990   20.0760 C   0  0  0  0  0  3  0  0  0  0  0  0
  -21.9610   -7.0410   21.3090 O   0  0  0  0  0  0  0  0  0  0  0  0
  -21.7670   -6.3860   22.4990 C   0  0  0  0  0  0  0  0  0  0  0  0
  -21.1430   -7.0120   23.6000 C   0  0  0  0  0  3  0  0  0  0  0  0
  -20.9010   -6.2810   24.7810 C   0  0  0  0  0  3  0  0  0  0  0  0
  -21.2740   -4.9250   24.8600 C   0  0  0  0  0  0  0  0  0  0  0  0
  -21.8900   -4.3000   23.7620 C   0  0  0  0  0  3  0  0  0  0  0  0
  -22.1330   -5.0270   22.5840 C   0  0  0  0  0  0  0  0  0  0  0  0
  -22.7080   -4.4140   21.5210 F   0  0  0  0  0  0  0  0  0  0  0  0
  -21.0360   -4.2210   25.9910 F   0  0  0  0  0  0  0  0  0  0  0  0
  -23.1800  -13.6710   21.1940 C   0  0  0  0  0  0  0  0  0  0  0  0
  -22.4900  -12.9510   22.0730 N   0  0  0  0  0  0  0  0  0  0  0  0
  -22.7370  -14.7300   20.7520 O   0  0  0  0  0  0  0  0  0  0  0  0
  -22.8620  -12.0930   22.4530 H   0  0  0  0  0  0  0  0  0  0  0  0
  -21.5770  -13.2640   22.3710 H   0  0  0  0  0  0  0  0  0  0  0  0
  -25.7920  -15.3130   20.2710 N   0  0  0  0  0  0  0  0  0  0  0  0
  -25.0550  -15.9840   20.4600 H   0  0  0  0  0  0  0  0  0  0  0  0
  -26.6400  -15.7400   19.9220 H   0  0  0  0  0  0  0  0  0  0  0  0
  1  8  1  0
  1  2  1  0
  2 12  1  0
  2  6  2  0
  3  6  1  0
  3  5  1  0
  4 54  1  0
  4  3  1  0
  7  1  1  0
  7  4  2  0
  8 11  1  0
  9 10  1  0
  9 11  1  0
 10 11  1  0
 13 12  1  0
 14 25  2  0
 15 13  1  0
 15 20  1  0
 16 24  1  0
 16 26  1  0
 17 23  1  0
 17 19  1  0
 18 24  1  0
 19 20  2  0
 19 18  1  0
 21 15  2  0
 22 21  1  0
 22 17  2  0
 23 16  1  0
 24 14  1  0
 26 28  2  0
 27 26  1  0
 29 27  1  0
 30 39  2  0
 30 35  1  0
 31 27  1  0
 31 35  1  0
 32 31  1  0
 33 34  1  0
 33 32  1  0
 34 30  1  0
 35 36  2  0
 36 37  1  0
 38 37  2  0
 39 38  1  0
 40 14  1  0
 40 45  1  0
 40 41  1  0
 41 44  1  1
 41 42  1  0
 43 41  1  0
 45 48  1  0
 46 50  1  0
 46 45  1  0
 47 46  2  0
 50 49  1  0
 52 50  1  0
 52 53  1  0
 52 51  1  0
 55 68  1  0
 56 61  1  0
 57 58  1  0
 57 56  1  0
 59 58  1  0
 59 72  1  0
 59 60  1  0
 61 55  1  0
 61 60  1  0
 62 55  2  0
 63 65  1  0
 63 67  1  0
 65 68  1  0
 66 64  1  0
 67 54  1  0
 67 64  1  0
 68 66  1  0
 69 70  2  0
 70 89  1  0
 71 70  1  0
 71 74  1  0
 72 73  1  0
 72 69  1  0
 73 71  2  0
 74 75  1  0
 75 76  2  0
 77 80  1  0
 77 76  1  0
 78 77  2  0
 79 78  1  0
 79 74  2  0
 80 81  1  0
 81 86  2  0
 81 82  1  0
 82 83  2  0
 83 84  1  0
 84 88  1  0
 85 84  2  0
 86 85  1  0
 87 86  1  0
 89 90  1  0
 90 93  1  0
 90 92  1  0
 91 89  2  0
 94 69  1  0
 94 95  1  0
 96 94  1  0
M  ISO  4  12 101  13 101  55 100  68 100
M  END
>  <TORSDO>  (93) 
F 20

>  <SCORE>  (93) 
-13.642

>  <name>  (93) 
92

>  <ligand_id>  (93) 
92

>  <original_smiles>  (93) 
[H]c1c([H])c([H])c2c(c1[H])C([H])([H])C([H])([H])C([H])([H])C2([H])N([H])C(=O)C1([H])N(C(=O)C([H])(N([H])C(=O)C([H])(N([H])C([H])([H])[H])C([H])([H])[H])C(C([H])([H])[H])(C([H])([H])[H])C([H])([H])[H])C([H])([H])c2c([H])c(OC([H])([H])c3nc(C([H])([H])[H])c(OC4([H])C([H])([H])C([H])([H])N(C(=O)N5C([H])([H])C([H])([H])C([H])([H])C([H])(n6nc(-c7c([H])c([H])c(Oc8c([H])c([H])c(F)c([H])c8F)c([H])c7[H])c(C(=O)N([H])[H])c6N([H])[H])C5([H])[H])C([H])([H])C4([H])[H])nc3C([H])([H])C3([H])C([H])([H])C3([H])[H])c([H])c([H])c2C1([H])[H]

>  <smiles>  (93) 
[H]c1c([H])c([H])c2c(c1[H])C([H])([H])C([H])([H])C([H])([H])C2([H])N([H])C(=O)C1([H])N(C(=O)C([H])(N([H])C(=O)C([H])(N([H])C([H])([H])[H])C([H])([H])[H])C(C([H])([H])[H])(C([H])([H])[H])C([H])([H])[H])C([H])([H])c2c([H])c(OC([H])([H])c3nc(C([H])([H])[H])c(OC4([H])C([H])([H])C([H])([H])N(C(=O)N5C([H])([H])C([H])([H])C([H])([H])C([H])(n6nc(-c7c([H])c([H])c(Oc8c([H])c([H])c(F)c([H])c8F)c([H])c7[H])c(C(=O)N([H])[H])c6N([H])[H])C5([H])[H])C([H])([H])C4([H])[H])nc3C([H])([H])C3([H])C([H])([H])C3([H])[H])c([H])c([H])c2C1([H])[H]

$$$$
93:0:0
     RDKit          3D

 99108  0  0  1  0  0  0  0  0999 V2000
  -29.9780  -24.7000   22.0010 C   0  0  0  0  0  3  0  0  0  0  0  0
  -31.2490  -25.5070   20.0830 C   0  0  0  0  0  3  0  0  0  0  0  0
  -30.2360  -25.6970   21.0410 C   0  0  0  0  0  0  0  0  0  0  0  0
  -30.6730  -23.4780   21.9600 C   0  0  0  0  0  0  0  0  0  0  0  0
  -31.9600  -24.2930   20.0340 C   0  0  0  0  0  0  0  0  0  0  0  0
  -31.6350  -23.2550   20.9430 C   0  0  0  0  0  0  0  0  0  0  0  0
  -30.3180  -22.4160   22.9930 C   0  0  0  0  0  1  0  0  0  0  0  0
  -33.0190  -24.1040   18.9580 C   0  0  0  0  0  1  0  0  0  0  0  0
  -32.1770  -21.9810   20.7520 N   0  0  0  0  0  0  0  0  0  0  0  0
  -33.1070  -22.0530   20.3540 H   0  0  0  0  0  0  0  0  0  0  0  0
  -31.3070  -21.2350   19.8480 C   0  0  0  0  0  2  0  0  0  0  0  0
  -30.0350  -19.2980   20.8500 C   0  0  0  0  0  3  0  0  0  0  0  0
  -31.1760  -19.7600   20.1690 C   0  0  0  0  0  0  0  0  0  0  0  0
  -29.8580  -17.9130   21.0480 C   0  0  0  0  0  0  0  0  0  0  0  0
  -32.1200  -18.8080   19.7400 C   0  0  0  0  0  0  0  0  0  0  0  0
  -30.8370  -17.0140   20.5600 C   0  0  0  0  0  0  0  0  0  0  0  0
  -28.6070  -17.4220   21.7630 C   0  0  0  0  0  1  0  0  0  0  0  0
  -33.3840  -19.1850   18.9870 C   0  0  0  0  0  1  0  0  0  0  0  0
  -31.9430  -17.4880   19.9400 N   0  0  0  0  0  0  0  0  0  0  0  0
  -31.1510  -14.6060   20.0500 C   0  0  0  0  0  0  0  0  0  0  0  0
  -30.6950  -12.4950   18.8870 C   0  0  0  0  0  2  0  0  0  0  0  0
  -29.7280  -12.7660   17.7180 C   0  0  0  0  0  2  0  0  0  0  0  0
  -28.2690  -12.6530   18.1960 C   0  0  0  0  0  2  0  0  0  0  0  0
  -27.9930  -13.4830   19.4790 C   0  0  0  0  0  3  0  0  0  0  0  0
  -29.0810  -13.2370   20.5500 C   0  0  0  0  0  2  0  0  0  0  0  0
  -30.4020  -13.4770   19.9420 N   0  0  0  0  0  0  0  0  0  0  0  0
  -32.2580  -14.7090   19.5120 O   0  0  0  0  0  0  0  0  0  0  0  0
  -30.5710  -15.6250   20.7060 N   0  0  0  0  0  0  0  0  0  0  0  0
  -29.7160  -15.3950   21.1810 H   0  0  0  0  0  0  0  0  0  0  0  0
  -25.6310  -14.1150   20.2820 C   0  0  0  0  0  0  0  0  0  0  0  0
  -24.5610  -13.3560   20.6760 C   0  0  0  0  0  0  0  0  0  0  0  0
  -24.9970  -11.9970   20.6110 C   0  0  0  0  0  0  0  0  0  0  0  0
  -26.6520  -13.2210   20.0020 N   0  0  0  0  0  0  0  0  0  0  0  0
  -26.2770  -11.9410   20.2570 N   0  0  0  0  0  0  0  0  0  0  0  0
  -24.2580  -10.7440   20.8090 C   0  0  0  0  0  0  0  0  0  0  0  0
  -24.6620   -9.7930   21.7710 C   0  0  0  0  0  3  0  0  0  0  0  0
  -23.9230   -8.6030   21.9560 C   0  0  0  0  0  3  0  0  0  0  0  0
  -22.7660   -8.3580   21.1800 C   0  0  0  0  0  0  0  0  0  0  0  0
  -22.3810   -9.3010   20.2100 C   0  0  0  0  0  3  0  0  0  0  0  0
  -23.1200  -10.4810   20.0230 C   0  0  0  0  0  3  0  0  0  0  0  0
  -22.0040   -7.2180   21.2710 O   0  0  0  0  0  0  0  0  0  0  0  0
  -21.8620   -6.5420   22.4570 C   0  0  0  0  0  0  0  0  0  0  0  0
  -21.3680   -7.1720   23.6200 C   0  0  0  0  0  3  0  0  0  0  0  0
  -21.1700   -6.4210   24.7970 C   0  0  0  0  0  3  0  0  0  0  0  0
  -21.4570   -5.0430   24.8100 C   0  0  0  0  0  0  0  0  0  0  0  0
  -21.9430   -4.4140   23.6510 C   0  0  0  0  0  3  0  0  0  0  0  0
  -22.1420   -5.1610   22.4770 C   0  0  0  0  0  0  0  0  0  0  0  0
  -22.5890   -4.5440   21.3570 F   0  0  0  0  0  0  0  0  0  0  0  0
  -21.2630   -4.3210   25.9390 F   0  0  0  0  0  0  0  0  0  0  0  0
  -23.1820  -13.8530   21.0010 C   0  0  0  0  0  0  0  0  0  0  0  0
  -22.4810  -13.1750   21.9030 N   0  0  0  0  0  0  0  0  0  0  0  0
  -22.7350  -14.8790   20.4900 O   0  0  0  0  0  0  0  0  0  0  0  0
  -22.8550  -12.3460   22.3410 H   0  0  0  0  0  0  0  0  0  0  0  0
  -21.5570  -13.4910   22.1610 H   0  0  0  0  0  0  0  0  0  0  0  0
  -25.8160  -15.4830   20.1170 N   0  0  0  0  0  0  0  0  0  0  0  0
  -25.0660  -16.1520   20.2510 H   0  0  0  0  0  0  0  0  0  0  0  0
  -26.6560  -15.9060   19.7430 H   0  0  0  0  0  0  0  0  0  0  0  0
  -29.3320  -26.9030   20.9600 C   0  0  0  0  0  2  0  0  0  0  0  0
  -28.3070  -26.6150   20.0200 O   0  0  0  0  0  0  0  0  0  0  0  0
  -24.3600  -31.7130   23.0760 C   0  0  0  0  0  0  0  0  0  0  0  0
  -27.1550  -27.3580   20.0590 C   0  0  0  0  0  0  0  0  0  0  0  0
  -23.2030  -30.2750   21.4270 C   0  0  0  0  0  3  0  0  0  0  0  0
  -24.7100  -28.7630   20.0340 C   0  0  0  0  0  0  0  0  0  0  0  0
  -25.7150  -30.7040   21.2500 C   0  0  0  0  0  2  0  0  0  0  0  0
  -25.8420  -29.3330   20.6300 C   0  0  0  0  0  0  0  0  0  0  0  0
  -27.0670  -28.6400   20.6450 C   0  0  0  0  0  3  0  0  0  0  0  0
  -26.0110  -26.7940   19.4610 C   0  0  0  0  0  3  0  0  0  0  0  0
  -24.7870  -27.4870   19.4490 C   0  0  0  0  0  3  0  0  0  0  0  0
  -23.4440  -29.5880   20.0550 C   0  0  0  0  0  2  0  0  0  0  0  0
  -24.4430  -30.9120   21.9780 N   0  0  0  0  0  0  0  0  0  0  0  0
  -23.2660  -31.9650   23.6020 O   0  0  0  0  0  0  0  0  0  0  0  0
  -22.5660  -29.2430   22.3850 C   0  0  0  0  0  0  0  0  0  0  0  0
  -21.2500  -29.0270   22.2350 N   0  0  0  0  0  0  0  0  0  0  0  0
  -23.2530  -28.6420   23.2150 O   0  0  0  0  0  0  0  0  0  0  0  0
  -20.7560  -29.5650   21.5360 H   0  0  0  0  0  0  0  0  0  0  0  0
  -17.9020  -27.7520   22.6730 C   0  0  0  0  0  0  0  0  0  0  0  0
  -20.4440  -28.0780   23.0020 C   0  0  0  0  0  3  0  0  0  0  0  0
  -20.5950  -26.6430   22.4470 C   0  0  0  0  0  2  0  0  0  0  0  0
  -19.5290  -26.2810   21.4100 C   0  0  0  0  0  2  0  0  0  0  0  0
  -18.1280  -26.4000   22.0170 C   0  0  0  0  0  2  0  0  0  0  0  0
  -18.9890  -28.5470   23.1200 C   0  0  0  0  0  0  0  0  0  0  0  0
  -18.7260  -29.8140   23.6860 C   0  0  0  0  0  3  0  0  0  0  0  0
  -17.4060  -30.2840   23.8150 C   0  0  0  0  0  3  0  0  0  0  0  0
  -16.3320  -29.4860   23.3850 C   0  0  0  0  0  3  0  0  0  0  0  0
  -16.5800  -28.2220   22.8200 C   0  0  0  0  0  3  0  0  0  0  0  0
  -25.6260  -32.3730   23.7070 C   0  0  0  0  0  3  0  0  0  0  0  0
  -26.1790  -31.5910   24.9610 C   0  0  1  0  0  0  0  0  0  0  0  0
  -25.1020  -31.2860   26.0290 C   0  0  0  0  0  1  0  0  0  0  0  0
  -26.8160  -30.2500   24.5270 C   0  0  0  0  0  1  0  0  0  0  0  0
  -27.3060  -32.4120   25.6320 C   0  0  0  0  0  1  0  0  0  0  0  0
  -25.2730  -33.7520   24.0670 N   0  0  0  0  0  0  0  0  0  0  0  0
  -25.5920  -34.8320   23.3390 C   0  0  0  0  0  0  0  0  0  0  0  0
  -26.2850  -34.7730   22.3200 O   0  0  0  0  0  0  0  0  0  0  0  0
  -24.6600  -33.8680   24.8600 H   0  0  0  0  0  0  0  0  0  0  0  0
  -23.8240  -36.5830   22.9860 C   0  0  0  0  0  1  0  0  0  0  0  0
  -25.0550  -36.1930   23.8200 C   0  0  0  0  0  3  0  0  0  0  0  0
  -27.1450  -37.1100   24.7230 C   0  0  0  0  0  1  0  0  0  0  0  0
  -26.0590  -37.2750   23.7610 N   0  0  0  0  0  0  0  0  0  0  0  0
  -25.6250  -38.1800   23.9200 H   0  0  0  0  0  0  0  0  0  0  0  0
  2  3  1  0
  3  1  2  0
  4  1  1  0
  4  7  1  0
  5  2  2  0
  5  6  1  0
  6  4  2  0
  8  5  1  0
  9  6  1  0
 10  9  1  0
 11 13  1  0
 11  9  1  0
 12 14  1  0
 13 12  2  0
 14 17  1  0
 15 19  2  0
 15 13  1  0
 16 28  1  0
 16 14  2  0
 18 15  1  0
 19 16  1  0
 20 28  1  0
 21 26  1  0
 22 23  1  0
 22 21  1  0
 24 23  1  0
 24 33  1  0
 24 25  1  0
 26 20  1  0
 26 25  1  0
 27 20  2  0
 28 29  1  0
 30 31  2  0
 31 50  1  0
 32 31  1  0
 32 35  1  0
 33 34  1  0
 33 30  1  0
 34 32  2  0
 35 36  1  0
 36 37  2  0
 38 41  1  0
 38 37  1  0
 39 38  2  0
 40 39  1  0
 40 35  2  0
 41 42  1  0
 42 47  2  0
 42 43  1  0
 43 44  2  0
 44 45  1  0
 45 49  1  0
 46 45  2  0
 47 46  1  0
 48 47  1  0
 50 51  1  0
 51 54  1  0
 51 53  1  0
 52 50  2  0
 55 56  1  0
 55 30  1  0
 57 55  1  0
 58  3  1  0
 59 61  1  0
 59 58  1  0
 60 71  2  0
 61 66  1  0
 62 70  1  0
 62 72  1  0
 63 69  1  0
 63 65  1  0
 64 70  1  0
 65 66  2  0
 65 64  1  0
 67 61  2  0
 68 67  1  0
 68 63  2  0
 69 62  1  0
 70 60  1  0
 72 74  2  0
 73 72  1  0
 75 73  1  0
 76 85  2  0
 76 81  1  0
 77 73  1  0
 77 81  1  0
 78 77  1  0
 79 80  1  0
 79 78  1  0
 80 76  1  0
 81 82  2  0
 82 83  1  0
 84 83  2  0
 85 84  1  0
 86 60  1  0
 86 91  1  0
 86 87  1  0
 87 90  1  1
 87 88  1  0
 89 87  1  0
 91 94  1  0
 92 96  1  0
 92 91  1  0
 93 92  2  0
 96 95  1  0
 98 96  1  0
 98 99  1  0
 98 97  1  0
M  ISO  4  20 100  28 100  58 101  59 101
M  END
>  <TORSDO>  (94) 
F 20

>  <SCORE>  (94) 
-11.896

>  <name>  (94) 
93

>  <ligand_id>  (94) 
93

>  <original_smiles>  (94) 
[H]c1c([H])c([H])c2c(c1[H])C([H])([H])C([H])([H])C([H])([H])C2([H])N([H])C(=O)C1([H])N(C(=O)C([H])(N([H])C(=O)C([H])(N([H])C([H])([H])[H])C([H])([H])[H])C(C([H])([H])[H])(C([H])([H])[H])C([H])([H])[H])C([H])([H])c2c([H])c(OC([H])([H])c3c([H])c(C([H])([H])[H])c(N([H])C([H])([H])c4c(C([H])([H])[H])nc(N([H])C(=O)N5C([H])([H])C([H])([H])C([H])([H])C([H])(n6nc(-c7c([H])c([H])c(Oc8c([H])c([H])c(F)c([H])c8F)c([H])c7[H])c(C(=O)N([H])[H])c6N([H])[H])C5([H])[H])c(C([H])([H])[H])c4[H])c(C([H])([H])[H])c3[H])c([H])c([H])c2C1([H])[H]

>  <smiles>  (94) 
[H]c1c([H])c([H])c2c(c1[H])C([H])([H])C([H])([H])C([H])([H])C2([H])N([H])C(=O)C1([H])N(C(=O)C([H])(N([H])C(=O)C([H])(N([H])C([H])([H])[H])C([H])([H])[H])C(C([H])([H])[H])(C([H])([H])[H])C([H])([H])[H])C([H])([H])c2c([H])c(OC([H])([H])c3c([H])c(C([H])([H])[H])c(N([H])C([H])([H])c4c(C([H])([H])[H])nc(N([H])C(=O)N5C([H])([H])C([H])([H])C([H])([H])C([H])(n6nc(-c7c([H])c([H])c(Oc8c([H])c([H])c(F)c([H])c8F)c([H])c7[H])c(C(=O)N([H])[H])c6N([H])[H])C5([H])[H])c(C([H])([H])[H])c4[H])c(C([H])([H])[H])c3[H])c([H])c([H])c2C1([H])[H]

$$$$
94:0:0
     RDKit          3D

 96105  0  0  1  0  0  0  0  0999 V2000
  -28.5840  -21.2400   19.5160 C   0  0  0  0  0  3  0  0  0  0  0  0
  -29.6900  -22.9160   21.4230 C   0  0  0  0  0  3  0  0  0  0  0  0
  -29.4920  -20.6160   20.4260 C   0  0  0  0  0  0  0  0  0  0  0  0
  -28.2210  -22.6350   19.5640 C   0  0  0  0  0  0  0  0  0  0  0  0
  -30.0550  -21.5250   21.3880 C   0  0  0  0  0  0  0  0  0  0  0  0
  -28.7610  -23.5290   20.5370 C   0  0  0  0  0  0  0  0  0  0  0  0
  -27.1870  -23.1490   18.5800 C   0  0  0  0  0  1  0  0  0  0  0  0
  -30.7560  -14.6500   19.9550 C   0  0  0  0  0  0  0  0  0  0  0  0
  -30.4050  -12.3990   18.9290 C   0  0  0  0  0  2  0  0  0  0  0  0
  -29.3940  -12.5000   17.7690 C   0  0  0  0  0  2  0  0  0  0  0  0
  -27.9580  -12.3350   18.2980 C   0  0  0  0  0  2  0  0  0  0  0  0
  -27.6760  -13.2130   19.5470 C   0  0  0  0  0  3  0  0  0  0  0  0
  -28.8080  -13.1270   20.5910 C   0  0  0  0  0  2  0  0  0  0  0  0
  -30.0570  -13.4630   19.9010 N   0  0  0  0  0  0  0  0  0  0  0  0
  -31.9290  -14.6590   19.5690 O   0  0  0  0  0  0  0  0  0  0  0  0
  -29.3420  -18.0520   21.3750 C   0  0  0  0  0  2  0  0  0  0  0  0
  -29.6470  -18.2930   19.0090 C   0  0  0  0  0  2  0  0  0  0  0  0
  -29.9810  -16.5930   21.3480 C   0  0  0  0  0  2  0  0  0  0  0  0
  -30.3300  -16.8670   18.9460 C   0  0  0  0  0  2  0  0  0  0  0  0
  -29.9110  -19.0630   20.3290 C   0  0  0  0  0  3  0  0  0  0  0  0
  -30.0720  -15.8710   20.0420 N   0  0  0  0  0  0  0  0  0  0  0  0
  -25.3640  -13.8050   20.4810 C   0  0  0  0  0  0  0  0  0  0  0  0
  -24.3140  -13.0320   20.8950 C   0  0  0  0  0  0  0  0  0  0  0  0
  -24.7490  -11.6770   20.7760 C   0  0  0  0  0  0  0  0  0  0  0  0
  -26.3710  -12.9220   20.1300 N   0  0  0  0  0  0  0  0  0  0  0  0
  -26.0140  -11.6330   20.3710 N   0  0  0  0  0  0  0  0  0  0  0  0
  -24.0150  -10.4180   20.9670 C   0  0  0  0  0  0  0  0  0  0  0  0
  -24.4460   -9.4430   21.8940 C   0  0  0  0  0  3  0  0  0  0  0  0
  -23.7100   -8.2520   22.0730 C   0  0  0  0  0  3  0  0  0  0  0  0
  -22.5300   -8.0260   21.3260 C   0  0  0  0  0  0  0  0  0  0  0  0
  -22.1200   -8.9890   20.3870 C   0  0  0  0  0  3  0  0  0  0  0  0
  -22.8550  -10.1720   20.2060 C   0  0  0  0  0  3  0  0  0  0  0  0
  -21.7660   -6.8870   21.4150 O   0  0  0  0  0  0  0  0  0  0  0  0
  -21.6670   -6.1770   22.5840 C   0  0  0  0  0  0  0  0  0  0  0  0
  -21.1700   -6.7590   23.7700 C   0  0  0  0  0  3  0  0  0  0  0  0
  -21.0200   -5.9740   24.9310 C   0  0  0  0  0  3  0  0  0  0  0  0
  -21.3570   -4.6080   24.9050 C   0  0  0  0  0  0  0  0  0  0  0  0
  -21.8470   -4.0250   23.7240 C   0  0  0  0  0  3  0  0  0  0  0  0
  -21.9990   -4.8070   22.5660 C   0  0  0  0  0  0  0  0  0  0  0  0
  -22.4520   -4.2350   21.4240 F   0  0  0  0  0  0  0  0  0  0  0  0
  -21.2060   -3.8510   26.0180 F   0  0  0  0  0  0  0  0  0  0  0  0
  -22.9500  -13.5190   21.2870 C   0  0  0  0  0  0  0  0  0  0  0  0
  -22.2750  -12.7990   22.1770 N   0  0  0  0  0  0  0  0  0  0  0  0
  -22.4950  -14.5710   20.8420 O   0  0  0  0  0  0  0  0  0  0  0  0
  -22.6580  -11.9480   22.5590 H   0  0  0  0  0  0  0  0  0  0  0  0
  -21.3630  -13.1070   22.4830 H   0  0  0  0  0  0  0  0  0  0  0  0
  -25.5420  -15.1790   20.3500 N   0  0  0  0  0  0  0  0  0  0  0  0
  -24.8050  -15.8450   20.5530 H   0  0  0  0  0  0  0  0  0  0  0  0
  -26.3880  -15.6170   20.0070 H   0  0  0  0  0  0  0  0  0  0  0  0
  -30.6370  -21.5690   23.8380 C   0  0  0  0  0  1  0  0  0  0  0  0
  -31.0580  -21.0510   22.4500 C   0  0  0  0  0  3  0  0  0  0  0  0
  -32.8880  -21.0600   20.6360 C   0  0  0  0  0  1  0  0  0  0  0  0
  -33.5380  -20.7180   23.0400 C   0  0  0  0  0  1  0  0  0  0  0  0
  -32.5320  -21.4020   22.0960 C   0  0  0  0  0  3  0  0  0  0  0  0
  -28.1680  -24.9780   20.8720 C   0  0  0  0  0  2  0  0  0  0  0  0
  -28.5160  -26.2700   20.1910 O   0  0  0  0  0  0  0  0  0  0  0  0
  -24.5990  -31.6770   23.0600 C   0  0  0  0  0  0  0  0  0  0  0  0
  -27.4390  -27.1780   20.0950 C   0  0  0  0  0  0  0  0  0  0  0  0
  -23.4950  -30.2420   21.3850 C   0  0  0  0  0  3  0  0  0  0  0  0
  -25.0410  -28.7460   19.9960 C   0  0  0  0  0  0  0  0  0  0  0  0
  -26.0300  -30.6360   21.2830 C   0  0  0  0  0  2  0  0  0  0  0  0
  -26.1770  -29.2600   20.6370 C   0  0  0  0  0  0  0  0  0  0  0  0
  -27.3840  -28.4880   20.6770 C   0  0  0  0  0  3  0  0  0  0  0  0
  -26.2890  -26.7420   19.4030 C   0  0  0  0  0  3  0  0  0  0  0  0
  -25.1030  -27.4960   19.3650 C   0  0  0  0  0  3  0  0  0  0  0  0
  -23.7750  -29.5800   20.0100 C   0  0  0  0  0  2  0  0  0  0  0  0
  -24.7250  -30.8700   21.9660 N   0  0  0  0  0  0  0  0  0  0  0  0
  -23.4900  -31.9180   23.5610 O   0  0  0  0  0  0  0  0  0  0  0  0
  -22.8360  -29.2010   22.3230 C   0  0  0  0  0  0  0  0  0  0  0  0
  -21.5120  -29.0120   22.1870 N   0  0  0  0  0  0  0  0  0  0  0  0
  -23.5160  -28.5690   23.1360 O   0  0  0  0  0  0  0  0  0  0  0  0
  -21.0220  -29.5740   21.5060 H   0  0  0  0  0  0  0  0  0  0  0  0
  -18.1360  -27.8150   22.6970 C   0  0  0  0  0  0  0  0  0  0  0  0
  -20.7000  -28.0540   22.9390 C   0  0  0  0  0  3  0  0  0  0  0  0
  -20.7860  -26.6420   22.3150 C   0  0  0  0  0  2  0  0  0  0  0  0
  -19.6680  -26.3570   21.3070 C   0  0  0  0  0  2  0  0  0  0  0  0
  -18.2950  -26.4880   21.9740 C   0  0  0  0  0  2  0  0  0  0  0  0
  -19.2650  -28.5570   23.1360 C   0  0  0  0  0  0  0  0  0  0  0  0
  -19.0600  -29.8010   23.7720 C   0  0  0  0  0  3  0  0  0  0  0  0
  -17.7600  -30.3010   23.9750 C   0  0  0  0  0  3  0  0  0  0  0  0
  -16.6460  -29.5550   23.5530 C   0  0  0  0  0  3  0  0  0  0  0  0
  -16.8350  -28.3130   22.9190 C   0  0  0  0  0  3  0  0  0  0  0  0
  -25.8390  -32.3540   23.7210 C   0  0  0  0  0  3  0  0  0  0  0  0
  -26.3680  -31.5760   24.9890 C   0  0  1  0  0  0  0  0  0  0  0  0
  -25.2680  -31.2630   26.0300 C   0  0  0  0  0  1  0  0  0  0  0  0
  -27.0210  -30.2360   24.5790 C   0  0  0  0  0  1  0  0  0  0  0  0
  -27.4680  -32.4060   25.6900 C   0  0  0  0  0  1  0  0  0  0  0  0
  -25.4580  -33.7270   24.0800 N   0  0  0  0  0  0  0  0  0  0  0  0
  -25.7460  -34.8140   23.3500 C   0  0  0  0  0  0  0  0  0  0  0  0
  -26.4290  -34.7680   22.3240 O   0  0  0  0  0  0  0  0  0  0  0  0
  -24.8510  -33.8330   24.8790 H   0  0  0  0  0  0  0  0  0  0  0  0
  -23.9340  -36.5290   23.0250 C   0  0  0  0  0  1  0  0  0  0  0  0
  -25.1880  -36.1660   23.8360 C   0  0  0  0  0  3  0  0  0  0  0  0
  -27.2690  -37.1360   24.7080 C   0  0  0  0  0  1  0  0  0  0  0  0
  -26.1670  -37.2700   23.7580 N   0  0  0  0  0  0  0  0  0  0  0  0
  -25.7150  -38.1650   23.9230 H   0  0  0  0  0  0  0  0  0  0  0  0
  1  4  2  0
  1  3  1  0
  3  5  2  0
  4  6  1  0
  5  2  1  0
  5 51  1  0
  6 55  1  0
  6  2  2  0
  7  4  1  0
  8 21  1  0
  9 14  1  0
 10 11  1  0
 10  9  1  0
 12 11  1  0
 12 25  1  0
 12 13  1  0
 14  8  1  0
 14 13  1  0
 15  8  2  0
 17 20  1  0
 18 16  1  0
 19 17  1  0
 19 21  1  0
 20  3  1  0
 20 16  1  0
 21 18  1  0
 22 23  2  0
 23 42  1  0
 24 23  1  0
 24 27  1  0
 25 26  1  0
 25 22  1  0
 26 24  2  0
 27 28  1  0
 28 29  2  0
 30 33  1  0
 30 29  1  0
 31 30  2  0
 32 31  1  0
 32 27  2  0
 33 34  1  0
 34 35  1  0
 35 36  2  0
 37 36  1  0
 37 41  1  0
 38 37  2  0
 39 34  2  0
 39 38  1  0
 40 39  1  0
 42 43  1  0
 43 46  1  0
 43 45  1  0
 44 42  2  0
 47 22  1  0
 47 48  1  0
 49 47  1  0
 51 50  1  0
 52 54  1  0
 54 51  1  0
 54 53  1  0
 56 55  1  0
 57 68  2  0
 58 56  1  0
 58 63  1  0
 59 67  1  0
 59 69  1  0
 60 66  1  0
 60 62  1  0
 61 67  1  0
 62 63  2  0
 62 61  1  0
 64 58  2  0
 65 64  1  0
 65 60  2  0
 66 59  1  0
 67 57  1  0
 69 71  2  0
 70 69  1  0
 72 70  1  0
 73 82  2  0
 73 78  1  0
 74 70  1  0
 74 78  1  0
 75 74  1  0
 76 77  1  0
 76 75  1  0
 77 73  1  0
 78 79  2  0
 79 80  1  0
 81 80  2  0
 82 81  1  0
 83 57  1  0
 83 88  1  0
 83 84  1  0
 84 87  1  1
 84 85  1  0
 86 84  1  0
 88 91  1  0
 89 93  1  0
 89 88  1  0
 90 89  2  0
 93 92  1  0
 95 93  1  0
 95 96  1  0
 95 94  1  0
M  ISO  4   8 100  21 100  55 101  56 101
M  END
>  <TORSDO>  (95) 
F 19

>  <SCORE>  (95) 
-14.186

>  <name>  (95) 
94

>  <ligand_id>  (95) 
94

>  <original_smiles>  (95) 
[H]c1c([H])c([H])c2c(c1[H])C([H])([H])C([H])([H])C([H])([H])C2([H])N([H])C(=O)C1([H])N(C(=O)C([H])(N([H])C(=O)C([H])(N([H])C([H])([H])[H])C([H])([H])[H])C(C([H])([H])[H])(C([H])([H])[H])C([H])([H])[H])C([H])([H])c2c([H])c(OC([H])([H])c3c([H])c(C([H])(C([H])([H])[H])C([H])(C([H])([H])[H])C([H])([H])[H])c(C4([H])C([H])([H])C([H])([H])N(C(=O)N5C([H])([H])C([H])([H])C([H])([H])C([H])(n6nc(-c7c([H])c([H])c(Oc8c([H])c([H])c(F)c([H])c8F)c([H])c7[H])c(C(=O)N([H])[H])c6N([H])[H])C5([H])[H])C([H])([H])C4([H])[H])c([H])c3C([H])([H])[H])c([H])c([H])c2C1([H])[H]

>  <smiles>  (95) 
[H]c1c([H])c([H])c2c(c1[H])C([H])([H])C([H])([H])C([H])([H])C2([H])N([H])C(=O)C1([H])N(C(=O)C([H])(N([H])C(=O)C([H])(N([H])C([H])([H])[H])C([H])([H])[H])C(C([H])([H])[H])(C([H])([H])[H])C([H])([H])[H])C([H])([H])c2c([H])c(OC([H])([H])c3c([H])c(C([H])(C([H])([H])[H])C([H])(C([H])([H])[H])C([H])([H])[H])c(C4([H])C([H])([H])C([H])([H])N(C(=O)N5C([H])([H])C([H])([H])C([H])([H])C([H])(n6nc(-c7c([H])c([H])c(Oc8c([H])c([H])c(F)c([H])c8F)c([H])c7[H])c(C(=O)N([H])[H])c6N([H])[H])C5([H])[H])C([H])([H])C4([H])[H])c([H])c3C([H])([H])[H])c([H])c([H])c2C1([H])[H]

$$$$
95:0:0
     RDKit          3D

 95104  0  0  1  0  0  0  0  0999 V2000
  -29.4880  -21.5300   21.2250 C   0  0  0  0  0  3  0  0  0  0  0  0
  -29.1470  -22.8850   21.5310 C   0  0  0  0  0  0  0  0  0  0  0  0
  -28.6950  -23.8110   20.5290 C   0  0  0  0  0  0  0  0  0  0  0  0
  -28.6460  -23.2930   19.1990 C   0  0  0  0  0  0  0  0  0  0  0  0
  -29.4270  -21.0110   19.9140 C   0  0  0  0  0  0  0  0  0  0  0  0
  -29.0260  -21.9360   18.9050 C   0  0  0  0  0  0  0  0  0  0  0  0
  -29.2510  -23.3020   22.9900 C   0  0  0  0  0  1  0  0  0  0  0  0
  -28.1250  -24.1770   18.0710 C   0  0  0  0  0  1  0  0  0  0  0  0
  -30.1440  -21.6500   16.8560 C   0  0  0  0  0  1  0  0  0  0  0  0
  -28.9490  -21.4770   17.6130 O   0  0  0  0  0  0  0  0  0  0  0  0
  -29.8170  -19.6720   19.5660 N   0  0  0  0  0  0  0  0  0  0  0  0
  -29.8260  -19.5600   18.5560 H   0  0  0  0  0  0  0  0  0  0  0  0
  -29.3950  -18.4100   20.2510 C   0  0  0  0  0  2  0  0  0  0  0  0
  -30.7490  -14.7250   20.0450 C   0  0  0  0  0  0  0  0  0  0  0  0
  -30.4280  -12.5140   18.9380 C   0  0  0  0  0  2  0  0  0  0  0  0
  -29.4260  -12.6670   17.7760 C   0  0  0  0  0  2  0  0  0  0  0  0
  -27.9800  -12.5030   18.2810 C   0  0  0  0  0  2  0  0  0  0  0  0
  -27.6960  -13.3320   19.5640 C   0  0  0  0  0  3  0  0  0  0  0  0
  -28.8160  -13.1720   20.6130 C   0  0  0  0  0  2  0  0  0  0  0  0
  -30.0800  -13.5280   19.9570 N   0  0  0  0  0  0  0  0  0  0  0  0
  -31.8560  -14.8550   19.5140 O   0  0  0  0  0  0  0  0  0  0  0  0
  -31.1180  -17.1310   21.7970 C   0  0  0  0  0  2  0  0  0  0  0  0
  -30.0770  -16.0360   22.0110 C   0  0  0  0  0  2  0  0  0  0  0  0
  -30.5190  -17.2940   20.4070 C   0  0  0  0  0  3  0  0  0  0  0  0
  -30.0910  -15.8340   20.5530 N   0  0  0  0  0  0  0  0  0  0  0  0
  -25.3550  -13.8960   20.4530 C   0  0  0  0  0  0  0  0  0  0  0  0
  -24.3150  -13.1100   20.8650 C   0  0  0  0  0  0  0  0  0  0  0  0
  -24.7750  -11.7600   20.7630 C   0  0  0  0  0  0  0  0  0  0  0  0
  -26.3830  -13.0280   20.1240 N   0  0  0  0  0  0  0  0  0  0  0  0
  -26.0440  -11.7350   20.3700 N   0  0  0  0  0  0  0  0  0  0  0  0
  -24.0630  -10.4910   20.9600 C   0  0  0  0  0  0  0  0  0  0  0  0
  -24.5130   -9.5240   21.8870 C   0  0  0  0  0  3  0  0  0  0  0  0
  -23.7970   -8.3220   22.0730 C   0  0  0  0  0  3  0  0  0  0  0  0
  -22.6170   -8.0760   21.3310 C   0  0  0  0  0  0  0  0  0  0  0  0
  -22.1870   -9.0310   20.3920 C   0  0  0  0  0  3  0  0  0  0  0  0
  -22.9040  -10.2250   20.2050 C   0  0  0  0  0  3  0  0  0  0  0  0
  -21.8710   -6.9260   21.4260 O   0  0  0  0  0  0  0  0  0  0  0  0
  -21.7920   -6.2130   22.5940 C   0  0  0  0  0  0  0  0  0  0  0  0
  -21.3040   -6.7890   23.7880 C   0  0  0  0  0  3  0  0  0  0  0  0
  -21.1740   -6.0000   24.9490 C   0  0  0  0  0  3  0  0  0  0  0  0
  -21.5260   -4.6380   24.9170 C   0  0  0  0  0  0  0  0  0  0  0  0
  -22.0080   -4.0610   23.7300 C   0  0  0  0  0  3  0  0  0  0  0  0
  -22.1370   -4.8460   22.5700 C   0  0  0  0  0  0  0  0  0  0  0  0
  -22.5820   -4.2800   21.4220 F   0  0  0  0  0  0  0  0  0  0  0  0
  -21.3950   -3.8790   26.0300 F   0  0  0  0  0  0  0  0  0  0  0  0
  -22.9370  -13.5730   21.2390 C   0  0  0  0  0  0  0  0  0  0  0  0
  -22.2640  -12.8460   22.1240 N   0  0  0  0  0  0  0  0  0  0  0  0
  -22.4670  -14.6140   20.7810 O   0  0  0  0  0  0  0  0  0  0  0  0
  -22.6580  -12.0050   22.5200 H   0  0  0  0  0  0  0  0  0  0  0  0
  -21.3390  -13.1350   22.4110 H   0  0  0  0  0  0  0  0  0  0  0  0
  -25.5110  -15.2730   20.3100 N   0  0  0  0  0  0  0  0  0  0  0  0
  -24.7670  -15.9330   20.5110 H   0  0  0  0  0  0  0  0  0  0  0  0
  -26.3500  -15.7180   19.9600 H   0  0  0  0  0  0  0  0  0  0  0  0
  -28.0600  -25.2100   20.9470 C   0  0  0  0  0  2  0  0  0  0  0  0
  -28.3770  -26.5020   20.2940 O   0  0  0  0  0  0  0  0  0  0  0  0
  -24.6110  -31.9300   23.2480 C   0  0  0  0  0  0  0  0  0  0  0  0
  -27.2910  -27.3870   20.2390 C   0  0  0  0  0  0  0  0  0  0  0  0
  -23.4340  -30.5070   21.6090 C   0  0  0  0  0  3  0  0  0  0  0  0
  -24.9140  -28.9690   20.1990 C   0  0  0  0  0  0  0  0  0  0  0  0
  -25.9710  -30.8550   21.4410 C   0  0  0  0  0  2  0  0  0  0  0  0
  -26.0730  -29.4760   20.8030 C   0  0  0  0  0  0  0  0  0  0  0  0
  -27.2700  -28.6950   20.8160 C   0  0  0  0  0  3  0  0  0  0  0  0
  -26.1160  -26.9430   19.5980 C   0  0  0  0  0  3  0  0  0  0  0  0
  -24.9380  -27.7080   19.5850 C   0  0  0  0  0  3  0  0  0  0  0  0
  -23.6640  -29.8260   20.2350 C   0  0  0  0  0  2  0  0  0  0  0  0
  -24.6900  -31.1160   22.1550 N   0  0  0  0  0  0  0  0  0  0  0  0
  -23.5210  -32.1990   23.7720 O   0  0  0  0  0  0  0  0  0  0  0  0
  -22.7750  -29.4900   22.5700 C   0  0  0  0  0  0  0  0  0  0  0  0
  -21.4520  -29.2990   22.4350 N   0  0  0  0  0  0  0  0  0  0  0  0
  -23.4540  -28.8740   23.3960 O   0  0  0  0  0  0  0  0  0  0  0  0
  -20.9630  -29.8480   21.7410 H   0  0  0  0  0  0  0  0  0  0  0  0
  -18.0800  -28.0800   22.9180 C   0  0  0  0  0  0  0  0  0  0  0  0
  -20.6340  -28.3600   23.2050 C   0  0  0  0  0  3  0  0  0  0  0  0
  -20.7510  -26.9260   22.6370 C   0  0  0  0  0  2  0  0  0  0  0  0
  -19.6590  -26.5890   21.6170 C   0  0  0  0  0  2  0  0  0  0  0  0
  -18.2720  -26.7290   22.2500 C   0  0  0  0  0  2  0  0  0  0  0  0
  -19.1910  -28.8530   23.3510 C   0  0  0  0  0  0  0  0  0  0  0  0
  -18.9580  -30.1170   23.9340 C   0  0  0  0  0  3  0  0  0  0  0  0
  -17.6480  -30.6100   24.0870 C   0  0  0  0  0  3  0  0  0  0  0  0
  -16.5520  -29.8350   23.6710 C   0  0  0  0  0  3  0  0  0  0  0  0
  -16.7690  -28.5700   23.0940 C   0  0  0  0  0  3  0  0  0  0  0  0
  -25.8820  -32.5800   23.8770 C   0  0  0  0  0  3  0  0  0  0  0  0
  -26.3940  -31.8220   25.1630 C   0  0  1  0  0  0  0  0  0  0  0  0
  -25.2910  -31.5730   26.2180 C   0  0  0  0  0  1  0  0  0  0  0  0
  -27.0010  -30.4510   24.7860 C   0  0  0  0  0  1  0  0  0  0  0  0
  -27.5280  -32.6340   25.8330 C   0  0  0  0  0  1  0  0  0  0  0  0
  -25.5570  -33.9770   24.1950 N   0  0  0  0  0  0  0  0  0  0  0  0
  -25.9010  -35.0290   23.4390 C   0  0  0  0  0  0  0  0  0  0  0  0
  -26.5940  -34.9240   22.4240 O   0  0  0  0  0  0  0  0  0  0  0  0
  -24.9450  -34.1340   24.9820 H   0  0  0  0  0  0  0  0  0  0  0  0
  -24.1830  -36.8170   23.0260 C   0  0  0  0  0  1  0  0  0  0  0  0
  -25.3950  -36.4160   23.8790 C   0  0  0  0  0  3  0  0  0  0  0  0
  -27.4970  -37.3060   24.7860 C   0  0  0  0  0  1  0  0  0  0  0  0
  -26.4280  -37.4720   23.8040 N   0  0  0  0  0  0  0  0  0  0  0  0
  -26.0160  -38.3910   23.9360 H   0  0  0  0  0  0  0  0  0  0  0  0
  1  2  1  0
  2  7  1  0
  3 54  1  0
  3  2  2  0
  4  3  1  0
  5  1  2  0
  6  4  2  0
  6  5  1  0
  8  4  1  0
  9 10  1  0
 10  6  1  0
 11  5  1  0
 11 13  1  0
 12 11  1  0
 14 25  1  0
 15 20  1  0
 16 17  1  0
 16 15  1  0
 18 17  1  0
 18 29  1  0
 18 19  1  0
 20 14  1  0
 20 19  1  0
 21 14  2  0
 22 23  1  0
 24 13  1  0
 24 25  1  0
 24 22  1  0
 25 23  1  0
 26 27  2  0
 27 46  1  0
 28 27  1  0
 28 31  1  0
 29 30  1  0
 29 26  1  0
 30 28  2  0
 31 32  1  0
 32 33  2  0
 34 37  1  0
 34 33  1  0
 35 34  2  0
 36 35  1  0
 36 31  2  0
 37 38  1  0
 38 39  1  0
 39 40  2  0
 41 40  1  0
 41 45  1  0
 42 41  2  0
 43 38  2  0
 43 42  1  0
 44 43  1  0
 46 47  1  0
 47 50  1  0
 47 49  1  0
 48 46  2  0
 51 26  1  0
 51 52  1  0
 53 51  1  0
 55 54  1  0
 56 67  2  0
 57 55  1  0
 57 62  1  0
 58 66  1  0
 58 68  1  0
 59 65  1  0
 59 61  1  0
 60 66  1  0
 61 62  2  0
 61 60  1  0
 63 57  2  0
 64 63  1  0
 64 59  2  0
 65 58  1  0
 66 56  1  0
 68 70  2  0
 69 68  1  0
 71 69  1  0
 72 81  2  0
 72 77  1  0
 73 69  1  0
 73 77  1  0
 74 73  1  0
 75 76  1  0
 75 74  1  0
 76 72  1  0
 77 78  2  0
 78 79  1  0
 80 79  2  0
 81 80  1  0
 82 56  1  0
 82 87  1  0
 82 83  1  0
 83 86  1  1
 83 84  1  0
 85 83  1  0
 87 90  1  0
 88 92  1  0
 88 87  1  0
 89 88  2  0
 92 91  1  0
 94 92  1  0
 94 95  1  0
 94 93  1  0
M  ISO  4  14 100  25 100  54 101  55 101
M  END
>  <TORSDO>  (96) 
F 20

>  <SCORE>  (96) 
-13.714

>  <name>  (96) 
95

>  <ligand_id>  (96) 
95

>  <original_smiles>  (96) 
[H]c1c([H])c([H])c2c(c1[H])C([H])([H])C([H])([H])C([H])([H])C2([H])N([H])C(=O)C1([H])N(C(=O)C([H])(N([H])C(=O)C([H])(N([H])C([H])([H])[H])C([H])([H])[H])C(C([H])([H])[H])(C([H])([H])[H])C([H])([H])[H])C([H])([H])c2c([H])c(OC([H])([H])c3c(C([H])([H])[H])c([H])c(N([H])C([H])([H])C4([H])N(C(=O)N5C([H])([H])C([H])([H])C([H])([H])C([H])(n6nc(-c7c([H])c([H])c(Oc8c([H])c([H])c(F)c([H])c8F)c([H])c7[H])c(C(=O)N([H])[H])c6N([H])[H])C5([H])[H])C([H])([H])C4([H])[H])c(OC([H])([H])[H])c3C([H])([H])[H])c([H])c([H])c2C1([H])[H]

>  <smiles>  (96) 
[H]c1c([H])c([H])c2c(c1[H])C([H])([H])C([H])([H])C([H])([H])C2([H])N([H])C(=O)C1([H])N(C(=O)C([H])(N([H])C(=O)C([H])(N([H])C([H])([H])[H])C([H])([H])[H])C(C([H])([H])[H])(C([H])([H])[H])C([H])([H])[H])C([H])([H])c2c([H])c(OC([H])([H])c3c(C([H])([H])[H])c([H])c(N([H])C([H])([H])C4([H])N(C(=O)N5C([H])([H])C([H])([H])C([H])([H])C([H])(n6nc(-c7c([H])c([H])c(Oc8c([H])c([H])c(F)c([H])c8F)c([H])c7[H])c(C(=O)N([H])[H])c6N([H])[H])C5([H])[H])C([H])([H])C4([H])[H])c(OC([H])([H])[H])c3C([H])([H])[H])c([H])c([H])c2C1([H])[H]

$$$$
96:0:0
     RDKit          3D

 97107  0  0  1  0  0  0  0  0999 V2000
  -28.6980  -22.3760   19.7350 C   0  0  0  0  0  3  0  0  0  0  0  0
  -28.7320  -23.7940   20.0820 C   0  0  0  0  0  0  0  0  0  0  0  0
  -29.7510  -23.9020   21.0040 C   0  0  0  0  0  0  0  0  0  0  0  0
  -29.6600  -21.6890   20.4500 C   0  0  0  0  0  0  0  0  0  0  0  0
  -30.2830  -22.6250   21.2780 N   0  0  0  0  0  0  0  0  0  0  0  0
  -30.2730  -26.4860   21.0280 C   0  0  0  0  0  2  0  0  0  0  0  0
  -31.5700  -25.7880   21.3310 C   0  0  0  0  0  2  0  0  0  0  0  0
  -30.2550  -25.1330   21.7080 C   0  0  0  0  0  3  0  0  0  0  0  0
  -32.5510  -21.6260   21.6620 C   0  0  0  0  0  1  0  0  0  0  0  0
  -30.7880  -21.6280   23.5200 C   0  0  0  0  0  1  0  0  0  0  0  0
  -31.3350  -22.3450   22.2740 C   0  0  0  0  0  3  0  0  0  0  0  0
  -30.1340  -20.3290   20.3620 N   0  0  0  0  0  0  0  0  0  0  0  0
  -30.9670  -20.2060   20.9260 H   0  0  0  0  0  0  0  0  0  0  0  0
  -30.5520  -14.7060   19.9470 C   0  0  0  0  0  0  0  0  0  0  0  0
  -30.2780  -12.4260   18.9860 C   0  0  0  0  0  2  0  0  0  0  0  0
  -29.2830  -12.4890   17.8080 C   0  0  0  0  0  2  0  0  0  0  0  0
  -27.8370  -12.3250   18.3150 C   0  0  0  0  0  2  0  0  0  0  0  0
  -27.5230  -13.2290   19.5380 C   0  0  0  0  0  3  0  0  0  0  0  0
  -28.6380  -13.1630   20.6040 C   0  0  0  0  0  2  0  0  0  0  0  0
  -29.9000  -13.4960   19.9350 N   0  0  0  0  0  0  0  0  0  0  0  0
  -31.7170  -14.7730   19.5390 O   0  0  0  0  0  0  0  0  0  0  0  0
  -29.5500  -18.0480   21.3120 C   0  0  0  0  0  2  0  0  0  0  0  0
  -30.1830  -18.2410   18.9590 C   0  0  0  0  0  2  0  0  0  0  0  0
  -29.1470  -16.5340   21.0870 C   0  0  0  0  0  2  0  0  0  0  0  0
  -29.7240  -16.7560   18.7390 C   0  0  0  0  0  2  0  0  0  0  0  0
  -29.4540  -19.0230   20.0880 C   0  0  0  0  0  3  0  0  0  0  0  0
  -29.7820  -15.8630   19.9270 N   0  0  0  0  0  0  0  0  0  0  0  0
  -25.1900  -13.8180   20.4300 C   0  0  0  0  0  0  0  0  0  0  0  0
  -24.1410  -13.0410   20.8400 C   0  0  0  0  0  0  0  0  0  0  0  0
  -24.5850  -11.6880   20.7350 C   0  0  0  0  0  0  0  0  0  0  0  0
  -26.2090  -12.9380   20.1020 N   0  0  0  0  0  0  0  0  0  0  0  0
  -25.8550  -11.6480   20.3470 N   0  0  0  0  0  0  0  0  0  0  0  0
  -23.8580  -10.4260   20.9280 C   0  0  0  0  0  0  0  0  0  0  0  0
  -24.3020   -9.4490   21.8450 C   0  0  0  0  0  3  0  0  0  0  0  0
  -23.5750   -8.2530   22.0270 C   0  0  0  0  0  3  0  0  0  0  0  0
  -22.3870   -8.0270   21.2910 C   0  0  0  0  0  0  0  0  0  0  0  0
  -21.9610   -8.9920   20.3630 C   0  0  0  0  0  3  0  0  0  0  0  0
  -22.6900  -10.1790   20.1790 C   0  0  0  0  0  3  0  0  0  0  0  0
  -21.6290   -6.8850   21.3830 O   0  0  0  0  0  0  0  0  0  0  0  0
  -21.5470   -6.1670   22.5490 C   0  0  0  0  0  0  0  0  0  0  0  0
  -21.0360   -6.7320   23.7380 C   0  0  0  0  0  3  0  0  0  0  0  0
  -20.9050   -5.9390   24.8960 C   0  0  0  0  0  3  0  0  0  0  0  0
  -21.2750   -4.5820   24.8650 C   0  0  0  0  0  0  0  0  0  0  0  0
  -21.7790   -4.0150   23.6800 C   0  0  0  0  0  3  0  0  0  0  0  0
  -21.9120   -4.8050   22.5250 C   0  0  0  0  0  0  0  0  0  0  0  0
  -22.3780   -4.2500   21.3810 F   0  0  0  0  0  0  0  0  0  0  0  0
  -21.1420   -3.8170   25.9740 F   0  0  0  0  0  0  0  0  0  0  0  0
  -22.7690  -13.5230   21.2130 C   0  0  0  0  0  0  0  0  0  0  0  0
  -22.0910  -12.8100   22.1050 N   0  0  0  0  0  0  0  0  0  0  0  0
  -22.3100  -14.5650   20.7490 O   0  0  0  0  0  0  0  0  0  0  0  0
  -22.4760  -11.9650   22.5010 H   0  0  0  0  0  0  0  0  0  0  0  0
  -21.1720  -13.1140   22.3960 H   0  0  0  0  0  0  0  0  0  0  0  0
  -25.3600  -15.1920   20.2870 N   0  0  0  0  0  0  0  0  0  0  0  0
  -24.6100  -15.8510   20.4650 H   0  0  0  0  0  0  0  0  0  0  0  0
  -26.1950  -15.6300   19.9230 H   0  0  0  0  0  0  0  0  0  0  0  0
  -27.7520  -24.9240   19.5740 C   0  0  0  0  0  2  0  0  0  0  0  0
  -28.0070  -26.3800   19.7800 O   0  0  0  0  0  0  0  0  0  0  0  0
  -24.4290  -31.7320   23.0690 C   0  0  0  0  0  0  0  0  0  0  0  0
  -26.9060  -27.2620   19.7620 C   0  0  0  0  0  0  0  0  0  0  0  0
  -23.1570  -30.3770   21.4460 C   0  0  0  0  0  3  0  0  0  0  0  0
  -24.5440  -28.8840   19.9020 C   0  0  0  0  0  0  0  0  0  0  0  0
  -25.6850  -30.7080   21.1580 C   0  0  0  0  0  2  0  0  0  0  0  0
  -25.7390  -29.3500   20.4650 C   0  0  0  0  0  0  0  0  0  0  0  0
  -26.9210  -28.5500   20.3890 C   0  0  0  0  0  3  0  0  0  0  0  0
  -25.6900  -26.8720   19.1510 C   0  0  0  0  0  3  0  0  0  0  0  0
  -24.5240  -27.6520   19.2340 C   0  0  0  0  0  3  0  0  0  0  0  0
  -23.3080  -29.7490   20.0370 C   0  0  0  0  0  2  0  0  0  0  0  0
  -24.4450  -30.9560   21.9460 N   0  0  0  0  0  0  0  0  0  0  0  0
  -23.3700  -31.9890   23.6600 O   0  0  0  0  0  0  0  0  0  0  0  0
  -22.5430  -29.3280   22.4040 C   0  0  0  0  0  0  0  0  0  0  0  0
  -21.2240  -29.1010   22.2910 N   0  0  0  0  0  0  0  0  0  0  0  0
  -23.2540  -28.7220   23.2110 O   0  0  0  0  0  0  0  0  0  0  0  0
  -20.7070  -29.6450   21.6140 H   0  0  0  0  0  0  0  0  0  0  0  0
  -17.9090  -27.7340   22.7760 C   0  0  0  0  0  0  0  0  0  0  0  0
  -20.4480  -28.1290   23.0640 C   0  0  0  0  0  3  0  0  0  0  0  0
  -20.6290  -26.6990   22.5020 C   0  0  0  0  0  2  0  0  0  0  0  0
  -19.5530  -26.3110   21.4820 C   0  0  0  0  0  2  0  0  0  0  0  0
  -18.1610  -26.3900   22.1140 C   0  0  0  0  0  2  0  0  0  0  0  0
  -18.9820  -28.5570   23.2080 C   0  0  0  0  0  0  0  0  0  0  0  0
  -18.6930  -29.8120   23.7860 C   0  0  0  0  0  3  0  0  0  0  0  0
  -17.3620  -30.2450   23.9380 C   0  0  0  0  0  3  0  0  0  0  0  0
  -16.3020  -29.4190   23.5230 C   0  0  0  0  0  3  0  0  0  0  0  0
  -16.5770  -28.1660   22.9470 C   0  0  0  0  0  3  0  0  0  0  0  0
  -25.7370  -32.3540   23.6480 C   0  0  0  0  0  3  0  0  0  0  0  0
  -26.3320  -31.5310   24.8570 C   0  0  1  0  0  0  0  0  0  0  0  0
  -25.3010  -31.2270   25.9680 C   0  0  0  0  0  1  0  0  0  0  0  0
  -26.9120  -30.1830   24.3700 C   0  0  0  0  0  1  0  0  0  0  0  0
  -27.5050  -32.3120   25.4940 C   0  0  0  0  0  1  0  0  0  0  0  0
  -25.4300  -33.7310   24.0610 N   0  0  0  0  0  0  0  0  0  0  0  0
  -25.7150  -34.8240   23.3420 C   0  0  0  0  0  0  0  0  0  0  0  0
  -26.3370  -34.7800   22.2760 O   0  0  0  0  0  0  0  0  0  0  0  0
  -24.8720  -33.8380   24.8950 H   0  0  0  0  0  0  0  0  0  0  0  0
  -23.9620  -36.6180   23.1520 C   0  0  0  0  0  1  0  0  0  0  0  0
  -25.2380  -36.1830   23.8910 C   0  0  0  0  0  3  0  0  0  0  0  0
  -27.3900  -37.0510   24.6920 C   0  0  0  0  0  1  0  0  0  0  0  0
  -26.2570  -37.2490   23.7920 N   0  0  0  0  0  0  0  0  0  0  0  0
  -25.8490  -38.1580   23.9920 H   0  0  0  0  0  0  0  0  0  0  0  0
  1  2  1  0
  1  4  2  0
  2  3  2  0
  3  5  1  0
  3  8  1  0
  4  5  1  0
  5 11  1  0
  6  7  1  0
  6  8  1  0
  7  8  1  0
  9 11  1  0
 11 10  1  0
 12  4  1  0
 12 13  1  0
 15 20  1  0
 16 17  1  0
 16 15  1  0
 18 17  1  0
 18 31  1  0
 18 19  1  0
 20 14  1  0
 20 19  1  0
 21 14  2  0
 23 26  1  0
 24 22  1  0
 25 23  1  0
 25 27  1  0
 26 12  1  0
 26 22  1  0
 27 14  1  0
 27 24  1  0
 28 29  2  0
 29 48  1  0
 30 29  1  0
 30 33  1  0
 31 32  1  0
 31 28  1  0
 32 30  2  0
 33 34  1  0
 34 35  2  0
 36 39  1  0
 36 35  1  0
 37 36  2  0
 38 37  1  0
 38 33  2  0
 39 40  1  0
 40 41  1  0
 41 42  2  0
 43 42  1  0
 43 47  1  0
 44 43  2  0
 45 40  2  0
 45 44  1  0
 46 45  1  0
 48 49  1  0
 49 52  1  0
 49 51  1  0
 50 48  2  0
 53 28  1  0
 53 54  1  0
 55 53  1  0
 56 57  1  0
 56  2  1  0
 58 69  2  0
 59 57  1  0
 59 64  1  0
 60 68  1  0
 60 70  1  0
 61 67  1  0
 61 63  1  0
 62 68  1  0
 63 62  1  0
 64 63  2  0
 65 66  1  0
 65 59  2  0
 66 61  2  0
 67 60  1  0
 68 58  1  0
 70 72  2  0
 71 70  1  0
 73 71  1  0
 74 83  2  0
 74 79  1  0
 75 71  1  0
 75 79  1  0
 76 75  1  0
 77 78  1  0
 77 76  1  0
 78 74  1  0
 79 80  2  0
 80 81  1  0
 82 81  2  0
 83 82  1  0
 84 58  1  0
 84 89  1  0
 84 85  1  0
 85 88  1  1
 85 86  1  0
 87 85  1  0
 89 92  1  0
 90 94  1  0
 90 89  1  0
 91 90  2  0
 94 93  1  0
 96 94  1  0
 96 97  1  0
 96 95  1  0
M  ISO  4  14 100  27 100  56 101  57 101
M  END
>  <TORSDO>  (97) 
F 20

>  <SCORE>  (97) 
-13.083

>  <name>  (97) 
96

>  <ligand_id>  (97) 
96

>  <original_smiles>  (97) 
[H]c1c([H])c([H])c2c(c1[H])C([H])([H])C([H])([H])C([H])([H])C2([H])N([H])C(=O)C1([H])N(C(=O)C([H])(N([H])C(=O)C([H])(N([H])C([H])([H])[H])C([H])([H])[H])C(C([H])([H])[H])(C([H])([H])[H])C([H])([H])[H])C([H])([H])c2c([H])c(OC([H])([H])c3c([H])c(N([H])C4([H])C([H])([H])C([H])([H])N(C(=O)N5C([H])([H])C([H])([H])C([H])([H])C([H])(n6nc(-c7c([H])c([H])c(Oc8c([H])c([H])c(F)c([H])c8F)c([H])c7[H])c(C(=O)N([H])[H])c6N([H])[H])C5([H])[H])C([H])([H])C4([H])[H])n(C([H])(C([H])([H])[H])C([H])([H])[H])c3C3([H])C([H])([H])C3([H])[H])c([H])c([H])c2C1([H])[H]

>  <smiles>  (97) 
[H]c1c([H])c([H])c2c(c1[H])C([H])([H])C([H])([H])C([H])([H])C2([H])N([H])C(=O)C1([H])N(C(=O)C([H])(N([H])C(=O)C([H])(N([H])C([H])([H])[H])C([H])([H])[H])C(C([H])([H])[H])(C([H])([H])[H])C([H])([H])[H])C([H])([H])c2c([H])c(OC([H])([H])c3c([H])c(N([H])C4([H])C([H])([H])C([H])([H])N(C(=O)N5C([H])([H])C([H])([H])C([H])([H])C([H])(n6nc(-c7c([H])c([H])c(Oc8c([H])c([H])c(F)c([H])c8F)c([H])c7[H])c(C(=O)N([H])[H])c6N([H])[H])C5([H])[H])C([H])([H])C4([H])[H])n(C([H])(C([H])([H])[H])C([H])([H])[H])c3C3([H])C([H])([H])C3([H])[H])c([H])c([H])c2C1([H])[H]

$$$$
97:0:0
     RDKit          3D

103113  0  0  1  0  0  0  0  0999 V2000
  -31.8300  -22.0860   17.2150 N   0  0  0  0  0  0  0  0  0  0  0  0
  -31.4970  -21.7680   16.3070 H   0  0  0  0  0  0  0  0  0  0  0  0
  -29.8670  -23.5100   17.8170 C   0  0  0  0  0  2  0  0  0  0  0  0
  -31.8310  -24.4670   16.5470 C   0  0  0  0  0  2  0  0  0  0  0  0
  -29.3260  -24.9460   17.6710 C   0  0  0  0  0  2  0  0  0  0  0  0
  -31.5260  -25.8960   17.0480 C   0  0  0  0  0  2  0  0  0  0  0  0
  -31.3990  -23.4260   17.5840 C   0  0  0  0  0  3  0  0  0  0  0  0
  -30.3810  -25.9350   18.0020 N   0  0  1  0  0  4  0  0  0  0  0  0
  -30.7580  -25.6220   18.8840 H   0  0  0  0  0  0  0  0  0  0  0  0
  -29.8800  -27.3020   18.2750 C   0  0  0  0  0  2  0  0  0  0  0  0
  -29.6270  -27.4980   19.7760 C   0  0  0  0  0  2  0  0  0  0  0  0
  -28.4800  -26.7400   20.1770 O   0  0  0  0  0  0  0  0  0  0  0  0
  -24.6010  -31.8790   23.2150 C   0  0  0  0  0  0  0  0  0  0  0  0
  -27.2990  -27.4390   20.2370 C   0  0  0  0  0  0  0  0  0  0  0  0
  -23.4040  -30.4470   21.5830 C   0  0  0  0  0  3  0  0  0  0  0  0
  -24.8740  -28.8760   20.2120 C   0  0  0  0  0  0  0  0  0  0  0  0
  -25.9220  -30.8190   21.3990 C   0  0  0  0  0  2  0  0  0  0  0  0
  -26.0120  -29.4340   20.8020 C   0  0  0  0  0  0  0  0  0  0  0  0
  -27.2160  -28.7120   20.8400 C   0  0  0  0  0  3  0  0  0  0  0  0
  -26.1390  -26.8660   19.6770 C   0  0  0  0  0  3  0  0  0  0  0  0
  -24.9250  -27.5820   19.6600 C   0  0  0  0  0  3  0  0  0  0  0  0
  -23.6250  -29.7280   20.2230 C   0  0  0  0  0  2  0  0  0  0  0  0
  -24.6590  -31.0650   22.1240 N   0  0  0  0  0  0  0  0  0  0  0  0
  -23.5190  -32.1540   23.7490 O   0  0  0  0  0  0  0  0  0  0  0  0
  -22.7500  -29.4470   22.5610 C   0  0  0  0  0  0  0  0  0  0  0  0
  -21.4260  -29.2680   22.4340 N   0  0  0  0  0  0  0  0  0  0  0  0
  -23.4290  -28.8290   23.3860 O   0  0  0  0  0  0  0  0  0  0  0  0
  -20.9390  -29.8140   21.7350 H   0  0  0  0  0  0  0  0  0  0  0  0
  -18.0420  -28.1350   22.9690 C   0  0  0  0  0  0  0  0  0  0  0  0
  -20.6040  -28.3470   23.2180 C   0  0  0  0  0  3  0  0  0  0  0  0
  -20.6790  -26.9120   22.6460 C   0  0  0  0  0  2  0  0  0  0  0  0
  -19.5640  -26.6060   21.6430 C   0  0  0  0  0  2  0  0  0  0  0  0
  -18.1900  -26.7790   22.2980 C   0  0  0  0  0  2  0  0  0  0  0  0
  -19.1770  -28.8780   23.3870 C   0  0  0  0  0  0  0  0  0  0  0  0
  -18.9880  -30.1470   23.9760 C   0  0  0  0  0  3  0  0  0  0  0  0
  -17.6950  -30.6750   24.1490 C   0  0  0  0  0  3  0  0  0  0  0  0
  -16.5730  -29.9280   23.7490 C   0  0  0  0  0  3  0  0  0  0  0  0
  -16.7470  -28.6600   23.1660 C   0  0  0  0  0  3  0  0  0  0  0  0
  -25.8880  -32.5190   23.8290 C   0  0  0  0  0  3  0  0  0  0  0  0
  -25.5690  -33.9130   24.1630 N   0  0  0  0  0  0  0  0  0  0  0  0
  -25.9060  -34.9710   23.4130 C   0  0  0  0  0  0  0  0  0  0  0  0
  -26.5910  -34.8800   22.3910 O   0  0  0  0  0  0  0  0  0  0  0  0
  -24.9660  -34.0600   24.9590 H   0  0  0  0  0  0  0  0  0  0  0  0
  -24.1890  -36.7680   23.0280 C   0  0  0  0  0  1  0  0  0  0  0  0
  -25.4050  -36.3550   23.8720 C   0  0  0  0  0  3  0  0  0  0  0  0
  -27.5100  -37.2370   24.7790 C   0  0  0  0  0  1  0  0  0  0  0  0
  -26.4380  -37.4110   23.8020 N   0  0  0  0  0  0  0  0  0  0  0  0
  -26.0230  -38.3270   23.9510 H   0  0  0  0  0  0  0  0  0  0  0  0
  -26.4250  -31.7480   25.0970 C   0  0  1  0  0  0  0  0  0  0  0  0
  -25.3440  -31.4730   26.1650 C   0  0  0  0  0  1  0  0  0  0  0  0
  -27.0410  -30.3890   24.6910 C   0  0  0  0  0  1  0  0  0  0  0  0
  -27.5540  -32.5640   25.7710 C   0  0  0  0  0  1  0  0  0  0  0  0
  -30.8330  -18.8550   18.6700 C   0  0  0  0  0  3  0  0  0  0  0  0
  -31.9190  -21.2770   19.5450 C   0  0  0  0  0  3  0  0  0  0  0  0
  -31.0430  -19.0560   20.0590 C   0  0  0  0  0  0  0  0  0  0  0  0
  -31.6060  -20.2840   20.4940 C   0  0  0  0  0  0  0  0  0  0  0  0
  -31.6320  -21.0870   18.1750 C   0  0  0  0  0  0  0  0  0  0  0  0
  -31.0870  -19.8720   17.7260 C   0  0  0  0  0  0  0  0  0  0  0  0
  -31.8980  -20.5700   21.9600 C   0  0  0  0  0  1  0  0  0  0  0  0
  -30.7540  -14.2840   20.1710 C   0  0  0  0  0  0  0  0  0  0  0  0
  -30.2510  -12.2910   18.8050 C   0  0  0  0  0  2  0  0  0  0  0  0
  -29.2500  -12.6560   17.6930 C   0  0  0  0  0  2  0  0  0  0  0  0
  -27.8010  -12.5260   18.2000 C   0  0  0  0  0  2  0  0  0  0  0  0
  -27.5850  -13.2510   19.5550 C   0  0  0  0  0  3  0  0  0  0  0  0
  -28.6910  -12.8490   20.5590 C   0  0  0  0  0  2  0  0  0  0  0  0
  -29.9930  -13.1750   19.9570 N   0  0  0  0  0  0  0  0  0  0  0  0
  -31.7410  -14.5210   19.4650 O   0  0  0  0  0  0  0  0  0  0  0  0
  -29.4350  -17.1370   20.6960 C   0  0  0  0  0  2  0  0  0  0  0  0
  -31.9640  -17.0250   21.2170 C   0  0  0  0  0  2  0  0  0  0  0  0
  -29.3110  -15.8390   21.5020 C   0  0  0  0  0  2  0  0  0  0  0  0
  -31.6440  -15.7020   21.9510 C   0  0  0  0  0  2  0  0  0  0  0  0
  -30.7260  -17.9320   21.0480 C   0  0  0  0  0  3  0  0  0  0  0  0
  -30.5190  -15.0180   21.2950 N   0  0  0  0  0  0  0  0  0  0  0  0
  -25.2310  -13.8880   20.3890 C   0  0  0  0  0  0  0  0  0  0  0  0
  -24.1710  -13.1210   20.8010 C   0  0  0  0  0  0  0  0  0  0  0  0
  -24.6090  -11.7650   20.7160 C   0  0  0  0  0  0  0  0  0  0  0  0
  -26.2490  -12.9940   20.0890 N   0  0  0  0  0  0  0  0  0  0  0  0
  -25.8790  -11.7120   20.3370 N   0  0  0  0  0  0  0  0  0  0  0  0
  -23.8740  -10.5110   20.9210 C   0  0  0  0  0  0  0  0  0  0  0  0
  -24.3070   -9.5460   21.8570 C   0  0  0  0  0  3  0  0  0  0  0  0
  -23.5750   -8.3550   22.0490 C   0  0  0  0  0  3  0  0  0  0  0  0
  -22.3940   -8.1200   21.3060 C   0  0  0  0  0  0  0  0  0  0  0  0
  -21.9800   -9.0720   20.3580 C   0  0  0  0  0  3  0  0  0  0  0  0
  -22.7120  -10.2560   20.1640 C   0  0  0  0  0  3  0  0  0  0  0  0
  -21.6320   -6.9820   21.4090 O   0  0  0  0  0  0  0  0  0  0  0  0
  -21.5630   -6.2640   22.5760 C   0  0  0  0  0  0  0  0  0  0  0  0
  -21.1060   -6.8440   23.7800 C   0  0  0  0  0  3  0  0  0  0  0  0
  -20.9840   -6.0520   24.9400 C   0  0  0  0  0  3  0  0  0  0  0  0
  -21.3090   -4.6830   24.8970 C   0  0  0  0  0  0  0  0  0  0  0  0
  -21.7610   -4.1050   23.6980 C   0  0  0  0  0  3  0  0  0  0  0  0
  -21.8840   -4.8930   22.5400 C   0  0  0  0  0  0  0  0  0  0  0  0
  -22.2980   -4.3250   21.3830 F   0  0  0  0  0  0  0  0  0  0  0  0
  -21.1850   -3.9220   26.0090 F   0  0  0  0  0  0  0  0  0  0  0  0
  -22.7990  -13.6130   21.1590 C   0  0  0  0  0  0  0  0  0  0  0  0
  -22.1060  -12.9050   22.0470 N   0  0  0  0  0  0  0  0  0  0  0  0
  -22.3500  -14.6580   20.6920 O   0  0  0  0  0  0  0  0  0  0  0  0
  -22.4790  -12.0560   22.4480 H   0  0  0  0  0  0  0  0  0  0  0  0
  -21.1850  -13.2140   22.3260 H   0  0  0  0  0  0  0  0  0  0  0  0
  -25.4060  -15.2590   20.2320 N   0  0  0  0  0  0  0  0  0  0  0  0
  -24.6580  -15.9200   20.4110 H   0  0  0  0  0  0  0  0  0  0  0  0
  -26.2430  -15.7000   19.8730 H   0  0  0  0  0  0  0  0  0  0  0  0
  -30.1250  -18.6170   15.9020 C   0  0  0  0  0  1  0  0  0  0  0  0
  -30.8240  -19.7630   16.3720 O   0  0  0  0  0  0  0  0  0  0  0  0
  1 57  1  0
  2  1  1  0
  4  6  1  0
  4  7  1  0
  5  3  1  0
  5  8  1  0
  6  8  1  0
  7  1  1  0
  7  3  1  0
  8 10  1  0
  8  9  1  1
 10 11  1  0
 11 12  1  0
 12 14  1  0
 13 24  2  0
 14 19  1  0
 15 23  1  0
 15 25  1  0
 16 22  1  0
 16 18  1  0
 17 23  1  0
 18 19  2  0
 18 17  1  0
 20 14  2  0
 21 20  1  0
 21 16  2  0
 22 15  1  0
 23 13  1  0
 25 27  2  0
 26 25  1  0
 28 26  1  0
 29 38  2  0
 29 34  1  0
 30 26  1  0
 30 34  1  0
 31 30  1  0
 32 33  1  0
 32 31  1  0
 33 29  1  0
 34 35  2  0
 35 36  1  0
 37 36  2  0
 38 37  1  0
 39 13  1  0
 39 40  1  0
 39 49  1  0
 40 43  1  0
 41 45  1  0
 41 40  1  0
 42 41  2  0
 45 44  1  0
 47 45  1  0
 47 48  1  0
 47 46  1  0
 49 52  1  1
 49 50  1  0
 51 49  1  0
 53 55  1  0
 54 56  1  0
 55 56  2  0
 56 59  1  0
 57 54  2  0
 58 57  1  0
 58 53  2  0
 60 73  1  0
 61 66  1  0
 62 63  1  0
 62 61  1  0
 64 63  1  0
 64 77  1  0
 64 65  1  0
 66 60  1  0
 66 65  1  0
 67 60  2  0
 68 72  1  0
 68 70  1  0
 69 71  1  0
 72 55  1  0
 72 69  1  0
 73 70  1  0
 73 71  1  0
 74 75  2  0
 75 94  1  0
 76 75  1  0
 76 79  1  0
 77 78  1  0
 77 74  1  0
 78 76  2  0
 79 80  1  0
 80 81  2  0
 82 85  1  0
 82 81  1  0
 83 82  2  0
 84 83  1  0
 84 79  2  0
 85 86  1  0
 86 87  1  0
 87 88  2  0
 89 88  1  0
 89 93  1  0
 90 89  2  0
 91 86  2  0
 91 90  1  0
 92 91  1  0
 94 95  1  0
 95 98  1  0
 95 97  1  0
 96 94  2  0
 99 74  1  0
 99100  1  0
101 99  1  0
102103  1  0
103 58  1  0
M  ISO  4  11 101  12 101  60 100  73 100
M  END
>  <TORSDO>  (98) 
F 21

>  <SCORE>  (98) 
-12.693

>  <name>  (98) 
97

>  <ligand_id>  (98) 
97

>  <original_smiles>  (98) 
[H]c1c([H])c([H])c2c(c1[H])C([H])([H])C([H])([H])C([H])([H])C2([H])N([H])C(=O)C1([H])N(C(=O)C([H])(N([H])C(=O)C([H])(N([H])C([H])([H])[H])C([H])([H])[H])C(C([H])([H])[H])(C([H])([H])[H])C([H])([H])[H])C([H])([H])c2c([H])c(OC([H])([H])C([H])([H])[N+]3([H])C([H])([H])C([H])([H])C([H])(N([H])c4c([H])c(C([H])([H])[H])c(C5([H])C([H])([H])C([H])([H])N(C(=O)N6C([H])([H])C([H])([H])C([H])([H])C([H])(n7nc(-c8c([H])c([H])c(Oc9c([H])c([H])c(F)c([H])c9F)c([H])c8[H])c(C(=O)N([H])[H])c7N([H])[H])C6([H])[H])C([H])([H])C5([H])[H])c([H])c4OC([H])([H])[H])C([H])([H])C3([H])[H])c([H])c([H])c2C1([H])[H]

>  <smiles>  (98) 
[H]c1c([H])c([H])c2c(c1[H])C([H])([H])C([H])([H])C([H])([H])C2([H])N([H])C(=O)C1([H])N(C(=O)C([H])(N([H])C(=O)C([H])(N([H])C([H])([H])[H])C([H])([H])[H])C(C([H])([H])[H])(C([H])([H])[H])C([H])([H])[H])C([H])([H])c2c([H])c(OC([H])([H])C([H])([H])[N+]3([H])C([H])([H])C([H])([H])C([H])(N([H])c4c([H])c(C([H])([H])[H])c(C5([H])C([H])([H])C([H])([H])N(C(=O)N6C([H])([H])C([H])([H])C([H])([H])C([H])(n7nc(-c8c([H])c([H])c(Oc9c([H])c([H])c(F)c([H])c9F)c([H])c8[H])c(C(=O)N([H])[H])c7N([H])[H])C6([H])[H])C([H])([H])C5([H])[H])c([H])c4OC([H])([H])[H])C([H])([H])C3([H])[H])c([H])c([H])c2C1([H])[H]

$$$$
