0:0:0
     RDKit          3D

 99109  0  0  1  0  0  0  0  0999 V2000
  -28.0880  -23.4440   17.6530 C   0  0  0  0  0  3  0  0  0  0  0  0
  -29.9360  -21.8730   17.8690 C   0  0  0  0  0  0  0  0  0  0  0  0
  -28.5770  -22.1420   17.4980 C   0  0  0  0  0  0  0  0  0  0  0  0
  -28.8370  -24.4590   18.2830 C   0  0  0  0  0  0  0  0  0  0  0  0
  -30.7800  -23.0190   17.9710 C   0  0  0  0  0  0  0  0  0  0  0  0
  -30.2370  -24.2780   18.3650 C   0  0  0  0  0  0  0  0  0  0  0  0
  -27.5560  -21.1420   16.9500 C   0  0  0  0  0  1  0  0  0  0  0  0
  -32.2040  -22.9430   17.4340 C   0  0  0  0  0  1  0  0  0  0  0  0
  -31.1040  -25.4180   18.8800 C   0  0  0  0  0  1  0  0  0  0  0  0
  -31.4010  -20.5520   19.5560 C   0  0  0  0  0  2  0  0  0  0  0  0
  -29.2800  -19.5830   18.7200 C   0  0  0  0  0  2  0  0  0  0  0  0
  -31.6560  -19.2240   20.3240 C   0  0  0  0  0  2  0  0  0  0  0  0
  -29.5790  -18.3120   19.4700 C   0  0  0  0  0  2  0  0  0  0  0  0
  -30.4610  -20.4680   18.3080 C   0  0  0  0  0  3  0  0  0  0  0  0
  -30.4210  -18.4650   20.6800 N   0  0  1  0  0  4  0  0  0  0  0  0
  -29.9060  -18.9610   21.3920 H   0  0  0  0  0  0  0  0  0  0  0  0
  -30.7870  -14.1470   20.3750 C   0  0  0  0  0  0  0  0  0  0  0  0
  -30.2380  -12.2630   18.8880 C   0  0  0  0  0  2  0  0  0  0  0  0
  -29.2410  -12.6210   17.7700 C   0  0  0  0  0  2  0  0  0  0  0  0
  -27.7950  -12.4510   18.2670 C   0  0  0  0  0  2  0  0  0  0  0  0
  -27.5490  -13.2070   19.5980 C   0  0  0  0  0  3  0  0  0  0  0  0
  -28.6410  -12.8470   20.6330 C   0  0  0  0  0  2  0  0  0  0  0  0
  -29.9700  -13.1160   20.0490 N   0  0  0  0  0  0  0  0  0  0  0  0
  -31.7540  -14.4920   19.6830 O   0  0  0  0  0  0  0  0  0  0  0  0
  -31.1130  -16.8630   22.6430 C   0  0  0  0  0  2  0  0  0  0  0  0
  -31.3080  -15.3300   22.5480 C   0  0  0  0  0  2  0  0  0  0  0  0
  -29.6790  -16.0240   21.0560 C   0  0  0  0  0  2  0  0  0  0  0  0
  -30.7640  -17.1080   21.1830 C   0  0  0  0  0  3  0  0  0  0  0  0
  -30.4010  -14.8410   21.4720 N   0  0  0  0  0  0  0  0  0  0  0  0
  -25.1810  -13.8340   20.4120 C   0  0  0  0  0  0  0  0  0  0  0  0
  -24.1250  -13.0710   20.8260 C   0  0  0  0  0  0  0  0  0  0  0  0
  -24.5690  -11.7130   20.7590 C   0  0  0  0  0  0  0  0  0  0  0  0
  -26.2090  -12.9450   20.1240 N   0  0  0  0  0  0  0  0  0  0  0  0
  -25.8410  -11.6630   20.3830 N   0  0  0  0  0  0  0  0  0  0  0  0
  -23.8440  -10.4570   20.9730 C   0  0  0  0  0  0  0  0  0  0  0  0
  -24.3010   -9.4790   21.8840 C   0  0  0  0  0  3  0  0  0  0  0  0
  -23.5710   -8.2860   22.0750 C   0  0  0  0  0  3  0  0  0  0  0  0
  -22.3710   -8.0670   21.3600 C   0  0  0  0  0  0  0  0  0  0  0  0
  -21.9320   -9.0360   20.4410 C   0  0  0  0  0  3  0  0  0  0  0  0
  -22.6630  -10.2180   20.2460 C   0  0  0  0  0  3  0  0  0  0  0  0
  -21.6060   -6.9300   21.4700 O   0  0  0  0  0  0  0  0  0  0  0  0
  -21.5850   -6.1880   22.6230 C   0  0  0  0  0  0  0  0  0  0  0  0
  -21.2010   -6.7480   23.8640 C   0  0  0  0  0  3  0  0  0  0  0  0
  -21.1300   -5.9310   25.0100 C   0  0  0  0  0  3  0  0  0  0  0  0
  -21.4340   -4.5590   24.9170 C   0  0  0  0  0  0  0  0  0  0  0  0
  -21.8070   -4.0000   23.6810 C   0  0  0  0  0  3  0  0  0  0  0  0
  -21.8790   -4.8130   22.5380 C   0  0  0  0  0  0  0  0  0  0  0  0
  -22.2240   -4.2660   21.3470 F   0  0  0  0  0  0  0  0  0  0  0  0
  -21.3540   -3.7730   26.0170 F   0  0  0  0  0  0  0  0  0  0  0  0
  -22.7450  -13.5630   21.1680 C   0  0  0  0  0  0  0  0  0  0  0  0
  -22.0520  -12.8720   22.0650 N   0  0  0  0  0  0  0  0  0  0  0  0
  -22.2970  -14.5970   20.6720 O   0  0  0  0  0  0  0  0  0  0  0  0
  -22.4180  -12.0330   22.4870 H   0  0  0  0  0  0  0  0  0  0  0  0
  -21.1320  -13.1880   22.3320 H   0  0  0  0  0  0  0  0  0  0  0  0
  -25.3420  -15.2040   20.2350 N   0  0  0  0  0  0  0  0  0  0  0  0
  -24.5520  -15.8250   20.3590 H   0  0  0  0  0  0  0  0  0  0  0  0
  -26.1370  -15.6350   19.7810 H   0  0  0  0  0  0  0  0  0  0  0  0
  -28.0050  -25.6690   18.7020 C   0  0  0  0  0  2  0  0  0  0  0  0
  -28.2240  -26.5670   19.8360 O   0  0  0  0  0  0  0  0  0  0  0  0
  -24.6280  -31.8870   23.3180 C   0  0  0  0  0  0  0  0  0  0  0  0
  -27.0920  -27.3740   20.0590 C   0  0  0  0  0  0  0  0  0  0  0  0
  -23.3760  -30.5440   21.6860 C   0  0  0  0  0  3  0  0  0  0  0  0
  -24.7600  -29.0160   20.2180 C   0  0  0  0  0  0  0  0  0  0  0  0
  -25.9300  -30.8010   21.4840 C   0  0  0  0  0  2  0  0  0  0  0  0
  -25.9610  -29.4490   20.8000 C   0  0  0  0  0  0  0  0  0  0  0  0
  -27.1310  -28.6360   20.7250 C   0  0  0  0  0  3  0  0  0  0  0  0
  -25.8150  -26.9730   19.5580 C   0  0  0  0  0  3  0  0  0  0  0  0
  -24.6870  -27.7740   19.6070 C   0  0  0  0  0  3  0  0  0  0  0  0
  -23.5440  -29.9040   20.2930 C   0  0  0  0  0  2  0  0  0  0  0  0
  -24.6690  -31.0880   22.2150 N   0  0  0  0  0  0  0  0  0  0  0  0
  -23.5560  -32.1880   23.8620 O   0  0  0  0  0  0  0  0  0  0  0  0
  -22.7150  -29.5070   22.6260 C   0  0  0  0  0  0  0  0  0  0  0  0
  -21.3950  -29.3010   22.4570 N   0  0  0  0  0  0  0  0  0  0  0  0
  -23.3850  -28.8950   23.4620 O   0  0  0  0  0  0  0  0  0  0  0  0
  -20.9220  -29.8210   21.7300 H   0  0  0  0  0  0  0  0  0  0  0  0
  -18.0400  -28.0350   22.8610 C   0  0  0  0  0  0  0  0  0  0  0  0
  -20.5790  -28.3690   23.2250 C   0  0  0  0  0  3  0  0  0  0  0  0
  -20.7430  -26.9270   22.6970 C   0  0  0  0  0  2  0  0  0  0  0  0
  -19.6850  -26.5430   21.6520 C   0  0  0  0  0  2  0  0  0  0  0  0
  -18.2760  -26.6720   22.2340 C   0  0  0  0  0  2  0  0  0  0  0  0
  -19.1210  -28.8370   23.3110 C   0  0  0  0  0  0  0  0  0  0  0  0
  -18.8430  -30.1090   23.8560 C   0  0  0  0  0  3  0  0  0  0  0  0
  -17.5200  -30.5840   23.9460 C   0  0  0  0  0  3  0  0  0  0  0  0
  -16.4540  -29.7840   23.5060 C   0  0  0  0  0  3  0  0  0  0  0  0
  -16.7140  -28.5070   22.9770 C   0  0  0  0  0  3  0  0  0  0  0  0
  -25.9290  -32.4910   23.9220 C   0  0  0  0  0  3  0  0  0  0  0  0
  -25.6380  -33.8970   24.2350 N   0  0  0  0  0  0  0  0  0  0  0  0
  -25.9750  -34.9380   23.4640 C   0  0  0  0  0  0  0  0  0  0  0  0
  -26.6270  -34.8170   22.4220 O   0  0  0  0  0  0  0  0  0  0  0  0
  -25.0230  -34.0730   25.0160 H   0  0  0  0  0  0  0  0  0  0  0  0
  -24.2520  -36.7520   23.1310 C   0  0  0  0  0  1  0  0  0  0  0  0
  -25.5130  -36.3400   23.9110 C   0  0  0  0  0  3  0  0  0  0  0  0
  -27.6770  -37.2030   24.6770 C   0  0  0  0  0  1  0  0  0  0  0  0
  -26.5530  -37.3790   23.7620 N   0  0  0  0  0  0  0  0  0  0  0  0
  -26.1580  -38.3010   23.9270 H   0  0  0  0  0  0  0  0  0  0  0  0
  -26.4310  -31.7210   25.2020 C   0  0  1  0  0  0  0  0  0  0  0  0
  -25.3290  -31.5110   26.2640 C   0  0  0  0  0  1  0  0  0  0  0  0
  -26.9850  -30.3260   24.8350 C   0  0  0  0  0  1  0  0  0  0  0  0
  -27.5970  -32.5020   25.8520 C   0  0  0  0  0  1  0  0  0  0  0  0
  1  4  1  0
  2  5  2  0
  3  1  2  0
  3  2  1  0
  4  6  2  0
  4 58  1  0
  5  6  1  0
  6  9  1  0
  7  3  1  0
  8  5  1  0
 10 12  1  0
 11 13  1  0
 12 15  1  0
 13 15  1  0
 14  2  1  0
 14 11  1  0
 14 10  1  0
 15 28  1  0
 15 16  1  1
 17 29  1  0
 18 23  1  0
 19 20  1  0
 19 18  1  0
 21 20  1  0
 21 33  1  0
 21 22  1  0
 23 17  1  0
 23 22  1  0
 24 17  2  0
 26 25  1  0
 27 29  1  0
 28 27  1  0
 28 25  1  0
 29 26  1  0
 30 31  2  0
 31 50  1  0
 32 31  1  0
 32 35  1  0
 33 34  1  0
 33 30  1  0
 34 32  2  0
 35 36  1  0
 36 37  2  0
 38 41  1  0
 38 37  1  0
 39 38  2  0
 40 39  1  0
 40 35  2  0
 41 42  1  0
 42 43  1  0
 43 44  2  0
 45 44  1  0
 45 49  1  0
 46 45  2  0
 47 42  2  0
 47 46  1  0
 48 47  1  0
 50 51  1  0
 51 54  1  0
 51 53  1  0
 52 50  2  0
 55 56  1  0
 55 30  1  0
 57 55  1  0
 58 59  1  0
 59 61  1  0
 60 71  2  0
 61 66  1  0
 62 70  1  0
 62 72  1  0
 63 69  1  0
 63 65  1  0
 64 70  1  0
 65 64  1  0
 66 65  2  0
 67 68  1  0
 67 61  2  0
 68 63  2  0
 69 62  1  0
 70 60  1  0
 72 74  2  0
 73 72  1  0
 75 73  1  0
 76 85  2  0
 76 81  1  0
 77 73  1  0
 77 81  1  0
 78 77  1  0
 79 80  1  0
 79 78  1  0
 80 76  1  0
 81 82  2  0
 82 83  1  0
 84 83  2  0
 85 84  1  0
 86 60  1  0
 86 87  1  0
 86 96  1  0
 87 90  1  0
 88 92  1  0
 88 87  1  0
 89 88  2  0
 92 91  1  0
 94 92  1  0
 94 95  1  0
 94 93  1  0
 96 99  1  1
 96 97  1  0
 98 96  1  0
M  ISO  4  17 100  29 100  58 101  59 101
M  END
>  <TORSDO>  (1) 
F 18

>  <SCORE>  (1) 
-12.953

>  <name>  (1) 
0

>  <ligand_id>  (1) 
0

>  <original_smiles>  (1) 
[H]c1c([H])c([H])c2c(c1[H])C([H])([H])C([H])([H])C([H])([H])C2([H])N([H])C(=O)C1([H])N(C(=O)C([H])(N([H])C(=O)C([H])(N([H])C([H])([H])[H])C([H])([H])[H])C(C([H])([H])[H])(C([H])([H])[H])C([H])([H])[H])C([H])([H])c2c([H])c(OC([H])([H])c3c([H])c(C([H])([H])[H])c(C4([H])C([H])([H])C([H])([H])[N+]([H])(C5([H])C([H])([H])N(C(=O)N6C([H])([H])C([H])([H])C([H])([H])C([H])(n7nc(-c8c([H])c([H])c(Oc9c([H])c([H])c(F)c([H])c9F)c([H])c8[H])c(C(=O)N([H])[H])c7N([H])[H])C6([H])[H])C([H])([H])C5([H])[H])C([H])([H])C4([H])[H])c(C([H])([H])[H])c3C([H])([H])[H])c([H])c([H])c2C1([H])[H]

>  <smiles>  (1) 
[H]c1c([H])c([H])c2c(c1[H])C([H])([H])C([H])([H])C([H])([H])C2([H])N([H])C(=O)C1([H])N(C(=O)C([H])(N([H])C(=O)C([H])(N([H])C([H])([H])[H])C([H])([H])[H])C(C([H])([H])[H])(C([H])([H])[H])C([H])([H])[H])C([H])([H])c2c([H])c(OC([H])([H])c3c([H])c(C([H])([H])[H])c(C4([H])C([H])([H])C([H])([H])[N+]([H])(C5([H])C([H])([H])N(C(=O)N6C([H])([H])C([H])([H])C([H])([H])C([H])(n7nc(-c8c([H])c([H])c(Oc9c([H])c([H])c(F)c([H])c9F)c([H])c8[H])c(C(=O)N([H])[H])c7N([H])[H])C6([H])[H])C([H])([H])C5([H])[H])C([H])([H])C4([H])[H])c(C([H])([H])[H])c3C([H])([H])[H])c([H])c([H])c2C1([H])[H]

$$$$
1:0:0
     RDKit          3D

100110  0  0  1  0  0  0  0  0999 V2000
  -27.0420  -19.2680   20.8430 C   0  0  0  0  0  3  0  0  0  0  0  0
  -26.2150  -20.3040   21.2940 C   0  0  0  0  0  3  0  0  0  0  0  0
  -27.0840  -21.7900   19.5290 C   0  0  0  0  0  0  0  0  0  0  0  0
  -27.8970  -20.7100   19.0760 C   0  0  0  0  0  0  0  0  0  0  0  0
  -27.8760  -19.4600   19.7310 C   0  0  0  0  0  0  0  0  0  0  0  0
  -26.2050  -21.5650   20.6480 C   0  0  0  0  0  0  0  0  0  0  0  0
  -27.2070  -23.1540   18.8500 C   0  0  0  0  0  0  0  0  0  0  0  0
  -28.2290  -21.0130   16.5110 C   0  0  0  0  0  2  0  0  0  0  0  0
  -28.8040  -20.9070   17.9020 C   0  0  0  0  0  3  0  0  0  0  0  0
  -28.8080  -22.2260   17.2030 C   0  0  0  0  0  3  0  0  0  0  0  0
  -27.9470  -23.2600   17.6980 N   0  0  0  0  0  0  0  0  0  0  0  0
  -26.6300  -24.1260   19.3380 O   0  0  0  0  0  0  0  0  0  0  0  0
  -29.5910  -24.8920   16.7910 C   0  0  0  0  0  1  0  0  0  0  0  0
  -28.0930  -24.4930   16.8770 C   0  0  0  0  0  3  0  0  0  0  0  0
  -27.1790  -25.6330   17.3900 C   0  0  0  0  0  2  0  0  0  0  0  0
  -27.2220  -26.8910   16.7030 O   0  0  0  0  0  0  0  0  0  0  0  0
  -25.3990  -30.3360   22.6490 C   0  0  0  0  0  0  0  0  0  0  0  0
  -26.3430  -27.7730   17.2930 C   0  0  0  0  0  0  0  0  0  0  0  0
  -23.6540  -30.1990   20.9000 C   0  0  0  0  0  3  0  0  0  0  0  0
  -24.4480  -29.4030   18.6090 C   0  0  0  0  0  0  0  0  0  0  0  0
  -26.1390  -30.1860   20.2800 C   0  0  0  0  0  2  0  0  0  0  0  0
  -25.7720  -29.3540   19.0680 C   0  0  0  0  0  0  0  0  0  0  0  0
  -26.7260  -28.5420   18.4140 C   0  0  0  0  0  3  0  0  0  0  0  0
  -25.0090  -27.8600   16.8280 C   0  0  0  0  0  3  0  0  0  0  0  0
  -24.0580  -28.6520   17.4890 C   0  0  0  0  0  3  0  0  0  0  0  0
  -23.4980  -30.3060   19.3600 C   0  0  0  0  0  2  0  0  0  0  0  0
  -25.0910  -30.2230   21.3290 N   0  0  0  0  0  0  0  0  0  0  0  0
  -24.5130  -30.4640   23.5050 O   0  0  0  0  0  0  0  0  0  0  0  0
  -22.8890  -28.9520   21.3960 C   0  0  0  0  0  0  0  0  0  0  0  0
  -21.5540  -29.0730   21.4930 N   0  0  0  0  0  0  0  0  0  0  0  0
  -23.4860  -27.9070   21.6570 O   0  0  0  0  0  0  0  0  0  0  0  0
  -21.1400  -29.9590   21.2410 H   0  0  0  0  0  0  0  0  0  0  0  0
  -18.0660  -28.3180   22.0620 C   0  0  0  0  0  0  0  0  0  0  0  0
  -20.6260  -28.0160   21.9000 C   0  0  0  0  0  3  0  0  0  0  0  0
  -20.3350  -27.0560   20.7240 C   0  0  0  0  0  2  0  0  0  0  0  0
  -19.0860  -27.4430   19.9250 C   0  0  0  0  0  2  0  0  0  0  0  0
  -17.8530  -27.4560   20.8270 C   0  0  0  0  0  2  0  0  0  0  0  0
  -19.3680  -28.5920   22.5600 C   0  0  0  0  0  0  0  0  0  0  0  0
  -19.5050  -29.4190   23.6960 C   0  0  0  0  0  3  0  0  0  0  0  0
  -18.3750  -29.9720   24.3260 C   0  0  0  0  0  3  0  0  0  0  0  0
  -17.0890  -29.6970   23.8290 C   0  0  0  0  0  3  0  0  0  0  0  0
  -16.9400  -28.8670   22.7000 C   0  0  0  0  0  3  0  0  0  0  0  0
  -26.8790  -30.3260   23.1490 C   0  0  0  0  0  3  0  0  0  0  0  0
  -26.9570  -31.2270   24.3050 N   0  0  0  0  0  0  0  0  0  0  0  0
  -27.4780  -32.4610   24.2700 C   0  0  0  0  0  0  0  0  0  0  0  0
  -28.0190  -32.9300   23.2670 O   0  0  0  0  0  0  0  0  0  0  0  0
  -26.4880  -30.9250   25.1450 H   0  0  0  0  0  0  0  0  0  0  0  0
  -26.2760  -34.3550   25.4030 C   0  0  0  0  0  1  0  0  0  0  0  0
  -27.3860  -33.3050   25.5570 C   0  0  0  0  0  3  0  0  0  0  0  0
  -29.6960  -33.0380   26.3480 C   0  0  0  0  0  1  0  0  0  0  0  0
  -28.6580  -33.9700   25.9160 N   0  0  0  0  0  0  0  0  0  0  0  0
  -28.5120  -34.6440   26.6630 H   0  0  0  0  0  0  0  0  0  0  0  0
  -27.4100  -28.8870   23.5240 C   0  0  1  0  0  0  0  0  0  0  0  0
  -26.4800  -28.1130   24.4870 C   0  0  0  0  0  1  0  0  0  0  0  0
  -27.5970  -28.0250   22.2540 C   0  0  0  0  0  1  0  0  0  0  0  0
  -28.8030  -29.0000   24.1910 C   0  0  0  0  0  1  0  0  0  0  0  0
  -24.7330  -22.4630   22.3680 C   0  0  0  0  0  1  0  0  0  0  0  0
  -25.3240  -22.5540   21.0650 O   0  0  0  0  0  0  0  0  0  0  0  0
  -28.7570  -18.4420   19.3490 N   0  0  0  0  0  0  0  0  0  0  0  0
  -29.1400  -18.5680   18.4120 H   0  0  0  0  0  0  0  0  0  0  0  0
  -29.8060  -18.3100   20.3500 C   0  0  0  0  0  2  0  0  0  0  0  0
  -31.0230  -17.5240   19.8390 C   0  0  0  0  0  2  0  0  0  0  0  0
  -31.5600  -15.0670   19.7930 C   0  0  0  0  0  0  0  0  0  0  0  0
  -31.3770  -12.6440   19.3540 C   0  0  0  0  0  2  0  0  0  0  0  0
  -30.4180  -12.3990   18.1680 C   0  0  0  0  0  2  0  0  0  0  0  0
  -28.9440  -12.3930   18.6240 C   0  0  0  0  0  2  0  0  0  0  0  0
  -28.5790  -13.5790   19.5540 C   0  0  0  0  0  3  0  0  0  0  0  0
  -29.6360  -13.7070   20.6710 C   0  0  0  0  0  2  0  0  0  0  0  0
  -30.9550  -13.8750   20.0320 N   0  0  0  0  0  0  0  0  0  0  0  0
  -32.6360  -15.1890   19.2000 O   0  0  0  0  0  0  0  0  0  0  0  0
  -30.8170  -16.1180   20.1530 N   0  0  0  0  0  0  0  0  0  0  0  0
  -29.9340  -15.8990   20.5930 H   0  0  0  0  0  0  0  0  0  0  0  0
  -26.3070  -14.4200   20.4370 C   0  0  0  0  0  0  0  0  0  0  0  0
  -25.1640  -13.7530   20.7980 C   0  0  0  0  0  0  0  0  0  0  0  0
  -25.4460  -12.3660   20.6170 C   0  0  0  0  0  0  0  0  0  0  0  0
  -27.2230  -13.4380   20.0830 N   0  0  0  0  0  0  0  0  0  0  0  0
  -26.7050  -12.1950   20.2350 N   0  0  0  0  0  0  0  0  0  0  0  0
  -24.5690  -11.1910   20.7250 C   0  0  0  0  0  0  0  0  0  0  0  0
  -24.8470  -10.1480   21.6360 C   0  0  0  0  0  3  0  0  0  0  0  0
  -23.9830   -9.0360   21.7370 C   0  0  0  0  0  3  0  0  0  0  0  0
  -22.8250   -8.9600   20.9270 C   0  0  0  0  0  0  0  0  0  0  0  0
  -22.5630   -9.9910   20.0070 C   0  0  0  0  0  3  0  0  0  0  0  0
  -23.4280  -11.0940   19.9030 C   0  0  0  0  0  3  0  0  0  0  0  0
  -21.9390   -7.9090   20.9450 O   0  0  0  0  0  0  0  0  0  0  0  0
  -21.6520   -7.2300   22.1020 C   0  0  0  0  0  0  0  0  0  0  0  0
  -21.1020   -7.8770   23.2300 C   0  0  0  0  0  3  0  0  0  0  0  0
  -20.7570   -7.1270   24.3720 C   0  0  0  0  0  3  0  0  0  0  0  0
  -20.9540   -5.7330   24.3880 C   0  0  0  0  0  0  0  0  0  0  0  0
  -21.4980   -5.0870   23.2640 C   0  0  0  0  0  3  0  0  0  0  0  0
  -21.8420   -5.8340   22.1220 C   0  0  0  0  0  0  0  0  0  0  0  0
  -22.3440   -5.2050   21.0340 F   0  0  0  0  0  0  0  0  0  0  0  0
  -20.6140   -5.0120   25.4810 F   0  0  0  0  0  0  0  0  0  0  0  0
  -23.8500  -14.3700   21.1890 C   0  0  0  0  0  0  0  0  0  0  0  0
  -23.0860  -13.6970   22.0450 N   0  0  0  0  0  0  0  0  0  0  0  0
  -23.5130  -15.4750   20.7710 O   0  0  0  0  0  0  0  0  0  0  0  0
  -23.3610  -12.7960   22.4050 H   0  0  0  0  0  0  0  0  0  0  0  0
  -22.2080  -14.0920   22.3480 H   0  0  0  0  0  0  0  0  0  0  0  0
  -26.6340  -15.7700   20.3630 N   0  0  0  0  0  0  0  0  0  0  0  0
  -25.9380  -16.4920   20.5120 H   0  0  0  0  0  0  0  0  0  0  0  0
  -27.5370  -16.1430   20.0880 H   0  0  0  0  0  0  0  0  0  0  0  0
  1  2  1  0
  3  6  1  0
  4  3  2  0
  4  5  1  0
  5  1  2  0
  6 58  1  0
  6  2  2  0
  7 12  2  0
  7  3  1  0
  9  8  1  0
  9  4  1  0
 10  8  1  0
 10 11  1  0
 10  9  1  0
 11  7  1  0
 14 13  1  0
 14 15  1  0
 14 11  1  0
 16 18  1  0
 16 15  1  0
 17 28  2  0
 18 23  1  0
 19 27  1  0
 19 29  1  0
 20 22  1  0
 20 26  1  0
 21 27  1  0
 22 21  1  0
 23 22  2  0
 24 18  2  0
 24 25  1  0
 25 20  2  0
 26 19  1  0
 27 17  1  0
 29 30  1  0
 29 31  2  0
 32 30  1  0
 33 38  2  0
 33 42  1  0
 34 30  1  0
 34 38  1  0
 35 34  1  0
 36 35  1  0
 36 37  1  0
 37 33  1  0
 38 39  1  0
 39 40  2  0
 41 40  1  0
 42 41  2  0
 43 17  1  0
 43 53  1  0
 43 44  1  0
 44 47  1  0
 45 44  1  0
 45 49  1  0
 46 45  2  0
 49 48  1  0
 49 51  1  0
 51 50  1  0
 51 52  1  0
 53 56  1  1
 53 54  1  0
 55 53  1  0
 58 57  1  0
 59  5  1  0
 59 61  1  0
 60 59  1  0
 62 71  1  0
 62 61  1  0
 63 69  1  0
 63 71  1  0
 64 69  1  0
 65 66  1  0
 65 64  1  0
 67 66  1  0
 67 76  1  0
 67 68  1  0
 69 68  1  0
 70 63  2  0
 71 72  1  0
 73 74  2  0
 74 93  1  0
 75 78  1  0
 75 74  1  0
 76 77  1  0
 76 73  1  0
 77 75  2  0
 78 79  1  0
 79 80  2  0
 81 84  1  0
 81 80  1  0
 82 81  2  0
 83 82  1  0
 83 78  2  0
 84 85  1  0
 85 90  2  0
 85 86  1  0
 86 87  2  0
 87 88  1  0
 88 92  1  0
 89 88  2  0
 90 89  1  0
 91 90  1  0
 93 94  1  0
 94 97  1  0
 94 96  1  0
 95 93  2  0
 98 73  1  0
 98 99  1  0
100 98  1  0
M  ISO  4  15 101  16 101  63 100  71 100
M  END
>  <TORSDO>  (2) 
F 22

>  <SCORE>  (2) 
2.361

>  <name>  (2) 
1

>  <ligand_id>  (2) 
1

>  <original_smiles>  (2) 
[H]c1c([H])c([H])c2c(c1[H])C([H])([H])C([H])([H])C([H])([H])C2([H])N([H])C(=O)C1([H])N(C(=O)C([H])(N([H])C(=O)C([H])(N([H])C([H])([H])[H])C([H])([H])[H])C(C([H])([H])[H])(C([H])([H])[H])C([H])([H])[H])C([H])([H])c2c([H])c(OC([H])([H])C([H])(N3C(=O)c4c(OC([H])([H])[H])c([H])c([H])c(N([H])C([H])([H])C([H])([H])N([H])C(=O)N5C([H])([H])C([H])([H])C([H])([H])C([H])(n6nc(-c7c([H])c([H])c(Oc8c([H])c([H])c(F)c([H])c8F)c([H])c7[H])c(C(=O)N([H])[H])c6N([H])[H])C5([H])[H])c4C4([H])C([H])([H])C34[H])C([H])([H])[H])c([H])c([H])c2C1([H])[H]

>  <smiles>  (2) 
[H]c1c([H])c([H])c2c(c1[H])C([H])([H])C([H])([H])C([H])([H])C2([H])N([H])C(=O)C1([H])N(C(=O)C([H])(N([H])C(=O)C([H])(N([H])C([H])([H])[H])C([H])([H])[H])C(C([H])([H])[H])(C([H])([H])[H])C([H])([H])[H])C([H])([H])c2c([H])c(OC([H])([H])C([H])(N3C(=O)c4c(OC([H])([H])[H])c([H])c([H])c(N([H])C([H])([H])C([H])([H])N([H])C(=O)N5C([H])([H])C([H])([H])C([H])([H])C([H])(n6nc(-c7c([H])c([H])c(Oc8c([H])c([H])c(F)c([H])c8F)c([H])c7[H])c(C(=O)N([H])[H])c6N([H])[H])C5([H])[H])c4C4([H])C([H])([H])C34[H])C([H])([H])[H])c([H])c([H])c2C1([H])[H]

$$$$
2:0:0
     RDKit          3D

106116  0  0  1  0  0  0  0  0999 V2000
  -32.0710  -20.3220   23.2540 C   0  0  0  0  0  2  0  0  0  0  0  0
  -31.9730  -21.5990   24.0900 C   0  0  0  0  0  2  0  0  0  0  0  0
  -31.5950  -21.1380   22.0390 C   0  0  0  0  0  3  0  0  0  0  0  0
  -30.9400  -22.0960   23.0680 C   0  0  0  0  0  3  0  0  0  0  0  0
  -31.0870  -23.5340   22.7310 N   0  0  0  0  0  4  0  0  0  0  0  0
  -31.5440  -23.6150   21.8380 H   0  0  0  0  0  0  0  0  0  0  0  0
  -31.6880  -23.9740   23.4090 H   0  0  0  0  0  0  0  0  0  0  0  0
  -29.8350  -24.3180   22.6760 C   0  0  0  0  0  2  0  0  0  0  0  0
  -29.8390  -25.3290   21.5020 C   0  0  0  0  0  3  0  0  0  0  0  0
  -30.7700  -26.4340   21.7330 N   0  0  0  0  0  0  0  0  0  0  0  0
  -30.5430  -26.9320   22.5880 H   0  0  0  0  0  0  0  0  0  0  0  0
  -31.7360  -26.1430   21.8270 H   0  0  0  0  0  0  0  0  0  0  0  0
  -28.4330  -25.9230   21.2960 C   0  0  0  0  0  2  0  0  0  0  0  0
  -28.3810  -26.7340   20.1240 O   0  0  0  0  0  0  0  0  0  0  0  0
  -24.6090  -31.8710   23.2110 C   0  0  0  0  0  0  0  0  0  0  0  0
  -27.2360  -27.4790   20.0930 C   0  0  0  0  0  0  0  0  0  0  0  0
  -23.3960  -30.4930   21.5520 C   0  0  0  0  0  3  0  0  0  0  0  0
  -24.8430  -28.9620   20.1140 C   0  0  0  0  0  0  0  0  0  0  0  0
  -25.9180  -30.8510   21.3570 C   0  0  0  0  0  2  0  0  0  0  0  0
  -25.9990  -29.4880   20.7060 C   0  0  0  0  0  0  0  0  0  0  0  0
  -27.2000  -28.7510   20.6970 C   0  0  0  0  0  3  0  0  0  0  0  0
  -26.0730  -26.9550   19.4960 C   0  0  0  0  0  3  0  0  0  0  0  0
  -24.8730  -27.6920   19.5100 C   0  0  0  0  0  3  0  0  0  0  0  0
  -23.6000  -29.8200   20.1680 C   0  0  0  0  0  2  0  0  0  0  0  0
  -24.6590  -31.0840   22.1000 N   0  0  0  0  0  0  0  0  0  0  0  0
  -23.5290  -32.1450   23.7520 O   0  0  0  0  0  0  0  0  0  0  0  0
  -22.7390  -29.4670   22.5020 C   0  0  0  0  0  0  0  0  0  0  0  0
  -21.4120  -29.3020   22.3750 N   0  0  0  0  0  0  0  0  0  0  0  0
  -23.4180  -28.8210   23.3040 O   0  0  0  0  0  0  0  0  0  0  0  0
  -20.9280  -29.8730   21.6970 H   0  0  0  0  0  0  0  0  0  0  0  0
  -18.0270  -28.1380   22.8500 C   0  0  0  0  0  0  0  0  0  0  0  0
  -20.5850  -28.3650   23.1340 C   0  0  0  0  0  3  0  0  0  0  0  0
  -20.6770  -26.9400   22.5420 C   0  0  0  0  0  2  0  0  0  0  0  0
  -19.5740  -26.6390   21.5220 C   0  0  0  0  0  2  0  0  0  0  0  0
  -18.1920  -26.7930   22.1630 C   0  0  0  0  0  2  0  0  0  0  0  0
  -19.1520  -28.8840   23.2910 C   0  0  0  0  0  0  0  0  0  0  0  0
  -18.9450  -30.1450   23.8900 C   0  0  0  0  0  3  0  0  0  0  0  0
  -17.6460  -30.6590   24.0570 C   0  0  0  0  0  3  0  0  0  0  0  0
  -16.5350  -29.9090   23.6330 C   0  0  0  0  0  3  0  0  0  0  0  0
  -16.7260  -28.6510   23.0340 C   0  0  0  0  0  3  0  0  0  0  0  0
  -25.8990  -32.4840   23.8400 C   0  0  0  0  0  3  0  0  0  0  0  0
  -26.4430  -31.6610   25.0710 C   0  0  1  0  0  0  0  0  0  0  0  0
  -25.3700  -31.3720   26.1480 C   0  0  0  0  0  1  0  0  0  0  0  0
  -27.0250  -30.3070   24.6050 C   0  0  0  0  0  1  0  0  0  0  0  0
  -27.6020  -32.4330   25.7460 C   0  0  0  0  0  1  0  0  0  0  0  0
  -25.5850  -33.8630   24.2330 N   0  0  0  0  0  0  0  0  0  0  0  0
  -25.9020  -34.9490   23.5130 C   0  0  0  0  0  0  0  0  0  0  0  0
  -26.5590  -34.8930   22.4700 O   0  0  0  0  0  0  0  0  0  0  0  0
  -24.9950  -33.9780   25.0440 H   0  0  0  0  0  0  0  0  0  0  0  0
  -24.1480  -36.7350   23.2640 C   0  0  0  0  0  1  0  0  0  0  0  0
  -25.4090  -36.3120   24.0340 C   0  0  0  0  0  3  0  0  0  0  0  0
  -27.5580  -37.1820   24.8460 C   0  0  0  0  0  1  0  0  0  0  0  0
  -26.4280  -37.3790   23.9400 N   0  0  0  0  0  0  0  0  0  0  0  0
  -26.0170  -38.2880   24.1390 H   0  0  0  0  0  0  0  0  0  0  0  0
  -31.4450  -20.5160   19.5650 C   0  0  0  0  0  1  0  0  0  0  0  0
  -30.7920  -20.3980   20.9530 C   0  0  0  0  0  3  0  0  0  0  0  0
  -27.5320  -22.3340   20.2800 C   0  0  0  0  0  3  0  0  0  0  0  0
  -28.8890  -21.9620   20.2920 C   0  0  0  0  0  3  0  0  0  0  0  0
  -26.9830  -20.3200   21.5350 C   0  0  0  0  0  3  0  0  0  0  0  0
  -26.5760  -21.5220   20.9170 C   0  0  0  0  0  0  0  0  0  0  0  0
  -29.3090  -20.7740   20.9310 C   0  0  0  0  0  0  0  0  0  0  0  0
  -28.3440  -19.9310   21.5380 C   0  0  0  0  0  0  0  0  0  0  0  0
  -25.1190  -21.9420   20.9550 C   0  0  0  0  0  1  0  0  0  0  0  0
  -28.7610  -18.7610   22.1360 O   0  0  0  0  0  0  0  0  0  0  0  0
  -30.7080  -14.4260   20.5780 C   0  0  0  0  0  0  0  0  0  0  0  0
  -30.4220  -12.2800   19.4070 C   0  0  0  0  0  2  0  0  0  0  0  0
  -29.4910  -12.5060   18.1980 C   0  0  0  0  0  2  0  0  0  0  0  0
  -28.0110  -12.3720   18.6120 C   0  0  0  0  0  2  0  0  0  0  0  0
  -27.6630  -13.1950   19.8820 C   0  0  0  0  0  3  0  0  0  0  0  0
  -28.7080  -12.9440   20.9930 C   0  0  0  0  0  2  0  0  0  0  0  0
  -30.0390  -13.2500   20.4410 N   0  0  0  0  0  0  0  0  0  0  0  0
  -31.8300  -14.6260   20.0990 O   0  0  0  0  0  0  0  0  0  0  0  0
  -28.3520  -17.2120   20.2930 C   0  0  0  0  0  2  0  0  0  0  0  0
  -28.5180  -16.4330   22.7220 C   0  0  0  0  0  2  0  0  0  0  0  0
  -29.7510  -16.6080   20.0760 C   0  0  0  0  0  2  0  0  0  0  0  0
  -29.9180  -15.8870   22.3750 C   0  0  0  0  0  2  0  0  0  0  0  0
  -28.0680  -17.5660   21.7750 C   0  0  0  0  0  3  0  0  0  0  0  0
  -29.9390  -15.4630   20.9740 N   0  0  0  0  0  0  0  0  0  0  0  0
  -25.2560  -13.8080   20.5710 C   0  0  0  0  0  0  0  0  0  0  0  0
  -24.1810  -13.0360   20.9210 C   0  0  0  0  0  0  0  0  0  0  0  0
  -24.6370  -11.6850   20.8760 C   0  0  0  0  0  0  0  0  0  0  0  0
  -26.3030  -12.9270   20.3430 N   0  0  0  0  0  0  0  0  0  0  0  0
  -25.9300  -11.6430   20.5780 N   0  0  0  0  0  0  0  0  0  0  0  0
  -23.9030  -10.4250   21.0420 C   0  0  0  0  0  0  0  0  0  0  0  0
  -24.3590   -9.4170   21.9200 C   0  0  0  0  0  3  0  0  0  0  0  0
  -23.6270   -8.2200   22.0750 C   0  0  0  0  0  3  0  0  0  0  0  0
  -22.4260   -8.0250   21.3530 C   0  0  0  0  0  0  0  0  0  0  0  0
  -21.9890   -9.0220   20.4640 C   0  0  0  0  0  3  0  0  0  0  0  0
  -22.7210  -10.2100   20.3060 C   0  0  0  0  0  3  0  0  0  0  0  0
  -21.6610   -6.8860   21.4240 O   0  0  0  0  0  0  0  0  0  0  0  0
  -21.6830   -6.0730   22.5280 C   0  0  0  0  0  0  0  0  0  0  0  0
  -21.3990   -6.5630   23.8210 C   0  0  0  0  0  3  0  0  0  0  0  0
  -21.3670   -5.6790   24.9180 C   0  0  0  0  0  3  0  0  0  0  0  0
  -21.6050   -4.3050   24.7220 C   0  0  0  0  0  0  0  0  0  0  0  0
  -21.8820   -3.8140   23.4340 C   0  0  0  0  0  3  0  0  0  0  0  0
  -21.9180   -4.6960   22.3400 C   0  0  0  0  0  0  0  0  0  0  0  0
  -22.1660   -4.2150   21.0980 F   0  0  0  0  0  0  0  0  0  0  0  0
  -21.5640   -3.4530   25.7730 F   0  0  0  0  0  0  0  0  0  0  0  0
  -22.7840  -13.5200   21.1840 C   0  0  0  0  0  0  0  0  0  0  0  0
  -22.0450  -12.8230   22.0410 N   0  0  0  0  0  0  0  0  0  0  0  0
  -22.3550  -14.5510   20.6690 O   0  0  0  0  0  0  0  0  0  0  0  0
  -22.4000  -11.9890   22.4850 H   0  0  0  0  0  0  0  0  0  0  0  0
  -21.1070  -13.1310   22.2570 H   0  0  0  0  0  0  0  0  0  0  0  0
  -25.4100  -15.1780   20.4100 N   0  0  0  0  0  0  0  0  0  0  0  0
  -24.6280  -15.8150   20.5030 H   0  0  0  0  0  0  0  0  0  0  0  0
  -26.2460  -15.6190   20.0520 H   0  0  0  0  0  0  0  0  0  0  0  0
  1  2  1  0
  3 56  1  0
  3  4  1  0
  3  1  1  0
  4  5  1  0
  4  2  1  0
  5  7  1  0
  6  5  1  0
  8  5  1  0
  9 13  1  0
  9 10  1  0
  9  8  1  0
 10 12  1  0
 10 11  1  0
 14 13  1  0
 15 26  2  0
 16 14  1  0
 16 21  1  0
 17 25  1  0
 17 27  1  0
 18 24  1  0
 18 20  1  0
 19 25  1  0
 20 19  1  0
 21 20  2  0
 22 23  1  0
 22 16  2  0
 23 18  2  0
 24 17  1  0
 25 15  1  0
 27 29  2  0
 28 27  1  0
 30 28  1  0
 31 40  2  0
 31 36  1  0
 32 28  1  0
 32 36  1  0
 33 32  1  0
 34 35  1  0
 34 33  1  0
 35 31  1  0
 36 37  2  0
 37 38  1  0
 39 38  2  0
 40 39  1  0
 41 15  1  0
 41 46  1  0
 41 42  1  0
 42 45  1  1
 42 43  1  0
 44 42  1  0
 46 49  1  0
 47 51  1  0
 47 46  1  0
 48 47  2  0
 51 50  1  0
 53 51  1  0
 53 54  1  0
 53 52  1  0
 56 55  1  0
 57 58  2  0
 57 60  1  0
 58 61  1  0
 59 62  1  0
 60 63  1  0
 60 59  2  0
 61 56  1  0
 61 62  2  0
 62 64  1  0
 65 78  1  0
 66 71  1  0
 67 68  1  0
 67 66  1  0
 69 68  1  0
 69 82  1  0
 69 70  1  0
 71 65  1  0
 71 70  1  0
 72 65  2  0
 73 77  1  0
 75 73  1  0
 75 78  1  0
 76 74  1  0
 77 64  1  0
 77 74  1  0
 78 76  1  0
 79 80  2  0
 80 99  1  0
 81 80  1  0
 81 84  1  0
 82 79  1  0
 82 83  1  0
 83 81  2  0
 84 85  1  0
 85 86  2  0
 87 90  1  0
 87 86  1  0
 88 87  2  0
 89 88  1  0
 89 84  2  0
 90 91  1  0
 91 92  1  0
 92 93  2  0
 94 93  1  0
 94 98  1  0
 95 94  2  0
 96 91  2  0
 96 95  1  0
 97 96  1  0
 99100  1  0
100103  1  0
100102  1  0
101 99  2  0
104105  1  0
104 79  1  0
106104  1  0
M  ISO  4  13 101  14 101  65 100  78 100
M  END
>  <TORSDO>  (3) 
F 24

>  <SCORE>  (3) 
2.861

>  <name>  (3) 
2

>  <ligand_id>  (3) 
2

>  <original_smiles>  (3) 
[H]c1c([H])c([H])c2c(c1[H])C([H])([H])C([H])([H])C([H])([H])C2([H])N([H])C(=O)C1([H])N(C(=O)C([H])(N([H])C(=O)C([H])(N([H])C([H])([H])[H])C([H])([H])[H])C(C([H])([H])[H])(C([H])([H])[H])C([H])([H])[H])C([H])([H])c2c([H])c(OC([H])([H])C([H])(N([H])[H])C([H])([H])[N+]([H])([H])C3([H])C([H])([H])C([H])([H])C3([H])C([H])(c3c([H])c([H])c(C([H])([H])[H])c([H])c3OC3([H])C([H])([H])C([H])([H])N(C(=O)N4C([H])([H])C([H])([H])C([H])([H])C([H])(n5nc(-c6c([H])c([H])c(Oc7c([H])c([H])c(F)c([H])c7F)c([H])c6[H])c(C(=O)N([H])[H])c5N([H])[H])C4([H])[H])C([H])([H])C3([H])[H])C([H])([H])[H])c([H])c([H])c2C1([H])[H]

>  <smiles>  (3) 
[H]c1c([H])c([H])c2c(c1[H])C([H])([H])C([H])([H])C([H])([H])C2([H])N([H])C(=O)C1([H])N(C(=O)C([H])(N([H])C(=O)C([H])(N([H])C([H])([H])[H])C([H])([H])[H])C(C([H])([H])[H])(C([H])([H])[H])C([H])([H])[H])C([H])([H])c2c([H])c(OC([H])([H])C([H])(N([H])[H])C([H])([H])[N+]([H])([H])C3([H])C([H])([H])C([H])([H])C3([H])C([H])(c3c([H])c([H])c(C([H])([H])[H])c([H])c3OC3([H])C([H])([H])C([H])([H])N(C(=O)N4C([H])([H])C([H])([H])C([H])([H])C([H])(n5nc(-c6c([H])c([H])c(Oc7c([H])c([H])c(F)c([H])c7F)c([H])c6[H])c(C(=O)N([H])[H])c5N([H])[H])C4([H])[H])C([H])([H])C3([H])[H])C([H])([H])[H])c([H])c([H])c2C1([H])[H]

$$$$
3:0:0
     RDKit          3D

101111  0  0  1  0  0  0  0  0999 V2000
  -32.3840  -21.0680   20.4340 C   0  0  0  0  0  3  0  0  0  0  0  0
  -33.7970  -19.1310   20.2070 C   0  0  0  0  0  3  0  0  0  0  0  0
  -33.2010  -21.7320   19.4990 C   0  0  0  0  0  0  0  0  0  0  0  0
  -32.6590  -19.7390   20.7780 C   0  0  0  0  0  0  0  0  0  0  0  0
  -34.2880  -21.0180   18.9440 C   0  0  0  0  0  0  0  0  0  0  0  0
  -34.5900  -19.7510   19.3070 N   0  0  0  0  0  0  0  0  0  0  0  0
  -31.4650  -23.3250   18.5290 C   0  0  0  0  0  2  0  0  0  0  0  0
  -33.0290  -24.0950   20.3620 C   0  0  0  0  0  2  0  0  0  0  0  0
  -31.0260  -24.7930   18.3390 C   0  0  0  0  0  2  0  0  0  0  0  0
  -32.6080  -25.5430   20.0670 C   0  0  0  0  0  2  0  0  0  0  0  0
  -32.8800  -23.1790   19.1300 C   0  0  0  0  0  3  0  0  0  0  0  0
  -31.2090  -25.6240   19.5630 N   0  0  1  0  0  4  0  0  0  0  0  0
  -30.6200  -25.2350   20.2880 H   0  0  0  0  0  0  0  0  0  0  0  0
  -30.7750  -27.0410   19.3850 C   0  0  0  0  0  2  0  0  0  0  0  0
  -29.2920  -27.2570   18.9830 C   0  0  0  0  0  2  0  0  0  0  0  0
  -28.3550  -26.7680   19.9560 O   0  0  0  0  0  0  0  0  0  0  0  0
  -24.5620  -31.8610   23.2050 C   0  0  0  0  0  0  0  0  0  0  0  0
  -27.1750  -27.4770   20.0240 C   0  0  0  0  0  0  0  0  0  0  0  0
  -23.3150  -30.4650   21.5810 C   0  0  0  0  0  3  0  0  0  0  0  0
  -24.7480  -28.9280   20.1240 C   0  0  0  0  0  0  0  0  0  0  0  0
  -25.8320  -30.8370   21.3260 C   0  0  0  0  0  2  0  0  0  0  0  0
  -25.9130  -29.4710   20.6760 C   0  0  0  0  0  0  0  0  0  0  0  0
  -27.1290  -28.7550   20.6250 C   0  0  0  0  0  3  0  0  0  0  0  0
  -25.9880  -26.9200   19.5060 C   0  0  0  0  0  3  0  0  0  0  0  0
  -24.7770  -27.6430   19.5420 C   0  0  0  0  0  3  0  0  0  0  0  0
  -23.4970  -29.7780   20.1980 C   0  0  0  0  0  2  0  0  0  0  0  0
  -24.5880  -31.0670   22.0960 N   0  0  0  0  0  0  0  0  0  0  0  0
  -23.4960  -32.1380   23.7730 O   0  0  0  0  0  0  0  0  0  0  0  0
  -22.6790  -29.4480   22.5560 C   0  0  0  0  0  0  0  0  0  0  0  0
  -21.3540  -29.2650   22.4440 N   0  0  0  0  0  0  0  0  0  0  0  0
  -23.3730  -28.8280   23.3650 O   0  0  0  0  0  0  0  0  0  0  0  0
  -20.8580  -29.8140   21.7560 H   0  0  0  0  0  0  0  0  0  0  0  0
  -17.9910  -28.0460   22.9580 C   0  0  0  0  0  0  0  0  0  0  0  0
  -20.5470  -28.3260   23.2210 C   0  0  0  0  0  3  0  0  0  0  0  0
  -20.6600  -26.8910   22.6560 C   0  0  0  0  0  2  0  0  0  0  0  0
  -19.5590  -26.5510   21.6480 C   0  0  0  0  0  2  0  0  0  0  0  0
  -18.1760  -26.6920   22.2920 C   0  0  0  0  0  2  0  0  0  0  0  0
  -19.1040  -28.8200   23.3790 C   0  0  0  0  0  0  0  0  0  0  0  0
  -18.8770  -30.0880   23.9580 C   0  0  0  0  0  3  0  0  0  0  0  0
  -17.5680  -30.5780   24.1230 C   0  0  0  0  0  3  0  0  0  0  0  0
  -16.4700  -29.8000   23.7230 C   0  0  0  0  0  3  0  0  0  0  0  0
  -16.6800  -28.5350   23.1430 C   0  0  0  0  0  3  0  0  0  0  0  0
  -25.8690  -32.4810   23.7990 C   0  0  0  0  0  3  0  0  0  0  0  0
  -25.5780  -33.8790   24.1410 N   0  0  0  0  0  0  0  0  0  0  0  0
  -25.9220  -34.9320   23.3870 C   0  0  0  0  0  0  0  0  0  0  0  0
  -26.5890  -34.8270   22.3540 O   0  0  0  0  0  0  0  0  0  0  0  0
  -24.9940  -34.0370   24.9480 H   0  0  0  0  0  0  0  0  0  0  0  0
  -24.2290  -36.7550   23.0280 C   0  0  0  0  0  1  0  0  0  0  0  0
  -25.4510  -36.3220   23.8530 C   0  0  0  0  0  3  0  0  0  0  0  0
  -27.5860  -37.1610   24.7260 C   0  0  0  0  0  1  0  0  0  0  0  0
  -26.5000  -37.3590   23.7690 N   0  0  0  0  0  0  0  0  0  0  0  0
  -26.1080  -38.2830   23.9270 H   0  0  0  0  0  0  0  0  0  0  0  0
  -26.4160  -31.6970   25.0550 C   0  0  1  0  0  0  0  0  0  0  0  0
  -25.3480  -31.4420   26.1420 C   0  0  0  0  0  1  0  0  0  0  0  0
  -26.9920  -30.3230   24.6350 C   0  0  0  0  0  1  0  0  0  0  0  0
  -27.5780  -32.4850   25.7050 C   0  0  0  0  0  1  0  0  0  0  0  0
  -35.9620  -20.7920   17.2260 C   0  0  0  0  0  1  0  0  0  0  0  0
  -35.0780  -21.6150   17.9880 O   0  0  0  0  0  0  0  0  0  0  0  0
  -31.7940  -19.1210   21.6500 O   0  0  0  0  0  0  0  0  0  0  0  0
  -30.7840  -14.4800   20.2200 C   0  0  0  0  0  0  0  0  0  0  0  0
  -30.4030  -12.4470   18.8910 C   0  0  0  0  0  2  0  0  0  0  0  0
  -29.3870  -12.7620   17.7740 C   0  0  0  0  0  2  0  0  0  0  0  0
  -27.9390  -12.6090   18.2820 C   0  0  0  0  0  2  0  0  0  0  0  0
  -27.6910  -13.3480   19.6230 C   0  0  0  0  0  3  0  0  0  0  0  0
  -28.8010  -12.9950   20.6390 C   0  0  0  0  0  2  0  0  0  0  0  0
  -30.1000  -13.3250   20.0270 N   0  0  0  0  0  0  0  0  0  0  0  0
  -31.8630  -14.7410   19.6780 O   0  0  0  0  0  0  0  0  0  0  0  0
  -30.5750  -17.2390   22.4890 C   0  0  0  0  0  2  0  0  0  0  0  0
  -30.5460  -17.7730   20.0420 C   0  0  0  0  0  2  0  0  0  0  0  0
  -30.2160  -15.7550   22.2460 C   0  0  0  0  0  2  0  0  0  0  0  0
  -29.5870  -16.5640   19.9860 C   0  0  0  0  0  2  0  0  0  0  0  0
  -31.4020  -17.7970   21.3280 C   0  0  0  0  0  3  0  0  0  0  0  0
  -30.0580  -15.4480   20.8130 N   0  0  0  0  0  0  0  0  0  0  0  0
  -25.3210  -13.9420   20.4450 C   0  0  0  0  0  0  0  0  0  0  0  0
  -24.2710  -13.1550   20.8480 C   0  0  0  0  0  0  0  0  0  0  0  0
  -24.7370  -11.8080   20.7690 C   0  0  0  0  0  0  0  0  0  0  0  0
  -26.3570  -13.0680   20.1540 N   0  0  0  0  0  0  0  0  0  0  0  0
  -26.0120  -11.7810   20.4020 N   0  0  0  0  0  0  0  0  0  0  0  0
  -24.0280  -10.5370   20.9680 C   0  0  0  0  0  0  0  0  0  0  0  0
  -24.4820   -9.5770   21.8970 C   0  0  0  0  0  3  0  0  0  0  0  0
  -23.7770   -8.3670   22.0820 C   0  0  0  0  0  3  0  0  0  0  0  0
  -22.6030   -8.1100   21.3350 C   0  0  0  0  0  0  0  0  0  0  0  0
  -22.1700   -9.0580   20.3920 C   0  0  0  0  0  3  0  0  0  0  0  0
  -22.8770  -10.2580   20.2070 C   0  0  0  0  0  3  0  0  0  0  0  0
  -21.8680   -6.9540   21.4260 O   0  0  0  0  0  0  0  0  0  0  0  0
  -21.7960   -6.2380   22.5950 C   0  0  0  0  0  0  0  0  0  0  0  0
  -21.3190   -6.8140   23.7920 C   0  0  0  0  0  3  0  0  0  0  0  0
  -21.1970   -6.0240   24.9530 C   0  0  0  0  0  3  0  0  0  0  0  0
  -21.5400   -4.6590   24.9160 C   0  0  0  0  0  0  0  0  0  0  0  0
  -22.0080   -4.0840   23.7220 C   0  0  0  0  0  3  0  0  0  0  0  0
  -22.1320   -4.8710   22.5630 C   0  0  0  0  0  0  0  0  0  0  0  0
  -22.5640   -4.3060   21.4100 F   0  0  0  0  0  0  0  0  0  0  0  0
  -21.4160   -3.8980   26.0280 F   0  0  0  0  0  0  0  0  0  0  0  0
  -22.8840  -13.6160   21.1950 C   0  0  0  0  0  0  0  0  0  0  0  0
  -22.2010  -12.8920   22.0770 N   0  0  0  0  0  0  0  0  0  0  0  0
  -22.4140  -14.6490   20.7210 O   0  0  0  0  0  0  0  0  0  0  0  0
  -22.5960  -12.0580   22.4860 H   0  0  0  0  0  0  0  0  0  0  0  0
  -21.2690  -13.1760   22.3450 H   0  0  0  0  0  0  0  0  0  0  0  0
  -25.4760  -15.3130   20.2850 N   0  0  0  0  0  0  0  0  0  0  0  0
  -24.7220  -15.9760   20.4250 H   0  0  0  0  0  0  0  0  0  0  0  0
  -26.3290  -15.7430   19.9490 H   0  0  0  0  0  0  0  0  0  0  0  0
  1  4  1  0
  2  4  2  0
  3  1  2  0
  4 59  1  0
  5  6  2  0
  5  3  1  0
  6  2  1  0
  7 11  1  0
  9  7  1  0
  9 12  1  0
 10  8  1  0
 11  3  1  0
 11  8  1  0
 12 10  1  0
 12 13  1  1
 14 12  1  0
 15 14  1  0
 15 16  1  0
 16 18  1  0
 17 28  2  0
 18 23  1  0
 19 27  1  0
 19 29  1  0
 20 26  1  0
 20 22  1  0
 21 27  1  0
 22 21  1  0
 23 22  2  0
 24 25  1  0
 24 18  2  0
 25 20  2  0
 26 19  1  0
 27 17  1  0
 29 31  2  0
 30 29  1  0
 32 30  1  0
 33 42  2  0
 33 38  1  0
 34 30  1  0
 34 38  1  0
 35 34  1  0
 36 37  1  0
 36 35  1  0
 37 33  1  0
 38 39  2  0
 39 40  1  0
 41 40  2  0
 42 41  1  0
 43 17  1  0
 43 44  1  0
 43 53  1  0
 44 47  1  0
 45 49  1  0
 45 44  1  0
 46 45  2  0
 49 48  1  0
 51 49  1  0
 51 52  1  0
 51 50  1  0
 53 56  1  1
 53 54  1  0
 55 53  1  0
 57 58  1  0
 58  5  1  0
 60 73  1  0
 61 66  1  0
 62 63  1  0
 62 61  1  0
 64 63  1  0
 64 77  1  0
 64 65  1  0
 66 60  1  0
 66 65  1  0
 67 60  2  0
 69 72  1  0
 70 68  1  0
 71 69  1  0
 71 73  1  0
 72 59  1  0
 72 68  1  0
 73 70  1  0
 74 75  2  0
 75 94  1  0
 76 75  1  0
 76 79  1  0
 77 78  1  0
 77 74  1  0
 78 76  2  0
 79 80  1  0
 80 81  2  0
 82 85  1  0
 82 81  1  0
 83 82  2  0
 84 83  1  0
 84 79  2  0
 85 86  1  0
 86 87  1  0
 87 88  2  0
 89 88  1  0
 89 93  1  0
 90 89  2  0
 91 86  2  0
 91 90  1  0
 92 91  1  0
 94 95  1  0
 95 98  1  0
 95 97  1  0
 96 94  2  0
 99100  1  0
 99 74  1  0
101 99  1  0
M  ISO  4  15 101  16 101  60 100  73 100
M  END
>  <TORSDO>  (4) 
F 21

>  <SCORE>  (4) 
-12.720

>  <name>  (4) 
3

>  <ligand_id>  (4) 
3

>  <original_smiles>  (4) 
[H]c1nc(OC([H])([H])[H])c(C2([H])C([H])([H])C([H])([H])[N+]([H])(C([H])([H])C([H])([H])Oc3c([H])c([H])c4c(c3[H])C([H])([H])N(C(=O)C([H])(N([H])C(=O)C([H])(N([H])C([H])([H])[H])C([H])([H])[H])C(C([H])([H])[H])(C([H])([H])[H])C([H])([H])[H])C([H])(C(=O)N([H])C3([H])c5c([H])c([H])c([H])c([H])c5C([H])([H])C([H])([H])C3([H])[H])C4([H])[H])C([H])([H])C2([H])[H])c([H])c1OC1([H])C([H])([H])C([H])([H])N(C(=O)N2C([H])([H])C([H])([H])C([H])([H])C([H])(n3nc(-c4c([H])c([H])c(Oc5c([H])c([H])c(F)c([H])c5F)c([H])c4[H])c(C(=O)N([H])[H])c3N([H])[H])C2([H])[H])C([H])([H])C1([H])[H]

>  <smiles>  (4) 
[H]c1nc(OC([H])([H])[H])c(C2([H])C([H])([H])C([H])([H])[N+]([H])(C([H])([H])C([H])([H])Oc3c([H])c([H])c4c(c3[H])C([H])([H])N(C(=O)C([H])(N([H])C(=O)C([H])(N([H])C([H])([H])[H])C([H])([H])[H])C(C([H])([H])[H])(C([H])([H])[H])C([H])([H])[H])C([H])(C(=O)N([H])C3([H])c5c([H])c([H])c([H])c([H])c5C([H])([H])C([H])([H])C3([H])[H])C4([H])[H])C([H])([H])C2([H])[H])c([H])c1OC1([H])C([H])([H])C([H])([H])N(C(=O)N2C([H])([H])C([H])([H])C([H])([H])C([H])(n3nc(-c4c([H])c([H])c(Oc5c([H])c([H])c(F)c([H])c5F)c([H])c4[H])c(C(=O)N([H])[H])c3N([H])[H])C2([H])[H])C([H])([H])C1([H])[H]

$$$$
4:0:0
     RDKit          3D

105115  0  0  1  0  0  0  0  0999 V2000
  -31.4420  -21.2280   23.1360 C   0  0  0  0  0  1  0  0  0  0  0  0
  -30.8600  -20.4260   21.9480 C   0  0  0  0  0  3  0  0  0  0  0  0
  -31.2990  -18.3130   23.3970 C   0  0  0  0  0  2  0  0  0  0  0  0
  -31.1930  -16.7880   23.2290 C   0  0  0  0  0  2  0  0  0  0  0  0
  -30.5740  -17.8810   21.1570 C   0  0  0  0  0  3  0  0  0  0  0  0
  -31.3510  -18.9390   21.9820 C   0  0  0  0  0  3  0  0  0  0  0  0
  -31.1450  -16.5620   21.7180 C   0  0  0  0  0  3  0  0  0  0  0  0
  -30.7630  -14.5790   20.2870 C   0  0  0  0  0  0  0  0  0  0  0  0
  -30.3090  -12.5620   18.9510 C   0  0  0  0  0  2  0  0  0  0  0  0
  -29.3330  -12.8670   17.8020 C   0  0  0  0  0  2  0  0  0  0  0  0
  -27.8790  -12.7030   18.2780 C   0  0  0  0  0  2  0  0  0  0  0  0
  -27.6000  -13.4680   19.6000 C   0  0  0  0  0  3  0  0  0  0  0  0
  -28.6890  -13.1800   20.6580 C   0  0  0  0  0  2  0  0  0  0  0  0
  -30.0050  -13.4740   20.0650 N   0  0  0  0  0  0  0  0  0  0  0  0
  -31.7660  -14.8330   19.6160 O   0  0  0  0  0  0  0  0  0  0  0  0
  -30.4000  -15.3600   21.3160 N   0  0  0  0  0  0  0  0  0  0  0  0
  -29.5820  -15.1000   21.8440 H   0  0  0  0  0  0  0  0  0  0  0  0
  -25.2130  -14.0370   20.3810 C   0  0  0  0  0  0  0  0  0  0  0  0
  -24.1660  -13.2470   20.7730 C   0  0  0  0  0  0  0  0  0  0  0  0
  -24.6410  -11.9020   20.7130 C   0  0  0  0  0  0  0  0  0  0  0  0
  -26.2620  -13.1700   20.1110 N   0  0  0  0  0  0  0  0  0  0  0  0
  -25.9210  -11.8800   20.3630 N   0  0  0  0  0  0  0  0  0  0  0  0
  -23.9350  -10.6290   20.9110 C   0  0  0  0  0  0  0  0  0  0  0  0
  -24.3620   -9.6890   21.8750 C   0  0  0  0  0  3  0  0  0  0  0  0
  -23.6570   -8.4810   22.0600 C   0  0  0  0  0  3  0  0  0  0  0  0
  -22.5100   -8.2010   21.2790 C   0  0  0  0  0  0  0  0  0  0  0  0
  -22.1030   -9.1300   20.3030 C   0  0  0  0  0  3  0  0  0  0  0  0
  -22.8090  -10.3300   20.1180 C   0  0  0  0  0  3  0  0  0  0  0  0
  -21.7780   -7.0420   21.3690 O   0  0  0  0  0  0  0  0  0  0  0  0
  -21.6620   -6.3550   22.5510 C   0  0  0  0  0  0  0  0  0  0  0  0
  -21.1420   -6.9590   23.7160 C   0  0  0  0  0  3  0  0  0  0  0  0
  -20.9740   -6.1970   24.8900 C   0  0  0  0  0  3  0  0  0  0  0  0
  -21.3180   -4.8320   24.8980 C   0  0  0  0  0  0  0  0  0  0  0  0
  -21.8320   -4.2280   23.7380 C   0  0  0  0  0  3  0  0  0  0  0  0
  -22.0000   -4.9860   22.5670 C   0  0  0  0  0  0  0  0  0  0  0  0
  -22.4760   -4.3940   21.4440 F   0  0  0  0  0  0  0  0  0  0  0  0
  -21.1510   -4.0970   26.0220 F   0  0  0  0  0  0  0  0  0  0  0  0
  -22.7720  -13.7040   21.0960 C   0  0  0  0  0  0  0  0  0  0  0  0
  -22.0820  -12.9890   21.9770 N   0  0  0  0  0  0  0  0  0  0  0  0
  -22.3050  -14.7300   20.6030 O   0  0  0  0  0  0  0  0  0  0  0  0
  -22.4720  -12.1560   22.3930 H   0  0  0  0  0  0  0  0  0  0  0  0
  -21.1500  -13.2770   22.2360 H   0  0  0  0  0  0  0  0  0  0  0  0
  -25.3600  -15.4090   20.2110 N   0  0  0  0  0  0  0  0  0  0  0  0
  -24.5950  -16.0620   20.3390 H   0  0  0  0  0  0  0  0  0  0  0  0
  -26.2000  -15.8460   19.8560 H   0  0  0  0  0  0  0  0  0  0  0  0
  -31.9080  -17.8150   18.9850 C   0  0  0  0  0  3  0  0  0  0  0  0
  -29.6080  -18.1260   17.4180 C   0  0  0  0  0  3  0  0  0  0  0  0
  -30.6570  -17.9630   19.6240 C   0  0  0  0  0  0  0  0  0  0  0  0
  -32.0150  -17.7980   17.5790 C   0  0  0  0  0  0  0  0  0  0  0  0
  -29.4980  -18.1370   18.8240 C   0  0  0  0  0  0  0  0  0  0  0  0
  -30.8550  -17.9470   16.7890 C   0  0  0  0  0  0  0  0  0  0  0  0
  -33.3790  -17.5960   16.9430 C   0  0  0  0  0  1  0  0  0  0  0  0
  -28.1220  -18.3410   19.4380 C   0  0  0  0  0  1  0  0  0  0  0  0
  -30.9270  -17.9080   15.2720 C   0  0  0  0  0  1  0  0  0  0  0  0
  -32.6080  -21.2430   20.2010 C   0  0  0  0  0  1  0  0  0  0  0  0
  -31.1140  -21.1700   20.5980 C   0  0  0  0  0  3  0  0  0  0  0  0
  -31.3090  -23.7860   20.5050 C   0  0  0  0  0  2  0  0  0  0  0  0
  -29.4430  -22.6000   19.2590 C   0  0  0  0  0  2  0  0  0  0  0  0
  -30.5460  -25.1110   20.3660 C   0  0  0  0  0  2  0  0  0  0  0  0
  -28.6880  -23.9380   19.1490 C   0  0  0  0  0  2  0  0  0  0  0  0
  -30.3720  -22.5470   20.4920 C   0  0  0  0  0  3  0  0  0  0  0  0
  -29.6710  -25.1220   19.0950 C   0  0  0  0  0  3  0  0  0  0  0  0
  -29.9120  -27.5240   18.2350 C   0  0  0  0  0  1  0  0  0  0  0  0
  -28.9680  -26.4760   18.8440 C   0  0  0  0  0  3  0  0  0  0  0  0
  -28.4860  -26.9900   20.0830 O   0  0  0  0  0  0  0  0  0  0  0  0
  -24.5680  -31.9820   23.2530 C   0  0  0  0  0  0  0  0  0  0  0  0
  -27.2930  -27.6700   20.0800 C   0  0  0  0  0  0  0  0  0  0  0  0
  -23.3830  -30.5840   21.5880 C   0  0  0  0  0  3  0  0  0  0  0  0
  -24.8620  -29.0990   20.1350 C   0  0  0  0  0  0  0  0  0  0  0  0
  -25.8970  -31.0010   21.3880 C   0  0  0  0  0  2  0  0  0  0  0  0
  -26.0060  -29.6410   20.7340 C   0  0  0  0  0  0  0  0  0  0  0  0
  -27.2210  -28.9250   20.7200 C   0  0  0  0  0  3  0  0  0  0  0  0
  -26.1290  -27.1240   19.4940 C   0  0  0  0  0  3  0  0  0  0  0  0
  -24.9160  -27.8370   19.5190 C   0  0  0  0  0  3  0  0  0  0  0  0
  -23.6010  -29.9290   20.1960 C   0  0  0  0  0  2  0  0  0  0  0  0
  -24.6350  -31.2020   22.1360 N   0  0  0  0  0  0  0  0  0  0  0  0
  -23.4830  -32.2230   23.8010 O   0  0  0  0  0  0  0  0  0  0  0  0
  -22.7550  -29.5350   22.5340 C   0  0  0  0  0  0  0  0  0  0  0  0
  -21.4330  -29.3360   22.4090 N   0  0  0  0  0  0  0  0  0  0  0  0
  -23.4520  -28.9040   23.3330 O   0  0  0  0  0  0  0  0  0  0  0  0
  -20.9330  -29.9010   21.7370 H   0  0  0  0  0  0  0  0  0  0  0  0
  -18.0760  -28.0990   22.9110 C   0  0  0  0  0  0  0  0  0  0  0  0
  -20.6330  -28.3740   23.1660 C   0  0  0  0  0  3  0  0  0  0  0  0
  -20.7430  -26.9570   22.5550 C   0  0  0  0  0  2  0  0  0  0  0  0
  -19.6350  -26.6480   21.5440 C   0  0  0  0  0  2  0  0  0  0  0  0
  -18.2570  -26.7680   22.2020 C   0  0  0  0  0  2  0  0  0  0  0  0
  -19.1910  -28.8610   23.3480 C   0  0  0  0  0  0  0  0  0  0  0  0
  -18.9670  -30.1090   23.9690 C   0  0  0  0  0  3  0  0  0  0  0  0
  -17.6610  -30.5970   24.1550 C   0  0  0  0  0  3  0  0  0  0  0  0
  -16.5590  -29.8310   23.7350 C   0  0  0  0  0  3  0  0  0  0  0  0
  -16.7670  -28.5840   23.1210 C   0  0  0  0  0  3  0  0  0  0  0  0
  -25.8440  -32.6260   23.8800 C   0  0  0  0  0  3  0  0  0  0  0  0
  -25.5250  -34.0250   24.1920 N   0  0  0  0  0  0  0  0  0  0  0  0
  -25.8730  -35.0710   23.4310 C   0  0  0  0  0  0  0  0  0  0  0  0
  -26.5660  -34.9610   22.4160 O   0  0  0  0  0  0  0  0  0  0  0  0
  -24.9110  -34.1840   24.9770 H   0  0  0  0  0  0  0  0  0  0  0  0
  -24.1550  -36.8600   23.0130 C   0  0  0  0  0  1  0  0  0  0  0  0
  -25.3710  -36.4620   23.8640 C   0  0  0  0  0  3  0  0  0  0  0  0
  -27.4820  -37.3520   24.7520 C   0  0  0  0  0  1  0  0  0  0  0  0
  -26.4060  -37.5160   23.7770 N   0  0  0  0  0  0  0  0  0  0  0  0
  -25.9960  -38.4360   23.9090 H   0  0  0  0  0  0  0  0  0  0  0  0
  -26.3560  -31.8680   25.1650 C   0  0  1  0  0  0  0  0  0  0  0  0
  -25.2490  -31.6030   26.2120 C   0  0  0  0  0  1  0  0  0  0  0  0
  -26.9770  -30.5040   24.7810 C   0  0  0  0  0  1  0  0  0  0  0  0
  -27.4750  -32.6880   25.8480 C   0  0  0  0  0  1  0  0  0  0  0  0
  2  1  1  0
  4  3  1  0
  5 48  1  0
  5  7  1  0
  5  6  1  0
  6  2  1  0
  6  3  1  0
  7 16  1  0
  7  4  1  0
  8 16  1  0
  9 14  1  0
 10 11  1  0
 10  9  1  0
 12 11  1  0
 12 21  1  0
 12 13  1  0
 14  8  1  0
 14 13  1  0
 15  8  2  0
 16 17  1  0
 18 19  2  0
 19 38  1  0
 20 19  1  0
 20 23  1  0
 21 22  1  0
 21 18  1  0
 22 20  2  0
 23 24  1  0
 24 25  2  0
 26 29  1  0
 26 25  1  0
 27 26  2  0
 28 27  1  0
 28 23  2  0
 29 30  1  0
 30 35  2  0
 30 31  1  0
 31 32  2  0
 32 33  1  0
 33 37  1  0
 34 33  2  0
 35 34  1  0
 36 35  1  0
 38 39  1  0
 39 42  1  0
 39 41  1  0
 40 38  2  0
 43 44  1  0
 43 18  1  0
 45 43  1  0
 46 48  1  0
 47 50  1  0
 49 46  2  0
 50 53  1  0
 50 48  2  0
 51 47  2  0
 51 49  1  0
 52 49  1  0
 54 51  1  0
 56 55  1  0
 56  2  1  0
 58 61  1  0
 59 57  1  0
 60 58  1  0
 61 57  1  0
 61 56  1  0
 62 64  1  0
 62 60  1  0
 62 59  1  0
 64 63  1  0
 64 65  1  0
 66 77  2  0
 67 65  1  0
 67 72  1  0
 68 76  1  0
 68 78  1  0
 69 75  1  0
 69 71  1  0
 70 76  1  0
 71 70  1  0
 72 71  2  0
 73 74  1  0
 73 67  2  0
 74 69  2  0
 75 68  1  0
 76 66  1  0
 78 80  2  0
 79 78  1  0
 81 79  1  0
 82 91  2  0
 82 87  1  0
 83 79  1  0
 83 87  1  0
 84 83  1  0
 85 86  1  0
 85 84  1  0
 86 82  1  0
 87 88  2  0
 88 89  1  0
 90 89  2  0
 91 90  1  0
 92 66  1  0
 92 93  1  0
 92102  1  0
 93 96  1  0
 94 98  1  0
 94 93  1  0
 95 94  2  0
 98 97  1  0
100 98  1  0
100101  1  0
100 99  1  0
102105  1  1
102103  1  0
104102  1  0
M  ISO  4   8 100  16 100  64 101  65 101
M  END
>  <TORSDO>  (5) 
F 21

>  <SCORE>  (5) 
-12.894

>  <name>  (5) 
4

>  <ligand_id>  (5) 
4

>  <original_smiles>  (5) 
[H]c1c([H])c([H])c2c(c1[H])C([H])([H])C([H])([H])C([H])([H])C2([H])N([H])C(=O)C1([H])N(C(=O)C([H])(N([H])C(=O)C([H])(N([H])C([H])([H])[H])C([H])([H])[H])C(C([H])([H])[H])(C([H])([H])[H])C([H])([H])[H])C([H])([H])c2c([H])c(OC([H])(C([H])([H])[H])C3([H])C([H])([H])C([H])([H])C([H])(C([H])(C([H])([H])[H])C([H])(C([H])([H])[H])C4([H])C([H])([H])C([H])([H])C([H])(N([H])C(=O)N5C([H])([H])C([H])([H])C([H])([H])C([H])(n6nc(-c7c([H])c([H])c(Oc8c([H])c([H])c(F)c([H])c8F)c([H])c7[H])c(C(=O)N([H])[H])c6N([H])[H])C5([H])[H])C4([H])c4c([H])c(C([H])([H])[H])c(C([H])([H])[H])c([H])c4C([H])([H])[H])C([H])([H])C3([H])[H])c([H])c([H])c2C1([H])[H]

>  <smiles>  (5) 
[H]c1c([H])c([H])c2c(c1[H])C([H])([H])C([H])([H])C([H])([H])C2([H])N([H])C(=O)C1([H])N(C(=O)C([H])(N([H])C(=O)C([H])(N([H])C([H])([H])[H])C([H])([H])[H])C(C([H])([H])[H])(C([H])([H])[H])C([H])([H])[H])C([H])([H])c2c([H])c(OC([H])(C([H])([H])[H])C3([H])C([H])([H])C([H])([H])C([H])(C([H])(C([H])([H])[H])C([H])(C([H])([H])[H])C4([H])C([H])([H])C([H])([H])C([H])(N([H])C(=O)N5C([H])([H])C([H])([H])C([H])([H])C([H])(n6nc(-c7c([H])c([H])c(Oc8c([H])c([H])c(F)c([H])c8F)c([H])c7[H])c(C(=O)N([H])[H])c6N([H])[H])C5([H])[H])C4([H])c4c([H])c(C([H])([H])[H])c(C([H])([H])[H])c([H])c4C([H])([H])[H])C([H])([H])C3([H])[H])c([H])c([H])c2C1([H])[H]

$$$$
5:0:0
     RDKit          3D

 95104  0  0  1  0  0  0  0  0999 V2000
  -26.6040  -21.6800   21.1250 C   0  0  0  0  0  3  0  0  0  0  0  0
  -27.3850  -20.6190   20.6520 C   0  0  0  0  0  3  0  0  0  0  0  0
  -27.1200  -22.9980   21.1090 C   0  0  0  0  0  0  0  0  0  0  0  0
  -28.4430  -23.2010   20.6290 C   0  0  0  0  0  0  0  0  0  0  0  0
  -28.6640  -20.8720   20.1420 C   0  0  0  0  0  0  0  0  0  0  0  0
  -29.1900  -22.1430   20.1340 N   0  0  0  0  0  0  0  0  0  0  0  0
  -29.2870  -19.7830   19.4800 N   0  0  0  0  0  0  0  0  0  0  0  0
  -28.5830  -19.2580   18.9750 H   0  0  0  0  0  0  0  0  0  0  0  0
  -31.4750  -15.1800   20.3270 C   0  0  0  0  0  0  0  0  0  0  0  0
  -31.0500  -12.9390   19.3810 C   0  0  0  0  0  2  0  0  0  0  0  0
  -30.1630  -12.9800   18.1270 C   0  0  0  0  0  2  0  0  0  0  0  0
  -28.6850  -12.8770   18.5330 C   0  0  0  0  0  2  0  0  0  0  0  0
  -28.3020  -13.8510   19.6790 C   0  0  0  0  0  3  0  0  0  0  0  0
  -29.3380  -13.8530   20.8230 C   0  0  0  0  0  2  0  0  0  0  0  0
  -30.6460  -14.0960   20.2100 N   0  0  0  0  0  0  0  0  0  0  0  0
  -32.6880  -14.9820   20.2450 O   0  0  0  0  0  0  0  0  0  0  0  0
  -31.5200  -18.8070   19.4250 C   0  0  0  0  0  2  0  0  0  0  0  0
  -32.1410  -17.4630   19.7700 C   0  0  0  0  0  2  0  0  0  0  0  0
  -29.8120  -17.2860   20.1960 C   0  0  0  0  0  2  0  0  0  0  0  0
  -30.1960  -18.8330   20.1650 C   0  0  0  0  0  3  0  0  0  0  0  0
  -31.0710  -16.4910   20.0990 N   0  0  0  0  0  0  0  0  0  0  0  0
  -25.9340  -14.5270   20.3840 C   0  0  0  0  0  0  0  0  0  0  0  0
  -24.8270  -13.7900   20.7120 C   0  0  0  0  0  0  0  0  0  0  0  0
  -25.2340  -12.4220   20.6680 C   0  0  0  0  0  0  0  0  0  0  0  0
  -26.9440  -13.6070   20.1570 N   0  0  0  0  0  0  0  0  0  0  0  0
  -26.5310  -12.3370   20.3930 N   0  0  0  0  0  0  0  0  0  0  0  0
  -24.4510  -11.1880   20.8140 C   0  0  0  0  0  0  0  0  0  0  0  0
  -24.8040  -10.1950   21.7550 C   0  0  0  0  0  3  0  0  0  0  0  0
  -24.0220   -9.0260   21.8910 C   0  0  0  0  0  3  0  0  0  0  0  0
  -22.8740   -8.8420   21.0840 C   0  0  0  0  0  0  0  0  0  0  0  0
  -22.5430   -9.8220   20.1320 C   0  0  0  0  0  3  0  0  0  0  0  0
  -23.3240  -10.9820   19.9930 C   0  0  0  0  0  3  0  0  0  0  0  0
  -22.0700   -7.7290   21.1310 O   0  0  0  0  0  0  0  0  0  0  0  0
  -21.8950   -7.0160   22.2900 C   0  0  0  0  0  0  0  0  0  0  0  0
  -21.3620   -7.6060   23.4560 C   0  0  0  0  0  3  0  0  0  0  0  0
  -21.1330   -6.8190   24.6030 C   0  0  0  0  0  3  0  0  0  0  0  0
  -21.4280   -5.4440   24.5850 C   0  0  0  0  0  0  0  0  0  0  0  0
  -21.9510   -4.8510   23.4220 C   0  0  0  0  0  3  0  0  0  0  0  0
  -22.1820   -5.6350   22.2770 C   0  0  0  0  0  0  0  0  0  0  0  0
  -22.6690   -5.0550   21.1540 F   0  0  0  0  0  0  0  0  0  0  0  0
  -21.2010   -4.6860   25.6850 F   0  0  0  0  0  0  0  0  0  0  0  0
  -23.4440  -14.3210   20.9540 C   0  0  0  0  0  0  0  0  0  0  0  0
  -22.6640  -13.6430   21.7930 N   0  0  0  0  0  0  0  0  0  0  0  0
  -23.0620  -15.3690   20.4390 O   0  0  0  0  0  0  0  0  0  0  0  0
  -22.9900  -12.7960   22.2380 H   0  0  0  0  0  0  0  0  0  0  0  0
  -21.7330  -13.9770   21.9950 H   0  0  0  0  0  0  0  0  0  0  0  0
  -26.1560  -15.8910   20.2320 N   0  0  0  0  0  0  0  0  0  0  0  0
  -25.4090  -16.5720   20.3130 H   0  0  0  0  0  0  0  0  0  0  0  0
  -27.0310  -16.3000   19.9320 H   0  0  0  0  0  0  0  0  0  0  0  0
  -30.4640  -24.6010   21.3720 C   0  0  0  0  0  1  0  0  0  0  0  0
  -29.0580  -24.6530   20.7580 C   0  0  0  0  0  3  0  0  0  0  0  0
  -28.9570  -25.6600   19.5410 C   0  0  0  0  0  2  0  0  0  0  0  0
  -28.9010  -27.1110   19.8650 O   0  0  0  0  0  0  0  0  0  0  0  0
  -24.7310  -31.8660   23.3140 C   0  0  0  0  0  0  0  0  0  0  0  0
  -27.6990  -27.8330   19.8810 C   0  0  0  0  0  0  0  0  0  0  0  0
  -23.6450  -30.5370   21.5380 C   0  0  0  0  0  3  0  0  0  0  0  0
  -25.2200  -29.2510   19.9910 C   0  0  0  0  0  0  0  0  0  0  0  0
  -26.1550  -31.0650   21.4180 C   0  0  0  0  0  2  0  0  0  0  0  0
  -26.3410  -29.7660   20.6480 C   0  0  0  0  0  0  0  0  0  0  0  0
  -27.5830  -29.0710   20.5840 C   0  0  0  0  0  3  0  0  0  0  0  0
  -26.5480  -27.3730   19.2010 C   0  0  0  0  0  3  0  0  0  0  0  0
  -25.3260  -28.0600   19.2600 C   0  0  0  0  0  3  0  0  0  0  0  0
  -23.9150  -30.0100   20.1060 C   0  0  0  0  0  2  0  0  0  0  0  0
  -24.8590  -31.1710   22.1460 N   0  0  0  0  0  0  0  0  0  0  0  0
  -23.6260  -32.0070   23.8590 O   0  0  0  0  0  0  0  0  0  0  0  0
  -23.0610  -29.3870   22.3930 C   0  0  0  0  0  0  0  0  0  0  0  0
  -21.7560  -29.1090   22.2250 N   0  0  0  0  0  0  0  0  0  0  0  0
  -23.7820  -28.7480   23.1630 O   0  0  0  0  0  0  0  0  0  0  0  0
  -21.2240  -29.6790   21.5820 H   0  0  0  0  0  0  0  0  0  0  0  0
  -18.4870  -27.6080   22.5380 C   0  0  0  0  0  0  0  0  0  0  0  0
  -21.0150  -28.0360   22.8870 C   0  0  0  0  0  3  0  0  0  0  0  0
  -21.2440  -26.6840   22.1710 C   0  0  0  0  0  2  0  0  0  0  0  0
  -20.1750  -26.3700   21.1140 C   0  0  0  0  0  2  0  0  0  0  0  0
  -18.7740  -26.3540   21.7320 C   0  0  0  0  0  2  0  0  0  0  0  0
  -19.5370  -28.4050   23.0660 C   0  0  0  0  0  0  0  0  0  0  0  0
  -19.2140  -29.5870   23.7660 C   0  0  0  0  0  3  0  0  0  0  0  0
  -17.8710  -29.9730   23.9430 C   0  0  0  0  0  3  0  0  0  0  0  0
  -16.8350  -29.1740   23.4300 C   0  0  0  0  0  3  0  0  0  0  0  0
  -17.1440  -27.9910   22.7370 C   0  0  0  0  0  3  0  0  0  0  0  0
  -25.9570  -32.5360   24.0080 C   0  0  0  0  0  3  0  0  0  0  0  0
  -26.4240  -31.7780   25.3110 C   0  0  1  0  0  0  0  0  0  0  0  0
  -25.2750  -31.4880   26.3040 C   0  0  0  0  0  1  0  0  0  0  0  0
  -27.0880  -30.4280   24.9530 C   0  0  0  0  0  1  0  0  0  0  0  0
  -27.4940  -32.6150   26.0500 C   0  0  0  0  0  1  0  0  0  0  0  0
  -25.5850  -33.9210   24.3210 N   0  0  0  0  0  0  0  0  0  0  0  0
  -25.9320  -34.9900   23.5910 C   0  0  0  0  0  0  0  0  0  0  0  0
  -26.6680  -34.9130   22.6040 O   0  0  0  0  0  0  0  0  0  0  0  0
  -24.9330  -34.0500   25.0810 H   0  0  0  0  0  0  0  0  0  0  0  0
  -24.1740  -36.7330   23.1370 C   0  0  0  0  0  1  0  0  0  0  0  0
  -25.3740  -36.3590   24.0230 C   0  0  0  0  0  3  0  0  0  0  0  0
  -27.4210  -37.3070   24.9940 C   0  0  0  0  0  1  0  0  0  0  0  0
  -26.3800  -37.4440   23.9810 N   0  0  0  0  0  0  0  0  0  0  0  0
  -25.9350  -38.3500   24.0990 H   0  0  0  0  0  0  0  0  0  0  0  0
  -25.0040  -23.8990   21.8590 C   0  0  0  0  0  1  0  0  0  0  0  0
  -26.3860  -24.0810   21.5560 O   0  0  0  0  0  0  0  0  0  0  0  0
  2  1  2  0
  3  1  1  0
  3 95  1  0
  4 51  1  0
  4  3  2  0
  5  2  1  0
  6  5  2  0
  6  4  1  0
  7  5  1  0
  8  7  1  0
 10 15  1  0
 11 12  1  0
 11 10  1  0
 13 12  1  0
 13 25  1  0
 13 14  1  0
 15  9  1  0
 15 14  1  0
 16  9  2  0
 17 18  1  0
 17 20  1  0
 18 21  1  0
 20  7  1  0
 20 19  1  0
 21 19  1  0
 21  9  1  0
 22 23  2  0
 23 42  1  0
 24 23  1  0
 24 27  1  0
 25 22  1  0
 25 26  1  0
 26 24  2  0
 27 28  1  0
 28 29  2  0
 30 33  1  0
 30 29  1  0
 31 30  2  0
 32 31  1  0
 32 27  2  0
 33 34  1  0
 34 35  1  0
 35 36  2  0
 37 36  1  0
 37 41  1  0
 38 37  2  0
 39 34  2  0
 39 38  1  0
 40 39  1  0
 42 43  1  0
 43 46  1  0
 43 45  1  0
 44 42  2  0
 47 48  1  0
 47 22  1  0
 49 47  1  0
 51 50  1  0
 52 53  1  0
 52 51  1  0
 53 55  1  0
 54 65  2  0
 55 60  1  0
 56 64  1  0
 56 66  1  0
 57 63  1  0
 57 59  1  0
 58 64  1  0
 59 58  1  0
 60 59  2  0
 61 62  1  0
 61 55  2  0
 62 57  2  0
 63 56  1  0
 64 54  1  0
 66 68  2  0
 67 66  1  0
 69 67  1  0
 70 79  2  0
 70 75  1  0
 71 67  1  0
 71 75  1  0
 72 71  1  0
 73 74  1  0
 73 72  1  0
 74 70  1  0
 75 76  2  0
 76 77  1  0
 78 77  2  0
 79 78  1  0
 80 54  1  0
 80 85  1  0
 80 81  1  0
 81 84  1  1
 81 82  1  0
 83 81  1  0
 85 88  1  0
 86 90  1  0
 86 85  1  0
 87 86  2  0
 90 89  1  0
 92 90  1  0
 92 93  1  0
 92 91  1  0
 95 94  1  0
M  ISO  4   9 100  21 100  52 101  53 101
M  END
>  <TORSDO>  (6) 
F 19

>  <SCORE>  (6) 
-11.119

>  <name>  (6) 
5

>  <ligand_id>  (6) 
5

>  <original_smiles>  (6) 
[H]c1c(N([H])C2([H])C([H])([H])N(C(=O)N3C([H])([H])C([H])([H])C([H])([H])C([H])(n4nc(-c5c([H])c([H])c(Oc6c([H])c([H])c(F)c([H])c6F)c([H])c5[H])c(C(=O)N([H])[H])c4N([H])[H])C3([H])[H])C([H])([H])C2([H])[H])nc(C([H])(C([H])([H])[H])C([H])([H])Oc2c([H])c([H])c3c(c2[H])C([H])([H])N(C(=O)C([H])(N([H])C(=O)C([H])(N([H])C([H])([H])[H])C([H])([H])[H])C(C([H])([H])[H])(C([H])([H])[H])C([H])([H])[H])C([H])(C(=O)N([H])C2([H])c4c([H])c([H])c([H])c([H])c4C([H])([H])C([H])([H])C2([H])[H])C3([H])[H])c(OC([H])([H])[H])c1[H]

>  <smiles>  (6) 
[H]c1c(N([H])C2([H])C([H])([H])N(C(=O)N3C([H])([H])C([H])([H])C([H])([H])C([H])(n4nc(-c5c([H])c([H])c(Oc6c([H])c([H])c(F)c([H])c6F)c([H])c5[H])c(C(=O)N([H])[H])c4N([H])[H])C3([H])[H])C([H])([H])C2([H])[H])nc(C([H])(C([H])([H])[H])C([H])([H])Oc2c([H])c([H])c3c(c2[H])C([H])([H])N(C(=O)C([H])(N([H])C(=O)C([H])(N([H])C([H])([H])[H])C([H])([H])[H])C(C([H])([H])[H])(C([H])([H])[H])C([H])([H])[H])C([H])(C(=O)N([H])C2([H])c4c([H])c([H])c([H])c([H])c4C([H])([H])C([H])([H])C2([H])[H])C3([H])[H])c(OC([H])([H])[H])c1[H]

$$$$
6:0:0
     RDKit          3D

100110  0  0  1  0  0  0  0  0999 V2000
  -30.2040  -19.8100   21.1240 C   0  0  0  0  0  2  0  0  0  0  0  0
  -29.3780  -20.9060   21.1460 C   0  0  0  0  0  3  0  0  0  0  0  0
  -28.4000  -20.6610   20.1270 C   0  0  0  0  0  0  0  0  0  0  0  0
  -28.8120  -19.5650   19.4160 C   0  0  0  0  0  0  0  0  0  0  0  0
  -27.1350  -21.4370   19.8070 C   0  0  0  0  0  1  0  0  0  0  0  0
  -28.2000  -19.1060   18.1430 C   0  0  0  0  0  1  0  0  0  0  0  0
  -29.8560  -18.9400   20.1070 N   0  0  0  0  0  0  0  0  0  0  0  0
  -30.8680  -22.7840   22.0250 C   0  0  0  0  0  2  0  0  0  0  0  0
  -28.3580  -23.1370   22.0580 C   0  0  0  0  0  2  0  0  0  0  0  0
  -30.9610  -23.7290   20.7980 C   0  0  0  0  0  2  0  0  0  0  0  0
  -28.8430  -24.5670   21.7710 C   0  0  0  0  0  2  0  0  0  0  0  0
  -29.4970  -22.0740   22.1320 C   0  0  0  0  0  3  0  0  0  0  0  0
  -29.7210  -24.5340   20.5770 N   0  0  1  0  0  4  0  0  0  0  0  0
  -29.1770  -23.9980   19.9140 H   0  0  0  0  0  0  0  0  0  0  0  0
  -29.9260  -25.8690   19.9400 C   0  0  0  0  0  2  0  0  0  0  0  0
  -29.6120  -25.8620   18.4270 C   0  0  0  0  0  2  0  0  0  0  0  0
  -29.1170  -27.1400   18.0180 O   0  0  0  0  0  0  0  0  0  0  0  0
  -24.9050  -30.3300   22.7650 C   0  0  0  0  0  0  0  0  0  0  0  0
  -27.8280  -27.4860   18.3590 C   0  0  0  0  0  0  0  0  0  0  0  0
  -23.7370  -29.1150   20.9490 C   0  0  0  0  0  3  0  0  0  0  0  0
  -25.2090  -28.3260   19.0230 C   0  0  0  0  0  0  0  0  0  0  0  0
  -26.0700  -30.0900   20.5740 C   0  0  0  0  0  2  0  0  0  0  0  0
  -26.3180  -28.9620   19.5960 C   0  0  0  0  0  0  0  0  0  0  0  0
  -27.6260  -28.5530   19.2600 C   0  0  0  0  0  3  0  0  0  0  0  0
  -26.7020  -26.8530   17.7830 C   0  0  0  0  0  3  0  0  0  0  0  0
  -25.3960  -27.2680   18.1160 C   0  0  0  0  0  3  0  0  0  0  0  0
  -23.8440  -28.8380   19.4240 C   0  0  0  0  0  2  0  0  0  0  0  0
  -24.9280  -29.8500   21.4880 N   0  0  0  0  0  0  0  0  0  0  0  0
  -23.8970  -30.2140   23.4760 O   0  0  0  0  0  0  0  0  0  0  0  0
  -23.4620  -27.7790   21.6720 C   0  0  0  0  0  0  0  0  0  0  0  0
  -22.2340  -27.2590   21.5220 N   0  0  0  0  0  0  0  0  0  0  0  0
  -24.3490  -27.2230   22.3240 O   0  0  0  0  0  0  0  0  0  0  0  0
  -21.5570  -27.7850   20.9880 H   0  0  0  0  0  0  0  0  0  0  0  0
  -19.4550  -24.9550   21.5910 C   0  0  0  0  0  0  0  0  0  0  0  0
  -21.7700  -25.9910   22.0790 C   0  0  0  0  0  3  0  0  0  0  0  0
  -22.3560  -24.7940   21.2940 C   0  0  0  0  0  2  0  0  0  0  0  0
  -21.4410  -24.3200   20.1590 C   0  0  0  0  0  2  0  0  0  0  0  0
  -20.0850  -23.8820   20.7190 C   0  0  0  0  0  2  0  0  0  0  0  0
  -20.2440  -25.9600   22.2130 C   0  0  0  0  0  0  0  0  0  0  0  0
  -19.6050  -26.9580   22.9800 C   0  0  0  0  0  3  0  0  0  0  0  0
  -18.2070  -26.9600   23.1290 C   0  0  0  0  0  3  0  0  0  0  0  0
  -17.4290  -25.9590   22.5210 C   0  0  0  0  0  3  0  0  0  0  0  0
  -18.0560  -24.9560   21.7600 C   0  0  0  0  0  3  0  0  0  0  0  0
  -26.1320  -31.0750   23.3810 C   0  0  0  0  0  3  0  0  0  0  0  0
  -25.6400  -32.3300   23.9590 N   0  0  0  0  0  0  0  0  0  0  0  0
  -25.8450  -33.5440   23.4290 C   0  0  0  0  0  0  0  0  0  0  0  0
  -26.5390  -33.7270   22.4250 O   0  0  0  0  0  0  0  0  0  0  0  0
  -25.0180  -32.2490   24.7500 H   0  0  0  0  0  0  0  0  0  0  0  0
  -23.9570  -35.1970   23.2990 C   0  0  0  0  0  1  0  0  0  0  0  0
  -25.1730  -34.7440   24.1220 C   0  0  0  0  0  3  0  0  0  0  0  0
  -27.1380  -35.6140   25.3090 C   0  0  0  0  0  1  0  0  0  0  0  0
  -26.0850  -35.8880   24.3340 N   0  0  0  0  0  0  0  0  0  0  0  0
  -25.5730  -36.7080   24.6450 H   0  0  0  0  0  0  0  0  0  0  0  0
  -26.9000  -30.2200   24.4620 C   0  0  1  0  0  0  0  0  0  0  0  0
  -25.9810  -29.6370   25.5610 C   0  0  0  0  0  1  0  0  0  0  0  0
  -27.6460  -29.0400   23.7980 C   0  0  0  0  0  1  0  0  0  0  0  0
  -27.9750  -31.0930   25.1500 C   0  0  0  0  0  1  0  0  0  0  0  0
  -30.9500  -17.4610   17.7900 C   0  0  0  0  0  2  0  0  0  0  0  0
  -31.8080  -17.8190   19.0030 C   0  0  0  0  0  2  0  0  0  0  0  0
  -30.1240  -16.6530   18.7850 C   0  0  0  0  0  2  0  0  0  0  0  0
  -30.5530  -17.6540   19.9060 C   0  0  2  0  0  0  0  0  0  0  0  0
  -30.8340  -17.0200   21.3130 C   0  0  0  0  0  2  0  0  0  0  0  0
  -31.2130  -14.5390   21.0970 C   0  0  0  0  0  0  0  0  0  0  0  0
  -31.0310  -12.2150   20.2880 C   0  0  0  0  0  2  0  0  0  0  0  0
  -30.2500  -12.2100   18.9570 C   0  0  0  0  0  2  0  0  0  0  0  0
  -28.7270  -12.1710   19.2000 C   0  0  0  0  0  2  0  0  0  0  0  0
  -28.2570  -13.2050   20.2580 C   0  0  0  0  0  3  0  0  0  0  0  0
  -29.1530  -13.1460   21.5140 C   0  0  0  0  0  2  0  0  0  0  0  0
  -30.5470  -13.3550   21.0810 N   0  0  0  0  0  0  0  0  0  0  0  0
  -32.3800  -14.6680   20.7130 O   0  0  0  0  0  0  0  0  0  0  0  0
  -30.4630  -15.6020   21.4330 N   0  0  0  0  0  0  0  0  0  0  0  0
  -29.5280  -15.4070   21.7500 H   0  0  0  0  0  0  0  0  0  0  0  0
  -25.8490  -13.9780   20.7220 C   0  0  0  0  0  0  0  0  0  0  0  0
  -24.6900  -13.3030   20.9650 C   0  0  0  0  0  0  0  0  0  0  0  0
  -25.0430  -11.9190   20.9450 C   0  0  0  0  0  0  0  0  0  0  0  0
  -26.8440  -13.0250   20.5850 N   0  0  0  0  0  0  0  0  0  0  0  0
  -26.3530  -11.7760   20.7700 N   0  0  0  0  0  0  0  0  0  0  0  0
  -24.2020  -10.7250   21.0250 C   0  0  0  0  0  0  0  0  0  0  0  0
  -24.5060   -9.6690   21.9110 C   0  0  0  0  0  3  0  0  0  0  0  0
  -23.6720   -8.5350   21.9810 C   0  0  0  0  0  3  0  0  0  0  0  0
  -22.5200   -8.4500   21.1660 C   0  0  0  0  0  0  0  0  0  0  0  0
  -22.2340   -9.4940   20.2670 C   0  0  0  0  0  3  0  0  0  0  0  0
  -23.0680  -10.6200   20.1930 C   0  0  0  0  0  3  0  0  0  0  0  0
  -21.6640   -7.3740   21.1500 O   0  0  0  0  0  0  0  0  0  0  0  0
  -21.5430   -6.5390   22.2300 C   0  0  0  0  0  0  0  0  0  0  0  0
  -21.1490   -7.0170   23.5000 C   0  0  0  0  0  3  0  0  0  0  0  0
  -20.9700   -6.1120   24.5670 C   0  0  0  0  0  3  0  0  0  0  0  0
  -21.1750   -4.7350   24.3660 C   0  0  0  0  0  0  0  0  0  0  0  0
  -21.5620   -4.2570   23.1010 C   0  0  0  0  0  3  0  0  0  0  0  0
  -21.7440   -5.1590   22.0370 C   0  0  0  0  0  0  0  0  0  0  0  0
  -22.0980   -4.6910   20.8150 F   0  0  0  0  0  0  0  0  0  0  0  0
  -20.9940   -3.8650   25.3870 F   0  0  0  0  0  0  0  0  0  0  0  0
  -23.3180  -13.8960   21.1110 C   0  0  0  0  0  0  0  0  0  0  0  0
  -22.4560  -13.2620   21.8980 N   0  0  0  0  0  0  0  0  0  0  0  0
  -23.0190  -14.9590   20.5670 O   0  0  0  0  0  0  0  0  0  0  0  0
  -22.7050  -12.4000   22.3610 H   0  0  0  0  0  0  0  0  0  0  0  0
  -21.5310  -13.6450   22.0390 H   0  0  0  0  0  0  0  0  0  0  0  0
  -26.1310  -15.3180   20.5790 N   0  0  0  0  0  0  0  0  0  0  0  0
  -25.4240  -16.0340   20.6890 H   0  0  0  0  0  0  0  0  0  0  0  0
  -27.0530  -15.6830   20.3910 H   0  0  0  0  0  0  0  0  0  0  0  0
  2  1  1  0
  2 12  1  0
  3  2  1  0
  4  7  1  0
  4  3  2  0
  5  3  1  0
  6  4  1  0
  7  1  1  0
  9 12  1  0
 10  8  1  0
 11  9  1  0
 12  8  1  0
 13 10  1  0
 13 11  1  0
 13 14  1  6
 15 13  1  0
 16 15  1  0
 17 19  1  0
 17 16  1  0
 18 29  2  0
 19 24  1  0
 20 28  1  0
 20 30  1  0
 21 27  1  0
 21 23  1  0
 22 28  1  0
 23 22  1  0
 24 23  2  0
 25 26  1  0
 25 19  2  0
 26 21  2  0
 27 20  1  0
 28 18  1  0
 30 32  2  0
 31 30  1  0
 33 31  1  0
 34 43  2  0
 34 39  1  0
 35 31  1  0
 35 39  1  0
 36 35  1  0
 37 38  1  0
 37 36  1  0
 38 34  1  0
 39 40  2  0
 40 41  1  0
 42 41  2  0
 43 42  1  0
 44 18  1  0
 44 45  1  0
 44 54  1  0
 45 48  1  0
 46 45  1  0
 46 50  1  0
 47 46  2  0
 50 49  1  0
 50 52  1  0
 52 53  1  0
 52 51  1  0
 54 57  1  1
 54 55  1  0
 56 54  1  0
 58 60  1  0
 58 59  1  0
 59 61  1  0
 60 61  1  0
 61  7  1  0
 61 62  1  1
 62 71  1  0
 63 71  1  0
 64 69  1  0
 65 66  1  0
 65 64  1  0
 67 66  1  0
 67 76  1  0
 67 68  1  0
 69 63  1  0
 69 68  1  0
 70 63  2  0
 71 72  1  0
 73 74  2  0
 74 93  1  0
 75 74  1  0
 75 78  1  0
 76 73  1  0
 76 77  1  0
 77 75  2  0
 78 79  1  0
 79 80  2  0
 81 80  1  0
 82 81  2  0
 83 82  1  0
 83 78  2  0
 84 81  1  0
 84 85  1  0
 85 86  1  0
 86 87  2  0
 88 87  1  0
 88 92  1  0
 89 88  2  0
 90 85  2  0
 90 89  1  0
 91 90  1  0
 93 94  1  0
 94 97  1  0
 94 96  1  0
 95 93  2  0
 98 99  1  0
 98 73  1  0
100 98  1  0
M  ISO  4  16 101  17 101  63 100  71 100
M  END
>  <TORSDO>  (7) 
F 21

>  <SCORE>  (7) 
-9.335

>  <name>  (7) 
6

>  <ligand_id>  (7) 
6

>  <original_smiles>  (7) 
[H]c1c([H])c([H])c2c(c1[H])C([H])([H])C([H])([H])C([H])([H])C2([H])N([H])C(=O)C1([H])N(C(=O)C([H])(N([H])C(=O)C([H])(N([H])C([H])([H])[H])C([H])([H])[H])C(C([H])([H])[H])(C([H])([H])[H])C([H])([H])[H])C([H])([H])c2c([H])c(OC([H])([H])C([H])([H])[N+]3([H])C([H])([H])C([H])([H])C([H])(c4c(C([H])([H])[H])c(C([H])([H])[H])n(C5(C([H])([H])N([H])C(=O)N6C([H])([H])C([H])([H])C([H])([H])C([H])(n7nc(-c8c([H])c([H])c(Oc9c([H])c([H])c(F)c([H])c9F)c([H])c8[H])c(C(=O)N([H])[H])c7N([H])[H])C6([H])[H])C([H])([H])C([H])([H])C5([H])[H])c4[H])C([H])([H])C3([H])[H])c([H])c([H])c2C1([H])[H]

>  <smiles>  (7) 
[H]c1c([H])c([H])c2c(c1[H])C([H])([H])C([H])([H])C([H])([H])C2([H])N([H])C(=O)C1([H])N(C(=O)C([H])(N([H])C(=O)C([H])(N([H])C([H])([H])[H])C([H])([H])[H])C(C([H])([H])[H])(C([H])([H])[H])C([H])([H])[H])C([H])([H])c2c([H])c(OC([H])([H])C([H])([H])[N+]3([H])C([H])([H])C([H])([H])C([H])(c4c(C([H])([H])[H])c(C([H])([H])[H])n(C5(C([H])([H])N([H])C(=O)N6C([H])([H])C([H])([H])C([H])([H])C([H])(n7nc(-c8c([H])c([H])c(Oc9c([H])c([H])c(F)c([H])c9F)c([H])c8[H])c(C(=O)N([H])[H])c7N([H])[H])C6([H])[H])C([H])([H])C([H])([H])C5([H])[H])c4[H])C([H])([H])C3([H])[H])c([H])c([H])c2C1([H])[H]

$$$$
7:0:0
     RDKit          3D

 92101  0  0  1  0  0  0  0  0999 V2000
  -29.7070  -23.1990   19.8130 C   0  0  0  0  0  3  0  0  0  0  0  0
  -29.9990  -21.7850   19.6760 C   0  0  0  0  0  3  0  0  0  0  0  0
  -27.9840  -21.2510   20.7920 C   0  0  0  0  0  3  0  0  0  0  0  0
  -28.5320  -23.7090   20.4500 C   0  0  0  0  0  0  0  0  0  0  0  0
  -27.6770  -22.6520   20.9310 C   0  0  0  0  0  0  0  0  0  0  0  0
  -29.1600  -20.7340   20.1750 C   0  0  0  0  0  0  0  0  0  0  0  0
  -26.3840  -22.9890   21.6620 C   0  0  0  0  0  1  0  0  0  0  0  0
  -30.8320  -14.9980   19.9260 C   0  0  0  0  0  0  0  0  0  0  0  0
  -30.5670  -12.7070   18.9440 C   0  0  0  0  0  2  0  0  0  0  0  0
  -29.5660  -12.7380   17.7710 C   0  0  0  0  0  2  0  0  0  0  0  0
  -28.1290  -12.5450   18.2880 C   0  0  0  0  0  2  0  0  0  0  0  0
  -27.8100  -13.4420   19.5150 C   0  0  0  0  0  3  0  0  0  0  0  0
  -28.9320  -13.4000   20.5730 C   0  0  0  0  0  2  0  0  0  0  0  0
  -30.1720  -13.7820   19.8910 N   0  0  0  0  0  0  0  0  0  0  0  0
  -32.0090  -15.0160   19.5500 O   0  0  0  0  0  0  0  0  0  0  0  0
  -30.4980  -18.7460   19.2190 C   0  0  0  0  0  2  0  0  0  0  0  0
  -29.2340  -18.3630   21.2150 C   0  0  0  0  0  2  0  0  0  0  0  0
  -30.3210  -17.2250   18.8140 C   0  0  0  0  0  2  0  0  0  0  0  0
  -29.1910  -16.7860   20.9200 C   0  0  0  0  0  2  0  0  0  0  0  0
  -29.4250  -19.2880   20.0670 N   0  0  0  0  0  0  0  0  0  0  0  0
  -30.1110  -16.2090   19.8940 N   0  0  0  0  0  0  0  0  0  0  0  0
  -25.4860  -14.0060   20.4260 C   0  0  0  0  0  0  0  0  0  0  0  0
  -24.4440  -13.2230   20.8400 C   0  0  0  0  0  0  0  0  0  0  0  0
  -24.8940  -11.8720   20.7260 C   0  0  0  0  0  0  0  0  0  0  0  0
  -26.5040  -13.1340   20.0860 N   0  0  0  0  0  0  0  0  0  0  0  0
  -26.1620  -11.8420   20.3300 N   0  0  0  0  0  0  0  0  0  0  0  0
  -24.1730  -10.6060   20.9170 C   0  0  0  0  0  0  0  0  0  0  0  0
  -24.5970   -9.6500   21.8650 C   0  0  0  0  0  3  0  0  0  0  0  0
  -23.8750   -8.4480   22.0420 C   0  0  0  0  0  3  0  0  0  0  0  0
  -22.7160   -8.1980   21.2720 C   0  0  0  0  0  0  0  0  0  0  0  0
  -22.3110   -9.1440   20.3150 C   0  0  0  0  0  3  0  0  0  0  0  0
  -23.0330  -10.3350   20.1350 C   0  0  0  0  0  3  0  0  0  0  0  0
  -21.9660   -7.0500   21.3590 O   0  0  0  0  0  0  0  0  0  0  0  0
  -21.8210   -6.3740   22.5450 C   0  0  0  0  0  0  0  0  0  0  0  0
  -21.2600   -6.9840   23.6870 C   0  0  0  0  0  3  0  0  0  0  0  0
  -21.0630   -6.2320   24.8620 C   0  0  0  0  0  3  0  0  0  0  0  0
  -21.4180   -4.8700   24.8950 C   0  0  0  0  0  0  0  0  0  0  0  0
  -21.9730   -4.2590   23.7570 C   0  0  0  0  0  3  0  0  0  0  0  0
  -22.1710   -5.0090   22.5840 C   0  0  0  0  0  0  0  0  0  0  0  0
  -22.6860   -4.4090   21.4840 F   0  0  0  0  0  0  0  0  0  0  0  0
  -21.2220   -4.1460   26.0220 F   0  0  0  0  0  0  0  0  0  0  0  0
  -23.0710  -13.6970   21.2180 C   0  0  0  0  0  0  0  0  0  0  0  0
  -22.3920  -12.9740   22.1010 N   0  0  0  0  0  0  0  0  0  0  0  0
  -22.6120  -14.7460   20.7680 O   0  0  0  0  0  0  0  0  0  0  0  0
  -22.7780  -12.1240   22.4860 H   0  0  0  0  0  0  0  0  0  0  0  0
  -21.4750  -13.2780   22.4000 H   0  0  0  0  0  0  0  0  0  0  0  0
  -25.6450  -15.3810   20.2870 N   0  0  0  0  0  0  0  0  0  0  0  0
  -24.8860  -16.0290   20.4680 H   0  0  0  0  0  0  0  0  0  0  0  0
  -26.4600  -15.8250   19.8860 H   0  0  0  0  0  0  0  0  0  0  0  0
  -29.0380  -25.6080   22.1060 C   0  0  0  0  0  1  0  0  0  0  0  0
  -28.2420  -25.2630   20.8380 C   0  0  0  0  0  3  0  0  0  0  0  0
  -28.4140  -26.4750   19.9560 O   0  0  0  0  0  0  0  0  0  0  0  0
  -24.6720  -31.9060   23.1000 C   0  0  0  0  0  0  0  0  0  0  0  0
  -27.3450  -27.4070   19.9530 C   0  0  0  0  0  0  0  0  0  0  0  0
  -23.4900  -30.5200   21.4340 C   0  0  0  0  0  3  0  0  0  0  0  0
  -24.9670  -29.0210   19.9690 C   0  0  0  0  0  0  0  0  0  0  0  0
  -26.0280  -30.8750   21.2530 C   0  0  0  0  0  2  0  0  0  0  0  0
  -26.1330  -29.5070   20.5770 C   0  0  0  0  0  0  0  0  0  0  0  0
  -27.3300  -28.7130   20.5570 C   0  0  0  0  0  3  0  0  0  0  0  0
  -26.1580  -26.9940   19.3160 C   0  0  0  0  0  3  0  0  0  0  0  0
  -24.9850  -27.7730   19.3270 C   0  0  0  0  0  3  0  0  0  0  0  0
  -23.7150  -29.8760   20.0410 C   0  0  0  0  0  2  0  0  0  0  0  0
  -24.7490  -31.1200   21.9850 N   0  0  0  0  0  0  0  0  0  0  0  0
  -23.5840  -32.1500   23.6430 O   0  0  0  0  0  0  0  0  0  0  0  0
  -22.8470  -29.4740   22.3760 C   0  0  0  0  0  0  0  0  0  0  0  0
  -21.5190  -29.2910   22.2680 N   0  0  0  0  0  0  0  0  0  0  0  0
  -23.5420  -28.8290   23.1640 O   0  0  0  0  0  0  0  0  0  0  0  0
  -21.0150  -29.8640   21.6040 H   0  0  0  0  0  0  0  0  0  0  0  0
  -18.1520  -28.0890   22.8340 C   0  0  0  0  0  0  0  0  0  0  0  0
  -20.7200  -28.3250   23.0260 C   0  0  0  0  0  3  0  0  0  0  0  0
  -20.7920  -26.9200   22.3850 C   0  0  0  0  0  2  0  0  0  0  0  0
  -19.6540  -26.6470   21.3960 C   0  0  0  0  0  2  0  0  0  0  0  0
  -18.2960  -26.7710   22.0920 C   0  0  0  0  0  2  0  0  0  0  0  0
  -19.2900  -28.8260   23.2570 C   0  0  0  0  0  0  0  0  0  0  0  0
  -19.0980  -30.0620   23.9140 C   0  0  0  0  0  3  0  0  0  0  0  0
  -17.8030  -30.5610   24.1470 C   0  0  0  0  0  3  0  0  0  0  0  0
  -16.6810  -29.8200   23.7390 C   0  0  0  0  0  3  0  0  0  0  0  0
  -16.8560  -28.5860   23.0870 C   0  0  0  0  0  3  0  0  0  0  0  0
  -25.9420  -32.5520   23.7330 C   0  0  0  0  0  3  0  0  0  0  0  0
  -25.6050  -33.9380   24.0890 N   0  0  0  0  0  0  0  0  0  0  0  0
  -25.9270  -35.0140   23.3580 C   0  0  0  0  0  0  0  0  0  0  0  0
  -26.6050  -34.9460   22.3310 O   0  0  0  0  0  0  0  0  0  0  0  0
  -24.9990  -34.0630   24.8860 H   0  0  0  0  0  0  0  0  0  0  0  0
  -24.1820  -36.7960   23.0260 C   0  0  0  0  0  1  0  0  0  0  0  0
  -25.4150  -36.3840   23.8450 C   0  0  0  0  0  3  0  0  0  0  0  0
  -27.5250  -37.2730   24.7340 C   0  0  0  0  0  1  0  0  0  0  0  0
  -26.4350  -37.4530   23.7800 N   0  0  0  0  0  0  0  0  0  0  0  0
  -26.0130  -38.3630   23.9510 H   0  0  0  0  0  0  0  0  0  0  0  0
  -26.4730  -31.7680   24.9970 C   0  0  1  0  0  0  0  0  0  0  0  0
  -25.3830  -31.4950   26.0590 C   0  0  0  0  0  1  0  0  0  0  0  0
  -27.0800  -30.4080   24.5860 C   0  0  0  0  0  1  0  0  0  0  0  0
  -27.6070  -32.5730   25.6730 C   0  0  0  0  0  1  0  0  0  0  0  0
  1  4  1  0
  2  1  2  0
  2  6  1  0
  3  5  1  0
  4 51  1  0
  4  5  2  0
  5  7  1  0
  6  3  2  0
  9 14  1  0
 10 11  1  0
 10  9  1  0
 12 11  1  0
 12 25  1  0
 12 13  1  0
 14  8  1  0
 14 13  1  0
 15  8  2  0
 16 20  1  0
 18 16  1  0
 18 21  1  0
 19 17  1  0
 20  6  1  0
 20 17  1  0
 21  8  1  0
 21 19  1  0
 22 23  2  0
 23 42  1  0
 24 23  1  0
 24 27  1  0
 25 26  1  0
 25 22  1  0
 26 24  2  0
 27 28  1  0
 28 29  2  0
 30 33  1  0
 30 29  1  0
 31 30  2  0
 32 31  1  0
 32 27  2  0
 33 34  1  0
 34 39  2  0
 34 35  1  0
 35 36  2  0
 36 37  1  0
 37 41  1  0
 38 37  2  0
 39 38  1  0
 40 39  1  0
 42 43  1  0
 43 46  1  0
 43 45  1  0
 44 42  2  0
 47 22  1  0
 47 48  1  0
 49 47  1  0
 51 50  1  0
 52 51  1  0
 53 64  2  0
 54 52  1  0
 54 59  1  0
 55 63  1  0
 55 65  1  0
 56 62  1  0
 56 58  1  0
 57 63  1  0
 58 57  1  0
 59 58  2  0
 60 61  1  0
 60 54  2  0
 61 56  2  0
 62 55  1  0
 63 53  1  0
 65 67  2  0
 66 65  1  0
 68 66  1  0
 69 78  2  0
 69 74  1  0
 70 66  1  0
 70 74  1  0
 71 70  1  0
 72 73  1  0
 72 71  1  0
 73 69  1  0
 74 75  2  0
 75 76  1  0
 77 76  2  0
 78 77  1  0
 79 53  1  0
 79 80  1  0
 79 89  1  0
 80 83  1  0
 81 85  1  0
 81 80  1  0
 82 81  2  0
 85 84  1  0
 87 85  1  0
 87 88  1  0
 87 86  1  0
 89 92  1  1
 89 90  1  0
 91 89  1  0
M  ISO  4   8 100  21 100  51 101  52 101
M  END
>  <TORSDO>  (8) 
F 17

>  <SCORE>  (8) 
-14.486

>  <name>  (8) 
7

>  <ligand_id>  (8) 
7

>  <original_smiles>  (8) 
[H]c1c([H])c([H])c2c(c1[H])C([H])([H])C([H])([H])C([H])([H])C2([H])N([H])C(=O)C1([H])N(C(=O)C([H])(N([H])C(=O)C([H])(N([H])C([H])([H])[H])C([H])([H])[H])C(C([H])([H])[H])(C([H])([H])[H])C([H])([H])[H])C([H])([H])c2c([H])c(OC([H])(c3c([H])c([H])c(N4C([H])([H])C([H])([H])N(C(=O)N5C([H])([H])C([H])([H])C([H])([H])C([H])(n6nc(-c7c([H])c([H])c(Oc8c([H])c([H])c(F)c([H])c8F)c([H])c7[H])c(C(=O)N([H])[H])c6N([H])[H])C5([H])[H])C([H])([H])C4([H])[H])c([H])c3C([H])([H])[H])C([H])([H])[H])c([H])c([H])c2C1([H])[H]

>  <smiles>  (8) 
[H]c1c([H])c([H])c2c(c1[H])C([H])([H])C([H])([H])C([H])([H])C2([H])N([H])C(=O)C1([H])N(C(=O)C([H])(N([H])C(=O)C([H])(N([H])C([H])([H])[H])C([H])([H])[H])C(C([H])([H])[H])(C([H])([H])[H])C([H])([H])[H])C([H])([H])c2c([H])c(OC([H])(c3c([H])c([H])c(N4C([H])([H])C([H])([H])N(C(=O)N5C([H])([H])C([H])([H])C([H])([H])C([H])(n6nc(-c7c([H])c([H])c(Oc8c([H])c([H])c(F)c([H])c8F)c([H])c7[H])c(C(=O)N([H])[H])c6N([H])[H])C5([H])[H])C([H])([H])C4([H])[H])c([H])c3C([H])([H])[H])C([H])([H])[H])c([H])c([H])c2C1([H])[H]

$$$$
8:0:0
     RDKit          3D

 98109  0  0  1  0  0  0  0  0999 V2000
  -28.8510  -22.5040   19.5020 C   0  0  0  0  0  3  0  0  0  0  0  0
  -29.8620  -21.0870   21.6830 C   0  0  0  0  0  3  0  0  0  0  0  0
  -28.8580  -23.1460   20.7620 C   0  0  0  0  0  0  0  0  0  0  0  0
  -29.3390  -21.1900   19.3130 C   0  0  0  0  0  0  0  0  0  0  0  0
  -29.3620  -22.4020   21.8700 C   0  0  0  0  0  0  0  0  0  0  0  0
  -29.8710  -20.4740   20.4120 C   0  0  0  0  0  0  0  0  0  0  0  0
  -29.4030  -22.9720   23.2750 C   0  0  0  0  0  1  0  0  0  0  0  0
  -28.2850  -25.5470   21.9690 C   0  0  0  0  0  2  0  0  0  0  0  0
  -28.2630  -24.5550   20.8070 C   0  0  0  0  0  3  0  0  0  0  0  0
  -29.1510  -25.7970   20.7540 C   0  0  0  0  0  3  0  0  0  0  0  0
  -28.8170  -26.8520   19.8240 O   0  0  0  0  0  0  0  0  0  0  0  0
  -24.8050  -31.7070   23.2210 C   0  0  0  0  0  0  0  0  0  0  0  0
  -27.6220  -27.5270   19.9350 C   0  0  0  0  0  0  0  0  0  0  0  0
  -23.6600  -30.3470   21.5030 C   0  0  0  0  0  3  0  0  0  0  0  0
  -25.1770  -28.9410   20.0090 C   0  0  0  0  0  0  0  0  0  0  0  0
  -26.1720  -30.8060   21.3430 C   0  0  0  0  0  2  0  0  0  0  0  0
  -26.3100  -29.4700   20.6400 C   0  0  0  0  0  0  0  0  0  0  0  0
  -27.5360  -28.7670   20.6080 C   0  0  0  0  0  3  0  0  0  0  0  0
  -26.4780  -27.0150   19.2900 C   0  0  0  0  0  3  0  0  0  0  0  0
  -25.2550  -27.7110   19.3330 C   0  0  0  0  0  3  0  0  0  0  0  0
  -23.9010  -29.7500   20.0910 C   0  0  0  0  0  2  0  0  0  0  0  0
  -24.8970  -30.9640   22.0830 N   0  0  0  0  0  0  0  0  0  0  0  0
  -23.7120  -31.9100   23.7680 O   0  0  0  0  0  0  0  0  0  0  0  0
  -23.0460  -29.2520   22.4040 C   0  0  0  0  0  0  0  0  0  0  0  0
  -21.7300  -29.0220   22.2570 N   0  0  0  0  0  0  0  0  0  0  0  0
  -23.7500  -28.6150   23.1920 O   0  0  0  0  0  0  0  0  0  0  0  0
  -21.2230  -29.5890   21.5910 H   0  0  0  0  0  0  0  0  0  0  0  0
  -18.4120  -27.6440   22.6210 C   0  0  0  0  0  0  0  0  0  0  0  0
  -20.9460  -28.0130   22.9690 C   0  0  0  0  0  3  0  0  0  0  0  0
  -21.1350  -26.6140   22.3400 C   0  0  0  0  0  2  0  0  0  0  0  0
  -20.0760  -26.2780   21.2880 C   0  0  0  0  0  2  0  0  0  0  0  0
  -18.6720  -26.3330   21.8980 C   0  0  0  0  0  2  0  0  0  0  0  0
  -19.4810  -28.4410   23.1100 C   0  0  0  0  0  0  0  0  0  0  0  0
  -19.1860  -29.6670   23.7440 C   0  0  0  0  0  3  0  0  0  0  0  0
  -17.8560  -30.0980   23.8960 C   0  0  0  0  0  3  0  0  0  0  0  0
  -16.8000  -29.2960   23.4290 C   0  0  0  0  0  3  0  0  0  0  0  0
  -17.0790  -28.0720   22.7940 C   0  0  0  0  0  3  0  0  0  0  0  0
  -26.0630  -32.3540   23.8800 C   0  0  0  0  0  3  0  0  0  0  0  0
  -26.5900  -31.5490   25.1300 C   0  0  1  0  0  0  0  0  0  0  0  0
  -25.4940  -31.2420   26.1740 C   0  0  0  0  0  1  0  0  0  0  0  0
  -27.2140  -30.2060   24.6870 C   0  0  0  0  0  1  0  0  0  0  0  0
  -27.7130  -32.3470   25.8320 C   0  0  0  0  0  1  0  0  0  0  0  0
  -25.7100  -33.7290   24.2560 N   0  0  0  0  0  0  0  0  0  0  0  0
  -26.0130  -34.8170   23.5350 C   0  0  0  0  0  0  0  0  0  0  0  0
  -26.6910  -34.7690   22.5060 O   0  0  0  0  0  0  0  0  0  0  0  0
  -25.1120  -33.8380   25.0620 H   0  0  0  0  0  0  0  0  0  0  0  0
  -24.2290  -36.5600   23.2300 C   0  0  0  0  0  1  0  0  0  0  0  0
  -25.4790  -36.1720   24.0370 C   0  0  0  0  0  3  0  0  0  0  0  0
  -27.5770  -37.0960   24.9110 C   0  0  0  0  0  1  0  0  0  0  0  0
  -26.4770  -37.2600   23.9660 N   0  0  0  0  0  0  0  0  0  0  0  0
  -26.0400  -38.1610   24.1430 H   0  0  0  0  0  0  0  0  0  0  0  0
  -27.7930  -20.3890   17.4710 C   0  0  0  0  0  1  0  0  0  0  0  0
  -29.2520  -20.5430   17.9280 C   0  0  0  0  0  3  0  0  0  0  0  0
  -31.5350  -20.9430   16.6730 C   0  0  0  0  0  2  0  0  0  0  0  0
  -30.5090  -20.6020   15.6200 C   0  0  0  0  0  2  0  0  0  0  0  0
  -30.0830  -21.2950   16.8980 C   0  0  0  0  0  3  0  0  0  0  0  0
  -30.4750  -19.2500   20.1970 O   0  0  0  0  0  0  0  0  0  0  0  0
  -31.0300  -14.5910   20.1040 C   0  0  0  0  0  0  0  0  0  0  0  0
  -30.6480  -12.4440   18.9390 C   0  0  0  0  0  2  0  0  0  0  0  0
  -29.6490  -12.6680   17.7840 C   0  0  0  0  0  2  0  0  0  0  0  0
  -28.1970  -12.5410   18.2870 C   0  0  0  0  0  2  0  0  0  0  0  0
  -27.9340  -13.3700   19.5730 C   0  0  0  0  0  3  0  0  0  0  0  0
  -29.0390  -13.1240   20.6240 C   0  0  0  0  0  2  0  0  0  0  0  0
  -30.3350  -13.4240   19.9940 N   0  0  0  0  0  0  0  0  0  0  0  0
  -32.1270  -14.7560   19.5570 O   0  0  0  0  0  0  0  0  0  0  0  0
  -30.4200  -17.5800   22.0370 C   0  0  0  0  0  2  0  0  0  0  0  0
  -30.3280  -16.0450   21.9780 C   0  0  0  0  0  2  0  0  0  0  0  0
  -30.2300  -16.8950   19.7630 C   0  0  0  0  0  2  0  0  0  0  0  0
  -29.8630  -18.0580   20.7010 C   0  0  0  0  0  3  0  0  0  0  0  0
  -30.3240  -15.6600   20.5610 N   0  0  0  0  0  0  0  0  0  0  0  0
  -25.5960  -14.0040   20.4400 C   0  0  0  0  0  0  0  0  0  0  0  0
  -24.5310  -13.2410   20.8400 C   0  0  0  0  0  0  0  0  0  0  0  0
  -24.9570  -11.8820   20.7330 C   0  0  0  0  0  0  0  0  0  0  0  0
  -26.6040  -13.1080   20.1180 N   0  0  0  0  0  0  0  0  0  0  0  0
  -26.2260  -11.8250   20.3500 N   0  0  0  0  0  0  0  0  0  0  0  0
  -24.2120  -10.6290   20.9190 C   0  0  0  0  0  0  0  0  0  0  0  0
  -24.6240   -9.6570   21.8560 C   0  0  0  0  0  3  0  0  0  0  0  0
  -23.8820   -8.4680   22.0290 C   0  0  0  0  0  3  0  0  0  0  0  0
  -22.7110   -8.2450   21.2640 C   0  0  0  0  0  0  0  0  0  0  0  0
  -22.3190   -9.2060   20.3150 C   0  0  0  0  0  3  0  0  0  0  0  0
  -23.0630  -10.3850   20.1410 C   0  0  0  0  0  3  0  0  0  0  0  0
  -21.9420   -7.1100   21.3450 O   0  0  0  0  0  0  0  0  0  0  0  0
  -21.7970   -6.4220   22.5230 C   0  0  0  0  0  0  0  0  0  0  0  0
  -21.2710   -7.0340   23.6830 C   0  0  0  0  0  3  0  0  0  0  0  0
  -21.0740   -6.2720   24.8510 C   0  0  0  0  0  3  0  0  0  0  0  0
  -21.3910   -4.9000   24.8600 C   0  0  0  0  0  0  0  0  0  0  0  0
  -21.9070   -4.2890   23.7050 C   0  0  0  0  0  3  0  0  0  0  0  0
  -22.1060   -5.0480   22.5380 C   0  0  0  0  0  0  0  0  0  0  0  0
  -22.5850   -4.4490   21.4210 F   0  0  0  0  0  0  0  0  0  0  0  0
  -21.1940   -4.1660   25.9800 F   0  0  0  0  0  0  0  0  0  0  0  0
  -23.1630  -13.7390   21.2130 C   0  0  0  0  0  0  0  0  0  0  0  0
  -22.4780  -13.0350   22.1070 N   0  0  0  0  0  0  0  0  0  0  0  0
  -22.7110  -14.7840   20.7450 O   0  0  0  0  0  0  0  0  0  0  0  0
  -22.8560  -12.1880   22.5060 H   0  0  0  0  0  0  0  0  0  0  0  0
  -21.5630  -13.3460   22.3980 H   0  0  0  0  0  0  0  0  0  0  0  0
  -25.7840  -15.3750   20.3040 N   0  0  0  0  0  0  0  0  0  0  0  0
  -25.0450  -16.0450   20.4890 H   0  0  0  0  0  0  0  0  0  0  0  0
  -26.6340  -15.8080   19.9660 H   0  0  0  0  0  0  0  0  0  0  0  0
  1  3  1  0
  2  5  1  0
  3  5  2  0
  4  1  2  0
  4  6  1  0
  5  7  1  0
  6  2  2  0
  9  3  1  0
  9  8  1  0
 10 11  1  0
 10  9  1  0
 10  8  1  0
 11 13  1  0
 12 23  2  0
 13 18  1  0
 14 22  1  0
 14 24  1  0
 15 21  1  0
 15 17  1  0
 16 22  1  0
 17 16  1  0
 18 17  2  0
 19 20  1  0
 19 13  2  0
 20 15  2  0
 21 14  1  0
 22 12  1  0
 24 26  2  0
 25 24  1  0
 27 25  1  0
 28 37  2  0
 28 33  1  0
 29 25  1  0
 29 33  1  0
 30 29  1  0
 31 32  1  0
 31 30  1  0
 32 28  1  0
 33 34  2  0
 34 35  1  0
 36 35  2  0
 37 36  1  0
 38 12  1  0
 38 43  1  0
 38 39  1  0
 39 42  1  1
 39 40  1  0
 41 39  1  0
 43 46  1  0
 44 48  1  0
 44 43  1  0
 45 44  2  0
 48 47  1  0
 50 48  1  0
 50 51  1  0
 50 49  1  0
 53 52  1  0
 53  4  1  0
 54 56  1  0
 55 54  1  0
 55 56  1  0
 56 53  1  0
 57  6  1  0
 58 70  1  0
 59 64  1  0
 60 61  1  0
 60 59  1  0
 62 61  1  0
 62 74  1  0
 62 63  1  0
 64 58  1  0
 64 63  1  0
 65 58  2  0
 67 66  1  0
 68 70  1  0
 68 69  1  0
 69 57  1  0
 69 66  1  0
 70 67  1  0
 71 72  2  0
 72 91  1  0
 73 72  1  0
 73 76  1  0
 74 75  1  0
 74 71  1  0
 75 73  2  0
 76 77  1  0
 77 78  2  0
 79 82  1  0
 79 78  1  0
 80 79  2  0
 81 80  1  0
 81 76  2  0
 82 83  1  0
 83 88  2  0
 83 84  1  0
 84 85  2  0
 85 86  1  0
 86 90  1  0
 87 86  2  0
 88 87  1  0
 89 88  1  0
 91 92  1  0
 92 95  1  0
 92 94  1  0
 93 91  2  0
 96 71  1  0
 96 97  1  0
 98 96  1  0
M  ISO  4  10 101  11 101  58 100  70 100
M  END
>  <TORSDO>  (9) 
F 20

>  <SCORE>  (9) 
-13.437

>  <name>  (9) 
8

>  <ligand_id>  (9) 
8

>  <original_smiles>  (9) 
[H]c1c([H])c([H])c2c(c1[H])C([H])([H])C([H])([H])C([H])([H])C2([H])N([H])C(=O)C1([H])N(C(=O)C([H])(N([H])C(=O)C([H])(N([H])C([H])([H])[H])C([H])([H])[H])C(C([H])([H])[H])(C([H])([H])[H])C([H])([H])[H])C([H])([H])c2c([H])c(OC3([H])C([H])([H])C3([H])c3c([H])c(C([H])(C([H])([H])[H])C4([H])C([H])([H])C4([H])[H])c(OC4([H])C([H])([H])N(C(=O)N5C([H])([H])C([H])([H])C([H])([H])C([H])(n6nc(-c7c([H])c([H])c(Oc8c([H])c([H])c(F)c([H])c8F)c([H])c7[H])c(C(=O)N([H])[H])c6N([H])[H])C5([H])[H])C([H])([H])C4([H])[H])c([H])c3C([H])([H])[H])c([H])c([H])c2C1([H])[H]

>  <smiles>  (9) 
[H]c1c([H])c([H])c2c(c1[H])C([H])([H])C([H])([H])C([H])([H])C2([H])N([H])C(=O)C1([H])N(C(=O)C([H])(N([H])C(=O)C([H])(N([H])C([H])([H])[H])C([H])([H])[H])C(C([H])([H])[H])(C([H])([H])[H])C([H])([H])[H])C([H])([H])c2c([H])c(OC3([H])C([H])([H])C3([H])c3c([H])c(C([H])(C([H])([H])[H])C4([H])C([H])([H])C4([H])[H])c(OC4([H])C([H])([H])N(C(=O)N5C([H])([H])C([H])([H])C([H])([H])C([H])(n6nc(-c7c([H])c([H])c(Oc8c([H])c([H])c(F)c([H])c8F)c([H])c7[H])c(C(=O)N([H])[H])c6N([H])[H])C5([H])[H])C([H])([H])C4([H])[H])c([H])c3C([H])([H])[H])c([H])c([H])c2C1([H])[H]

$$$$
9:0:0
     RDKit          3D

 93103  0  0  1  0  0  0  0  0999 V2000
  -28.7690  -22.1840   20.4100 C   0  0  0  0  0  3  0  0  0  0  0  0
  -30.7150  -21.2560   19.2750 C   0  0  0  0  0  3  0  0  0  0  0  0
  -29.6080  -20.9990   20.1180 C   0  0  0  0  0  0  0  0  0  0  0  0
  -29.0140  -23.5260   19.8420 C   0  0  0  0  0  0  0  0  0  0  0  0
  -30.0640  -23.5910   18.9220 C   0  0  0  0  0  0  0  0  0  0  0  0
  -30.9460  -22.5150   18.6740 C   0  0  0  0  0  0  0  0  0  0  0  0
  -29.9370  -24.8140   18.0510 C   0  0  0  0  0  2  0  0  0  0  0  0
  -28.4430  -25.1680   18.1840 C   0  0  0  0  0  2  0  0  0  0  0  0
  -28.0730  -24.8430   19.6530 C   0  0  0  0  0  3  0  0  0  0  0  0
  -32.0920  -22.6660   17.6890 C   0  0  0  0  0  1  0  0  0  0  0  0
  -30.6160  -14.9150   20.3250 C   0  0  0  0  0  0  0  0  0  0  0  0
  -30.3610  -12.6160   19.3260 C   0  0  0  0  0  2  0  0  0  0  0  0
  -29.4150  -12.6200   18.1080 C   0  0  0  0  0  2  0  0  0  0  0  0
  -27.9580  -12.4230   18.5620 C   0  0  0  0  0  2  0  0  0  0  0  0
  -27.5790  -13.3370   19.7560 C   0  0  0  0  0  3  0  0  0  0  0  0
  -28.6530  -13.3440   20.8640 C   0  0  0  0  0  2  0  0  0  0  0  0
  -29.9250  -13.7140   20.2330 N   0  0  0  0  0  0  0  0  0  0  0  0
  -31.8220  -14.8950   20.0620 O   0  0  0  0  0  0  0  0  0  0  0  0
  -28.9930  -18.3880   19.5050 C   0  0  0  0  0  2  0  0  0  0  0  0
  -30.6960  -18.7120   21.1520 C   0  0  0  0  0  2  0  0  0  0  0  0
  -28.8740  -16.8280   19.9000 C   0  0  0  0  0  2  0  0  0  0  0  0
  -30.6000  -17.1690   21.5680 C   0  0  0  0  0  2  0  0  0  0  0  0
  -29.4160  -19.4470   20.5980 C   0  0  0  0  0  3  0  0  0  0  0  0
  -29.9990  -16.1580   20.6310 N   0  0  0  0  0  0  0  0  0  0  0  0
  -25.2130  -13.9200   20.5360 C   0  0  0  0  0  0  0  0  0  0  0  0
  -24.1490  -13.1460   20.9090 C   0  0  0  0  0  0  0  0  0  0  0  0
  -24.6080  -11.7940   20.8560 C   0  0  0  0  0  0  0  0  0  0  0  0
  -26.2490  -13.0410   20.2740 N   0  0  0  0  0  0  0  0  0  0  0  0
  -25.8950  -11.7550   20.5330 N   0  0  0  0  0  0  0  0  0  0  0  0
  -23.8770  -10.5330   21.0380 C   0  0  0  0  0  0  0  0  0  0  0  0
  -24.3030   -9.5580   21.9660 C   0  0  0  0  0  3  0  0  0  0  0  0
  -23.5720   -8.3630   22.1370 C   0  0  0  0  0  3  0  0  0  0  0  0
  -22.3990   -8.1350   21.3780 C   0  0  0  0  0  0  0  0  0  0  0  0
  -21.9920   -9.0970   20.4380 C   0  0  0  0  0  3  0  0  0  0  0  0
  -22.7250  -10.2840   20.2650 C   0  0  0  0  0  3  0  0  0  0  0  0
  -21.6390   -6.9930   21.4580 O   0  0  0  0  0  0  0  0  0  0  0  0
  -21.5690   -6.2560   22.6130 C   0  0  0  0  0  0  0  0  0  0  0  0
  -21.0970   -6.8090   23.8230 C   0  0  0  0  0  3  0  0  0  0  0  0
  -20.9750   -5.9970   24.9690 C   0  0  0  0  0  3  0  0  0  0  0  0
  -21.3150   -4.6320   24.9050 C   0  0  0  0  0  0  0  0  0  0  0  0
  -21.7780   -4.0780   23.6990 C   0  0  0  0  0  3  0  0  0  0  0  0
  -21.9020   -4.8870   22.5550 C   0  0  0  0  0  0  0  0  0  0  0  0
  -22.3290   -4.3430   21.3900 F   0  0  0  0  0  0  0  0  0  0  0  0
  -21.1900   -3.8500   26.0020 F   0  0  0  0  0  0  0  0  0  0  0  0
  -22.7570  -13.6260   21.1970 C   0  0  0  0  0  0  0  0  0  0  0  0
  -22.0310  -12.9190   22.0560 N   0  0  0  0  0  0  0  0  0  0  0  0
  -22.3240  -14.6640   20.7000 O   0  0  0  0  0  0  0  0  0  0  0  0
  -22.3960  -12.0800   22.4810 H   0  0  0  0  0  0  0  0  0  0  0  0
  -21.0970  -13.2220   22.2900 H   0  0  0  0  0  0  0  0  0  0  0  0
  -25.3800  -15.2930   20.3720 N   0  0  0  0  0  0  0  0  0  0  0  0
  -24.6180  -15.9490   20.5020 H   0  0  0  0  0  0  0  0  0  0  0  0
  -26.2270  -15.7290   20.0340 H   0  0  0  0  0  0  0  0  0  0  0  0
  -28.2610  -26.2530   20.2480 O   0  0  0  0  0  0  0  0  0  0  0  0
  -24.6030  -31.8890   23.2280 C   0  0  0  0  0  0  0  0  0  0  0  0
  -27.2000  -27.2260   20.1710 C   0  0  0  0  0  0  0  0  0  0  0  0
  -23.4060  -30.4940   21.5900 C   0  0  0  0  0  3  0  0  0  0  0  0
  -24.8580  -28.9430   20.1570 C   0  0  0  0  0  0  0  0  0  0  0  0
  -25.9580  -30.7780   21.4220 C   0  0  0  0  0  2  0  0  0  0  0  0
  -26.0360  -29.3920   20.7660 C   0  0  0  0  0  0  0  0  0  0  0  0
  -27.2060  -28.5470   20.7650 C   0  0  0  0  0  3  0  0  0  0  0  0
  -25.9910  -26.8830   19.5140 C   0  0  0  0  0  3  0  0  0  0  0  0
  -24.8460  -27.6990   19.5190 C   0  0  0  0  0  3  0  0  0  0  0  0
  -23.6270  -29.8280   20.2070 C   0  0  0  0  0  2  0  0  0  0  0  0
  -24.6760  -31.0730   22.1340 N   0  0  0  0  0  0  0  0  0  0  0  0
  -23.5170  -32.1680   23.7580 O   0  0  0  0  0  0  0  0  0  0  0  0
  -22.7370  -29.4750   22.5470 C   0  0  0  0  0  0  0  0  0  0  0  0
  -21.4100  -29.2950   22.4180 N   0  0  0  0  0  0  0  0  0  0  0  0
  -23.4130  -28.8520   23.3680 O   0  0  0  0  0  0  0  0  0  0  0  0
  -20.9210  -29.8500   21.7300 H   0  0  0  0  0  0  0  0  0  0  0  0
  -18.0330  -28.0930   22.9330 C   0  0  0  0  0  0  0  0  0  0  0  0
  -20.5930  -28.3550   23.1890 C   0  0  0  0  0  3  0  0  0  0  0  0
  -20.6920  -26.9250   22.6080 C   0  0  0  0  0  2  0  0  0  0  0  0
  -19.5850  -26.6060   21.5980 C   0  0  0  0  0  2  0  0  0  0  0  0
  -18.2060  -26.7470   22.2500 C   0  0  0  0  0  2  0  0  0  0  0  0
  -19.1540  -28.8550   23.3590 C   0  0  0  0  0  0  0  0  0  0  0  0
  -18.9350  -30.1140   23.9610 C   0  0  0  0  0  3  0  0  0  0  0  0
  -17.6310  -30.6120   24.1370 C   0  0  0  0  0  3  0  0  0  0  0  0
  -16.5250  -29.8480   23.7250 C   0  0  0  0  0  3  0  0  0  0  0  0
  -16.7270  -28.5900   23.1290 C   0  0  0  0  0  3  0  0  0  0  0  0
  -25.8800  -32.5280   23.8520 C   0  0  0  0  0  3  0  0  0  0  0  0
  -25.5670  -33.9290   24.1760 N   0  0  0  0  0  0  0  0  0  0  0  0
  -25.8990  -34.9810   23.4180 C   0  0  0  0  0  0  0  0  0  0  0  0
  -26.5700  -34.8760   22.3870 O   0  0  0  0  0  0  0  0  0  0  0  0
  -24.9710  -34.0840   24.9760 H   0  0  0  0  0  0  0  0  0  0  0  0
  -24.1780  -36.7800   23.0510 C   0  0  0  0  0  1  0  0  0  0  0  0
  -25.4110  -36.3700   23.8730 C   0  0  0  0  0  3  0  0  0  0  0  0
  -27.5360  -37.2530   24.7300 C   0  0  0  0  0  1  0  0  0  0  0  0
  -26.4470  -37.4220   23.7720 N   0  0  0  0  0  0  0  0  0  0  0  0
  -26.0390  -38.3430   23.9150 H   0  0  0  0  0  0  0  0  0  0  0  0
  -26.3910  -31.7660   25.1380 C   0  0  1  0  0  0  0  0  0  0  0  0
  -25.2910  -31.5330   26.2000 C   0  0  0  0  0  1  0  0  0  0  0  0
  -26.9790  -30.3860   24.7630 C   0  0  0  0  0  1  0  0  0  0  0  0
  -27.5350  -32.5670   25.8020 C   0  0  0  0  0  1  0  0  0  0  0  0
  2  3  2  0
  3  1  1  0
  4  1  2  0
  5  4  1  0
  6  5  2  0
  6  2  1  0
  7  8  1  0
  7  5  1  0
  8  9  1  0
  9  4  1  0
  9 53  1  0
 10  6  1  0
 11 24  1  0
 12 17  1  0
 13 14  1  0
 13 12  1  0
 15 14  1  0
 15 28  1  0
 15 16  1  0
 17 11  1  0
 17 16  1  0
 18 11  2  0
 19 21  1  0
 19 23  1  0
 20 22  1  0
 21 24  1  0
 23  3  1  0
 23 20  1  0
 24 22  1  0
 25 26  2  0
 26 45  1  0
 27 26  1  0
 27 30  1  0
 28 29  1  0
 28 25  1  0
 29 27  2  0
 30 31  1  0
 31 32  2  0
 33 36  1  0
 33 32  1  0
 34 33  2  0
 35 34  1  0
 35 30  2  0
 36 37  1  0
 37 38  1  0
 38 39  2  0
 40 39  1  0
 40 44  1  0
 41 40  2  0
 42 37  2  0
 42 41  1  0
 43 42  1  0
 45 46  1  0
 46 49  1  0
 46 48  1  0
 47 45  2  0
 50 51  1  0
 50 25  1  0
 52 50  1  0
 54 65  2  0
 55 53  1  0
 55 60  1  0
 56 64  1  0
 56 66  1  0
 57 63  1  0
 57 59  1  0
 58 64  1  0
 59 58  1  0
 60 59  2  0
 61 62  1  0
 61 55  2  0
 62 57  2  0
 63 56  1  0
 64 54  1  0
 66 68  2  0
 67 66  1  0
 69 67  1  0
 70 79  2  0
 70 75  1  0
 71 67  1  0
 71 75  1  0
 72 71  1  0
 73 74  1  0
 73 72  1  0
 74 70  1  0
 75 76  2  0
 76 77  1  0
 78 77  2  0
 79 78  1  0
 80 54  1  0
 80 81  1  0
 80 90  1  0
 81 84  1  0
 82 86  1  0
 82 81  1  0
 83 82  2  0
 86 85  1  0
 88 86  1  0
 88 89  1  0
 88 87  1  0
 90 93  1  1
 90 91  1  0
 92 90  1  0
M  ISO  4   9 101  11 100  24 100  53 101
M  END
>  <TORSDO>  (10) 
F 16

>  <SCORE>  (10) 
-15.799

>  <name>  (10) 
9

>  <ligand_id>  (10) 
9

>  <original_smiles>  (10) 
[H]c1c([H])c([H])c2c(c1[H])C([H])([H])C([H])([H])C([H])([H])C2([H])N([H])C(=O)C1([H])N(C(=O)C([H])(N([H])C(=O)C([H])(N([H])C([H])([H])[H])C([H])([H])[H])C(C([H])([H])[H])(C([H])([H])[H])C([H])([H])[H])C([H])([H])c2c([H])c(OC3([H])c4c([H])c(C5([H])C([H])([H])C([H])([H])N(C(=O)N6C([H])([H])C([H])([H])C([H])([H])C([H])(n7nc(-c8c([H])c([H])c(Oc9c([H])c([H])c(F)c([H])c9F)c([H])c8[H])c(C(=O)N([H])[H])c7N([H])[H])C6([H])[H])C([H])([H])C5([H])[H])c([H])c(C([H])([H])[H])c4C([H])([H])C3([H])[H])c([H])c([H])c2C1([H])[H]

>  <smiles>  (10) 
[H]c1c([H])c([H])c2c(c1[H])C([H])([H])C([H])([H])C([H])([H])C2([H])N([H])C(=O)C1([H])N(C(=O)C([H])(N([H])C(=O)C([H])(N([H])C([H])([H])[H])C([H])([H])[H])C(C([H])([H])[H])(C([H])([H])[H])C([H])([H])[H])C([H])([H])c2c([H])c(OC3([H])c4c([H])c(C5([H])C([H])([H])C([H])([H])N(C(=O)N6C([H])([H])C([H])([H])C([H])([H])C([H])(n7nc(-c8c([H])c([H])c(Oc9c([H])c([H])c(F)c([H])c9F)c([H])c8[H])c(C(=O)N([H])[H])c7N([H])[H])C6([H])[H])C([H])([H])C5([H])[H])c([H])c(C([H])([H])[H])c4C([H])([H])C3([H])[H])c([H])c([H])c2C1([H])[H]

$$$$
10:0:0
     RDKit          3D

 96105  0  0  1  0  0  0  0  0999 V2000
  -31.0410  -21.0280   21.7900 C   0  0  0  0  0  2  0  0  0  0  0  0
  -28.6720  -20.6210   20.7510 C   0  0  0  0  0  2  0  0  0  0  0  0
  -31.3680  -21.7950   20.4950 C   0  0  0  0  0  2  0  0  0  0  0  0
  -29.1930  -21.3880   19.5160 C   0  0  0  0  0  2  0  0  0  0  0  0
  -29.7500  -20.1640   21.7730 C   0  0  0  0  0  3  0  0  0  0  0  0
  -30.1690  -22.4440   19.9050 N   0  0  2  0  0  4  0  0  0  0  0  0
  -29.7360  -22.9700   20.6510 H   0  0  0  0  0  0  0  0  0  0  0  0
  -31.1710  -16.7490   22.5420 C   0  0  0  0  0  2  0  0  0  0  0  0
  -30.9620  -18.2290   22.8520 C   0  0  0  0  0  2  0  0  0  0  0  0
  -30.0230  -17.8380   20.6750 C   0  0  0  0  0  2  0  0  0  0  0  0
  -30.9820  -16.6660   21.0250 C   0  0  0  0  0  3  0  0  0  0  0  0
  -29.9270  -18.6820   21.8950 N   0  0  2  0  0  4  0  0  0  0  0  0
  -29.0710  -18.3670   22.3310 H   0  0  0  0  0  0  0  0  0  0  0  0
  -31.0560  -14.4240   19.8370 C   0  0  0  0  0  0  0  0  0  0  0  0
  -30.6500  -12.2600   18.7150 C   0  0  0  0  0  2  0  0  0  0  0  0
  -29.6180  -12.4180   17.5790 C   0  0  0  0  0  2  0  0  0  0  0  0
  -28.1780  -12.3130   18.1200 C   0  0  0  0  0  2  0  0  0  0  0  0
  -27.9410  -13.2170   19.3570 C   0  0  0  0  0  3  0  0  0  0  0  0
  -29.0580  -12.9980   20.3990 C   0  0  0  0  0  2  0  0  0  0  0  0
  -30.3520  -13.2680   19.7410 N   0  0  0  0  0  0  0  0  0  0  0  0
  -32.1060  -14.6380   19.2220 O   0  0  0  0  0  0  0  0  0  0  0  0
  -30.4780  -15.3480   20.6200 N   0  0  0  0  0  0  0  0  0  0  0  0
  -29.6000  -15.0590   21.0210 H   0  0  0  0  0  0  0  0  0  0  0  0
  -25.6380  -13.9240   20.2680 C   0  0  0  0  0  0  0  0  0  0  0  0
  -24.5660  -13.1930   20.7050 C   0  0  0  0  0  0  0  0  0  0  0  0
  -24.9570  -11.8230   20.6050 C   0  0  0  0  0  0  0  0  0  0  0  0
  -26.6170  -13.0000   19.9340 N   0  0  0  0  0  0  0  0  0  0  0  0
  -26.2140  -11.7310   20.1940 N   0  0  0  0  0  0  0  0  0  0  0  0
  -24.1890  -10.5920   20.8240 C   0  0  0  0  0  0  0  0  0  0  0  0
  -24.6040   -9.6210   21.7630 C   0  0  0  0  0  3  0  0  0  0  0  0
  -23.8420   -8.4510   21.9670 C   0  0  0  0  0  3  0  0  0  0  0  0
  -22.6490   -8.2450   21.2330 C   0  0  0  0  0  0  0  0  0  0  0  0
  -22.2530   -9.2040   20.2840 C   0  0  0  0  0  3  0  0  0  0  0  0
  -23.0160  -10.3650   20.0770 C   0  0  0  0  0  3  0  0  0  0  0  0
  -21.8580   -7.1280   21.3460 O   0  0  0  0  0  0  0  0  0  0  0  0
  -21.7310   -6.4520   22.5340 C   0  0  0  0  0  0  0  0  0  0  0  0
  -21.2560   -7.0840   23.7020 C   0  0  0  0  0  3  0  0  0  0  0  0
  -21.0760   -6.3370   24.8840 C   0  0  0  0  0  3  0  0  0  0  0  0
  -21.3600   -4.9580   24.8950 C   0  0  0  0  0  0  0  0  0  0  0  0
  -21.8280   -4.3250   23.7300 C   0  0  0  0  0  3  0  0  0  0  0  0
  -22.0110   -5.0710   22.5510 C   0  0  0  0  0  0  0  0  0  0  0  0
  -22.4420   -4.4520   21.4250 F   0  0  0  0  0  0  0  0  0  0  0  0
  -21.1800   -4.2370   26.0260 F   0  0  0  0  0  0  0  0  0  0  0  0
  -23.2200  -13.7260   21.1000 C   0  0  0  0  0  0  0  0  0  0  0  0
  -22.5390  -13.0510   22.0180 N   0  0  0  0  0  0  0  0  0  0  0  0
  -22.7870  -14.7770   20.6290 O   0  0  0  0  0  0  0  0  0  0  0  0
  -22.9050  -12.1970   22.4160 H   0  0  0  0  0  0  0  0  0  0  0  0
  -21.6380  -13.3900   22.3250 H   0  0  0  0  0  0  0  0  0  0  0  0
  -25.8560  -15.2900   20.1070 N   0  0  0  0  0  0  0  0  0  0  0  0
  -25.1230  -15.9720   20.2690 H   0  0  0  0  0  0  0  0  0  0  0  0
  -26.6810  -15.6900   19.6770 H   0  0  0  0  0  0  0  0  0  0  0  0
  -29.9400  -23.2480   17.4570 C   0  0  0  0  0  1  0  0  0  0  0  0
  -30.5110  -23.4870   18.8740 C   0  0  0  0  0  3  0  0  0  0  0  0
  -30.2820  -24.9320   19.4050 C   0  0  0  0  0  2  0  0  0  0  0  0
  -28.8400  -25.4680   19.3480 C   0  0  0  0  0  2  0  0  0  0  0  0
  -28.7790  -26.7960   19.8820 O   0  0  0  0  0  0  0  0  0  0  0  0
  -24.6560  -31.6240   23.1150 C   0  0  0  0  0  0  0  0  0  0  0  0
  -27.5530  -27.4360   19.8960 C   0  0  0  0  0  0  0  0  0  0  0  0
  -23.5440  -30.2300   21.4050 C   0  0  0  0  0  3  0  0  0  0  0  0
  -25.0850  -28.8250   19.9440 C   0  0  0  0  0  0  0  0  0  0  0  0
  -26.0510  -30.7180   21.2590 C   0  0  0  0  0  2  0  0  0  0  0  0
  -26.2110  -29.3790   20.5660 C   0  0  0  0  0  0  0  0  0  0  0  0
  -27.4460  -28.6930   20.5390 C   0  0  0  0  0  3  0  0  0  0  0  0
  -26.3970  -26.8890   19.2870 C   0  0  0  0  0  3  0  0  0  0  0  0
  -25.1730  -27.5790   19.3050 C   0  0  0  0  0  3  0  0  0  0  0  0
  -23.8030  -29.6210   20.0030 C   0  0  0  0  0  2  0  0  0  0  0  0
  -24.7680  -30.8700   21.9860 N   0  0  0  0  0  0  0  0  0  0  0  0
  -23.5550  -31.8220   23.6470 O   0  0  0  0  0  0  0  0  0  0  0  0
  -22.9310  -29.1390   22.3130 C   0  0  0  0  0  0  0  0  0  0  0  0
  -21.6190  -28.8960   22.1570 N   0  0  0  0  0  0  0  0  0  0  0  0
  -23.6320  -28.5160   23.1140 O   0  0  0  0  0  0  0  0  0  0  0  0
  -21.1130  -29.4560   21.4870 H   0  0  0  0  0  0  0  0  0  0  0  0
  -18.3000  -27.5260   22.5530 C   0  0  0  0  0  0  0  0  0  0  0  0
  -20.8380  -27.8910   22.8760 C   0  0  0  0  0  3  0  0  0  0  0  0
  -21.0160  -26.4900   22.2450 C   0  0  0  0  0  2  0  0  0  0  0  0
  -19.9450  -26.1590   21.2010 C   0  0  0  0  0  2  0  0  0  0  0  0
  -18.5490  -26.2140   21.8280 C   0  0  0  0  0  2  0  0  0  0  0  0
  -19.3750  -28.3220   23.0300 C   0  0  0  0  0  0  0  0  0  0  0  0
  -19.0890  -29.5500   23.6650 C   0  0  0  0  0  3  0  0  0  0  0  0
  -17.7600  -29.9840   23.8270 C   0  0  0  0  0  3  0  0  0  0  0  0
  -16.6990  -29.1860   23.3680 C   0  0  0  0  0  3  0  0  0  0  0  0
  -16.9700  -27.9580   22.7370 C   0  0  0  0  0  3  0  0  0  0  0  0
  -25.9000  -32.2950   23.7780 C   0  0  0  0  0  3  0  0  0  0  0  0
  -26.4190  -31.5190   25.0510 C   0  0  1  0  0  0  0  0  0  0  0  0
  -25.3100  -31.2010   26.0800 C   0  0  0  0  0  1  0  0  0  0  0  0
  -27.0830  -30.1830   24.6420 C   0  0  0  0  0  1  0  0  0  0  0  0
  -27.5090  -32.3520   25.7640 C   0  0  0  0  0  1  0  0  0  0  0  0
  -25.5280  -33.6730   24.1210 N   0  0  0  0  0  0  0  0  0  0  0  0
  -25.8390  -34.7500   23.3880 C   0  0  0  0  0  0  0  0  0  0  0  0
  -26.5400  -34.6890   22.3740 O   0  0  0  0  0  0  0  0  0  0  0  0
  -24.9040  -33.7900   24.9080 H   0  0  0  0  0  0  0  0  0  0  0  0
  -24.0500  -36.4780   23.0120 C   0  0  0  0  0  1  0  0  0  0  0  0
  -25.2840  -36.1100   23.8520 C   0  0  0  0  0  3  0  0  0  0  0  0
  -27.3590  -37.0650   24.7550 C   0  0  0  0  0  1  0  0  0  0  0  0
  -26.2780  -37.2040   23.7830 N   0  0  0  0  0  0  0  0  0  0  0  0
  -25.8330  -38.1060   23.9290 H   0  0  0  0  0  0  0  0  0  0  0  0
  3  1  1  0
  4  6  1  0
  4  2  1  0
  5  2  1  0
  5  1  1  0
  5 12  1  0
  6  3  1  0
  6  7  1  1
  8  9  1  0
 10 11  1  0
 10 12  1  0
 11 22  1  0
 11  8  1  0
 12 13  1  1
 12  9  1  0
 14 22  1  0
 15 20  1  0
 16 17  1  0
 16 15  1  0
 18 17  1  0
 18 27  1  0
 18 19  1  0
 20 14  1  0
 20 19  1  0
 21 14  2  0
 22 23  1  0
 24 25  2  0
 25 44  1  0
 26 25  1  0
 26 29  1  0
 27 28  1  0
 27 24  1  0
 28 26  2  0
 29 30  1  0
 30 31  2  0
 32 35  1  0
 32 31  1  0
 33 32  2  0
 34 33  1  0
 34 29  2  0
 35 36  1  0
 36 41  2  0
 36 37  1  0
 37 38  2  0
 38 39  1  0
 39 43  1  0
 40 39  2  0
 41 40  1  0
 42 41  1  0
 44 45  1  0
 45 48  1  0
 45 47  1  0
 46 44  2  0
 49 24  1  0
 49 50  1  0
 51 49  1  0
 53 52  1  0
 53 54  1  0
 53  6  1  0
 55 54  1  0
 55 56  1  0
 56 58  1  0
 57 68  2  0
 58 63  1  0
 59 67  1  0
 59 69  1  0
 60 66  1  0
 60 62  1  0
 61 67  1  0
 62 61  1  0
 63 62  2  0
 64 65  1  0
 64 58  2  0
 65 60  2  0
 66 59  1  0
 67 57  1  0
 69 71  2  0
 70 69  1  0
 72 70  1  0
 73 82  2  0
 73 78  1  0
 74 70  1  0
 74 78  1  0
 75 74  1  0
 76 77  1  0
 76 75  1  0
 77 73  1  0
 78 79  2  0
 79 80  1  0
 81 80  2  0
 82 81  1  0
 83 57  1  0
 83 88  1  0
 83 84  1  0
 84 87  1  1
 84 85  1  0
 86 84  1  0
 88 91  1  0
 89 93  1  0
 89 88  1  0
 90 89  2  0
 93 92  1  0
 95 93  1  0
 95 96  1  0
 95 94  1  0
M  ISO  4  14 100  22 100  55 101  56 101
M  END
>  <TORSDO>  (11) 
F 20

>  <SCORE>  (11) 
-12.269

>  <name>  (11) 
10

>  <ligand_id>  (11) 
10

>  <original_smiles>  (11) 
[H]c1c([H])c([H])c2c(c1[H])C([H])([H])C([H])([H])C([H])([H])C2([H])N([H])C(=O)C1([H])N(C(=O)C([H])(N([H])C(=O)C([H])(N([H])C([H])([H])[H])C([H])([H])[H])C(C([H])([H])[H])(C([H])([H])[H])C([H])([H])[H])C([H])([H])c2c([H])c(OC([H])([H])C([H])([H])C([H])(C([H])([H])[H])[N+]3([H])C([H])([H])C([H])([H])C([H])([N+]4([H])C([H])([H])C([H])([H])C([H])(N([H])C(=O)N5C([H])([H])C([H])([H])C([H])([H])C([H])(n6nc(-c7c([H])c([H])c(Oc8c([H])c([H])c(F)c([H])c8F)c([H])c7[H])c(C(=O)N([H])[H])c6N([H])[H])C5([H])[H])C4([H])[H])C([H])([H])C3([H])[H])c([H])c([H])c2C1([H])[H]

>  <smiles>  (11) 
[H]c1c([H])c([H])c2c(c1[H])C([H])([H])C([H])([H])C([H])([H])C2([H])N([H])C(=O)C1([H])N(C(=O)C([H])(N([H])C(=O)C([H])(N([H])C([H])([H])[H])C([H])([H])[H])C(C([H])([H])[H])(C([H])([H])[H])C([H])([H])[H])C([H])([H])c2c([H])c(OC([H])([H])C([H])([H])C([H])(C([H])([H])[H])[N+]3([H])C([H])([H])C([H])([H])C([H])([N+]4([H])C([H])([H])C([H])([H])C([H])(N([H])C(=O)N5C([H])([H])C([H])([H])C([H])([H])C([H])(n6nc(-c7c([H])c([H])c(Oc8c([H])c([H])c(F)c([H])c8F)c([H])c7[H])c(C(=O)N([H])[H])c6N([H])[H])C5([H])[H])C4([H])[H])C([H])([H])C3([H])[H])c([H])c([H])c2C1([H])[H]

$$$$
11:0:0
     RDKit          3D

 97106  0  0  1  0  0  0  0  0999 V2000
  -30.6960  -21.2400   20.1790 C   0  0  0  0  0  2  0  0  0  0  0  0
  -31.6940  -22.4940   22.1510 C   0  0  0  0  0  2  0  0  0  0  0  0
  -31.7630  -20.1830   20.5580 C   0  0  0  0  0  2  0  0  0  0  0  0
  -31.4100  -21.1420   22.8410 C   0  0  0  0  0  2  0  0  0  0  0  0
  -30.9760  -22.6330   20.7890 C   0  0  0  0  0  3  0  0  0  0  0  0
  -31.8830  -19.9760   22.0350 N   0  0  1  0  0  4  0  0  0  0  0  0
  -32.8820  -19.9800   22.1770 H   0  0  0  0  0  0  0  0  0  0  0  0
  -31.5420  -18.6310   22.6180 C   0  0  0  0  0  2  0  0  0  0  0  0
  -31.3120  -16.3090   21.5650 C   0  0  0  0  0  3  0  0  0  0  0  0
  -30.9180  -15.4450   20.5140 C   0  0  0  0  0  0  0  0  0  0  0  0
  -30.8480  -17.6420   21.6640 C   0  0  0  0  0  0  0  0  0  0  0  0
  -30.2430  -16.0750   19.4180 C   0  0  0  0  0  0  0  0  0  0  0  0
  -29.8040  -18.0520   20.8060 C   0  0  0  0  0  0  0  0  0  0  0  0
  -29.5930  -17.3260   19.6110 C   0  0  0  0  0  0  0  0  0  0  0  0
  -30.3780  -15.5710   17.9880 C   0  0  0  0  0  1  0  0  0  0  0  0
  -28.9400  -19.2700   21.1110 C   0  0  0  0  0  1  0  0  0  0  0  0
  -28.7380  -17.9740   18.5180 C   0  0  0  0  0  1  0  0  0  0  0  0
  -31.4940  -14.0290   20.4860 C   0  0  0  0  0  0  0  0  0  0  0  0
  -31.1500  -11.6130   20.0940 C   0  0  0  0  0  2  0  0  0  0  0  0
  -30.3500  -11.3950   18.7980 C   0  0  0  0  0  2  0  0  0  0  0  0
  -28.8380  -11.3970   19.1040 C   0  0  0  0  0  2  0  0  0  0  0  0
  -28.3970  -12.5840   20.0060 C   0  0  0  0  0  3  0  0  0  0  0  0
  -29.3570  -12.8330   21.1890 C   0  0  0  0  0  2  0  0  0  0  0  0
  -30.7280  -12.9060   20.6670 N   0  0  0  0  0  0  0  0  0  0  0  0
  -32.6860  -13.9490   20.1900 O   0  0  0  0  0  0  0  0  0  0  0  0
  -26.0410  -13.4850   20.4930 C   0  0  0  0  0  0  0  0  0  0  0  0
  -24.8720  -12.8510   20.8140 C   0  0  0  0  0  0  0  0  0  0  0  0
  -25.1960  -11.4630   20.9160 C   0  0  0  0  0  0  0  0  0  0  0  0
  -27.0020  -12.4890   20.4080 N   0  0  0  0  0  0  0  0  0  0  0  0
  -26.4950  -11.2730   20.7230 N   0  0  0  0  0  0  0  0  0  0  0  0
  -24.3390  -10.2950   21.1300 C   0  0  0  0  0  0  0  0  0  0  0  0
  -24.6630   -9.3090   22.0880 C   0  0  0  0  0  3  0  0  0  0  0  0
  -23.8130   -8.2000   22.2880 C   0  0  0  0  0  3  0  0  0  0  0  0
  -22.6250   -8.0730   21.5310 C   0  0  0  0  0  0  0  0  0  0  0  0
  -22.3210   -9.0450   20.5600 C   0  0  0  0  0  3  0  0  0  0  0  0
  -23.1710  -10.1440   20.3570 C   0  0  0  0  0  3  0  0  0  0  0  0
  -21.7540   -7.0170   21.6410 O   0  0  0  0  0  0  0  0  0  0  0  0
  -21.6820   -6.2600   22.7820 C   0  0  0  0  0  0  0  0  0  0  0  0
  -21.3680   -6.8320   24.0350 C   0  0  0  0  0  3  0  0  0  0  0  0
  -21.2360   -6.0110   25.1720 C   0  0  0  0  0  3  0  0  0  0  0  0
  -21.4050   -4.6170   25.0590 C   0  0  0  0  0  0  0  0  0  0  0  0
  -21.7080   -4.0450   23.8110 C   0  0  0  0  0  3  0  0  0  0  0  0
  -21.8440   -4.8650   22.6770 C   0  0  0  0  0  0  0  0  0  0  0  0
  -22.1180   -4.3060   21.4730 F   0  0  0  0  0  0  0  0  0  0  0  0
  -21.2690   -3.8270   26.1480 F   0  0  0  0  0  0  0  0  0  0  0  0
  -23.5140  -13.4790   20.9360 C   0  0  0  0  0  0  0  0  0  0  0  0
  -22.6670  -12.9430   21.8070 N   0  0  0  0  0  0  0  0  0  0  0  0
  -23.2150  -14.4860   20.2950 O   0  0  0  0  0  0  0  0  0  0  0  0
  -22.9210  -12.1310   22.3490 H   0  0  0  0  0  0  0  0  0  0  0  0
  -21.7510  -13.3490   21.9340 H   0  0  0  0  0  0  0  0  0  0  0  0
  -26.3570  -14.8190   20.2470 N   0  0  0  0  0  0  0  0  0  0  0  0
  -25.6640  -15.5540   20.3080 H   0  0  0  0  0  0  0  0  0  0  0  0
  -27.3000  -15.1640   20.1240 H   0  0  0  0  0  0  0  0  0  0  0  0
  -29.7250  -23.3260   20.8990 O   0  0  0  0  0  0  0  0  0  0  0  0
  -29.7960  -24.7540   20.8240 C   0  0  0  0  0  2  0  0  0  0  0  0
  -28.3790  -25.3520   20.6700 C   0  0  0  0  0  2  0  0  0  0  0  0
  -28.4370  -26.6880   20.1580 O   0  0  0  0  0  0  0  0  0  0  0  0
  -24.4520  -31.7490   23.1390 C   0  0  0  0  0  0  0  0  0  0  0  0
  -27.2360  -27.3610   20.1320 C   0  0  0  0  0  0  0  0  0  0  0  0
  -23.2980  -30.3260   21.4780 C   0  0  0  0  0  3  0  0  0  0  0  0
  -24.8040  -28.8070   20.0890 C   0  0  0  0  0  0  0  0  0  0  0  0
  -25.8150  -30.7370   21.3160 C   0  0  0  0  0  2  0  0  0  0  0  0
  -25.9400  -29.3640   20.6890 C   0  0  0  0  0  0  0  0  0  0  0  0
  -27.1590  -28.6510   20.6970 C   0  0  0  0  0  3  0  0  0  0  0  0
  -26.0840  -26.8090   19.5320 C   0  0  0  0  0  3  0  0  0  0  0  0
  -24.8730  -27.5270   19.5090 C   0  0  0  0  0  3  0  0  0  0  0  0
  -23.5430  -29.6410   20.1030 C   0  0  0  0  0  2  0  0  0  0  0  0
  -24.5400  -30.9480   22.0390 N   0  0  0  0  0  0  0  0  0  0  0  0
  -23.3560  -31.9960   23.6640 O   0  0  0  0  0  0  0  0  0  0  0  0
  -22.6510  -29.2940   22.4310 C   0  0  0  0  0  0  0  0  0  0  0  0
  -21.3300  -29.0960   22.2820 N   0  0  0  0  0  0  0  0  0  0  0  0
  -23.3300  -28.6750   23.2540 O   0  0  0  0  0  0  0  0  0  0  0  0
  -20.8450  -29.6430   21.5840 H   0  0  0  0  0  0  0  0  0  0  0  0
  -17.9610  -27.8570   22.7290 C   0  0  0  0  0  0  0  0  0  0  0  0
  -20.5120  -28.1450   23.0370 C   0  0  0  0  0  3  0  0  0  0  0  0
  -20.6410  -26.7190   22.4580 C   0  0  0  0  0  2  0  0  0  0  0  0
  -19.5590  -26.3830   21.4290 C   0  0  0  0  0  2  0  0  0  0  0  0
  -18.1650  -26.5100   22.0540 C   0  0  0  0  0  2  0  0  0  0  0  0
  -19.0640  -28.6310   23.1750 C   0  0  0  0  0  0  0  0  0  0  0  0
  -18.8250  -29.8920   23.7660 C   0  0  0  0  0  3  0  0  0  0  0  0
  -17.5130  -30.3790   23.9120 C   0  0  0  0  0  3  0  0  0  0  0  0
  -16.4220  -29.6040   23.4790 C   0  0  0  0  0  3  0  0  0  0  0  0
  -16.6480  -28.3450   22.8940 C   0  0  0  0  0  3  0  0  0  0  0  0
  -25.7160  -32.4000   23.7810 C   0  0  0  0  0  3  0  0  0  0  0  0
  -25.3760  -33.7870   24.1210 N   0  0  0  0  0  0  0  0  0  0  0  0
  -25.6990  -34.8530   23.3750 C   0  0  0  0  0  0  0  0  0  0  0  0
  -26.3860  -34.7690   22.3510 O   0  0  0  0  0  0  0  0  0  0  0  0
  -24.7660  -33.9170   24.9150 H   0  0  0  0  0  0  0  0  0  0  0  0
  -23.9340  -36.6070   23.0070 C   0  0  0  0  0  1  0  0  0  0  0  0
  -25.1740  -36.2270   23.8330 C   0  0  0  0  0  3  0  0  0  0  0  0
  -27.2760  -37.1530   24.7010 C   0  0  0  0  0  1  0  0  0  0  0  0
  -26.1850  -37.3040   23.7400 N   0  0  0  0  0  0  0  0  0  0  0  0
  -25.7580  -38.2160   23.8890 H   0  0  0  0  0  0  0  0  0  0  0  0
  -26.2320  -31.6280   25.0560 C   0  0  1  0  0  0  0  0  0  0  0  0
  -25.1350  -31.3520   26.1100 C   0  0  0  0  0  1  0  0  0  0  0  0
  -26.8510  -30.2710   24.6490 C   0  0  0  0  0  1  0  0  0  0  0  0
  -27.3570  -32.4410   25.7380 C   0  0  0  0  0  1  0  0  0  0  0  0
  1  3  1  0
  1  5  1  0
  2  4  1  0
  3  6  1  0
  5 54  1  0
  5  2  1  0
  6  7  1  6
  6  8  1  0
  6  4  1  0
  9 11  1  0
 10  9  2  0
 11  8  1  0
 12 14  2  0
 12 10  1  0
 13 16  1  0
 13 11  2  0
 14 13  1  0
 15 12  1  0
 17 14  1  0
 18 10  1  0
 18 24  1  0
 19 24  1  0
 20 21  1  0
 20 19  1  0
 22 21  1  0
 22 29  1  0
 22 23  1  0
 24 23  1  0
 25 18  2  0
 26 27  2  0
 27 28  1  0
 27 46  1  0
 28 31  1  0
 29 26  1  0
 29 30  1  0
 30 28  2  0
 31 32  1  0
 32 33  2  0
 34 37  1  0
 34 33  1  0
 35 34  2  0
 36 35  1  0
 36 31  2  0
 37 38  1  0
 38 39  1  0
 39 40  2  0
 41 40  1  0
 41 45  1  0
 42 41  2  0
 43 38  2  0
 43 42  1  0
 44 43  1  0
 46 47  1  0
 47 50  1  0
 47 49  1  0
 48 46  2  0
 51 52  1  0
 51 26  1  0
 53 51  1  0
 55 54  1  0
 56 55  1  0
 57 56  1  0
 58 69  2  0
 59 57  1  0
 59 64  1  0
 60 68  1  0
 60 70  1  0
 61 67  1  0
 61 63  1  0
 62 68  1  0
 63 64  2  0
 63 62  1  0
 65 59  2  0
 66 65  1  0
 66 61  2  0
 67 60  1  0
 68 58  1  0
 70 72  2  0
 71 70  1  0
 73 71  1  0
 74 83  2  0
 74 79  1  0
 75 71  1  0
 75 79  1  0
 76 75  1  0
 77 78  1  0
 77 76  1  0
 78 74  1  0
 79 80  2  0
 80 81  1  0
 82 81  2  0
 83 82  1  0
 84 58  1  0
 84 85  1  0
 84 94  1  0
 85 88  1  0
 86 90  1  0
 86 85  1  0
 87 86  2  0
 90 89  1  0
 92 90  1  0
 92 93  1  0
 92 91  1  0
 94 97  1  1
 94 95  1  0
 96 94  1  0
M  ISO  4  10 100  18 100  56 101  57 101
M  END
>  <TORSDO>  (12) 
F 21

>  <SCORE>  (12) 
-11.720

>  <name>  (12) 
11

>  <ligand_id>  (12) 
11

>  <original_smiles>  (12) 
[H]c1c([H])c([H])c2c(c1[H])C([H])([H])C([H])([H])C([H])([H])C2([H])N([H])C(=O)C1([H])N(C(=O)C([H])(N([H])C(=O)C([H])(N([H])C([H])([H])[H])C([H])([H])[H])C(C([H])([H])[H])(C([H])([H])[H])C([H])([H])[H])C([H])([H])c2c([H])c(OC([H])([H])C([H])([H])OC3([H])C([H])([H])C([H])([H])[N+]([H])(C([H])([H])c4c([H])c(C(=O)N5C([H])([H])C([H])([H])C([H])([H])C([H])(n6nc(-c7c([H])c([H])c(Oc8c([H])c([H])c(F)c([H])c8F)c([H])c7[H])c(C(=O)N([H])[H])c6N([H])[H])C5([H])[H])c(C([H])([H])[H])c(C([H])([H])[H])c4C([H])([H])[H])C([H])([H])C3([H])[H])c([H])c([H])c2C1([H])[H]

>  <smiles>  (12) 
[H]c1c([H])c([H])c2c(c1[H])C([H])([H])C([H])([H])C([H])([H])C2([H])N([H])C(=O)C1([H])N(C(=O)C([H])(N([H])C(=O)C([H])(N([H])C([H])([H])[H])C([H])([H])[H])C(C([H])([H])[H])(C([H])([H])[H])C([H])([H])[H])C([H])([H])c2c([H])c(OC([H])([H])C([H])([H])OC3([H])C([H])([H])C([H])([H])[N+]([H])(C([H])([H])c4c([H])c(C(=O)N5C([H])([H])C([H])([H])C([H])([H])C([H])(n6nc(-c7c([H])c([H])c(Oc8c([H])c([H])c(F)c([H])c8F)c([H])c7[H])c(C(=O)N([H])[H])c6N([H])[H])C5([H])[H])c(C([H])([H])[H])c(C([H])([H])[H])c4C([H])([H])[H])C([H])([H])C3([H])[H])c([H])c([H])c2C1([H])[H]

$$$$
12:0:0
     RDKit          3D

 95105  0  0  1  0  0  0  0  0999 V2000
  -29.0460  -20.8880   21.4750 C   0  0  0  0  0  3  0  0  0  0  0  0
  -28.9220  -20.8680   19.0440 C   0  0  0  0  0  3  0  0  0  0  0  0
  -29.1900  -20.1730   20.2580 C   0  0  0  0  0  0  0  0  0  0  0  0
  -28.6580  -22.2460   21.4420 C   0  0  0  0  0  0  0  0  0  0  0  0
  -28.3900  -22.9160   20.2490 C   0  0  0  0  0  0  0  0  0  0  0  0
  -28.5100  -22.2250   19.0240 C   0  0  0  0  0  0  0  0  0  0  0  0
  -28.5150  -23.1660   22.6260 C   0  0  0  0  0  2  0  0  0  0  0  0
  -28.3960  -24.5720   21.9890 C   0  0  0  0  0  2  0  0  0  0  0  0
  -27.9960  -24.3740   20.5040 C   0  0  0  0  0  3  0  0  0  0  0  0
  -30.8800  -14.6060   20.0150 C   0  0  0  0  0  0  0  0  0  0  0  0
  -30.5190  -12.4310   18.9220 C   0  0  0  0  0  2  0  0  0  0  0  0
  -29.5070  -12.6170   17.7740 C   0  0  0  0  0  2  0  0  0  0  0  0
  -28.0640  -12.4760   18.2980 C   0  0  0  0  0  2  0  0  0  0  0  0
  -27.7960  -13.3140   19.5780 C   0  0  0  0  0  3  0  0  0  0  0  0
  -28.9240  -13.1320   20.6180 C   0  0  0  0  0  2  0  0  0  0  0  0
  -30.1960  -13.4310   19.9510 N   0  0  0  0  0  0  0  0  0  0  0  0
  -32.0360  -14.7190   19.5940 O   0  0  0  0  0  0  0  0  0  0  0  0
  -29.8760  -17.9540   21.5380 C   0  0  0  0  0  2  0  0  0  0  0  0
  -28.9770  -17.7700   19.2700 C   0  0  0  0  0  2  0  0  0  0  0  0
  -30.6360  -16.6060   21.3580 C   0  0  0  0  0  2  0  0  0  0  0  0
  -29.7960  -16.4810   19.0390 C   0  0  0  0  0  2  0  0  0  0  0  0
  -29.7390  -18.7230   20.2070 C   0  0  0  0  0  3  0  0  0  0  0  0
  -30.1490  -15.7290   20.2660 N   0  0  0  0  0  0  0  0  0  0  0  0
  -25.4560  -13.9010   20.4680 C   0  0  0  0  0  0  0  0  0  0  0  0
  -24.4100  -13.1200   20.8780 C   0  0  0  0  0  0  0  0  0  0  0  0
  -24.8620  -11.7680   20.7720 C   0  0  0  0  0  0  0  0  0  0  0  0
  -26.4790  -13.0250   20.1410 N   0  0  0  0  0  0  0  0  0  0  0  0
  -26.1300  -11.7350   20.3810 N   0  0  0  0  0  0  0  0  0  0  0  0
  -24.1430  -10.5030   20.9640 C   0  0  0  0  0  0  0  0  0  0  0  0
  -24.5840   -9.5360   21.8930 C   0  0  0  0  0  3  0  0  0  0  0  0
  -23.8650   -8.3350   22.0740 C   0  0  0  0  0  3  0  0  0  0  0  0
  -22.6890   -8.0930   21.3240 C   0  0  0  0  0  0  0  0  0  0  0  0
  -22.2670   -9.0480   20.3840 C   0  0  0  0  0  3  0  0  0  0  0  0
  -22.9870  -10.2400   20.2010 C   0  0  0  0  0  3  0  0  0  0  0  0
  -21.9400   -6.9440   21.4150 O   0  0  0  0  0  0  0  0  0  0  0  0
  -21.8510   -6.2350   22.5860 C   0  0  0  0  0  0  0  0  0  0  0  0
  -21.3200   -6.8050   23.7630 C   0  0  0  0  0  3  0  0  0  0  0  0
  -21.1800   -6.0200   24.9250 C   0  0  0  0  0  3  0  0  0  0  0  0
  -21.5610   -4.6650   24.9100 C   0  0  0  0  0  0  0  0  0  0  0  0
  -22.0840   -4.0930   23.7360 C   0  0  0  0  0  3  0  0  0  0  0  0
  -22.2260   -4.8750   22.5770 C   0  0  0  0  0  0  0  0  0  0  0  0
  -22.7090   -4.3150   21.4430 F   0  0  0  0  0  0  0  0  0  0  0  0
  -21.4210   -3.9080   26.0240 F   0  0  0  0  0  0  0  0  0  0  0  0
  -23.0360  -13.5930   21.2560 C   0  0  0  0  0  0  0  0  0  0  0  0
  -22.3590  -12.8660   22.1380 N   0  0  0  0  0  0  0  0  0  0  0  0
  -22.5750  -14.6400   20.8070 O   0  0  0  0  0  0  0  0  0  0  0  0
  -22.7460  -12.0180   22.5240 H   0  0  0  0  0  0  0  0  0  0  0  0
  -21.4400  -13.1640   22.4340 H   0  0  0  0  0  0  0  0  0  0  0  0
  -25.6180  -15.2760   20.3300 N   0  0  0  0  0  0  0  0  0  0  0  0
  -24.8690  -15.9320   20.5180 H   0  0  0  0  0  0  0  0  0  0  0  0
  -26.4670  -15.7230   20.0060 H   0  0  0  0  0  0  0  0  0  0  0  0
  -26.9280  -22.9130   17.4520 C   0  0  0  0  0  1  0  0  0  0  0  0
  -28.2950  -22.8470   17.8240 O   0  0  0  0  0  0  0  0  0  0  0  0
  -28.5940  -25.4380   19.5340 C   0  0  0  0  0  2  0  0  0  0  0  0
  -28.4960  -26.8100   19.9670 O   0  0  0  0  0  0  0  0  0  0  0  0
  -24.6040  -31.8330   23.1600 C   0  0  0  0  0  0  0  0  0  0  0  0
  -27.2940  -27.4950   19.9510 C   0  0  0  0  0  0  0  0  0  0  0  0
  -23.4110  -30.4600   21.4820 C   0  0  0  0  0  3  0  0  0  0  0  0
  -24.8790  -28.9800   20.0100 C   0  0  0  0  0  0  0  0  0  0  0  0
  -25.9320  -30.8560   21.2860 C   0  0  0  0  0  2  0  0  0  0  0  0
  -26.0320  -29.5010   20.6100 C   0  0  0  0  0  0  0  0  0  0  0  0
  -27.2380  -28.7640   20.5770 C   0  0  0  0  0  3  0  0  0  0  0  0
  -26.1210  -26.9930   19.3420 C   0  0  0  0  0  3  0  0  0  0  0  0
  -24.9200  -27.7280   19.3730 C   0  0  0  0  0  3  0  0  0  0  0  0
  -23.6230  -29.8200   20.0840 C   0  0  0  0  0  2  0  0  0  0  0  0
  -24.6670  -31.0630   22.0350 N   0  0  0  0  0  0  0  0  0  0  0  0
  -23.5210  -32.0780   23.7100 O   0  0  0  0  0  0  0  0  0  0  0  0
  -22.7770  -29.4060   22.4190 C   0  0  0  0  0  0  0  0  0  0  0  0
  -21.4550  -29.2080   22.2870 N   0  0  0  0  0  0  0  0  0  0  0  0
  -23.4700  -28.7690   23.2170 O   0  0  0  0  0  0  0  0  0  0  0  0
  -20.9580  -29.7730   21.6130 H   0  0  0  0  0  0  0  0  0  0  0  0
  -18.0930  -27.9700   22.7710 C   0  0  0  0  0  0  0  0  0  0  0  0
  -20.6510  -28.2380   23.0310 C   0  0  0  0  0  3  0  0  0  0  0  0
  -20.7590  -26.8280   22.4060 C   0  0  0  0  0  2  0  0  0  0  0  0
  -19.6520  -26.5320   21.3890 C   0  0  0  0  0  2  0  0  0  0  0  0
  -18.2740  -26.6450   22.0490 C   0  0  0  0  0  2  0  0  0  0  0  0
  -19.2090  -28.7260   23.2180 C   0  0  0  0  0  0  0  0  0  0  0  0
  -18.9870  -29.9670   23.8510 C   0  0  0  0  0  3  0  0  0  0  0  0
  -17.6810  -30.4540   24.0430 C   0  0  0  0  0  3  0  0  0  0  0  0
  -16.5780  -29.6940   23.6150 C   0  0  0  0  0  3  0  0  0  0  0  0
  -16.7850  -28.4540   22.9860 C   0  0  0  0  0  3  0  0  0  0  0  0
  -25.8840  -32.4630   23.7930 C   0  0  0  0  0  3  0  0  0  0  0  0
  -25.5670  -33.8560   24.1370 N   0  0  0  0  0  0  0  0  0  0  0  0
  -25.9050  -34.9180   23.3940 C   0  0  0  0  0  0  0  0  0  0  0  0
  -26.5860  -34.8290   22.3680 O   0  0  0  0  0  0  0  0  0  0  0  0
  -24.9640  -33.9990   24.9330 H   0  0  0  0  0  0  0  0  0  0  0  0
  -24.1840  -36.7160   23.0260 C   0  0  0  0  0  1  0  0  0  0  0  0
  -25.4070  -36.2990   23.8610 C   0  0  0  0  0  3  0  0  0  0  0  0
  -27.5170  -37.1710   24.7610 C   0  0  0  0  0  1  0  0  0  0  0  0
  -26.4420  -37.3530   23.7890 N   0  0  0  0  0  0  0  0  0  0  0  0
  -26.0320  -38.2710   23.9380 H   0  0  0  0  0  0  0  0  0  0  0  0
  -26.4040  -31.6780   25.0610 C   0  0  1  0  0  0  0  0  0  0  0  0
  -25.3070  -31.4070   26.1180 C   0  0  0  0  0  1  0  0  0  0  0  0
  -27.0060  -30.3160   24.6480 C   0  0  0  0  0  1  0  0  0  0  0  0
  -27.5450  -32.4740   25.7390 C   0  0  0  0  0  1  0  0  0  0  0  0
  2  3  1  0
  3  1  2  0
  4  1  1  0
  4  7  1  0
  5  9  1  0
  5  4  2  0
  6  2  2  0
  6  5  1  0
  8  7  1  0
  9 54  1  0
  9  8  1  0
 10 23  1  0
 11 16  1  0
 12 13  1  0
 12 11  1  0
 14 13  1  0
 14 27  1  0
 14 15  1  0
 16 10  1  0
 16 15  1  0
 17 10  2  0
 19 22  1  0
 20 18  1  0
 21 19  1  0
 21 23  1  0
 22  3  1  0
 22 18  1  0
 23 20  1  0
 24 25  2  0
 25 44  1  0
 26 25  1  0
 26 29  1  0
 27 28  1  0
 27 24  1  0
 28 26  2  0
 29 30  1  0
 30 31  2  0
 32 35  1  0
 32 31  1  0
 33 32  2  0
 34 33  1  0
 34 29  2  0
 35 36  1  0
 36 37  1  0
 37 38  2  0
 39 38  1  0
 39 43  1  0
 40 39  2  0
 41 36  2  0
 41 40  1  0
 42 41  1  0
 44 45  1  0
 45 48  1  0
 45 47  1  0
 46 44  2  0
 49 24  1  0
 49 50  1  0
 51 49  1  0
 52 53  1  0
 53  6  1  0
 54 55  1  0
 56 67  2  0
 57 55  1  0
 57 62  1  0
 58 66  1  0
 58 68  1  0
 59 65  1  0
 59 61  1  0
 60 66  1  0
 61 60  1  0
 62 61  2  0
 63 64  1  0
 63 57  2  0
 64 59  2  0
 65 58  1  0
 66 56  1  0
 68 70  2  0
 69 68  1  0
 71 69  1  0
 72 81  2  0
 72 77  1  0
 73 69  1  0
 73 77  1  0
 74 73  1  0
 75 76  1  0
 75 74  1  0
 76 72  1  0
 77 78  2  0
 78 79  1  0
 80 79  2  0
 81 80  1  0
 82 56  1  0
 82 83  1  0
 82 92  1  0
 83 86  1  0
 84 88  1  0
 84 83  1  0
 85 84  2  0
 88 87  1  0
 90 88  1  0
 90 91  1  0
 90 89  1  0
 92 95  1  1
 92 93  1  0
 94 92  1  0
M  ISO  4  10 100  23 100  54 101  55 101
M  END
>  <TORSDO>  (13) 
F 18

>  <SCORE>  (13) 
-13.952

>  <name>  (13) 
12

>  <ligand_id>  (13) 
12

>  <original_smiles>  (13) 
[H]c1c([H])c([H])c2c(c1[H])C([H])([H])C([H])([H])C([H])([H])C2([H])N([H])C(=O)C1([H])N(C(=O)C([H])(N([H])C(=O)C([H])(N([H])C([H])([H])[H])C([H])([H])[H])C(C([H])([H])[H])(C([H])([H])[H])C([H])([H])[H])C([H])([H])c2c([H])c(OC([H])([H])C3([H])c4c(OC([H])([H])[H])c([H])c(C5([H])C([H])([H])C([H])([H])N(C(=O)N6C([H])([H])C([H])([H])C([H])([H])C([H])(n7nc(-c8c([H])c([H])c(Oc9c([H])c([H])c(F)c([H])c9F)c([H])c8[H])c(C(=O)N([H])[H])c7N([H])[H])C6([H])[H])C([H])([H])C5([H])[H])c([H])c4C([H])([H])C3([H])[H])c([H])c([H])c2C1([H])[H]

>  <smiles>  (13) 
[H]c1c([H])c([H])c2c(c1[H])C([H])([H])C([H])([H])C([H])([H])C2([H])N([H])C(=O)C1([H])N(C(=O)C([H])(N([H])C(=O)C([H])(N([H])C([H])([H])[H])C([H])([H])[H])C(C([H])([H])[H])(C([H])([H])[H])C([H])([H])[H])C([H])([H])c2c([H])c(OC([H])([H])C3([H])c4c(OC([H])([H])[H])c([H])c(C5([H])C([H])([H])C([H])([H])N(C(=O)N6C([H])([H])C([H])([H])C([H])([H])C([H])(n7nc(-c8c([H])c([H])c(Oc9c([H])c([H])c(F)c([H])c9F)c([H])c8[H])c(C(=O)N([H])[H])c7N([H])[H])C6([H])[H])C([H])([H])C5([H])[H])c([H])c4C([H])([H])C3([H])[H])c([H])c([H])c2C1([H])[H]

$$$$
13:0:0
     RDKit          3D

103112  0  0  1  0  0  0  0  0999 V2000
  -31.0750  -22.1000   20.1640 C   0  0  0  0  0  2  0  0  0  0  0  0
  -31.3060  -21.1310   17.8290 C   0  0  0  0  0  2  0  0  0  0  0  0
  -30.2720  -23.1380   19.3610 C   0  0  0  0  0  2  0  0  0  0  0  0
  -31.3720  -22.5560   17.2220 C   0  0  0  0  0  2  0  0  0  0  0  0
  -31.8580  -21.0900   19.2690 C   0  0  2  0  0  0  0  0  0  0  0  0
  -31.0540  -23.6400   18.2000 N   0  0  1  0  0  4  0  0  0  0  0  0
  -31.9460  -23.9060   18.5990 H   0  0  0  0  0  0  0  0  0  0  0  0
  -30.6170  -19.1140   20.2740 C   0  0  0  0  0  3  0  0  0  0  0  0
  -32.9240  -17.5940   20.6280 C   0  0  0  0  0  3  0  0  0  0  0  0
  -31.8530  -19.6550   19.8400 C   0  0  0  0  0  0  0  0  0  0  0  0
  -30.5300  -17.8680   20.9280 C   0  0  0  0  0  0  0  0  0  0  0  0
  -33.0090  -18.8230   19.9430 C   0  0  0  0  0  0  0  0  0  0  0  0
  -31.7040  -17.1130   21.1330 C   0  0  0  0  0  0  0  0  0  0  0  0
  -29.1770  -17.3660   21.4080 C   0  0  0  0  0  1  0  0  0  0  0  0
  -31.6880  -15.7540   21.8240 C   0  0  0  0  0  2  0  0  0  0  0  0
  -30.9600  -14.2480   19.9730 C   0  0  0  0  0  0  0  0  0  0  0  0
  -30.3570  -12.3330   18.5470 C   0  0  0  0  0  2  0  0  0  0  0  0
  -29.3250  -12.6840   17.4620 C   0  0  0  0  0  2  0  0  0  0  0  0
  -27.8930  -12.5570   18.0100 C   0  0  0  0  0  2  0  0  0  0  0  0
  -27.7060  -13.3040   19.3550 C   0  0  0  0  0  3  0  0  0  0  0  0
  -28.8310  -12.9470   20.3500 C   0  0  0  0  0  2  0  0  0  0  0  0
  -30.1350  -13.2050   19.7080 N   0  0  0  0  0  0  0  0  0  0  0  0
  -31.8800  -14.5910   19.2240 O   0  0  0  0  0  0  0  0  0  0  0  0
  -30.7980  -14.7900   21.1860 N   0  0  0  0  0  0  0  0  0  0  0  0
  -30.0440  -14.4260   21.7480 H   0  0  0  0  0  0  0  0  0  0  0  0
  -25.3740  -13.9470   20.2440 C   0  0  0  0  0  0  0  0  0  0  0  0
  -24.3190  -13.1890   20.6770 C   0  0  0  0  0  0  0  0  0  0  0  0
  -24.7470  -11.8290   20.5870 C   0  0  0  0  0  0  0  0  0  0  0  0
  -26.3820  -13.0510   19.9240 N   0  0  0  0  0  0  0  0  0  0  0  0
  -26.0100  -11.7700   20.1830 N   0  0  0  0  0  0  0  0  0  0  0  0
  -24.0110  -10.5790   20.8100 C   0  0  0  0  0  0  0  0  0  0  0  0
  -24.4380   -9.6280   21.7630 C   0  0  0  0  0  3  0  0  0  0  0  0
  -23.7020   -8.4420   21.9710 C   0  0  0  0  0  3  0  0  0  0  0  0
  -22.5250   -8.1960   21.2250 C   0  0  0  0  0  0  0  0  0  0  0  0
  -22.1160   -9.1360   20.2620 C   0  0  0  0  0  3  0  0  0  0  0  0
  -22.8520  -10.3130   20.0520 C   0  0  0  0  0  3  0  0  0  0  0  0
  -21.7610   -7.0600   21.3410 O   0  0  0  0  0  0  0  0  0  0  0  0
  -21.6620   -6.3770   22.5250 C   0  0  0  0  0  0  0  0  0  0  0  0
  -21.1890   -6.9930   23.7050 C   0  0  0  0  0  3  0  0  0  0  0  0
  -21.0380   -6.2350   24.8840 C   0  0  0  0  0  3  0  0  0  0  0  0
  -21.3510   -4.8620   24.8850 C   0  0  0  0  0  0  0  0  0  0  0  0
  -21.8180   -4.2460   23.7100 C   0  0  0  0  0  3  0  0  0  0  0  0
  -21.9700   -5.0010   22.5340 C   0  0  0  0  0  0  0  0  0  0  0  0
  -22.3990   -4.3970   21.4000 F   0  0  0  0  0  0  0  0  0  0  0  0
  -21.1990   -4.1330   26.0140 F   0  0  0  0  0  0  0  0  0  0  0  0
  -22.9560  -13.6890   21.0620 C   0  0  0  0  0  0  0  0  0  0  0  0
  -22.2840  -12.9940   21.9740 N   0  0  0  0  0  0  0  0  0  0  0  0
  -22.4990  -14.7280   20.5880 O   0  0  0  0  0  0  0  0  0  0  0  0
  -22.6680  -12.1540   22.3790 H   0  0  0  0  0  0  0  0  0  0  0  0
  -21.3710  -13.3090   22.2720 H   0  0  0  0  0  0  0  0  0  0  0  0
  -25.5520  -15.3170   20.0780 N   0  0  0  0  0  0  0  0  0  0  0  0
  -24.8060  -15.9830   20.2530 H   0  0  0  0  0  0  0  0  0  0  0  0
  -26.3890  -15.7490   19.7070 H   0  0  0  0  0  0  0  0  0  0  0  0
  -34.3400  -19.1320   19.2770 C   0  0  0  0  0  2  0  0  0  0  0  0
  -36.3980  -20.2450   19.4460 C   0  0  0  0  0  1  0  0  0  0  0  0
  -35.1390  -20.0070   20.0580 O   0  0  0  0  0  0  0  0  0  0  0  0
  -33.1460  -21.6740   19.1980 O   0  0  0  0  0  0  0  0  0  0  0  0
  -33.7680  -21.0720   19.6120 H   0  0  0  0  0  0  0  0  0  0  0  0
  -30.5260  -24.8570   17.5200 C   0  0  0  0  0  2  0  0  0  0  0  0
  -30.4460  -27.3830   17.8160 C   0  0  0  0  0  1  0  0  0  0  0  0
  -30.1200  -26.0240   18.4570 C   0  0  0  0  0  3  0  0  0  0  0  0
  -28.6170  -25.9640   18.8090 C   0  0  0  0  0  2  0  0  0  0  0  0
  -28.3850  -26.7410   19.9800 O   0  0  0  0  0  0  0  0  0  0  0  0
  -24.6220  -31.8380   23.1950 C   0  0  0  0  0  0  0  0  0  0  0  0
  -27.1870  -27.4120   20.0450 C   0  0  0  0  0  0  0  0  0  0  0  0
  -23.3810  -30.4650   21.5530 C   0  0  0  0  0  3  0  0  0  0  0  0
  -24.7980  -28.9120   20.1160 C   0  0  0  0  0  0  0  0  0  0  0  0
  -25.9050  -30.7950   21.3320 C   0  0  0  0  0  2  0  0  0  0  0  0
  -25.9650  -29.4230   20.6980 C   0  0  0  0  0  0  0  0  0  0  0  0
  -27.1590  -28.6740   20.6720 C   0  0  0  0  0  3  0  0  0  0  0  0
  -25.9920  -26.8890   19.4960 C   0  0  0  0  0  3  0  0  0  0  0  0
  -24.8000  -27.6360   19.5270 C   0  0  0  0  0  3  0  0  0  0  0  0
  -23.5680  -29.7890   20.1680 C   0  0  0  0  0  2  0  0  0  0  0  0
  -24.6550  -31.0470   22.0870 N   0  0  0  0  0  0  0  0  0  0  0  0
  -23.5480  -32.1250   23.7440 O   0  0  0  0  0  0  0  0  0  0  0  0
  -22.7250  -29.4450   22.5110 C   0  0  0  0  0  0  0  0  0  0  0  0
  -21.4010  -29.2680   22.3720 N   0  0  0  0  0  0  0  0  0  0  0  0
  -23.4010  -28.8150   23.3270 O   0  0  0  0  0  0  0  0  0  0  0  0
  -20.9180  -29.8310   21.6830 H   0  0  0  0  0  0  0  0  0  0  0  0
  -18.0180  -28.1080   22.8600 C   0  0  0  0  0  0  0  0  0  0  0  0
  -20.5760  -28.3350   23.1370 C   0  0  0  0  0  3  0  0  0  0  0  0
  -20.6640  -26.9060   22.5520 C   0  0  0  0  0  2  0  0  0  0  0  0
  -19.5600  -26.6000   21.5360 C   0  0  0  0  0  2  0  0  0  0  0  0
  -18.1790  -26.7600   22.1780 C   0  0  0  0  0  2  0  0  0  0  0  0
  -19.1440  -28.8550   23.2950 C   0  0  0  0  0  0  0  0  0  0  0  0
  -18.9390  -30.1210   23.8870 C   0  0  0  0  0  3  0  0  0  0  0  0
  -17.6430  -30.6380   24.0510 C   0  0  0  0  0  3  0  0  0  0  0  0
  -16.5280  -29.8870   23.6360 C   0  0  0  0  0  3  0  0  0  0  0  0
  -16.7170  -28.6230   23.0460 C   0  0  0  0  0  3  0  0  0  0  0  0
  -25.9250  -32.4410   23.8070 C   0  0  0  0  0  3  0  0  0  0  0  0
  -25.6450  -33.8380   24.1580 N   0  0  0  0  0  0  0  0  0  0  0  0
  -25.9850  -34.8940   23.4050 C   0  0  0  0  0  0  0  0  0  0  0  0
  -26.6460  -34.7920   22.3680 O   0  0  0  0  0  0  0  0  0  0  0  0
  -25.0710  -33.9960   24.9740 H   0  0  0  0  0  0  0  0  0  0  0  0
  -24.2880  -36.7180   23.0710 C   0  0  0  0  0  1  0  0  0  0  0  0
  -25.5190  -36.2830   23.8810 C   0  0  0  0  0  3  0  0  0  0  0  0
  -27.6650  -37.1220   24.7330 C   0  0  0  0  0  1  0  0  0  0  0  0
  -26.5690  -37.3200   23.7870 N   0  0  0  0  0  0  0  0  0  0  0  0
  -26.1760  -38.2440   23.9460 H   0  0  0  0  0  0  0  0  0  0  0  0
  -26.4520  -31.6430   25.0620 C   0  0  1  0  0  0  0  0  0  0  0  0
  -25.3590  -31.3650   26.1200 C   0  0  0  0  0  1  0  0  0  0  0  0
  -27.0530  -30.2840   24.6310 C   0  0  0  0  0  1  0  0  0  0  0  0
  -27.5910  -32.4360   25.7470 C   0  0  0  0  0  1  0  0  0  0  0  0
  2  5  1  0
  3  1  1  0
  4  2  1  0
  4  6  1  0
  5 57  1  6
  5 10  1  0
  5  1  1  0
  6  7  1  1
  6  3  1  0
  8 11  1  0
  9 13  1  0
 10 12  1  0
 10  8  2  0
 11 13  2  0
 11 14  1  0
 12  9  2  0
 13 15  1  0
 16 24  1  0
 17 22  1  0
 18 19  1  0
 18 17  1  0
 20 19  1  0
 20 29  1  0
 20 21  1  0
 22 16  1  0
 22 21  1  0
 23 16  2  0
 24 25  1  0
 24 15  1  0
 26 27  2  0
 27 46  1  0
 28 27  1  0
 28 31  1  0
 29 30  1  0
 29 26  1  0
 30 28  2  0
 31 32  1  0
 32 33  2  0
 34 37  1  0
 34 33  1  0
 35 34  2  0
 36 35  1  0
 36 31  2  0
 37 38  1  0
 38 43  2  0
 38 39  1  0
 39 40  2  0
 40 41  1  0
 41 45  1  0
 42 41  2  0
 43 42  1  0
 44 43  1  0
 46 47  1  0
 47 50  1  0
 47 49  1  0
 48 46  2  0
 51 26  1  0
 51 52  1  0
 53 51  1  0
 54 12  1  0
 54 56  1  0
 55 56  1  0
 57 58  1  0
 59  6  1  0
 59 61  1  0
 61 60  1  0
 61 62  1  0
 62 63  1  0
 63 65  1  0
 64 75  2  0
 65 70  1  0
 66 74  1  0
 66 76  1  0
 67 73  1  0
 67 69  1  0
 68 74  1  0
 69 68  1  0
 70 69  2  0
 71 72  1  0
 71 65  2  0
 72 67  2  0
 73 66  1  0
 74 64  1  0
 76 78  2  0
 77 76  1  0
 79 77  1  0
 80 89  2  0
 80 85  1  0
 81 77  1  0
 81 85  1  0
 82 81  1  0
 83 84  1  0
 83 82  1  0
 84 80  1  0
 85 86  2  0
 86 87  1  0
 88 87  2  0
 89 88  1  0
 90 64  1  0
 90 91  1  0
 90100  1  0
 91 94  1  0
 92 96  1  0
 92 91  1  0
 93 92  2  0
 96 95  1  0
 98 96  1  0
 98 99  1  0
 98 97  1  0
100103  1  1
100101  1  0
102100  1  0
M  ISO  4  16 100  24 100  62 101  63 101
M  END
>  <TORSDO>  (14) 
F 24

>  <SCORE>  (14) 
-11.382

>  <name>  (14) 
13

>  <ligand_id>  (14) 
13

>  <original_smiles>  (14) 
[H]OC1(c2c([H])c(C([H])([H])[H])c(C([H])([H])N([H])C(=O)N3C([H])([H])C([H])([H])C([H])([H])C([H])(n4nc(-c5c([H])c([H])c(Oc6c([H])c([H])c(F)c([H])c6F)c([H])c5[H])c(C(=O)N([H])[H])c4N([H])[H])C3([H])[H])c([H])c2C([H])([H])OC([H])([H])[H])C([H])([H])C([H])([H])[N+]([H])(C([H])([H])C([H])(C([H])([H])[H])C([H])([H])Oc2c([H])c([H])c3c(c2[H])C([H])([H])N(C(=O)C([H])(N([H])C(=O)C([H])(N([H])C([H])([H])[H])C([H])([H])[H])C(C([H])([H])[H])(C([H])([H])[H])C([H])([H])[H])C([H])(C(=O)N([H])C2([H])c4c([H])c([H])c([H])c([H])c4C([H])([H])C([H])([H])C2([H])[H])C3([H])[H])C([H])([H])C1([H])[H]

>  <smiles>  (14) 
[H]OC1(c2c([H])c(C([H])([H])[H])c(C([H])([H])N([H])C(=O)N3C([H])([H])C([H])([H])C([H])([H])C([H])(n4nc(-c5c([H])c([H])c(Oc6c([H])c([H])c(F)c([H])c6F)c([H])c5[H])c(C(=O)N([H])[H])c4N([H])[H])C3([H])[H])c([H])c2C([H])([H])OC([H])([H])[H])C([H])([H])C([H])([H])[N+]([H])(C([H])([H])C([H])(C([H])([H])[H])C([H])([H])Oc2c([H])c([H])c3c(c2[H])C([H])([H])N(C(=O)C([H])(N([H])C(=O)C([H])(N([H])C([H])([H])[H])C([H])([H])[H])C(C([H])([H])[H])(C([H])([H])[H])C([H])([H])[H])C([H])(C(=O)N([H])C2([H])c4c([H])c([H])c([H])c([H])c4C([H])([H])C([H])([H])C2([H])[H])C3([H])[H])C([H])([H])C1([H])[H]

$$$$
14:0:0
     RDKit          3D

 98108  0  0  1  0  0  0  0  0999 V2000
  -29.2440  -23.7000   21.6580 C   0  0  0  0  0  0  0  0  0  0  0  0
  -28.8430  -24.5590   20.6050 C   0  0  0  0  0  0  0  0  0  0  0  0
  -29.2930  -21.6690   20.1860 C   0  0  0  0  0  0  0  0  0  0  0  0
  -29.5120  -22.3140   21.4520 C   0  0  0  0  0  0  0  0  0  0  0  0
  -28.5580  -24.0480   19.3180 C   0  0  0  0  0  0  0  0  0  0  0  0
  -28.7820  -22.5880   19.1370 C   0  0  0  0  0  0  0  0  0  0  0  0
  -29.3690  -24.3000   23.0660 C   0  0  0  0  0  2  0  0  0  0  0  0
  -28.6620  -26.0530   20.8940 C   0  0  0  0  0  2  0  0  0  0  0  0
  -28.6380  -25.6410   23.2530 C   0  0  1  0  0  0  0  0  0  0  0  0
  -30.0440  -21.5510   22.6780 C   0  0  0  0  0  1  0  0  0  0  0  0
  -28.4460  -22.0070   17.7730 C   0  0  0  0  0  1  0  0  0  0  0  0
  -27.1020  -25.4790   23.3030 C   0  0  0  0  0  1  0  0  0  0  0  0
  -29.1150  -26.3470   24.5290 C   0  0  0  0  0  1  0  0  0  0  0  0
  -29.0550  -26.4800   22.1910 O   0  0  0  0  0  0  0  0  0  0  0  0
  -30.9530  -15.6180   20.5730 C   0  0  0  0  0  0  0  0  0  0  0  0
  -30.9460  -13.1630   20.0010 C   0  0  0  0  0  2  0  0  0  0  0  0
  -30.1740  -12.9120   18.6890 C   0  0  0  0  0  2  0  0  0  0  0  0
  -28.6720  -12.7240   18.9760 C   0  0  0  0  0  2  0  0  0  0  0  0
  -28.1120  -13.7840   19.9630 C   0  0  0  0  0  3  0  0  0  0  0  0
  -29.0340  -14.0000   21.1810 C   0  0  0  0  0  2  0  0  0  0  0  0
  -30.3480  -14.3680   20.6430 N   0  0  0  0  0  0  0  0  0  0  0  0
  -32.1800  -15.6210   20.4170 O   0  0  0  0  0  0  0  0  0  0  0  0
  -28.7600  -18.9980   20.8430 C   0  0  0  0  0  2  0  0  0  0  0  0
  -30.1390  -19.2100   18.9160 C   0  0  0  0  0  2  0  0  0  0  0  0
  -29.3810  -17.5670   21.2360 C   0  0  0  0  0  2  0  0  0  0  0  0
  -30.8550  -17.8140   19.2950 C   0  0  0  0  0  2  0  0  0  0  0  0
  -29.6960  -20.0590   20.1460 C   0  0  0  0  0  3  0  0  0  0  0  0
  -30.2360  -16.8140   20.2590 N   0  0  0  0  0  0  0  0  0  0  0  0
  -25.6900  -14.3770   20.5270 C   0  0  0  0  0  0  0  0  0  0  0  0
  -24.5940  -13.6080   20.8030 C   0  0  0  0  0  0  0  0  0  0  0  0
  -25.0460  -12.2530   20.7870 C   0  0  0  0  0  0  0  0  0  0  0  0
  -26.7400  -13.4920   20.3550 N   0  0  0  0  0  0  0  0  0  0  0  0
  -26.3570  -12.2070   20.5750 N   0  0  0  0  0  0  0  0  0  0  0  0
  -24.2950  -10.9960   20.9000 C   0  0  0  0  0  0  0  0  0  0  0  0
  -24.6990   -9.9690   21.7820 C   0  0  0  0  0  3  0  0  0  0  0  0
  -23.9470   -8.7780   21.8880 C   0  0  0  0  0  3  0  0  0  0  0  0
  -22.7750   -8.6090   21.1120 C   0  0  0  0  0  0  0  0  0  0  0  0
  -22.3900   -9.6240   20.2190 C   0  0  0  0  0  3  0  0  0  0  0  0
  -23.1430  -10.8050   20.1100 C   0  0  0  0  0  3  0  0  0  0  0  0
  -21.9950   -7.4780   21.1320 O   0  0  0  0  0  0  0  0  0  0  0  0
  -21.8040   -6.7530   22.2800 C   0  0  0  0  0  0  0  0  0  0  0  0
  -21.1850   -7.3110   23.4210 C   0  0  0  0  0  3  0  0  0  0  0  0
  -20.9480   -6.5110   24.5550 C   0  0  0  0  0  3  0  0  0  0  0  0
  -21.3190   -5.1520   24.5500 C   0  0  0  0  0  0  0  0  0  0  0  0
  -21.9310   -4.5940   23.4140 C   0  0  0  0  0  3  0  0  0  0  0  0
  -22.1700   -5.3910   22.2810 C   0  0  0  0  0  0  0  0  0  0  0  0
  -22.7400   -4.8420   21.1810 F   0  0  0  0  0  0  0  0  0  0  0  0
  -21.0850   -4.3810   25.6370 F   0  0  0  0  0  0  0  0  0  0  0  0
  -23.1850  -14.0970   20.9760 C   0  0  0  0  0  0  0  0  0  0  0  0
  -22.4070  -13.4410   21.8260 N   0  0  0  0  0  0  0  0  0  0  0  0
  -22.7810  -15.1000   20.3870 O   0  0  0  0  0  0  0  0  0  0  0  0
  -22.7460  -12.6320   22.3260 H   0  0  0  0  0  0  0  0  0  0  0  0
  -21.4590  -13.7530   21.9820 H   0  0  0  0  0  0  0  0  0  0  0  0
  -25.8770  -15.7490   20.3860 N   0  0  0  0  0  0  0  0  0  0  0  0
  -25.1070  -16.4050   20.4600 H   0  0  0  0  0  0  0  0  0  0  0  0
  -26.7530  -16.1920   20.1420 H   0  0  0  0  0  0  0  0  0  0  0  0
  -27.8690  -25.0580   18.2310 C   0  0  0  0  0  2  0  0  0  0  0  0
  -27.9230  -26.5990   18.2650 O   0  0  0  0  0  0  0  0  0  0  0  0
  -24.3750  -30.9810   22.9420 C   0  0  0  0  0  0  0  0  0  0  0  0
  -26.7870  -27.4260   18.5440 C   0  0  0  0  0  0  0  0  0  0  0  0
  -23.0420  -29.8920   21.1760 C   0  0  0  0  0  3  0  0  0  0  0  0
  -24.3650  -28.8560   19.2370 C   0  0  0  0  0  0  0  0  0  0  0  0
  -25.5190  -30.4480   20.7650 C   0  0  0  0  0  2  0  0  0  0  0  0
  -25.5840  -29.2650   19.7910 C   0  0  0  0  0  0  0  0  0  0  0  0
  -26.7920  -28.5620   19.4390 C   0  0  0  0  0  3  0  0  0  0  0  0
  -25.5330  -27.1260   17.9640 C   0  0  0  0  0  3  0  0  0  0  0  0
  -24.3480  -27.8020   18.3120 C   0  0  0  0  0  3  0  0  0  0  0  0
  -23.0990  -29.5870   19.6560 C   0  0  0  0  0  2  0  0  0  0  0  0
  -24.3370  -30.4510   21.6820 N   0  0  0  0  0  0  0  0  0  0  0  0
  -23.3600  -31.0270   23.6540 O   0  0  0  0  0  0  0  0  0  0  0  0
  -22.5850  -28.6240   21.9390 C   0  0  0  0  0  0  0  0  0  0  0  0
  -21.2810  -28.3010   21.8560 N   0  0  0  0  0  0  0  0  0  0  0  0
  -23.3980  -27.9430   22.5680 O   0  0  0  0  0  0  0  0  0  0  0  0
  -20.6740  -28.9120   21.3280 H   0  0  0  0  0  0  0  0  0  0  0  0
  -18.1930  -26.4230   22.0580 C   0  0  0  0  0  0  0  0  0  0  0  0
  -20.6490  -27.1250   22.4590 C   0  0  0  0  0  3  0  0  0  0  0  0
  -21.0340  -25.8360   21.6930 C   0  0  0  0  0  2  0  0  0  0  0  0
  -20.0250  -25.4600   20.6030 C   0  0  0  0  0  2  0  0  0  0  0  0
  -18.6340  -25.2460   21.2070 C   0  0  0  0  0  2  0  0  0  0  0  0
  -19.1380  -27.3160   22.6320 C   0  0  0  0  0  0  0  0  0  0  0  0
  -18.6700  -28.4140   23.3860 C   0  0  0  0  0  3  0  0  0  0  0  0
  -17.2920  -28.6250   23.5720 C   0  0  0  0  0  3  0  0  0  0  0  0
  -16.3620  -27.7310   23.0120 C   0  0  0  0  0  3  0  0  0  0  0  0
  -16.8130  -26.6310   22.2620 C   0  0  0  0  0  3  0  0  0  0  0  0
  -25.6870  -31.5710   23.5410 C   0  0  0  0  0  3  0  0  0  0  0  0
  -25.4320  -32.9830   23.8740 N   0  0  0  0  0  0  0  0  0  0  0  0
  -25.9860  -34.0270   23.2450 C   0  0  0  0  0  0  0  0  0  0  0  0
  -26.8300  -33.8990   22.3530 O   0  0  0  0  0  0  0  0  0  0  0  0
  -24.7080  -33.1630   24.5540 H   0  0  0  0  0  0  0  0  0  0  0  0
  -24.5260  -35.9870   22.6480 C   0  0  0  0  0  1  0  0  0  0  0  0
  -25.5350  -35.4380   23.6700 C   0  0  0  0  0  3  0  0  0  0  0  0
  -27.5050  -36.0990   24.9790 C   0  0  0  0  0  1  0  0  0  0  0  0
  -26.6540  -36.3930   23.8290 N   0  0  0  0  0  0  0  0  0  0  0  0
  -26.3060  -37.3430   23.9250 H   0  0  0  0  0  0  0  0  0  0  0  0
  -26.1990  -30.7900   24.8120 C   0  0  1  0  0  0  0  0  0  0  0  0
  -25.1370  -30.6560   25.9290 C   0  0  0  0  0  1  0  0  0  0  0  0
  -26.6620  -29.3640   24.4320 C   0  0  0  0  0  1  0  0  0  0  0  0
  -27.4350  -31.5070   25.4060 C   0  0  0  0  0  1  0  0  0  0  0  0
  1  7  1  0
  2  8  1  0
  2  1  2  0
  3  4  2  0
  4  1  1  0
  4 10  1  0
  5  2  1  0
  6  5  2  0
  6  3  1  0
  7  9  1  0
  8 14  1  0
  9 12  1  1
  9 13  1  0
 11  6  1  0
 14  9  1  0
 15 21  1  0
 16 21  1  0
 17 18  1  0
 17 16  1  0
 19 18  1  0
 19 32  1  0
 19 20  1  0
 21 20  1  0
 22 15  2  0
 23 25  1  0
 24 26  1  0
 24 27  1  0
 26 28  1  0
 27  3  1  0
 27 23  1  0
 28 15  1  0
 28 25  1  0
 29 30  2  0
 30 49  1  0
 31 30  1  0
 31 34  1  0
 32 29  1  0
 32 33  1  0
 33 31  2  0
 34 35  1  0
 35 36  2  0
 37 40  1  0
 37 36  1  0
 38 37  2  0
 39 38  1  0
 39 34  2  0
 40 41  1  0
 41 46  2  0
 41 42  1  0
 42 43  2  0
 44 43  1  0
 44 48  1  0
 45 44  2  0
 46 45  1  0
 47 46  1  0
 49 50  1  0
 50 53  1  0
 50 52  1  0
 51 49  2  0
 54 55  1  0
 54 29  1  0
 56 54  1  0
 57 58  1  0
 57  5  1  0
 58 60  1  0
 59 70  2  0
 60 65  1  0
 61 69  1  0
 61 71  1  0
 62 68  1  0
 62 64  1  0
 63 69  1  0
 64 63  1  0
 65 64  2  0
 66 67  1  0
 66 60  2  0
 67 62  2  0
 68 61  1  0
 69 59  1  0
 71 73  2  0
 72 71  1  0
 74 72  1  0
 75 84  2  0
 75 80  1  0
 76 72  1  0
 76 80  1  0
 77 76  1  0
 78 79  1  0
 78 77  1  0
 79 75  1  0
 80 81  2  0
 81 82  1  0
 83 82  2  0
 84 83  1  0
 85 59  1  0
 85 86  1  0
 85 95  1  0
 86 89  1  0
 87 91  1  0
 87 86  1  0
 88 87  2  0
 91 90  1  0
 91 93  1  0
 93 94  1  0
 93 92  1  0
 95 98  1  1
 95 96  1  0
 97 95  1  0
M  ISO  4  15 100  28 100  57 101  58 101
M  END
>  <TORSDO>  (15) 
F 17

>  <SCORE>  (15) 
-11.875

>  <name>  (15) 
14

>  <ligand_id>  (15) 
14

>  <original_smiles>  (15) 
[H]c1c([H])c([H])c2c(c1[H])C([H])([H])C([H])([H])C([H])([H])C2([H])N([H])C(=O)C1([H])N(C(=O)C([H])(N([H])C(=O)C([H])(N([H])C([H])([H])[H])C([H])([H])[H])C(C([H])([H])[H])(C([H])([H])[H])C([H])([H])[H])C([H])([H])c2c([H])c(OC([H])([H])c3c(C([H])([H])[H])c(C4([H])C([H])([H])C([H])([H])N(C(=O)N5C([H])([H])C([H])([H])C([H])([H])C([H])(n6nc(-c7c([H])c([H])c(Oc8c([H])c([H])c(F)c([H])c8F)c([H])c7[H])c(C(=O)N([H])[H])c6N([H])[H])C5([H])[H])C([H])([H])C4([H])[H])c(C([H])([H])[H])c4c3C([H])([H])OC(C([H])([H])[H])(C([H])([H])[H])C4([H])[H])c([H])c([H])c2C1([H])[H]

>  <smiles>  (15) 
[H]c1c([H])c([H])c2c(c1[H])C([H])([H])C([H])([H])C([H])([H])C2([H])N([H])C(=O)C1([H])N(C(=O)C([H])(N([H])C(=O)C([H])(N([H])C([H])([H])[H])C([H])([H])[H])C(C([H])([H])[H])(C([H])([H])[H])C([H])([H])[H])C([H])([H])c2c([H])c(OC([H])([H])c3c(C([H])([H])[H])c(C4([H])C([H])([H])C([H])([H])N(C(=O)N5C([H])([H])C([H])([H])C([H])([H])C([H])(n6nc(-c7c([H])c([H])c(Oc8c([H])c([H])c(F)c([H])c8F)c([H])c7[H])c(C(=O)N([H])[H])c6N([H])[H])C5([H])[H])C([H])([H])C4([H])[H])c(C([H])([H])[H])c4c3C([H])([H])OC(C([H])([H])[H])(C([H])([H])[H])C4([H])[H])c([H])c([H])c2C1([H])[H]

$$$$
15:0:0
     RDKit          3D

 96106  0  0  1  0  0  0  0  0999 V2000
  -28.8010  -21.3980   20.9910 C   0  0  0  0  0  3  0  0  0  0  0  0
  -28.9210  -20.0100   20.7410 C   0  0  0  0  0  3  0  0  0  0  0  0
  -30.9980  -21.3790   22.0040 C   0  0  0  0  0  3  0  0  0  0  0  0
  -29.8240  -22.0920   21.6720 C   0  0  0  0  0  0  0  0  0  0  0  0
  -30.0610  -19.2850   21.1620 C   0  0  0  0  0  0  0  0  0  0  0  0
  -31.1280  -19.9860   21.7760 C   0  0  0  0  0  0  0  0  0  0  0  0
  -31.2330  -14.8370   19.8630 C   0  0  0  0  0  0  0  0  0  0  0  0
  -30.9280  -12.5840   18.8940 C   0  0  0  0  0  2  0  0  0  0  0  0
  -29.9050  -12.6530   17.7420 C   0  0  0  0  0  2  0  0  0  0  0  0
  -28.4640  -12.5190   18.2760 C   0  0  0  0  0  2  0  0  0  0  0  0
  -28.1830  -13.4610   19.4770 C   0  0  0  0  0  3  0  0  0  0  0  0
  -29.3070  -13.3510   20.5300 C   0  0  0  0  0  2  0  0  0  0  0  0
  -30.5880  -13.6390   19.8610 N   0  0  0  0  0  0  0  0  0  0  0  0
  -32.2910  -15.0330   19.2560 O   0  0  0  0  0  0  0  0  0  0  0  0
  -29.9510  -16.9440   19.7870 C   0  0  0  0  0  2  0  0  0  0  0  0
  -31.3020  -16.8600   21.3070 C   0  0  0  0  0  2  0  0  0  0  0  0
  -30.0780  -17.7500   21.0770 C   0  0  0  0  0  3  0  0  0  0  0  0
  -30.5970  -15.8330   20.5170 N   0  0  0  0  0  0  0  0  0  0  0  0
  -25.8890  -14.1120   20.4490 C   0  0  0  0  0  0  0  0  0  0  0  0
  -24.8260  -13.3570   20.8650 C   0  0  0  0  0  0  0  0  0  0  0  0
  -25.2190  -11.9950   20.6970 C   0  0  0  0  0  0  0  0  0  0  0  0
  -26.8680  -13.2090   20.0600 N   0  0  0  0  0  0  0  0  0  0  0  0
  -26.4710  -11.9270   20.2640 N   0  0  0  0  0  0  0  0  0  0  0  0
  -24.4580  -10.7510   20.8690 C   0  0  0  0  0  0  0  0  0  0  0  0
  -24.8260   -9.7860   21.8320 C   0  0  0  0  0  3  0  0  0  0  0  0
  -24.0680   -8.6060   21.9890 C   0  0  0  0  0  3  0  0  0  0  0  0
  -22.9250   -8.3840   21.1850 C   0  0  0  0  0  0  0  0  0  0  0  0
  -22.5760   -9.3390   20.2120 C   0  0  0  0  0  3  0  0  0  0  0  0
  -23.3360  -10.5100   20.0520 C   0  0  0  0  0  3  0  0  0  0  0  0
  -22.1430   -7.2570   21.2500 O   0  0  0  0  0  0  0  0  0  0  0  0
  -21.8680   -6.6410   22.4440 C   0  0  0  0  0  0  0  0  0  0  0  0
  -21.2100   -7.3150   23.4970 C   0  0  0  0  0  3  0  0  0  0  0  0
  -20.8850   -6.6230   24.6810 C   0  0  0  0  0  3  0  0  0  0  0  0
  -21.2070   -5.2600   24.8120 C   0  0  0  0  0  0  0  0  0  0  0  0
  -21.8570   -4.5850   23.7620 C   0  0  0  0  0  3  0  0  0  0  0  0
  -22.1830   -5.2740   22.5810 C   0  0  0  0  0  0  0  0  0  0  0  0
  -22.7900   -4.6140   21.5650 F   0  0  0  0  0  0  0  0  0  0  0  0
  -20.8870   -4.5920   25.9450 F   0  0  0  0  0  0  0  0  0  0  0  0
  -23.4830  -13.8680   21.3040 C   0  0  0  0  0  0  0  0  0  0  0  0
  -22.8180  -13.1510   22.2010 N   0  0  0  0  0  0  0  0  0  0  0  0
  -23.0370  -14.9360   20.8850 O   0  0  0  0  0  0  0  0  0  0  0  0
  -23.1930  -12.2870   22.5620 H   0  0  0  0  0  0  0  0  0  0  0  0
  -21.9200  -13.4720   22.5360 H   0  0  0  0  0  0  0  0  0  0  0  0
  -26.0990  -15.4850   20.3530 N   0  0  0  0  0  0  0  0  0  0  0  0
  -25.3800  -16.1600   20.5900 H   0  0  0  0  0  0  0  0  0  0  0  0
  -26.9440  -15.9130   19.9970 H   0  0  0  0  0  0  0  0  0  0  0  0
  -28.3970  -24.2620   22.2650 C   0  0  0  0  0  2  0  0  0  0  0  0
  -29.7000  -23.5000   22.2290 C   0  0  0  0  0  3  0  0  0  0  0  0
  -29.5830  -24.8490   21.5250 C   0  0  0  0  0  3  0  0  0  0  0  0
  -29.3930  -25.2220   20.0590 C   0  0  0  0  0  3  0  0  0  0  0  0
  -30.6200  -25.0420   19.3740 O   0  0  0  0  0  0  0  0  0  0  0  0
  -31.2610  -25.6350   19.7570 H   0  0  0  0  0  0  0  0  0  0  0  0
  -28.9550  -26.7150   19.9600 C   0  0  0  0  0  2  0  0  0  0  0  0
  -28.1540  -26.9750   18.8070 O   0  0  0  0  0  0  0  0  0  0  0  0
  -24.6100  -31.6060   22.9440 C   0  0  0  0  0  0  0  0  0  0  0  0
  -27.0100  -27.7010   19.0510 C   0  0  0  0  0  0  0  0  0  0  0  0
  -23.2670  -30.3830   21.2650 C   0  0  0  0  0  3  0  0  0  0  0  0
  -24.5980  -29.0950   19.5080 C   0  0  0  0  0  0  0  0  0  0  0  0
  -25.7490  -30.8550   20.8590 C   0  0  0  0  0  2  0  0  0  0  0  0
  -25.7970  -29.5790   20.0440 C   0  0  0  0  0  0  0  0  0  0  0  0
  -27.0080  -28.8870   19.8220 C   0  0  0  0  0  3  0  0  0  0  0  0
  -25.8000  -27.2320   18.5060 C   0  0  0  0  0  3  0  0  0  0  0  0
  -24.5910  -27.9180   18.7380 C   0  0  0  0  0  3  0  0  0  0  0  0
  -23.3460  -29.8930   19.7930 C   0  0  0  0  0  2  0  0  0  0  0  0
  -24.5670  -30.9550   21.7470 N   0  0  0  0  0  0  0  0  0  0  0  0
  -23.5880  -31.7700   23.6220 O   0  0  0  0  0  0  0  0  0  0  0  0
  -22.7460  -29.2240   22.1450 C   0  0  0  0  0  0  0  0  0  0  0  0
  -21.4270  -28.9780   22.0870 N   0  0  0  0  0  0  0  0  0  0  0  0
  -23.5200  -28.5560   22.8340 O   0  0  0  0  0  0  0  0  0  0  0  0
  -20.8610  -29.5750   21.5010 H   0  0  0  0  0  0  0  0  0  0  0  0
  -18.1800  -27.4770   22.5930 C   0  0  0  0  0  0  0  0  0  0  0  0
  -20.7190  -27.9150   22.7990 C   0  0  0  0  0  3  0  0  0  0  0  0
  -20.9090  -26.5520   22.0950 C   0  0  0  0  0  2  0  0  0  0  0  0
  -19.7940  -26.2310   21.0940 C   0  0  0  0  0  2  0  0  0  0  0  0
  -18.4320  -26.2080   21.7960 C   0  0  0  0  0  2  0  0  0  0  0  0
  -19.2530  -28.2870   23.0510 C   0  0  0  0  0  0  0  0  0  0  0  0
  -18.9610  -29.4740   23.7560 C   0  0  0  0  0  3  0  0  0  0  0  0
  -17.6290  -29.8540   24.0080 C   0  0  0  0  0  3  0  0  0  0  0  0
  -16.5720  -29.0400   23.5670 C   0  0  0  0  0  3  0  0  0  0  0  0
  -16.8480  -27.8530   22.8650 C   0  0  0  0  0  3  0  0  0  0  0  0
  -25.9420  -32.1960   23.5050 C   0  0  0  0  0  3  0  0  0  0  0  0
  -25.6490  -33.5420   24.0150 N   0  0  0  0  0  0  0  0  0  0  0  0
  -25.9250  -34.6790   23.3610 C   0  0  0  0  0  0  0  0  0  0  0  0
  -26.5230  -34.7040   22.2830 O   0  0  0  0  0  0  0  0  0  0  0  0
  -25.1080  -33.5960   24.8660 H   0  0  0  0  0  0  0  0  0  0  0  0
  -24.1600  -36.4700   23.3350 C   0  0  0  0  0  1  0  0  0  0  0  0
  -25.4600  -35.9980   24.0070 C   0  0  0  0  0  3  0  0  0  0  0  0
  -27.6380  -36.8200   24.7870 C   0  0  0  0  0  1  0  0  0  0  0  0
  -26.4730  -37.0740   23.9430 N   0  0  0  0  0  0  0  0  0  0  0  0
  -26.0720  -37.9660   24.2170 H   0  0  0  0  0  0  0  0  0  0  0  0
  -26.5940  -31.3010   24.6290 C   0  0  1  0  0  0  0  0  0  0  0  0
  -25.6180  -30.9300   25.7690 C   0  0  0  0  0  1  0  0  0  0  0  0
  -27.1420  -29.9850   24.0270 C   0  0  0  0  0  1  0  0  0  0  0  0
  -27.8020  -32.0390   25.2500 C   0  0  0  0  0  1  0  0  0  0  0  0
  -33.3160  -19.9490   22.7840 C   0  0  0  0  0  1  0  0  0  0  0  0
  -32.2300  -19.2610   22.1770 O   0  0  0  0  0  0  0  0  0  0  0  0
  1  4  1  0
  2  1  2  0
  2  5  1  0
  4  3  2  0
  5  6  2  0
  6  3  1  0
  6 96  1  0
  7 18  1  0
  8 13  1  0
  9 10  1  0
  9  8  1  0
 11 10  1  0
 11 22  1  0
 11 12  1  0
 13  7  1  0
 13 12  1  0
 14  7  2  0
 15 18  1  0
 15 17  1  0
 17  5  1  0
 17 16  1  0
 18 16  1  0
 19 20  2  0
 20 39  1  0
 21 20  1  0
 21 24  1  0
 22 23  1  0
 22 19  1  0
 23 21  2  0
 24 25  1  0
 25 26  2  0
 27 30  1  0
 27 26  1  0
 28 27  2  0
 29 28  1  0
 29 24  2  0
 30 31  1  0
 31 36  2  0
 31 32  1  0
 32 33  2  0
 33 34  1  0
 34 38  1  0
 35 34  2  0
 36 35  1  0
 37 36  1  0
 39 40  1  0
 40 43  1  0
 40 42  1  0
 41 39  2  0
 44 19  1  0
 44 45  1  0
 46 44  1  0
 48  4  1  0
 48 47  1  0
 49 50  1  0
 49 48  1  0
 49 47  1  0
 50 53  1  0
 51 52  1  0
 51 50  1  0
 54 56  1  0
 54 53  1  0
 55 66  2  0
 56 61  1  0
 57 65  1  0
 57 67  1  0
 58 64  1  0
 58 60  1  0
 59 65  1  0
 60 59  1  0
 61 60  2  0
 62 63  1  0
 62 56  2  0
 63 58  2  0
 64 57  1  0
 65 55  1  0
 67 69  2  0
 68 67  1  0
 70 68  1  0
 71 80  2  0
 71 76  1  0
 72 68  1  0
 72 76  1  0
 73 72  1  0
 74 75  1  0
 74 73  1  0
 75 71  1  0
 76 77  2  0
 77 78  1  0
 79 78  2  0
 80 79  1  0
 81 55  1  0
 81 82  1  0
 81 91  1  0
 82 85  1  0
 83 87  1  0
 83 82  1  0
 84 83  2  0
 87 86  1  0
 89 87  1  0
 89 90  1  0
 89 88  1  0
 91 94  1  1
 91 92  1  0
 93 91  1  0
 96 95  1  0
M  ISO  4   7 100  18 100  53 101  54 101
M  END
>  <TORSDO>  (16) 
F 21

>  <SCORE>  (16) 
-11.917

>  <name>  (16) 
15

>  <ligand_id>  (16) 
15

>  <original_smiles>  (16) 
[H]OC([H])(C([H])([H])Oc1c([H])c([H])c2c(c1[H])C([H])([H])N(C(=O)C([H])(N([H])C(=O)C([H])(N([H])C([H])([H])[H])C([H])([H])[H])C(C([H])([H])[H])(C([H])([H])[H])C([H])([H])[H])C([H])(C(=O)N([H])C1([H])c3c([H])c([H])c([H])c([H])c3C([H])([H])C([H])([H])C1([H])[H])C2([H])[H])C1([H])C([H])([H])C1([H])c1c([H])c([H])c(C2([H])C([H])([H])N(C(=O)N3C([H])([H])C([H])([H])C([H])([H])C([H])(n4nc(-c5c([H])c([H])c(Oc6c([H])c([H])c(F)c([H])c6F)c([H])c5[H])c(C(=O)N([H])[H])c4N([H])[H])C3([H])[H])C2([H])[H])c(OC([H])([H])[H])c1[H]

>  <smiles>  (16) 
[H]OC([H])(C([H])([H])Oc1c([H])c([H])c2c(c1[H])C([H])([H])N(C(=O)C([H])(N([H])C(=O)C([H])(N([H])C([H])([H])[H])C([H])([H])[H])C(C([H])([H])[H])(C([H])([H])[H])C([H])([H])[H])C([H])(C(=O)N([H])C1([H])c3c([H])c([H])c([H])c([H])c3C([H])([H])C([H])([H])C1([H])[H])C2([H])[H])C1([H])C([H])([H])C1([H])c1c([H])c([H])c(C2([H])C([H])([H])N(C(=O)N3C([H])([H])C([H])([H])C([H])([H])C([H])(n4nc(-c5c([H])c([H])c(Oc6c([H])c([H])c(F)c([H])c6F)c([H])c5[H])c(C(=O)N([H])[H])c4N([H])[H])C3([H])[H])C2([H])[H])c(OC([H])([H])[H])c1[H]

$$$$
16:0:0
     RDKit          3D

 97106  0  0  1  0  0  0  0  0999 V2000
  -30.7670  -22.9160   20.8700 C   0  0  0  0  0  0  0  0  0  0  0  0
  -29.7130  -21.9260   18.8860 C   0  0  0  0  0  0  0  0  0  0  0  0
  -30.0320  -24.1240   20.6640 C   0  0  0  0  0  0  0  0  0  0  0  0
  -29.0220  -23.1460   18.6570 C   0  0  0  0  0  0  0  0  0  0  0  0
  -30.6050  -21.8030   19.9880 C   0  0  0  0  0  0  0  0  0  0  0  0
  -29.1430  -24.2400   19.5620 C   0  0  0  0  0  0  0  0  0  0  0  0
  -31.7100  -22.8340   22.0730 C   0  0  0  0  0  1  0  0  0  0  0  0
  -29.4490  -20.7510   17.9400 C   0  0  0  0  0  1  0  0  0  0  0  0
  -30.1740  -25.3030   21.6280 C   0  0  0  0  0  1  0  0  0  0  0  0
  -28.1030  -23.2930   17.4340 C   0  0  0  0  0  1  0  0  0  0  0  0
  -31.4060  -20.4920   20.2020 C   0  0  0  0  0  2  0  0  0  0  0  0
  -32.0360  -18.5720   21.8370 C   0  0  0  0  0  2  0  0  0  0  0  0
  -29.5470  -19.0520   21.3970 C   0  0  0  0  0  2  0  0  0  0  0  0
  -31.8580  -17.2030   21.1410 C   0  0  0  0  0  2  0  0  0  0  0  0
  -29.4420  -17.6640   20.7280 C   0  0  0  0  0  2  0  0  0  0  0  0
  -30.9820  -19.6450   21.4380 C   0  0  0  0  0  3  0  0  0  0  0  0
  -30.4280  -16.6770   21.3710 C   0  0  0  0  0  3  0  0  0  0  0  0
  -30.6600  -14.4560   20.0750 C   0  0  0  0  0  0  0  0  0  0  0  0
  -30.2770  -12.3670   18.8030 C   0  0  0  0  0  2  0  0  0  0  0  0
  -29.2490  -12.6020   17.6790 C   0  0  0  0  0  2  0  0  0  0  0  0
  -27.8110  -12.4300   18.2020 C   0  0  0  0  0  2  0  0  0  0  0  0
  -27.5560  -13.2230   19.5110 C   0  0  0  0  0  3  0  0  0  0  0  0
  -28.6800  -12.9510   20.5350 C   0  0  0  0  0  2  0  0  0  0  0  0
  -29.9720  -13.2910   19.9070 N   0  0  0  0  0  0  0  0  0  0  0  0
  -31.6590  -14.7440   19.4130 O   0  0  0  0  0  0  0  0  0  0  0  0
  -30.1350  -15.2810   20.9960 N   0  0  0  0  0  0  0  0  0  0  0  0
  -29.3450  -14.8790   21.4780 H   0  0  0  0  0  0  0  0  0  0  0  0
  -25.1860  -13.7930   20.3480 C   0  0  0  0  0  0  0  0  0  0  0  0
  -24.1540  -13.0040   20.7800 C   0  0  0  0  0  0  0  0  0  0  0  0
  -24.6360  -11.6610   20.7260 C   0  0  0  0  0  0  0  0  0  0  0  0
  -26.2330  -12.9300   20.0630 N   0  0  0  0  0  0  0  0  0  0  0  0
  -25.9070  -11.6420   20.3440 N   0  0  0  0  0  0  0  0  0  0  0  0
  -23.9450  -10.3870   20.9620 C   0  0  0  0  0  0  0  0  0  0  0  0
  -24.3900   -9.4770   21.9450 C   0  0  0  0  0  3  0  0  0  0  0  0
  -23.6970   -8.2670   22.1660 C   0  0  0  0  0  3  0  0  0  0  0  0
  -22.5470   -7.9580   21.4030 C   0  0  0  0  0  0  0  0  0  0  0  0
  -22.1200   -8.8590   20.4110 C   0  0  0  0  0  3  0  0  0  0  0  0
  -22.8130  -10.0600   20.1890 C   0  0  0  0  0  3  0  0  0  0  0  0
  -21.8270   -6.7950   21.5290 O   0  0  0  0  0  0  0  0  0  0  0  0
  -21.7250   -6.1380   22.7290 C   0  0  0  0  0  0  0  0  0  0  0  0
  -21.1800   -6.7600   23.8740 C   0  0  0  0  0  3  0  0  0  0  0  0
  -21.0280   -6.0270   25.0680 C   0  0  0  0  0  3  0  0  0  0  0  0
  -21.4110   -4.6740   25.1170 C   0  0  0  0  0  0  0  0  0  0  0  0
  -21.9490   -4.0510   23.9780 C   0  0  0  0  0  3  0  0  0  0  0  0
  -22.1020   -4.7810   22.7860 C   0  0  0  0  0  0  0  0  0  0  0  0
  -22.6010   -4.1710   21.6840 F   0  0  0  0  0  0  0  0  0  0  0  0
  -21.2590   -3.9660   26.2620 F   0  0  0  0  0  0  0  0  0  0  0  0
  -22.7680  -13.4580   21.1350 C   0  0  0  0  0  0  0  0  0  0  0  0
  -22.1040  -12.7520   22.0430 N   0  0  0  0  0  0  0  0  0  0  0  0
  -22.2820  -14.4750   20.6420 O   0  0  0  0  0  0  0  0  0  0  0  0
  -22.5100  -11.9280   22.4630 H   0  0  0  0  0  0  0  0  0  0  0  0
  -21.1770  -13.0400   22.3240 H   0  0  0  0  0  0  0  0  0  0  0  0
  -25.3170  -15.1660   20.1580 N   0  0  0  0  0  0  0  0  0  0  0  0
  -24.5430  -15.8070   20.2960 H   0  0  0  0  0  0  0  0  0  0  0  0
  -26.1450  -15.6160   19.7890 H   0  0  0  0  0  0  0  0  0  0  0  0
  -28.1520  -25.4120   19.3630 C   0  0  0  0  0  2  0  0  0  0  0  0
  -28.2770  -26.6820   20.0430 O   0  0  0  0  0  0  0  0  0  0  0  0
  -24.5680  -31.8830   23.2850 C   0  0  0  0  0  0  0  0  0  0  0  0
  -27.1280  -27.4720   20.0440 C   0  0  0  0  0  0  0  0  0  0  0  0
  -23.3340  -30.5430   21.6190 C   0  0  0  0  0  3  0  0  0  0  0  0
  -24.7560  -29.0410   20.1360 C   0  0  0  0  0  0  0  0  0  0  0  0
  -25.8700  -30.8630   21.4180 C   0  0  0  0  0  2  0  0  0  0  0  0
  -25.9310  -29.5110   20.7350 C   0  0  0  0  0  0  0  0  0  0  0  0
  -27.1170  -28.7310   20.6950 C   0  0  0  0  0  3  0  0  0  0  0  0
  -25.9230  -27.0470   19.4200 C   0  0  0  0  0  3  0  0  0  0  0  0
  -24.7490  -27.8070   19.4780 C   0  0  0  0  0  3  0  0  0  0  0  0
  -23.5260  -29.9120   20.2170 C   0  0  0  0  0  2  0  0  0  0  0  0
  -24.6100  -31.1090   22.1640 N   0  0  0  0  0  0  0  0  0  0  0  0
  -23.4920  -32.1530   23.8380 O   0  0  0  0  0  0  0  0  0  0  0  0
  -22.6790  -29.4970   22.5510 C   0  0  0  0  0  0  0  0  0  0  0  0
  -21.3570  -29.3100   22.4070 N   0  0  0  0  0  0  0  0  0  0  0  0
  -23.3570  -28.8600   23.3610 O   0  0  0  0  0  0  0  0  0  0  0  0
  -20.8710  -29.8780   21.7260 H   0  0  0  0  0  0  0  0  0  0  0  0
  -17.9860  -28.0770   22.8350 C   0  0  0  0  0  0  0  0  0  0  0  0
  -20.5360  -28.3570   23.1530 C   0  0  0  0  0  3  0  0  0  0  0  0
  -20.6630  -26.9320   22.5660 C   0  0  0  0  0  2  0  0  0  0  0  0
  -19.5830  -26.6080   21.5290 C   0  0  0  0  0  2  0  0  0  0  0  0
  -18.1870  -26.7340   22.1500 C   0  0  0  0  0  2  0  0  0  0  0  0
  -19.0890  -28.8450   23.2910 C   0  0  0  0  0  0  0  0  0  0  0  0
  -18.8470  -30.1010   23.8890 C   0  0  0  0  0  3  0  0  0  0  0  0
  -17.5350  -30.5890   24.0340 C   0  0  0  0  0  3  0  0  0  0  0  0
  -16.4470  -29.8170   23.5940 C   0  0  0  0  0  3  0  0  0  0  0  0
  -16.6720  -28.5620   23.0000 C   0  0  0  0  0  3  0  0  0  0  0  0
  -25.8640  -32.4830   23.9090 C   0  0  0  0  0  3  0  0  0  0  0  0
  -26.3660  -31.6900   25.1770 C   0  0  1  0  0  0  0  0  0  0  0  0
  -25.2670  -31.4560   26.2400 C   0  0  0  0  0  1  0  0  0  0  0  0
  -26.9310  -30.3090   24.7710 C   0  0  0  0  0  1  0  0  0  0  0  0
  -27.5270  -32.4610   25.8500 C   0  0  0  0  0  1  0  0  0  0  0  0
  -25.5830  -33.8840   24.2490 N   0  0  0  0  0  0  0  0  0  0  0  0
  -25.9150  -34.9330   23.4850 C   0  0  0  0  0  0  0  0  0  0  0  0
  -26.5660  -34.8220   22.4430 O   0  0  0  0  0  0  0  0  0  0  0  0
  -25.0040  -34.0440   25.0610 H   0  0  0  0  0  0  0  0  0  0  0  0
  -24.1970  -36.7430   23.1760 C   0  0  0  0  0  1  0  0  0  0  0  0
  -25.4550  -36.3270   23.9540 C   0  0  0  0  0  3  0  0  0  0  0  0
  -27.6160  -37.1930   24.7340 C   0  0  0  0  0  1  0  0  0  0  0  0
  -26.4950  -37.3680   23.8140 N   0  0  0  0  0  0  0  0  0  0  0  0
  -26.1010  -38.2930   23.9670 H   0  0  0  0  0  0  0  0  0  0  0  0
  1  7  1  0
  2  5  1  0
  3  1  1  0
  3  9  1  0
  4  2  2  0
  4  6  1  0
  5 11  1  0
  5  1  2  0
  6  3  2  0
  8  2  1  0
 10  4  1  0
 13 16  1  0
 14 17  1  0
 14 12  1  0
 15 17  1  0
 15 13  1  0
 16 11  1  0
 16 12  1  0
 17 26  1  0
 18 26  1  0
 19 24  1  0
 20 21  1  0
 20 19  1  0
 22 21  1  0
 22 31  1  0
 22 23  1  0
 24 18  1  0
 24 23  1  0
 25 18  2  0
 26 27  1  0
 28 29  2  0
 29 48  1  0
 30 29  1  0
 30 33  1  0
 31 32  1  0
 31 28  1  0
 32 30  2  0
 33 34  1  0
 34 35  2  0
 36 39  1  0
 36 35  1  0
 37 36  2  0
 38 37  1  0
 38 33  2  0
 39 40  1  0
 40 45  2  0
 40 41  1  0
 41 42  2  0
 42 43  1  0
 43 47  1  0
 44 43  2  0
 45 44  1  0
 46 45  1  0
 48 49  1  0
 49 52  1  0
 49 51  1  0
 50 48  2  0
 53 54  1  0
 53 28  1  0
 55 53  1  0
 56  6  1  0
 56 57  1  0
 57 59  1  0
 58 69  2  0
 59 64  1  0
 60 68  1  0
 60 70  1  0
 61 67  1  0
 61 63  1  0
 62 68  1  0
 63 62  1  0
 64 63  2  0
 65 66  1  0
 65 59  2  0
 66 61  2  0
 67 60  1  0
 68 58  1  0
 70 72  2  0
 71 70  1  0
 73 71  1  0
 74 83  2  0
 74 79  1  0
 75 71  1  0
 75 79  1  0
 76 75  1  0
 77 78  1  0
 77 76  1  0
 78 74  1  0
 79 80  2  0
 80 81  1  0
 82 81  2  0
 83 82  1  0
 84 58  1  0
 84 89  1  0
 84 85  1  0
 85 88  1  1
 85 86  1  0
 87 85  1  0
 89 92  1  0
 90 94  1  0
 90 89  1  0
 91 90  2  0
 94 93  1  0
 96 94  1  0
 96 97  1  0
 96 95  1  0
M  ISO  4  18 100  26 100  56 101  57 101
M  END
>  <TORSDO>  (17) 
F 19

>  <SCORE>  (17) 
-12.802

>  <name>  (17) 
16

>  <ligand_id>  (17) 
16

>  <original_smiles>  (17) 
[H]c1c([H])c([H])c2c(c1[H])C([H])([H])C([H])([H])C([H])([H])C2([H])N([H])C(=O)C1([H])N(C(=O)C([H])(N([H])C(=O)C([H])(N([H])C([H])([H])[H])C([H])([H])[H])C(C([H])([H])[H])(C([H])([H])[H])C([H])([H])[H])C([H])([H])c2c([H])c(OC([H])([H])c3c(C([H])([H])[H])c(C([H])([H])[H])c(C([H])([H])C4([H])C([H])([H])C([H])([H])C([H])(N([H])C(=O)N5C([H])([H])C([H])([H])C([H])([H])C([H])(n6nc(-c7c([H])c([H])c(Oc8c([H])c([H])c(F)c([H])c8F)c([H])c7[H])c(C(=O)N([H])[H])c6N([H])[H])C5([H])[H])C([H])([H])C4([H])[H])c(C([H])([H])[H])c3C([H])([H])[H])c([H])c([H])c2C1([H])[H]

>  <smiles>  (17) 
[H]c1c([H])c([H])c2c(c1[H])C([H])([H])C([H])([H])C([H])([H])C2([H])N([H])C(=O)C1([H])N(C(=O)C([H])(N([H])C(=O)C([H])(N([H])C([H])([H])[H])C([H])([H])[H])C(C([H])([H])[H])(C([H])([H])[H])C([H])([H])[H])C([H])([H])c2c([H])c(OC([H])([H])c3c(C([H])([H])[H])c(C([H])([H])[H])c(C([H])([H])C4([H])C([H])([H])C([H])([H])C([H])(N([H])C(=O)N5C([H])([H])C([H])([H])C([H])([H])C([H])(n6nc(-c7c([H])c([H])c(Oc8c([H])c([H])c(F)c([H])c8F)c([H])c7[H])c(C(=O)N([H])[H])c6N([H])[H])C5([H])[H])C([H])([H])C4([H])[H])c(C([H])([H])[H])c3C([H])([H])[H])c([H])c([H])c2C1([H])[H]

$$$$
17:0:0
     RDKit          3D

104114  0  0  1  0  0  0  0  0999 V2000
  -32.7230  -21.2770   20.5330 C   0  0  0  0  0  3  0  0  0  0  0  0
  -30.3750  -21.8620   20.3000 C   0  0  0  0  0  3  0  0  0  0  0  0
  -31.7330  -22.1560   20.0710 C   0  0  0  0  0  0  0  0  0  0  0  0
  -32.3690  -20.0950   21.2080 C   0  0  0  0  0  0  0  0  0  0  0  0
  -29.9870  -20.6950   20.9860 C   0  0  0  0  0  0  0  0  0  0  0  0
  -30.9930  -19.7910   21.4270 C   0  0  0  0  0  0  0  0  0  0  0  0
  -33.5120  -19.1900   21.6490 C   0  0  0  0  0  1  0  0  0  0  0  0
  -31.3880  -23.5080   17.9770 C   0  0  0  0  0  2  0  0  0  0  0  0
  -31.8730  -24.6530   20.2290 C   0  0  0  0  0  2  0  0  0  0  0  0
  -31.5840  -24.8730   17.3120 C   0  0  0  0  0  2  0  0  0  0  0  0
  -32.0210  -25.9660   19.4600 C   0  0  0  0  0  2  0  0  0  0  0  0
  -32.1250  -23.4200   19.3340 C   0  0  0  0  0  3  0  0  0  0  0  0
  -31.1480  -25.9230   18.2620 N   0  0  1  0  0  4  0  0  0  0  0  0
  -30.2440  -25.6110   18.5930 H   0  0  0  0  0  0  0  0  0  0  0  0
  -32.0200  -28.1650   17.4780 C   0  0  0  0  0  1  0  0  0  0  0  0
  -30.8080  -27.2230   17.6470 C   0  0  0  0  0  3  0  0  0  0  0  0
  -29.6740  -27.8520   18.4650 C   0  0  0  0  0  2  0  0  0  0  0  0
  -28.6490  -26.8810   18.7690 O   0  0  0  0  0  0  0  0  0  0  0  0
  -24.8150  -31.3440   22.7920 C   0  0  0  0  0  0  0  0  0  0  0  0
  -27.4310  -27.4470   19.0730 C   0  0  0  0  0  0  0  0  0  0  0  0
  -23.5450  -30.0980   21.0620 C   0  0  0  0  0  3  0  0  0  0  0  0
  -24.9590  -28.7670   19.4080 C   0  0  0  0  0  0  0  0  0  0  0  0
  -26.0290  -30.5800   20.7640 C   0  0  0  0  0  2  0  0  0  0  0  0
  -26.1160  -29.2830   19.9970 C   0  0  0  0  0  0  0  0  0  0  0  0
  -27.3390  -28.6150   19.8620 C   0  0  0  0  0  3  0  0  0  0  0  0
  -26.2530  -26.9000   18.5210 C   0  0  0  0  0  3  0  0  0  0  0  0
  -25.0130  -27.5580   18.6840 C   0  0  0  0  0  3  0  0  0  0  0  0
  -23.6930  -29.5690   19.6060 C   0  0  0  0  0  2  0  0  0  0  0  0
  -24.8170  -30.6820   21.6000 N   0  0  0  0  0  0  0  0  0  0  0  0
  -23.7620  -31.5200   23.4200 O   0  0  0  0  0  0  0  0  0  0  0  0
  -22.9810  -28.9590   21.9350 C   0  0  0  0  0  0  0  0  0  0  0  0
  -21.6510  -28.7790   21.8860 N   0  0  0  0  0  0  0  0  0  0  0  0
  -23.7290  -28.2430   22.6080 O   0  0  0  0  0  0  0  0  0  0  0  0
  -21.1080  -29.4110   21.3150 H   0  0  0  0  0  0  0  0  0  0  0  0
  -18.3260  -27.5160   22.4950 C   0  0  0  0  0  0  0  0  0  0  0  0
  -20.8980  -27.7420   22.5910 C   0  0  0  0  0  3  0  0  0  0  0  0
  -20.9450  -26.4030   21.8210 C   0  0  0  0  0  2  0  0  0  0  0  0
  -19.7620  -26.2130   20.8660 C   0  0  0  0  0  2  0  0  0  0  0  0
  -18.4370  -26.2690   21.6330 C   0  0  0  0  0  2  0  0  0  0  0  0
  -19.4820  -28.2160   22.9300 C   0  0  0  0  0  0  0  0  0  0  0  0
  -19.3220  -29.3920   23.6970 C   0  0  0  0  0  3  0  0  0  0  0  0
  -18.0390  -29.8630   24.0320 C   0  0  0  0  0  3  0  0  0  0  0  0
  -16.8980  -29.1570   23.6120 C   0  0  0  0  0  3  0  0  0  0  0  0
  -17.0450  -27.9840   22.8500 C   0  0  0  0  0  3  0  0  0  0  0  0
  -26.1230  -31.9340   23.4090 C   0  0  0  0  0  3  0  0  0  0  0  0
  -25.7940  -33.2520   23.9640 N   0  0  0  0  0  0  0  0  0  0  0  0
  -26.0310  -34.4170   23.3450 C   0  0  0  0  0  0  0  0  0  0  0  0
  -26.6270  -34.4940   22.2670 O   0  0  0  0  0  0  0  0  0  0  0  0
  -25.2560  -33.2630   24.8180 H   0  0  0  0  0  0  0  0  0  0  0  0
  -24.2090  -36.1500   23.3810 C   0  0  0  0  0  1  0  0  0  0  0  0
  -25.5260  -35.7000   24.0320 C   0  0  0  0  0  3  0  0  0  0  0  0
  -27.6850  -36.5660   24.8190 C   0  0  0  0  0  1  0  0  0  0  0  0
  -26.5030  -36.8110   23.9980 N   0  0  0  0  0  0  0  0  0  0  0  0
  -26.0720  -37.6750   24.3160 H   0  0  0  0  0  0  0  0  0  0  0  0
  -26.7650  -31.0060   24.5110 C   0  0  1  0  0  0  0  0  0  0  0  0
  -25.7690  -30.5600   25.6060 C   0  0  0  0  0  1  0  0  0  0  0  0
  -27.3590  -29.7310   23.8670 C   0  0  0  0  0  1  0  0  0  0  0  0
  -27.9370  -31.7400   25.2030 C   0  0  0  0  0  1  0  0  0  0  0  0
  -31.0540  -16.6520   23.2860 C   0  0  0  0  0  2  0  0  0  0  0  0
  -31.0410  -18.1830   23.3060 C   0  0  0  0  0  2  0  0  0  0  0  0
  -30.5440  -17.4430   21.0790 C   0  0  0  0  0  2  0  0  0  0  0  0
  -31.2760  -16.3160   21.8090 C   0  0  0  0  0  3  0  0  0  0  0  0
  -30.5750  -18.5730   21.9830 N   0  0  0  0  0  0  0  0  0  0  0  0
  -30.9010  -14.4890   20.2140 C   0  0  0  0  0  0  0  0  0  0  0  0
  -30.4310  -12.4740   18.8850 C   0  0  0  0  0  2  0  0  0  0  0  0
  -29.4150  -12.7290   17.7630 C   0  0  0  0  0  2  0  0  0  0  0  0
  -27.9770  -12.5640   18.2870 C   0  0  0  0  0  2  0  0  0  0  0  0
  -27.7230  -13.3820   19.5790 C   0  0  0  0  0  3  0  0  0  0  0  0
  -28.8340  -13.1230   20.6200 C   0  0  0  0  0  2  0  0  0  0  0  0
  -30.1470  -13.3890   19.9980 N   0  0  0  0  0  0  0  0  0  0  0  0
  -31.7680  -14.8990   19.4350 O   0  0  0  0  0  0  0  0  0  0  0  0
  -30.7080  -15.0430   21.4150 N   0  0  0  0  0  0  0  0  0  0  0  0
  -30.0360  -14.6060   22.0260 H   0  0  0  0  0  0  0  0  0  0  0  0
  -25.3750  -13.9790   20.4630 C   0  0  0  0  0  0  0  0  0  0  0  0
  -24.3290  -13.1970   20.8760 C   0  0  0  0  0  0  0  0  0  0  0  0
  -24.7770  -11.8450   20.7610 C   0  0  0  0  0  0  0  0  0  0  0  0
  -26.3980  -13.1010   20.1320 N   0  0  0  0  0  0  0  0  0  0  0  0
  -26.0420  -11.8120   20.3620 N   0  0  0  0  0  0  0  0  0  0  0  0
  -24.0580  -10.5800   20.9520 C   0  0  0  0  0  0  0  0  0  0  0  0
  -24.4990   -9.6130   21.8830 C   0  0  0  0  0  3  0  0  0  0  0  0
  -23.7800   -8.4110   22.0590 C   0  0  0  0  0  3  0  0  0  0  0  0
  -22.6080   -8.1680   21.3070 C   0  0  0  0  0  0  0  0  0  0  0  0
  -22.1860   -9.1240   20.3670 C   0  0  0  0  0  3  0  0  0  0  0  0
  -22.9050  -10.3180   20.1870 C   0  0  0  0  0  3  0  0  0  0  0  0
  -21.8590   -7.0180   21.3950 O   0  0  0  0  0  0  0  0  0  0  0  0
  -21.7610   -6.3110   22.5670 C   0  0  0  0  0  0  0  0  0  0  0  0
  -21.2810   -6.9050   23.7560 C   0  0  0  0  0  3  0  0  0  0  0  0
  -21.1290   -6.1240   24.9200 C   0  0  0  0  0  3  0  0  0  0  0  0
  -21.4450   -4.7530   24.8960 C   0  0  0  0  0  0  0  0  0  0  0  0
  -21.9160   -4.1590   23.7120 C   0  0  0  0  0  3  0  0  0  0  0  0
  -22.0700   -4.9360   22.5500 C   0  0  0  0  0  0  0  0  0  0  0  0
  -22.5040   -4.3540   21.4060 F   0  0  0  0  0  0  0  0  0  0  0  0
  -21.2910   -4.0020   26.0110 F   0  0  0  0  0  0  0  0  0  0  0  0
  -22.9560  -13.6680   21.2620 C   0  0  0  0  0  0  0  0  0  0  0  0
  -22.2950  -12.9540   22.1670 N   0  0  0  0  0  0  0  0  0  0  0  0
  -22.4810  -14.7030   20.7980 O   0  0  0  0  0  0  0  0  0  0  0  0
  -22.6920  -12.1120   22.5600 H   0  0  0  0  0  0  0  0  0  0  0  0
  -21.3780  -13.2490   22.4690 H   0  0  0  0  0  0  0  0  0  0  0  0
  -25.5370  -15.3540   20.3270 N   0  0  0  0  0  0  0  0  0  0  0  0
  -24.7890  -16.0110   20.5200 H   0  0  0  0  0  0  0  0  0  0  0  0
  -26.3720  -15.8000   19.9680 H   0  0  0  0  0  0  0  0  0  0  0  0
  -27.9230  -19.6210   19.9960 C   0  0  0  0  0  1  0  0  0  0  0  0
  -27.6600  -21.6900   21.4440 C   0  0  0  0  0  1  0  0  0  0  0  0
  -28.4870  -20.4160   21.1830 C   0  0  0  0  0  3  0  0  0  0  0  0
  1  4  1  0
  2  5  2  0
  3  2  1  0
  3  1  2  0
  4  6  2  0
  4  7  1  0
  5104  1  0
  5  6  1  0
  6 63  1  0
  8 12  1  0
 10  8  1  0
 10 13  1  0
 11  9  1  0
 12  3  1  0
 12  9  1  0
 13 14  1  1
 13 11  1  0
 16 15  1  0
 16 13  1  0
 16 17  1  0
 17 18  1  0
 18 20  1  0
 19 30  2  0
 20 25  1  0
 21 29  1  0
 21 31  1  0
 22 28  1  0
 22 24  1  0
 23 29  1  0
 24 23  1  0
 25 24  2  0
 26 27  1  0
 26 20  2  0
 27 22  2  0
 28 21  1  0
 29 19  1  0
 31 33  2  0
 32 31  1  0
 34 32  1  0
 35 44  2  0
 35 40  1  0
 36 32  1  0
 36 40  1  0
 37 36  1  0
 38 39  1  0
 38 37  1  0
 39 35  1  0
 40 41  2  0
 41 42  1  0
 43 42  2  0
 44 43  1  0
 45 19  1  0
 45 46  1  0
 45 55  1  0
 46 49  1  0
 47 46  1  0
 47 51  1  0
 48 47  2  0
 51 50  1  0
 53 51  1  0
 53 54  1  0
 53 52  1  0
 55 58  1  1
 55 56  1  0
 57 55  1  0
 59 60  1  0
 61 62  1  0
 61 63  1  0
 62 72  1  0
 62 59  1  0
 63 60  1  0
 64 72  1  0
 65 70  1  0
 66 67  1  0
 66 65  1  0
 68 67  1  0
 68 77  1  0
 68 69  1  0
 70 64  1  0
 70 69  1  0
 71 64  2  0
 72 73  1  0
 74 75  2  0
 75 94  1  0
 76 75  1  0
 76 79  1  0
 77 78  1  0
 77 74  1  0
 78 76  2  0
 79 80  1  0
 80 81  2  0
 82 85  1  0
 82 81  1  0
 83 82  2  0
 84 83  1  0
 84 79  2  0
 85 86  1  0
 86 87  1  0
 87 88  2  0
 89 88  1  0
 89 93  1  0
 90 89  2  0
 91 86  2  0
 91 90  1  0
 92 91  1  0
 94 95  1  0
 95 98  1  0
 95 97  1  0
 96 94  2  0
 99 74  1  0
 99100  1  0
101 99  1  0
102104  1  0
104103  1  0
M  ISO  4  17 101  18 101  64 100  72 100
M  END
>  <TORSDO>  (18) 
F 21

>  <SCORE>  (18) 
-10.020

>  <name>  (18) 
17

>  <ligand_id>  (18) 
17

>  <original_smiles>  (18) 
[H]c1c([H])c([H])c2c(c1[H])C([H])([H])C([H])([H])C([H])([H])C2([H])N([H])C(=O)C1([H])N(C(=O)C([H])(N([H])C(=O)C([H])(N([H])C([H])([H])[H])C([H])([H])[H])C(C([H])([H])[H])(C([H])([H])[H])C([H])([H])[H])C([H])([H])c2c([H])c(OC([H])([H])C([H])(C([H])([H])[H])[N+]3([H])C([H])([H])C([H])([H])C([H])(c4c([H])c(C([H])([H])[H])c(N5C([H])([H])C([H])([H])C([H])(N([H])C(=O)N6C([H])([H])C([H])([H])C([H])([H])C([H])(n7nc(-c8c([H])c([H])c(Oc9c([H])c([H])c(F)c([H])c9F)c([H])c8[H])c(C(=O)N([H])[H])c7N([H])[H])C6([H])[H])C5([H])[H])c(C([H])(C([H])([H])[H])C([H])([H])[H])c4[H])C([H])([H])C3([H])[H])c([H])c([H])c2C1([H])[H]

>  <smiles>  (18) 
[H]c1c([H])c([H])c2c(c1[H])C([H])([H])C([H])([H])C([H])([H])C2([H])N([H])C(=O)C1([H])N(C(=O)C([H])(N([H])C(=O)C([H])(N([H])C([H])([H])[H])C([H])([H])[H])C(C([H])([H])[H])(C([H])([H])[H])C([H])([H])[H])C([H])([H])c2c([H])c(OC([H])([H])C([H])(C([H])([H])[H])[N+]3([H])C([H])([H])C([H])([H])C([H])(c4c([H])c(C([H])([H])[H])c(N5C([H])([H])C([H])([H])C([H])(N([H])C(=O)N6C([H])([H])C([H])([H])C([H])([H])C([H])(n7nc(-c8c([H])c([H])c(Oc9c([H])c([H])c(F)c([H])c9F)c([H])c8[H])c(C(=O)N([H])[H])c7N([H])[H])C6([H])[H])C5([H])[H])c(C([H])(C([H])([H])[H])C([H])([H])[H])c4[H])C([H])([H])C3([H])[H])c([H])c([H])c2C1([H])[H]

$$$$
18:0:0
     RDKit          3D

 97107  0  0  1  0  0  0  0  0999 V2000
  -28.6830  -22.1040   18.7410 C   0  0  0  0  0  3  0  0  0  0  0  0
  -29.4470  -21.3200   20.6740 C   0  0  0  0  0  3  0  0  0  0  0  0
  -29.1930  -22.5190   20.0040 C   0  0  0  0  0  0  0  0  0  0  0  0
  -28.6190  -20.7400   18.6750 C   0  0  0  0  0  0  0  0  0  0  0  0
  -29.1380  -20.2100   19.8590 N   0  0  0  0  0  0  0  0  0  0  0  0
  -30.8730  -14.6170   20.3620 C   0  0  0  0  0  0  0  0  0  0  0  0
  -30.5930  -12.3850   19.2970 C   0  0  0  0  0  2  0  0  0  0  0  0
  -29.6340  -12.5140   18.0950 C   0  0  0  0  0  2  0  0  0  0  0  0
  -28.1810  -12.3290   18.5650 C   0  0  0  0  0  2  0  0  0  0  0  0
  -27.8350  -13.1970   19.8060 C   0  0  0  0  0  3  0  0  0  0  0  0
  -28.9190  -13.0930   20.9010 C   0  0  0  0  0  2  0  0  0  0  0  0
  -30.2050  -13.4220   20.2770 N   0  0  0  0  0  0  0  0  0  0  0  0
  -32.0550  -14.6890   20.0120 O   0  0  0  0  0  0  0  0  0  0  0  0
  -29.6410  -18.1090   21.4530 C   0  0  0  0  0  2  0  0  0  0  0  0
  -30.2620  -18.0530   19.1300 C   0  0  0  0  0  2  0  0  0  0  0  0
  -29.5430  -16.5190   21.4770 C   0  0  0  0  0  2  0  0  0  0  0  0
  -30.0610  -16.5200   19.0330 C   0  0  0  0  0  2  0  0  0  0  0  0
  -29.2520  -18.7170   20.0810 C   0  0  0  0  0  3  0  0  0  0  0  0
  -30.1100  -15.7690   20.3100 N   0  0  0  0  0  0  0  0  0  0  0  0
  -25.4650  -13.7660   20.6110 C   0  0  0  0  0  0  0  0  0  0  0  0
  -24.4100  -12.9800   20.9790 C   0  0  0  0  0  0  0  0  0  0  0  0
  -24.8700  -11.6310   20.8890 C   0  0  0  0  0  0  0  0  0  0  0  0
  -26.5030  -12.8980   20.3170 N   0  0  0  0  0  0  0  0  0  0  0  0
  -26.1510  -11.6050   20.5420 N   0  0  0  0  0  0  0  0  0  0  0  0
  -24.1470  -10.3630   21.0540 C   0  0  0  0  0  0  0  0  0  0  0  0
  -24.5570   -9.3940   21.9970 C   0  0  0  0  0  3  0  0  0  0  0  0
  -23.8330   -8.1910   22.1510 C   0  0  0  0  0  3  0  0  0  0  0  0
  -22.6830   -7.9490   21.3610 C   0  0  0  0  0  0  0  0  0  0  0  0
  -22.2930   -8.9070   20.4080 C   0  0  0  0  0  3  0  0  0  0  0  0
  -23.0180  -10.0990   20.2520 C   0  0  0  0  0  3  0  0  0  0  0  0
  -21.9330   -6.7990   21.4250 O   0  0  0  0  0  0  0  0  0  0  0  0
  -21.7840   -6.1000   22.5940 C   0  0  0  0  0  0  0  0  0  0  0  0
  -21.1960   -6.6790   23.7400 C   0  0  0  0  0  3  0  0  0  0  0  0
  -21.0020   -5.9050   24.9010 C   0  0  0  0  0  3  0  0  0  0  0  0
  -21.3810   -4.5490   24.9150 C   0  0  0  0  0  0  0  0  0  0  0  0
  -21.9600   -3.9680   23.7740 C   0  0  0  0  0  3  0  0  0  0  0  0
  -22.1570   -4.7410   22.6150 C   0  0  0  0  0  0  0  0  0  0  0  0
  -22.6970   -4.1690   21.5110 F   0  0  0  0  0  0  0  0  0  0  0  0
  -21.1870   -3.8040   26.0280 F   0  0  0  0  0  0  0  0  0  0  0  0
  -23.0210  -13.4430   21.3110 C   0  0  0  0  0  0  0  0  0  0  0  0
  -22.3240  -12.7190   22.1800 N   0  0  0  0  0  0  0  0  0  0  0  0
  -22.5650  -14.4850   20.8370 O   0  0  0  0  0  0  0  0  0  0  0  0
  -22.7110  -11.8740   22.5760 H   0  0  0  0  0  0  0  0  0  0  0  0
  -21.3950  -13.0070   22.4510 H   0  0  0  0  0  0  0  0  0  0  0  0
  -25.6250  -15.1430   20.4810 N   0  0  0  0  0  0  0  0  0  0  0  0
  -24.8650  -15.7920   20.6430 H   0  0  0  0  0  0  0  0  0  0  0  0
  -26.4730  -15.5900   20.1540 H   0  0  0  0  0  0  0  0  0  0  0  0
  -28.9280  -19.6460   16.3150 C   0  0  0  0  0  2  0  0  0  0  0  0
  -27.6420  -20.4300   16.2350 C   0  0  0  0  0  2  0  0  0  0  0  0
  -28.1010  -19.8710   17.5610 C   0  0  0  0  0  3  0  0  0  0  0  0
  -29.4130  -24.0120   20.4380 C   0  0  0  0  0  3  0  0  0  0  0  0
  -30.8380  -24.3510   20.2370 N   0  0  0  0  0  4  0  0  0  0  0  0
  -31.3910  -23.8890   20.9360 H   0  0  0  0  0  0  0  0  0  0  0  0
  -31.0010  -25.3420   20.3140 H   0  0  0  0  0  0  0  0  0  0  0  0
  -31.1560  -24.0460   19.3350 H   0  0  0  0  0  0  0  0  0  0  0  0
  -28.4610  -25.0910   19.7580 C   0  0  0  0  0  2  0  0  0  0  0  0
  -28.4890  -26.4830   20.2570 O   0  0  0  0  0  0  0  0  0  0  0  0
  -24.6460  -31.8200   23.2220 C   0  0  0  0  0  0  0  0  0  0  0  0
  -27.3400  -27.2880   20.1810 C   0  0  0  0  0  0  0  0  0  0  0  0
  -23.4710  -30.4150   21.5650 C   0  0  0  0  0  3  0  0  0  0  0  0
  -24.9490  -28.8660   20.1650 C   0  0  0  0  0  0  0  0  0  0  0  0
  -26.0130  -30.7450   21.4210 C   0  0  0  0  0  2  0  0  0  0  0  0
  -26.1070  -29.3680   20.7740 C   0  0  0  0  0  0  0  0  0  0  0  0
  -27.2990  -28.5840   20.7830 C   0  0  0  0  0  3  0  0  0  0  0  0
  -26.1630  -26.8510   19.5260 C   0  0  0  0  0  3  0  0  0  0  0  0
  -24.9780  -27.6100   19.5410 C   0  0  0  0  0  3  0  0  0  0  0  0
  -23.7060  -29.7340   20.1910 C   0  0  0  0  0  2  0  0  0  0  0  0
  -24.7270  -31.0080   22.1270 N   0  0  0  0  0  0  0  0  0  0  0  0
  -23.5540  -32.1000   23.7360 O   0  0  0  0  0  0  0  0  0  0  0  0
  -22.7940  -29.3990   22.5170 C   0  0  0  0  0  0  0  0  0  0  0  0
  -21.4670  -29.2440   22.3890 N   0  0  0  0  0  0  0  0  0  0  0  0
  -23.4650  -28.7570   23.3300 O   0  0  0  0  0  0  0  0  0  0  0  0
  -20.9860  -29.8140   21.7060 H   0  0  0  0  0  0  0  0  0  0  0  0
  -18.0640  -28.1250   22.9050 C   0  0  0  0  0  0  0  0  0  0  0  0
  -20.6340  -28.3110   23.1500 C   0  0  0  0  0  3  0  0  0  0  0  0
  -20.6880  -26.8900   22.5400 C   0  0  0  0  0  2  0  0  0  0  0  0
  -19.5630  -26.6170   21.5350 C   0  0  0  0  0  2  0  0  0  0  0  0
  -18.1950  -26.7850   22.2010 C   0  0  0  0  0  2  0  0  0  0  0  0
  -19.2100  -28.8470   23.3380 C   0  0  0  0  0  0  0  0  0  0  0  0
  -19.0300  -30.1010   23.9570 C   0  0  0  0  0  3  0  0  0  0  0  0
  -17.7430  -30.6360   24.1490 C   0  0  0  0  0  3  0  0  0  0  0  0
  -16.6130  -29.9080   23.7360 C   0  0  0  0  0  3  0  0  0  0  0  0
  -16.7760  -28.6540   23.1190 C   0  0  0  0  0  3  0  0  0  0  0  0
  -25.9180  -32.4520   23.8650 C   0  0  0  0  0  3  0  0  0  0  0  0
  -26.4210  -31.6740   25.1430 C   0  0  1  0  0  0  0  0  0  0  0  0
  -25.3160  -31.4200   26.1940 C   0  0  0  0  0  1  0  0  0  0  0  0
  -27.0230  -30.3050   24.7500 C   0  0  0  0  0  1  0  0  0  0  0  0
  -27.5560  -32.4710   25.8270 C   0  0  0  0  0  1  0  0  0  0  0  0
  -25.5990  -33.8450   24.2010 N   0  0  0  0  0  0  0  0  0  0  0  0
  -25.9100  -34.9030   23.4390 C   0  0  0  0  0  0  0  0  0  0  0  0
  -26.5690  -34.8060   22.4000 O   0  0  0  0  0  0  0  0  0  0  0  0
  -25.0170  -33.9950   25.0120 H   0  0  0  0  0  0  0  0  0  0  0  0
  -24.1610  -36.6750   23.1090 C   0  0  0  0  0  1  0  0  0  0  0  0
  -25.4140  -36.2830   23.9050 C   0  0  0  0  0  3  0  0  0  0  0  0
  -27.5440  -37.2000   24.7140 C   0  0  0  0  0  1  0  0  0  0  0  0
  -26.4340  -37.3460   23.7780 N   0  0  0  0  0  0  0  0  0  0  0  0
  -26.0180  -38.2640   23.9130 H   0  0  0  0  0  0  0  0  0  0  0  0
  1  3  1  0
  3 51  1  0
  3  2  2  0
  4  1  2  0
  4  5  1  0
  5 18  1  0
  5  2  1  0
  7 12  1  0
  8  9  1  0
  8  7  1  0
 10  9  1  0
 10 23  1  0
 10 11  1  0
 12  6  1  0
 12 11  1  0
 13  6  2  0
 14 16  1  0
 17 15  1  0
 17 19  1  0
 18 15  1  0
 18 14  1  0
 19  6  1  0
 19 16  1  0
 20 21  2  0
 21 40  1  0
 22 21  1  0
 22 25  1  0
 23 24  1  0
 23 20  1  0
 24 22  2  0
 25 26  1  0
 26 27  2  0
 28 31  1  0
 28 27  1  0
 29 28  2  0
 30 29  1  0
 30 25  2  0
 31 32  1  0
 32 37  2  0
 32 33  1  0
 33 34  2  0
 34 35  1  0
 35 39  1  0
 36 35  2  0
 37 36  1  0
 38 37  1  0
 40 41  1  0
 41 44  1  0
 41 43  1  0
 42 40  2  0
 45 20  1  0
 45 46  1  0
 47 45  1  0
 48 50  1  0
 49 48  1  0
 49 50  1  0
 50  4  1  0
 51 56  1  0
 52 54  1  0
 52 51  1  0
 52 53  1  0
 55 52  1  0
 56 57  1  0
 58 69  2  0
 59 57  1  0
 59 64  1  0
 60 68  1  0
 60 70  1  0
 61 67  1  0
 61 63  1  0
 62 68  1  0
 63 64  2  0
 63 62  1  0
 65 66  1  0
 65 59  2  0
 66 61  2  0
 67 60  1  0
 68 58  1  0
 70 72  2  0
 71 70  1  0
 73 71  1  0
 74 83  2  0
 74 79  1  0
 75 71  1  0
 75 79  1  0
 76 75  1  0
 77 78  1  0
 77 76  1  0
 78 74  1  0
 79 80  2  0
 80 81  1  0
 82 81  2  0
 83 82  1  0
 84 58  1  0
 84 89  1  0
 84 85  1  0
 85 88  1  1
 85 86  1  0
 87 85  1  0
 89 92  1  0
 90 94  1  0
 90 89  1  0
 91 90  2  0
 94 93  1  0
 96 94  1  0
 96 97  1  0
 96 95  1  0
M  ISO  4   6 100  19 100  56 101  57 101
M  END
>  <TORSDO>  (19) 
F 20

>  <SCORE>  (19) 
-12.990

>  <name>  (19) 
18

>  <ligand_id>  (19) 
18

>  <original_smiles>  (19) 
[H]c1c([H])c([H])c2c(c1[H])C([H])([H])C([H])([H])C([H])([H])C2([H])N([H])C(=O)C1([H])N(C(=O)C([H])(N([H])C(=O)C([H])(N([H])C([H])([H])[H])C([H])([H])[H])C(C([H])([H])[H])(C([H])([H])[H])C([H])([H])[H])C([H])([H])c2c([H])c(OC([H])([H])C([H])(c3c([H])c(C4([H])C([H])([H])C4([H])[H])n(C4([H])C([H])([H])C([H])([H])N(C(=O)N5C([H])([H])C([H])([H])C([H])([H])C([H])(n6nc(-c7c([H])c([H])c(Oc8c([H])c([H])c(F)c([H])c8F)c([H])c7[H])c(C(=O)N([H])[H])c6N([H])[H])C5([H])[H])C([H])([H])C4([H])[H])c3[H])[N+]([H])([H])[H])c([H])c([H])c2C1([H])[H]

>  <smiles>  (19) 
[H]c1c([H])c([H])c2c(c1[H])C([H])([H])C([H])([H])C([H])([H])C2([H])N([H])C(=O)C1([H])N(C(=O)C([H])(N([H])C(=O)C([H])(N([H])C([H])([H])[H])C([H])([H])[H])C(C([H])([H])[H])(C([H])([H])[H])C([H])([H])[H])C([H])([H])c2c([H])c(OC([H])([H])C([H])(c3c([H])c(C4([H])C([H])([H])C4([H])[H])n(C4([H])C([H])([H])C([H])([H])N(C(=O)N5C([H])([H])C([H])([H])C([H])([H])C([H])(n6nc(-c7c([H])c([H])c(Oc8c([H])c([H])c(F)c([H])c8F)c([H])c7[H])c(C(=O)N([H])[H])c6N([H])[H])C5([H])[H])C([H])([H])C4([H])[H])c3[H])[N+]([H])([H])[H])c([H])c([H])c2C1([H])[H]

$$$$
19:0:0
     RDKit          3D

 99108  0  0  1  0  0  0  0  0999 V2000
  -30.0370  -21.7260   21.6820 C   0  0  0  0  0  2  0  0  0  0  0  0
  -27.5420  -21.4990   21.2410 C   0  0  0  0  0  2  0  0  0  0  0  0
  -29.6780  -23.2160   21.5150 C   0  0  0  0  0  2  0  0  0  0  0  0
  -27.8660  -22.3740   20.0070 C   0  0  0  0  0  2  0  0  0  0  0  0
  -28.7950  -20.8160   21.8560 C   0  0  0  0  0  3  0  0  0  0  0  0
  -28.8660  -23.4530   20.2850 N   0  0  1  0  0  4  0  0  0  0  0  0
  -29.5150  -23.3680   19.5160 H   0  0  0  0  0  0  0  0  0  0  0  0
  -28.4180  -18.7790   20.3070 C   0  0  0  0  0  3  0  0  0  0  0  0
  -29.1070  -19.3860   21.3740 C   0  0  0  0  0  3  0  0  0  0  0  0
  -28.8580  -17.5350   19.7900 C   0  0  0  0  0  0  0  0  0  0  0  0
  -30.0350  -16.9610   20.3440 C   0  0  0  0  0  3  0  0  0  0  0  0
  -30.1400  -18.6390   21.9750 C   0  0  0  0  0  0  0  0  0  0  0  0
  -30.5920  -17.4720   21.4650 N   0  0  0  0  0  0  0  0  0  0  0  0
  -31.4320  -14.9510   20.0940 C   0  0  0  0  0  0  0  0  0  0  0  0
  -31.1220  -12.7400   19.1200 C   0  0  0  0  0  2  0  0  0  0  0  0
  -30.1760  -12.9070   17.9130 C   0  0  0  0  0  2  0  0  0  0  0  0
  -28.7040  -12.7960   18.3580 C   0  0  0  0  0  2  0  0  0  0  0  0
  -28.3710  -13.6750   19.5940 C   0  0  0  0  0  3  0  0  0  0  0  0
  -29.4430  -13.5410   20.7000 C   0  0  0  0  0  2  0  0  0  0  0  0
  -30.7540  -13.7780   20.0880 N   0  0  0  0  0  0  0  0  0  0  0  0
  -32.6630  -14.9950   19.9890 O   0  0  0  0  0  0  0  0  0  0  0  0
  -31.2680  -16.5050   18.2900 C   0  0  0  0  0  1  0  0  0  0  0  0
  -30.7180  -15.9780   19.5600 N   0  0  0  0  0  0  0  0  0  0  0  0
  -26.0070  -14.3010   20.3850 C   0  0  0  0  0  0  0  0  0  0  0  0
  -24.9310  -13.5340   20.7430 C   0  0  0  0  0  0  0  0  0  0  0  0
  -25.3660  -12.1770   20.6570 C   0  0  0  0  0  0  0  0  0  0  0  0
  -27.0290  -13.4090   20.1000 N   0  0  0  0  0  0  0  0  0  0  0  0
  -26.6500  -12.1250   20.3270 N   0  0  0  0  0  0  0  0  0  0  0  0
  -24.6200  -10.9220   20.8080 C   0  0  0  0  0  0  0  0  0  0  0  0
  -24.9840   -9.9610   21.7780 C   0  0  0  0  0  3  0  0  0  0  0  0
  -24.2410   -8.7700   21.9180 C   0  0  0  0  0  3  0  0  0  0  0  0
  -23.1210   -8.5280   21.0860 C   0  0  0  0  0  0  0  0  0  0  0  0
  -22.7780   -9.4780   20.1070 C   0  0  0  0  0  3  0  0  0  0  0  0
  -23.5220  -10.6610   19.9650 C   0  0  0  0  0  3  0  0  0  0  0  0
  -22.3560   -7.3900   21.1320 O   0  0  0  0  0  0  0  0  0  0  0  0
  -22.0650   -6.7670   22.3200 C   0  0  0  0  0  0  0  0  0  0  0  0
  -21.4170   -7.4440   23.3760 C   0  0  0  0  0  3  0  0  0  0  0  0
  -21.0730   -6.7480   24.5520 C   0  0  0  0  0  3  0  0  0  0  0  0
  -21.3660   -5.3760   24.6710 C   0  0  0  0  0  0  0  0  0  0  0  0
  -22.0060   -4.6990   23.6180 C   0  0  0  0  0  3  0  0  0  0  0  0
  -22.3520   -5.3930   22.4460 C   0  0  0  0  0  0  0  0  0  0  0  0
  -22.9490   -4.7310   21.4250 F   0  0  0  0  0  0  0  0  0  0  0  0
  -21.0300   -4.7050   25.7980 F   0  0  0  0  0  0  0  0  0  0  0  0
  -23.5460  -14.0270   21.0520 C   0  0  0  0  0  0  0  0  0  0  0  0
  -22.8270  -13.3250   21.9200 N   0  0  0  0  0  0  0  0  0  0  0  0
  -23.1120  -15.0650   20.5580 O   0  0  0  0  0  0  0  0  0  0  0  0
  -23.1920  -12.4850   22.3420 H   0  0  0  0  0  0  0  0  0  0  0  0
  -21.8980  -13.6340   22.1670 H   0  0  0  0  0  0  0  0  0  0  0  0
  -26.1940  -15.6720   20.2530 N   0  0  0  0  0  0  0  0  0  0  0  0
  -25.4260  -16.3230   20.3700 H   0  0  0  0  0  0  0  0  0  0  0  0
  -27.0180  -16.0980   19.8410 H   0  0  0  0  0  0  0  0  0  0  0  0
  -27.3010  -17.6160   17.9440 C   0  0  0  0  0  1  0  0  0  0  0  0
  -28.2190  -16.8850   18.7520 O   0  0  0  0  0  0  0  0  0  0  0  0
  -31.7060  -18.2930   23.7620 C   0  0  0  0  0  1  0  0  0  0  0  0
  -30.7630  -19.1320   23.1000 O   0  0  0  0  0  0  0  0  0  0  0  0
  -28.3340  -24.8480   20.1840 C   0  0  0  0  0  2  0  0  0  0  0  0
  -29.5620  -25.4890   17.9590 C   0  0  0  0  0  1  0  0  0  0  0  0
  -29.3110  -25.8070   19.4460 C   0  0  0  0  0  3  0  0  0  0  0  0
  -29.0490  -27.2050   19.6560 O   0  0  0  0  0  0  0  0  0  0  0  0
  -24.6660  -31.5700   23.1070 C   0  0  0  0  0  0  0  0  0  0  0  0
  -27.7820  -27.7600   19.6490 C   0  0  0  0  0  0  0  0  0  0  0  0
  -23.6290  -30.2540   21.2880 C   0  0  0  0  0  3  0  0  0  0  0  0
  -25.2490  -29.0250   19.7480 C   0  0  0  0  0  0  0  0  0  0  0  0
  -26.1110  -30.8620   21.2060 C   0  0  0  0  0  2  0  0  0  0  0  0
  -26.3360  -29.5830   20.4270 C   0  0  0  0  0  0  0  0  0  0  0  0
  -27.5990  -28.9550   20.3800 C   0  0  0  0  0  3  0  0  0  0  0  0
  -26.6710  -27.2180   18.9600 C   0  0  0  0  0  3  0  0  0  0  0  0
  -25.4110  -27.8410   19.0120 C   0  0  0  0  0  3  0  0  0  0  0  0
  -23.9270  -29.7530   19.8500 C   0  0  0  0  0  2  0  0  0  0  0  0
  -24.8170  -30.9050   21.9280 N   0  0  0  0  0  0  0  0  0  0  0  0
  -23.5520  -31.6810   23.6400 O   0  0  0  0  0  0  0  0  0  0  0  0
  -23.0600  -29.0760   22.1120 C   0  0  0  0  0  0  0  0  0  0  0  0
  -21.7590  -28.7940   21.9320 N   0  0  0  0  0  0  0  0  0  0  0  0
  -23.7860  -28.4220   22.8650 O   0  0  0  0  0  0  0  0  0  0  0  0
  -21.2280  -29.3830   21.3060 H   0  0  0  0  0  0  0  0  0  0  0  0
  -18.4910  -27.2900   22.2400 C   0  0  0  0  0  0  0  0  0  0  0  0
  -21.0190  -27.7080   22.5740 C   0  0  0  0  0  3  0  0  0  0  0  0
  -21.2350  -26.3710   21.8280 C   0  0  0  0  0  2  0  0  0  0  0  0
  -20.1660  -26.0910   20.7680 C   0  0  0  0  0  2  0  0  0  0  0  0
  -18.7750  -26.0510   21.4070 C   0  0  0  0  0  2  0  0  0  0  0  0
  -19.5450  -28.0770   22.7740 C   0  0  0  0  0  0  0  0  0  0  0  0
  -19.2260  -29.2400   23.5090 C   0  0  0  0  0  3  0  0  0  0  0  0
  -17.8860  -29.6160   23.7170 C   0  0  0  0  0  3  0  0  0  0  0  0
  -16.8460  -28.8250   23.1980 C   0  0  0  0  0  3  0  0  0  0  0  0
  -17.1490  -27.6620   22.4660 C   0  0  0  0  0  3  0  0  0  0  0  0
  -25.8740  -32.2430   23.8310 C   0  0  0  0  0  3  0  0  0  0  0  0
  -25.4600  -33.5990   24.2180 N   0  0  0  0  0  0  0  0  0  0  0  0
  -25.7490  -34.7070   23.5250 C   0  0  0  0  0  0  0  0  0  0  0  0
  -26.4660  -34.7020   22.5190 O   0  0  0  0  0  0  0  0  0  0  0  0
  -24.8290  -33.6710   25.0020 H   0  0  0  0  0  0  0  0  0  0  0  0
  -23.9110  -36.3900   23.1880 C   0  0  0  0  0  1  0  0  0  0  0  0
  -25.1490  -36.0340   24.0260 C   0  0  0  0  0  3  0  0  0  0  0  0
  -27.1800  -37.0240   24.9860 C   0  0  0  0  0  1  0  0  0  0  0  0
  -26.1070  -37.1610   24.0050 N   0  0  0  0  0  0  0  0  0  0  0  0
  -25.6310  -38.0430   24.1780 H   0  0  0  0  0  0  0  0  0  0  0  0
  -26.3780  -31.4330   25.0880 C   0  0  1  0  0  0  0  0  0  0  0  0
  -25.2520  -31.0640   26.0820 C   0  0  0  0  0  1  0  0  0  0  0  0
  -27.0690  -30.1220   24.6490 C   0  0  0  0  0  1  0  0  0  0  0  0
  -27.4410  -32.2570   25.8520 C   0  0  0  0  0  1  0  0  0  0  0  0
  1  5  1  0
  3  1  1  0
  4  6  1  0
  4  2  1  0
  5  2  1  0
  6  3  1  0
  6  7  1  6
  9  8  1  0
  9  5  1  0
  9 12  1  0
 10  8  2  0
 10 11  1  0
 11 23  1  0
 11 13  1  0
 12 55  1  0
 13 12  2  0
 15 20  1  0
 16 17  1  0
 16 15  1  0
 18 17  1  0
 18 27  1  0
 18 19  1  0
 20 14  1  0
 20 19  1  0
 21 14  2  0
 22 23  1  0
 23 14  1  0
 24 25  2  0
 25 44  1  0
 26 25  1  0
 26 29  1  0
 27 28  1  0
 27 24  1  0
 28 26  2  0
 29 30  1  0
 30 31  2  0
 32 35  1  0
 32 31  1  0
 33 32  2  0
 34 33  1  0
 34 29  2  0
 35 36  1  0
 36 41  2  0
 36 37  1  0
 37 38  2  0
 38 39  1  0
 39 43  1  0
 40 39  2  0
 41 40  1  0
 42 41  1  0
 44 45  1  0
 45 48  1  0
 45 47  1  0
 46 44  2  0
 49 50  1  0
 49 24  1  0
 51 49  1  0
 52 53  1  0
 53 10  1  0
 55 54  1  0
 56  6  1  0
 58 57  1  0
 58 59  1  0
 58 56  1  0
 60 71  2  0
 61 59  1  0
 61 66  1  0
 62 70  1  0
 62 72  1  0
 63 69  1  0
 63 65  1  0
 64 70  1  0
 65 64  1  0
 66 65  2  0
 67 68  1  0
 67 61  2  0
 68 63  2  0
 69 62  1  0
 70 60  1  0
 72 74  2  0
 73 72  1  0
 75 73  1  0
 76 85  2  0
 76 81  1  0
 77 73  1  0
 77 81  1  0
 78 77  1  0
 79 80  1  0
 79 78  1  0
 80 76  1  0
 81 82  2  0
 82 83  1  0
 84 83  2  0
 85 84  1  0
 86 60  1  0
 86 87  1  0
 86 96  1  0
 87 90  1  0
 88 92  1  0
 88 87  1  0
 89 88  2  0
 92 91  1  0
 94 92  1  0
 94 95  1  0
 94 93  1  0
 96 99  1  1
 96 97  1  0
 98 96  1  0
M  ISO  4  14 100  23 100  58 101  59 101
M  END
>  <TORSDO>  (20) 
F 21

>  <SCORE>  (20) 
-8.099

>  <name>  (20) 
19

>  <ligand_id>  (20) 
19

>  <original_smiles>  (20) 
[H]c1c([H])c([H])c2c(c1[H])C([H])([H])C([H])([H])C([H])([H])C2([H])N([H])C(=O)C1([H])N(C(=O)C([H])(N([H])C(=O)C([H])(N([H])C([H])([H])[H])C([H])([H])[H])C(C([H])([H])[H])(C([H])([H])[H])C([H])([H])[H])C([H])([H])c2c([H])c(OC([H])(C([H])([H])[H])C([H])([H])[N+]3([H])C([H])([H])C([H])([H])C([H])(c4c(OC([H])([H])[H])nc(N(C(=O)N5C([H])([H])C([H])([H])C([H])([H])C([H])(n6nc(-c7c([H])c([H])c(Oc8c([H])c([H])c(F)c([H])c8F)c([H])c7[H])c(C(=O)N([H])[H])c6N([H])[H])C5([H])[H])C([H])([H])[H])c(OC([H])([H])[H])c4[H])C([H])([H])C3([H])[H])c([H])c([H])c2C1([H])[H]

>  <smiles>  (20) 
[H]c1c([H])c([H])c2c(c1[H])C([H])([H])C([H])([H])C([H])([H])C2([H])N([H])C(=O)C1([H])N(C(=O)C([H])(N([H])C(=O)C([H])(N([H])C([H])([H])[H])C([H])([H])[H])C(C([H])([H])[H])(C([H])([H])[H])C([H])([H])[H])C([H])([H])c2c([H])c(OC([H])(C([H])([H])[H])C([H])([H])[N+]3([H])C([H])([H])C([H])([H])C([H])(c4c(OC([H])([H])[H])nc(N(C(=O)N5C([H])([H])C([H])([H])C([H])([H])C([H])(n6nc(-c7c([H])c([H])c(Oc8c([H])c([H])c(F)c([H])c8F)c([H])c7[H])c(C(=O)N([H])[H])c6N([H])[H])C5([H])[H])C([H])([H])[H])c(OC([H])([H])[H])c4[H])C([H])([H])C3([H])[H])c([H])c([H])c2C1([H])[H]

$$$$
20:0:0
     RDKit          3D

 96106  0  0  1  0  0  0  0  0999 V2000
  -29.8640  -23.7900   19.7830 C   0  0  0  0  0  3  0  0  0  0  0  0
  -27.4990  -23.5640   20.1380 C   0  0  0  0  0  3  0  0  0  0  0  0
  -29.9640  -22.4290   19.3600 C   0  0  0  0  0  0  0  0  0  0  0  0
  -28.6400  -24.3830   20.1600 C   0  0  0  0  0  0  0  0  0  0  0  0
  -27.5630  -22.2040   19.7470 C   0  0  0  0  0  0  0  0  0  0  0  0
  -28.7940  -21.5970   19.3350 C   0  0  0  0  0  0  0  0  0  0  0  0
  -26.2500  -21.4320   19.7720 C   0  0  0  0  0  1  0  0  0  0  0  0
  -32.5100  -22.0300   19.8780 C   0  0  0  0  0  2  0  0  0  0  0  0
  -32.4990  -22.7910   18.5710 C   0  0  0  0  0  2  0  0  0  0  0  0
  -31.3250  -21.9090   18.9480 C   0  0  0  0  0  3  0  0  0  0  0  0
  -28.5830  -20.2500   17.2060 C   0  0  0  0  0  1  0  0  0  0  0  0
  -28.7720  -20.1400   18.7360 C   0  0  0  0  0  3  0  0  0  0  0  0
  -31.4970  -15.0070   19.9830 C   0  0  0  0  0  0  0  0  0  0  0  0
  -31.1790  -12.6970   19.1830 C   0  0  0  0  0  2  0  0  0  0  0  0
  -30.2520  -12.7270   17.9520 C   0  0  0  0  0  2  0  0  0  0  0  0
  -28.7760  -12.6500   18.3870 C   0  0  0  0  0  2  0  0  0  0  0  0
  -28.4270  -13.6540   19.5200 C   0  0  0  0  0  3  0  0  0  0  0  0
  -29.4810  -13.6240   20.6480 C   0  0  0  0  0  2  0  0  0  0  0  0
  -30.7930  -13.8400   20.0290 N   0  0  0  0  0  0  0  0  0  0  0  0
  -32.7020  -15.0050   19.7100 O   0  0  0  0  0  0  0  0  0  0  0  0
  -30.2200  -18.0120   18.1130 C   0  0  0  0  0  2  0  0  0  0  0  0
  -29.3820  -18.1860   20.4130 C   0  0  0  0  0  2  0  0  0  0  0  0
  -31.2440  -16.9650   18.5930 C   0  0  0  0  0  2  0  0  0  0  0  0
  -30.3830  -17.0600   20.8410 C   0  0  0  0  0  2  0  0  0  0  0  0
  -29.8440  -19.0530   19.2030 C   0  0  0  0  0  3  0  0  0  0  0  0
  -30.7790  -16.1540   19.7410 N   0  0  0  0  0  0  0  0  0  0  0  0
  -26.0900  -14.3740   20.3050 C   0  0  0  0  0  0  0  0  0  0  0  0
  -24.9870  -13.6570   20.6800 C   0  0  0  0  0  0  0  0  0  0  0  0
  -25.3690  -12.2810   20.6130 C   0  0  0  0  0  0  0  0  0  0  0  0
  -27.0760  -13.4400   20.0320 N   0  0  0  0  0  0  0  0  0  0  0  0
  -26.6490  -12.1750   20.2770 N   0  0  0  0  0  0  0  0  0  0  0  0
  -24.5730  -11.0600   20.7920 C   0  0  0  0  0  0  0  0  0  0  0  0
  -24.9080  -10.0950   21.7680 C   0  0  0  0  0  3  0  0  0  0  0  0
  -24.1160   -8.9380   21.9320 C   0  0  0  0  0  3  0  0  0  0  0  0
  -22.9740   -8.7380   21.1210 C   0  0  0  0  0  0  0  0  0  0  0  0
  -22.6580   -9.6900   20.1360 C   0  0  0  0  0  3  0  0  0  0  0  0
  -23.4500  -10.8380   19.9690 C   0  0  0  0  0  3  0  0  0  0  0  0
  -22.1600   -7.6340   21.1930 O   0  0  0  0  0  0  0  0  0  0  0  0
  -21.9450   -6.9740   22.3770 C   0  0  0  0  0  0  0  0  0  0  0  0
  -21.3660   -7.6170   23.4930 C   0  0  0  0  0  3  0  0  0  0  0  0
  -21.0990   -6.8840   24.6670 C   0  0  0  0  0  3  0  0  0  0  0  0
  -21.4000   -5.5100   24.7240 C   0  0  0  0  0  0  0  0  0  0  0  0
  -21.9710   -4.8680   23.6120 C   0  0  0  0  0  3  0  0  0  0  0  0
  -22.2400   -5.5980   22.4410 C   0  0  0  0  0  0  0  0  0  0  0  0
  -22.7700   -4.9680   21.3650 F   0  0  0  0  0  0  0  0  0  0  0  0
  -21.1360   -4.8050   25.8480 F   0  0  0  0  0  0  0  0  0  0  0  0
  -23.6250  -14.2080   20.9890 C   0  0  0  0  0  0  0  0  0  0  0  0
  -22.8850  -13.5520   21.8750 N   0  0  0  0  0  0  0  0  0  0  0  0
  -23.2300  -15.2570   20.4810 O   0  0  0  0  0  0  0  0  0  0  0  0
  -23.2170  -12.7020   22.3070 H   0  0  0  0  0  0  0  0  0  0  0  0
  -21.9710  -13.9040   22.1270 H   0  0  0  0  0  0  0  0  0  0  0  0
  -26.3330  -15.7350   20.1500 N   0  0  0  0  0  0  0  0  0  0  0  0
  -25.6110  -16.4330   20.2910 H   0  0  0  0  0  0  0  0  0  0  0  0
  -27.2080  -16.1240   19.8270 H   0  0  0  0  0  0  0  0  0  0  0  0
  -28.5630  -25.8250   20.7220 C   0  0  0  0  0  2  0  0  0  0  0  0
  -28.4780  -26.9160   19.7770 O   0  0  0  0  0  0  0  0  0  0  0  0
  -24.5860  -31.9000   23.1540 C   0  0  0  0  0  0  0  0  0  0  0  0
  -27.3160  -27.6630   19.8450 C   0  0  0  0  0  0  0  0  0  0  0  0
  -23.4050  -30.5440   21.4540 C   0  0  0  0  0  3  0  0  0  0  0  0
  -24.8880  -29.1170   19.9420 C   0  0  0  0  0  0  0  0  0  0  0  0
  -25.9190  -30.9790   21.2530 C   0  0  0  0  0  2  0  0  0  0  0  0
  -26.0390  -29.6410   20.5490 C   0  0  0  0  0  0  0  0  0  0  0  0
  -27.2580  -28.9200   20.4970 C   0  0  0  0  0  3  0  0  0  0  0  0
  -26.1530  -27.1600   19.2330 C   0  0  0  0  0  3  0  0  0  0  0  0
  -24.9420  -27.8780   19.2800 C   0  0  0  0  0  3  0  0  0  0  0  0
  -23.6200  -29.9360   20.0420 C   0  0  0  0  0  2  0  0  0  0  0  0
  -24.6550  -31.1560   22.0120 N   0  0  0  0  0  0  0  0  0  0  0  0
  -23.5030  -32.1120   23.7170 O   0  0  0  0  0  0  0  0  0  0  0  0
  -22.7930  -29.4600   22.3720 C   0  0  0  0  0  0  0  0  0  0  0  0
  -21.4700  -29.2560   22.2600 N   0  0  0  0  0  0  0  0  0  0  0  0
  -23.5050  -28.8070   23.1400 O   0  0  0  0  0  0  0  0  0  0  0  0
  -20.9550  -29.8390   21.6150 H   0  0  0  0  0  0  0  0  0  0  0  0
  -18.1270  -27.9900   22.7890 C   0  0  0  0  0  0  0  0  0  0  0  0
  -20.6890  -28.2580   22.9920 C   0  0  0  0  0  3  0  0  0  0  0  0
  -20.7860  -26.8710   22.3160 C   0  0  0  0  0  2  0  0  0  0  0  0
  -19.6520  -26.6050   21.3200 C   0  0  0  0  0  2  0  0  0  0  0  0
  -18.2920  -26.6920   22.0180 C   0  0  0  0  0  2  0  0  0  0  0  0
  -19.2510  -28.7340   23.2330 C   0  0  0  0  0  0  0  0  0  0  0  0
  -19.0420  -29.9520   23.9130 C   0  0  0  0  0  3  0  0  0  0  0  0
  -17.7390  -30.4270   24.1560 C   0  0  0  0  0  3  0  0  0  0  0  0
  -16.6290  -29.6790   23.7300 C   0  0  0  0  0  3  0  0  0  0  0  0
  -16.8230  -28.4630   23.0510 C   0  0  0  0  0  3  0  0  0  0  0  0
  -25.8590  -32.5390   23.7920 C   0  0  0  0  0  3  0  0  0  0  0  0
  -26.3780  -31.7560   25.0610 C   0  0  1  0  0  0  0  0  0  0  0  0
  -25.2770  -31.4740   26.1100 C   0  0  0  0  0  1  0  0  0  0  0  0
  -26.9980  -30.4010   24.6490 C   0  0  0  0  0  1  0  0  0  0  0  0
  -27.5010  -32.5670   25.7510 C   0  0  0  0  0  1  0  0  0  0  0  0
  -25.5330  -33.9290   24.1370 N   0  0  0  0  0  0  0  0  0  0  0  0
  -25.8630  -34.9950   23.3960 C   0  0  0  0  0  0  0  0  0  0  0  0
  -26.5480  -34.9120   22.3720 O   0  0  0  0  0  0  0  0  0  0  0  0
  -24.9310  -34.0670   24.9360 H   0  0  0  0  0  0  0  0  0  0  0  0
  -24.1260  -36.7760   23.0390 C   0  0  0  0  0  1  0  0  0  0  0  0
  -25.3560  -36.3720   23.8660 C   0  0  0  0  0  3  0  0  0  0  0  0
  -27.4610  -37.2720   24.7520 C   0  0  0  0  0  1  0  0  0  0  0  0
  -26.3800  -37.4350   23.7840 N   0  0  0  0  0  0  0  0  0  0  0  0
  -25.9620  -38.3500   23.9270 H   0  0  0  0  0  0  0  0  0  0  0  0
  1  4  1  0
  2  4  2  0
  3  1  2  0
  4 55  1  0
  5  7  1  0
  5  2  1  0
  6  3  1  0
  6  5  2  0
  9 10  1  0
  9  8  1  0
 10  3  1  0
 10  8  1  0
 12 11  1  0
 12  6  1  0
 13 19  1  0
 14 19  1  0
 15 16  1  0
 15 14  1  0
 17 16  1  0
 17 30  1  0
 17 18  1  0
 19 18  1  0
 20 13  2  0
 21 23  1  0
 21 25  1  0
 22 24  1  0
 23 26  1  0
 25 12  1  0
 25 22  1  0
 26 13  1  0
 26 24  1  0
 27 28  2  0
 28 47  1  0
 29 28  1  0
 29 32  1  0
 30 31  1  0
 30 27  1  0
 31 29  2  0
 32 33  1  0
 33 34  2  0
 35 38  1  0
 35 34  1  0
 36 35  2  0
 37 36  1  0
 37 32  2  0
 38 39  1  0
 39 44  2  0
 39 40  1  0
 40 41  2  0
 41 42  1  0
 42 46  1  0
 43 42  2  0
 44 43  1  0
 45 44  1  0
 47 48  1  0
 48 51  1  0
 48 50  1  0
 49 47  2  0
 52 53  1  0
 52 27  1  0
 54 52  1  0
 56 58  1  0
 56 55  1  0
 57 68  2  0
 58 63  1  0
 59 67  1  0
 59 69  1  0
 60 66  1  0
 60 62  1  0
 61 67  1  0
 62 61  1  0
 63 62  2  0
 64 65  1  0
 64 58  2  0
 65 60  2  0
 66 59  1  0
 67 57  1  0
 69 71  2  0
 70 69  1  0
 72 70  1  0
 73 82  2  0
 73 78  1  0
 74 70  1  0
 74 78  1  0
 75 74  1  0
 76 77  1  0
 76 75  1  0
 77 73  1  0
 78 79  2  0
 79 80  1  0
 81 80  2  0
 82 81  1  0
 83 57  1  0
 83 88  1  0
 83 84  1  0
 84 87  1  1
 84 85  1  0
 86 84  1  0
 88 91  1  0
 89 93  1  0
 89 88  1  0
 90 89  2  0
 93 92  1  0
 95 93  1  0
 95 96  1  0
 95 94  1  0
M  ISO  4  13 100  26 100  55 101  56 101
M  END
>  <TORSDO>  (21) 
F 19

>  <SCORE>  (21) 
-12.719

>  <name>  (21) 
20

>  <ligand_id>  (21) 
20

>  <original_smiles>  (21) 
[H]c1c([H])c([H])c2c(c1[H])C([H])([H])C([H])([H])C([H])([H])C2([H])N([H])C(=O)C1([H])N(C(=O)C([H])(N([H])C(=O)C([H])(N([H])C([H])([H])[H])C([H])([H])[H])C(C([H])([H])[H])(C([H])([H])[H])C([H])([H])[H])C([H])([H])c2c([H])c(OC([H])([H])c3c([H])c(C([H])([H])[H])c(C([H])(C([H])([H])[H])C4([H])C([H])([H])C([H])([H])N(C(=O)N5C([H])([H])C([H])([H])C([H])([H])C([H])(n6nc(-c7c([H])c([H])c(Oc8c([H])c([H])c(F)c([H])c8F)c([H])c7[H])c(C(=O)N([H])[H])c6N([H])[H])C5([H])[H])C([H])([H])C4([H])[H])c(C4([H])C([H])([H])C4([H])[H])c3[H])c([H])c([H])c2C1([H])[H]

>  <smiles>  (21) 
[H]c1c([H])c([H])c2c(c1[H])C([H])([H])C([H])([H])C([H])([H])C2([H])N([H])C(=O)C1([H])N(C(=O)C([H])(N([H])C(=O)C([H])(N([H])C([H])([H])[H])C([H])([H])[H])C(C([H])([H])[H])(C([H])([H])[H])C([H])([H])[H])C([H])([H])c2c([H])c(OC([H])([H])c3c([H])c(C([H])([H])[H])c(C([H])(C([H])([H])[H])C4([H])C([H])([H])C([H])([H])N(C(=O)N5C([H])([H])C([H])([H])C([H])([H])C([H])(n6nc(-c7c([H])c([H])c(Oc8c([H])c([H])c(F)c([H])c8F)c([H])c7[H])c(C(=O)N([H])[H])c6N([H])[H])C5([H])[H])C([H])([H])C4([H])[H])c(C4([H])C([H])([H])C4([H])[H])c3[H])c([H])c([H])c2C1([H])[H]

$$$$
21:0:0
     RDKit          3D

 98108  0  0  1  0  0  0  0  0999 V2000
  -27.4460  -20.8780   20.3140 C   0  0  0  0  0  2  0  0  0  0  0  0
  -28.2180  -20.7850   17.8850 C   0  0  0  0  0  2  0  0  0  0  0  0
  -27.1860  -22.3700   20.1290 C   0  0  0  0  0  2  0  0  0  0  0  0
  -27.8900  -22.2590   17.7820 C   0  0  0  0  0  2  0  0  0  0  0  0
  -27.3880  -20.1010   18.9770 C   0  0  0  0  0  3  0  0  0  0  0  0
  -28.0780  -22.9460   19.0860 N   0  0  1  0  0  4  0  0  0  0  0  0
  -29.0410  -22.8230   19.3660 H   0  0  0  0  0  0  0  0  0  0  0  0
  -27.3940  -17.4730   18.9130 C   0  0  0  0  0  3  0  0  0  0  0  0
  -29.2740  -18.5330   19.4750 C   0  0  0  0  0  3  0  0  0  0  0  0
  -27.9750  -18.7470   19.1440 C   0  0  0  0  0  0  0  0  0  0  0  0
  -28.3610  -16.5240   19.1030 C   0  0  0  0  0  0  0  0  0  0  0  0
  -29.5090  -17.1890   19.5260 N   0  0  0  0  0  0  0  0  0  0  0  0
  -28.2720  -14.4460   17.5240 C   0  0  0  0  0  2  0  0  0  0  0  0
  -27.0370  -14.3750   18.3930 C   0  0  0  0  0  2  0  0  0  0  0  0
  -28.2880  -15.0480   18.9060 C   0  0  0  0  0  3  0  0  0  0  0  0
  -30.8050  -16.6930   19.9310 C   0  0  0  0  0  2  0  0  0  0  0  0
  -30.8950  -16.6130   21.4840 C   0  0  0  0  0  2  0  0  0  0  0  0
  -31.1580  -14.2330   21.7610 C   0  0  0  0  0  0  0  0  0  0  0  0
  -30.8950  -12.1230   20.5690 C   0  0  0  0  0  2  0  0  0  0  0  0
  -30.1230  -12.3900   19.2660 C   0  0  0  0  0  2  0  0  0  0  0  0
  -28.6000  -12.3290   19.5180 C   0  0  0  0  0  2  0  0  0  0  0  0
  -28.1350  -13.1440   20.7590 C   0  0  0  0  0  3  0  0  0  0  0  0
  -29.0510  -12.8730   21.9750 C   0  0  0  0  0  2  0  0  0  0  0  0
  -30.4430  -13.1040   21.5610 N   0  0  0  0  0  0  0  0  0  0  0  0
  -32.3520  -14.3510   21.4800 O   0  0  0  0  0  0  0  0  0  0  0  0
  -30.4230  -15.3220   21.9670 N   0  0  0  0  0  0  0  0  0  0  0  0
  -29.4380  -15.2080   22.1520 H   0  0  0  0  0  0  0  0  0  0  0  0
  -25.6750  -13.7720   21.2090 C   0  0  0  0  0  0  0  0  0  0  0  0
  -24.5620  -13.0060   21.4290 C   0  0  0  0  0  0  0  0  0  0  0  0
  -25.0070  -11.6480   21.4010 C   0  0  0  0  0  0  0  0  0  0  0  0
  -26.7300  -12.8820   21.0690 N   0  0  0  0  0  0  0  0  0  0  0  0
  -26.3220  -11.5990   21.2400 N   0  0  0  0  0  0  0  0  0  0  0  0
  -24.2500  -10.3910   21.4610 C   0  0  0  0  0  0  0  0  0  0  0  0
  -24.5900   -9.3670   22.3710 C   0  0  0  0  0  3  0  0  0  0  0  0
  -23.8360   -8.1740   22.4230 C   0  0  0  0  0  3  0  0  0  0  0  0
  -22.7280   -7.9980   21.5600 C   0  0  0  0  0  0  0  0  0  0  0  0
  -22.4080   -9.0110   20.6390 C   0  0  0  0  0  3  0  0  0  0  0  0
  -23.1630  -10.1950   20.5850 C   0  0  0  0  0  3  0  0  0  0  0  0
  -21.9540   -6.8640   21.5210 O   0  0  0  0  0  0  0  0  0  0  0  0
  -21.8090   -6.0540   22.6190 C   0  0  0  0  0  0  0  0  0  0  0  0
  -21.3280   -6.5480   23.8510 C   0  0  0  0  0  3  0  0  0  0  0  0
  -21.1290   -5.6680   24.9340 C   0  0  0  0  0  3  0  0  0  0  0  0
  -21.3990   -4.2940   24.7830 C   0  0  0  0  0  0  0  0  0  0  0  0
  -21.8740   -3.7990   23.5550 C   0  0  0  0  0  3  0  0  0  0  0  0
  -22.0750   -4.6770   22.4760 C   0  0  0  0  0  0  0  0  0  0  0  0
  -22.5120   -4.1920   21.2890 F   0  0  0  0  0  0  0  0  0  0  0  0
  -21.2010   -3.4460   25.8200 F   0  0  0  0  0  0  0  0  0  0  0  0
  -23.1490  -13.4950   21.5630 C   0  0  0  0  0  0  0  0  0  0  0  0
  -22.3240  -12.7850   22.3250 N   0  0  0  0  0  0  0  0  0  0  0  0
  -22.7800  -14.5390   21.0270 O   0  0  0  0  0  0  0  0  0  0  0  0
  -22.6330  -11.9390   22.7820 H   0  0  0  0  0  0  0  0  0  0  0  0
  -21.3710  -13.0930   22.4570 H   0  0  0  0  0  0  0  0  0  0  0  0
  -25.8750  -15.1450   21.0990 N   0  0  0  0  0  0  0  0  0  0  0  0
  -25.1030  -15.8020   21.1240 H   0  0  0  0  0  0  0  0  0  0  0  0
  -26.7490  -15.5800   20.8300 H   0  0  0  0  0  0  0  0  0  0  0  0
  -27.8240  -24.3800   18.8880 C   0  0  0  0  0  2  0  0  0  0  0  0
  -28.5270  -25.3890   19.8060 C   0  0  0  0  0  2  0  0  0  0  0  0
  -28.4520  -26.7250   19.2760 O   0  0  0  0  0  0  0  0  0  0  0  0
  -24.8100  -31.5220   23.0610 C   0  0  0  0  0  0  0  0  0  0  0  0
  -27.2720  -27.4330   19.4160 C   0  0  0  0  0  0  0  0  0  0  0  0
  -23.5190  -30.2990   21.3490 C   0  0  0  0  0  3  0  0  0  0  0  0
  -24.8920  -28.9340   19.7150 C   0  0  0  0  0  0  0  0  0  0  0  0
  -26.0410  -30.6640   21.0810 C   0  0  0  0  0  2  0  0  0  0  0  0
  -26.0800  -29.3670   20.3130 C   0  0  0  0  0  0  0  0  0  0  0  0
  -27.2680  -28.6130   20.1870 C   0  0  0  0  0  3  0  0  0  0  0  0
  -26.0740  -27.0910   18.7380 C   0  0  0  0  0  3  0  0  0  0  0  0
  -24.8780  -27.7830   18.9320 C   0  0  0  0  0  3  0  0  0  0  0  0
  -23.6610  -29.7810   19.8990 C   0  0  0  0  0  2  0  0  0  0  0  0
  -24.8110  -30.8350   21.8870 N   0  0  0  0  0  0  0  0  0  0  0  0
  -23.7550  -31.7410   23.6740 O   0  0  0  0  0  0  0  0  0  0  0  0
  -22.9140  -29.1740   22.2170 C   0  0  0  0  0  0  0  0  0  0  0  0
  -21.5860  -28.9990   22.1240 N   0  0  0  0  0  0  0  0  0  0  0  0
  -23.6330  -28.4690   22.9310 O   0  0  0  0  0  0  0  0  0  0  0  0
  -21.0700  -29.6210   21.5190 H   0  0  0  0  0  0  0  0  0  0  0  0
  -18.2380  -27.7370   22.6130 C   0  0  0  0  0  0  0  0  0  0  0  0
  -20.8000  -27.9900   22.8310 C   0  0  0  0  0  3  0  0  0  0  0  0
  -20.8940  -26.6160   22.1290 C   0  0  0  0  0  2  0  0  0  0  0  0
  -19.7640  -26.3730   21.1240 C   0  0  0  0  0  2  0  0  0  0  0  0
  -18.4010  -26.4510   21.8190 C   0  0  0  0  0  2  0  0  0  0  0  0
  -19.3650  -28.4670   23.0750 C   0  0  0  0  0  0  0  0  0  0  0  0
  -19.1580  -29.6730   23.7780 C   0  0  0  0  0  3  0  0  0  0  0  0
  -17.8560  -30.1490   24.0230 C   0  0  0  0  0  3  0  0  0  0  0  0
  -16.7440  -29.4140   23.5770 C   0  0  0  0  0  3  0  0  0  0  0  0
  -16.9360  -28.2110   22.8770 C   0  0  0  0  0  3  0  0  0  0  0  0
  -26.1280  -32.0840   23.6750 C   0  0  0  0  0  3  0  0  0  0  0  0
  -25.8170  -33.3970   24.2520 N   0  0  0  0  0  0  0  0  0  0  0  0
  -26.1270  -34.5690   23.6800 C   0  0  0  0  0  0  0  0  0  0  0  0
  -26.7820  -34.6550   22.6370 O   0  0  0  0  0  0  0  0  0  0  0  0
  -25.2360  -33.4050   25.0770 H   0  0  0  0  0  0  0  0  0  0  0  0
  -24.3950  -36.3900   23.6520 C   0  0  0  0  0  1  0  0  0  0  0  0
  -25.6360  -35.8500   24.3800 C   0  0  0  0  0  3  0  0  0  0  0  0
  -27.7710  -36.5670   25.3550 C   0  0  0  0  0  1  0  0  0  0  0  0
  -26.6660  -36.9070   24.4620 N   0  0  0  0  0  0  0  0  0  0  0  0
  -26.2590  -37.7830   24.7790 H   0  0  0  0  0  0  0  0  0  0  0  0
  -26.7640  -31.1290   24.7580 C   0  0  1  0  0  0  0  0  0  0  0  0
  -25.7680  -30.6800   25.8520 C   0  0  0  0  0  1  0  0  0  0  0  0
  -27.3420  -29.8550   24.0940 C   0  0  0  0  0  1  0  0  0  0  0  0
  -27.9500  -31.8410   25.4500 C   0  0  0  0  0  1  0  0  0  0  0  0
  2  5  1  0
  3  1  1  0
  4  2  1  0
  4  6  1  0
  5 10  1  0
  5  1  1  0
  6  7  1  1
  6  3  1  0
  8 11  2  0
  8 10  1  0
  9 12  1  0
 10  9  2  0
 11 12  1  0
 12 16  1  0
 13 14  1  0
 13 15  1  0
 14 15  1  0
 15 11  1  0
 16 17  1  0
 17 26  1  0
 18 26  1  0
 19 24  1  0
 20 21  1  0
 20 19  1  0
 22 21  1  0
 22 31  1  0
 22 23  1  0
 24 18  1  0
 24 23  1  0
 25 18  2  0
 26 27  1  0
 28 29  2  0
 29 48  1  0
 30 29  1  0
 30 33  1  0
 31 28  1  0
 31 32  1  0
 32 30  2  0
 33 34  1  0
 34 35  2  0
 36 35  1  0
 37 36  2  0
 38 37  1  0
 38 33  2  0
 39 36  1  0
 39 40  1  0
 40 41  1  0
 41 42  2  0
 43 42  1  0
 43 47  1  0
 44 43  2  0
 45 40  2  0
 45 44  1  0
 46 45  1  0
 48 49  1  0
 49 52  1  0
 49 51  1  0
 50 48  2  0
 53 54  1  0
 53 28  1  0
 55 53  1  0
 56  6  1  0
 56 57  1  0
 58 60  1  0
 58 57  1  0
 59 70  2  0
 60 65  1  0
 61 69  1  0
 61 71  1  0
 62 68  1  0
 62 64  1  0
 63 69  1  0
 64 63  1  0
 65 64  2  0
 66 67  1  0
 66 60  2  0
 67 62  2  0
 68 61  1  0
 69 59  1  0
 71 73  2  0
 72 71  1  0
 74 72  1  0
 75 84  2  0
 75 80  1  0
 76 72  1  0
 76 80  1  0
 77 76  1  0
 78 79  1  0
 78 77  1  0
 79 75  1  0
 80 81  2  0
 81 82  1  0
 83 82  2  0
 84 83  1  0
 85 59  1  0
 85 86  1  0
 85 95  1  0
 86 89  1  0
 87 86  1  0
 87 91  1  0
 88 87  2  0
 91 90  1  0
 91 93  1  0
 93 94  1  0
 93 92  1  0
 95 98  1  1
 95 96  1  0
 97 95  1  0
M  ISO  4  18 100  26 100  57 101  58 101
M  END
>  <TORSDO>  (22) 
F 22

>  <SCORE>  (22) 
-6.628

>  <name>  (22) 
21

>  <ligand_id>  (22) 
21

>  <original_smiles>  (22) 
[H]c1c([H])c([H])c2c(c1[H])C([H])([H])C([H])([H])C([H])([H])C2([H])N([H])C(=O)C1([H])N(C(=O)C([H])(N([H])C(=O)C([H])(N([H])C([H])([H])[H])C([H])([H])[H])C(C([H])([H])[H])(C([H])([H])[H])C([H])([H])[H])C([H])([H])c2c([H])c(OC([H])([H])C([H])([H])[N+]3([H])C([H])([H])C([H])([H])C([H])(c4c([H])c(C5([H])C([H])([H])C5([H])[H])n(C([H])([H])C([H])([H])N([H])C(=O)N5C([H])([H])C([H])([H])C([H])([H])C([H])(n6nc(-c7c([H])c([H])c(Oc8c([H])c([H])c(F)c([H])c8F)c([H])c7[H])c(C(=O)N([H])[H])c6N([H])[H])C5([H])[H])c4[H])C([H])([H])C3([H])[H])c([H])c([H])c2C1([H])[H]

>  <smiles>  (22) 
[H]c1c([H])c([H])c2c(c1[H])C([H])([H])C([H])([H])C([H])([H])C2([H])N([H])C(=O)C1([H])N(C(=O)C([H])(N([H])C(=O)C([H])(N([H])C([H])([H])[H])C([H])([H])[H])C(C([H])([H])[H])(C([H])([H])[H])C([H])([H])[H])C([H])([H])c2c([H])c(OC([H])([H])C([H])([H])[N+]3([H])C([H])([H])C([H])([H])C([H])(c4c([H])c(C5([H])C([H])([H])C5([H])[H])n(C([H])([H])C([H])([H])N([H])C(=O)N5C([H])([H])C([H])([H])C([H])([H])C([H])(n6nc(-c7c([H])c([H])c(Oc8c([H])c([H])c(F)c([H])c8F)c([H])c7[H])c(C(=O)N([H])[H])c6N([H])[H])C5([H])[H])c4[H])C([H])([H])C3([H])[H])c([H])c([H])c2C1([H])[H]

$$$$
22:0:0
     RDKit          3D

 95105  0  0  1  0  0  0  0  0999 V2000
  -30.5940  -23.2130   18.1740 C   0  0  0  0  0  3  0  0  0  0  0  0
  -28.6080  -22.5820   20.0580 C   0  0  0  0  0  3  0  0  0  0  0  0
  -30.0790  -21.9120   18.2780 C   0  0  0  0  0  0  0  0  0  0  0  0
  -29.1770  -21.5210   19.2690 C   0  0  0  0  0  0  0  0  0  0  0  0
  -30.0740  -24.2430   18.9850 C   0  0  0  0  0  0  0  0  0  0  0  0
  -29.0000  -23.9690   19.8830 C   0  0  0  0  0  0  0  0  0  0  0  0
  -30.1260  -20.9140   17.1660 C   0  0  0  0  0  2  0  0  0  0  0  0
  -28.8140  -20.1440   17.4060 C   0  0  0  0  0  2  0  0  0  0  0  0
  -28.6180  -20.0790   18.9560 C   0  0  0  0  0  3  0  0  0  0  0  0
  -30.6400  -25.6390   18.7800 C   0  0  0  0  0  1  0  0  0  0  0  0
  -30.6310  -14.6860   20.3430 C   0  0  0  0  0  0  0  0  0  0  0  0
  -30.3630  -12.4220   19.3640 C   0  0  0  0  0  2  0  0  0  0  0  0
  -29.4260  -12.5070   18.1410 C   0  0  0  0  0  2  0  0  0  0  0  0
  -27.9510  -12.3770   18.5760 C   0  0  0  0  0  2  0  0  0  0  0  0
  -27.5910  -13.2580   19.8050 C   0  0  0  0  0  3  0  0  0  0  0  0
  -28.6620  -13.1830   20.9140 C   0  0  0  0  0  2  0  0  0  0  0  0
  -29.9550  -13.4930   20.2940 N   0  0  0  0  0  0  0  0  0  0  0  0
  -31.8460  -14.7270   20.1310 O   0  0  0  0  0  0  0  0  0  0  0  0
  -29.4800  -16.2900   18.9560 C   0  0  0  0  0  2  0  0  0  0  0  0
  -30.3900  -17.0890   21.0440 C   0  0  0  0  0  2  0  0  0  0  0  0
  -28.5700  -17.5440   18.9330 C   0  0  0  0  0  2  0  0  0  0  0  0
  -29.6390  -18.4890   20.8270 C   0  0  0  0  0  2  0  0  0  0  0  0
  -29.9040  -15.8680   20.3080 N   0  0  0  0  0  0  0  0  0  0  0  0
  -29.2940  -18.7670   19.4030 N   0  0  2  0  0  4  0  0  0  0  0  0
  -30.1780  -18.7800   18.9210 H   0  0  0  0  0  0  0  0  0  0  0  0
  -25.2100  -13.8590   20.5360 C   0  0  0  0  0  0  0  0  0  0  0  0
  -24.1410  -13.0890   20.9010 C   0  0  0  0  0  0  0  0  0  0  0  0
  -24.6030  -11.7370   20.8740 C   0  0  0  0  0  0  0  0  0  0  0  0
  -26.2520  -12.9760   20.3040 N   0  0  0  0  0  0  0  0  0  0  0  0
  -25.8940  -11.6950   20.5710 N   0  0  0  0  0  0  0  0  0  0  0  0
  -23.8740  -10.4760   21.0630 C   0  0  0  0  0  0  0  0  0  0  0  0
  -24.3100   -9.5030   21.9890 C   0  0  0  0  0  3  0  0  0  0  0  0
  -23.5810   -8.3080   22.1660 C   0  0  0  0  0  3  0  0  0  0  0  0
  -22.4030   -8.0780   21.4180 C   0  0  0  0  0  0  0  0  0  0  0  0
  -21.9880   -9.0390   20.4780 C   0  0  0  0  0  3  0  0  0  0  0  0
  -22.7170  -10.2240   20.2990 C   0  0  0  0  0  3  0  0  0  0  0  0
  -21.6450   -6.9360   21.5050 O   0  0  0  0  0  0  0  0  0  0  0  0
  -21.6070   -6.1840   22.6510 C   0  0  0  0  0  0  0  0  0  0  0  0
  -21.2010   -6.7310   23.8880 C   0  0  0  0  0  3  0  0  0  0  0  0
  -21.1110   -5.9070   25.0280 C   0  0  0  0  0  3  0  0  0  0  0  0
  -21.4160   -4.5360   24.9320 C   0  0  0  0  0  0  0  0  0  0  0  0
  -21.8160   -3.9880   23.7000 C   0  0  0  0  0  3  0  0  0  0  0  0
  -21.9080   -4.8100   22.5630 C   0  0  0  0  0  0  0  0  0  0  0  0
  -22.2740   -4.2720   21.3740 F   0  0  0  0  0  0  0  0  0  0  0  0
  -21.3210   -3.7420   26.0240 F   0  0  0  0  0  0  0  0  0  0  0  0
  -22.7440  -13.5690   21.1690 C   0  0  0  0  0  0  0  0  0  0  0  0
  -22.0160  -12.8750   22.0350 N   0  0  0  0  0  0  0  0  0  0  0  0
  -22.3110  -14.5960   20.6480 O   0  0  0  0  0  0  0  0  0  0  0  0
  -22.3810  -12.0440   22.4750 H   0  0  0  0  0  0  0  0  0  0  0  0
  -21.0780  -13.1770   22.2610 H   0  0  0  0  0  0  0  0  0  0  0  0
  -25.3810  -15.2290   20.3600 N   0  0  0  0  0  0  0  0  0  0  0  0
  -24.6220  -15.8920   20.4810 H   0  0  0  0  0  0  0  0  0  0  0  0
  -26.2480  -15.6610   20.0730 H   0  0  0  0  0  0  0  0  0  0  0  0
  -28.2400  -25.1260   20.6340 C   0  0  0  0  0  2  0  0  0  0  0  0
  -28.3810  -26.5280   20.1780 O   0  0  0  0  0  0  0  0  0  0  0  0
  -24.6410  -31.8820   23.2320 C   0  0  0  0  0  0  0  0  0  0  0  0
  -27.2500  -27.3470   20.1750 C   0  0  0  0  0  0  0  0  0  0  0  0
  -23.4320  -30.4800   21.5980 C   0  0  0  0  0  3  0  0  0  0  0  0
  -24.8790  -28.9310   20.1690 C   0  0  0  0  0  0  0  0  0  0  0  0
  -25.9680  -30.8100   21.4020 C   0  0  0  0  0  2  0  0  0  0  0  0
  -26.0480  -29.4330   20.7570 C   0  0  0  0  0  0  0  0  0  0  0  0
  -27.2390  -28.6530   20.7490 C   0  0  0  0  0  3  0  0  0  0  0  0
  -26.0650  -26.8910   19.5600 C   0  0  0  0  0  3  0  0  0  0  0  0
  -24.8900  -27.6660   19.5610 C   0  0  0  0  0  3  0  0  0  0  0  0
  -23.6400  -29.7990   20.2190 C   0  0  0  0  0  2  0  0  0  0  0  0
  -24.6990  -31.0750   22.1340 N   0  0  0  0  0  0  0  0  0  0  0  0
  -23.5590  -32.1580   23.7710 O   0  0  0  0  0  0  0  0  0  0  0  0
  -22.7750  -29.4630   22.5620 C   0  0  0  0  0  0  0  0  0  0  0  0
  -21.4500  -29.2830   22.4400 N   0  0  0  0  0  0  0  0  0  0  0  0
  -23.4600  -28.8380   23.3770 O   0  0  0  0  0  0  0  0  0  0  0  0
  -20.9590  -29.8400   21.7550 H   0  0  0  0  0  0  0  0  0  0  0  0
  -18.0770  -28.0840   22.9480 C   0  0  0  0  0  0  0  0  0  0  0  0
  -20.6350  -28.3460   23.2130 C   0  0  0  0  0  3  0  0  0  0  0  0
  -20.7370  -26.9130   22.6380 C   0  0  0  0  0  2  0  0  0  0  0  0
  -19.6330  -26.5890   21.6270 C   0  0  0  0  0  2  0  0  0  0  0  0
  -18.2530  -26.7350   22.2730 C   0  0  0  0  0  2  0  0  0  0  0  0
  -19.1950  -28.8480   23.3740 C   0  0  0  0  0  0  0  0  0  0  0  0
  -18.9770  -30.1130   23.9630 C   0  0  0  0  0  3  0  0  0  0  0  0
  -17.6720  -30.6120   24.1310 C   0  0  0  0  0  3  0  0  0  0  0  0
  -16.5680  -29.8450   23.7230 C   0  0  0  0  0  3  0  0  0  0  0  0
  -16.7710  -28.5830   23.1360 C   0  0  0  0  0  3  0  0  0  0  0  0
  -25.9260  -32.5170   23.8500 C   0  0  0  0  0  3  0  0  0  0  0  0
  -25.6140  -33.9140   24.1850 N   0  0  0  0  0  0  0  0  0  0  0  0
  -25.9410  -34.9700   23.4290 C   0  0  0  0  0  0  0  0  0  0  0  0
  -26.6040  -34.8720   22.3940 O   0  0  0  0  0  0  0  0  0  0  0  0
  -25.0230  -34.0630   24.9900 H   0  0  0  0  0  0  0  0  0  0  0  0
  -24.2070  -36.7610   23.0890 C   0  0  0  0  0  1  0  0  0  0  0  0
  -25.4520  -36.3560   23.8940 C   0  0  0  0  0  3  0  0  0  0  0  0
  -27.5890  -37.2390   24.7200 C   0  0  0  0  0  1  0  0  0  0  0  0
  -26.4820  -37.4120   23.7830 N   0  0  0  0  0  0  0  0  0  0  0  0
  -26.0750  -38.3300   23.9390 H   0  0  0  0  0  0  0  0  0  0  0  0
  -26.4530  -31.7440   25.1210 C   0  0  1  0  0  0  0  0  0  0  0  0
  -25.3670  -31.4990   26.1950 C   0  0  0  0  0  1  0  0  0  0  0  0
  -27.0390  -30.3700   24.7240 C   0  0  0  0  0  1  0  0  0  0  0  0
  -27.6050  -32.5410   25.7770 C   0  0  0  0  0  1  0  0  0  0  0  0
  1  3  2  0
  1  5  1  0
  3  4  1  0
  4  2  2  0
  5  6  2  0
  6  2  1  0
  6 54  1  0
  7  8  1  0
  7  3  1  0
  9  8  1  0
  9  4  1  0
  9 24  1  0
 10  5  1  0
 12 17  1  0
 13 14  1  0
 13 12  1  0
 15 14  1  0
 15 29  1  0
 15 16  1  0
 17 11  1  0
 17 16  1  0
 18 11  2  0
 19 23  1  0
 21 19  1  0
 21 24  1  0
 22 20  1  0
 23 11  1  0
 23 20  1  0
 24 25  1  6
 24 22  1  0
 26 27  2  0
 27 46  1  0
 28 27  1  0
 28 31  1  0
 29 26  1  0
 29 30  1  0
 30 28  2  0
 31 32  1  0
 32 33  2  0
 34 37  1  0
 34 33  1  0
 35 34  2  0
 36 35  1  0
 36 31  2  0
 37 38  1  0
 38 39  1  0
 39 40  2  0
 41 40  1  0
 41 45  1  0
 42 41  2  0
 43 38  2  0
 43 42  1  0
 44 43  1  0
 46 47  1  0
 47 50  1  0
 47 49  1  0
 48 46  2  0
 51 52  1  0
 51 26  1  0
 53 51  1  0
 55 54  1  0
 56 67  2  0
 57 55  1  0
 57 62  1  0
 58 66  1  0
 58 68  1  0
 59 65  1  0
 59 61  1  0
 60 66  1  0
 61 60  1  0
 62 61  2  0
 63 64  1  0
 63 57  2  0
 64 59  2  0
 65 58  1  0
 66 56  1  0
 68 70  2  0
 69 68  1  0
 71 69  1  0
 72 81  2  0
 72 77  1  0
 73 69  1  0
 73 77  1  0
 74 73  1  0
 75 76  1  0
 75 74  1  0
 76 72  1  0
 77 78  2  0
 78 79  1  0
 80 79  2  0
 81 80  1  0
 82 56  1  0
 82 83  1  0
 82 92  1  0
 83 86  1  0
 84 88  1  0
 84 83  1  0
 85 84  2  0
 88 87  1  0
 90 88  1  0
 90 91  1  0
 90 89  1  0
 92 95  1  1
 92 93  1  0
 94 92  1  0
M  ISO  4  11 100  23 100  54 101  55 101
M  END
>  <TORSDO>  (23) 
F 17

>  <SCORE>  (23) 
-15.102

>  <name>  (23) 
22

>  <ligand_id>  (23) 
22

>  <original_smiles>  (23) 
[H]c1c([H])c([H])c2c(c1[H])C([H])([H])C([H])([H])C([H])([H])C2([H])N([H])C(=O)C1([H])N(C(=O)C([H])(N([H])C(=O)C([H])(N([H])C([H])([H])[H])C([H])([H])[H])C(C([H])([H])[H])(C([H])([H])[H])C([H])([H])[H])C([H])([H])c2c([H])c(OC([H])([H])c3c([H])c4c(c([H])c3C([H])([H])[H])C([H])([H])C([H])([H])C4([H])[N+]3([H])C([H])([H])C([H])([H])N(C(=O)N4C([H])([H])C([H])([H])C([H])([H])C([H])(n5nc(-c6c([H])c([H])c(Oc7c([H])c([H])c(F)c([H])c7F)c([H])c6[H])c(C(=O)N([H])[H])c5N([H])[H])C4([H])[H])C([H])([H])C3([H])[H])c([H])c([H])c2C1([H])[H]

>  <smiles>  (23) 
[H]c1c([H])c([H])c2c(c1[H])C([H])([H])C([H])([H])C([H])([H])C2([H])N([H])C(=O)C1([H])N(C(=O)C([H])(N([H])C(=O)C([H])(N([H])C([H])([H])[H])C([H])([H])[H])C(C([H])([H])[H])(C([H])([H])[H])C([H])([H])[H])C([H])([H])c2c([H])c(OC([H])([H])c3c([H])c4c(c([H])c3C([H])([H])[H])C([H])([H])C([H])([H])C4([H])[N+]3([H])C([H])([H])C([H])([H])N(C(=O)N4C([H])([H])C([H])([H])C([H])([H])C([H])(n5nc(-c6c([H])c([H])c(Oc7c([H])c([H])c(F)c([H])c7F)c([H])c6[H])c(C(=O)N([H])[H])c5N([H])[H])C4([H])[H])C([H])([H])C3([H])[H])c([H])c([H])c2C1([H])[H]

$$$$
23:0:0
     RDKit          3D

 96106  0  0  1  0  0  0  0  0999 V2000
  -30.3130  -20.8380   19.8050 C   0  0  0  0  0  3  0  0  0  0  0  0
  -30.6770  -22.1300   19.3220 C   0  0  0  0  0  0  0  0  0  0  0  0
  -31.2360  -19.7830   20.1240 C   0  0  0  0  0  0  0  0  0  0  0  0
  -32.0600  -22.3210   19.1020 C   0  0  0  0  0  0  0  0  0  0  0  0
  -32.6040  -20.1840   19.9050 C   0  0  0  0  0  0  0  0  0  0  0  0
  -32.6980  -23.5210   18.4220 C   0  0  0  0  0  1  0  0  0  0  0  0
  -33.8720  -19.3710   20.1540 C   0  0  0  0  0  1  0  0  0  0  0  0
  -32.9630  -21.3860   19.4130 N   0  0  0  0  0  0  0  0  0  0  0  0
  -30.9120  -14.5630   19.9150 C   0  0  0  0  0  0  0  0  0  0  0  0
  -30.5870  -12.3210   18.9190 C   0  0  0  0  0  2  0  0  0  0  0  0
  -29.5760  -12.3770   17.7580 C   0  0  0  0  0  2  0  0  0  0  0  0
  -28.1320  -12.2370   18.2830 C   0  0  0  0  0  2  0  0  0  0  0  0
  -27.8380  -13.1780   19.4800 C   0  0  0  0  0  3  0  0  0  0  0  0
  -28.9560  -13.0840   20.5420 C   0  0  0  0  0  2  0  0  0  0  0  0
  -30.2350  -13.3810   19.8790 N   0  0  0  0  0  0  0  0  0  0  0  0
  -31.9760  -14.7280   19.3100 O   0  0  0  0  0  0  0  0  0  0  0  0
  -31.8350  -17.5310   21.1210 C   0  0  0  0  0  2  0  0  0  0  0  0
  -31.3130  -16.1830   21.6720 C   0  0  0  0  0  2  0  0  0  0  0  0
  -29.3350  -16.4370   20.2810 C   0  0  0  0  0  2  0  0  0  0  0  0
  -29.4530  -17.9080   20.8110 C   0  0  0  0  0  3  0  0  0  0  0  0
  -28.2080  -18.7010   20.4060 C   0  0  0  0  0  1  0  0  0  0  0  0
  -30.8200  -18.4600   20.5810 N   0  0  0  0  0  0  0  0  0  0  0  0
  -30.4170  -15.5330   20.7250 N   0  0  0  0  0  0  0  0  0  0  0  0
  -25.5190  -13.8100   20.4060 C   0  0  0  0  0  0  0  0  0  0  0  0
  -24.4640  -13.0490   20.8310 C   0  0  0  0  0  0  0  0  0  0  0  0
  -24.8860  -11.6880   20.7140 C   0  0  0  0  0  0  0  0  0  0  0  0
  -26.5200  -12.9170   20.0590 N   0  0  0  0  0  0  0  0  0  0  0  0
  -26.1480  -11.6340   20.3020 N   0  0  0  0  0  0  0  0  0  0  0  0
  -24.1440  -10.4370   20.9120 C   0  0  0  0  0  0  0  0  0  0  0  0
  -24.5550   -9.4780   21.8640 C   0  0  0  0  0  3  0  0  0  0  0  0
  -23.8150   -8.2900   22.0500 C   0  0  0  0  0  3  0  0  0  0  0  0
  -22.6490   -8.0530   21.2820 C   0  0  0  0  0  0  0  0  0  0  0  0
  -22.2550   -9.0020   20.3210 C   0  0  0  0  0  3  0  0  0  0  0  0
  -22.9960  -10.1800   20.1340 C   0  0  0  0  0  3  0  0  0  0  0  0
  -21.8840   -6.9150   21.3750 O   0  0  0  0  0  0  0  0  0  0  0  0
  -21.7310   -6.2450   22.5620 C   0  0  0  0  0  0  0  0  0  0  0  0
  -21.1170   -6.8450   23.6820 C   0  0  0  0  0  3  0  0  0  0  0  0
  -20.9190   -6.0990   24.8610 C   0  0  0  0  0  3  0  0  0  0  0  0
  -21.3250   -4.7520   24.9190 C   0  0  0  0  0  0  0  0  0  0  0  0
  -21.9340   -4.1510   23.8030 C   0  0  0  0  0  3  0  0  0  0  0  0
  -22.1340   -4.8960   22.6260 C   0  0  0  0  0  0  0  0  0  0  0  0
  -22.7020   -4.3070   21.5470 F   0  0  0  0  0  0  0  0  0  0  0  0
  -21.1270   -4.0320   26.0470 F   0  0  0  0  0  0  0  0  0  0  0  0
  -23.1030  -13.5470   21.2240 C   0  0  0  0  0  0  0  0  0  0  0  0
  -22.4290  -12.8500   22.1300 N   0  0  0  0  0  0  0  0  0  0  0  0
  -22.6460  -14.5930   20.7620 O   0  0  0  0  0  0  0  0  0  0  0  0
  -22.8110  -12.0070   22.5330 H   0  0  0  0  0  0  0  0  0  0  0  0
  -21.5190  -13.1700   22.4280 H   0  0  0  0  0  0  0  0  0  0  0  0
  -25.6980  -15.1840   20.2680 N   0  0  0  0  0  0  0  0  0  0  0  0
  -24.9430  -15.8360   20.4580 H   0  0  0  0  0  0  0  0  0  0  0  0
  -26.5110  -15.6220   19.8570 H   0  0  0  0  0  0  0  0  0  0  0  0
  -29.6560  -24.2350   17.9930 C   0  0  0  0  0  2  0  0  0  0  0  0
  -29.5550  -23.1520   19.0360 C   0  0  0  0  0  3  0  0  0  0  0  0
  -29.5260  -24.6350   19.4560 C   0  0  0  0  0  3  0  0  0  0  0  0
  -28.2390  -25.3390   19.9040 C   0  0  0  0  0  2  0  0  0  0  0  0
  -28.3610  -26.7810   20.0090 O   0  0  0  0  0  0  0  0  0  0  0  0
  -24.6530  -31.9760   23.2640 C   0  0  0  0  0  0  0  0  0  0  0  0
  -27.1900  -27.5290   20.0580 C   0  0  0  0  0  0  0  0  0  0  0  0
  -23.3960  -30.6020   21.6410 C   0  0  0  0  0  3  0  0  0  0  0  0
  -24.8030  -29.0720   20.1660 C   0  0  0  0  0  0  0  0  0  0  0  0
  -25.9230  -30.9450   21.3770 C   0  0  0  0  0  2  0  0  0  0  0  0
  -25.9850  -29.5780   20.7190 C   0  0  0  0  0  0  0  0  0  0  0  0
  -27.1820  -28.8170   20.6580 C   0  0  0  0  0  3  0  0  0  0  0  0
  -25.9790  -27.0480   19.5090 C   0  0  0  0  0  3  0  0  0  0  0  0
  -24.7970  -27.8050   19.5620 C   0  0  0  0  0  3  0  0  0  0  0  0
  -23.5660  -29.9410   20.2500 C   0  0  0  0  0  2  0  0  0  0  0  0
  -24.6790  -31.1880   22.1510 N   0  0  0  0  0  0  0  0  0  0  0  0
  -23.5870  -32.2430   23.8370 O   0  0  0  0  0  0  0  0  0  0  0  0
  -22.7660  -29.5700   22.6050 C   0  0  0  0  0  0  0  0  0  0  0  0
  -21.4580  -29.3140   22.4350 N   0  0  0  0  0  0  0  0  0  0  0  0
  -23.4510  -29.0000   23.4580 O   0  0  0  0  0  0  0  0  0  0  0  0
  -20.9660  -29.8270   21.7160 H   0  0  0  0  0  0  0  0  0  0  0  0
  -18.1500  -27.9050   22.7980 C   0  0  0  0  0  0  0  0  0  0  0  0
  -20.6630  -28.3560   23.2020 C   0  0  0  0  0  3  0  0  0  0  0  0
  -20.9000  -26.9130   22.7020 C   0  0  0  0  0  2  0  0  0  0  0  0
  -19.8840  -26.4680   21.6440 C   0  0  0  0  0  2  0  0  0  0  0  0
  -18.4590  -26.5430   22.2000 C   0  0  0  0  0  2  0  0  0  0  0  0
  -19.1860  -28.7620   23.2550 C   0  0  0  0  0  0  0  0  0  0  0  0
  -18.8450  -30.0320   23.7700 C   0  0  0  0  0  3  0  0  0  0  0  0
  -17.5010  -30.4460   23.8340 C   0  0  0  0  0  3  0  0  0  0  0  0
  -16.4800  -29.5860   23.3940 C   0  0  0  0  0  3  0  0  0  0  0  0
  -16.8050  -28.3170   22.8830 C   0  0  0  0  0  3  0  0  0  0  0  0
  -25.9560  -32.5960   23.8560 C   0  0  0  0  0  3  0  0  0  0  0  0
  -25.6660  -33.9930   24.1980 N   0  0  0  0  0  0  0  0  0  0  0  0
  -25.9830  -35.0430   23.4290 C   0  0  0  0  0  0  0  0  0  0  0  0
  -26.6230  -34.9350   22.3790 O   0  0  0  0  0  0  0  0  0  0  0  0
  -25.0990  -34.1510   25.0180 H   0  0  0  0  0  0  0  0  0  0  0  0
  -24.2710  -36.8540   23.1040 C   0  0  0  0  0  1  0  0  0  0  0  0
  -25.5180  -36.4350   23.8990 C   0  0  0  0  0  3  0  0  0  0  0  0
  -27.6580  -37.3040   24.7290 C   0  0  0  0  0  1  0  0  0  0  0  0
  -26.5620  -37.4770   23.7800 N   0  0  0  0  0  0  0  0  0  0  0  0
  -26.1640  -38.4020   23.9200 H   0  0  0  0  0  0  0  0  0  0  0  0
  -26.4940  -31.8140   25.1160 C   0  0  1  0  0  0  0  0  0  0  0  0
  -25.4140  -31.5500   26.1910 C   0  0  0  0  0  1  0  0  0  0  0  0
  -27.0880  -30.4510   24.6960 C   0  0  0  0  0  1  0  0  0  0  0  0
  -27.6450  -32.6110   25.7720 C   0  0  0  0  0  1  0  0  0  0  0  0
  1  3  1  0
  2  1  2  0
  3 22  1  0
  4  2  1  0
  4  8  2  0
  5  3  2  0
  5  7  1  0
  6  4  1  0
  8  5  1  0
  9 23  1  0
 10 15  1  0
 11 12  1  0
 11 10  1  0
 13 12  1  0
 13 27  1  0
 13 14  1  0
 15  9  1  0
 15 14  1  0
 16  9  2  0
 17 18  1  0
 19 23  1  0
 19 20  1  0
 20 21  1  0
 22 20  1  0
 22 17  1  0
 23 18  1  0
 24 25  2  0
 25 44  1  0
 26 25  1  0
 26 29  1  0
 27 28  1  0
 27 24  1  0
 28 26  2  0
 29 30  1  0
 30 31  2  0
 32 35  1  0
 32 31  1  0
 33 32  2  0
 34 33  1  0
 34 29  2  0
 35 36  1  0
 36 41  2  0
 36 37  1  0
 37 38  2  0
 38 39  1  0
 39 43  1  0
 40 39  2  0
 41 40  1  0
 42 41  1  0
 44 45  1  0
 45 48  1  0
 45 47  1  0
 46 44  2  0
 49 24  1  0
 49 50  1  0
 51 49  1  0
 52 53  1  0
 52 54  1  0
 53  2  1  0
 53 54  1  0
 54 55  1  0
 55 56  1  0
 56 58  1  0
 57 68  2  0
 58 63  1  0
 59 67  1  0
 59 69  1  0
 60 66  1  0
 60 62  1  0
 61 67  1  0
 62 61  1  0
 63 62  2  0
 64 65  1  0
 64 58  2  0
 65 60  2  0
 66 59  1  0
 67 57  1  0
 69 71  2  0
 70 69  1  0
 72 70  1  0
 73 82  2  0
 73 78  1  0
 74 70  1  0
 74 78  1  0
 75 74  1  0
 76 77  1  0
 76 75  1  0
 77 73  1  0
 78 79  2  0
 79 80  1  0
 81 80  2  0
 82 81  1  0
 83 57  1  0
 83 84  1  0
 83 93  1  0
 84 87  1  0
 85 89  1  0
 85 84  1  0
 86 85  2  0
 89 88  1  0
 91 89  1  0
 91 92  1  0
 91 90  1  0
 93 96  1  1
 93 94  1  0
 95 93  1  0
M  ISO  4   9 100  23 100  55 101  56 101
M  END
>  <TORSDO>  (24) 
F 18

>  <SCORE>  (24) 
-14.442

>  <name>  (24) 
23

>  <ligand_id>  (24) 
23

>  <original_smiles>  (24) 
[H]c1c([H])c([H])c2c(c1[H])C([H])([H])C([H])([H])C([H])([H])C2([H])N([H])C(=O)C1([H])N(C(=O)C([H])(N([H])C(=O)C([H])(N([H])C([H])([H])[H])C([H])([H])[H])C(C([H])([H])[H])(C([H])([H])[H])C([H])([H])[H])C([H])([H])c2c([H])c(OC([H])([H])C3([H])C([H])([H])C3([H])c3c(C([H])([H])[H])nc(C([H])([H])[H])c(N4C([H])([H])C([H])([H])N(C(=O)N5C([H])([H])C([H])([H])C([H])([H])C([H])(n6nc(-c7c([H])c([H])c(Oc8c([H])c([H])c(F)c([H])c8F)c([H])c7[H])c(C(=O)N([H])[H])c6N([H])[H])C5([H])[H])C([H])([H])C4([H])C([H])([H])[H])c3[H])c([H])c([H])c2C1([H])[H]

>  <smiles>  (24) 
[H]c1c([H])c([H])c2c(c1[H])C([H])([H])C([H])([H])C([H])([H])C2([H])N([H])C(=O)C1([H])N(C(=O)C([H])(N([H])C(=O)C([H])(N([H])C([H])([H])[H])C([H])([H])[H])C(C([H])([H])[H])(C([H])([H])[H])C([H])([H])[H])C([H])([H])c2c([H])c(OC([H])([H])C3([H])C([H])([H])C3([H])c3c(C([H])([H])[H])nc(C([H])([H])[H])c(N4C([H])([H])C([H])([H])N(C(=O)N5C([H])([H])C([H])([H])C([H])([H])C([H])(n6nc(-c7c([H])c([H])c(Oc8c([H])c([H])c(F)c([H])c8F)c([H])c7[H])c(C(=O)N([H])[H])c6N([H])[H])C5([H])[H])C([H])([H])C4([H])C([H])([H])[H])c3[H])c([H])c([H])c2C1([H])[H]

$$$$
24:0:0
     RDKit          3D

 98108  0  0  1  0  0  0  0  0999 V2000
  -31.5880  -20.0180   21.0420 C   0  0  0  0  0  3  0  0  0  0  0  0
  -31.0990  -19.5050   22.2590 C   0  0  0  0  0  0  0  0  0  0  0  0
  -31.3730  -21.3540   20.6720 C   0  0  0  0  0  0  0  0  0  0  0  0
  -30.4420  -20.3870   23.1650 C   0  0  0  0  0  0  0  0  0  0  0  0
  -30.1730  -21.7330   22.7770 C   0  0  0  0  0  0  0  0  0  0  0  0
  -30.6300  -22.2120   21.5140 C   0  0  0  0  0  0  0  0  0  0  0  0
  -31.9080  -21.8250   19.3280 C   0  0  0  0  0  1  0  0  0  0  0  0
  -29.9470  -19.9060   24.5320 C   0  0  0  0  0  1  0  0  0  0  0  0
  -29.3540  -22.6280   23.7150 C   0  0  0  0  0  1  0  0  0  0  0  0
  -31.3830  -14.7180   19.5140 C   0  0  0  0  0  0  0  0  0  0  0  0
  -30.7990  -12.6310   18.3230 C   0  0  0  0  0  2  0  0  0  0  0  0
  -29.7080  -12.8950   17.2640 C   0  0  0  0  0  2  0  0  0  0  0  0
  -28.3010  -12.7940   17.8820 C   0  0  0  0  0  2  0  0  0  0  0  0
  -28.1770  -13.5990   19.1990 C   0  0  0  0  0  3  0  0  0  0  0  0
  -29.3560  -13.2350   20.1340 C   0  0  0  0  0  2  0  0  0  0  0  0
  -30.6160  -13.5800   19.4450 N   0  0  0  0  0  0  0  0  0  0  0  0
  -32.2760  -14.9050   18.6770 O   0  0  0  0  0  0  0  0  0  0  0  0
  -29.9410  -17.3780   21.7290 C   0  0  0  0  0  2  0  0  0  0  0  0
  -32.4520  -17.2720   22.1090 C   0  0  0  0  0  2  0  0  0  0  0  0
  -30.0930  -15.8990   21.3710 C   0  0  0  0  0  2  0  0  0  0  0  0
  -32.4230  -16.5340   20.7550 C   0  0  0  0  0  2  0  0  0  0  0  0
  -31.1340  -17.9860   22.4810 C   0  0  0  0  0  3  0  0  0  0  0  0
  -31.3000  -15.5780   20.5800 N   0  0  0  0  0  0  0  0  0  0  0  0
  -25.9380  -14.3060   20.2600 C   0  0  0  0  0  0  0  0  0  0  0  0
  -24.8820  -13.5740   20.7340 C   0  0  0  0  0  0  0  0  0  0  0  0
  -25.2440  -12.2040   20.5600 C   0  0  0  0  0  0  0  0  0  0  0  0
  -26.8830  -13.3820   19.8410 N   0  0  0  0  0  0  0  0  0  0  0  0
  -26.4720  -12.1090   20.0700 N   0  0  0  0  0  0  0  0  0  0  0  0
  -24.4720  -10.9760   20.7850 C   0  0  0  0  0  0  0  0  0  0  0  0
  -24.9370   -9.9620   21.6520 C   0  0  0  0  0  3  0  0  0  0  0  0
  -24.1700   -8.7960   21.8650 C   0  0  0  0  0  3  0  0  0  0  0  0
  -22.9250   -8.6360   21.2120 C   0  0  0  0  0  0  0  0  0  0  0  0
  -22.4770   -9.6390   20.3350 C   0  0  0  0  0  3  0  0  0  0  0  0
  -23.2440  -10.7960   20.1200 C   0  0  0  0  0  3  0  0  0  0  0  0
  -22.1260   -7.5280   21.3390 O   0  0  0  0  0  0  0  0  0  0  0  0
  -22.0170   -6.8510   22.5270 C   0  0  0  0  0  0  0  0  0  0  0  0
  -21.5800   -7.4870   23.7100 C   0  0  0  0  0  3  0  0  0  0  0  0
  -21.4170   -6.7370   24.8930 C   0  0  0  0  0  3  0  0  0  0  0  0
  -21.6800   -5.3550   24.8920 C   0  0  0  0  0  0  0  0  0  0  0  0
  -22.1080   -4.7190   23.7140 C   0  0  0  0  0  3  0  0  0  0  0  0
  -22.2740   -5.4650   22.5330 C   0  0  0  0  0  0  0  0  0  0  0  0
  -22.6680   -4.8440   21.3960 F   0  0  0  0  0  0  0  0  0  0  0  0
  -21.5140   -4.6330   26.0250 F   0  0  0  0  0  0  0  0  0  0  0  0
  -23.5720  -14.1100   21.2380 C   0  0  0  0  0  0  0  0  0  0  0  0
  -22.9650  -13.4340   22.2080 N   0  0  0  0  0  0  0  0  0  0  0  0
  -23.1030  -15.1620   20.8070 O   0  0  0  0  0  0  0  0  0  0  0  0
  -23.3610  -12.5850   22.5800 H   0  0  0  0  0  0  0  0  0  0  0  0
  -22.0940  -13.7770   22.5890 H   0  0  0  0  0  0  0  0  0  0  0  0
  -26.1660  -15.6740   20.1350 N   0  0  0  0  0  0  0  0  0  0  0  0
  -25.4730  -16.3670   20.3950 H   0  0  0  0  0  0  0  0  0  0  0  0
  -26.9920  -16.0830   19.7160 H   0  0  0  0  0  0  0  0  0  0  0  0
  -30.2940  -25.9550   21.0990 C   0  0  0  0  0  2  0  0  0  0  0  0
  -29.1300  -24.7450   19.2290 C   0  0  0  0  0  2  0  0  0  0  0  0
  -30.4100  -24.6390   21.8900 C   0  0  0  0  0  2  0  0  0  0  0  0
  -29.2090  -23.4370   20.0240 C   0  0  0  0  0  2  0  0  0  0  0  0
  -29.0480  -25.9350   20.1940 C   0  0  0  0  0  3  0  0  0  0  0  0
  -30.3010  -23.4790   21.0020 N   0  0  0  0  0  0  0  0  0  0  0  0
  -28.9620  -27.1560   19.4610 O   0  0  0  0  0  0  0  0  0  0  0  0
  -24.6270  -31.5170   22.9770 C   0  0  0  0  0  0  0  0  0  0  0  0
  -27.7230  -27.7410   19.5020 C   0  0  0  0  0  0  0  0  0  0  0  0
  -23.5730  -30.1860   21.1750 C   0  0  0  0  0  3  0  0  0  0  0  0
  -25.1830  -28.9570   19.6250 C   0  0  0  0  0  0  0  0  0  0  0  0
  -26.0470  -30.8200   21.0550 C   0  0  0  0  0  2  0  0  0  0  0  0
  -26.2750  -29.5430   20.2770 C   0  0  0  0  0  0  0  0  0  0  0  0
  -27.5480  -28.9460   20.2080 C   0  0  0  0  0  3  0  0  0  0  0  0
  -26.6160  -27.1510   18.8520 C   0  0  0  0  0  3  0  0  0  0  0  0
  -25.3470  -27.7570   18.9100 C   0  0  0  0  0  3  0  0  0  0  0  0
  -23.8570  -29.6750   19.7370 C   0  0  0  0  0  2  0  0  0  0  0  0
  -24.7660  -30.8500   21.7970 N   0  0  0  0  0  0  0  0  0  0  0  0
  -23.5230  -31.6230   23.5270 O   0  0  0  0  0  0  0  0  0  0  0  0
  -23.0240  -29.0110   22.0140 C   0  0  0  0  0  0  0  0  0  0  0  0
  -21.7070  -28.7690   21.9100 N   0  0  0  0  0  0  0  0  0  0  0  0
  -23.7770  -28.3250   22.7110 O   0  0  0  0  0  0  0  0  0  0  0  0
  -21.1590  -29.3820   21.3220 H   0  0  0  0  0  0  0  0  0  0  0  0
  -18.4150  -27.3800   22.4320 C   0  0  0  0  0  0  0  0  0  0  0  0
  -20.9760  -27.6940   22.5770 C   0  0  0  0  0  3  0  0  0  0  0  0
  -21.0800  -26.3730   21.7790 C   0  0  0  0  0  2  0  0  0  0  0  0
  -19.9190  -26.1650   20.8000 C   0  0  0  0  0  2  0  0  0  0  0  0
  -18.5820  -26.1570   21.5460 C   0  0  0  0  0  2  0  0  0  0  0  0
  -19.5380  -28.1100   22.9030 C   0  0  0  0  0  0  0  0  0  0  0  0
  -19.3240  -29.2590   23.6930 C   0  0  0  0  0  3  0  0  0  0  0  0
  -18.0210  -29.6800   24.0170 C   0  0  0  0  0  3  0  0  0  0  0  0
  -16.9130  -28.9450   23.5610 C   0  0  0  0  0  3  0  0  0  0  0  0
  -17.1110  -27.7970   22.7740 C   0  0  0  0  0  3  0  0  0  0  0  0
  -25.8440  -32.1990   23.6800 C   0  0  0  0  0  3  0  0  0  0  0  0
  -25.4510  -33.5760   24.0050 N   0  0  0  0  0  0  0  0  0  0  0  0
  -25.8090  -34.6560   23.2980 C   0  0  0  0  0  0  0  0  0  0  0  0
  -26.5780  -34.6000   22.3330 O   0  0  0  0  0  0  0  0  0  0  0  0
  -24.7760  -33.6910   24.7480 H   0  0  0  0  0  0  0  0  0  0  0  0
  -24.0670  -36.3950   22.7910 C   0  0  0  0  0  1  0  0  0  0  0  0
  -25.2240  -36.0140   23.7280 C   0  0  0  0  0  3  0  0  0  0  0  0
  -27.2290  -36.9380   24.8020 C   0  0  0  0  0  1  0  0  0  0  0  0
  -26.2230  -37.1040   23.7550 N   0  0  0  0  0  0  0  0  0  0  0  0
  -25.7720  -38.0040   23.8870 H   0  0  0  0  0  0  0  0  0  0  0  0
  -26.3230  -31.4350   24.9750 C   0  0  1  0  0  0  0  0  0  0  0  0
  -25.1710  -31.0450   25.9290 C   0  0  0  0  0  1  0  0  0  0  0  0
  -27.0820  -30.1410   24.5940 C   0  0  0  0  0  1  0  0  0  0  0  0
  -27.3210  -32.3150   25.7640 C   0  0  0  0  0  1  0  0  0  0  0  0
  1  2  1  0
  2  4  2  0
  3  1  2  0
  3  6  1  0
  4  8  1  0
  5  4  1  0
  5  9  1  0
  6  5  2  0
  7  3  1  0
 10 23  1  0
 11 16  1  0
 12 13  1  0
 12 11  1  0
 14 13  1  0
 14 27  1  0
 14 15  1  0
 16 10  1  0
 16 15  1  0
 17 10  2  0
 18 22  1  0
 19 22  1  0
 20 18  1  0
 21 19  1  0
 22  2  1  0
 23 21  1  0
 23 20  1  0
 24 25  2  0
 25 44  1  0
 26 25  1  0
 26 29  1  0
 27 28  1  0
 27 24  1  0
 28 26  2  0
 29 30  1  0
 30 31  2  0
 32 35  1  0
 32 31  1  0
 33 32  2  0
 34 33  1  0
 34 29  2  0
 35 36  1  0
 36 41  2  0
 36 37  1  0
 37 38  2  0
 39 38  1  0
 39 43  1  0
 40 39  2  0
 41 40  1  0
 42 41  1  0
 44 45  1  0
 45 47  1  0
 45 48  1  0
 46 44  2  0
 49 24  1  0
 49 50  1  0
 51 49  1  0
 52 54  1  0
 53 55  1  0
 53 56  1  0
 55 57  1  0
 56 58  1  0
 56 52  1  0
 57  6  1  0
 57 54  1  0
 58 60  1  0
 59 70  2  0
 60 65  1  0
 61 69  1  0
 61 71  1  0
 62 68  1  0
 62 64  1  0
 63 69  1  0
 64 63  1  0
 65 64  2  0
 66 67  1  0
 66 60  2  0
 67 62  2  0
 68 61  1  0
 69 59  1  0
 71 73  2  0
 72 71  1  0
 74 72  1  0
 75 84  2  0
 75 80  1  0
 76 72  1  0
 76 80  1  0
 77 76  1  0
 78 79  1  0
 78 77  1  0
 79 75  1  0
 80 81  2  0
 81 82  1  0
 83 82  2  0
 84 83  1  0
 85 59  1  0
 85 86  1  0
 85 95  1  0
 86 89  1  0
 87 91  1  0
 87 86  1  0
 88 87  2  0
 91 90  1  0
 91 93  1  0
 93 94  1  0
 93 92  1  0
 95 98  1  1
 95 96  1  0
 97 95  1  0
M  ISO  4  10 100  23 100  56 101  58 101
M  END
>  <TORSDO>  (25) 
F 17

>  <SCORE>  (25) 
-7.790

>  <name>  (25) 
24

>  <ligand_id>  (25) 
24

>  <original_smiles>  (25) 
[H]c1c([H])c([H])c2c(c1[H])C([H])([H])C([H])([H])C([H])([H])C2([H])N([H])C(=O)C1([H])N(C(=O)C([H])(N([H])C(=O)C([H])(N([H])C([H])([H])[H])C([H])([H])[H])C(C([H])([H])[H])(C([H])([H])[H])C([H])([H])[H])C([H])([H])c2c([H])c(OC3([H])C([H])([H])C([H])([H])N(c4c(C([H])([H])[H])c([H])c(C5([H])C([H])([H])C([H])([H])N(C(=O)N6C([H])([H])C([H])([H])C([H])([H])C([H])(n7nc(-c8c([H])c([H])c(Oc9c([H])c([H])c(F)c([H])c9F)c([H])c8[H])c(C(=O)N([H])[H])c7N([H])[H])C6([H])[H])C([H])([H])C5([H])[H])c(C([H])([H])[H])c4C([H])([H])[H])C([H])([H])C3([H])[H])c([H])c([H])c2C1([H])[H]

>  <smiles>  (25) 
[H]c1c([H])c([H])c2c(c1[H])C([H])([H])C([H])([H])C([H])([H])C2([H])N([H])C(=O)C1([H])N(C(=O)C([H])(N([H])C(=O)C([H])(N([H])C([H])([H])[H])C([H])([H])[H])C(C([H])([H])[H])(C([H])([H])[H])C([H])([H])[H])C([H])([H])c2c([H])c(OC3([H])C([H])([H])C([H])([H])N(c4c(C([H])([H])[H])c([H])c(C5([H])C([H])([H])C([H])([H])N(C(=O)N6C([H])([H])C([H])([H])C([H])([H])C([H])(n7nc(-c8c([H])c([H])c(Oc9c([H])c([H])c(F)c([H])c9F)c([H])c8[H])c(C(=O)N([H])[H])c7N([H])[H])C6([H])[H])C([H])([H])C5([H])[H])c(C([H])([H])[H])c4C([H])([H])[H])C([H])([H])C3([H])[H])c([H])c([H])c2C1([H])[H]

$$$$
25:0:0
     RDKit          3D

 99109  0  0  1  0  0  0  0  0999 V2000
  -30.4280  -20.2540   20.0920 C   0  0  0  0  0  3  0  0  0  0  0  0
  -30.3910  -22.1880   22.1110 C   0  0  0  0  0  3  0  0  0  0  0  0
  -30.4980  -19.8390   21.4390 C   0  0  0  0  0  0  0  0  0  0  0  0
  -30.2810  -22.6060   20.7640 C   0  0  0  0  0  0  0  0  0  0  0  0
  -30.3180  -21.6170   19.7450 C   0  0  0  0  0  0  0  0  0  0  0  0
  -30.4960  -20.8170   22.4650 C   0  0  0  0  0  0  0  0  0  0  0  0
  -30.2250  -21.9740   18.2690 C   0  0  0  0  0  1  0  0  0  0  0  0
  -31.0070  -14.6110   20.1210 C   0  0  0  0  0  0  0  0  0  0  0  0
  -30.5780  -12.5140   18.8700 C   0  0  0  0  0  2  0  0  0  0  0  0
  -29.5620  -12.7400   17.7320 C   0  0  0  0  0  2  0  0  0  0  0  0
  -28.1170  -12.5880   18.2470 C   0  0  0  0  0  2  0  0  0  0  0  0
  -27.8700  -13.4050   19.5400 C   0  0  0  0  0  3  0  0  0  0  0  0
  -28.9860  -13.1160   20.5760 C   0  0  0  0  0  2  0  0  0  0  0  0
  -30.2770  -13.4640   19.9590 N   0  0  0  0  0  0  0  0  0  0  0  0
  -32.0230  -14.8160   19.4450 O   0  0  0  0  0  0  0  0  0  0  0  0
  -29.4100  -17.5750   21.0280 C   0  0  0  0  0  2  0  0  0  0  0  0
  -31.8660  -17.6440   21.5040 C   0  0  0  0  0  2  0  0  0  0  0  0
  -29.4060  -16.0850   21.4120 C   0  0  0  0  0  2  0  0  0  0  0  0
  -31.7910  -16.1450   21.8890 C   0  0  0  0  0  2  0  0  0  0  0  0
  -30.5170  -18.3390   21.7690 C   0  0  0  0  0  3  0  0  0  0  0  0
  -30.7130  -15.4380   21.1660 N   0  0  0  0  0  0  0  0  0  0  0  0
  -25.5360  -14.0590   20.4140 C   0  0  0  0  0  0  0  0  0  0  0  0
  -24.4730  -13.3020   20.8270 C   0  0  0  0  0  0  0  0  0  0  0  0
  -24.8960  -11.9410   20.7240 C   0  0  0  0  0  0  0  0  0  0  0  0
  -26.5410  -13.1580   20.0920 N   0  0  0  0  0  0  0  0  0  0  0  0
  -26.1610  -11.8790   20.3340 N   0  0  0  0  0  0  0  0  0  0  0  0
  -24.1530  -10.6910   20.9200 C   0  0  0  0  0  0  0  0  0  0  0  0
  -24.5710   -9.7230   21.8590 C   0  0  0  0  0  3  0  0  0  0  0  0
  -23.8310   -8.5350   22.0410 C   0  0  0  0  0  3  0  0  0  0  0  0
  -22.6580   -8.3080   21.2820 C   0  0  0  0  0  0  0  0  0  0  0  0
  -22.2600   -9.2630   20.3300 C   0  0  0  0  0  3  0  0  0  0  0  0
  -23.0010  -10.4420   20.1470 C   0  0  0  0  0  3  0  0  0  0  0  0
  -21.8900   -7.1720   21.3720 O   0  0  0  0  0  0  0  0  0  0  0  0
  -21.7500   -6.4910   22.5540 C   0  0  0  0  0  0  0  0  0  0  0  0
  -21.2290   -7.1070   23.7120 C   0  0  0  0  0  3  0  0  0  0  0  0
  -21.0370   -6.3510   24.8860 C   0  0  0  0  0  3  0  0  0  0  0  0
  -21.3580   -4.9800   24.9020 C   0  0  0  0  0  0  0  0  0  0  0  0
  -21.8720   -4.3630   23.7470 C   0  0  0  0  0  3  0  0  0  0  0  0
  -22.0660   -5.1170   22.5760 C   0  0  0  0  0  0  0  0  0  0  0  0
  -22.5420   -4.5140   21.4600 F   0  0  0  0  0  0  0  0  0  0  0  0
  -21.1660   -4.2510   26.0260 F   0  0  0  0  0  0  0  0  0  0  0  0
  -23.1080  -13.8020   21.2030 C   0  0  0  0  0  0  0  0  0  0  0  0
  -22.4230  -13.1000   22.1000 N   0  0  0  0  0  0  0  0  0  0  0  0
  -22.6590  -14.8490   20.7380 O   0  0  0  0  0  0  0  0  0  0  0  0
  -22.7990  -12.2520   22.4970 H   0  0  0  0  0  0  0  0  0  0  0  0
  -21.5100  -13.4170   22.3940 H   0  0  0  0  0  0  0  0  0  0  0  0
  -25.7230  -15.4300   20.2660 N   0  0  0  0  0  0  0  0  0  0  0  0
  -24.9790  -16.0970   20.4420 H   0  0  0  0  0  0  0  0  0  0  0  0
  -26.5590  -15.8610   19.8890 H   0  0  0  0  0  0  0  0  0  0  0  0
  -28.8560  -24.7770   20.9480 C   0  0  0  0  0  2  0  0  0  0  0  0
  -30.7460  -26.3070   21.1390 C   0  0  0  0  0  2  0  0  0  0  0  0
  -30.1440  -24.1090   20.4430 C   0  0  0  0  0  3  0  0  0  0  0  0
  -29.2100  -26.2670   21.0400 C   0  0  0  0  0  3  0  0  0  0  0  0
  -32.5390  -24.7870   20.3230 C   0  0  0  0  0  1  0  0  0  0  0  0
  -31.2400  -24.9140   21.0200 N   0  0  1  0  0  4  0  0  0  0  0  0
  -31.3780  -24.5690   21.9580 H   0  0  0  0  0  0  0  0  0  0  0  0
  -28.8030  -26.9470   19.8500 O   0  0  0  0  0  0  0  0  0  0  0  0
  -24.5880  -31.6660   23.1410 C   0  0  0  0  0  0  0  0  0  0  0  0
  -27.5830  -27.5740   19.9260 C   0  0  0  0  0  0  0  0  0  0  0  0
  -23.4950  -30.2260   21.4500 C   0  0  0  0  0  3  0  0  0  0  0  0
  -25.0700  -28.8540   19.9830 C   0  0  0  0  0  0  0  0  0  0  0  0
  -25.9800  -30.7970   21.2680 C   0  0  0  0  0  2  0  0  0  0  0  0
  -26.1770  -29.4580   20.5940 C   0  0  0  0  0  0  0  0  0  0  0  0
  -27.4380  -28.8220   20.5700 C   0  0  0  0  0  3  0  0  0  0  0  0
  -26.4660  -26.9780   19.3070 C   0  0  0  0  0  3  0  0  0  0  0  0
  -25.2070  -27.6100   19.3410 C   0  0  0  0  0  3  0  0  0  0  0  0
  -23.7590  -29.6050   20.0510 C   0  0  0  0  0  2  0  0  0  0  0  0
  -24.7050  -30.9100   22.0120 N   0  0  0  0  0  0  0  0  0  0  0  0
  -23.4900  -31.8330   23.6880 O   0  0  0  0  0  0  0  0  0  0  0  0
  -22.9290  -29.1260   22.3760 C   0  0  0  0  0  0  0  0  0  0  0  0
  -21.6300  -28.8280   22.2230 N   0  0  0  0  0  0  0  0  0  0  0  0
  -23.6570  -28.5460   23.1860 O   0  0  0  0  0  0  0  0  0  0  0  0
  -21.1000  -29.3540   21.5430 H   0  0  0  0  0  0  0  0  0  0  0  0
  -18.3860  -27.2820   22.5920 C   0  0  0  0  0  0  0  0  0  0  0  0
  -20.8910  -27.8000   22.9570 C   0  0  0  0  0  3  0  0  0  0  0  0
  -21.1620  -26.3940   22.3720 C   0  0  0  0  0  2  0  0  0  0  0  0
  -20.1360  -25.9730   21.3150 C   0  0  0  0  0  2  0  0  0  0  0  0
  -18.7240  -25.9660   21.9120 C   0  0  0  0  0  2  0  0  0  0  0  0
  -19.4040  -28.1500   23.0680 C   0  0  0  0  0  0  0  0  0  0  0  0
  -19.0350  -29.3770   23.6610 C   0  0  0  0  0  3  0  0  0  0  0  0
  -17.6800  -29.7400   23.7840 C   0  0  0  0  0  3  0  0  0  0  0  0
  -16.6760  -28.8690   23.3260 C   0  0  0  0  0  3  0  0  0  0  0  0
  -17.0300  -27.6420   22.7360 C   0  0  0  0  0  3  0  0  0  0  0  0
  -25.8220  -32.3740   23.7830 C   0  0  0  0  0  3  0  0  0  0  0  0
  -25.4200  -33.7470   24.1150 N   0  0  0  0  0  0  0  0  0  0  0  0
  -25.6760  -34.8190   23.3540 C   0  0  0  0  0  0  0  0  0  0  0  0
  -26.3460  -34.7620   22.3190 O   0  0  0  0  0  0  0  0  0  0  0  0
  -24.8190  -33.8610   24.9180 H   0  0  0  0  0  0  0  0  0  0  0  0
  -23.8140  -36.4760   23.0180 C   0  0  0  0  0  1  0  0  0  0  0  0
  -25.0940  -36.1700   23.8120 C   0  0  0  0  0  3  0  0  0  0  0  0
  -27.1680  -37.2160   24.6090 C   0  0  0  0  0  1  0  0  0  0  0  0
  -26.0450  -37.2950   23.6780 N   0  0  0  0  0  0  0  0  0  0  0  0
  -25.5730  -38.1840   23.8250 H   0  0  0  0  0  0  0  0  0  0  0  0
  -26.3750  -31.6280   25.0590 C   0  0  1  0  0  0  0  0  0  0  0  0
  -25.2870  -31.3130   26.1120 C   0  0  0  0  0  1  0  0  0  0  0  0
  -27.0500  -30.2950   24.6620 C   0  0  0  0  0  1  0  0  0  0  0  0
  -27.4630  -32.4910   25.7400 C   0  0  0  0  0  1  0  0  0  0  0  0
  -30.7200  -21.3430   24.8100 C   0  0  0  0  0  1  0  0  0  0  0  0
  -30.5840  -20.3820   23.7710 O   0  0  0  0  0  0  0  0  0  0  0  0
  1  3  1  0
  2  6  1  0
  3  6  2  0
  4  2  2  0
  5  1  2  0
  5  4  1  0
  6 99  1  0
  7  5  1  0
  8 21  1  0
  9 14  1  0
 10 11  1  0
 10  9  1  0
 12 11  1  0
 12 25  1  0
 12 13  1  0
 14  8  1  0
 14 13  1  0
 15  8  2  0
 16 18  1  0
 16 20  1  0
 17 20  1  0
 17 19  1  0
 20  3  1  0
 21 18  1  0
 21 19  1  0
 22 23  2  0
 23 42  1  0
 24 23  1  0
 24 27  1  0
 25 26  1  0
 25 22  1  0
 26 24  2  0
 27 28  1  0
 28 29  2  0
 30 33  1  0
 30 29  1  0
 31 30  2  0
 32 31  1  0
 32 27  2  0
 33 34  1  0
 34 39  2  0
 34 35  1  0
 35 36  2  0
 36 37  1  0
 37 41  1  0
 38 37  2  0
 39 38  1  0
 40 39  1  0
 42 43  1  0
 43 46  1  0
 43 45  1  0
 44 42  2  0
 47 22  1  0
 47 48  1  0
 49 47  1  0
 50 53  1  0
 52  4  1  0
 52 50  1  0
 52 55  1  0
 53 57  1  0
 53 51  1  0
 54 55  1  0
 55 51  1  0
 55 56  1  1
 57 59  1  0
 58 69  2  0
 59 64  1  0
 60 68  1  0
 60 70  1  0
 61 67  1  0
 61 63  1  0
 62 68  1  0
 63 62  1  0
 64 63  2  0
 65 66  1  0
 65 59  2  0
 66 61  2  0
 67 60  1  0
 68 58  1  0
 70 72  2  0
 71 70  1  0
 73 71  1  0
 74 83  2  0
 74 79  1  0
 75 71  1  0
 75 79  1  0
 76 75  1  0
 77 78  1  0
 77 76  1  0
 78 74  1  0
 79 80  2  0
 80 81  1  0
 82 81  2  0
 83 82  1  0
 84 58  1  0
 84 85  1  0
 84 94  1  0
 85 88  1  0
 86 90  1  0
 86 85  1  0
 87 86  2  0
 90 89  1  0
 92 90  1  0
 92 93  1  0
 92 91  1  0
 94 97  1  1
 94 95  1  0
 96 94  1  0
 99 98  1  0
M  ISO  4   8 100  21 100  53 101  57 101
M  END
>  <TORSDO>  (26) 
F 18

>  <SCORE>  (26) 
-13.073

>  <name>  (26) 
25

>  <ligand_id>  (26) 
25

>  <original_smiles>  (26) 
[H]c1c([H])c([H])c2c(c1[H])C([H])([H])C([H])([H])C([H])([H])C2([H])N([H])C(=O)C1([H])N(C(=O)C([H])(N([H])C(=O)C([H])(N([H])C([H])([H])[H])C([H])([H])[H])C(C([H])([H])[H])(C([H])([H])[H])C([H])([H])[H])C([H])([H])c2c([H])c(OC3([H])C([H])([H])C([H])(c4c([H])c(OC([H])([H])[H])c(C5([H])C([H])([H])C([H])([H])N(C(=O)N6C([H])([H])C([H])([H])C([H])([H])C([H])(n7nc(-c8c([H])c([H])c(Oc9c([H])c([H])c(F)c([H])c9F)c([H])c8[H])c(C(=O)N([H])[H])c7N([H])[H])C6([H])[H])C([H])([H])C5([H])[H])c([H])c4C([H])([H])[H])[N+]([H])(C([H])([H])[H])C3([H])[H])c([H])c([H])c2C1([H])[H]

>  <smiles>  (26) 
[H]c1c([H])c([H])c2c(c1[H])C([H])([H])C([H])([H])C([H])([H])C2([H])N([H])C(=O)C1([H])N(C(=O)C([H])(N([H])C(=O)C([H])(N([H])C([H])([H])[H])C([H])([H])[H])C(C([H])([H])[H])(C([H])([H])[H])C([H])([H])[H])C([H])([H])c2c([H])c(OC3([H])C([H])([H])C([H])(c4c([H])c(OC([H])([H])[H])c(C5([H])C([H])([H])C([H])([H])N(C(=O)N6C([H])([H])C([H])([H])C([H])([H])C([H])(n7nc(-c8c([H])c([H])c(Oc9c([H])c([H])c(F)c([H])c9F)c([H])c8[H])c(C(=O)N([H])[H])c7N([H])[H])C6([H])[H])C([H])([H])C5([H])[H])c([H])c4C([H])([H])[H])[N+]([H])(C([H])([H])[H])C3([H])[H])c([H])c([H])c2C1([H])[H]

$$$$
26:0:0
     RDKit          3D

 96107  0  0  1  0  0  0  0  0999 V2000
  -29.5760  -21.9120   19.4570 C   0  0  0  0  0  3  0  0  0  0  0  0
  -28.9430  -23.1820   19.6100 C   0  0  0  0  0  3  0  0  0  0  0  0
  -30.2990  -23.6540   21.5720 C   0  0  0  0  0  3  0  0  0  0  0  0
  -30.5600  -21.5080   20.3890 C   0  0  0  0  0  0  0  0  0  0  0  0
  -30.9150  -22.3930   21.4080 C   0  0  0  0  0  0  0  0  0  0  0  0
  -29.2830  -24.0660   20.6720 C   0  0  0  0  0  0  0  0  0  0  0  0
  -32.0330  -21.8470   22.2520 C   0  0  0  0  0  3  0  0  0  0  0  0
  -32.3860  -20.4820   21.6130 C   0  0  0  0  0  3  0  0  0  0  0  0
  -31.4600  -20.2520   20.3840 C   0  0  0  0  0  3  0  0  0  0  0  0
  -30.8980  -14.5760   19.9650 C   0  0  0  0  0  0  0  0  0  0  0  0
  -30.5510  -12.3530   18.9360 C   0  0  0  0  0  2  0  0  0  0  0  0
  -29.5370  -12.4720   17.7780 C   0  0  0  0  0  2  0  0  0  0  0  0
  -28.0970  -12.3050   18.3010 C   0  0  0  0  0  2  0  0  0  0  0  0
  -27.8150  -13.1710   19.5560 C   0  0  0  0  0  3  0  0  0  0  0  0
  -28.9500  -13.0410   20.6030 C   0  0  0  0  0  2  0  0  0  0  0  0
  -30.2050  -13.3930   19.9250 N   0  0  0  0  0  0  0  0  0  0  0  0
  -32.0620  -14.6320   19.5650 O   0  0  0  0  0  0  0  0  0  0  0  0
  -29.2270  -17.3440   21.6360 C   0  0  0  0  0  2  0  0  0  0  0  0
  -28.6740  -16.7890   19.0920 C   0  0  0  0  0  2  0  0  0  0  0  0
  -29.5570  -18.7780   21.1450 C   0  0  0  0  0  2  0  0  0  0  0  0
  -30.9560  -18.1430   19.1210 C   0  0  0  0  0  2  0  0  0  0  0  0
  -28.9510  -16.3140   20.5280 C   0  0  0  0  0  3  0  0  0  0  0  0
  -30.1850  -16.8020   18.9090 C   0  0  0  0  0  3  0  0  0  0  0  0
  -30.2060  -15.7680   19.9780 N   0  0  0  0  0  0  0  0  0  0  0  0
  -30.8570  -18.8660   20.4310 N   0  0  1  0  0  4  0  0  0  0  0  0
  -31.4960  -18.3510   21.0160 H   0  0  0  0  0  0  0  0  0  0  0  0
  -25.4860  -13.8130   20.4370 C   0  0  0  0  0  0  0  0  0  0  0  0
  -24.4280  -13.0520   20.8490 C   0  0  0  0  0  0  0  0  0  0  0  0
  -24.8580  -11.6930   20.7470 C   0  0  0  0  0  0  0  0  0  0  0  0
  -26.4960  -12.9160   20.1180 N   0  0  0  0  0  0  0  0  0  0  0  0
  -26.1270  -11.6360   20.3620 N   0  0  0  0  0  0  0  0  0  0  0  0
  -24.1200  -10.4420   20.9370 C   0  0  0  0  0  0  0  0  0  0  0  0
  -24.5400   -9.4750   21.8760 C   0  0  0  0  0  3  0  0  0  0  0  0
  -23.8040   -8.2840   22.0540 C   0  0  0  0  0  3  0  0  0  0  0  0
  -22.6340   -8.0530   21.2910 C   0  0  0  0  0  0  0  0  0  0  0  0
  -22.2360   -9.0080   20.3400 C   0  0  0  0  0  3  0  0  0  0  0  0
  -22.9720  -10.1900   20.1610 C   0  0  0  0  0  3  0  0  0  0  0  0
  -21.8710   -6.9150   21.3790 O   0  0  0  0  0  0  0  0  0  0  0  0
  -21.7390   -6.2270   22.5590 C   0  0  0  0  0  0  0  0  0  0  0  0
  -21.2010   -6.8290   23.7170 C   0  0  0  0  0  3  0  0  0  0  0  0
  -21.0210   -6.0640   24.8880 C   0  0  0  0  0  3  0  0  0  0  0  0
  -21.3680   -4.7010   24.8990 C   0  0  0  0  0  0  0  0  0  0  0  0
  -21.8980   -4.0990   23.7450 C   0  0  0  0  0  3  0  0  0  0  0  0
  -22.0820   -4.8610   22.5770 C   0  0  0  0  0  0  0  0  0  0  0  0
  -22.5740   -4.2710   21.4610 F   0  0  0  0  0  0  0  0  0  0  0  0
  -21.1860   -3.9630   26.0200 F   0  0  0  0  0  0  0  0  0  0  0  0
  -23.0610  -13.5480   21.2210 C   0  0  0  0  0  0  0  0  0  0  0  0
  -22.3720  -12.8370   22.1070 N   0  0  0  0  0  0  0  0  0  0  0  0
  -22.6140  -14.5990   20.7620 O   0  0  0  0  0  0  0  0  0  0  0  0
  -22.7470  -11.9860   22.4970 H   0  0  0  0  0  0  0  0  0  0  0  0
  -21.4560  -13.1480   22.3970 H   0  0  0  0  0  0  0  0  0  0  0  0
  -25.6590  -15.1860   20.2830 N   0  0  0  0  0  0  0  0  0  0  0  0
  -24.9030  -15.8400   20.4540 H   0  0  0  0  0  0  0  0  0  0  0  0
  -26.4800  -15.6220   19.8890 H   0  0  0  0  0  0  0  0  0  0  0  0
  -28.4470  -25.3330   20.9810 C   0  0  0  0  0  2  0  0  0  0  0  0
  -28.7050  -26.5710   20.2560 O   0  0  0  0  0  0  0  0  0  0  0  0
  -24.6810  -31.6880   23.2580 C   0  0  0  0  0  0  0  0  0  0  0  0
  -27.5740  -27.3760   20.1800 C   0  0  0  0  0  0  0  0  0  0  0  0
  -23.5850  -30.2920   21.5400 C   0  0  0  0  0  3  0  0  0  0  0  0
  -25.1420  -28.8420   20.1240 C   0  0  0  0  0  0  0  0  0  0  0  0
  -26.1080  -30.7270   21.4480 C   0  0  0  0  0  2  0  0  0  0  0  0
  -26.2650  -29.3750   20.7740 C   0  0  0  0  0  0  0  0  0  0  0  0
  -27.4870  -28.6520   20.7960 C   0  0  0  0  0  3  0  0  0  0  0  0
  -26.4370  -26.8830   19.5020 C   0  0  0  0  0  3  0  0  0  0  0  0
  -25.2260  -27.5970   19.4810 C   0  0  0  0  0  3  0  0  0  0  0  0
  -23.8680  -29.6590   20.1510 C   0  0  0  0  0  2  0  0  0  0  0  0
  -24.8070  -30.9170   22.1400 N   0  0  0  0  0  0  0  0  0  0  0  0
  -23.5720  -31.9120   23.7630 O   0  0  0  0  0  0  0  0  0  0  0  0
  -22.9300  -29.2260   22.4490 C   0  0  0  0  0  0  0  0  0  0  0  0
  -21.6150  -29.0150   22.2780 N   0  0  0  0  0  0  0  0  0  0  0  0
  -23.6050  -28.5940   23.2670 O   0  0  0  0  0  0  0  0  0  0  0  0
  -21.1290  -29.5790   21.5940 H   0  0  0  0  0  0  0  0  0  0  0  0
  -18.2560  -27.7290   22.6550 C   0  0  0  0  0  0  0  0  0  0  0  0
  -20.8000  -28.0340   22.9970 C   0  0  0  0  0  3  0  0  0  0  0  0
  -20.9490  -26.6260   22.3740 C   0  0  0  0  0  2  0  0  0  0  0  0
  -19.8770  -26.3140   21.3240 C   0  0  0  0  0  2  0  0  0  0  0  0
  -18.4780  -26.4080   21.9390 C   0  0  0  0  0  2  0  0  0  0  0  0
  -19.3470  -28.5000   23.1380 C   0  0  0  0  0  0  0  0  0  0  0  0
  -19.0860  -29.7370   23.7650 C   0  0  0  0  0  3  0  0  0  0  0  0
  -17.7670  -30.2050   23.9170 C   0  0  0  0  0  3  0  0  0  0  0  0
  -16.6900  -29.4310   23.4510 C   0  0  0  0  0  3  0  0  0  0  0  0
  -16.9360  -28.1940   22.8260 C   0  0  0  0  0  3  0  0  0  0  0  0
  -25.9200  -32.3460   23.9410 C   0  0  0  0  0  3  0  0  0  0  0  0
  -25.5550  -33.7270   24.2870 N   0  0  0  0  0  0  0  0  0  0  0  0
  -25.8920  -34.8060   23.5690 C   0  0  0  0  0  0  0  0  0  0  0  0
  -26.6120  -34.7460   22.5690 O   0  0  0  0  0  0  0  0  0  0  0  0
  -24.9190  -33.8450   25.0630 H   0  0  0  0  0  0  0  0  0  0  0  0
  -24.1420  -36.5660   23.1600 C   0  0  0  0  0  1  0  0  0  0  0  0
  -25.3420  -36.1680   24.0330 C   0  0  0  0  0  3  0  0  0  0  0  0
  -27.3940  -37.0830   25.0230 C   0  0  0  0  0  1  0  0  0  0  0  0
  -26.3530  -37.2490   24.0130 N   0  0  0  0  0  0  0  0  0  0  0  0
  -25.9140  -38.1550   24.1550 H   0  0  0  0  0  0  0  0  0  0  0  0
  -26.4150  -31.5620   25.2180 C   0  0  1  0  0  0  0  0  0  0  0  0
  -25.2920  -31.2600   26.2360 C   0  0  0  0  0  1  0  0  0  0  0  0
  -27.0630  -30.2170   24.8170 C   0  0  0  0  0  1  0  0  0  0  0  0
  -27.5100  -32.3800   25.9430 C   0  0  0  0  0  1  0  0  0  0  0  0
  1  2  2  0
  1  4  1  0
  2  6  1  0
  4  5  2  0
  5  3  1  0
  5  7  1  0
  6 55  1  0
  6  3  2  0
  8  7  2  0
  9  4  1  0
  9 25  1  0
  9  8  1  0
 10 24  1  0
 11 16  1  0
 12 13  1  0
 12 11  1  0
 14 13  1  0
 14 30  1  0
 14 15  1  0
 16 10  1  0
 16 15  1  0
 17 10  2  0
 20 18  1  0
 21 25  1  0
 22 19  1  0
 22 18  1  0
 23 19  1  0
 23 21  1  0
 23 24  1  0
 24 22  1  0
 25 26  1  1
 25 20  1  0
 27 28  2  0
 28 47  1  0
 29 28  1  0
 29 32  1  0
 30 31  1  0
 30 27  1  0
 31 29  2  0
 32 33  1  0
 33 34  2  0
 35 38  1  0
 35 34  1  0
 36 35  2  0
 37 36  1  0
 37 32  2  0
 38 39  1  0
 39 44  2  0
 39 40  1  0
 40 41  2  0
 41 42  1  0
 42 46  1  0
 43 42  2  0
 44 43  1  0
 45 44  1  0
 47 48  1  0
 48 51  1  0
 48 50  1  0
 49 47  2  0
 52 27  1  0
 52 53  1  0
 54 52  1  0
 56 55  1  0
 57 68  2  0
 58 56  1  0
 58 63  1  0
 59 67  1  0
 59 69  1  0
 60 66  1  0
 60 62  1  0
 61 67  1  0
 62 63  2  0
 62 61  1  0
 64 58  2  0
 65 64  1  0
 65 60  2  0
 66 59  1  0
 67 57  1  0
 69 71  2  0
 70 69  1  0
 72 70  1  0
 73 82  2  0
 73 78  1  0
 74 70  1  0
 74 78  1  0
 75 74  1  0
 76 77  1  0
 76 75  1  0
 77 73  1  0
 78 79  2  0
 79 80  1  0
 81 80  2  0
 82 81  1  0
 83 57  1  0
 83 84  1  0
 83 93  1  0
 84 87  1  0
 85 89  1  0
 85 84  1  0
 86 85  2  0
 89 88  1  0
 91 89  1  0
 91 92  1  0
 91 90  1  0
 93 96  1  1
 93 94  1  0
 95 93  1  0
M  ISO  4  10 100  24 100  55 101  56 101
M  END
>  <TORSDO>  (27) 
F 17

>  <SCORE>  (27) 
-14.050

>  <name>  (27) 
26

>  <ligand_id>  (27) 
26

>  <original_smiles>  (27) 
[H]c1c([H])c([H])c2c(c1[H])C([H])([H])C([H])([H])C([H])([H])C2([H])N([H])C(=O)C1([H])N(C(=O)C([H])(N([H])C(=O)C([H])(N([H])C([H])([H])[H])C([H])([H])[H])C(C([H])([H])[H])(C([H])([H])[H])C([H])([H])[H])C([H])([H])c2c([H])c(OC([H])([H])c3c([H])c([H])c4c(c3[H])C([H])([H])C([H])([H])C4([H])[N+]3([H])C([H])([H])C([H])([H])C4([H])N(C(=O)N5C([H])([H])C([H])([H])C([H])([H])C([H])(n6nc(-c7c([H])c([H])c(Oc8c([H])c([H])c(F)c([H])c8F)c([H])c7[H])c(C(=O)N([H])[H])c6N([H])[H])C5([H])[H])C([H])(C4([H])[H])C3([H])[H])c([H])c([H])c2C1([H])[H]

>  <smiles>  (27) 
[H]c1c([H])c([H])c2c(c1[H])C([H])([H])C([H])([H])C([H])([H])C2([H])N([H])C(=O)C1([H])N(C(=O)C([H])(N([H])C(=O)C([H])(N([H])C([H])([H])[H])C([H])([H])[H])C(C([H])([H])[H])(C([H])([H])[H])C([H])([H])[H])C([H])([H])c2c([H])c(OC([H])([H])c3c([H])c([H])c4c(c3[H])C([H])([H])C([H])([H])C4([H])[N+]3([H])C([H])([H])C([H])([H])C4([H])N(C(=O)N5C([H])([H])C([H])([H])C([H])([H])C([H])(n6nc(-c7c([H])c([H])c(Oc8c([H])c([H])c(F)c([H])c8F)c([H])c7[H])c(C(=O)N([H])[H])c6N([H])[H])C5([H])[H])C([H])(C4([H])[H])C3([H])[H])c([H])c([H])c2C1([H])[H]

$$$$
27:0:0
     RDKit          3D

 96105  0  0  1  0  0  0  0  0999 V2000
  -29.2370  -20.7770   20.8260 C   0  0  0  0  0  3  0  0  0  0  0  0
  -30.1830  -21.0650   23.0420 C   0  0  0  0  0  3  0  0  0  0  0  0
  -28.8530  -22.1360   20.8070 C   0  0  0  0  0  0  0  0  0  0  0  0
  -29.8310  -22.4320   23.0280 C   0  0  0  0  0  0  0  0  0  0  0  0
  -29.1590  -22.9760   21.9050 C   0  0  0  0  0  0  0  0  0  0  0  0
  -29.9030  -20.2250   21.9470 C   0  0  0  0  0  0  0  0  0  0  0  0
  -28.1120  -22.6800   19.5960 C   0  0  0  0  0  1  0  0  0  0  0  0
  -30.1690  -23.2810   24.2430 C   0  0  0  0  0  1  0  0  0  0  0  0
  -28.7590  -24.3190   21.8760 N   0  0  0  0  0  0  0  0  0  0  0  0
  -27.9630  -24.4770   21.2650 H   0  0  0  0  0  0  0  0  0  0  0  0
  -29.8170  -25.2670   21.5370 C   0  0  0  0  0  2  0  0  0  0  0  0
  -29.2440  -26.6760   21.2960 C   0  0  0  0  0  2  0  0  0  0  0  0
  -28.4210  -26.6470   20.1290 O   0  0  0  0  0  0  0  0  0  0  0  0
  -24.5550  -31.8350   23.1610 C   0  0  0  0  0  0  0  0  0  0  0  0
  -27.2860  -27.4250   20.1400 C   0  0  0  0  0  0  0  0  0  0  0  0
  -23.3860  -30.4300   21.4910 C   0  0  0  0  0  3  0  0  0  0  0  0
  -24.8770  -28.9030   20.0940 C   0  0  0  0  0  0  0  0  0  0  0  0
  -25.9080  -30.8070   21.3420 C   0  0  0  0  0  2  0  0  0  0  0  0
  -26.0150  -29.4360   20.7120 C   0  0  0  0  0  0  0  0  0  0  0  0
  -27.2210  -28.7060   20.7390 C   0  0  0  0  0  3  0  0  0  0  0  0
  -26.1390  -26.9080   19.5070 C   0  0  0  0  0  3  0  0  0  0  0  0
  -24.9320  -27.6340   19.4890 C   0  0  0  0  0  3  0  0  0  0  0  0
  -23.6250  -29.7500   20.1160 C   0  0  0  0  0  2  0  0  0  0  0  0
  -24.6330  -31.0390   22.0570 N   0  0  0  0  0  0  0  0  0  0  0  0
  -23.4640  -32.1020   23.6810 O   0  0  0  0  0  0  0  0  0  0  0  0
  -22.7190  -29.4070   22.4370 C   0  0  0  0  0  0  0  0  0  0  0  0
  -21.3970  -29.2290   22.2890 N   0  0  0  0  0  0  0  0  0  0  0  0
  -23.3900  -28.7770   23.2600 O   0  0  0  0  0  0  0  0  0  0  0  0
  -20.9200  -29.7900   21.5980 H   0  0  0  0  0  0  0  0  0  0  0  0
  -18.0080  -28.0670   22.7490 C   0  0  0  0  0  0  0  0  0  0  0  0
  -20.5660  -28.2900   23.0420 C   0  0  0  0  0  3  0  0  0  0  0  0
  -20.6560  -26.8660   22.4450 C   0  0  0  0  0  2  0  0  0  0  0  0
  -19.5570  -26.5710   21.4190 C   0  0  0  0  0  2  0  0  0  0  0  0
  -18.1730  -26.7250   22.0560 C   0  0  0  0  0  2  0  0  0  0  0  0
  -19.1320  -28.8100   23.1970 C   0  0  0  0  0  0  0  0  0  0  0  0
  -18.9250  -30.0690   23.8020 C   0  0  0  0  0  3  0  0  0  0  0  0
  -17.6260  -30.5840   23.9640 C   0  0  0  0  0  3  0  0  0  0  0  0
  -16.5160  -29.8370   23.5330 C   0  0  0  0  0  3  0  0  0  0  0  0
  -16.7080  -28.5820   22.9310 C   0  0  0  0  0  3  0  0  0  0  0  0
  -25.8280  -32.4660   23.8080 C   0  0  0  0  0  3  0  0  0  0  0  0
  -26.3320  -31.6830   25.0820 C   0  0  1  0  0  0  0  0  0  0  0  0
  -25.2250  -31.4250   26.1310 C   0  0  0  0  0  1  0  0  0  0  0  0
  -26.9320  -30.3160   24.6780 C   0  0  0  0  0  1  0  0  0  0  0  0
  -27.4660  -32.4790   25.7700 C   0  0  0  0  0  1  0  0  0  0  0  0
  -25.5080  -33.8590   24.1450 N   0  0  0  0  0  0  0  0  0  0  0  0
  -25.8590  -34.9190   23.4020 C   0  0  0  0  0  0  0  0  0  0  0  0
  -26.5560  -34.8270   22.3880 O   0  0  0  0  0  0  0  0  0  0  0  0
  -24.8930  -34.0050   24.9310 H   0  0  0  0  0  0  0  0  0  0  0  0
  -24.1430  -36.7130   23.0080 C   0  0  0  0  0  1  0  0  0  0  0  0
  -25.3540  -36.3020   23.8590 C   0  0  0  0  0  3  0  0  0  0  0  0
  -27.4580  -37.1750   24.7750 C   0  0  0  0  0  1  0  0  0  0  0  0
  -26.3900  -37.3560   23.7960 N   0  0  0  0  0  0  0  0  0  0  0  0
  -25.9780  -38.2730   23.9430 H   0  0  0  0  0  0  0  0  0  0  0  0
  -30.2880  -18.9020   22.0470 O   0  0  0  0  0  0  0  0  0  0  0  0
  -30.5890  -14.4370   19.9930 C   0  0  0  0  0  0  0  0  0  0  0  0
  -30.1070  -12.3920   18.6890 C   0  0  0  0  0  2  0  0  0  0  0  0
  -29.0540  -12.6640   17.5980 C   0  0  0  0  0  2  0  0  0  0  0  0
  -27.6330  -12.4780   18.1610 C   0  0  0  0  0  2  0  0  0  0  0  0
  -27.4240  -13.2490   19.4890 C   0  0  0  0  0  3  0  0  0  0  0  0
  -28.5790  -12.9600   20.4790 C   0  0  0  0  0  2  0  0  0  0  0  0
  -29.8480  -13.3040   19.8200 N   0  0  0  0  0  0  0  0  0  0  0  0
  -31.5790  -14.6720   19.2900 O   0  0  0  0  0  0  0  0  0  0  0  0
  -31.7660  -17.2520   21.0950 C   0  0  0  0  0  2  0  0  0  0  0  0
  -29.3140  -17.3890   20.3660 C   0  0  0  0  0  2  0  0  0  0  0  0
  -31.3940  -15.9170   21.7850 C   0  0  0  0  0  2  0  0  0  0  0  0
  -29.1030  -16.0740   21.1420 C   0  0  0  0  0  2  0  0  0  0  0  0
  -30.5560  -18.1790   20.8430 C   0  0  0  0  0  3  0  0  0  0  0  0
  -30.3080  -15.2330   21.0620 N   0  0  0  0  0  0  0  0  0  0  0  0
  -25.0910  -13.8240   20.4170 C   0  0  0  0  0  0  0  0  0  0  0  0
  -24.0700  -13.0340   20.8710 C   0  0  0  0  0  0  0  0  0  0  0  0
  -24.5420  -11.6890   20.7780 C   0  0  0  0  0  0  0  0  0  0  0  0
  -26.1210  -12.9590   20.0810 N   0  0  0  0  0  0  0  0  0  0  0  0
  -25.7980  -11.6690   20.3530 N   0  0  0  0  0  0  0  0  0  0  0  0
  -23.8520  -10.4140   21.0120 C   0  0  0  0  0  0  0  0  0  0  0  0
  -24.3390   -9.4730   21.9460 C   0  0  0  0  0  3  0  0  0  0  0  0
  -23.6490   -8.2620   22.1670 C   0  0  0  0  0  3  0  0  0  0  0  0
  -22.4590   -7.9840   21.4550 C   0  0  0  0  0  0  0  0  0  0  0  0
  -21.9900   -8.9140   20.5100 C   0  0  0  0  0  3  0  0  0  0  0  0
  -22.6810  -10.1170   20.2870 C   0  0  0  0  0  3  0  0  0  0  0  0
  -21.7340   -6.8230   21.5850 O   0  0  0  0  0  0  0  0  0  0  0  0
  -21.6970   -6.1280   22.7670 C   0  0  0  0  0  0  0  0  0  0  0  0
  -21.2460   -6.7210   23.9680 C   0  0  0  0  0  3  0  0  0  0  0  0
  -21.1590   -5.9500   25.1440 C   0  0  0  0  0  3  0  0  0  0  0  0
  -21.5110   -4.5870   25.1220 C   0  0  0  0  0  0  0  0  0  0  0  0
  -21.9540   -3.9940   23.9270 C   0  0  0  0  0  3  0  0  0  0  0  0
  -22.0440   -4.7620   22.7520 C   0  0  0  0  0  0  0  0  0  0  0  0
  -22.4530   -4.1810   21.5990 F   0  0  0  0  0  0  0  0  0  0  0  0
  -21.4200   -3.8430   26.2490 F   0  0  0  0  0  0  0  0  0  0  0  0
  -22.6980  -13.4890   21.2800 C   0  0  0  0  0  0  0  0  0  0  0  0
  -22.0620  -12.7730   22.2010 N   0  0  0  0  0  0  0  0  0  0  0  0
  -22.1990  -14.5140   20.8160 O   0  0  0  0  0  0  0  0  0  0  0  0
  -22.4750  -11.9410   22.5950 H   0  0  0  0  0  0  0  0  0  0  0  0
  -21.1490  -13.0630   22.5200 H   0  0  0  0  0  0  0  0  0  0  0  0
  -25.2240  -15.1990   20.2450 N   0  0  0  0  0  0  0  0  0  0  0  0
  -24.4620  -15.8420   20.4310 H   0  0  0  0  0  0  0  0  0  0  0  0
  -26.0330  -15.6520   19.8400 H   0  0  0  0  0  0  0  0  0  0  0  0
  1  6  1  0
  3  1  2  0
  3  5  1  0
  4  2  1  0
  4  8  1  0
  5  4  2  0
  6 54  1  0
  6  2  2  0
  7  3  1  0
  9  5  1  0
 10  9  1  0
 11  9  1  0
 12 11  1  0
 13 15  1  0
 13 12  1  0
 14 25  2  0
 15 20  1  0
 16 24  1  0
 16 26  1  0
 17 23  1  0
 17 19  1  0
 18 24  1  0
 19 20  2  0
 19 18  1  0
 21 15  2  0
 22 21  1  0
 22 17  2  0
 23 16  1  0
 24 14  1  0
 26 28  2  0
 27 26  1  0
 29 27  1  0
 30 39  2  0
 30 35  1  0
 31 27  1  0
 31 35  1  0
 32 31  1  0
 33 34  1  0
 33 32  1  0
 34 30  1  0
 35 36  2  0
 36 37  1  0
 38 37  2  0
 39 38  1  0
 40 14  1  0
 40 45  1  0
 40 41  1  0
 41 44  1  1
 41 42  1  0
 43 41  1  0
 45 48  1  0
 46 50  1  0
 46 45  1  0
 47 46  2  0
 50 49  1  0
 52 50  1  0
 52 53  1  0
 52 51  1  0
 55 68  1  0
 56 61  1  0
 57 58  1  0
 57 56  1  0
 59 58  1  0
 59 72  1  0
 59 60  1  0
 61 55  1  0
 61 60  1  0
 62 55  2  0
 63 65  1  0
 64 67  1  0
 64 66  1  0
 67 63  1  0
 67 54  1  0
 68 66  1  0
 68 65  1  0
 69 70  2  0
 70 89  1  0
 71 70  1  0
 71 74  1  0
 72 73  1  0
 72 69  1  0
 73 71  2  0
 74 75  1  0
 75 76  2  0
 77 80  1  0
 77 76  1  0
 78 77  2  0
 79 78  1  0
 79 74  2  0
 80 81  1  0
 81 82  1  0
 82 83  2  0
 84 83  1  0
 84 88  1  0
 85 84  2  0
 86 81  2  0
 86 85  1  0
 87 86  1  0
 89 90  1  0
 90 93  1  0
 90 92  1  0
 91 89  2  0
 94 69  1  0
 94 95  1  0
 96 94  1  0
M  ISO  4  12 101  13 101  55 100  68 100
M  END
>  <TORSDO>  (28) 
F 20

>  <SCORE>  (28) 
-12.948

>  <name>  (28) 
27

>  <ligand_id>  (28) 
27

>  <original_smiles>  (28) 
[H]c1c([H])c([H])c2c(c1[H])C([H])([H])C([H])([H])C([H])([H])C2([H])N([H])C(=O)C1([H])N(C(=O)C([H])(N([H])C(=O)C([H])(N([H])C([H])([H])[H])C([H])([H])[H])C(C([H])([H])[H])(C([H])([H])[H])C([H])([H])[H])C([H])([H])c2c([H])c(OC([H])([H])C([H])([H])N([H])c3c(C([H])([H])[H])c([H])c(OC4([H])C([H])([H])C([H])([H])N(C(=O)N5C([H])([H])C([H])([H])C([H])([H])C([H])(n6nc(-c7c([H])c([H])c(Oc8c([H])c([H])c(F)c([H])c8F)c([H])c7[H])c(C(=O)N([H])[H])c6N([H])[H])C5([H])[H])C([H])([H])C4([H])[H])c([H])c3C([H])([H])[H])c([H])c([H])c2C1([H])[H]

>  <smiles>  (28) 
[H]c1c([H])c([H])c2c(c1[H])C([H])([H])C([H])([H])C([H])([H])C2([H])N([H])C(=O)C1([H])N(C(=O)C([H])(N([H])C(=O)C([H])(N([H])C([H])([H])[H])C([H])([H])[H])C(C([H])([H])[H])(C([H])([H])[H])C([H])([H])[H])C([H])([H])c2c([H])c(OC([H])([H])C([H])([H])N([H])c3c(C([H])([H])[H])c([H])c(OC4([H])C([H])([H])C([H])([H])N(C(=O)N5C([H])([H])C([H])([H])C([H])([H])C([H])(n6nc(-c7c([H])c([H])c(Oc8c([H])c([H])c(F)c([H])c8F)c([H])c7[H])c(C(=O)N([H])[H])c6N([H])[H])C5([H])[H])C([H])([H])C4([H])[H])c([H])c3C([H])([H])[H])c([H])c([H])c2C1([H])[H]

$$$$
28:0:0
     RDKit          3D

 95104  0  0  1  0  0  0  0  0999 V2000
  -28.4050  -20.3380   20.7300 C   0  0  0  0  0  2  0  0  0  0  0  0
  -29.4010  -20.2220   18.4350 C   0  0  0  0  0  2  0  0  0  0  0  0
  -27.7430  -21.6480   20.1360 C   0  0  0  0  0  2  0  0  0  0  0  0
  -29.6010  -21.8000   18.5330 C   0  0  0  0  0  2  0  0  0  0  0  0
  -29.1370  -19.3690   19.7330 C   0  0  0  0  0  3  0  0  0  0  0  0
  -28.7280  -22.5780   19.4920 N   0  0  1  0  0  4  0  0  0  0  0  0
  -29.3690  -22.8320   20.2310 H   0  0  0  0  0  0  0  0  0  0  0  0
  -30.5450  -14.8660   19.7000 C   0  0  0  0  0  0  0  0  0  0  0  0
  -30.1900  -12.6240   18.6690 C   0  0  0  0  0  2  0  0  0  0  0  0
  -29.1220  -12.7090   17.5610 C   0  0  0  0  0  2  0  0  0  0  0  0
  -27.7210  -12.4930   18.1650 C   0  0  0  0  0  2  0  0  0  0  0  0
  -27.4760  -13.3480   19.4380 C   0  0  0  0  0  3  0  0  0  0  0  0
  -28.6680  -13.2920   20.4190 C   0  0  0  0  0  2  0  0  0  0  0  0
  -29.8690  -13.6690   19.6670 N   0  0  0  0  0  0  0  0  0  0  0  0
  -31.6560  -14.9300   19.1600 O   0  0  0  0  0  0  0  0  0  0  0  0
  -31.4140  -19.5400   20.7400 C   0  0  0  0  0  3  0  0  0  0  0  0
  -32.6470  -17.7590   21.7480 C   0  0  0  0  0  3  0  0  0  0  0  0
  -30.3900  -18.6350   20.3540 C   0  0  0  0  0  0  0  0  0  0  0  0
  -32.5700  -19.1050   21.4020 C   0  0  0  0  0  0  0  0  0  0  0  0
  -30.6570  -17.2040   20.5980 C   0  0  0  0  0  0  0  0  0  0  0  0
  -33.7210  -20.0350   21.7350 C   0  0  0  0  0  1  0  0  0  0  0  0
  -31.7210  -16.8720   21.3730 N   0  0  0  0  0  0  0  0  0  0  0  0
  -29.9250  -16.0310   20.1180 N   0  0  0  0  0  0  0  0  0  0  0  0
  -28.9370  -16.0040   20.3100 H   0  0  0  0  0  0  0  0  0  0  0  0
  -25.1960  -13.8330   20.5080 C   0  0  0  0  0  0  0  0  0  0  0  0
  -24.1970  -13.0120   20.9540 C   0  0  0  0  0  0  0  0  0  0  0  0
  -24.6720  -11.6760   20.7710 C   0  0  0  0  0  0  0  0  0  0  0  0
  -26.2150  -12.9960   20.0830 N   0  0  0  0  0  0  0  0  0  0  0  0
  -25.9150  -11.6900   20.3040 N   0  0  0  0  0  0  0  0  0  0  0  0
  -23.9960  -10.3870   20.9660 C   0  0  0  0  0  0  0  0  0  0  0  0
  -24.4640   -9.4370   21.9000 C   0  0  0  0  0  3  0  0  0  0  0  0
  -23.7830   -8.2140   22.0830 C   0  0  0  0  0  3  0  0  0  0  0  0
  -22.6180   -7.9310   21.3310 C   0  0  0  0  0  0  0  0  0  0  0  0
  -22.1690   -8.8690   20.3840 C   0  0  0  0  0  3  0  0  0  0  0  0
  -22.8520  -10.0830   20.2010 C   0  0  0  0  0  3  0  0  0  0  0  0
  -21.9050   -6.7600   21.4210 O   0  0  0  0  0  0  0  0  0  0  0  0
  -21.7650   -6.0950   22.6120 C   0  0  0  0  0  0  0  0  0  0  0  0
  -21.1540   -6.6960   23.7340 C   0  0  0  0  0  3  0  0  0  0  0  0
  -20.9680   -5.9520   24.9160 C   0  0  0  0  0  3  0  0  0  0  0  0
  -21.3840   -4.6090   24.9760 C   0  0  0  0  0  0  0  0  0  0  0  0
  -21.9880   -4.0070   23.8580 C   0  0  0  0  0  3  0  0  0  0  0  0
  -22.1760   -4.7490   22.6790 C   0  0  0  0  0  0  0  0  0  0  0  0
  -22.7400   -4.1590   21.5980 F   0  0  0  0  0  0  0  0  0  0  0  0
  -21.1980   -3.8920   26.1100 F   0  0  0  0  0  0  0  0  0  0  0  0
  -22.8390  -13.4380   21.4290 C   0  0  0  0  0  0  0  0  0  0  0  0
  -22.2430  -12.6760   22.3380 N   0  0  0  0  0  0  0  0  0  0  0  0
  -22.3190  -14.4780   21.0290 O   0  0  0  0  0  0  0  0  0  0  0  0
  -22.6810  -11.8320   22.6790 H   0  0  0  0  0  0  0  0  0  0  0  0
  -21.3370  -12.9380   22.6990 H   0  0  0  0  0  0  0  0  0  0  0  0
  -25.3190  -15.2150   20.4040 N   0  0  0  0  0  0  0  0  0  0  0  0
  -24.5740  -15.8500   20.6680 H   0  0  0  0  0  0  0  0  0  0  0  0
  -26.1090  -15.6870   19.9830 H   0  0  0  0  0  0  0  0  0  0  0  0
  -28.2180  -23.9420   18.9660 C   0  0  0  0  0  2  0  0  0  0  0  0
  -27.8140  -25.1080   20.0000 C   0  0  0  0  0  2  0  0  0  0  0  0
  -27.9590  -26.5640   19.6580 O   0  0  0  0  0  0  0  0  0  0  0  0
  -24.5160  -31.9490   23.1520 C   0  0  0  0  0  0  0  0  0  0  0  0
  -26.8550  -27.4310   19.7760 C   0  0  0  0  0  0  0  0  0  0  0  0
  -23.1950  -30.6160   21.5540 C   0  0  0  0  0  3  0  0  0  0  0  0
  -24.5280  -29.0910   19.9870 C   0  0  0  0  0  0  0  0  0  0  0  0
  -25.7260  -30.9010   21.2140 C   0  0  0  0  0  2  0  0  0  0  0  0
  -25.7440  -29.5440   20.5120 C   0  0  0  0  0  0  0  0  0  0  0  0
  -26.9130  -28.7250   20.3930 C   0  0  0  0  0  3  0  0  0  0  0  0
  -25.6130  -27.0330   19.2490 C   0  0  0  0  0  3  0  0  0  0  0  0
  -24.4640  -27.8410   19.3540 C   0  0  0  0  0  3  0  0  0  0  0  0
  -23.3100  -29.9810   20.1440 C   0  0  0  0  0  2  0  0  0  0  0  0
  -24.5030  -31.1680   22.0300 N   0  0  0  0  0  0  0  0  0  0  0  0
  -23.4690  -32.2240   23.7590 O   0  0  0  0  0  0  0  0  0  0  0  0
  -22.5780  -29.5780   22.5210 C   0  0  0  0  0  0  0  0  0  0  0  0
  -21.2560  -29.3620   22.4180 N   0  0  0  0  0  0  0  0  0  0  0  0
  -23.2910  -28.9650   23.3200 O   0  0  0  0  0  0  0  0  0  0  0  0
  -20.7430  -29.9020   21.7350 H   0  0  0  0  0  0  0  0  0  0  0  0
  -17.9350  -28.0240   22.9310 C   0  0  0  0  0  0  0  0  0  0  0  0
  -20.4810  -28.4000   23.2010 C   0  0  0  0  0  3  0  0  0  0  0  0
  -20.6490  -26.9680   22.6450 C   0  0  0  0  0  2  0  0  0  0  0  0
  -19.5630  -26.5810   21.6380 C   0  0  0  0  0  2  0  0  0  0  0  0
  -18.1730  -26.6770   22.2740 C   0  0  0  0  0  2  0  0  0  0  0  0
  -19.0200  -28.8390   23.3550 C   0  0  0  0  0  0  0  0  0  0  0  0
  -18.7450  -30.0990   23.9280 C   0  0  0  0  0  3  0  0  0  0  0  0
  -17.4210  -30.5450   24.0880 C   0  0  0  0  0  3  0  0  0  0  0  0
  -16.3510  -29.7240   23.6930 C   0  0  0  0  0  3  0  0  0  0  0  0
  -16.6090  -28.4670   23.1160 C   0  0  0  0  0  3  0  0  0  0  0  0
  -25.8390  -32.5530   23.7080 C   0  0  0  0  0  3  0  0  0  0  0  0
  -25.5660  -33.9440   24.0980 N   0  0  0  0  0  0  0  0  0  0  0  0
  -25.8720  -35.0150   23.3560 C   0  0  0  0  0  0  0  0  0  0  0  0
  -26.4860  -34.9330   22.2880 O   0  0  0  0  0  0  0  0  0  0  0  0
  -25.0180  -34.0850   24.9340 H   0  0  0  0  0  0  0  0  0  0  0  0
  -24.1570  -36.8470   23.1540 C   0  0  0  0  0  1  0  0  0  0  0  0
  -25.4320  -36.3940   23.8840 C   0  0  0  0  0  3  0  0  0  0  0  0
  -27.6160  -37.2230   24.6430 C   0  0  0  0  0  1  0  0  0  0  0  0
  -26.4750  -37.4340   23.7560 N   0  0  0  0  0  0  0  0  0  0  0  0
  -26.0890  -38.3530   23.9510 H   0  0  0  0  0  0  0  0  0  0  0  0
  -26.4250  -31.7420   24.9300 C   0  0  1  0  0  0  0  0  0  0  0  0
  -25.3870  -31.4520   26.0440 C   0  0  0  0  0  1  0  0  0  0  0  0
  -26.9990  -30.3830   24.4640 C   0  0  0  0  0  1  0  0  0  0  0  0
  -27.6060  -32.5200   25.5580 C   0  0  0  0  0  1  0  0  0  0  0  0
  2  4  1  0
  2  5  1  0
  3  1  1  0
  4  6  1  0
  5 18  1  0
  5  1  1  0
  6  3  1  0
  6  7  1  1
  8 23  1  0
  9 14  1  0
 10 11  1  0
 10  9  1  0
 12 11  1  0
 12 28  1  0
 12 13  1  0
 14  8  1  0
 14 13  1  0
 15  8  2  0
 16 19  1  0
 18 20  1  0
 18 16  2  0
 19 21  1  0
 19 17  2  0
 20 22  2  0
 22 17  1  0
 23 24  1  0
 23 20  1  0
 25 26  2  0
 26 45  1  0
 27 26  1  0
 27 30  1  0
 28 29  1  0
 28 25  1  0
 29 27  2  0
 30 31  1  0
 31 32  2  0
 33 36  1  0
 33 32  1  0
 34 33  2  0
 35 34  1  0
 35 30  2  0
 36 37  1  0
 37 42  2  0
 37 38  1  0
 38 39  2  0
 39 40  1  0
 40 44  1  0
 41 40  2  0
 42 41  1  0
 43 42  1  0
 45 46  1  0
 46 48  1  0
 46 49  1  0
 47 45  2  0
 50 25  1  0
 50 51  1  0
 52 50  1  0
 53  6  1  0
 53 54  1  0
 55 57  1  0
 55 54  1  0
 56 67  2  0
 57 62  1  0
 58 66  1  0
 58 68  1  0
 59 65  1  0
 59 61  1  0
 60 66  1  0
 61 60  1  0
 62 61  2  0
 63 64  1  0
 63 57  2  0
 64 59  2  0
 65 58  1  0
 66 56  1  0
 68 70  2  0
 69 68  1  0
 71 69  1  0
 72 81  2  0
 72 77  1  0
 73 69  1  0
 73 77  1  0
 74 73  1  0
 75 76  1  0
 75 74  1  0
 76 72  1  0
 77 78  2  0
 78 79  1  0
 80 79  2  0
 81 80  1  0
 82 56  1  0
 82 83  1  0
 82 92  1  0
 83 86  1  0
 84 88  1  0
 84 83  1  0
 85 84  2  0
 88 87  1  0
 90 88  1  0
 90 91  1  0
 90 89  1  0
 92 95  1  1
 92 93  1  0
 94 92  1  0
M  ISO  4   8 100  23 100  54 101  55 101
M  END
>  <TORSDO>  (29) 
F 18

>  <SCORE>  (29) 
-12.897

>  <name>  (29) 
28

>  <ligand_id>  (29) 
28

>  <original_smiles>  (29) 
[H]c1nc(N([H])C(=O)N2C([H])([H])C([H])([H])C([H])([H])C([H])(n3nc(-c4c([H])c([H])c(Oc5c([H])c([H])c(F)c([H])c5F)c([H])c4[H])c(C(=O)N([H])[H])c3N([H])[H])C2([H])[H])c(C2([H])C([H])([H])C([H])([H])[N+]([H])(C([H])([H])C([H])([H])Oc3c([H])c([H])c4c(c3[H])C([H])([H])N(C(=O)C([H])(N([H])C(=O)C([H])(N([H])C([H])([H])[H])C([H])([H])[H])C(C([H])([H])[H])(C([H])([H])[H])C([H])([H])[H])C([H])(C(=O)N([H])C3([H])c5c([H])c([H])c([H])c([H])c5C([H])([H])C([H])([H])C3([H])[H])C4([H])[H])C([H])([H])C2([H])[H])c([H])c1C([H])([H])[H]

>  <smiles>  (29) 
[H]c1nc(N([H])C(=O)N2C([H])([H])C([H])([H])C([H])([H])C([H])(n3nc(-c4c([H])c([H])c(Oc5c([H])c([H])c(F)c([H])c5F)c([H])c4[H])c(C(=O)N([H])[H])c3N([H])[H])C2([H])[H])c(C2([H])C([H])([H])C([H])([H])[N+]([H])(C([H])([H])C([H])([H])Oc3c([H])c([H])c4c(c3[H])C([H])([H])N(C(=O)C([H])(N([H])C(=O)C([H])(N([H])C([H])([H])[H])C([H])([H])[H])C(C([H])([H])[H])(C([H])([H])[H])C([H])([H])[H])C([H])(C(=O)N([H])C3([H])c5c([H])c([H])c([H])c([H])c5C([H])([H])C([H])([H])C3([H])[H])C4([H])[H])C([H])([H])C2([H])[H])c([H])c1C([H])([H])[H]

$$$$
29:0:0
     RDKit          3D

107115  0  0  1  0  0  0  0  0999 V2000
  -28.1970  -14.3610   22.1010 C   0  0  0  0  0  2  0  0  0  0  0  0
  -28.3320  -12.7650   21.7190 C   0  0  0  0  0  3  0  0  0  0  0  0
  -29.8430  -14.4680   19.5100 C   0  0  0  0  0  2  0  0  0  0  0  0
  -29.2960  -15.8940   20.1630 C   0  0  0  0  0  3  0  0  0  0  0  0
  -29.0500  -15.6460   21.5550 C   0  0  0  0  0  3  0  0  0  0  0  0
  -29.2800  -12.4100   20.3340 C   0  0  0  0  0  3  0  0  0  0  0  0
  -30.4800  -15.1680   18.2180 C   0  0  0  0  0  0  0  0  0  0  0  0
  -29.6360  -17.6840   19.7930 C   0  0  0  0  0  2  0  0  0  0  0  0
  -31.0150  -17.5770   19.0860 C   0  0  0  0  0  3  0  0  0  0  0  0
  -31.2960  -16.2990   18.3000 N   0  0  0  0  0  0  0  0  0  0  0  0
  -30.1350  -14.8380   17.0850 O   0  0  0  0  0  0  0  0  0  0  0  0
  -31.7750  -14.9280   21.2130 C   0  0  2  0  0  0  0  0  0  0  0  0
  -31.6480  -12.6050   19.5020 C   0  0  0  0  0  3  0  0  0  0  0  0
  -30.3520  -12.2970   18.1930 C   0  0  0  0  0  3  0  0  0  0  0  0
  -28.5200  -12.7750   18.2040 C   0  0  0  0  0  2  0  0  0  0  0  0
  -27.7780  -13.7590   19.6960 C   0  0  0  0  0  2  0  0  0  0  0  0
  -30.4200  -13.6680   21.6660 C   0  0  0  0  0  2  0  0  0  0  0  0
  -31.6030  -13.5460   20.9300 N   0  0  0  0  0  0  0  0  0  0  0  0
  -32.8000  -15.3100   20.6940 O   0  0  0  0  0  1  0  0  0  0  0  0
  -30.6570  -15.8750   21.7030 N   0  0  0  0  0  0  0  0  0  0  0  0
  -30.9510  -16.8290   21.8310 H   0  0  0  0  0  0  0  0  0  0  0  0
  -25.5260  -13.8250   20.3640 C   0  0  0  0  0  0  0  0  0  0  0  0
  -24.5830  -12.9290   20.6780 C   0  0  0  0  0  0  0  0  0  0  0  0
  -25.1640  -11.6210   20.6520 C   0  0  0  0  0  0  0  0  0  0  0  0
  -26.5540  -13.0740   20.0070 N   0  0  0  0  0  0  0  0  0  0  0  0
  -26.4000  -11.7150   20.2030 N   0  0  0  0  0  0  0  0  0  0  0  0
  -24.5460  -10.3110   20.8680 C   0  0  0  0  0  0  0  0  0  0  0  0
  -24.9890   -9.3860   21.8450 C   0  0  0  0  0  3  0  0  0  0  0  0
  -24.2910   -8.1700   22.0380 C   0  0  0  0  0  3  0  0  0  0  0  0
  -23.1480   -7.8790   21.2520 C   0  0  0  0  0  0  0  0  0  0  0  0
  -22.7370   -8.7900   20.2700 C   0  0  0  0  0  3  0  0  0  0  0  0
  -23.4290   -9.9910   20.0750 C   0  0  0  0  0  3  0  0  0  0  0  0
  -22.4160   -6.7190   21.3380 O   0  0  0  0  0  0  0  0  0  0  0  0
  -22.2300   -6.0640   22.5280 C   0  0  0  0  0  0  0  0  0  0  0  0
  -21.6070   -6.6800   23.6350 C   0  0  0  0  0  3  0  0  0  0  0  0
  -21.3800   -5.9420   24.8140 C   0  0  0  0  0  3  0  0  0  0  0  0
  -21.7610   -4.5880   24.8820 C   0  0  0  0  0  0  0  0  0  0  0  0
  -22.3730   -3.9720   23.7760 C   0  0  0  0  0  3  0  0  0  0  0  0
  -22.6010   -4.7090   22.6010 C   0  0  0  0  0  0  0  0  0  0  0  0
  -23.1700   -4.1050   21.5310 F   0  0  0  0  0  0  0  0  0  0  0  0
  -21.5360   -3.8760   26.0110 F   0  0  0  0  0  0  0  0  0  0  0  0
  -23.1790  -13.3280   20.8400 C   0  0  0  0  0  0  0  0  0  0  0  0
  -22.4600  -12.6500   21.7080 N   0  0  0  0  0  0  0  0  0  0  0  0
  -22.7450  -14.2930   20.2120 O   0  0  0  0  0  0  0  0  0  0  0  0
  -22.8530  -11.8830   22.2290 H   0  0  0  0  0  0  0  0  0  0  0  0
  -21.4930  -12.9060   21.8580 H   0  0  0  0  0  0  0  0  0  0  0  0
  -25.6050  -15.2150   20.3020 N   0  0  0  0  0  0  0  0  0  0  0  0
  -24.8000  -15.8110   20.4630 H   0  0  0  0  0  0  0  0  0  0  0  0
  -26.4610  -15.7270   20.1350 H   0  0  0  0  0  0  0  0  0  0  0  0
  -29.6500  -20.8640   20.6060 C   0  0  0  0  0  2  0  0  0  0  0  0
  -29.6050  -22.5720   20.3270 C   0  0  0  0  0  2  0  0  0  0  0  0
  -27.7770  -20.5650   19.3640 C   0  0  0  0  0  2  0  0  0  0  0  0
  -29.1150  -19.5800   19.6420 C   0  0  0  0  0  2  0  0  0  0  0  0
  -27.7940  -22.2920   18.9980 C   0  0  0  0  0  3  0  0  0  0  0  0
  -28.2970  -23.5790   20.0160 C   0  0  0  0  0  3  0  0  0  0  0  0
  -26.4170  -22.6300   18.4050 C   0  0  0  0  0  1  0  0  0  0  0  0
  -28.4440  -25.3390   19.9270 O   0  0  0  0  0  0  0  0  0  0  0  0
  -24.9330  -31.5890   23.0090 C   0  0  0  0  0  0  0  0  0  0  0  0
  -27.5100  -26.5640   19.9700 C   0  0  0  0  0  0  0  0  0  0  0  0
  -23.8130  -30.2230   21.3070 C   0  0  0  0  0  3  0  0  0  0  0  0
  -25.3010  -28.6200   19.9090 C   0  0  0  0  0  0  0  0  0  0  0  0
  -26.3980  -30.3660   21.2820 C   0  0  0  0  0  2  0  0  0  0  0  0
  -26.4770  -28.9490   20.5910 C   0  0  0  0  0  0  0  0  0  0  0  0
  -27.5820  -27.9470   20.5870 C   0  0  0  0  0  3  0  0  0  0  0  0
  -26.3110  -26.4590   19.2410 C   0  0  0  0  0  3  0  0  0  0  0  0
  -25.2570  -27.4050   19.2100 C   0  0  0  0  0  3  0  0  0  0  0  0
  -24.1020  -29.5740   19.9280 C   0  0  0  0  0  2  0  0  0  0  0  0
  -25.0730  -30.7610   21.9200 N   0  0  0  0  0  0  0  0  0  0  0  0
  -23.8200  -31.8730   23.4830 O   0  0  0  0  0  0  0  0  0  0  0  0
  -23.0750  -29.2140   22.2280 C   0  0  0  0  0  0  0  0  0  0  0  0
  -21.7390  -29.0970   22.0950 N   0  0  0  0  0  0  0  0  0  0  0  0
  -23.7130  -28.5330   23.0350 O   0  0  0  0  0  0  0  0  0  0  0  0
  -21.2740  -29.6970   21.4270 H   0  0  0  0  0  0  0  0  0  0  0  0
  -18.3040  -28.0800   22.6980 C   0  0  0  0  0  0  0  0  0  0  0  0
  -20.8890  -28.1490   22.8250 C   0  0  0  0  0  3  0  0  0  0  0  0
  -20.8540  -26.7750   22.1170 C   0  0  0  0  0  2  0  0  0  0  0  0
  -19.6760  -26.6260   21.1460 C   0  0  0  0  0  2  0  0  0  0  0  0
  -18.3440  -26.7980   21.8830 C   0  0  0  0  0  2  0  0  0  0  0  0
  -19.4970  -28.7220   23.1270 C   0  0  0  0  0  0  0  0  0  0  0  0
  -19.3990  -29.9250   23.8570 C   0  0  0  0  0  3  0  0  0  0  0  0
  -18.1430  -30.4860   24.1590 C   0  0  0  0  0  3  0  0  0  0  0  0
  -16.9650  -29.8410   23.7410 C   0  0  0  0  0  3  0  0  0  0  0  0
  -17.0480  -28.6400   23.0150 C   0  0  0  0  0  3  0  0  0  0  0  0
  -26.1660  -32.2410   23.7080 C   0  0  0  0  0  3  0  0  0  0  0  0
  -25.8060  -33.6210   24.0870 N   0  0  0  0  0  0  0  0  0  0  0  0
  -26.1050  -34.7200   23.3810 C   0  0  0  0  0  0  0  0  0  0  0  0
  -26.7710  -34.6780   22.3430 O   0  0  0  0  0  0  0  0  0  0  0  0
  -25.2140  -33.7240   24.8990 H   0  0  0  0  0  0  0  0  0  0  0  0
  -24.3400  -36.5000   23.1120 C   0  0  0  0  0  1  0  0  0  0  0  0
  -25.5880  -36.0780   23.9040 C   0  0  0  0  0  3  0  0  0  0  0  0
  -27.6920  -36.9850   24.7960 C   0  0  0  0  0  1  0  0  0  0  0  0
  -26.5990  -37.1590   23.8430 N   0  0  0  0  0  0  0  0  0  0  0  0
  -26.1690  -38.0640   24.0130 H   0  0  0  0  0  0  0  0  0  0  0  0
  -26.6400  -31.4450   24.9890 C   0  0  1  0  0  0  0  0  0  0  0  0
  -25.5050  -31.1630   26.0010 C   0  0  0  0  0  1  0  0  0  0  0  0
  -27.2650  -30.0880   24.6000 C   0  0  0  0  0  1  0  0  0  0  0  0
  -27.7460  -32.2410   25.7220 C   0  0  0  0  0  1  0  0  0  0  0  0
  -31.5250  -17.2590   15.9100 C   0  0  0  0  0  1  0  0  0  0  0  0
  -33.1000  -15.4270   16.7600 C   0  0  0  0  0  1  0  0  0  0  0  0
  -32.2060  -16.6180   17.1420 C   0  0  0  0  0  3  0  0  0  0  0  0
  -32.1010  -18.6590   21.3740 C   0  0  0  0  0  1  0  0  0  0  0  0
  -32.2170  -18.2740   19.8690 C   0  0  0  0  0  3  0  0  0  0  0  0
  -33.4430  -17.5760   19.7840 O   0  0  0  0  0  0  0  0  0  0  0  0
  -33.2810  -16.7080   20.1640 H   0  0  0  0  0  0  0  0  0  0  0  0
  -29.5450  -11.0640   20.0680 O   0  0  0  0  0  0  0  0  0  0  0  0
  -29.7300   -8.7310   20.7230 C   0  0  0  0  0  1  0  0  0  0  0  0
  -29.2980  -10.1410   21.1260 C   0  0  0  0  0  2  0  0  0  0  0  0
  2  1  1  0
  3  4  1  0
  4  5  1  0
  5 20  1  0
  5  1  1  0
  6  2  2  0
  7 10  1  0
  7  3  1  0
  8  4  1  0
  9  8  1  0
  9102  1  0
 10  9  1  0
 11  7  2  0
 12 19  1  6
 12 17  1  0
 12 20  1  0
 13 18  1  0
 14 15  1  0
 14 13  2  0
 15 16  1  0
 16 25  1  0
 18 12  1  0
 18 17  1  0
 20 21  1  0
 22 23  2  0
 23 42  1  0
 24 23  1  0
 24 27  1  0
 25 26  1  0
 25 22  1  0
 26 24  2  0
 27 28  1  0
 28 29  2  0
 30 33  1  0
 30 29  1  0
 31 30  2  0
 32 31  1  0
 32 27  2  0
 33 34  1  0
 34 39  2  0
 34 35  1  0
 35 36  2  0
 36 37  1  0
 37 41  1  0
 38 37  2  0
 39 38  1  0
 40 39  1  0
 42 43  1  0
 43 46  1  0
 43 45  1  0
 44 42  2  0
 47 22  1  0
 47 48  1  0
 49 47  1  0
 51 50  1  0
 52 53  1  0
 53 50  1  0
 54 56  1  0
 54 52  1  0
 54 55  1  0
 55 57  1  0
 55 51  1  0
 57 59  1  0
 58 69  2  0
 59 64  1  0
 60 68  1  0
 60 70  1  0
 61 67  1  0
 61 63  1  0
 62 68  1  0
 63 62  1  0
 64 63  2  0
 65 59  2  0
 66 65  1  0
 66 61  2  0
 67 60  1  0
 68 58  1  0
 70 72  2  0
 71 70  1  0
 73 71  1  0
 74 83  2  0
 74 79  1  0
 75 71  1  0
 75 79  1  0
 76 75  1  0
 77 78  1  0
 77 76  1  0
 78 74  1  0
 79 80  2  0
 80 81  1  0
 82 81  2  0
 83 82  1  0
 84 58  1  0
 84 85  1  0
 84 94  1  0
 85 88  1  0
 86 90  1  0
 86 85  1  0
 87 86  2  0
 90 89  1  0
 92 90  1  0
 92 93  1  0
 92 91  1  0
 94 97  1  1
 94 95  1  0
 96 94  1  0
 98100  1  0
 99100  1  0
100 10  1  0
102101  1  0
103102  1  0
103104  1  0
105  6  1  0
105107  1  0
106107  1  0
M  ISO  4  12 100  20 100  55 101  57 101
M  END
>  <TORSDO>  (30) 
F 22

>  <SCORE>  (30) 
-10.129

>  <name>  (30) 
29

>  <ligand_id>  (30) 
29

>  <original_smiles>  (30) 
[H]OC([H])(C([H])([H])[H])C1([H])N(C([H])(C([H])([H])[H])C([H])([H])[H])C(=O)c2c(OC([H])([H])C([H])([H])[H])c([H])c([H])c(N([H])C(=O)N3C([H])([H])C([H])([H])C([H])([H])C([H])(n4nc(-c5c([H])c([H])c(Oc6c([H])c([H])c(F)c([H])c6F)c([H])c5[H])c(C(=O)N([H])[H])c4N([H])[H])C3([H])[H])c2C1([H])C1([H])C([H])([H])C([H])([H])C([H])(Oc2c([H])c([H])c3c(c2[H])C([H])([H])N(C(=O)C([H])(N([H])C(=O)C([H])(N([H])C([H])([H])[H])C([H])([H])[H])C(C([H])([H])[H])(C([H])([H])[H])C([H])([H])[H])C([H])(C(=O)N([H])C2([H])c4c([H])c([H])c([H])c([H])c4C([H])([H])C([H])([H])C2([H])[H])C3([H])[H])C([H])(C([H])([H])[H])C1([H])[H]

>  <smiles>  (30) 
[H]OC([H])(C([H])([H])[H])C1([H])N(C([H])(C([H])([H])[H])C([H])([H])[H])C(=O)c2c(OC([H])([H])C([H])([H])[H])c([H])c([H])c(N([H])C(=O)N3C([H])([H])C([H])([H])C([H])([H])C([H])(n4nc(-c5c([H])c([H])c(Oc6c([H])c([H])c(F)c([H])c6F)c([H])c5[H])c(C(=O)N([H])[H])c4N([H])[H])C3([H])[H])c2C1([H])C1([H])C([H])([H])C([H])([H])C([H])(Oc2c([H])c([H])c3c(c2[H])C([H])([H])N(C(=O)C([H])(N([H])C(=O)C([H])(N([H])C([H])([H])[H])C([H])([H])[H])C(C([H])([H])[H])(C([H])([H])[H])C([H])([H])[H])C([H])(C(=O)N([H])C2([H])c4c([H])c([H])c([H])c([H])c4C([H])([H])C([H])([H])C2([H])[H])C3([H])[H])C([H])(C([H])([H])[H])C1([H])[H]

$$$$
30:0:0
     RDKit          3D

 95103  0  0  1  0  0  0  0  0999 V2000
  -28.8290  -19.3940   19.5430 C   0  0  0  0  0  2  0  0  0  0  0  0
  -30.9880  -14.8360   20.6540 C   0  0  0  0  0  3  0  0  0  0  0  0
  -29.2940  -15.1380   19.1760 C   0  0  0  0  0  3  0  0  0  0  0  0
  -30.3990  -14.3600   19.5040 C   0  0  0  0  0  3  0  0  0  0  0  0
  -30.4450  -17.0860   21.2670 C   0  0  0  0  0  2  0  0  0  0  0  0
  -28.7460  -16.5850   19.5240 C   0  0  0  0  0  0  0  0  0  0  0  0
  -29.2510  -17.7090   20.3610 C   0  0  0  0  0  3  0  0  0  0  0  0
  -31.4040  -18.3570   22.1390 C   0  0  0  0  0  1  0  0  0  0  0  0
  -27.5150  -16.6310   18.5850 C   0  0  0  0  0  1  0  0  0  0  0  0
  -31.6380  -13.8120   18.6030 C   0  0  0  0  0  2  0  0  0  0  0  0
  -33.3070  -12.8430   20.6910 C   0  0  0  0  0  0  0  0  0  0  0  0
  -31.9210  -11.2200   21.6790 C   0  0  0  0  0  2  0  0  0  0  0  0
  -30.3320  -10.7480   21.5230 C   0  0  0  0  0  2  0  0  0  0  0  0
  -29.1330  -11.5770   22.1420 C   0  0  0  0  0  2  0  0  0  0  0  0
  -28.5670  -12.9530   21.6300 C   0  0  0  0  0  2  0  0  0  0  0  0
  -31.8950  -14.2530   21.5550 C   0  0  0  0  0  3  0  0  0  0  0  0
  -32.4280  -12.7110   21.6330 N   0  0  0  0  0  0  0  0  0  0  0  0
  -34.3040  -12.5090   21.2470 O   0  0  0  0  0  0  0  0  0  0  0  0
  -32.9900  -13.3370   19.3010 N   0  0  0  0  0  0  0  0  0  0  0  0
  -33.7670  -13.7470   18.6520 H   0  0  0  0  0  0  0  0  0  0  0  0
  -26.3060  -13.2530   21.7530 C   0  0  0  0  0  0  0  0  0  0  0  0
  -25.2020  -12.5340   21.8290 C   0  0  0  0  0  0  0  0  0  0  0  0
  -25.4890  -11.2190   21.3760 C   0  0  0  0  0  0  0  0  0  0  0  0
  -27.2540  -12.4690   21.3040 N   0  0  0  0  0  0  0  0  0  0  0  0
  -26.7740  -11.1000   21.0440 N   0  0  0  0  0  0  0  0  0  0  0  0
  -24.6020  -10.1030   21.2450 C   0  0  0  0  0  0  0  0  0  0  0  0
  -24.6650   -8.9170   22.0300 C   0  0  0  0  0  3  0  0  0  0  0  0
  -23.7570   -7.9090   21.7640 C   0  0  0  0  0  3  0  0  0  0  0  0
  -22.7500   -8.0060   20.7840 C   0  0  0  0  0  0  0  0  0  0  0  0
  -22.6890   -9.1900   20.0680 C   0  0  0  0  0  3  0  0  0  0  0  0
  -23.5610  -10.2520   20.3060 C   0  0  0  0  0  3  0  0  0  0  0  0
  -21.8160   -7.0730   20.4200 O   0  0  0  0  0  0  0  0  0  0  0  0
  -21.3110   -6.1190   21.2980 C   0  0  0  0  0  0  0  0  0  0  0  0
  -20.5650   -6.4740   22.4400 C   0  0  0  0  0  3  0  0  0  0  0  0
  -19.9830   -5.4410   23.2470 C   0  0  0  0  0  3  0  0  0  0  0  0
  -20.1820   -4.0820   22.8930 C   0  0  0  0  0  0  0  0  0  0  0  0
  -20.9500   -3.7650   21.7290 C   0  0  0  0  0  3  0  0  0  0  0  0
  -21.4780   -4.7770   20.9590 C   0  0  0  0  0  0  0  0  0  0  0  0
  -22.1600   -4.4470   19.8200 F   0  0  0  0  0  0  0  0  0  0  0  0
  -19.6220   -3.1080   23.6430 F   0  0  0  0  0  0  0  0  0  0  0  0
  -23.9040  -13.1180   22.1300 C   0  0  0  0  0  0  0  0  0  0  0  0
  -23.0700  -12.3030   22.6730 N   0  0  0  0  0  0  0  0  0  0  0  0
  -23.6920  -14.2970   21.8860 O   0  0  0  0  0  0  0  0  0  0  0  0
  -23.3010  -11.3440   22.9210 H   0  0  0  0  0  0  0  0  0  0  0  0
  -22.0810  -12.5360   22.7220 H   0  0  0  0  0  0  0  0  0  0  0  0
  -26.6300  -14.6320   21.9120 N   0  0  0  0  0  0  0  0  0  0  0  0
  -25.9040  -15.2970   22.1760 H   0  0  0  0  0  0  0  0  0  0  0  0
  -27.2070  -15.1660   21.1760 H   0  0  0  0  0  0  0  0  0  0  0  0
  -26.5480  -22.3310   19.0070 C   0  0  0  0  0  2  0  0  0  0  0  0
  -26.6920  -20.8620   18.9430 C   0  0  0  0  0  2  0  0  0  0  0  0
  -28.0120  -22.6150   19.1680 C   0  0  0  0  0  3  0  0  0  0  0  0
  -27.9580  -20.8850   19.7680 N   0  0  2  0  0  4  0  0  0  0  0  0
  -27.7780  -20.9560   20.7310 H   0  0  0  0  0  0  0  0  0  0  0  0
  -28.1210  -24.3520   19.9260 C   0  0  0  0  0  2  0  0  0  0  0  0
  -28.0980  -26.0290   19.5510 O   0  0  0  0  0  0  0  0  0  0  0  0
  -24.5140  -31.9350   23.3290 C   0  0  0  0  0  0  0  0  0  0  0  0
  -27.1310  -27.1980   19.8040 C   0  0  0  0  0  0  0  0  0  0  0  0
  -23.4170  -30.6040   21.5560 C   0  0  0  0  0  3  0  0  0  0  0  0
  -24.8720  -29.1640   20.0590 C   0  0  0  0  0  0  0  0  0  0  0  0
  -26.0000  -30.8070   21.5190 C   0  0  0  0  0  2  0  0  0  0  0  0
  -26.0960  -29.4670   20.6800 C   0  0  0  0  0  0  0  0  0  0  0  0
  -27.2310  -28.5320   20.5040 C   0  0  0  0  0  3  0  0  0  0  0  0
  -25.8870  -27.0840   19.1470 C   0  0  0  0  0  3  0  0  0  0  0  0
  -24.8120  -28.0110   19.2510 C   0  0  0  0  0  3  0  0  0  0  0  0
  -23.6760  -30.1200   20.1430 C   0  0  0  0  0  2  0  0  0  0  0  0
  -24.6650  -31.1530   22.1910 N   0  0  0  0  0  0  0  0  0  0  0  0
  -23.3860  -32.1630   23.8070 O   0  0  0  0  0  0  0  0  0  0  0  0
  -22.7270  -29.5120   22.4250 C   0  0  0  0  0  0  0  0  0  0  0  0
  -21.3970  -29.3490   22.2970 N   0  0  0  0  0  0  0  0  0  0  0  0
  -23.3910  -28.8780   23.2480 O   0  0  0  0  0  0  0  0  0  0  0  0
  -20.9160  -29.9460   21.6420 H   0  0  0  0  0  0  0  0  0  0  0  0
  -18.0480  -27.9980   22.6430 C   0  0  0  0  0  0  0  0  0  0  0  0
  -20.5920  -28.3230   22.9770 C   0  0  0  0  0  3  0  0  0  0  0  0
  -20.7530  -26.9370   22.3090 C   0  0  0  0  0  2  0  0  0  0  0  0
  -19.6750  -26.6420   21.2610 C   0  0  0  0  0  2  0  0  0  0  0  0
  -18.2790  -26.7050   21.8830 C   0  0  0  0  0  2  0  0  0  0  0  0
  -19.1340  -28.7660   23.1390 C   0  0  0  0  0  0  0  0  0  0  0  0
  -18.8470  -29.9690   23.8160 C   0  0  0  0  0  3  0  0  0  0  0  0
  -17.5200  -30.3980   24.0120 C   0  0  0  0  0  3  0  0  0  0  0  0
  -16.4520  -29.6180   23.5390 C   0  0  0  0  0  3  0  0  0  0  0  0
  -16.7160  -28.4260   22.8400 C   0  0  0  0  0  3  0  0  0  0  0  0
  -25.7220  -32.6260   24.0320 C   0  0  0  0  0  3  0  0  0  0  0  0
  -26.1240  -31.9280   25.3870 C   0  0  1  0  0  0  0  0  0  0  0  0
  -24.9480  -31.7420   26.3780 C   0  0  0  0  0  1  0  0  0  0  0  0
  -26.7550  -30.5450   25.1420 C   0  0  0  0  0  1  0  0  0  0  0  0
  -27.2080  -32.7750   26.1040 C   0  0  0  0  0  1  0  0  0  0  0  0
  -25.3660  -34.0400   24.2970 N   0  0  0  0  0  0  0  0  0  0  0  0
  -25.8300  -35.1010   23.6250 C   0  0  0  0  0  0  0  0  0  0  0  0
  -26.6370  -34.9820   22.7030 O   0  0  0  0  0  0  0  0  0  0  0  0
  -24.6850  -34.2010   25.0260 H   0  0  0  0  0  0  0  0  0  0  0  0
  -24.2360  -36.9440   23.0010 C   0  0  0  0  0  1  0  0  0  0  0  0
  -25.3020  -36.4990   24.0200 C   0  0  0  0  0  3  0  0  0  0  0  0
  -27.2680  -37.2840   25.2580 C   0  0  0  0  0  1  0  0  0  0  0  0
  -26.3580  -37.5130   24.1470 N   0  0  0  0  0  0  0  0  0  0  0  0
  -25.9640  -38.4390   24.2430 H   0  0  0  0  0  0  0  0  0  0  0  0
  1 52  1  0
  2 16  2  0
  3  6  2  0
  4  3  1  0
  4  2  1  0
  5  8  1  0
  6  7  1  0
  7  1  1  0
  7  5  1  0
  9  6  1  0
 10 19  1  0
 10  4  1  0
 11 18  2  0
 11 17  1  0
 13 12  1  0
 13 14  1  0
 15 14  1  0
 16 17  1  0
 17 12  1  0
 19 11  1  0
 20 19  1  0
 21 22  2  0
 21 46  1  0
 22 41  1  0
 23 22  1  0
 24 15  1  0
 24 21  1  0
 25 24  1  0
 25 23  2  0
 26 23  1  0
 26 27  1  0
 28 27  2  0
 29 28  1  0
 30 31  1  0
 30 29  2  0
 31 26  2  0
 32 29  1  0
 32 33  1  0
 33 34  1  0
 34 35  2  0
 36 35  1  0
 36 40  1  0
 37 36  2  0
 38 33  2  0
 38 37  1  0
 39 38  1  0
 41 42  1  0
 42 45  1  0
 42 44  1  0
 43 41  2  0
 46 47  1  0
 48 46  1  0
 49 51  1  0
 50 49  1  0
 50 52  1  0
 51 52  1  0
 51 54  1  0
 52 53  1  1
 55 57  1  0
 55 54  1  0
 56 67  2  0
 57 62  1  0
 58 66  1  0
 58 68  1  0
 59 65  1  0
 59 61  1  0
 60 66  1  0
 61 60  1  0
 62 61  2  0
 63 64  1  0
 63 57  2  0
 64 59  2  0
 65 58  1  0
 66 56  1  0
 68 70  2  0
 69 68  1  0
 71 69  1  0
 72 81  2  0
 72 77  1  0
 73 69  1  0
 73 77  1  0
 74 73  1  0
 75 76  1  0
 75 74  1  0
 76 72  1  0
 77 78  2  0
 78 79  1  0
 80 79  2  0
 81 80  1  0
 82 56  1  0
 82 87  1  0
 82 83  1  0
 83 86  1  1
 83 84  1  0
 85 83  1  0
 87 90  1  0
 88 92  1  0
 88 87  1  0
 89 88  2  0
 92 91  1  0
 92 94  1  0
 94 95  1  0
 94 93  1  0
M  ISO  4  11 100  19 100  54 101  55 101
M  END
>  <TORSDO>  (31) 
F 20

>  <SCORE>  (31) 
-8.301

>  <name>  (31) 
30

>  <ligand_id>  (31) 
30

>  <original_smiles>  (31) 
[H]c1c([H])c([H])c2c(c1[H])C([H])([H])C([H])([H])C([H])([H])C2([H])N([H])C(=O)C1([H])N(C(=O)C([H])(N([H])C(=O)C([H])(N([H])C([H])([H])[H])C([H])([H])[H])C(C([H])([H])[H])(C([H])([H])[H])C([H])([H])[H])C([H])([H])c2c([H])c(OC([H])([H])C3([H])C([H])([H])C([H])([H])[N+]3([H])C([H])([H])c3c(C([H])([H])[H])c([H])c(C([H])([H])N([H])C(=O)N4C([H])([H])C([H])([H])C([H])([H])C([H])(n5nc(-c6c([H])c([H])c(Oc7c([H])c([H])c(F)c([H])c7F)c([H])c6[H])c(C(=O)N([H])[H])c5N([H])[H])C4([H])[H])c([H])c3C([H])([H])[H])c([H])c([H])c2C1([H])[H]

>  <smiles>  (31) 
[H]c1c([H])c([H])c2c(c1[H])C([H])([H])C([H])([H])C([H])([H])C2([H])N([H])C(=O)C1([H])N(C(=O)C([H])(N([H])C(=O)C([H])(N([H])C([H])([H])[H])C([H])([H])[H])C(C([H])([H])[H])(C([H])([H])[H])C([H])([H])[H])C([H])([H])c2c([H])c(OC([H])([H])C3([H])C([H])([H])C([H])([H])[N+]3([H])C([H])([H])c3c(C([H])([H])[H])c([H])c(C([H])([H])N([H])C(=O)N4C([H])([H])C([H])([H])C([H])([H])C([H])(n5nc(-c6c([H])c([H])c(Oc7c([H])c([H])c(F)c([H])c7F)c([H])c6[H])c(C(=O)N([H])[H])c5N([H])[H])C4([H])[H])c([H])c3C([H])([H])[H])c([H])c([H])c2C1([H])[H]

$$$$
31:0:0
     RDKit          3D

101111  0  0  1  0  0  0  0  0999 V2000
  -28.7370  -20.6960   21.1380 C   0  0  0  0  0  3  0  0  0  0  0  0
  -29.6220  -20.1780   20.1680 C   0  0  0  0  0  0  0  0  0  0  0  0
  -30.0780  -21.0250   19.1150 C   0  0  0  0  0  0  0  0  0  0  0  0
  -29.6560  -22.3820   19.0720 C   0  0  0  0  0  0  0  0  0  0  0  0
  -28.3510  -22.0480   21.1160 C   0  0  0  0  0  0  0  0  0  0  0  0
  -28.8380  -22.9010   20.1040 C   0  0  0  0  0  0  0  0  0  0  0  0
  -31.0640  -20.4900   18.0650 C   0  0  0  0  0  2  0  0  0  0  0  0
  -30.0210  -23.2730   17.8840 C   0  0  0  0  0  2  0  0  0  0  0  0
  -31.2820  -21.3880   16.8390 C   0  0  0  0  0  2  0  0  0  0  0  0
  -31.3330  -22.8810   17.1900 C   0  0  0  0  0  3  0  0  0  0  0  0
  -27.4180  -22.5860   22.1860 C   0  0  0  0  0  1  0  0  0  0  0  0
  -31.1160  -14.6720   20.3700 C   0  0  0  0  0  0  0  0  0  0  0  0
  -30.7900  -12.4510   19.3850 C   0  0  0  0  0  2  0  0  0  0  0  0
  -29.8800  -12.5900   18.1500 C   0  0  0  0  0  2  0  0  0  0  0  0
  -28.3980  -12.4920   18.5600 C   0  0  0  0  0  2  0  0  0  0  0  0
  -28.0350  -13.4120   19.7580 C   0  0  0  0  0  3  0  0  0  0  0  0
  -29.0730  -13.2910   20.8980 C   0  0  0  0  0  2  0  0  0  0  0  0
  -30.4090  -13.5150   20.3220 N   0  0  0  0  0  0  0  0  0  0  0  0
  -32.2970  -14.7550   20.0150 O   0  0  0  0  0  0  0  0  0  0  0  0
  -30.1680  -18.0930   21.6600 C   0  0  0  0  0  2  0  0  0  0  0  0
  -29.2600  -17.7580   19.4100 C   0  0  0  0  0  2  0  0  0  0  0  0
  -30.8840  -16.7220   21.6000 C   0  0  0  0  0  2  0  0  0  0  0  0
  -30.0580  -16.4580   19.2540 C   0  0  0  0  0  2  0  0  0  0  0  0
  -30.0910  -18.7210   20.2590 C   0  0  0  0  0  3  0  0  0  0  0  0
  -30.3970  -15.8060   20.5400 N   0  0  0  0  0  0  0  0  0  0  0  0
  -25.6490  -14.0800   20.4400 C   0  0  0  0  0  0  0  0  0  0  0  0
  -24.5590  -13.3340   20.7950 C   0  0  0  0  0  0  0  0  0  0  0  0
  -24.9880  -11.9720   20.7740 C   0  0  0  0  0  0  0  0  0  0  0  0
  -26.6750  -13.1710   20.2270 N   0  0  0  0  0  0  0  0  0  0  0  0
  -26.2810  -11.9000   20.4850 N   0  0  0  0  0  0  0  0  0  0  0  0
  -24.2320  -10.7270   20.9580 C   0  0  0  0  0  0  0  0  0  0  0  0
  -24.6040   -9.7750   21.9310 C   0  0  0  0  0  3  0  0  0  0  0  0
  -23.8520   -8.5930   22.1010 C   0  0  0  0  0  3  0  0  0  0  0  0
  -22.7130   -8.3570   21.2960 C   0  0  0  0  0  0  0  0  0  0  0  0
  -22.3610   -9.2970   20.3110 C   0  0  0  0  0  3  0  0  0  0  0  0
  -23.1130  -10.4700   20.1410 C   0  0  0  0  0  3  0  0  0  0  0  0
  -21.9360   -7.2260   21.3730 O   0  0  0  0  0  0  0  0  0  0  0  0
  -21.7750   -6.5430   22.5520 C   0  0  0  0  0  0  0  0  0  0  0  0
  -21.2040   -7.1490   23.6920 C   0  0  0  0  0  3  0  0  0  0  0  0
  -20.9930   -6.3910   24.8600 C   0  0  0  0  0  3  0  0  0  0  0  0
  -21.3430   -5.0270   24.8890 C   0  0  0  0  0  0  0  0  0  0  0  0
  -21.9060   -4.4210   23.7520 C   0  0  0  0  0  3  0  0  0  0  0  0
  -22.1190   -5.1760   22.5860 C   0  0  0  0  0  0  0  0  0  0  0  0
  -22.6430   -4.5830   21.4870 F   0  0  0  0  0  0  0  0  0  0  0  0
  -21.1320   -4.2960   26.0080 F   0  0  0  0  0  0  0  0  0  0  0  0
  -23.1700  -13.8450   21.0490 C   0  0  0  0  0  0  0  0  0  0  0  0
  -22.4180  -13.1720   21.9140 N   0  0  0  0  0  0  0  0  0  0  0  0
  -22.7580  -14.8730   20.5140 O   0  0  0  0  0  0  0  0  0  0  0  0
  -22.7620  -12.3380   22.3670 H   0  0  0  0  0  0  0  0  0  0  0  0
  -21.4850  -13.4960   22.1270 H   0  0  0  0  0  0  0  0  0  0  0  0
  -25.8500  -15.4460   20.2600 N   0  0  0  0  0  0  0  0  0  0  0  0
  -25.1030  -16.1240   20.3650 H   0  0  0  0  0  0  0  0  0  0  0  0
  -26.7280  -15.8600   19.9760 H   0  0  0  0  0  0  0  0  0  0  0  0
  -32.5150  -23.2100   18.0110 N   0  0  0  0  0  4  0  0  0  0  0  0
  -32.4770  -22.7530   18.9050 H   0  0  0  0  0  0  0  0  0  0  0  0
  -32.5680  -24.2010   18.1650 H   0  0  0  0  0  0  0  0  0  0  0  0
  -33.3580  -22.9300   17.5410 H   0  0  0  0  0  0  0  0  0  0  0  0
  -28.5010  -24.2290   20.1300 O   0  0  0  0  0  0  0  0  0  0  0  0
  -29.4520  -25.0340   20.8250 C   0  0  0  0  0  2  0  0  0  0  0  0
  -28.9020  -26.4550   20.9780 C   0  0  0  0  0  2  0  0  0  0  0  0
  -28.5740  -26.9950   19.6970 O   0  0  0  0  0  0  0  0  0  0  0  0
  -24.6110  -31.7820   23.1210 C   0  0  0  0  0  0  0  0  0  0  0  0
  -27.4090  -27.7150   19.7220 C   0  0  0  0  0  0  0  0  0  0  0  0
  -23.4520  -30.4700   21.3690 C   0  0  0  0  0  3  0  0  0  0  0  0
  -24.9600  -29.1010   19.8330 C   0  0  0  0  0  0  0  0  0  0  0  0
  -25.9560  -30.9420   21.2040 C   0  0  0  0  0  2  0  0  0  0  0  0
  -26.0920  -29.6270   20.4690 C   0  0  0  0  0  0  0  0  0  0  0  0
  -27.3210  -28.9370   20.4210 C   0  0  0  0  0  3  0  0  0  0  0  0
  -26.2720  -27.1970   19.0740 C   0  0  0  0  0  3  0  0  0  0  0  0
  -25.0430  -27.8830   19.1320 C   0  0  0  0  0  3  0  0  0  0  0  0
  -23.6830  -29.9020   19.9420 C   0  0  0  0  0  2  0  0  0  0  0  0
  -24.6900  -31.0750   21.9590 N   0  0  0  0  0  0  0  0  0  0  0  0
  -23.5210  -31.9750   23.6780 O   0  0  0  0  0  0  0  0  0  0  0  0
  -22.8360  -29.3580   22.2480 C   0  0  0  0  0  0  0  0  0  0  0  0
  -21.5120  -29.1700   22.1300 N   0  0  0  0  0  0  0  0  0  0  0  0
  -23.5450  -28.6720   22.9880 O   0  0  0  0  0  0  0  0  0  0  0  0
  -21.0020  -29.7810   21.5080 H   0  0  0  0  0  0  0  0  0  0  0  0
  -18.1590  -27.9100   22.5990 C   0  0  0  0  0  0  0  0  0  0  0  0
  -20.7220  -28.1560   22.8270 C   0  0  0  0  0  3  0  0  0  0  0  0
  -20.8140  -26.7900   22.1090 C   0  0  0  0  0  2  0  0  0  0  0  0
  -19.6870  -26.5610   21.0990 C   0  0  0  0  0  2  0  0  0  0  0  0
  -18.3220  -26.6340   21.7910 C   0  0  0  0  0  2  0  0  0  0  0  0
  -19.2870  -28.6340   23.0720 C   0  0  0  0  0  0  0  0  0  0  0  0
  -19.0800  -29.8330   23.7870 C   0  0  0  0  0  3  0  0  0  0  0  0
  -17.7800  -30.3090   24.0340 C   0  0  0  0  0  3  0  0  0  0  0  0
  -16.6670  -29.5820   23.5780 C   0  0  0  0  0  3  0  0  0  0  0  0
  -16.8570  -28.3830   22.8670 C   0  0  0  0  0  3  0  0  0  0  0  0
  -25.8770  -32.4030   23.7910 C   0  0  0  0  0  3  0  0  0  0  0  0
  -26.3670  -31.6000   25.0580 C   0  0  1  0  0  0  0  0  0  0  0  0
  -25.2510  -31.3340   26.0950 C   0  0  0  0  0  1  0  0  0  0  0  0
  -26.9600  -30.2350   24.6400 C   0  0  0  0  0  1  0  0  0  0  0  0
  -27.5010  -32.3790   25.7660 C   0  0  0  0  0  1  0  0  0  0  0  0
  -25.5520  -33.7920   24.1450 N   0  0  0  0  0  0  0  0  0  0  0  0
  -25.9020  -34.8620   23.4190 C   0  0  0  0  0  0  0  0  0  0  0  0
  -26.6030  -34.7850   22.4060 O   0  0  0  0  0  0  0  0  0  0  0  0
  -24.9330  -33.9240   24.9320 H   0  0  0  0  0  0  0  0  0  0  0  0
  -24.1710  -36.6510   23.0570 C   0  0  0  0  0  1  0  0  0  0  0  0
  -25.3930  -36.2370   23.8920 C   0  0  0  0  0  3  0  0  0  0  0  0
  -27.4910  -37.1260   24.8090 C   0  0  0  0  0  1  0  0  0  0  0  0
  -26.4220  -37.2970   23.8290 N   0  0  0  0  0  0  0  0  0  0  0  0
  -26.0040  -38.2120   23.9740 H   0  0  0  0  0  0  0  0  0  0  0  0
  2  1  2  0
  3  2  1  0
  4  3  2  0
  4  6  1  0
  5  1  1  0
  5 11  1  0
  6 58  1  0
  6  5  2  0
  7  3  1  0
  8  4  1  0
  9 10  1  0
  9  7  1  0
 10  8  1  0
 10 54  1  0
 12 25  1  0
 13 18  1  0
 14 15  1  0
 14 13  1  0
 16 15  1  0
 16 29  1  0
 16 17  1  0
 18 12  1  0
 18 17  1  0
 19 12  2  0
 21 24  1  0
 22 20  1  0
 23 21  1  0
 23 25  1  0
 24  2  1  0
 24 20  1  0
 25 22  1  0
 26 27  2  0
 27 46  1  0
 28 27  1  0
 28 31  1  0
 29 26  1  0
 29 30  1  0
 30 28  2  0
 31 32  1  0
 32 33  2  0
 34 37  1  0
 34 33  1  0
 35 34  2  0
 36 35  1  0
 36 31  2  0
 37 38  1  0
 38 43  2  0
 38 39  1  0
 39 40  2  0
 40 41  1  0
 41 45  1  0
 42 41  2  0
 43 42  1  0
 44 43  1  0
 46 47  1  0
 47 50  1  0
 47 49  1  0
 48 46  2  0
 51 52  1  0
 51 26  1  0
 53 51  1  0
 54 56  1  0
 54 55  1  0
 57 54  1  0
 58 59  1  0
 59 60  1  0
 61 63  1  0
 61 60  1  0
 62 73  2  0
 63 68  1  0
 64 72  1  0
 64 74  1  0
 65 71  1  0
 65 67  1  0
 66 72  1  0
 67 66  1  0
 68 67  2  0
 69 70  1  0
 69 63  2  0
 70 65  2  0
 71 64  1  0
 72 62  1  0
 74 76  2  0
 75 74  1  0
 77 75  1  0
 78 87  2  0
 78 83  1  0
 79 75  1  0
 79 83  1  0
 80 79  1  0
 81 82  1  0
 81 80  1  0
 82 78  1  0
 83 84  2  0
 84 85  1  0
 86 85  2  0
 87 86  1  0
 88 62  1  0
 88 93  1  0
 88 89  1  0
 89 92  1  1
 89 90  1  0
 91 89  1  0
 93 96  1  0
 94 98  1  0
 94 93  1  0
 95 94  2  0
 98 97  1  0
100 98  1  0
100101  1  0
100 99  1  0
M  ISO  4  12 100  25 100  60 101  61 101
M  END
>  <TORSDO>  (32) 
F 20

>  <SCORE>  (32) 
-13.317

>  <name>  (32) 
31

>  <ligand_id>  (32) 
31

>  <original_smiles>  (32) 
[H]c1c([H])c([H])c2c(c1[H])C([H])([H])C([H])([H])C([H])([H])C2([H])N([H])C(=O)C1([H])N(C(=O)C([H])(N([H])C(=O)C([H])(N([H])C([H])([H])[H])C([H])([H])[H])C(C([H])([H])[H])(C([H])([H])[H])C([H])([H])[H])C([H])([H])c2c([H])c(OC([H])([H])C([H])([H])Oc3c(C([H])([H])[H])c([H])c(C4([H])C([H])([H])C([H])([H])N(C(=O)N5C([H])([H])C([H])([H])C([H])([H])C([H])(n6nc(-c7c([H])c([H])c(Oc8c([H])c([H])c(F)c([H])c8F)c([H])c7[H])c(C(=O)N([H])[H])c6N([H])[H])C5([H])[H])C([H])([H])C4([H])[H])c4c3C([H])([H])C([H])([N+]([H])([H])[H])C([H])([H])C4([H])[H])c([H])c([H])c2C1([H])[H]

>  <smiles>  (32) 
[H]c1c([H])c([H])c2c(c1[H])C([H])([H])C([H])([H])C([H])([H])C2([H])N([H])C(=O)C1([H])N(C(=O)C([H])(N([H])C(=O)C([H])(N([H])C([H])([H])[H])C([H])([H])[H])C(C([H])([H])[H])(C([H])([H])[H])C([H])([H])[H])C([H])([H])c2c([H])c(OC([H])([H])C([H])([H])Oc3c(C([H])([H])[H])c([H])c(C4([H])C([H])([H])C([H])([H])N(C(=O)N5C([H])([H])C([H])([H])C([H])([H])C([H])(n6nc(-c7c([H])c([H])c(Oc8c([H])c([H])c(F)c([H])c8F)c([H])c7[H])c(C(=O)N([H])[H])c6N([H])[H])C5([H])[H])C([H])([H])C4([H])[H])c4c3C([H])([H])C([H])([N+]([H])([H])[H])C([H])([H])C4([H])[H])c([H])c([H])c2C1([H])[H]

$$$$
32:0:0
     RDKit          3D

 96105  0  0  1  0  0  0  0  0999 V2000
  -29.1070  -22.9480   20.6590 C   0  0  0  0  0  3  0  0  0  0  0  0
  -28.5990  -22.3340   18.0200 C   0  0  0  0  0  3  0  0  0  0  0  0
  -28.6730  -24.0010   19.7900 C   0  0  0  0  0  0  0  0  0  0  0  0
  -29.2640  -21.5670   20.2660 C   0  0  0  0  0  0  0  0  0  0  0  0
  -28.5240  -23.6850   18.4170 C   0  0  0  0  0  0  0  0  0  0  0  0
  -28.8590  -21.2900   18.9380 C   0  0  0  0  0  0  0  0  0  0  0  0
  -28.2730  -24.7320   17.3400 C   0  0  0  0  0  1  0  0  0  0  0  0
  -27.2540  -19.7280   18.3080 C   0  0  0  0  0  1  0  0  0  0  0  0
  -28.6330  -20.0060   18.5290 O   0  0  0  0  0  0  0  0  0  0  0  0
  -28.3590  -25.4040   20.4060 C   0  0  0  0  0  2  0  0  0  0  0  0
  -28.2390  -26.5770   19.5460 O   0  0  0  0  0  0  0  0  0  0  0  0
  -24.5880  -31.7110   22.9700 C   0  0  0  0  0  0  0  0  0  0  0  0
  -27.0800  -27.3370   19.6490 C   0  0  0  0  0  0  0  0  0  0  0  0
  -23.3060  -30.3650   21.3410 C   0  0  0  0  0  3  0  0  0  0  0  0
  -24.6910  -28.8740   19.7970 C   0  0  0  0  0  0  0  0  0  0  0  0
  -25.8220  -30.7270   21.0340 C   0  0  0  0  0  2  0  0  0  0  0  0
  -25.8790  -29.3750   20.3460 C   0  0  0  0  0  0  0  0  0  0  0  0
  -27.0770  -28.6210   20.2560 C   0  0  0  0  0  3  0  0  0  0  0  0
  -25.8720  -26.8560   19.1000 C   0  0  0  0  0  3  0  0  0  0  0  0
  -24.6860  -27.6180   19.1630 C   0  0  0  0  0  3  0  0  0  0  0  0
  -23.4500  -29.7320   19.9300 C   0  0  0  0  0  2  0  0  0  0  0  0
  -24.5930  -30.9480   21.8400 N   0  0  0  0  0  0  0  0  0  0  0  0
  -23.5340  -31.9630   23.5700 O   0  0  0  0  0  0  0  0  0  0  0  0
  -22.6980  -29.3130   22.2960 C   0  0  0  0  0  0  0  0  0  0  0  0
  -21.3730  -29.1140   22.2060 N   0  0  0  0  0  0  0  0  0  0  0  0
  -23.4150  -28.6770   23.0720 O   0  0  0  0  0  0  0  0  0  0  0  0
  -20.8540  -29.6820   21.5520 H   0  0  0  0  0  0  0  0  0  0  0  0
  -18.0370  -27.8230   22.7410 C   0  0  0  0  0  0  0  0  0  0  0  0
  -20.5920  -28.1440   22.9740 C   0  0  0  0  0  3  0  0  0  0  0  0
  -20.7200  -26.7230   22.3750 C   0  0  0  0  0  2  0  0  0  0  0  0
  -19.6100  -26.3880   21.3750 C   0  0  0  0  0  2  0  0  0  0  0  0
  -18.2350  -26.4890   22.0430 C   0  0  0  0  0  2  0  0  0  0  0  0
  -19.1430  -28.6080   23.1630 C   0  0  0  0  0  0  0  0  0  0  0  0
  -18.9010  -29.8580   23.7740 C   0  0  0  0  0  3  0  0  0  0  0  0
  -17.5870  -30.3250   23.9660 C   0  0  0  0  0  3  0  0  0  0  0  0
  -16.4960  -29.5360   23.5590 C   0  0  0  0  0  3  0  0  0  0  0  0
  -16.7220  -28.2860   22.9550 C   0  0  0  0  0  3  0  0  0  0  0  0
  -25.9020  -32.3230   23.5510 C   0  0  0  0  0  3  0  0  0  0  0  0
  -26.5310  -31.4550   24.7100 C   0  0  1  0  0  0  0  0  0  0  0  0
  -25.5220  -31.0700   25.8170 C   0  0  0  0  0  1  0  0  0  0  0  0
  -27.1350  -30.1450   24.1480 C   0  0  0  0  0  1  0  0  0  0  0  0
  -27.6960  -32.2310   25.3700 C   0  0  0  0  0  1  0  0  0  0  0  0
  -25.5890  -33.6770   24.0280 N   0  0  0  0  0  0  0  0  0  0  0  0
  -25.8670  -34.8000   23.3550 C   0  0  0  0  0  0  0  0  0  0  0  0
  -26.4870  -34.8080   22.2880 O   0  0  0  0  0  0  0  0  0  0  0  0
  -25.0360  -33.7430   24.8700 H   0  0  0  0  0  0  0  0  0  0  0  0
  -24.0950  -36.5840   23.2530 C   0  0  0  0  0  1  0  0  0  0  0  0
  -25.3800  -36.1300   23.9640 C   0  0  0  0  0  3  0  0  0  0  0  0
  -27.5400  -36.9710   24.7710 C   0  0  0  0  0  1  0  0  0  0  0  0
  -26.3880  -37.2100   23.9060 N   0  0  0  0  0  0  0  0  0  0  0  0
  -25.9760  -38.1020   24.1670 H   0  0  0  0  0  0  0  0  0  0  0  0
  -29.6340  -20.4110   21.2980 C   0  0  0  0  0  3  0  0  0  0  0  0
  -31.4980  -14.8020   19.9570 C   0  0  0  0  0  0  0  0  0  0  0  0
  -31.0270  -12.6380   18.8410 C   0  0  0  0  0  2  0  0  0  0  0  0
  -30.0010  -12.8570   17.7110 C   0  0  0  0  0  2  0  0  0  0  0  0
  -28.5650  -12.7390   18.2590 C   0  0  0  0  0  2  0  0  0  0  0  0
  -28.3500  -13.5700   19.5530 C   0  0  0  0  0  3  0  0  0  0  0  0
  -29.4930  -13.3520   20.5650 C   0  0  0  0  0  2  0  0  0  0  0  0
  -30.7530  -13.6550   19.8790 N   0  0  0  0  0  0  0  0  0  0  0  0
  -32.6390  -14.8250   19.4860 O   0  0  0  0  0  0  0  0  0  0  0  0
  -30.4030  -18.4750   19.4590 C   0  0  0  0  0  2  0  0  0  0  0  0
  -29.8220  -17.7950   21.7020 C   0  0  0  0  0  2  0  0  0  0  0  0
  -31.2370  -17.1550   19.3130 C   0  0  0  0  0  2  0  0  0  0  0  0
  -30.6670  -16.4900   21.5700 C   0  0  0  0  0  2  0  0  0  0  0  0
  -30.3730  -19.0230   20.9040 C   0  0  0  0  0  3  0  0  0  0  0  0
  -30.8510  -16.0050   20.1850 N   0  0  0  0  0  0  0  0  0  0  0  0
  -26.1020  -14.2200   20.6040 C   0  0  0  0  0  0  0  0  0  0  0  0
  -25.0250  -13.4730   20.9970 C   0  0  0  0  0  0  0  0  0  0  0  0
  -25.3800  -12.1090   20.7560 C   0  0  0  0  0  0  0  0  0  0  0  0
  -27.0460  -13.3120   20.1510 N   0  0  0  0  0  0  0  0  0  0  0  0
  -26.6240  -12.0290   20.3050 N   0  0  0  0  0  0  0  0  0  0  0  0
  -24.5840  -10.8790   20.8740 C   0  0  0  0  0  0  0  0  0  0  0  0
  -24.9480   -9.8450   21.7630 C   0  0  0  0  0  3  0  0  0  0  0  0
  -24.1530   -8.6820   21.8710 C   0  0  0  0  0  3  0  0  0  0  0  0
  -22.9820   -8.5490   21.0890 C   0  0  0  0  0  0  0  0  0  0  0  0
  -22.6380   -9.5720   20.1890 C   0  0  0  0  0  3  0  0  0  0  0  0
  -23.4320  -10.7260   20.0780 C   0  0  0  0  0  3  0  0  0  0  0  0
  -22.1620   -7.4460   21.1120 O   0  0  0  0  0  0  0  0  0  0  0  0
  -21.9410   -6.7370   22.2660 C   0  0  0  0  0  0  0  0  0  0  0  0
  -21.4030   -7.3410   23.4220 C   0  0  0  0  0  3  0  0  0  0  0  0
  -21.1280   -6.5600   24.5610 C   0  0  0  0  0  3  0  0  0  0  0  0
  -21.3770   -5.1750   24.5450 C   0  0  0  0  0  0  0  0  0  0  0  0
  -21.9080   -4.5710   23.3920 C   0  0  0  0  0  3  0  0  0  0  0  0
  -22.1850   -5.3480   22.2540 C   0  0  0  0  0  0  0  0  0  0  0  0
  -22.6750   -4.7560   21.1390 F   0  0  0  0  0  0  0  0  0  0  0  0
  -21.1060   -4.4230   25.6370 F   0  0  0  0  0  0  0  0  0  0  0  0
  -23.7020  -13.9970   21.4770 C   0  0  0  0  0  0  0  0  0  0  0  0
  -23.0380  -13.2630   22.3620 N   0  0  0  0  0  0  0  0  0  0  0  0
  -23.2730  -15.0870   21.1020 O   0  0  0  0  0  0  0  0  0  0  0  0
  -23.3980  -12.3770   22.6830 H   0  0  0  0  0  0  0  0  0  0  0  0
  -22.1540  -13.5910   22.7250 H   0  0  0  0  0  0  0  0  0  0  0  0
  -26.3540  -15.5880   20.5710 N   0  0  0  0  0  0  0  0  0  0  0  0
  -25.6620  -16.2780   20.8440 H   0  0  0  0  0  0  0  0  0  0  0  0
  -27.2150  -16.0010   20.2340 H   0  0  0  0  0  0  0  0  0  0  0  0
  -29.5540  -21.8810   23.4410 C   0  0  0  0  0  1  0  0  0  0  0  0
  -30.4100  -20.9990   22.5190 C   0  0  0  0  0  2  0  0  0  0  0  0
  2  5  2  0
  2  6  1  0
  3 10  1  0
  3  1  2  0
  4  1  1  0
  4 52  1  0
  5  3  1  0
  6  4  2  0
  7  5  1  0
  8  9  1  0
  9  6  1  0
 11 13  1  0
 11 10  1  0
 12 23  2  0
 13 18  1  0
 14 22  1  0
 14 24  1  0
 15 21  1  0
 15 17  1  0
 16 22  1  0
 17 16  1  0
 18 17  2  0
 19 20  1  0
 19 13  2  0
 20 15  2  0
 21 14  1  0
 22 12  1  0
 24 26  2  0
 25 24  1  0
 27 25  1  0
 28 37  2  0
 28 33  1  0
 29 25  1  0
 29 33  1  0
 30 29  1  0
 31 32  1  0
 31 30  1  0
 32 28  1  0
 33 34  2  0
 34 35  1  0
 36 35  2  0
 37 36  1  0
 38 12  1  0
 38 43  1  0
 38 39  1  0
 39 42  1  1
 39 40  1  0
 41 39  1  0
 43 46  1  0
 44 48  1  0
 44 43  1  0
 45 44  2  0
 48 47  1  0
 50 48  1  0
 50 51  1  0
 50 49  1  0
 52 96  1  0
 53 66  1  0
 54 59  1  0
 55 56  1  0
 55 54  1  0
 57 56  1  0
 57 70  1  0
 57 58  1  0
 59 53  1  0
 59 58  1  0
 60 53  2  0
 61 65  1  0
 63 61  1  0
 63 66  1  0
 64 62  1  0
 65 52  1  0
 65 62  1  0
 66 64  1  0
 67 68  2  0
 68 87  1  0
 69 72  1  0
 69 68  1  0
 70 71  1  0
 70 67  1  0
 71 69  2  0
 72 73  1  0
 73 74  2  0
 75 78  1  0
 75 74  1  0
 76 75  2  0
 77 76  1  0
 77 72  2  0
 78 79  1  0
 79 80  1  0
 80 81  2  0
 82 81  1  0
 82 86  1  0
 83 82  2  0
 84 79  2  0
 84 83  1  0
 85 84  1  0
 87 88  1  0
 88 90  1  0
 88 91  1  0
 89 87  2  0
 92 67  1  0
 92 93  1  0
 94 92  1  0
 96 95  1  0
M  ISO  4  10 101  11 101  53 100  66 100
M  END
>  <TORSDO>  (33) 
F 20

>  <SCORE>  (33) 
-12.274

>  <name>  (33) 
32

>  <ligand_id>  (33) 
32

>  <original_smiles>  (33) 
[H]c1c([H])c([H])c2c(c1[H])C([H])([H])C([H])([H])C([H])([H])C2([H])N([H])C(=O)C1([H])N(C(=O)C([H])(N([H])C(=O)C([H])(N([H])C([H])([H])[H])C([H])([H])[H])C(C([H])([H])[H])(C([H])([H])[H])C([H])([H])[H])C([H])([H])c2c([H])c(OC([H])([H])c3c([H])c(C([H])(C([H])([H])C([H])([H])[H])C4([H])C([H])([H])C([H])([H])N(C(=O)N5C([H])([H])C([H])([H])C([H])([H])C([H])(n6nc(-c7c([H])c([H])c(Oc8c([H])c([H])c(F)c([H])c8F)c([H])c7[H])c(C(=O)N([H])[H])c6N([H])[H])C5([H])[H])C([H])([H])C4([H])[H])c(OC([H])([H])[H])c([H])c3C([H])([H])[H])c([H])c([H])c2C1([H])[H]

>  <smiles>  (33) 
[H]c1c([H])c([H])c2c(c1[H])C([H])([H])C([H])([H])C([H])([H])C2([H])N([H])C(=O)C1([H])N(C(=O)C([H])(N([H])C(=O)C([H])(N([H])C([H])([H])[H])C([H])([H])[H])C(C([H])([H])[H])(C([H])([H])[H])C([H])([H])[H])C([H])([H])c2c([H])c(OC([H])([H])c3c([H])c(C([H])(C([H])([H])C([H])([H])[H])C4([H])C([H])([H])C([H])([H])N(C(=O)N5C([H])([H])C([H])([H])C([H])([H])C([H])(n6nc(-c7c([H])c([H])c(Oc8c([H])c([H])c(F)c([H])c8F)c([H])c7[H])c(C(=O)N([H])[H])c6N([H])[H])C5([H])[H])C([H])([H])C4([H])[H])c(OC([H])([H])[H])c([H])c3C([H])([H])[H])c([H])c([H])c2C1([H])[H]

$$$$
33:0:0
     RDKit          3D

 94103  0  0  1  0  0  0  0  0999 V2000
  -28.8290  -23.1940   22.0070 C   0  0  0  0  0  3  0  0  0  0  0  0
  -29.3590  -21.8920   21.8510 C   0  0  0  0  0  3  0  0  0  0  0  0
  -29.2620  -23.6740   19.6820 C   0  0  0  0  0  3  0  0  0  0  0  0
  -28.7930  -24.1210   20.9380 C   0  0  0  0  0  0  0  0  0  0  0  0
  -29.8770  -21.4550   20.6120 C   0  0  0  0  0  0  0  0  0  0  0  0
  -29.8090  -22.3580   19.5100 C   0  0  0  0  0  0  0  0  0  0  0  0
  -30.3440  -22.8120   17.2070 C   0  0  0  0  0  1  0  0  0  0  0  0
  -30.3200  -21.9120   18.3090 O   0  0  0  0  0  0  0  0  0  0  0  0
  -30.6770  -20.1190   20.5430 C   0  0  0  0  0  2  0  0  0  0  0  0
  -30.6630  -14.6670   20.0980 C   0  0  0  0  0  0  0  0  0  0  0  0
  -30.3480  -12.4870   18.9680 C   0  0  0  0  0  2  0  0  0  0  0  0
  -29.3430  -12.6790   17.8120 C   0  0  0  0  0  2  0  0  0  0  0  0
  -27.8960  -12.5090   18.3170 C   0  0  0  0  0  2  0  0  0  0  0  0
  -27.6090  -13.3300   19.6030 C   0  0  0  0  0  3  0  0  0  0  0  0
  -28.7270  -13.1410   20.6550 C   0  0  0  0  0  2  0  0  0  0  0  0
  -30.0060  -13.4720   20.0100 N   0  0  0  0  0  0  0  0  0  0  0  0
  -31.8120  -14.8090   19.6680 O   0  0  0  0  0  0  0  0  0  0  0  0
  -29.6300  -16.4530   21.5370 C   0  0  0  0  0  2  0  0  0  0  0  0
  -29.5570  -16.6590   19.1130 C   0  0  0  0  0  2  0  0  0  0  0  0
  -30.2540  -17.8870   21.6290 C   0  0  0  0  0  2  0  0  0  0  0  0
  -30.2100  -18.0700   19.1950 C   0  0  0  0  0  2  0  0  0  0  0  0
  -29.8680  -15.7710   20.2520 N   0  0  0  0  0  0  0  0  0  0  0  0
  -29.9500  -18.7930   20.4740 N   0  0  2  0  0  4  0  0  0  0  0  0
  -28.9640  -19.0080   20.5060 H   0  0  0  0  0  0  0  0  0  0  0  0
  -25.2540  -13.9040   20.4540 C   0  0  0  0  0  0  0  0  0  0  0  0
  -24.2100  -13.1170   20.8590 C   0  0  0  0  0  0  0  0  0  0  0  0
  -24.6760  -11.7690   20.7750 C   0  0  0  0  0  0  0  0  0  0  0  0
  -26.2890  -13.0330   20.1490 N   0  0  0  0  0  0  0  0  0  0  0  0
  -25.9480  -11.7440   20.4010 N   0  0  0  0  0  0  0  0  0  0  0  0
  -23.9650  -10.4990   20.9710 C   0  0  0  0  0  0  0  0  0  0  0  0
  -24.4240   -9.5330   21.8940 C   0  0  0  0  0  3  0  0  0  0  0  0
  -23.7130   -8.3270   22.0790 C   0  0  0  0  0  3  0  0  0  0  0  0
  -22.5310   -8.0790   21.3420 C   0  0  0  0  0  0  0  0  0  0  0  0
  -22.0920   -9.0340   20.4080 C   0  0  0  0  0  3  0  0  0  0  0  0
  -22.8040  -10.2310   20.2210 C   0  0  0  0  0  3  0  0  0  0  0  0
  -21.7890   -6.9260   21.4380 O   0  0  0  0  0  0  0  0  0  0  0  0
  -21.7280   -6.2040   22.6030 C   0  0  0  0  0  0  0  0  0  0  0  0
  -21.2650   -6.7730   23.8100 C   0  0  0  0  0  3  0  0  0  0  0  0
  -21.1530   -5.9760   24.9660 C   0  0  0  0  0  3  0  0  0  0  0  0
  -21.4950   -4.6110   24.9170 C   0  0  0  0  0  0  0  0  0  0  0  0
  -21.9500   -4.0420   23.7150 C   0  0  0  0  0  3  0  0  0  0  0  0
  -22.0630   -4.8360   22.5610 C   0  0  0  0  0  0  0  0  0  0  0  0
  -22.4830   -4.2770   21.4010 F   0  0  0  0  0  0  0  0  0  0  0  0
  -21.3810   -3.8440   26.0260 F   0  0  0  0  0  0  0  0  0  0  0  0
  -22.8260  -13.5800   21.2110 C   0  0  0  0  0  0  0  0  0  0  0  0
  -22.1450  -12.8600   22.0950 N   0  0  0  0  0  0  0  0  0  0  0  0
  -22.3580  -14.6150   20.7370 O   0  0  0  0  0  0  0  0  0  0  0  0
  -22.5370  -12.0230   22.4990 H   0  0  0  0  0  0  0  0  0  0  0  0
  -21.2170  -13.1490   22.3710 H   0  0  0  0  0  0  0  0  0  0  0  0
  -25.4060  -15.2780   20.3000 N   0  0  0  0  0  0  0  0  0  0  0  0
  -24.6440  -15.9290   20.4580 H   0  0  0  0  0  0  0  0  0  0  0  0
  -26.2420  -15.7240   19.9450 H   0  0  0  0  0  0  0  0  0  0  0  0
  -28.1750  -25.5210   21.2010 C   0  0  0  0  0  2  0  0  0  0  0  0
  -28.4010  -26.6200   20.2700 O   0  0  0  0  0  0  0  0  0  0  0  0
  -24.6030  -31.9250   23.2430 C   0  0  0  0  0  0  0  0  0  0  0  0
  -27.3030  -27.4650   20.1980 C   0  0  0  0  0  0  0  0  0  0  0  0
  -23.4280  -30.5140   21.5880 C   0  0  0  0  0  3  0  0  0  0  0  0
  -24.9120  -28.9920   20.1680 C   0  0  0  0  0  0  0  0  0  0  0  0
  -25.9570  -30.8850   21.4190 C   0  0  0  0  0  2  0  0  0  0  0  0
  -26.0640  -29.5140   20.7750 C   0  0  0  0  0  0  0  0  0  0  0  0
  -27.2670  -28.7580   20.7860 C   0  0  0  0  0  3  0  0  0  0  0  0
  -26.1410  -26.9810   19.5650 C   0  0  0  0  0  3  0  0  0  0  0  0
  -24.9480  -27.7280   19.5560 C   0  0  0  0  0  3  0  0  0  0  0  0
  -23.6590  -29.8410   20.2080 C   0  0  0  0  0  2  0  0  0  0  0  0
  -24.6810  -31.1240   22.1410 N   0  0  0  0  0  0  0  0  0  0  0  0
  -23.5130  -32.1870   23.7710 O   0  0  0  0  0  0  0  0  0  0  0  0
  -22.7730  -29.4870   22.5410 C   0  0  0  0  0  0  0  0  0  0  0  0
  -21.4500  -29.2970   22.4040 N   0  0  0  0  0  0  0  0  0  0  0  0
  -23.4540  -28.8640   23.3600 O   0  0  0  0  0  0  0  0  0  0  0  0
  -20.9610  -29.8530   21.7180 H   0  0  0  0  0  0  0  0  0  0  0  0
  -18.0790  -28.0760   22.8740 C   0  0  0  0  0  0  0  0  0  0  0  0
  -20.6330  -28.3510   23.1650 C   0  0  0  0  0  3  0  0  0  0  0  0
  -20.7490  -26.9220   22.5840 C   0  0  0  0  0  2  0  0  0  0  0  0
  -19.6570  -26.5960   21.5610 C   0  0  0  0  0  2  0  0  0  0  0  0
  -18.2700  -26.7300   22.1940 C   0  0  0  0  0  2  0  0  0  0  0  0
  -19.1890  -28.8440   23.3150 C   0  0  0  0  0  0  0  0  0  0  0  0
  -18.9580  -30.1040   23.9080 C   0  0  0  0  0  3  0  0  0  0  0  0
  -17.6490  -30.5970   24.0640 C   0  0  0  0  0  3  0  0  0  0  0  0
  -16.5530  -29.8260   23.6410 C   0  0  0  0  0  3  0  0  0  0  0  0
  -16.7680  -28.5670   23.0520 C   0  0  0  0  0  3  0  0  0  0  0  0
  -25.8760  -32.5670   23.8770 C   0  0  0  0  0  3  0  0  0  0  0  0
  -26.3810  -31.8070   25.1640 C   0  0  1  0  0  0  0  0  0  0  0  0
  -25.2750  -31.5680   26.2190 C   0  0  0  0  0  1  0  0  0  0  0  0
  -26.9760  -30.4310   24.7860 C   0  0  0  0  0  1  0  0  0  0  0  0
  -27.5190  -32.6090   25.8360 C   0  0  0  0  0  1  0  0  0  0  0  0
  -25.5570  -33.9660   24.1920 N   0  0  0  0  0  0  0  0  0  0  0  0
  -25.8940  -35.0140   23.4290 C   0  0  0  0  0  0  0  0  0  0  0  0
  -26.5780  -34.9060   22.4080 O   0  0  0  0  0  0  0  0  0  0  0  0
  -24.9520  -34.1240   24.9860 H   0  0  0  0  0  0  0  0  0  0  0  0
  -24.1640  -36.7950   23.0340 C   0  0  0  0  0  1  0  0  0  0  0  0
  -25.3930  -36.4040   23.8690 C   0  0  0  0  0  3  0  0  0  0  0  0
  -27.5110  -37.3020   24.7280 C   0  0  0  0  0  1  0  0  0  0  0  0
  -26.4230  -37.4610   23.7660 N   0  0  0  0  0  0  0  0  0  0  0  0
  -26.0110  -38.3810   23.9040 H   0  0  0  0  0  0  0  0  0  0  0  0
  2  1  1  0
  3  4  1  0
  4 53  1  0
  4  1  2  0
  5  2  2  0
  6  3  2  0
  6  5  1  0
  7  8  1  0
  8  6  1  0
  9  5  1  0
 10 22  1  0
 11 16  1  0
 12 13  1  0
 12 11  1  0
 14 13  1  0
 14 28  1  0
 14 15  1  0
 16 10  1  0
 16 15  1  0
 17 10  2  0
 18 20  1  0
 19 21  1  0
 19 22  1  0
 21 23  1  0
 22 18  1  0
 23 24  1  6
 23  9  1  0
 23 20  1  0
 25 26  2  0
 26 45  1  0
 27 26  1  0
 27 30  1  0
 28 29  1  0
 28 25  1  0
 29 27  2  0
 30 31  1  0
 31 32  2  0
 33 36  1  0
 33 32  1  0
 34 33  2  0
 35 34  1  0
 35 30  2  0
 36 37  1  0
 37 38  1  0
 38 39  2  0
 40 39  1  0
 40 44  1  0
 41 40  2  0
 42 37  2  0
 42 41  1  0
 43 42  1  0
 45 46  1  0
 46 49  1  0
 46 48  1  0
 47 45  2  0
 50 25  1  0
 50 51  1  0
 52 50  1  0
 54 53  1  0
 55 66  2  0
 56 54  1  0
 56 61  1  0
 57 65  1  0
 57 67  1  0
 58 64  1  0
 58 60  1  0
 59 65  1  0
 60 61  2  0
 60 59  1  0
 62 56  2  0
 63 62  1  0
 63 58  2  0
 64 57  1  0
 65 55  1  0
 67 69  2  0
 68 67  1  0
 70 68  1  0
 71 80  2  0
 71 76  1  0
 72 68  1  0
 72 76  1  0
 73 72  1  0
 74 75  1  0
 74 73  1  0
 75 71  1  0
 76 77  2  0
 77 78  1  0
 79 78  2  0
 80 79  1  0
 81 55  1  0
 81 86  1  0
 81 82  1  0
 82 85  1  1
 82 83  1  0
 84 82  1  0
 86 89  1  0
 87 91  1  0
 87 86  1  0
 88 87  2  0
 91 90  1  0
 93 91  1  0
 93 94  1  0
 93 92  1  0
M  ISO  4  10 100  22 100  53 101  54 101
M  END
>  <TORSDO>  (34) 
F 19

>  <SCORE>  (34) 
-14.332

>  <name>  (34) 
33

>  <ligand_id>  (34) 
33

>  <original_smiles>  (34) 
[H]c1c([H])c([H])c2c(c1[H])C([H])([H])C([H])([H])C([H])([H])C2([H])N([H])C(=O)C1([H])N(C(=O)C([H])(N([H])C(=O)C([H])(N([H])C([H])([H])[H])C([H])([H])[H])C(C([H])([H])[H])(C([H])([H])[H])C([H])([H])[H])C([H])([H])c2c([H])c(OC([H])([H])c3c([H])c([H])c(C([H])([H])[N+]4([H])C([H])([H])C([H])([H])N(C(=O)N5C([H])([H])C([H])([H])C([H])([H])C([H])(n6nc(-c7c([H])c([H])c(Oc8c([H])c([H])c(F)c([H])c8F)c([H])c7[H])c(C(=O)N([H])[H])c6N([H])[H])C5([H])[H])C([H])([H])C4([H])[H])c(OC([H])([H])[H])c3[H])c([H])c([H])c2C1([H])[H]

>  <smiles>  (34) 
[H]c1c([H])c([H])c2c(c1[H])C([H])([H])C([H])([H])C([H])([H])C2([H])N([H])C(=O)C1([H])N(C(=O)C([H])(N([H])C(=O)C([H])(N([H])C([H])([H])[H])C([H])([H])[H])C(C([H])([H])[H])(C([H])([H])[H])C([H])([H])[H])C([H])([H])c2c([H])c(OC([H])([H])c3c([H])c([H])c(C([H])([H])[N+]4([H])C([H])([H])C([H])([H])N(C(=O)N5C([H])([H])C([H])([H])C([H])([H])C([H])(n6nc(-c7c([H])c([H])c(Oc8c([H])c([H])c(F)c([H])c8F)c([H])c7[H])c(C(=O)N([H])[H])c6N([H])[H])C5([H])[H])C([H])([H])C4([H])[H])c(OC([H])([H])[H])c3[H])c([H])c([H])c2C1([H])[H]

$$$$
34:0:0
     RDKit          3D

 95105  0  0  1  0  0  0  0  0999 V2000
  -31.1260  -18.3270   18.5270 C   0  0  0  0  0  3  0  0  0  0  0  0
  -31.5720  -18.6900   17.2500 C   0  0  0  0  0  3  0  0  0  0  0  0
  -31.0020  -20.9960   17.7460 C   0  0  0  0  0  3  0  0  0  0  0  0
  -30.6380  -19.2780   19.4560 C   0  0  0  0  0  0  0  0  0  0  0  0
  -31.5260  -20.0330   16.8610 C   0  0  0  0  0  0  0  0  0  0  0  0
  -30.5310  -20.6650   19.0540 C   0  0  0  0  0  0  0  0  0  0  0  0
  -32.0320  -20.4300   15.4870 C   0  0  0  0  0  1  0  0  0  0  0  0
  -30.6780  -14.5600   20.4520 C   0  0  0  0  0  0  0  0  0  0  0  0
  -30.3330  -12.3870   19.3040 C   0  0  0  0  0  2  0  0  0  0  0  0
  -29.4030  -12.5450   18.0860 C   0  0  0  0  0  2  0  0  0  0  0  0
  -27.9260  -12.4030   18.5030 C   0  0  0  0  0  2  0  0  0  0  0  0
  -27.5750  -13.2610   19.7440 C   0  0  0  0  0  3  0  0  0  0  0  0
  -28.6260  -13.1080   20.8690 C   0  0  0  0  0  2  0  0  0  0  0  0
  -29.9510  -13.4070   20.3010 N   0  0  0  0  0  0  0  0  0  0  0  0
  -31.8230  -14.6490   20.0030 O   0  0  0  0  0  0  0  0  0  0  0  0
  -28.9520  -17.9270   20.9070 C   0  0  0  0  0  2  0  0  0  0  0  0
  -31.4120  -17.8120   21.4670 C   0  0  0  0  0  2  0  0  0  0  0  0
  -29.0380  -16.4290   20.4640 C   0  0  0  0  0  2  0  0  0  0  0  0
  -30.9340  -16.4390   22.0380 C   0  0  0  0  0  2  0  0  0  0  0  0
  -30.2880  -18.7140   20.8560 C   0  0  0  0  0  3  0  0  0  0  0  0
  -30.1220  -15.6350   21.0960 N   0  0  0  0  0  0  0  0  0  0  0  0
  -25.1770  -13.8790   20.4310 C   0  0  0  0  0  0  0  0  0  0  0  0
  -24.1040  -13.1140   20.8000 C   0  0  0  0  0  0  0  0  0  0  0  0
  -24.5630  -11.7610   20.7950 C   0  0  0  0  0  0  0  0  0  0  0  0
  -26.2220  -12.9920   20.2220 N   0  0  0  0  0  0  0  0  0  0  0  0
  -25.8570  -11.7150   20.5030 N   0  0  0  0  0  0  0  0  0  0  0  0
  -23.8330  -10.5030   20.9930 C   0  0  0  0  0  0  0  0  0  0  0  0
  -24.2560   -9.5450   21.9400 C   0  0  0  0  0  3  0  0  0  0  0  0
  -23.5260   -8.3520   22.1260 C   0  0  0  0  0  3  0  0  0  0  0  0
  -22.3590   -8.1090   21.3630 C   0  0  0  0  0  0  0  0  0  0  0  0
  -21.9570   -9.0550   20.4040 C   0  0  0  0  0  3  0  0  0  0  0  0
  -22.6870  -10.2390   20.2170 C   0  0  0  0  0  3  0  0  0  0  0  0
  -21.6010   -6.9670   21.4590 O   0  0  0  0  0  0  0  0  0  0  0  0
  -21.5470   -6.2330   22.6160 C   0  0  0  0  0  0  0  0  0  0  0  0
  -21.1280   -6.7990   23.8410 C   0  0  0  0  0  3  0  0  0  0  0  0
  -21.0200   -5.9900   24.9890 C   0  0  0  0  0  3  0  0  0  0  0  0
  -21.3230   -4.6180   24.9170 C   0  0  0  0  0  0  0  0  0  0  0  0
  -21.7360   -4.0510   23.6970 C   0  0  0  0  0  3  0  0  0  0  0  0
  -21.8460   -4.8560   22.5510 C   0  0  0  0  0  0  0  0  0  0  0  0
  -22.2240   -4.3010   21.3730 F   0  0  0  0  0  0  0  0  0  0  0  0
  -21.2130   -3.8390   26.0180 F   0  0  0  0  0  0  0  0  0  0  0  0
  -22.7040  -13.5970   21.0470 C   0  0  0  0  0  0  0  0  0  0  0  0
  -21.9620  -12.9130   21.9110 N   0  0  0  0  0  0  0  0  0  0  0  0
  -22.2750  -14.6170   20.5080 O   0  0  0  0  0  0  0  0  0  0  0  0
  -22.3220  -12.0890   22.3700 H   0  0  0  0  0  0  0  0  0  0  0  0
  -21.0220  -13.2190   22.1190 H   0  0  0  0  0  0  0  0  0  0  0  0
  -25.3480  -15.2460   20.2330 N   0  0  0  0  0  0  0  0  0  0  0  0
  -24.5910  -15.9130   20.3320 H   0  0  0  0  0  0  0  0  0  0  0  0
  -26.2080  -15.6700   19.9100 H   0  0  0  0  0  0  0  0  0  0  0  0
  -30.0010  -21.6660   19.8850 O   0  0  0  0  0  0  0  0  0  0  0  0
  -29.8840  -23.0190   19.3380 C   0  0  0  0  0  2  0  0  0  0  0  0
  -27.7620  -24.2140   20.4040 C   0  0  0  0  0  2  0  0  0  0  0  0
  -29.2580  -24.1420   20.2020 C   0  0  0  0  0  3  0  0  0  0  0  0
  -28.4200  -25.2850   19.5620 C   0  0  0  0  0  3  0  0  0  0  0  0
  -28.3980  -26.6110   20.1670 O   0  0  0  0  0  0  0  0  0  0  0  0
  -24.5970  -31.8690   23.2220 C   0  0  0  0  0  0  0  0  0  0  0  0
  -27.2270  -27.3700   20.1280 C   0  0  0  0  0  0  0  0  0  0  0  0
  -23.3850  -30.4710   21.5800 C   0  0  0  0  0  3  0  0  0  0  0  0
  -24.8340  -28.9230   20.1470 C   0  0  0  0  0  0  0  0  0  0  0  0
  -25.9170  -30.8040   21.3880 C   0  0  0  0  0  2  0  0  0  0  0  0
  -25.9960  -29.4290   20.7420 C   0  0  0  0  0  0  0  0  0  0  0  0
  -27.1880  -28.6580   20.7330 C   0  0  0  0  0  3  0  0  0  0  0  0
  -26.0410  -26.9000   19.5170 C   0  0  0  0  0  3  0  0  0  0  0  0
  -24.8550  -27.6630   19.5290 C   0  0  0  0  0  3  0  0  0  0  0  0
  -23.5930  -29.7890   20.2000 C   0  0  0  0  0  2  0  0  0  0  0  0
  -24.6520  -31.0650   22.1200 N   0  0  0  0  0  0  0  0  0  0  0  0
  -23.5190  -32.1470   23.7620 O   0  0  0  0  0  0  0  0  0  0  0  0
  -22.7290  -29.4560   22.5440 C   0  0  0  0  0  0  0  0  0  0  0  0
  -21.4030  -29.2820   22.4230 N   0  0  0  0  0  0  0  0  0  0  0  0
  -23.4120  -28.8270   23.3580 O   0  0  0  0  0  0  0  0  0  0  0  0
  -20.9140  -29.8370   21.7330 H   0  0  0  0  0  0  0  0  0  0  0  0
  -18.0270  -28.0930   22.9180 C   0  0  0  0  0  0  0  0  0  0  0  0
  -20.5830  -28.3460   23.1940 C   0  0  0  0  0  3  0  0  0  0  0  0
  -20.6850  -26.9150   22.6180 C   0  0  0  0  0  2  0  0  0  0  0  0
  -19.5830  -26.5930   21.6050 C   0  0  0  0  0  2  0  0  0  0  0  0
  -18.2010  -26.7430   22.2440 C   0  0  0  0  0  2  0  0  0  0  0  0
  -19.1450  -28.8530   23.3500 C   0  0  0  0  0  0  0  0  0  0  0  0
  -18.9270  -30.1180   23.9390 C   0  0  0  0  0  3  0  0  0  0  0  0
  -17.6230  -30.6200   24.1040 C   0  0  0  0  0  3  0  0  0  0  0  0
  -16.5180  -29.8570   23.6890 C   0  0  0  0  0  3  0  0  0  0  0  0
  -16.7210  -28.5960   23.1010 C   0  0  0  0  0  3  0  0  0  0  0  0
  -25.8880  -32.4950   23.8400 C   0  0  0  0  0  3  0  0  0  0  0  0
  -26.4060  -31.7190   25.1130 C   0  0  1  0  0  0  0  0  0  0  0  0
  -25.3140  -31.4880   26.1830 C   0  0  0  0  0  1  0  0  0  0  0  0
  -26.9760  -30.3400   24.7120 C   0  0  0  0  0  1  0  0  0  0  0  0
  -27.5670  -32.5020   25.7710 C   0  0  0  0  0  1  0  0  0  0  0  0
  -25.5930  -33.8940   24.1780 N   0  0  0  0  0  0  0  0  0  0  0  0
  -25.9220  -34.9470   23.4180 C   0  0  0  0  0  0  0  0  0  0  0  0
  -26.5810  -34.8410   22.3800 O   0  0  0  0  0  0  0  0  0  0  0  0
  -25.0190  -34.0520   24.9940 H   0  0  0  0  0  0  0  0  0  0  0  0
  -24.1960  -36.7390   23.0810 C   0  0  0  0  0  1  0  0  0  0  0  0
  -25.4440  -36.3350   23.8830 C   0  0  0  0  0  3  0  0  0  0  0  0
  -27.5860  -37.2080   24.6980 C   0  0  0  0  0  1  0  0  0  0  0  0
  -26.4790  -37.3840   23.7630 N   0  0  0  0  0  0  0  0  0  0  0  0
  -26.0790  -38.3070   23.9120 H   0  0  0  0  0  0  0  0  0  0  0  0
  1  4  1  0
  2  1  2  0
  3  6  1  0
  5  2  1  0
  5  3  2  0
  6  4  2  0
  6 50  1  0
  7  5  1  0
  8 21  1  0
  9 14  1  0
 10 11  1  0
 10  9  1  0
 12 11  1  0
 12 25  1  0
 12 13  1  0
 14  8  1  0
 14 13  1  0
 15  8  2  0
 17 19  1  0
 18 16  1  0
 18 21  1  0
 20  4  1  0
 20 16  1  0
 20 17  1  0
 21 19  1  0
 22 23  2  0
 23 42  1  0
 24 23  1  0
 24 27  1  0
 25 22  1  0
 25 26  1  0
 26 24  2  0
 27 28  1  0
 28 29  2  0
 30 33  1  0
 30 29  1  0
 31 30  2  0
 32 31  1  0
 32 27  2  0
 33 34  1  0
 34 35  1  0
 35 36  2  0
 37 36  1  0
 37 41  1  0
 38 37  2  0
 39 34  2  0
 39 38  1  0
 40 39  1  0
 42 43  1  0
 43 46  1  0
 43 45  1  0
 44 42  2  0
 47 48  1  0
 47 22  1  0
 49 47  1  0
 51 50  1  0
 53 51  1  0
 53 52  1  0
 54 55  1  0
 54 53  1  0
 54 52  1  0
 56 67  2  0
 57 55  1  0
 57 62  1  0
 58 66  1  0
 58 68  1  0
 59 65  1  0
 59 61  1  0
 60 66  1  0
 61 60  1  0
 62 61  2  0
 63 64  1  0
 63 57  2  0
 64 59  2  0
 65 58  1  0
 66 56  1  0
 68 70  2  0
 69 68  1  0
 71 69  1  0
 72 81  2  0
 72 77  1  0
 73 69  1  0
 73 77  1  0
 74 73  1  0
 75 76  1  0
 75 74  1  0
 76 72  1  0
 77 78  2  0
 78 79  1  0
 80 79  2  0
 81 80  1  0
 82 56  1  0
 82 87  1  0
 82 83  1  0
 83 86  1  1
 83 84  1  0
 85 83  1  0
 87 90  1  0
 88 92  1  0
 88 87  1  0
 89 88  2  0
 92 91  1  0
 94 92  1  0
 94 95  1  0
 94 93  1  0
M  ISO  4   8 100  21 100  54 101  55 101
M  END
>  <TORSDO>  (35) 
F 19

>  <SCORE>  (35) 
-14.435

>  <name>  (35) 
34

>  <ligand_id>  (35) 
34

>  <original_smiles>  (35) 
[H]c1c([H])c([H])c2c(c1[H])C([H])([H])C([H])([H])C([H])([H])C2([H])N([H])C(=O)C1([H])N(C(=O)C([H])(N([H])C(=O)C([H])(N([H])C([H])([H])[H])C([H])([H])[H])C(C([H])([H])[H])(C([H])([H])[H])C([H])([H])[H])C([H])([H])c2c([H])c(OC3([H])C([H])([H])C3([H])C([H])([H])Oc3c([H])c(C([H])([H])[H])c([H])c([H])c3C3([H])C([H])([H])C([H])([H])N(C(=O)N4C([H])([H])C([H])([H])C([H])([H])C([H])(n5nc(-c6c([H])c([H])c(Oc7c([H])c([H])c(F)c([H])c7F)c([H])c6[H])c(C(=O)N([H])[H])c5N([H])[H])C4([H])[H])C([H])([H])C3([H])[H])c([H])c([H])c2C1([H])[H]

>  <smiles>  (35) 
[H]c1c([H])c([H])c2c(c1[H])C([H])([H])C([H])([H])C([H])([H])C2([H])N([H])C(=O)C1([H])N(C(=O)C([H])(N([H])C(=O)C([H])(N([H])C([H])([H])[H])C([H])([H])[H])C(C([H])([H])[H])(C([H])([H])[H])C([H])([H])[H])C([H])([H])c2c([H])c(OC3([H])C([H])([H])C3([H])C([H])([H])Oc3c([H])c(C([H])([H])[H])c([H])c([H])c3C3([H])C([H])([H])C([H])([H])N(C(=O)N4C([H])([H])C([H])([H])C([H])([H])C([H])(n5nc(-c6c([H])c([H])c(Oc7c([H])c([H])c(F)c([H])c7F)c([H])c6[H])c(C(=O)N([H])[H])c5N([H])[H])C4([H])[H])C([H])([H])C3([H])[H])c([H])c([H])c2C1([H])[H]

$$$$
35:0:0
     RDKit          3D

 98107  0  0  1  0  0  0  0  0999 V2000
  -29.7660  -21.7870   18.4120 C   0  0  0  0  0  2  0  0  0  0  0  0
  -28.3910  -23.7110   18.6870 C   0  0  0  0  0  2  0  0  0  0  0  0
  -29.7210  -22.0880   19.9410 C   0  0  0  0  0  3  0  0  0  0  0  0
  -28.4260  -23.0010   20.0560 C   0  0  0  0  0  3  0  0  0  0  0  0
  -29.6750  -23.4410   16.5650 C   0  0  0  0  0  1  0  0  0  0  0  0
  -28.9760  -22.7980   17.6970 N   0  0  1  0  0  4  0  0  0  0  0  0
  -28.2010  -22.2860   17.2970 H   0  0  0  0  0  0  0  0  0  0  0  0
  -29.6820  -19.4570   20.2510 C   0  0  0  0  0  3  0  0  0  0  0  0
  -30.8850  -19.5730   22.7330 C   0  0  0  0  0  3  0  0  0  0  0  0
  -29.9410  -20.7660   20.7900 C   0  0  0  0  0  0  0  0  0  0  0  0
  -30.1000  -18.2370   20.8600 C   0  0  0  0  0  0  0  0  0  0  0  0
  -30.5920  -20.7810   22.0570 C   0  0  0  0  0  0  0  0  0  0  0  0
  -30.6620  -18.3050   22.1540 C   0  0  0  0  0  0  0  0  0  0  0  0
  -31.0850  -22.0560   22.7170 C   0  0  0  0  0  1  0  0  0  0  0  0
  -31.0970  -17.0660   22.9220 C   0  0  0  0  0  1  0  0  0  0  0  0
  -30.0980  -16.9530   19.9770 C   0  0  0  0  0  2  0  0  0  0  0  0
  -30.6260  -14.5030   20.0860 C   0  0  0  0  0  0  0  0  0  0  0  0
  -30.2560  -12.3520   18.9280 C   0  0  0  0  0  2  0  0  0  0  0  0
  -29.2550  -12.5870   17.7750 C   0  0  0  0  0  2  0  0  0  0  0  0
  -27.8010  -12.4700   18.2660 C   0  0  0  0  0  2  0  0  0  0  0  0
  -27.5480  -13.2570   19.5820 C   0  0  0  0  0  3  0  0  0  0  0  0
  -28.6620  -13.0070   20.6270 C   0  0  0  0  0  2  0  0  0  0  0  0
  -29.9490  -13.3220   19.9950 N   0  0  0  0  0  0  0  0  0  0  0  0
  -31.7470  -14.6470   19.5840 O   0  0  0  0  0  0  0  0  0  0  0  0
  -29.9260  -15.5800   20.5280 N   0  0  0  0  0  0  0  0  0  0  0  0
  -29.0330  -15.3850   20.9550 H   0  0  0  0  0  0  0  0  0  0  0  0
  -25.1940  -13.8540   20.4230 C   0  0  0  0  0  0  0  0  0  0  0  0
  -24.1460  -13.0780   20.8410 C   0  0  0  0  0  0  0  0  0  0  0  0
  -24.6050  -11.7250   20.7720 C   0  0  0  0  0  0  0  0  0  0  0  0
  -26.2230  -12.9750   20.1290 N   0  0  0  0  0  0  0  0  0  0  0  0
  -25.8770  -11.6900   20.3970 N   0  0  0  0  0  0  0  0  0  0  0  0
  -23.8890  -10.4610   20.9880 C   0  0  0  0  0  0  0  0  0  0  0  0
  -24.3540   -9.4950   21.9080 C   0  0  0  0  0  3  0  0  0  0  0  0
  -23.6330   -8.2980   22.1120 C   0  0  0  0  0  3  0  0  0  0  0  0
  -22.4380   -8.0580   21.3960 C   0  0  0  0  0  0  0  0  0  0  0  0
  -21.9940   -9.0120   20.4620 C   0  0  0  0  0  3  0  0  0  0  0  0
  -22.7140  -10.1990   20.2550 C   0  0  0  0  0  3  0  0  0  0  0  0
  -21.6870   -6.9110   21.5050 O   0  0  0  0  0  0  0  0  0  0  0  0
  -21.6660   -6.1760   22.6600 C   0  0  0  0  0  0  0  0  0  0  0  0
  -21.2460   -6.7290   23.8890 C   0  0  0  0  0  3  0  0  0  0  0  0
  -21.1740   -5.9180   25.0400 C   0  0  0  0  0  3  0  0  0  0  0  0
  -21.5100   -4.5530   24.9600 C   0  0  0  0  0  0  0  0  0  0  0  0
  -21.9260   -3.9990   23.7380 C   0  0  0  0  0  3  0  0  0  0  0  0
  -21.9970   -4.8070   22.5900 C   0  0  0  0  0  0  0  0  0  0  0  0
  -22.3760   -4.2640   21.4070 F   0  0  0  0  0  0  0  0  0  0  0  0
  -21.4350   -3.7710   26.0640 F   0  0  0  0  0  0  0  0  0  0  0  0
  -22.7690  -13.5530   21.1910 C   0  0  0  0  0  0  0  0  0  0  0  0
  -22.0900  -12.8470   22.0880 N   0  0  0  0  0  0  0  0  0  0  0  0
  -22.3040  -14.5850   20.7050 O   0  0  0  0  0  0  0  0  0  0  0  0
  -22.4820  -12.0130   22.4980 H   0  0  0  0  0  0  0  0  0  0  0  0
  -21.1680  -13.1450   22.3710 H   0  0  0  0  0  0  0  0  0  0  0  0
  -25.3510  -15.2250   20.2490 N   0  0  0  0  0  0  0  0  0  0  0  0
  -24.5910  -15.8800   20.3990 H   0  0  0  0  0  0  0  0  0  0  0  0
  -26.1860  -15.6660   19.8870 H   0  0  0  0  0  0  0  0  0  0  0  0
  -26.6510  -24.1470   21.5440 C   0  0  0  0  0  1  0  0  0  0  0  0
  -28.1480  -24.0740   21.2020 C   0  0  0  0  0  3  0  0  0  0  0  0
  -28.7650  -25.5390   21.1280 C   0  0  0  0  0  2  0  0  0  0  0  0
  -28.3940  -26.5050   20.1010 O   0  0  0  0  0  0  0  0  0  0  0  0
  -24.5280  -31.8020   23.1540 C   0  0  0  0  0  0  0  0  0  0  0  0
  -27.2440  -27.2790   20.1980 C   0  0  0  0  0  0  0  0  0  0  0  0
  -23.3720  -30.3940   21.4830 C   0  0  0  0  0  3  0  0  0  0  0  0
  -24.8650  -28.8390   20.1180 C   0  0  0  0  0  0  0  0  0  0  0  0
  -25.9080  -30.7340   21.3620 C   0  0  0  0  0  2  0  0  0  0  0  0
  -26.0100  -29.3480   20.7440 C   0  0  0  0  0  0  0  0  0  0  0  0
  -27.2070  -28.5780   20.7830 C   0  0  0  0  0  3  0  0  0  0  0  0
  -26.0860  -26.8130   19.5460 C   0  0  0  0  0  3  0  0  0  0  0  0
  -24.8990  -27.5690   19.5180 C   0  0  0  0  0  3  0  0  0  0  0  0
  -23.6260  -29.7090   20.1140 C   0  0  0  0  0  2  0  0  0  0  0  0
  -24.6190  -30.9940   22.0570 N   0  0  0  0  0  0  0  0  0  0  0  0
  -23.4310  -32.0740   23.6630 O   0  0  0  0  0  0  0  0  0  0  0  0
  -22.6890  -29.3790   22.4310 C   0  0  0  0  0  0  0  0  0  0  0  0
  -21.3590  -29.2390   22.3070 N   0  0  0  0  0  0  0  0  0  0  0  0
  -23.3560  -28.7240   23.2360 O   0  0  0  0  0  0  0  0  0  0  0  0
  -20.8820  -29.8210   21.6310 H   0  0  0  0  0  0  0  0  0  0  0  0
  -17.9490  -28.1670   22.8490 C   0  0  0  0  0  0  0  0  0  0  0  0
  -20.5210  -28.3100   23.0650 C   0  0  0  0  0  3  0  0  0  0  0  0
  -20.5490  -26.8950   22.4430 C   0  0  0  0  0  2  0  0  0  0  0  0
  -19.4110  -26.6530   21.4450 C   0  0  0  0  0  2  0  0  0  0  0  0
  -18.0530  -26.8330   22.1280 C   0  0  0  0  0  2  0  0  0  0  0  0
  -19.1070  -28.8660   23.2780 C   0  0  0  0  0  0  0  0  0  0  0  0
  -18.9560  -30.1160   23.9180 C   0  0  0  0  0  3  0  0  0  0  0  0
  -17.6770  -30.6620   24.1330 C   0  0  0  0  0  3  0  0  0  0  0  0
  -16.5330  -29.9610   23.7170 C   0  0  0  0  0  3  0  0  0  0  0  0
  -16.6690  -28.7140   23.0800 C   0  0  0  0  0  3  0  0  0  0  0  0
  -25.7950  -32.4390   23.8060 C   0  0  0  0  0  3  0  0  0  0  0  0
  -26.2880  -31.6650   25.0900 C   0  0  1  0  0  0  0  0  0  0  0  0
  -25.1760  -31.4150   26.1350 C   0  0  0  0  0  1  0  0  0  0  0  0
  -26.8870  -30.2930   24.7020 C   0  0  0  0  0  1  0  0  0  0  0  0
  -27.4190  -32.4650   25.7790 C   0  0  0  0  0  1  0  0  0  0  0  0
  -25.4690  -33.8340   24.1350 N   0  0  0  0  0  0  0  0  0  0  0  0
  -25.8110  -34.8920   23.3870 C   0  0  0  0  0  0  0  0  0  0  0  0
  -26.5010  -34.7970   22.3690 O   0  0  0  0  0  0  0  0  0  0  0  0
  -24.8530  -33.9810   24.9210 H   0  0  0  0  0  0  0  0  0  0  0  0
  -24.0800  -36.6790   23.0060 C   0  0  0  0  0  1  0  0  0  0  0  0
  -25.3070  -36.2750   23.8410 C   0  0  0  0  0  3  0  0  0  0  0  0
  -27.4170  -37.1680   24.7250 C   0  0  0  0  0  1  0  0  0  0  0  0
  -26.3360  -37.3350   23.7570 N   0  0  0  0  0  0  0  0  0  0  0  0
  -25.9220  -38.2510   23.9010 H   0  0  0  0  0  0  0  0  0  0  0  0
  1  3  1  0
  2  4  1  0
  3  4  1  0
  3 10  1  0
  4 56  1  0
  5  6  1  0
  6  1  1  0
  6  2  1  0
  6  7  1  6
  8 10  2  0
  8 11  1  0
 10 12  1  0
 11 13  2  0
 12 14  1  0
 12  9  2  0
 13  9  1  0
 13 15  1  0
 16 25  1  0
 16 11  1  0
 17 25  1  0
 18 23  1  0
 19 20  1  0
 19 18  1  0
 21 20  1  0
 21 30  1  0
 21 22  1  0
 23 17  1  0
 23 22  1  0
 24 17  2  0
 25 26  1  0
 27 28  2  0
 28 47  1  0
 29 28  1  0
 29 32  1  0
 30 31  1  0
 30 27  1  0
 31 29  2  0
 32 33  1  0
 33 34  2  0
 35 38  1  0
 35 34  1  0
 36 35  2  0
 37 36  1  0
 37 32  2  0
 38 39  1  0
 39 40  1  0
 40 41  2  0
 42 41  1  0
 42 46  1  0
 43 42  2  0
 44 39  2  0
 44 43  1  0
 45 44  1  0
 47 48  1  0
 48 51  1  0
 48 50  1  0
 49 47  2  0
 52 53  1  0
 52 27  1  0
 54 52  1  0
 56 55  1  0
 57 56  1  0
 58 60  1  0
 58 57  1  0
 59 70  2  0
 60 65  1  0
 61 69  1  0
 61 71  1  0
 62 64  1  0
 63 69  1  0
 64 65  2  0
 64 63  1  0
 66 60  2  0
 67 66  1  0
 67 62  2  0
 68 62  1  0
 68 61  1  0
 69 59  1  0
 71 73  2  0
 72 71  1  0
 74 72  1  0
 75 84  2  0
 75 80  1  0
 76 72  1  0
 76 80  1  0
 77 76  1  0
 78 79  1  0
 78 77  1  0
 79 75  1  0
 80 81  2  0
 81 82  1  0
 83 82  2  0
 84 83  1  0
 85 59  1  0
 85 90  1  0
 85 86  1  0
 86 89  1  1
 86 87  1  0
 88 86  1  0
 90 93  1  0
 91 95  1  0
 91 90  1  0
 92 91  2  0
 95 94  1  0
 97 95  1  0
 97 98  1  0
 97 96  1  0
M  ISO  4  17 100  25 100  57 101  58 101
M  END
>  <TORSDO>  (36) 
F 20

>  <SCORE>  (36) 
-13.568

>  <name>  (36) 
35

>  <ligand_id>  (36) 
35

>  <original_smiles>  (36) 
[H]c1c([H])c([H])c2c(c1[H])C([H])([H])C([H])([H])C([H])([H])C2([H])N([H])C(=O)C1([H])N(C(=O)C([H])(N([H])C(=O)C([H])(N([H])C([H])([H])[H])C([H])([H])[H])C(C([H])([H])[H])(C([H])([H])[H])C([H])([H])[H])C([H])([H])c2c([H])c(OC([H])([H])C([H])(C([H])([H])[H])C3([H])C([H])(c4c([H])c(C([H])([H])N([H])C(=O)N5C([H])([H])C([H])([H])C([H])([H])C([H])(n6nc(-c7c([H])c([H])c(Oc8c([H])c([H])c(F)c([H])c8F)c([H])c7[H])c(C(=O)N([H])[H])c6N([H])[H])C5([H])[H])c(C([H])([H])[H])c([H])c4C([H])([H])[H])C([H])([H])[N+]([H])(C([H])([H])[H])C3([H])[H])c([H])c([H])c2C1([H])[H]

>  <smiles>  (36) 
[H]c1c([H])c([H])c2c(c1[H])C([H])([H])C([H])([H])C([H])([H])C2([H])N([H])C(=O)C1([H])N(C(=O)C([H])(N([H])C(=O)C([H])(N([H])C([H])([H])[H])C([H])([H])[H])C(C([H])([H])[H])(C([H])([H])[H])C([H])([H])[H])C([H])([H])c2c([H])c(OC([H])([H])C([H])(C([H])([H])[H])C3([H])C([H])(c4c([H])c(C([H])([H])N([H])C(=O)N5C([H])([H])C([H])([H])C([H])([H])C([H])(n6nc(-c7c([H])c([H])c(Oc8c([H])c([H])c(F)c([H])c8F)c([H])c7[H])c(C(=O)N([H])[H])c6N([H])[H])C5([H])[H])c(C([H])([H])[H])c([H])c4C([H])([H])[H])C([H])([H])[N+]([H])(C([H])([H])[H])C3([H])[H])c([H])c([H])c2C1([H])[H]

$$$$
36:0:0
     RDKit          3D

 96105  0  0  1  0  0  0  0  0999 V2000
  -30.1200  -19.5870   19.9530 C   0  0  0  0  0  3  0  0  0  0  0  0
  -29.6250  -20.7540   19.3390 C   0  0  0  0  0  3  0  0  0  0  0  0
  -27.3740  -19.8550   19.4630 C   0  0  0  0  0  3  0  0  0  0  0  0
  -29.2530  -18.5340   20.3320 C   0  0  0  0  0  0  0  0  0  0  0  0
  -28.2460  -20.8970   19.0800 C   0  0  0  0  0  0  0  0  0  0  0  0
  -27.8640  -18.6790   20.0740 C   0  0  0  0  0  0  0  0  0  0  0  0
  -26.8710  -17.5780   20.4150 C   0  0  0  0  0  1  0  0  0  0  0  0
  -30.9160  -14.0620   19.5970 C   0  0  0  0  0  0  0  0  0  0  0  0
  -30.3870  -11.8860   18.5510 C   0  0  0  0  0  2  0  0  0  0  0  0
  -29.3310  -12.0550   17.4410 C   0  0  0  0  0  2  0  0  0  0  0  0
  -27.9080  -11.9890   18.0290 C   0  0  0  0  0  2  0  0  0  0  0  0
  -27.7310  -12.9180   19.2590 C   0  0  0  0  0  3  0  0  0  0  0  0
  -28.8830  -12.7170   20.2680 C   0  0  0  0  0  2  0  0  0  0  0  0
  -30.1570  -12.9320   19.5610 N   0  0  0  0  0  0  0  0  0  0  0  0
  -31.9200  -14.2120   18.8910 O   0  0  0  0  0  0  0  0  0  0  0  0
  -31.3250  -17.1790   21.1870 C   0  0  0  0  0  2  0  0  0  0  0  0
  -31.5710  -15.6750   21.3310 C   0  0  0  0  0  2  0  0  0  0  0  0
  -29.5230  -15.9810   20.1560 C   0  0  0  0  0  2  0  0  0  0  0  0
  -29.8200  -17.2500   20.9600 C   0  0  0  0  0  3  0  0  0  0  0  0
  -30.5600  -14.9960   20.5080 N   0  0  0  0  0  0  0  0  0  0  0  0
  -25.4840  -13.6800   20.2610 C   0  0  0  0  0  0  0  0  0  0  0  0
  -24.4100  -12.9750   20.7360 C   0  0  0  0  0  0  0  0  0  0  0  0
  -24.7590  -11.5950   20.6130 C   0  0  0  0  0  0  0  0  0  0  0  0
  -26.4250  -12.7320   19.8850 N   0  0  0  0  0  0  0  0  0  0  0  0
  -25.9960  -11.4710   20.1520 N   0  0  0  0  0  0  0  0  0  0  0  0
  -23.9640  -10.3840   20.8540 C   0  0  0  0  0  0  0  0  0  0  0  0
  -24.4130   -9.3700   21.7300 C   0  0  0  0  0  3  0  0  0  0  0  0
  -23.6230   -8.2220   21.9590 C   0  0  0  0  0  3  0  0  0  0  0  0
  -22.3710   -8.0820   21.3140 C   0  0  0  0  0  0  0  0  0  0  0  0
  -21.9400   -9.0840   20.4270 C   0  0  0  0  0  3  0  0  0  0  0  0
  -22.7290  -10.2230   20.1950 C   0  0  0  0  0  3  0  0  0  0  0  0
  -21.5480   -6.9900   21.4570 O   0  0  0  0  0  0  0  0  0  0  0  0
  -21.5480   -6.2340   22.6020 C   0  0  0  0  0  0  0  0  0  0  0  0
  -21.2460   -6.7920   23.8630 C   0  0  0  0  0  3  0  0  0  0  0  0
  -21.1890   -5.9640   25.0030 C   0  0  0  0  0  3  0  0  0  0  0  0
  -21.4240   -4.5820   24.8830 C   0  0  0  0  0  0  0  0  0  0  0  0
  -21.7200   -4.0240   23.6270 C   0  0  0  0  0  3  0  0  0  0  0  0
  -21.7790   -4.8480   22.4890 C   0  0  0  0  0  0  0  0  0  0  0  0
  -22.0440   -4.3020   21.2770 F   0  0  0  0  0  0  0  0  0  0  0  0
  -21.3610   -3.7860   25.9760 F   0  0  0  0  0  0  0  0  0  0  0  0
  -23.0960  -13.5440   21.1880 C   0  0  0  0  0  0  0  0  0  0  0  0
  -22.4390  -12.8910   22.1400 N   0  0  0  0  0  0  0  0  0  0  0  0
  -22.6650  -14.6020   20.7300 O   0  0  0  0  0  0  0  0  0  0  0  0
  -22.8030  -12.0340   22.5320 H   0  0  0  0  0  0  0  0  0  0  0  0
  -21.5620  -13.2540   22.4850 H   0  0  0  0  0  0  0  0  0  0  0  0
  -25.7280  -15.0390   20.0980 N   0  0  0  0  0  0  0  0  0  0  0  0
  -25.0210  -15.7360   20.3020 H   0  0  0  0  0  0  0  0  0  0  0  0
  -26.5520  -15.4280   19.6580 H   0  0  0  0  0  0  0  0  0  0  0  0
  -26.6770  -21.7710   17.2830 C   0  0  0  0  0  1  0  0  0  0  0  0
  -27.7220  -22.1380   18.3520 C   0  0  0  0  0  3  0  0  0  0  0  0
  -27.1700  -23.1270   19.3080 N   0  0  0  0  0  4  0  0  0  0  0  0
  -26.4320  -23.6410   18.8570 H   0  0  0  0  0  0  0  0  0  0  0  0
  -26.7470  -22.6040   20.0580 H   0  0  0  0  0  0  0  0  0  0  0  0
  -28.1420  -24.0830   19.9000 C   0  0  0  0  0  2  0  0  0  0  0  0
  -28.5280  -25.2620   18.9730 C   0  0  0  0  0  2  0  0  0  0  0  0
  -28.4060  -26.5240   19.6400 O   0  0  0  0  0  0  0  0  0  0  0  0
  -24.6420  -31.5130   23.0160 C   0  0  0  0  0  0  0  0  0  0  0  0
  -27.2040  -27.2040   19.6820 C   0  0  0  0  0  0  0  0  0  0  0  0
  -23.4070  -30.2280   21.3000 C   0  0  0  0  0  3  0  0  0  0  0  0
  -24.8280  -28.7420   19.7930 C   0  0  0  0  0  0  0  0  0  0  0  0
  -25.9380  -30.5500   21.1160 C   0  0  0  0  0  2  0  0  0  0  0  0
  -25.9940  -29.2130   20.4050 C   0  0  0  0  0  0  0  0  0  0  0  0
  -27.1810  -28.4500   20.3500 C   0  0  0  0  0  3  0  0  0  0  0  0
  -26.0110  -26.7400   19.0750 C   0  0  0  0  0  3  0  0  0  0  0  0
  -24.8300  -27.5040   19.1300 C   0  0  0  0  0  3  0  0  0  0  0  0
  -23.6020  -29.6210   19.8850 C   0  0  0  0  0  2  0  0  0  0  0  0
  -24.6820  -30.7760   21.8700 N   0  0  0  0  0  0  0  0  0  0  0  0
  -23.5680  -31.7760   23.5720 O   0  0  0  0  0  0  0  0  0  0  0  0
  -22.7390  -29.1680   22.2040 C   0  0  0  0  0  0  0  0  0  0  0  0
  -21.4040  -29.0600   22.1100 N   0  0  0  0  0  0  0  0  0  0  0  0
  -23.4160  -28.4490   22.9430 O   0  0  0  0  0  0  0  0  0  0  0  0
  -20.9200  -29.6920   21.4870 H   0  0  0  0  0  0  0  0  0  0  0  0
  -17.9850  -28.0480   22.6920 C   0  0  0  0  0  0  0  0  0  0  0  0
  -20.5660  -28.1060   22.8350 C   0  0  0  0  0  3  0  0  0  0  0  0
  -20.5350  -26.7360   22.1190 C   0  0  0  0  0  2  0  0  0  0  0  0
  -19.3600  -26.5900   21.1460 C   0  0  0  0  0  2  0  0  0  0  0  0
  -18.0290  -26.7620   21.8830 C   0  0  0  0  0  2  0  0  0  0  0  0
  -19.1770  -28.6860   23.1260 C   0  0  0  0  0  0  0  0  0  0  0  0
  -19.0820  -29.8980   23.8450 C   0  0  0  0  0  3  0  0  0  0  0  0
  -17.8270  -30.4670   24.1340 C   0  0  0  0  0  3  0  0  0  0  0  0
  -16.6500  -29.8220   23.7150 C   0  0  0  0  0  3  0  0  0  0  0  0
  -16.7310  -28.6140   23.0010 C   0  0  0  0  0  3  0  0  0  0  0  0
  -25.9420  -32.0830   23.6660 C   0  0  0  0  0  3  0  0  0  0  0  0
  -26.4240  -31.2560   24.9210 C   0  0  1  0  0  0  0  0  0  0  0  0
  -25.3180  -31.0260   25.9760 C   0  0  0  0  0  1  0  0  0  0  0  0
  -26.9570  -29.8700   24.4850 C   0  0  0  0  0  1  0  0  0  0  0  0
  -27.6000  -31.9860   25.6110 C   0  0  0  0  0  1  0  0  0  0  0  0
  -25.6750  -33.4790   24.0370 N   0  0  0  0  0  0  0  0  0  0  0  0
  -26.0610  -34.5420   23.3190 C   0  0  0  0  0  0  0  0  0  0  0  0
  -26.7520  -34.4500   22.3000 O   0  0  0  0  0  0  0  0  0  0  0  0
  -25.0690  -33.6300   24.8290 H   0  0  0  0  0  0  0  0  0  0  0  0
  -24.4080  -36.4070   22.9810 C   0  0  0  0  0  1  0  0  0  0  0  0
  -25.6100  -35.9320   23.8110 C   0  0  0  0  0  3  0  0  0  0  0  0
  -27.7500  -36.7110   24.7280 C   0  0  0  0  0  1  0  0  0  0  0  0
  -26.6820  -36.9510   23.7620 N   0  0  0  0  0  0  0  0  0  0  0  0
  -26.3030  -37.8790   23.9310 H   0  0  0  0  0  0  0  0  0  0  0  0
  1  4  1  0
  2  1  2  0
  3  6  1  0
  5  2  1  0
  5  3  2  0
  6  4  2  0
  6  7  1  0
  8 20  1  0
  9 14  1  0
 10 11  1  0
 10  9  1  0
 12 11  1  0
 12 24  1  0
 12 13  1  0
 14  8  1  0
 14 13  1  0
 15  8  2  0
 16 17  1  0
 18 20  1  0
 18 19  1  0
 19  4  1  0
 19 16  1  0
 20 17  1  0
 21 22  2  0
 22 41  1  0
 23 22  1  0
 23 26  1  0
 24 25  1  0
 24 21  1  0
 25 23  2  0
 26 27  1  0
 27 28  2  0
 29 32  1  0
 29 28  1  0
 30 29  2  0
 31 30  1  0
 31 26  2  0
 32 33  1  0
 33 34  1  0
 34 35  2  0
 36 35  1  0
 36 40  1  0
 37 36  2  0
 38 33  2  0
 38 37  1  0
 39 38  1  0
 41 42  1  0
 42 45  1  0
 42 44  1  0
 43 41  2  0
 46 21  1  0
 46 47  1  0
 48 46  1  0
 50 49  1  0
 50  5  1  0
 50 51  1  0
 51 54  1  0
 51 53  1  0
 52 51  1  0
 55 56  1  0
 55 54  1  0
 56 58  1  0
 57 68  2  0
 58 63  1  0
 59 67  1  0
 59 69  1  0
 60 66  1  0
 60 62  1  0
 61 67  1  0
 62 61  1  0
 63 62  2  0
 64 65  1  0
 64 58  2  0
 65 60  2  0
 66 59  1  0
 67 57  1  0
 69 71  2  0
 70 69  1  0
 72 70  1  0
 73 82  2  0
 73 78  1  0
 74 70  1  0
 74 78  1  0
 75 74  1  0
 76 77  1  0
 76 75  1  0
 77 73  1  0
 78 79  2  0
 79 80  1  0
 81 80  2  0
 82 81  1  0
 83 57  1  0
 83 88  1  0
 83 84  1  0
 84 87  1  1
 84 85  1  0
 86 84  1  0
 88 91  1  0
 89 93  1  0
 89 88  1  0
 90 89  2  0
 93 92  1  0
 95 93  1  0
 95 96  1  0
 95 94  1  0
M  ISO  4   8 100  20 100  55 101  56 101
M  END
>  <TORSDO>  (37) 
F 20

>  <SCORE>  (37) 
-12.404

>  <name>  (37) 
36

>  <ligand_id>  (37) 
36

>  <original_smiles>  (37) 
[H]c1c([H])c([H])c2c(c1[H])C([H])([H])C([H])([H])C([H])([H])C2([H])N([H])C(=O)C1([H])N(C(=O)C([H])(N([H])C(=O)C([H])(N([H])C([H])([H])[H])C([H])([H])[H])C(C([H])([H])[H])(C([H])([H])[H])C([H])([H])[H])C([H])([H])c2c([H])c(OC([H])([H])C([H])([H])[N+]([H])([H])C([H])(c3c([H])c([H])c(C4([H])C([H])([H])N(C(=O)N5C([H])([H])C([H])([H])C([H])([H])C([H])(n6nc(-c7c([H])c([H])c(Oc8c([H])c([H])c(F)c([H])c8F)c([H])c7[H])c(C(=O)N([H])[H])c6N([H])[H])C5([H])[H])C([H])([H])C4([H])[H])c(C([H])([H])[H])c3[H])C([H])([H])[H])c([H])c([H])c2C1([H])[H]

>  <smiles>  (37) 
[H]c1c([H])c([H])c2c(c1[H])C([H])([H])C([H])([H])C([H])([H])C2([H])N([H])C(=O)C1([H])N(C(=O)C([H])(N([H])C(=O)C([H])(N([H])C([H])([H])[H])C([H])([H])[H])C(C([H])([H])[H])(C([H])([H])[H])C([H])([H])[H])C([H])([H])c2c([H])c(OC([H])([H])C([H])([H])[N+]([H])([H])C([H])(c3c([H])c([H])c(C4([H])C([H])([H])N(C(=O)N5C([H])([H])C([H])([H])C([H])([H])C([H])(n6nc(-c7c([H])c([H])c(Oc8c([H])c([H])c(F)c([H])c8F)c([H])c7[H])c(C(=O)N([H])[H])c6N([H])[H])C5([H])[H])C([H])([H])C4([H])[H])c(C([H])([H])[H])c3[H])C([H])([H])[H])c([H])c([H])c2C1([H])[H]

$$$$
37:0:0
     RDKit          3D

 95105  0  0  1  0  0  0  0  0999 V2000
  -28.8410  -21.5670   19.6600 C   0  0  0  0  0  3  0  0  0  0  0  0
  -29.9130  -22.4260   21.6280 C   0  0  0  0  0  3  0  0  0  0  0  0
  -28.5020  -22.8940   19.2620 C   0  0  0  0  0  0  0  0  0  0  0  0
  -29.6040  -23.7620   21.2460 C   0  0  0  0  0  0  0  0  0  0  0  0
  -28.8840  -24.0310   20.0460 C   0  0  0  0  0  0  0  0  0  0  0  0
  -29.5640  -21.2990   20.8460 C   0  0  0  0  0  0  0  0  0  0  0  0
  -30.1030  -24.8880   22.1350 C   0  0  0  0  0  1  0  0  0  0  0  0
  -26.3530  -23.5660   17.8930 C   0  0  0  0  0  2  0  0  0  0  0  0
  -26.6600  -22.1360   17.5270 C   0  0  0  0  0  2  0  0  0  0  0  0
  -27.7790  -23.0640   17.9520 C   0  0  0  0  0  3  0  0  0  0  0  0
  -28.6450  -25.4830   19.4880 C   0  0  0  0  0  2  0  0  0  0  0  0
  -28.3830  -26.5980   20.3920 O   0  0  0  0  0  0  0  0  0  0  0  0
  -24.5930  -31.9390   23.2880 C   0  0  0  0  0  0  0  0  0  0  0  0
  -27.2140  -27.3570   20.3170 C   0  0  0  0  0  0  0  0  0  0  0  0
  -23.3860  -30.5100   21.6710 C   0  0  0  0  0  3  0  0  0  0  0  0
  -24.8340  -28.9260   20.2840 C   0  0  0  0  0  0  0  0  0  0  0  0
  -25.9220  -30.8290   21.4840 C   0  0  0  0  0  2  0  0  0  0  0  0
  -25.9960  -29.4410   20.8700 C   0  0  0  0  0  0  0  0  0  0  0  0
  -27.1850  -28.6620   20.8840 C   0  0  0  0  0  3  0  0  0  0  0  0
  -26.0210  -26.8680   19.7370 C   0  0  0  0  0  3  0  0  0  0  0  0
  -24.8450  -27.6430   19.7150 C   0  0  0  0  0  3  0  0  0  0  0  0
  -23.5980  -29.8010   20.3080 C   0  0  0  0  0  2  0  0  0  0  0  0
  -24.6520  -31.1100   22.2050 N   0  0  0  0  0  0  0  0  0  0  0  0
  -23.5110  -32.2300   23.8170 O   0  0  0  0  0  0  0  0  0  0  0  0
  -22.7210  -29.5160   22.6510 C   0  0  0  0  0  0  0  0  0  0  0  0
  -21.4050  -29.3020   22.4880 N   0  0  0  0  0  0  0  0  0  0  0  0
  -23.3870  -28.9400   23.5150 O   0  0  0  0  0  0  0  0  0  0  0  0
  -20.9290  -29.8160   21.7600 H   0  0  0  0  0  0  0  0  0  0  0  0
  -18.0500  -28.0150   22.8900 C   0  0  0  0  0  0  0  0  0  0  0  0
  -20.5820  -28.3780   23.2680 C   0  0  0  0  0  3  0  0  0  0  0  0
  -20.7600  -26.9240   22.7760 C   0  0  0  0  0  2  0  0  0  0  0  0
  -19.7200  -26.5090   21.7300 C   0  0  0  0  0  2  0  0  0  0  0  0
  -18.3040  -26.6390   22.2980 C   0  0  0  0  0  2  0  0  0  0  0  0
  -19.1200  -28.8370   23.3310 C   0  0  0  0  0  0  0  0  0  0  0  0
  -18.8320  -30.1220   23.8420 C   0  0  0  0  0  3  0  0  0  0  0  0
  -17.5050  -30.5840   23.9200 C   0  0  0  0  0  3  0  0  0  0  0  0
  -16.4480  -29.7600   23.4940 C   0  0  0  0  0  3  0  0  0  0  0  0
  -16.7210  -28.4780   22.9850 C   0  0  0  0  0  3  0  0  0  0  0  0
  -25.8790  -32.5760   23.9020 C   0  0  0  0  0  3  0  0  0  0  0  0
  -26.3890  -31.8240   25.1920 C   0  0  1  0  0  0  0  0  0  0  0  0
  -25.2910  -31.6010   26.2570 C   0  0  0  0  0  1  0  0  0  0  0  0
  -26.9770  -30.4410   24.8240 C   0  0  0  0  0  1  0  0  0  0  0  0
  -27.5340  -32.6300   25.8480 C   0  0  0  0  0  1  0  0  0  0  0  0
  -25.5740  -33.9810   24.2060 N   0  0  0  0  0  0  0  0  0  0  0  0
  -25.9010  -35.0170   23.4240 C   0  0  0  0  0  0  0  0  0  0  0  0
  -26.5630  -34.8920   22.3900 O   0  0  0  0  0  0  0  0  0  0  0  0
  -24.9850  -34.1510   25.0090 H   0  0  0  0  0  0  0  0  0  0  0  0
  -24.1730  -36.8050   23.0480 C   0  0  0  0  0  1  0  0  0  0  0  0
  -25.4200  -36.4150   23.8570 C   0  0  0  0  0  3  0  0  0  0  0  0
  -27.5590  -37.3210   24.6590 C   0  0  0  0  0  1  0  0  0  0  0  0
  -26.4540  -37.4640   23.7130 N   0  0  0  0  0  0  0  0  0  0  0  0
  -26.0500  -38.3880   23.8360 H   0  0  0  0  0  0  0  0  0  0  0  0
  -29.9510  -20.0370   21.3170 O   0  0  0  0  0  0  0  0  0  0  0  0
  -30.8880  -14.6300   20.0660 C   0  0  0  0  0  0  0  0  0  0  0  0
  -30.4680  -12.4710   18.9050 C   0  0  0  0  0  2  0  0  0  0  0  0
  -29.4580  -12.6570   17.7550 C   0  0  0  0  0  2  0  0  0  0  0  0
  -28.0160  -12.4970   18.2750 C   0  0  0  0  0  2  0  0  0  0  0  0
  -27.7540  -13.3330   19.5530 C   0  0  0  0  0  3  0  0  0  0  0  0
  -28.8800  -13.1440   20.5990 C   0  0  0  0  0  2  0  0  0  0  0  0
  -30.1530  -13.4750   19.9450 N   0  0  0  0  0  0  0  0  0  0  0  0
  -32.0220  -14.6890   19.5810 O   0  0  0  0  0  0  0  0  0  0  0  0
  -31.3690  -18.0940   20.7490 C   0  0  0  0  0  2  0  0  0  0  0  0
  -28.8740  -17.8590   20.8410 C   0  0  0  0  0  2  0  0  0  0  0  0
  -31.2650  -16.6850   21.4210 C   0  0  0  0  0  2  0  0  0  0  0  0
  -29.0830  -16.3850   20.3440 C   0  0  0  0  0  2  0  0  0  0  0  0
  -30.0240  -18.8340   20.4980 C   0  0  0  0  0  3  0  0  0  0  0  0
  -30.3700  -15.7350   20.7150 N   0  0  0  0  0  0  0  0  0  0  0  0
  -25.4290  -13.9680   20.4450 C   0  0  0  0  0  0  0  0  0  0  0  0
  -24.3720  -13.2070   20.8610 C   0  0  0  0  0  0  0  0  0  0  0  0
  -24.8010  -11.8490   20.7600 C   0  0  0  0  0  0  0  0  0  0  0  0
  -26.4350  -13.0720   20.1190 N   0  0  0  0  0  0  0  0  0  0  0  0
  -26.0660  -11.7910   20.3690 N   0  0  0  0  0  0  0  0  0  0  0  0
  -24.0600  -10.5960   20.9530 C   0  0  0  0  0  0  0  0  0  0  0  0
  -24.4980   -9.6130   21.8650 C   0  0  0  0  0  3  0  0  0  0  0  0
  -23.7570   -8.4260   22.0480 C   0  0  0  0  0  3  0  0  0  0  0  0
  -22.5640   -8.2150   21.3170 C   0  0  0  0  0  0  0  0  0  0  0  0
  -22.1440   -9.1870   20.3920 C   0  0  0  0  0  3  0  0  0  0  0  0
  -22.8860  -10.3660   20.2080 C   0  0  0  0  0  3  0  0  0  0  0  0
  -21.7930   -7.0820   21.4100 O   0  0  0  0  0  0  0  0  0  0  0  0
  -21.7280   -6.3490   22.5680 C   0  0  0  0  0  0  0  0  0  0  0  0
  -21.2640   -6.9080   23.7800 C   0  0  0  0  0  3  0  0  0  0  0  0
  -21.1490   -6.1010   24.9290 C   0  0  0  0  0  3  0  0  0  0  0  0
  -21.4890   -4.7360   24.8680 C   0  0  0  0  0  0  0  0  0  0  0  0
  -21.9460   -4.1760   23.6610 C   0  0  0  0  0  3  0  0  0  0  0  0
  -22.0630   -4.9810   22.5150 C   0  0  0  0  0  0  0  0  0  0  0  0
  -22.4840   -4.4330   21.3490 F   0  0  0  0  0  0  0  0  0  0  0  0
  -21.3700   -3.9580   25.9690 F   0  0  0  0  0  0  0  0  0  0  0  0
  -23.0060  -13.7060   21.2350 C   0  0  0  0  0  0  0  0  0  0  0  0
  -22.3170  -12.9960   22.1200 N   0  0  0  0  0  0  0  0  0  0  0  0
  -22.5610  -14.7570   20.7760 O   0  0  0  0  0  0  0  0  0  0  0  0
  -22.6920  -12.1460   22.5120 H   0  0  0  0  0  0  0  0  0  0  0  0
  -21.4010  -13.3070   22.4120 H   0  0  0  0  0  0  0  0  0  0  0  0
  -25.6030  -15.3400   20.2940 N   0  0  0  0  0  0  0  0  0  0  0  0
  -24.8510  -15.9960   20.4710 H   0  0  0  0  0  0  0  0  0  0  0  0
  -26.4250  -15.7780   19.8960 H   0  0  0  0  0  0  0  0  0  0  0  0
  1  6  1  0
  3  1  2  0
  3  5  1  0
  4  2  1  0
  4  7  1  0
  5  4  2  0
  6 53  1  0
  6  2  2  0
  8 10  1  0
  9  8  1  0
  9 10  1  0
 10  3  1  0
 11  5  1  0
 11 12  1  0
 13 24  2  0
 14 12  1  0
 14 19  1  0
 15 23  1  0
 15 25  1  0
 16 22  1  0
 16 18  1  0
 17 23  1  0
 18 19  2  0
 18 17  1  0
 20 14  2  0
 21 20  1  0
 21 16  2  0
 22 15  1  0
 23 13  1  0
 25 27  2  0
 26 25  1  0
 28 26  1  0
 29 38  2  0
 29 34  1  0
 30 26  1  0
 30 34  1  0
 31 30  1  0
 32 33  1  0
 32 31  1  0
 33 29  1  0
 34 35  2  0
 35 36  1  0
 37 36  2  0
 38 37  1  0
 39 13  1  0
 39 44  1  0
 39 40  1  0
 40 43  1  1
 40 41  1  0
 42 40  1  0
 44 47  1  0
 45 49  1  0
 45 44  1  0
 46 45  2  0
 49 48  1  0
 51 52  1  0
 51 49  1  0
 51 50  1  0
 54 67  1  0
 55 60  1  0
 56 57  1  0
 56 55  1  0
 58 57  1  0
 58 71  1  0
 58 59  1  0
 60 54  1  0
 60 59  1  0
 61 54  2  0
 62 64  1  0
 65 67  1  0
 65 63  1  0
 66 62  1  0
 66 63  1  0
 66 53  1  0
 67 64  1  0
 68 69  2  0
 69 88  1  0
 70 69  1  0
 70 73  1  0
 71 72  1  0
 71 68  1  0
 72 70  2  0
 73 74  1  0
 74 75  2  0
 76 79  1  0
 76 75  1  0
 77 76  2  0
 78 77  1  0
 78 73  2  0
 79 80  1  0
 80 81  1  0
 81 82  2  0
 83 82  1  0
 83 87  1  0
 84 83  2  0
 85 80  2  0
 85 84  1  0
 86 85  1  0
 88 89  1  0
 89 92  1  0
 89 91  1  0
 90 88  2  0
 93 68  1  0
 93 94  1  0
 95 93  1  0
M  ISO  4  11 101  12 101  54 100  67 100
M  END
>  <TORSDO>  (38) 
F 19

>  <SCORE>  (38) 
-14.093

>  <name>  (38) 
37

>  <ligand_id>  (38) 
37

>  <original_smiles>  (38) 
[H]c1c([H])c([H])c2c(c1[H])C([H])([H])C([H])([H])C([H])([H])C2([H])N([H])C(=O)C1([H])N(C(=O)C([H])(N([H])C(=O)C([H])(N([H])C([H])([H])[H])C([H])([H])[H])C(C([H])([H])[H])(C([H])([H])[H])C([H])([H])[H])C([H])([H])c2c([H])c(OC([H])([H])c3c(C([H])([H])[H])c([H])c(OC4([H])C([H])([H])C([H])([H])N(C(=O)N5C([H])([H])C([H])([H])C([H])([H])C([H])(n6nc(-c7c([H])c([H])c(Oc8c([H])c([H])c(F)c([H])c8F)c([H])c7[H])c(C(=O)N([H])[H])c6N([H])[H])C5([H])[H])C([H])([H])C4([H])[H])c([H])c3C3([H])C([H])([H])C3([H])[H])c([H])c([H])c2C1([H])[H]

>  <smiles>  (38) 
[H]c1c([H])c([H])c2c(c1[H])C([H])([H])C([H])([H])C([H])([H])C2([H])N([H])C(=O)C1([H])N(C(=O)C([H])(N([H])C(=O)C([H])(N([H])C([H])([H])[H])C([H])([H])[H])C(C([H])([H])[H])(C([H])([H])[H])C([H])([H])[H])C([H])([H])c2c([H])c(OC([H])([H])c3c(C([H])([H])[H])c([H])c(OC4([H])C([H])([H])C([H])([H])N(C(=O)N5C([H])([H])C([H])([H])C([H])([H])C([H])(n6nc(-c7c([H])c([H])c(Oc8c([H])c([H])c(F)c([H])c8F)c([H])c7[H])c(C(=O)N([H])[H])c6N([H])[H])C5([H])[H])C([H])([H])C4([H])[H])c([H])c3C3([H])C([H])([H])C3([H])[H])c([H])c([H])c2C1([H])[H]

$$$$
38:0:0
     RDKit          3D

102111  0  0  1  0  0  0  0  0999 V2000
  -29.2220  -23.9310   18.1170 C   0  0  0  0  0  3  0  0  0  0  0  0
  -28.0020  -22.6560   20.2870 C   0  0  0  0  0  3  0  0  0  0  0  0
  -29.1820  -22.5240   18.1690 C   0  0  0  0  0  0  0  0  0  0  0  0
  -28.5520  -21.8710   19.2470 C   0  0  0  0  0  0  0  0  0  0  0  0
  -28.6390  -24.7300   19.1280 C   0  0  0  0  0  0  0  0  0  0  0  0
  -28.0240  -24.0850   20.2340 C   0  0  0  0  0  0  0  0  0  0  0  0
  -29.7960  -21.6890   17.0590 C   0  0  0  0  0  2  0  0  0  0  0  0
  -28.8740  -20.5320   16.6170 C   0  0  0  0  0  2  0  0  0  0  0  0
  -28.4200  -20.3330   19.2010 C   0  0  0  0  0  3  0  0  0  0  0  0
  -28.0000  -19.9080   17.7450 C   0  0  0  0  0  3  0  0  0  0  0  0
  -29.6740  -19.6850   19.6660 N   0  0  0  0  0  4  0  0  0  0  0  0
  -30.1770  -20.3710   20.2060 H   0  0  0  0  0  0  0  0  0  0  0  0
  -30.2160  -19.4770   18.8440 H   0  0  0  0  0  0  0  0  0  0  0  0
  -29.5100  -18.4480   20.4930 C   0  0  0  0  0  2  0  0  0  0  0  0
  -32.0120  -18.1620   21.0790 C   0  0  0  0  0  1  0  0  0  0  0  0
  -30.7470  -17.4930   20.4680 C   0  0  0  0  0  3  0  0  0  0  0  0
  -31.1520  -15.0350   20.9110 C   0  0  0  0  0  0  0  0  0  0  0  0
  -30.8830  -12.8740   19.7820 C   0  0  0  0  0  2  0  0  0  0  0  0
  -30.0750  -13.1760   18.5050 C   0  0  0  0  0  2  0  0  0  0  0  0
  -28.5620  -13.0500   18.7910 C   0  0  0  0  0  2  0  0  0  0  0  0
  -28.1210  -13.8300   20.0640 C   0  0  0  0  0  3  0  0  0  0  0  0
  -29.0890  -13.6050   21.2510 C   0  0  0  0  0  2  0  0  0  0  0  0
  -30.4610  -13.8710   20.7820 N   0  0  0  0  0  0  0  0  0  0  0  0
  -32.3480  -15.1150   20.6350 O   0  0  0  0  0  0  0  0  0  0  0  0
  -30.4130  -16.1590   21.0530 N   0  0  0  0  0  0  0  0  0  0  0  0
  -29.4430  -15.9910   21.2770 H   0  0  0  0  0  0  0  0  0  0  0  0
  -25.6730  -14.4040   20.5890 C   0  0  0  0  0  0  0  0  0  0  0  0
  -24.5810  -13.6200   20.8510 C   0  0  0  0  0  0  0  0  0  0  0  0
  -25.0530  -12.2710   20.8330 C   0  0  0  0  0  0  0  0  0  0  0  0
  -26.7370  -13.5330   20.4230 N   0  0  0  0  0  0  0  0  0  0  0  0
  -26.3640  -12.2450   20.6310 N   0  0  0  0  0  0  0  0  0  0  0  0
  -24.3210  -11.0060   20.9290 C   0  0  0  0  0  0  0  0  0  0  0  0
  -24.6600  -10.0220   21.8850 C   0  0  0  0  0  3  0  0  0  0  0  0
  -23.9190   -8.8230   21.9680 C   0  0  0  0  0  3  0  0  0  0  0  0
  -22.8290   -8.5980   21.0940 C   0  0  0  0  0  0  0  0  0  0  0  0
  -22.5090   -9.5750   20.1360 C   0  0  0  0  0  3  0  0  0  0  0  0
  -23.2480  -10.7660   20.0530 C   0  0  0  0  0  3  0  0  0  0  0  0
  -22.0720   -7.4530   21.0860 O   0  0  0  0  0  0  0  0  0  0  0  0
  -21.8750   -6.7110   22.2240 C   0  0  0  0  0  0  0  0  0  0  0  0
  -21.2880   -7.2680   23.3810 C   0  0  0  0  0  3  0  0  0  0  0  0
  -21.0450   -6.4550   24.5050 C   0  0  0  0  0  3  0  0  0  0  0  0
  -21.3750   -5.0860   24.4730 C   0  0  0  0  0  0  0  0  0  0  0  0
  -21.9530   -4.5320   23.3200 C   0  0  0  0  0  3  0  0  0  0  0  0
  -22.1990   -5.3400   22.1990 C   0  0  0  0  0  0  0  0  0  0  0  0
  -22.7360   -4.7940   21.0800 F   0  0  0  0  0  0  0  0  0  0  0  0
  -21.1380   -4.3040   25.5520 F   0  0  0  0  0  0  0  0  0  0  0  0
  -23.1680  -14.0960   21.0160 C   0  0  0  0  0  0  0  0  0  0  0  0
  -22.3720  -13.3830   21.8090 N   0  0  0  0  0  0  0  0  0  0  0  0
  -22.7730  -15.1330   20.4860 O   0  0  0  0  0  0  0  0  0  0  0  0
  -22.6990  -12.5460   22.2680 H   0  0  0  0  0  0  0  0  0  0  0  0
  -21.4230  -13.6890   21.9700 H   0  0  0  0  0  0  0  0  0  0  0  0
  -25.8370  -15.7780   20.4500 N   0  0  0  0  0  0  0  0  0  0  0  0
  -25.0380  -16.3990   20.4920 H   0  0  0  0  0  0  0  0  0  0  0  0
  -26.6880  -16.2370   20.1560 H   0  0  0  0  0  0  0  0  0  0  0  0
  -26.6350  -24.2820   22.1830 C   0  0  0  0  0  1  0  0  0  0  0  0
  -27.4570  -24.8860   21.2000 O   0  0  0  0  0  0  0  0  0  0  0  0
  -27.0480  -18.1880   16.0930 C   0  0  0  0  0  1  0  0  0  0  0  0
  -27.6160  -18.4170   17.5120 C   0  0  0  0  0  3  0  0  0  0  0  0
  -28.7420  -17.5800   17.7470 O   0  0  0  0  0  0  0  0  0  0  0  0
  -28.4420  -16.6800   17.8570 H   0  0  0  0  0  0  0  0  0  0  0  0
  -28.7320  -26.2590   18.9350 C   0  0  0  0  0  2  0  0  0  0  0  0
  -28.4850  -27.1380   20.0520 O   0  0  0  0  0  0  0  0  0  0  0  0
  -24.6250  -32.0640   23.5060 C   0  0  0  0  0  0  0  0  0  0  0  0
  -27.3000  -27.8530   20.0960 C   0  0  0  0  0  0  0  0  0  0  0  0
  -23.4310  -30.7830   21.7550 C   0  0  0  0  0  3  0  0  0  0  0  0
  -24.8940  -29.3570   20.2250 C   0  0  0  0  0  0  0  0  0  0  0  0
  -25.9590  -31.1530   21.6040 C   0  0  0  0  0  2  0  0  0  0  0  0
  -26.0460  -29.8260   20.8710 C   0  0  0  0  0  0  0  0  0  0  0  0
  -27.2430  -29.0720   20.8170 C   0  0  0  0  0  3  0  0  0  0  0  0
  -26.1270  -27.4010   19.4500 C   0  0  0  0  0  3  0  0  0  0  0  0
  -24.9370  -28.1510   19.5020 C   0  0  0  0  0  3  0  0  0  0  0  0
  -23.6510  -30.2120   20.3260 C   0  0  0  0  0  2  0  0  0  0  0  0
  -24.6870  -31.3470   22.3460 N   0  0  0  0  0  0  0  0  0  0  0  0
  -23.5410  -32.3000   24.0560 O   0  0  0  0  0  0  0  0  0  0  0  0
  -22.7740  -29.6960   22.6340 C   0  0  0  0  0  0  0  0  0  0  0  0
  -21.4520  -29.5100   22.4770 N   0  0  0  0  0  0  0  0  0  0  0  0
  -23.4480  -29.0240   23.4200 O   0  0  0  0  0  0  0  0  0  0  0  0
  -20.9780  -30.1120   21.8180 H   0  0  0  0  0  0  0  0  0  0  0  0
  -18.0840  -28.2410   22.8100 C   0  0  0  0  0  0  0  0  0  0  0  0
  -20.6290  -28.5180   23.1640 C   0  0  0  0  0  3  0  0  0  0  0  0
  -20.7650  -27.1260   22.5040 C   0  0  0  0  0  2  0  0  0  0  0  0
  -19.6930  -26.8530   21.4430 C   0  0  0  0  0  2  0  0  0  0  0  0
  -18.2960  -26.9380   22.0590 C   0  0  0  0  0  2  0  0  0  0  0  0
  -19.1780  -28.9930   23.3150 C   0  0  0  0  0  0  0  0  0  0  0  0
  -18.9190  -30.2130   23.9750 C   0  0  0  0  0  3  0  0  0  0  0  0
  -17.6020  -30.6840   24.1290 C   0  0  0  0  0  3  0  0  0  0  0  0
  -16.5230  -29.9300   23.6380 C   0  0  0  0  0  3  0  0  0  0  0  0
  -16.7660  -28.7100   22.9850 C   0  0  0  0  0  3  0  0  0  0  0  0
  -25.9070  -32.6480   24.1770 C   0  0  0  0  0  3  0  0  0  0  0  0
  -25.6160  -34.0350   24.5630 N   0  0  0  0  0  0  0  0  0  0  0  0
  -26.0200  -35.1140   23.8770 C   0  0  0  0  0  0  0  0  0  0  0  0
  -26.7450  -35.0400   22.8800 O   0  0  0  0  0  0  0  0  0  0  0  0
  -24.9790  -34.1650   25.3350 H   0  0  0  0  0  0  0  0  0  0  0  0
  -24.3700  -36.9680   23.5030 C   0  0  0  0  0  1  0  0  0  0  0  0
  -25.5410  -36.4880   24.3750 C   0  0  0  0  0  3  0  0  0  0  0  0
  -27.6440  -37.2560   25.3880 C   0  0  0  0  0  1  0  0  0  0  0  0
  -26.6080  -37.5100   24.3880 N   0  0  0  0  0  0  0  0  0  0  0  0
  -26.2230  -38.4350   24.5580 H   0  0  0  0  0  0  0  0  0  0  0  0
  -26.3910  -31.8100   25.4230 C   0  0  1  0  0  0  0  0  0  0  0  0
  -25.2730  -31.5370   26.4560 C   0  0  0  0  0  1  0  0  0  0  0  0
  -26.9570  -30.4440   24.9730 C   0  0  0  0  0  1  0  0  0  0  0  0
  -27.5410  -32.5560   26.1400 C   0  0  0  0  0  1  0  0  0  0  0  0
  1  3  2  0
  1  5  1  0
  3  4  1  0
  4  2  2  0
  5  6  2  0
  6  2  1  0
  6 56  1  0
  7  3  1  0
  8  7  1  0
  8 10  1  0
  9  4  1  0
  9 11  1  0
 10 58  1  0
 10  9  1  0
 11 12  1  0
 11 14  1  0
 13 11  1  0
 16 14  1  0
 16 25  1  0
 16 15  1  0
 17 25  1  0
 18 23  1  0
 19 20  1  0
 19 18  1  0
 21 20  1  0
 21 30  1  0
 21 22  1  0
 23 17  1  0
 23 22  1  0
 24 17  2  0
 25 26  1  0
 27 28  2  0
 28 47  1  0
 29 28  1  0
 29 32  1  0
 30 27  1  0
 30 31  1  0
 31 29  2  0
 32 33  1  0
 33 34  2  0
 35 34  1  0
 36 35  2  0
 37 36  1  0
 37 32  2  0
 38 35  1  0
 38 39  1  0
 39 40  1  0
 40 41  2  0
 42 41  1  0
 42 46  1  0
 43 42  2  0
 44 39  2  0
 44 43  1  0
 45 44  1  0
 47 48  1  0
 48 51  1  0
 48 50  1  0
 49 47  2  0
 52 53  1  0
 52 27  1  0
 54 52  1  0
 56 55  1  0
 58 57  1  0
 58 59  1  0
 59 60  1  0
 61  5  1  0
 61 62  1  0
 62 64  1  0
 63 74  2  0
 64 69  1  0
 65 73  1  0
 65 75  1  0
 66 72  1  0
 66 68  1  0
 67 73  1  0
 68 67  1  0
 69 68  2  0
 70 71  1  0
 70 64  2  0
 71 66  2  0
 72 65  1  0
 73 63  1  0
 75 77  2  0
 76 75  1  0
 78 76  1  0
 79 88  2  0
 79 84  1  0
 80 76  1  0
 80 84  1  0
 81 80  1  0
 82 83  1  0
 82 81  1  0
 83 79  1  0
 84 85  2  0
 85 86  1  0
 87 86  2  0
 88 87  1  0
 89 63  1  0
 89 90  1  0
 89 99  1  0
 90 93  1  0
 91 95  1  0
 91 90  1  0
 92 91  2  0
 95 94  1  0
 95 97  1  0
 97 98  1  0
 97 96  1  0
 99102  1  1
 99100  1  0
101 99  1  0
M  ISO  4  17 100  25 100  61 101  62 101
M  END
>  <TORSDO>  (39) 
F 23

>  <SCORE>  (39) 
-11.043

>  <name>  (39) 
38

>  <ligand_id>  (39) 
38

>  <original_smiles>  (39) 
[H]OC([H])(C([H])([H])[H])C1([H])C([H])([H])C([H])([H])c2c([H])c(C([H])([H])Oc3c([H])c([H])c4c(c3[H])C([H])([H])N(C(=O)C([H])(N([H])C(=O)C([H])(N([H])C([H])([H])[H])C([H])([H])[H])C(C([H])([H])[H])(C([H])([H])[H])C([H])([H])[H])C([H])(C(=O)N([H])C3([H])c5c([H])c([H])c([H])c([H])c5C([H])([H])C([H])([H])C3([H])[H])C4([H])[H])c(OC([H])([H])[H])c([H])c2C1([H])[N+]([H])([H])C([H])([H])C([H])(N([H])C(=O)N1C([H])([H])C([H])([H])C([H])([H])C([H])(n2nc(-c3c([H])c([H])c(Oc4c([H])c([H])c(F)c([H])c4F)c([H])c3[H])c(C(=O)N([H])[H])c2N([H])[H])C1([H])[H])C([H])([H])[H]

>  <smiles>  (39) 
[H]OC([H])(C([H])([H])[H])C1([H])C([H])([H])C([H])([H])c2c([H])c(C([H])([H])Oc3c([H])c([H])c4c(c3[H])C([H])([H])N(C(=O)C([H])(N([H])C(=O)C([H])(N([H])C([H])([H])[H])C([H])([H])[H])C(C([H])([H])[H])(C([H])([H])[H])C([H])([H])[H])C([H])(C(=O)N([H])C3([H])c5c([H])c([H])c([H])c([H])c5C([H])([H])C([H])([H])C3([H])[H])C4([H])[H])c(OC([H])([H])[H])c([H])c2C1([H])[N+]([H])([H])C([H])([H])C([H])(N([H])C(=O)N1C([H])([H])C([H])([H])C([H])([H])C([H])(n2nc(-c3c([H])c([H])c(Oc4c([H])c([H])c(F)c([H])c4F)c([H])c3[H])c(C(=O)N([H])[H])c2N([H])[H])C1([H])[H])C([H])([H])[H]

$$$$
39:0:0
     RDKit          3D

101111  0  0  1  0  0  0  0  0999 V2000
  -32.5360  -21.3910   21.0980 C   0  0  0  0  0  3  0  0  0  0  0  0
  -30.2230  -22.0410   20.7500 C   0  0  0  0  0  3  0  0  0  0  0  0
  -31.5860  -22.3960   20.8320 C   0  0  0  0  0  0  0  0  0  0  0  0
  -32.1490  -20.0360   21.1820 C   0  0  0  0  0  0  0  0  0  0  0  0
  -30.7820  -19.6710   21.0150 C   0  0  0  0  0  0  0  0  0  0  0  0
  -29.8030  -20.6930   20.8440 C   0  0  0  0  0  0  0  0  0  0  0  0
  -33.2410  -18.9920   21.3800 C   0  0  0  0  0  1  0  0  0  0  0  0
  -30.7750  -14.5920   20.0580 C   0  0  0  0  0  0  0  0  0  0  0  0
  -30.5450  -12.3860   18.9900 C   0  0  0  0  0  2  0  0  0  0  0  0
  -29.5140  -12.4740   17.8470 C   0  0  0  0  0  2  0  0  0  0  0  0
  -28.0780  -12.2820   18.3760 C   0  0  0  0  0  2  0  0  0  0  0  0
  -27.7660  -13.1640   19.6130 C   0  0  0  0  0  3  0  0  0  0  0  0
  -28.8930  -13.0270   20.6600 C   0  0  0  0  0  2  0  0  0  0  0  0
  -30.1670  -13.3780   20.0060 N   0  0  0  0  0  0  0  0  0  0  0  0
  -31.8540  -14.8370   19.5090 O   0  0  0  0  0  0  0  0  0  0  0  0
  -30.7100  -17.4180   22.0510 C   0  0  0  0  0  2  0  0  0  0  0  0
  -29.2910  -17.9620   20.0760 C   0  0  0  0  0  2  0  0  0  0  0  0
  -30.0460  -16.0300   21.8850 C   0  0  0  0  0  2  0  0  0  0  0  0
  -29.5060  -16.5690   19.4850 C   0  0  0  0  0  2  0  0  0  0  0  0
  -30.4260  -18.3060   20.9240 N   0  0  0  0  0  0  0  0  0  0  0  0
  -29.9760  -15.5860   20.4810 N   0  0  0  0  0  0  0  0  0  0  0  0
  -25.4270  -13.7100   20.5470 C   0  0  0  0  0  0  0  0  0  0  0  0
  -24.3870  -12.9020   20.9290 C   0  0  0  0  0  0  0  0  0  0  0  0
  -24.8450  -11.5610   20.7500 C   0  0  0  0  0  0  0  0  0  0  0  0
  -26.4530  -12.8540   20.1720 N   0  0  0  0  0  0  0  0  0  0  0  0
  -26.1090  -11.5530   20.3500 N   0  0  0  0  0  0  0  0  0  0  0  0
  -24.1350  -10.2840   20.8830 C   0  0  0  0  0  0  0  0  0  0  0  0
  -24.6170   -9.2610   21.7260 C   0  0  0  0  0  3  0  0  0  0  0  0
  -23.9110   -8.0440   21.8500 C   0  0  0  0  0  3  0  0  0  0  0  0
  -22.7080   -7.8460   21.1330 C   0  0  0  0  0  0  0  0  0  0  0  0
  -22.2440   -8.8600   20.2780 C   0  0  0  0  0  3  0  0  0  0  0  0
  -22.9510  -10.0670   20.1490 C   0  0  0  0  0  3  0  0  0  0  0  0
  -21.9690   -6.6900   21.1760 O   0  0  0  0  0  0  0  0  0  0  0  0
  -21.9240   -5.9090   22.3010 C   0  0  0  0  0  0  0  0  0  0  0  0
  -21.4710   -6.4120   23.5410 C   0  0  0  0  0  3  0  0  0  0  0  0
  -21.3710   -5.5530   24.6540 C   0  0  0  0  0  3  0  0  0  0  0  0
  -21.7190   -4.1940   24.5280 C   0  0  0  0  0  0  0  0  0  0  0  0
  -22.1670   -3.6920   23.2930 C   0  0  0  0  0  3  0  0  0  0  0  0
  -22.2640   -4.5460   22.1830 C   0  0  0  0  0  0  0  0  0  0  0  0
  -22.6730   -4.0510   20.9890 F   0  0  0  0  0  0  0  0  0  0  0  0
  -21.6180   -3.3660   25.5940 F   0  0  0  0  0  0  0  0  0  0  0  0
  -23.0140  -13.3440   21.3470 C   0  0  0  0  0  0  0  0  0  0  0  0
  -22.3630  -12.5820   22.2200 N   0  0  0  0  0  0  0  0  0  0  0  0
  -22.5290  -14.3970   20.9400 O   0  0  0  0  0  0  0  0  0  0  0  0
  -22.7620  -11.7240   22.5710 H   0  0  0  0  0  0  0  0  0  0  0  0
  -21.4500  -12.8670   22.5430 H   0  0  0  0  0  0  0  0  0  0  0  0
  -25.5770  -15.0920   20.4750 N   0  0  0  0  0  0  0  0  0  0  0  0
  -24.8300  -15.7380   20.7050 H   0  0  0  0  0  0  0  0  0  0  0  0
  -26.4310  -15.5600   20.1960 H   0  0  0  0  0  0  0  0  0  0  0  0
  -31.7270  -24.0580   18.9880 C   0  0  0  0  0  2  0  0  0  0  0  0
  -31.4090  -24.9080   21.4050 C   0  0  0  0  0  2  0  0  0  0  0  0
  -31.8470  -25.5250   18.5650 C   0  0  0  0  0  2  0  0  0  0  0  0
  -31.5120  -26.3340   20.8260 C   0  0  0  0  0  2  0  0  0  0  0  0
  -32.0320  -23.8180   20.4870 C   0  0  0  0  0  3  0  0  0  0  0  0
  -30.9790  -26.3470   19.4440 N   0  0  1  0  0  4  0  0  0  0  0  0
  -30.0830  -25.8790   19.4900 H   0  0  0  0  0  0  0  0  0  0  0  0
  -30.6250  -27.6840   18.9130 C   0  0  0  0  0  2  0  0  0  0  0  0
  -29.3670  -27.5970   18.0280 C   0  0  0  0  0  2  0  0  0  0  0  0
  -28.3470  -26.8290   18.6870 O   0  0  0  0  0  0  0  0  0  0  0  0
  -24.9260  -31.4490   22.9070 C   0  0  0  0  0  0  0  0  0  0  0  0
  -27.1980  -27.5220   18.9850 C   0  0  0  0  0  0  0  0  0  0  0  0
  -23.5410  -30.3240   21.1890 C   0  0  0  0  0  3  0  0  0  0  0  0
  -24.8260  -28.9840   19.4410 C   0  0  0  0  0  0  0  0  0  0  0  0
  -26.0420  -30.6800   20.8220 C   0  0  0  0  0  2  0  0  0  0  0  0
  -26.0360  -29.4160   19.9970 C   0  0  0  0  0  0  0  0  0  0  0  0
  -27.2200  -28.6880   19.7780 C   0  0  0  0  0  3  0  0  0  0  0  0
  -25.9680  -27.0670   18.4640 C   0  0  0  0  0  3  0  0  0  0  0  0
  -24.7820  -27.8010   18.6800 C   0  0  0  0  0  3  0  0  0  0  0  0
  -23.6100  -29.8410   19.7140 C   0  0  0  0  0  2  0  0  0  0  0  0
  -24.8590  -30.8220   21.6980 N   0  0  0  0  0  0  0  0  0  0  0  0
  -23.9050  -31.6570   23.5770 O   0  0  0  0  0  0  0  0  0  0  0  0
  -22.9460  -29.1860   22.0470 C   0  0  0  0  0  0  0  0  0  0  0  0
  -21.6110  -29.0500   22.0100 N   0  0  0  0  0  0  0  0  0  0  0  0
  -23.6770  -28.4350   22.6990 O   0  0  0  0  0  0  0  0  0  0  0  0
  -21.0840  -29.7080   21.4540 H   0  0  0  0  0  0  0  0  0  0  0  0
  -18.2560  -27.8490   22.5940 C   0  0  0  0  0  0  0  0  0  0  0  0
  -20.8320  -28.0260   22.7040 C   0  0  0  0  0  3  0  0  0  0  0  0
  -20.8560  -26.6870   21.9320 C   0  0  0  0  0  2  0  0  0  0  0  0
  -19.6770  -26.5260   20.9680 C   0  0  0  0  0  2  0  0  0  0  0  0
  -18.3470  -26.6060   21.7250 C   0  0  0  0  0  2  0  0  0  0  0  0
  -19.4220  -28.5260   23.0400 C   0  0  0  0  0  0  0  0  0  0  0  0
  -19.2810  -29.6980   23.8110 C   0  0  0  0  0  3  0  0  0  0  0  0
  -18.0060  -30.1920   24.1440 C   0  0  0  0  0  3  0  0  0  0  0  0
  -16.8540  -29.5090   23.7180 C   0  0  0  0  0  3  0  0  0  0  0  0
  -16.9810  -28.3390   22.9460 C   0  0  0  0  0  3  0  0  0  0  0  0
  -26.2820  -31.9550   23.4950 C   0  0  0  0  0  3  0  0  0  0  0  0
  -26.8920  -30.9860   24.5790 C   0  0  1  0  0  0  0  0  0  0  0  0
  -25.8950  -30.5940   25.6940 C   0  0  0  0  0  1  0  0  0  0  0  0
  -27.4000  -29.6830   23.9190 C   0  0  0  0  0  1  0  0  0  0  0  0
  -28.1180  -31.6510   25.2480 C   0  0  0  0  0  1  0  0  0  0  0  0
  -26.0450  -33.2880   24.0640 N   0  0  0  0  0  0  0  0  0  0  0  0
  -26.3720  -34.4400   23.4630 C   0  0  0  0  0  0  0  0  0  0  0  0
  -26.9780  -34.4870   22.3890 O   0  0  0  0  0  0  0  0  0  0  0  0
  -25.5110  -33.3260   24.9190 H   0  0  0  0  0  0  0  0  0  0  0  0
  -24.7080  -36.3230   23.4850 C   0  0  0  0  0  1  0  0  0  0  0  0
  -25.9600  -35.7480   24.1650 C   0  0  0  0  0  3  0  0  0  0  0  0
  -28.1590  -36.4040   25.0400 C   0  0  0  0  0  1  0  0  0  0  0  0
  -27.0330  -36.7670   24.1840 N   0  0  0  0  0  0  0  0  0  0  0  0
  -26.6710  -37.6630   24.5010 H   0  0  0  0  0  0  0  0  0  0  0  0
  -27.5360  -21.2600   20.2210 C   0  0  0  0  0  1  0  0  0  0  0  0
  -28.4700  -20.3300   20.7560 O   0  0  0  0  0  0  0  0  0  0  0  0
  1  4  1  0
  2  3  1  0
  2  6  2  0
  3  1  2  0
  4  7  1  0
  5  4  2  0
  6  5  1  0
  8 21  1  0
  9 14  1  0
 10 11  1  0
 10  9  1  0
 12 11  1  0
 12 25  1  0
 12 13  1  0
 14  8  1  0
 14 13  1  0
 15  8  2  0
 17 20  1  0
 18 16  1  0
 19 17  1  0
 19 21  1  0
 20  5  1  0
 20 16  1  0
 21 18  1  0
 22 23  2  0
 23 42  1  0
 24 27  1  0
 24 23  1  0
 25 26  1  0
 25 22  1  0
 26 24  2  0
 27 28  1  0
 28 29  2  0
 30 33  1  0
 30 29  1  0
 31 30  2  0
 32 31  1  0
 32 27  2  0
 33 34  1  0
 34 35  1  0
 35 36  2  0
 37 36  1  0
 37 41  1  0
 38 37  2  0
 39 34  2  0
 39 38  1  0
 40 39  1  0
 42 43  1  0
 43 46  1  0
 43 45  1  0
 44 42  2  0
 47 22  1  0
 47 48  1  0
 49 47  1  0
 50 54  1  0
 52 50  1  0
 52 55  1  0
 53 51  1  0
 54  3  1  0
 54 51  1  0
 55 56  1  1
 55 53  1  0
 57 55  1  0
 58 59  1  0
 58 57  1  0
 59 61  1  0
 60 71  2  0
 61 66  1  0
 62 70  1  0
 62 72  1  0
 63 69  1  0
 63 65  1  0
 64 70  1  0
 65 64  1  0
 66 65  2  0
 67 68  1  0
 67 61  2  0
 68 63  2  0
 69 62  1  0
 70 60  1  0
 72 74  2  0
 73 72  1  0
 75 73  1  0
 76 85  2  0
 76 81  1  0
 77 73  1  0
 77 81  1  0
 78 77  1  0
 79 80  1  0
 79 78  1  0
 80 76  1  0
 81 82  2  0
 82 83  1  0
 84 83  2  0
 85 84  1  0
 86 60  1  0
 86 91  1  0
 86 87  1  0
 87 90  1  1
 87 88  1  0
 89 87  1  0
 91 94  1  0
 92 91  1  0
 92 96  1  0
 93 92  2  0
 96 95  1  0
 96 98  1  0
 98 99  1  0
 98 97  1  0
100101  1  0
101  6  1  0
M  ISO  4   8 100  21 100  58 101  59 101
M  END
>  <TORSDO>  (40) 
F 20

>  <SCORE>  (40) 
-11.251

>  <name>  (40) 
39

>  <ligand_id>  (40) 
39

>  <original_smiles>  (40) 
[H]c1c([H])c([H])c2c(c1[H])C([H])([H])C([H])([H])C([H])([H])C2([H])N([H])C(=O)C1([H])N(C(=O)C([H])(N([H])C(=O)C([H])(N([H])C([H])([H])[H])C([H])([H])[H])C(C([H])([H])[H])(C([H])([H])[H])C([H])([H])[H])C([H])([H])c2c([H])c(OC([H])([H])C([H])([H])[N+]3([H])C([H])([H])C([H])([H])C([H])(c4c([H])c(OC([H])([H])[H])c(N5C([H])([H])C([H])([H])N(C(=O)N6C([H])([H])C([H])([H])C([H])([H])C([H])(n7nc(-c8c([H])c([H])c(Oc9c([H])c([H])c(F)c([H])c9F)c([H])c8[H])c(C(=O)N([H])[H])c7N([H])[H])C6([H])[H])C([H])([H])C5([H])[H])c(C([H])([H])[H])c4[H])C([H])([H])C3([H])[H])c([H])c([H])c2C1([H])[H]

>  <smiles>  (40) 
[H]c1c([H])c([H])c2c(c1[H])C([H])([H])C([H])([H])C([H])([H])C2([H])N([H])C(=O)C1([H])N(C(=O)C([H])(N([H])C(=O)C([H])(N([H])C([H])([H])[H])C([H])([H])[H])C(C([H])([H])[H])(C([H])([H])[H])C([H])([H])[H])C([H])([H])c2c([H])c(OC([H])([H])C([H])([H])[N+]3([H])C([H])([H])C([H])([H])C([H])(c4c([H])c(OC([H])([H])[H])c(N5C([H])([H])C([H])([H])N(C(=O)N6C([H])([H])C([H])([H])C([H])([H])C([H])(n7nc(-c8c([H])c([H])c(Oc9c([H])c([H])c(F)c([H])c9F)c([H])c8[H])c(C(=O)N([H])[H])c7N([H])[H])C6([H])[H])C([H])([H])C5([H])[H])c(C([H])([H])[H])c4[H])C([H])([H])C3([H])[H])c([H])c([H])c2C1([H])[H]

$$$$
40:0:0
     RDKit          3D

100110  0  0  1  0  0  0  0  0999 V2000
  -29.9560  -23.4330   20.4210 C   0  0  0  0  0  3  0  0  0  0  0  0
  -29.9630  -22.0170   20.5890 C   0  0  0  0  0  3  0  0  0  0  0  0
  -28.0610  -23.2500   18.9650 C   0  0  0  0  0  3  0  0  0  0  0  0
  -28.0410  -21.8310   19.1390 C   0  0  0  0  0  0  0  0  0  0  0  0
  -29.0260  -24.0890   19.5720 C   0  0  0  0  0  0  0  0  0  0  0  0
  -29.0320  -21.1700   19.9250 C   0  0  0  0  0  0  0  0  0  0  0  0
  -27.3570  -20.5990   16.9850 C   0  0  0  0  0  2  0  0  0  0  0  0
  -26.0080  -20.1980   16.3790 C   0  0  0  0  0  2  0  0  0  0  0  0
  -25.6120  -21.6990   18.2110 C   0  0  0  0  0  2  0  0  0  0  0  0
  -26.9750  -21.0140   18.4020 C   0  0  0  0  0  3  0  0  0  0  0  0
  -23.7210  -20.3210   17.3500 C   0  0  0  0  0  1  0  0  0  0  0  0
  -24.9800  -21.0360   17.0460 N   0  0  2  0  0  4  0  0  0  0  0  0
  -24.7370  -21.7710   16.3980 H   0  0  0  0  0  0  0  0  0  0  0  0
  -29.1580  -25.6030   19.1480 C   0  0  0  0  0  3  0  0  0  0  0  0
  -31.0560  -25.2410   17.4420 C   0  0  0  0  0  1  0  0  0  0  0  0
  -30.5890  -25.9740   18.7080 C   0  0  0  0  0  2  0  0  0  0  0  0
  -28.7860  -26.6550   20.0990 O   0  0  0  0  0  0  0  0  0  0  0  0
  -24.5530  -31.6680   23.0130 C   0  0  0  0  0  0  0  0  0  0  0  0
  -27.5980  -27.3880   19.9780 C   0  0  0  0  0  0  0  0  0  0  0  0
  -23.5220  -30.2490   21.2740 C   0  0  0  0  0  3  0  0  0  0  0  0
  -25.1330  -28.8320   19.8880 C   0  0  0  0  0  0  0  0  0  0  0  0
  -26.0390  -30.7300   21.2310 C   0  0  0  0  0  2  0  0  0  0  0  0
  -26.2360  -29.3790   20.5570 C   0  0  0  0  0  0  0  0  0  0  0  0
  -27.4640  -28.6650   20.5980 C   0  0  0  0  0  3  0  0  0  0  0  0
  -26.4610  -26.8730   19.3100 C   0  0  0  0  0  3  0  0  0  0  0  0
  -25.2480  -27.5820   19.2600 C   0  0  0  0  0  3  0  0  0  0  0  0
  -23.8450  -29.6260   19.8910 C   0  0  0  0  0  2  0  0  0  0  0  0
  -24.7200  -30.8980   21.8980 N   0  0  0  0  0  0  0  0  0  0  0  0
  -23.4290  -31.8640   23.4970 O   0  0  0  0  0  0  0  0  0  0  0  0
  -22.8740  -29.1680   22.1720 C   0  0  0  0  0  0  0  0  0  0  0  0
  -21.5470  -28.9910   22.0430 N   0  0  0  0  0  0  0  0  0  0  0  0
  -23.5620  -28.4930   22.9430 O   0  0  0  0  0  0  0  0  0  0  0  0
  -21.0510  -29.5900   21.3970 H   0  0  0  0  0  0  0  0  0  0  0  0
  -18.1690  -27.8150   22.5610 C   0  0  0  0  0  0  0  0  0  0  0  0
  -20.7390  -28.0020   22.7560 C   0  0  0  0  0  3  0  0  0  0  0  0
  -20.7900  -26.6270   22.0500 C   0  0  0  0  0  2  0  0  0  0  0  0
  -19.6450  -26.4170   21.0550 C   0  0  0  0  0  2  0  0  0  0  0  0
  -18.2910  -26.5290   21.7610 C   0  0  0  0  0  2  0  0  0  0  0  0
  -19.3180  -28.5130   23.0150 C   0  0  0  0  0  0  0  0  0  0  0  0
  -19.1480  -29.7210   23.7270 C   0  0  0  0  0  3  0  0  0  0  0  0
  -17.8610  -30.2290   23.9850 C   0  0  0  0  0  3  0  0  0  0  0  0
  -16.7260  -29.5260   23.5470 C   0  0  0  0  0  3  0  0  0  0  0  0
  -16.8810  -28.3190   22.8420 C   0  0  0  0  0  3  0  0  0  0  0  0
  -25.7620  -32.3550   23.7200 C   0  0  0  0  0  3  0  0  0  0  0  0
  -26.2730  -31.5640   24.9870 C   0  0  1  0  0  0  0  0  0  0  0  0
  -25.1550  -31.2160   25.9970 C   0  0  0  0  0  1  0  0  0  0  0  0
  -26.9560  -30.2420   24.5670 C   0  0  0  0  0  1  0  0  0  0  0  0
  -27.3440  -32.3980   25.7280 C   0  0  0  0  0  1  0  0  0  0  0  0
  -25.3440  -33.7140   24.0930 N   0  0  0  0  0  0  0  0  0  0  0  0
  -25.6340  -34.8190   23.3910 C   0  0  0  0  0  0  0  0  0  0  0  0
  -26.3500  -34.8040   22.3870 O   0  0  0  0  0  0  0  0  0  0  0  0
  -24.7070  -33.7930   24.8710 H   0  0  0  0  0  0  0  0  0  0  0  0
  -23.7940  -36.5000   23.0450 C   0  0  0  0  0  1  0  0  0  0  0  0
  -25.0330  -36.1500   23.8830 C   0  0  0  0  0  3  0  0  0  0  0  0
  -27.0740  -37.1470   24.8200 C   0  0  0  0  0  1  0  0  0  0  0  0
  -25.9920  -37.2770   23.8480 N   0  0  0  0  0  0  0  0  0  0  0  0
  -25.5160  -38.1580   24.0220 H   0  0  0  0  0  0  0  0  0  0  0  0
  -29.0120  -19.7620   20.0310 O   0  0  0  0  0  0  0  0  0  0  0  0
  -30.9430  -14.7750   20.5290 C   0  0  0  0  0  0  0  0  0  0  0  0
  -30.8110  -12.4190   19.7570 C   0  0  0  0  0  2  0  0  0  0  0  0
  -29.9350  -12.3580   18.4870 C   0  0  0  0  0  2  0  0  0  0  0  0
  -28.4450  -12.2220   18.8570 C   0  0  0  0  0  2  0  0  0  0  0  0
  -28.0010  -13.2330   19.9500 C   0  0  0  0  0  3  0  0  0  0  0  0
  -29.0010  -13.2750   21.1280 C   0  0  0  0  0  2  0  0  0  0  0  0
  -30.3290  -13.5530   20.5670 N   0  0  0  0  0  0  0  0  0  0  0  0
  -32.1370  -14.8830   20.2270 O   0  0  0  0  0  0  0  0  0  0  0  0
  -30.6270  -18.2860   21.3380 C   0  0  0  0  0  2  0  0  0  0  0  0
  -30.1800  -17.8400   18.9010 C   0  0  0  0  0  2  0  0  0  0  0  0
  -30.0480  -16.8640   21.6590 C   0  0  0  0  0  2  0  0  0  0  0  0
  -29.5450  -16.4810   19.3270 C   0  0  0  0  0  2  0  0  0  0  0  0
  -30.2240  -18.9480   19.9870 C   0  0  0  0  0  3  0  0  0  0  0  0
  -30.1290  -15.8880   20.5520 N   0  0  0  0  0  0  0  0  0  0  0  0
  -25.5940  -13.8850   20.5490 C   0  0  0  0  0  0  0  0  0  0  0  0
  -24.5070  -13.1380   20.9090 C   0  0  0  0  0  0  0  0  0  0  0  0
  -24.9570  -11.7850   20.9630 C   0  0  0  0  0  0  0  0  0  0  0  0
  -26.6370  -12.9850   20.3970 N   0  0  0  0  0  0  0  0  0  0  0  0
  -26.2580  -11.7210   20.7100 N   0  0  0  0  0  0  0  0  0  0  0  0
  -24.2140  -10.5380   21.1860 C   0  0  0  0  0  0  0  0  0  0  0  0
  -24.5800   -9.6310   22.2040 C   0  0  0  0  0  3  0  0  0  0  0  0
  -23.8380   -8.4490   22.4100 C   0  0  0  0  0  3  0  0  0  0  0  0
  -22.7150   -8.1650   21.5960 C   0  0  0  0  0  0  0  0  0  0  0  0
  -22.3690   -9.0600   20.5690 C   0  0  0  0  0  3  0  0  0  0  0  0
  -23.1130  -10.2330   20.3620 C   0  0  0  0  0  3  0  0  0  0  0  0
  -21.9520   -7.0290   21.7060 O   0  0  0  0  0  0  0  0  0  0  0  0
  -21.7880   -6.3860   22.9080 C   0  0  0  0  0  0  0  0  0  0  0  0
  -21.2340   -7.0370   24.0320 C   0  0  0  0  0  3  0  0  0  0  0  0
  -21.0190   -6.3190   25.2260 C   0  0  0  0  0  3  0  0  0  0  0  0
  -21.3470   -4.9500   25.2940 C   0  0  0  0  0  0  0  0  0  0  0  0
  -21.8940   -4.3010   24.1730 C   0  0  0  0  0  3  0  0  0  0  0  0
  -22.1100   -5.0160   22.9820 C   0  0  0  0  0  0  0  0  0  0  0  0
  -22.6170   -4.3800   21.8990 F   0  0  0  0  0  0  0  0  0  0  0  0
  -21.1330   -4.2590   26.4380 F   0  0  0  0  0  0  0  0  0  0  0  0
  -23.1050  -13.6380   21.1030 C   0  0  0  0  0  0  0  0  0  0  0  0
  -22.3430  -12.9970   21.9810 N   0  0  0  0  0  0  0  0  0  0  0  0
  -22.6930  -14.6360   20.5110 O   0  0  0  0  0  0  0  0  0  0  0  0
  -22.6870  -12.1900   22.4810 H   0  0  0  0  0  0  0  0  0  0  0  0
  -21.4000  -13.3150   22.1570 H   0  0  0  0  0  0  0  0  0  0  0  0
  -25.7790  -15.2450   20.3170 N   0  0  0  0  0  0  0  0  0  0  0  0
  -25.0220  -15.9150   20.3830 H   0  0  0  0  0  0  0  0  0  0  0  0
  -26.6570  -15.6630   20.0440 H   0  0  0  0  0  0  0  0  0  0  0  0
  1  2  1  0
  3  4  2  0
  3  5  1  0
  4  6  1  0
  5  1  2  0
  6 58  1  0
  6  2  2  0
  7 10  1  0
  8  7  1  0
  8 12  1  0
  9 10  1  0
 10  4  1  0
 12 11  1  0
 12  9  1  0
 12 13  1  6
 14 16  1  0
 14  5  1  0
 14 17  1  0
 15 16  1  0
 18 29  2  0
 19 17  1  0
 19 24  1  0
 20 28  1  0
 20 30  1  0
 21 27  1  0
 21 23  1  0
 22 28  1  0
 23 24  2  0
 23 22  1  0
 25 19  2  0
 26 25  1  0
 26 21  2  0
 27 20  1  0
 28 18  1  0
 30 32  2  0
 31 30  1  0
 33 31  1  0
 34 43  2  0
 34 39  1  0
 35 31  1  0
 35 39  1  0
 36 35  1  0
 37 38  1  0
 37 36  1  0
 38 34  1  0
 39 40  2  0
 40 41  1  0
 42 41  2  0
 43 42  1  0
 44 18  1  0
 44 49  1  0
 44 45  1  0
 45 48  1  1
 45 46  1  0
 47 45  1  0
 49 52  1  0
 50 54  1  0
 50 49  1  0
 51 50  2  0
 54 53  1  0
 56 54  1  0
 56 57  1  0
 56 55  1  0
 59 72  1  0
 59 65  1  0
 60 65  1  0
 61 62  1  0
 61 60  1  0
 63 62  1  0
 63 76  1  0
 63 64  1  0
 65 64  1  0
 66 59  2  0
 67 69  1  0
 68 70  1  0
 68 71  1  0
 70 72  1  0
 71 58  1  0
 71 67  1  0
 72 69  1  0
 73 74  2  0
 74 75  1  0
 74 93  1  0
 75 78  1  0
 76 73  1  0
 76 77  1  0
 77 75  2  0
 78 79  1  0
 79 80  2  0
 81 84  1  0
 81 80  1  0
 82 81  2  0
 83 82  1  0
 83 78  2  0
 84 85  1  0
 85 90  2  0
 85 86  1  0
 86 87  2  0
 87 88  1  0
 88 92  1  0
 89 88  2  0
 90 89  1  0
 91 90  1  0
 93 94  1  0
 94 97  1  0
 94 96  1  0
 95 93  2  0
 98 99  1  0
 98 73  1  0
100 98  1  0
M  ISO  4  14 101  17 101  59 100  72 100
M  END
>  <TORSDO>  (41) 
F 20

>  <SCORE>  (41) 
-11.316

>  <name>  (41) 
40

>  <ligand_id>  (41) 
40

>  <original_smiles>  (41) 
[H]c1c([H])c([H])c2c(c1[H])C([H])([H])C([H])([H])C([H])([H])C2([H])N([H])C(=O)C1([H])N(C(=O)C([H])(N([H])C(=O)C([H])(N([H])C([H])([H])[H])C([H])([H])[H])C(C([H])([H])[H])(C([H])([H])[H])C([H])([H])[H])C([H])([H])c2c([H])c(OC([H])(c3c([H])c([H])c(OC4([H])C([H])([H])C([H])([H])N(C(=O)N5C([H])([H])C([H])([H])C([H])([H])C([H])(n6nc(-c7c([H])c([H])c(Oc8c([H])c([H])c(F)c([H])c8F)c([H])c7[H])c(C(=O)N([H])[H])c6N([H])[H])C5([H])[H])C([H])([H])C4([H])[H])c(C4([H])C([H])([H])C([H])([H])[N+]([H])(C([H])([H])[H])C4([H])[H])c3[H])C([H])([H])C([H])([H])[H])c([H])c([H])c2C1([H])[H]

>  <smiles>  (41) 
[H]c1c([H])c([H])c2c(c1[H])C([H])([H])C([H])([H])C([H])([H])C2([H])N([H])C(=O)C1([H])N(C(=O)C([H])(N([H])C(=O)C([H])(N([H])C([H])([H])[H])C([H])([H])[H])C(C([H])([H])[H])(C([H])([H])[H])C([H])([H])[H])C([H])([H])c2c([H])c(OC([H])(c3c([H])c([H])c(OC4([H])C([H])([H])C([H])([H])N(C(=O)N5C([H])([H])C([H])([H])C([H])([H])C([H])(n6nc(-c7c([H])c([H])c(Oc8c([H])c([H])c(F)c([H])c8F)c([H])c7[H])c(C(=O)N([H])[H])c6N([H])[H])C5([H])[H])C([H])([H])C4([H])[H])c(C4([H])C([H])([H])C([H])([H])[N+]([H])(C([H])([H])[H])C4([H])[H])c3[H])C([H])([H])C([H])([H])[H])c([H])c([H])c2C1([H])[H]

$$$$
41:0:0
     RDKit          3D

 99109  0  0  1  0  0  0  0  0999 V2000
  -30.1300  -21.3960   22.1770 C   0  0  0  0  0  3  0  0  0  0  0  0
  -31.0530  -19.5130   20.3390 C   0  0  0  0  0  3  0  0  0  0  0  0
  -30.3080  -21.7960   20.8310 C   0  0  0  0  0  0  0  0  0  0  0  0
  -30.3850  -20.0780   22.6050 C   0  0  0  0  0  0  0  0  0  0  0  0
  -30.8060  -20.8360   19.8980 C   0  0  0  0  0  0  0  0  0  0  0  0
  -30.8170  -19.1080   21.6710 C   0  0  0  0  0  0  0  0  0  0  0  0
  -30.2110  -19.7400   24.0810 C   0  0  0  0  0  1  0  0  0  0  0  0
  -31.5820  -14.5960   19.2560 C   0  0  0  0  0  0  0  0  0  0  0  0
  -30.9880  -12.4470   18.1660 C   0  0  0  0  0  2  0  0  0  0  0  0
  -29.8080  -12.6000   17.1880 C   0  0  0  0  0  2  0  0  0  0  0  0
  -28.4630  -12.4590   17.9250 C   0  0  0  0  0  2  0  0  0  0  0  0
  -28.3820  -13.3710   19.1720 C   0  0  0  0  0  3  0  0  0  0  0  0
  -29.6410  -13.1810   20.0520 C   0  0  0  0  0  2  0  0  0  0  0  0
  -30.8340  -13.4540   19.2300 N   0  0  0  0  0  0  0  0  0  0  0  0
  -32.4920  -14.8070   18.4480 O   0  0  0  0  0  0  0  0  0  0  0  0
  -29.8470  -16.9390   21.5140 C   0  0  0  0  0  2  0  0  0  0  0  0
  -32.2570  -17.1220   22.0780 C   0  0  0  0  0  3  0  0  0  0  0  0
  -30.2590  -16.4160   20.1430 C   0  0  0  0  0  2  0  0  0  0  0  0
  -32.4330  -15.8300   21.2110 C   0  0  0  0  0  3  0  0  0  0  0  0
  -30.9290  -17.7520   22.0470 N   0  0  0  0  0  0  0  0  0  0  0  0
  -31.3430  -15.4430   20.2860 N   0  0  0  0  0  0  0  0  0  0  0  0
  -26.2930  -14.0770   20.5110 C   0  0  0  0  0  0  0  0  0  0  0  0
  -25.2600  -13.3460   21.0370 C   0  0  0  0  0  0  0  0  0  0  0  0
  -25.5510  -11.9810   20.7370 C   0  0  0  0  0  0  0  0  0  0  0  0
  -27.1510  -13.1530   19.9280 N   0  0  0  0  0  0  0  0  0  0  0  0
  -26.7200  -11.8830   20.1190 N   0  0  0  0  0  0  0  0  0  0  0  0
  -24.7600  -10.7640   20.9450 C   0  0  0  0  0  0  0  0  0  0  0  0
  -25.1630   -9.7670   21.8620 C   0  0  0  0  0  3  0  0  0  0  0  0
  -24.3680   -8.6160   22.0600 C   0  0  0  0  0  3  0  0  0  0  0  0
  -23.1600   -8.4530   21.3410 C   0  0  0  0  0  0  0  0  0  0  0  0
  -22.7790   -9.4360   20.4130 C   0  0  0  0  0  3  0  0  0  0  0  0
  -23.5730  -10.5780   20.2130 C   0  0  0  0  0  3  0  0  0  0  0  0
  -22.3400   -7.3550   21.4500 O   0  0  0  0  0  0  0  0  0  0  0  0
  -22.0430   -6.7950   22.6660 C   0  0  0  0  0  0  0  0  0  0  0  0
  -21.4260   -7.5350   23.6970 C   0  0  0  0  0  3  0  0  0  0  0  0
  -21.0790   -6.9030   24.9080 C   0  0  0  0  0  3  0  0  0  0  0  0
  -21.3340   -5.5280   25.0840 C   0  0  0  0  0  0  0  0  0  0  0  0
  -21.9420   -4.7890   24.0550 C   0  0  0  0  0  3  0  0  0  0  0  0
  -22.2940   -5.4210   22.8500 C   0  0  0  0  0  0  0  0  0  0  0  0
  -22.8630   -4.6990   21.8530 F   0  0  0  0  0  0  0  0  0  0  0  0
  -20.9930   -4.9170   26.2420 F   0  0  0  0  0  0  0  0  0  0  0  0
  -24.0240  -13.8860   21.6970 C   0  0  0  0  0  0  0  0  0  0  0  0
  -23.4880  -13.1700   22.6790 N   0  0  0  0  0  0  0  0  0  0  0  0
  -23.5510  -14.9770   21.3790 O   0  0  0  0  0  0  0  0  0  0  0  0
  -23.8840  -12.2840   22.9600 H   0  0  0  0  0  0  0  0  0  0  0  0
  -22.6720  -13.5140   23.1660 H   0  0  0  0  0  0  0  0  0  0  0  0
  -26.5660  -15.4410   20.4570 N   0  0  0  0  0  0  0  0  0  0  0  0
  -25.9160  -16.1320   20.8150 H   0  0  0  0  0  0  0  0  0  0  0  0
  -27.3200  -15.8530   19.9210 H   0  0  0  0  0  0  0  0  0  0  0  0
  -29.5290  -24.2100   21.5320 C   0  0  0  0  0  2  0  0  0  0  0  0
  -28.8430  -23.2360   19.3240 C   0  0  0  0  0  2  0  0  0  0  0  0
  -29.0580  -25.5990   21.0250 C   0  0  0  0  0  2  0  0  0  0  0  0
  -28.6610  -24.6230   18.6650 C   0  0  0  0  0  2  0  0  0  0  0  0
  -29.9490  -23.2310   20.3990 C   0  0  0  0  0  3  0  0  0  0  0  0
  -29.2390  -25.7880   19.4980 C   0  0  0  0  0  3  0  0  0  0  0  0
  -28.9130  -27.0780   18.9590 O   0  0  0  0  0  0  0  0  0  0  0  0
  -25.2830  -31.0070   23.5980 C   0  0  0  0  0  0  0  0  0  0  0  0
  -27.7070  -27.6760   19.2450 C   0  0  0  0  0  0  0  0  0  0  0  0
  -23.9600  -30.1030   21.7110 C   0  0  0  0  0  3  0  0  0  0  0  0
  -25.3080  -29.0600   19.8170 C   0  0  0  0  0  0  0  0  0  0  0  0
  -26.4610  -30.5670   21.4490 C   0  0  0  0  0  2  0  0  0  0  0  0
  -26.5000  -29.4310   20.4500 C   0  0  0  0  0  0  0  0  0  0  0  0
  -27.7000  -28.7510   20.1580 C   0  0  0  0  0  3  0  0  0  0  0  0
  -26.5000  -27.3140   18.6070 C   0  0  0  0  0  3  0  0  0  0  0  0
  -25.3030  -28.0030   18.8890 C   0  0  0  0  0  3  0  0  0  0  0  0
  -24.0680  -29.8450   20.1840 C   0  0  0  0  0  2  0  0  0  0  0  0
  -25.2570  -30.5580   22.3120 N   0  0  0  0  0  0  0  0  0  0  0  0
  -24.2450  -31.0890   24.2690 O   0  0  0  0  0  0  0  0  0  0  0  0
  -23.3830  -28.8370   22.3840 C   0  0  0  0  0  0  0  0  0  0  0  0
  -22.0830  -28.5830   22.1590 N   0  0  0  0  0  0  0  0  0  0  0  0
  -24.1000  -28.0970   23.0620 O   0  0  0  0  0  0  0  0  0  0  0  0
  -21.5600  -29.2460   21.6070 H   0  0  0  0  0  0  0  0  0  0  0  0
  -18.8960  -26.8910   21.9890 C   0  0  0  0  0  0  0  0  0  0  0  0
  -21.3350  -27.4280   22.6550 C   0  0  0  0  0  3  0  0  0  0  0  0
  -21.7210  -26.1420   21.8870 C   0  0  0  0  0  2  0  0  0  0  0  0
  -20.8070  -25.8570   20.6910 C   0  0  0  0  0  2  0  0  0  0  0  0
  -19.3520  -25.7100   21.1480 C   0  0  0  0  0  2  0  0  0  0  0  0
  -19.8290  -27.7070   22.6820 C   0  0  0  0  0  0  0  0  0  0  0  0
  -19.3560  -28.8150   23.4190 C   0  0  0  0  0  3  0  0  0  0  0  0
  -17.9800  -29.1090   23.4730 C   0  0  0  0  0  3  0  0  0  0  0  0
  -17.0600  -28.2880   22.7990 C   0  0  0  0  0  3  0  0  0  0  0  0
  -17.5170  -27.1800   22.0640 C   0  0  0  0  0  3  0  0  0  0  0  0
  -26.6120  -31.4620   24.2800 C   0  0  0  0  0  3  0  0  0  0  0  0
  -26.3630  -32.7630   24.9110 N   0  0  0  0  0  0  0  0  0  0  0  0
  -26.8000  -33.9350   24.4330 C   0  0  0  0  0  0  0  0  0  0  0  0
  -27.5260  -34.0260   23.4390 O   0  0  0  0  0  0  0  0  0  0  0  0
  -25.7280  -32.7720   25.6960 H   0  0  0  0  0  0  0  0  0  0  0  0
  -25.2380  -35.9080   24.3910 C   0  0  0  0  0  1  0  0  0  0  0  0
  -26.3620  -35.2130   25.1760 C   0  0  0  0  0  3  0  0  0  0  0  0
  -28.4700  -35.6740   26.3500 C   0  0  0  0  0  1  0  0  0  0  0  0
  -27.4680  -36.1670   25.4090 N   0  0  0  0  0  0  0  0  0  0  0  0
  -27.1100  -37.0520   25.7600 H   0  0  0  0  0  0  0  0  0  0  0  0
  -27.1550  -30.4240   25.3370 C   0  0  1  0  0  0  0  0  0  0  0  0
  -26.0890  -29.9570   26.3540 C   0  0  0  0  0  1  0  0  0  0  0  0
  -27.7180  -29.1670   24.6310 C   0  0  0  0  0  1  0  0  0  0  0  0
  -28.3230  -31.0480   26.1350 C   0  0  0  0  0  1  0  0  0  0  0  0
  -30.4570  -20.1500   17.4490 C   0  0  0  0  0  1  0  0  0  0  0  0
  -32.5860  -21.3340   18.1610 C   0  0  0  0  0  1  0  0  0  0  0  0
  -31.0810  -21.1670   18.4230 C   0  0  0  0  0  3  0  0  0  0  0  0
  1  4  1  0
  2  6  1  0
  3  1  2  0
  4  7  1  0
  5  2  2  0
  5  3  1  0
  6 20  1  0
  6  4  2  0
  8 21  1  0
  9 14  1  0
 10 11  1  0
 10  9  1  0
 12 11  1  0
 12 25  1  0
 12 13  1  0
 14  8  1  0
 14 13  1  0
 15  8  2  0
 16 20  1  0
 18 21  1  0
 18 16  1  0
 19 17  2  0
 20 17  1  0
 21 19  1  0
 22 23  2  0
 23 42  1  0
 24 27  1  0
 24 23  1  0
 25 26  1  0
 25 22  1  0
 26 24  2  0
 27 28  1  0
 28 29  2  0
 30 33  1  0
 30 29  1  0
 31 30  2  0
 32 31  1  0
 32 27  2  0
 33 34  1  0
 34 39  2  0
 34 35  1  0
 35 36  2  0
 36 37  1  0
 37 41  1  0
 38 37  2  0
 39 38  1  0
 40 39  1  0
 42 43  1  0
 43 45  1  0
 43 46  1  0
 44 42  2  0
 47 22  1  0
 47 48  1  0
 49 47  1  0
 51 54  1  0
 52 50  1  0
 53 51  1  0
 53 55  1  0
 54  3  1  0
 54 50  1  0
 55 56  1  0
 55 52  1  0
 56 58  1  0
 57 68  2  0
 58 63  1  0
 59 67  1  0
 59 69  1  0
 60 66  1  0
 60 62  1  0
 61 67  1  0
 62 61  1  0
 63 62  2  0
 64 65  1  0
 64 58  2  0
 65 60  2  0
 66 59  1  0
 67 57  1  0
 69 71  2  0
 70 69  1  0
 72 70  1  0
 73 82  2  0
 73 78  1  0
 74 70  1  0
 74 78  1  0
 75 74  1  0
 76 77  1  0
 76 75  1  0
 77 73  1  0
 78 79  2  0
 79 80  1  0
 81 80  2  0
 82 81  1  0
 83 57  1  0
 83 84  1  0
 83 93  1  0
 84 87  1  0
 85 84  1  0
 85 89  1  0
 86 85  2  0
 89 88  1  0
 89 91  1  0
 91 92  1  0
 91 90  1  0
 93 96  1  1
 93 94  1  0
 95 93  1  0
 97 99  1  0
 98 99  1  0
 99  5  1  0
M  ISO  4   8 100  21 100  55 101  56 101
M  END
>  <TORSDO>  (42) 
F 18

>  <SCORE>  (42) 
-5.826

>  <name>  (42) 
41

>  <ligand_id>  (42) 
41

>  <original_smiles>  (42) 
[H]c1c([H])c([H])c2c(c1[H])C([H])([H])C([H])([H])C([H])([H])C2([H])N([H])C(=O)C1([H])N(C(=O)C([H])(N([H])C(=O)C([H])(N([H])C([H])([H])[H])C([H])([H])[H])C(C([H])([H])[H])(C([H])([H])[H])C([H])([H])[H])C([H])([H])c2c([H])c(OC3([H])C([H])([H])C([H])([H])C([H])(c4c([H])c(C([H])([H])[H])c(N5C([H])([H])C([H])([H])N(C(=O)N6C([H])([H])C([H])([H])C([H])([H])C([H])(n7nc(-c8c([H])c([H])c(Oc9c([H])c([H])c(F)c([H])c9F)c([H])c8[H])c(C(=O)N([H])[H])c7N([H])[H])C6([H])[H])C([H])([H])C5([H])[H])c([H])c4C([H])(C([H])([H])[H])C([H])([H])[H])C([H])([H])C3([H])[H])c([H])c([H])c2C1([H])[H]

>  <smiles>  (42) 
[H]c1c([H])c([H])c2c(c1[H])C([H])([H])C([H])([H])C([H])([H])C2([H])N([H])C(=O)C1([H])N(C(=O)C([H])(N([H])C(=O)C([H])(N([H])C([H])([H])[H])C([H])([H])[H])C(C([H])([H])[H])(C([H])([H])[H])C([H])([H])[H])C([H])([H])c2c([H])c(OC3([H])C([H])([H])C([H])([H])C([H])(c4c([H])c(C([H])([H])[H])c(N5C([H])([H])C([H])([H])N(C(=O)N6C([H])([H])C([H])([H])C([H])([H])C([H])(n7nc(-c8c([H])c([H])c(Oc9c([H])c([H])c(F)c([H])c9F)c([H])c8[H])c(C(=O)N([H])[H])c7N([H])[H])C6([H])[H])C([H])([H])C5([H])[H])c([H])c4C([H])(C([H])([H])[H])C([H])([H])[H])C([H])([H])C3([H])[H])c([H])c([H])c2C1([H])[H]

$$$$
42:0:0
     RDKit          3D

 94103  0  0  1  0  0  0  0  0999 V2000
  -30.6970  -14.6160   20.4370 C   0  0  0  0  0  0  0  0  0  0  0  0
  -30.3770  -12.3960   19.3980 C   0  0  0  0  0  2  0  0  0  0  0  0
  -29.4520  -12.5300   18.1720 C   0  0  0  0  0  2  0  0  0  0  0  0
  -27.9780  -12.3960   18.5950 C   0  0  0  0  0  2  0  0  0  0  0  0
  -27.6180  -13.2800   19.8210 C   0  0  0  0  0  3  0  0  0  0  0  0
  -28.6720  -13.1690   20.9440 C   0  0  0  0  0  2  0  0  0  0  0  0
  -29.9860  -13.4500   20.3520 N   0  0  0  0  0  0  0  0  0  0  0  0
  -31.8920  -14.6510   20.1270 O   0  0  0  0  0  0  0  0  0  0  0  0
  -30.3280  -21.1200   20.3130 C   0  0  0  0  0  3  0  0  0  0  0  0
  -27.7640  -21.8510   19.7720 C   0  0  0  0  0  3  0  0  0  0  0  0
  -28.7460  -22.8650   19.6160 C   0  0  0  0  0  0  0  0  0  0  0  0
  -30.0680  -22.4790   19.9530 C   0  0  0  0  0  0  0  0  0  0  0  0
  -29.2930  -20.1600   20.2950 C   0  0  0  0  0  0  0  0  0  0  0  0
  -29.9580  -18.1880   21.6860 C   0  0  0  0  0  2  0  0  0  0  0  0
  -28.7940  -17.8100   19.6110 C   0  0  0  0  0  2  0  0  0  0  0  0
  -30.6660  -16.7960   21.5410 C   0  0  0  0  0  2  0  0  0  0  0  0
  -29.5900  -16.4900   19.3910 C   0  0  0  0  0  2  0  0  0  0  0  0
  -28.0220  -20.5490   20.0690 N   0  0  0  0  0  0  0  0  0  0  0  0
  -29.5710  -18.7630   20.4000 N   0  0  0  0  0  0  0  0  0  0  0  0
  -30.0220  -15.7990   20.6340 N   0  0  0  0  0  0  0  0  0  0  0  0
  -25.2330  -13.9060   20.5280 C   0  0  0  0  0  0  0  0  0  0  0  0
  -24.1550  -13.1460   20.8900 C   0  0  0  0  0  0  0  0  0  0  0  0
  -24.6040  -11.7890   20.8680 C   0  0  0  0  0  0  0  0  0  0  0  0
  -26.2680  -13.0130   20.3040 N   0  0  0  0  0  0  0  0  0  0  0  0
  -25.8960  -11.7350   20.5710 N   0  0  0  0  0  0  0  0  0  0  0  0
  -23.8630  -10.5350   21.0550 C   0  0  0  0  0  0  0  0  0  0  0  0
  -24.2840   -9.5620   21.9870 C   0  0  0  0  0  3  0  0  0  0  0  0
  -23.5440   -8.3720   22.1630 C   0  0  0  0  0  3  0  0  0  0  0  0
  -22.3700   -8.1480   21.4050 C   0  0  0  0  0  0  0  0  0  0  0  0
  -21.9690   -9.1100   20.4610 C   0  0  0  0  0  3  0  0  0  0  0  0
  -22.7090  -10.2910   20.2840 C   0  0  0  0  0  3  0  0  0  0  0  0
  -21.6030   -7.0120   21.4910 O   0  0  0  0  0  0  0  0  0  0  0  0
  -21.5440   -6.2690   22.6430 C   0  0  0  0  0  0  0  0  0  0  0  0
  -21.1220   -6.8260   23.8690 C   0  0  0  0  0  3  0  0  0  0  0  0
  -21.0100   -6.0090   25.0120 C   0  0  0  0  0  3  0  0  0  0  0  0
  -21.3080   -4.6360   24.9290 C   0  0  0  0  0  0  0  0  0  0  0  0
  -21.7220   -4.0780   23.7070 C   0  0  0  0  0  3  0  0  0  0  0  0
  -21.8370   -4.8920   22.5660 C   0  0  0  0  0  0  0  0  0  0  0  0
  -22.2160   -4.3450   21.3870 F   0  0  0  0  0  0  0  0  0  0  0  0
  -21.1920   -3.8500   26.0240 F   0  0  0  0  0  0  0  0  0  0  0  0
  -22.7600  -13.6390   21.1470 C   0  0  0  0  0  0  0  0  0  0  0  0
  -22.0170  -12.9550   22.0090 N   0  0  0  0  0  0  0  0  0  0  0  0
  -22.3380  -14.6660   20.6180 O   0  0  0  0  0  0  0  0  0  0  0  0
  -22.3700  -12.1240   22.4620 H   0  0  0  0  0  0  0  0  0  0  0  0
  -21.0800  -13.2670   22.2200 H   0  0  0  0  0  0  0  0  0  0  0  0
  -25.4130  -15.2740   20.3490 N   0  0  0  0  0  0  0  0  0  0  0  0
  -24.6550  -15.9400   20.4600 H   0  0  0  0  0  0  0  0  0  0  0  0
  -26.2800  -15.7050   20.0570 H   0  0  0  0  0  0  0  0  0  0  0  0
  -27.1240  -24.0740   17.9800 C   0  0  0  0  0  1  0  0  0  0  0  0
  -28.4240  -24.1780   18.8050 C   0  0  0  0  0  3  0  0  0  0  0  0
  -28.8540  -25.6760   19.1940 C   0  0  0  0  0  2  0  0  0  0  0  0
  -28.3920  -26.5340   20.2840 O   0  0  0  0  0  0  0  0  0  0  0  0
  -24.6180  -31.8740   23.2440 C   0  0  0  0  0  0  0  0  0  0  0  0
  -27.2810  -27.3700   20.1740 C   0  0  0  0  0  0  0  0  0  0  0  0
  -23.4310  -30.4690   21.5970 C   0  0  0  0  0  3  0  0  0  0  0  0
  -24.9000  -28.9420   20.1710 C   0  0  0  0  0  0  0  0  0  0  0  0
  -25.9670  -30.8130   21.4270 C   0  0  0  0  0  2  0  0  0  0  0  0
  -26.0590  -29.4400   20.7790 C   0  0  0  0  0  0  0  0  0  0  0  0
  -27.2490  -28.6570   20.7860 C   0  0  0  0  0  3  0  0  0  0  0  0
  -26.0980  -26.9210   19.5580 C   0  0  0  0  0  3  0  0  0  0  0  0
  -24.9180  -27.6840   19.5560 C   0  0  0  0  0  3  0  0  0  0  0  0
  -23.6550  -29.8010   20.2160 C   0  0  0  0  0  2  0  0  0  0  0  0
  -24.6900  -31.0680   22.1470 N   0  0  0  0  0  0  0  0  0  0  0  0
  -23.5310  -32.1430   23.7740 O   0  0  0  0  0  0  0  0  0  0  0  0
  -22.7740  -29.4430   22.5510 C   0  0  0  0  0  0  0  0  0  0  0  0
  -21.4480  -29.2690   22.4290 N   0  0  0  0  0  0  0  0  0  0  0  0
  -23.4560  -28.8080   23.3590 O   0  0  0  0  0  0  0  0  0  0  0  0
  -20.9580  -29.8340   21.7490 H   0  0  0  0  0  0  0  0  0  0  0  0
  -18.0670  -28.0960   22.9470 C   0  0  0  0  0  0  0  0  0  0  0  0
  -20.6280  -28.3320   23.1970 C   0  0  0  0  0  3  0  0  0  0  0  0
  -20.7140  -26.9050   22.6070 C   0  0  0  0  0  2  0  0  0  0  0  0
  -19.6010  -26.6010   21.5990 C   0  0  0  0  0  2  0  0  0  0  0  0
  -18.2260  -26.7520   22.2560 C   0  0  0  0  0  2  0  0  0  0  0  0
  -19.1950  -28.8440   23.3750 C   0  0  0  0  0  0  0  0  0  0  0  0
  -18.9910  -30.1030   23.9810 C   0  0  0  0  0  3  0  0  0  0  0  0
  -17.6920  -30.6140   24.1620 C   0  0  0  0  0  3  0  0  0  0  0  0
  -16.5780  -29.8620   23.7500 C   0  0  0  0  0  3  0  0  0  0  0  0
  -16.7660  -28.6050   23.1480 C   0  0  0  0  0  3  0  0  0  0  0  0
  -25.8950  -32.5140   23.8730 C   0  0  0  0  0  3  0  0  0  0  0  0
  -25.5760  -33.9110   24.1960 N   0  0  0  0  0  0  0  0  0  0  0  0
  -25.9070  -34.9620   23.4350 C   0  0  0  0  0  0  0  0  0  0  0  0
  -26.5820  -34.8580   22.4070 O   0  0  0  0  0  0  0  0  0  0  0  0
  -24.9770  -34.0650   24.9950 H   0  0  0  0  0  0  0  0  0  0  0  0
  -24.1710  -36.7450   23.0650 C   0  0  0  0  0  1  0  0  0  0  0  0
  -25.4090  -36.3490   23.8840 C   0  0  0  0  0  3  0  0  0  0  0  0
  -27.5350  -37.2480   24.7240 C   0  0  0  0  0  1  0  0  0  0  0  0
  -26.4380  -37.4070   23.7750 N   0  0  0  0  0  0  0  0  0  0  0  0
  -26.0260  -38.3260   23.9170 H   0  0  0  0  0  0  0  0  0  0  0  0
  -26.4060  -31.7480   25.1540 C   0  0  1  0  0  0  0  0  0  0  0  0
  -25.3070  -31.5100   26.2160 C   0  0  0  0  0  1  0  0  0  0  0  0
  -26.9960  -30.3720   24.7700 C   0  0  0  0  0  1  0  0  0  0  0  0
  -27.5500  -32.5480   25.8210 C   0  0  0  0  0  1  0  0  0  0  0  0
  -32.3860  -23.0730   20.1620 C   0  0  0  0  0  1  0  0  0  0  0  0
  -31.0530  -23.4360   19.8310 O   0  0  0  0  0  0  0  0  0  0  0  0
  1 20  1  0
  2  7  1  0
  3  4  1  0
  3  2  1  0
  5  4  1  0
  5 24  1  0
  5  6  1  0
  7  1  1  0
  7  6  1  0
  8  1  2  0
 10 18  1  0
 11 10  2  0
 11 12  1  0
 12  9  2  0
 13  9  1  0
 13 19  1  0
 15 19  1  0
 16 14  1  0
 17 15  1  0
 17 20  1  0
 18 13  2  0
 19 14  1  0
 20 16  1  0
 21 22  2  0
 22 41  1  0
 23 22  1  0
 23 26  1  0
 24 21  1  0
 24 25  1  0
 25 23  2  0
 26 27  1  0
 27 28  2  0
 29 32  1  0
 29 28  1  0
 30 29  2  0
 31 30  1  0
 31 26  2  0
 32 33  1  0
 33 34  1  0
 34 35  2  0
 36 35  1  0
 36 40  1  0
 37 36  2  0
 38 33  2  0
 38 37  1  0
 39 38  1  0
 41 42  1  0
 42 45  1  0
 42 44  1  0
 43 41  2  0
 46 47  1  0
 46 21  1  0
 48 46  1  0
 50 49  1  0
 50 51  1  0
 50 11  1  0
 51 52  1  0
 53 64  2  0
 54 52  1  0
 54 59  1  0
 55 63  1  0
 55 65  1  0
 56 62  1  0
 56 58  1  0
 57 63  1  0
 58 59  2  0
 58 57  1  0
 60 54  2  0
 61 60  1  0
 61 56  2  0
 62 55  1  0
 63 53  1  0
 65 67  2  0
 66 65  1  0
 68 66  1  0
 69 78  2  0
 69 74  1  0
 70 66  1  0
 70 74  1  0
 71 70  1  0
 72 73  1  0
 72 71  1  0
 73 69  1  0
 74 75  2  0
 75 76  1  0
 77 76  2  0
 78 77  1  0
 79 53  1  0
 79 80  1  0
 79 89  1  0
 80 83  1  0
 81 85  1  0
 81 80  1  0
 82 81  2  0
 85 84  1  0
 87 85  1  0
 87 88  1  0
 87 86  1  0
 89 92  1  1
 89 90  1  0
 91 89  1  0
 94 12  1  0
 94 93  1  0
M  ISO  4   1 100  20 100  51 101  52 101
M  END
>  <TORSDO>  (43) 
F 18

>  <SCORE>  (43) 
-14.683

>  <name>  (43) 
42

>  <ligand_id>  (43) 
42

>  <original_smiles>  (43) 
[H]c1nc(N2C([H])([H])C([H])([H])N(C(=O)N3C([H])([H])C([H])([H])C([H])([H])C([H])(n4nc(-c5c([H])c([H])c(Oc6c([H])c([H])c(F)c([H])c6F)c([H])c5[H])c(C(=O)N([H])[H])c4N([H])[H])C3([H])[H])C([H])([H])C2([H])[H])c([H])c(OC([H])([H])[H])c1C([H])(C([H])([H])[H])C([H])([H])Oc1c([H])c([H])c2c(c1[H])C([H])([H])N(C(=O)C([H])(N([H])C(=O)C([H])(N([H])C([H])([H])[H])C([H])([H])[H])C(C([H])([H])[H])(C([H])([H])[H])C([H])([H])[H])C([H])(C(=O)N([H])C1([H])c3c([H])c([H])c([H])c([H])c3C([H])([H])C([H])([H])C1([H])[H])C2([H])[H]

>  <smiles>  (43) 
[H]c1nc(N2C([H])([H])C([H])([H])N(C(=O)N3C([H])([H])C([H])([H])C([H])([H])C([H])(n4nc(-c5c([H])c([H])c(Oc6c([H])c([H])c(F)c([H])c6F)c([H])c5[H])c(C(=O)N([H])[H])c4N([H])[H])C3([H])[H])C([H])([H])C2([H])[H])c([H])c(OC([H])([H])[H])c1C([H])(C([H])([H])[H])C([H])([H])Oc1c([H])c([H])c2c(c1[H])C([H])([H])N(C(=O)C([H])(N([H])C(=O)C([H])(N([H])C([H])([H])[H])C([H])([H])[H])C(C([H])([H])[H])(C([H])([H])[H])C([H])([H])[H])C([H])(C(=O)N([H])C1([H])c3c([H])c([H])c([H])c([H])c3C([H])([H])C([H])([H])C1([H])[H])C2([H])[H]

$$$$
43:0:0
     RDKit          3D

 97107  0  0  1  0  0  0  0  0999 V2000
  -33.8580  -23.0410   20.0010 C   0  0  0  0  0  3  0  0  0  0  0  0
  -32.6570  -23.7910   20.0480 C   0  0  0  0  0  3  0  0  0  0  0  0
  -31.3870  -21.7400   20.4370 C   0  0  0  0  0  3  0  0  0  0  0  0
  -33.7960  -21.6420   20.1610 C   0  0  0  0  0  0  0  0  0  0  0  0
  -32.5760  -20.9940   20.3340 C   0  0  0  0  0  0  0  0  0  0  0  0
  -31.4100  -23.1390   20.2690 C   0  0  0  0  0  0  0  0  0  0  0  0
  -34.9440  -20.6600   20.1440 C   0  0  0  0  0  2  0  0  0  0  0  0
  -34.2540  -19.2820   20.0110 C   0  0  0  0  0  2  0  0  0  0  0  0
  -32.7690  -19.4840   20.4110 C   0  0  0  0  0  3  0  0  0  0  0  0
  -31.8610  -18.5910   19.6440 N   0  0  0  0  0  0  0  0  0  0  0  0
  -31.6250  -19.1550   18.3200 O   0  0  0  0  0  1  0  0  0  0  0  0
  -30.6540  -14.4500   20.4310 C   0  0  0  0  0  0  0  0  0  0  0  0
  -30.3690  -12.3350   19.2380 C   0  0  0  0  0  2  0  0  0  0  0  0
  -29.3990  -12.5710   18.0620 C   0  0  0  0  0  2  0  0  0  0  0  0
  -27.9450  -12.3650   18.5240 C   0  0  0  0  0  2  0  0  0  0  0  0
  -27.6150  -13.2020   19.7890 C   0  0  0  0  0  3  0  0  0  0  0  0
  -28.6810  -12.9650   20.8820 C   0  0  0  0  0  2  0  0  0  0  0  0
  -29.9990  -13.2730   20.3050 N   0  0  0  0  0  0  0  0  0  0  0  0
  -31.8330  -14.6120   20.0990 O   0  0  0  0  0  0  0  0  0  0  0  0
  -30.8650  -17.4830   21.5890 C   0  0  0  0  0  2  0  0  0  0  0  0
  -29.4420  -17.7680   19.4640 C   0  0  0  0  0  2  0  0  0  0  0  0
  -29.8510  -16.3380   21.7590 C   0  0  0  0  0  2  0  0  0  0  0  0
  -29.5460  -16.2510   19.2970 C   0  0  0  0  0  2  0  0  0  0  0  0
  -30.5760  -18.3720   20.3440 C   0  0  0  0  0  3  0  0  0  0  0  0
  -29.8310  -15.5120   20.5460 N   0  0  0  0  0  0  0  0  0  0  0  0
  -25.2250  -13.8660   20.4630 C   0  0  0  0  0  0  0  0  0  0  0  0
  -24.1450  -13.1080   20.8290 C   0  0  0  0  0  0  0  0  0  0  0  0
  -24.5960  -11.7540   20.8260 C   0  0  0  0  0  0  0  0  0  0  0  0
  -26.2610  -12.9620   20.2630 N   0  0  0  0  0  0  0  0  0  0  0  0
  -25.8870  -11.6900   20.5360 N   0  0  0  0  0  0  0  0  0  0  0  0
  -23.8620  -10.5000   21.0260 C   0  0  0  0  0  0  0  0  0  0  0  0
  -24.3000   -9.5340   21.9550 C   0  0  0  0  0  3  0  0  0  0  0  0
  -23.5750   -8.3380   22.1420 C   0  0  0  0  0  3  0  0  0  0  0  0
  -22.3970   -8.1040   21.3960 C   0  0  0  0  0  0  0  0  0  0  0  0
  -21.9780   -9.0570   20.4510 C   0  0  0  0  0  3  0  0  0  0  0  0
  -22.7050  -10.2440   20.2650 C   0  0  0  0  0  3  0  0  0  0  0  0
  -21.6390   -6.9630   21.4940 O   0  0  0  0  0  0  0  0  0  0  0  0
  -21.6110   -6.2180   22.6440 C   0  0  0  0  0  0  0  0  0  0  0  0
  -21.2170   -6.7700   23.8830 C   0  0  0  0  0  3  0  0  0  0  0  0
  -21.1360   -5.9490   25.0260 C   0  0  0  0  0  3  0  0  0  0  0  0
  -21.4360   -4.5770   24.9330 C   0  0  0  0  0  0  0  0  0  0  0  0
  -21.8220   -4.0250   23.6980 C   0  0  0  0  0  3  0  0  0  0  0  0
  -21.9080   -4.8420   22.5580 C   0  0  0  0  0  0  0  0  0  0  0  0
  -22.2600   -4.3000   21.3670 F   0  0  0  0  0  0  0  0  0  0  0  0
  -21.3510   -3.7860   26.0280 F   0  0  0  0  0  0  0  0  0  0  0  0
  -22.7470  -13.6020   21.0770 C   0  0  0  0  0  0  0  0  0  0  0  0
  -22.0050  -12.9230   21.9460 N   0  0  0  0  0  0  0  0  0  0  0  0
  -22.3210  -14.6210   20.5390 O   0  0  0  0  0  0  0  0  0  0  0  0
  -22.3590  -12.1010   22.4060 H   0  0  0  0  0  0  0  0  0  0  0  0
  -21.0660  -13.2370   22.1510 H   0  0  0  0  0  0  0  0  0  0  0  0
  -25.4090  -15.2310   20.2690 N   0  0  0  0  0  0  0  0  0  0  0  0
  -24.6590  -15.9090   20.3520 H   0  0  0  0  0  0  0  0  0  0  0  0
  -26.2990  -15.6500   20.0320 H   0  0  0  0  0  0  0  0  0  0  0  0
  -30.1810  -23.7510   20.3240 O   0  0  0  0  0  0  0  0  0  0  0  0
  -30.0870  -25.1410   20.0670 C   0  0  0  0  0  2  0  0  0  0  0  0
  -28.5910  -25.4710   19.9540 C   0  0  0  0  0  2  0  0  0  0  0  0
  -28.4710  -26.8640   20.1480 O   0  0  0  0  0  0  0  0  0  0  0  0
  -24.5720  -31.8640   23.2260 C   0  0  0  0  0  0  0  0  0  0  0  0
  -27.2320  -27.4590   20.1600 C   0  0  0  0  0  0  0  0  0  0  0  0
  -23.3570  -30.4600   21.5850 C   0  0  0  0  0  3  0  0  0  0  0  0
  -24.8080  -28.9070   20.1730 C   0  0  0  0  0  0  0  0  0  0  0  0
  -25.8720  -30.8320   21.3710 C   0  0  0  0  0  2  0  0  0  0  0  0
  -25.9570  -29.4570   20.7510 C   0  0  0  0  0  0  0  0  0  0  0  0
  -27.1660  -28.7380   20.7430 C   0  0  0  0  0  3  0  0  0  0  0  0
  -26.0640  -26.8970   19.5950 C   0  0  0  0  0  3  0  0  0  0  0  0
  -24.8540  -27.6220   19.5960 C   0  0  0  0  0  3  0  0  0  0  0  0
  -23.5610  -29.7600   20.2120 C   0  0  0  0  0  2  0  0  0  0  0  0
  -24.6190  -31.0680   22.1200 N   0  0  0  0  0  0  0  0  0  0  0  0
  -23.4950  -32.1280   23.7750 O   0  0  0  0  0  0  0  0  0  0  0  0
  -22.7110  -29.4460   22.5510 C   0  0  0  0  0  0  0  0  0  0  0  0
  -21.3870  -29.2620   22.4260 N   0  0  0  0  0  0  0  0  0  0  0  0
  -23.3960  -28.8190   23.3650 O   0  0  0  0  0  0  0  0  0  0  0  0
  -20.8930  -29.8200   21.7420 H   0  0  0  0  0  0  0  0  0  0  0  0
  -18.0120  -28.0890   22.9380 C   0  0  0  0  0  0  0  0  0  0  0  0
  -20.5710  -28.3280   23.2010 C   0  0  0  0  0  3  0  0  0  0  0  0
  -20.6630  -26.8980   22.6210 C   0  0  0  0  0  2  0  0  0  0  0  0
  -19.5550  -26.5850   21.6100 C   0  0  0  0  0  2  0  0  0  0  0  0
  -18.1770  -26.7390   22.2600 C   0  0  0  0  0  2  0  0  0  0  0  0
  -19.1370  -28.8420   23.3660 C   0  0  0  0  0  0  0  0  0  0  0  0
  -18.9300  -30.1080   23.9560 C   0  0  0  0  0  3  0  0  0  0  0  0
  -17.6290  -30.6170   24.1280 C   0  0  0  0  0  3  0  0  0  0  0  0
  -16.5170  -29.8610   23.7170 C   0  0  0  0  0  3  0  0  0  0  0  0
  -16.7110  -28.6000   23.1250 C   0  0  0  0  0  3  0  0  0  0  0  0
  -25.8610  -32.4900   23.8450 C   0  0  0  0  0  3  0  0  0  0  0  0
  -26.3820  -31.7180   25.1180 C   0  0  1  0  0  0  0  0  0  0  0  0
  -25.2960  -31.4880   26.1930 C   0  0  0  0  0  1  0  0  0  0  0  0
  -26.9550  -30.3390   24.7220 C   0  0  0  0  0  1  0  0  0  0  0  0
  -27.5390  -32.5060   25.7760 C   0  0  0  0  0  1  0  0  0  0  0  0
  -25.5620  -33.8870   24.1720 N   0  0  0  0  0  0  0  0  0  0  0  0
  -25.8970  -34.9380   23.4070 C   0  0  0  0  0  0  0  0  0  0  0  0
  -26.5640  -34.8310   22.3750 O   0  0  0  0  0  0  0  0  0  0  0  0
  -24.9690  -34.0460   24.9730 H   0  0  0  0  0  0  0  0  0  0  0  0
  -24.1730  -36.7360   23.0440 C   0  0  0  0  0  1  0  0  0  0  0  0
  -25.4090  -36.3290   23.8610 C   0  0  0  0  0  3  0  0  0  0  0  0
  -27.5450  -37.2130   24.6890 C   0  0  0  0  0  1  0  0  0  0  0  0
  -26.4440  -37.3790   23.7440 N   0  0  0  0  0  0  0  0  0  0  0  0
  -26.0390  -38.3020   23.8870 H   0  0  0  0  0  0  0  0  0  0  0  0
  1  2  2  0
  1  4  1  0
  2  6  1  0
  4  5  2  0
  5  9  1  0
  5  3  1  0
  6 54  1  0
  6  3  2  0
  7  4  1  0
  8  7  1  0
  8  9  1  0
  9 10  1  0
 11 10  1  0
 12 25  1  0
 13 18  1  0
 14 15  1  0
 14 13  1  0
 16 15  1  0
 16 29  1  0
 16 17  1  0
 18 12  1  0
 18 17  1  0
 19 12  2  0
 20 22  1  0
 21 24  1  0
 23 21  1  0
 23 25  1  0
 24 10  1  0
 24 20  1  0
 25 22  1  0
 26 27  2  0
 27 46  1  0
 28 27  1  0
 28 31  1  0
 29 26  1  0
 29 30  1  0
 30 28  2  0
 31 32  1  0
 32 33  2  0
 34 37  1  0
 34 33  1  0
 35 34  2  0
 36 35  1  0
 36 31  2  0
 37 38  1  0
 38 39  1  0
 39 40  2  0
 41 40  1  0
 41 45  1  0
 42 41  2  0
 43 38  2  0
 43 42  1  0
 44 43  1  0
 46 47  1  0
 47 50  1  0
 47 49  1  0
 48 46  2  0
 51 52  1  0
 51 26  1  0
 53 51  1  0
 55 54  1  0
 56 55  1  0
 56 57  1  0
 57 59  1  0
 58 69  2  0
 59 64  1  0
 60 68  1  0
 60 70  1  0
 61 67  1  0
 61 63  1  0
 62 68  1  0
 63 62  1  0
 64 63  2  0
 65 66  1  0
 65 59  2  0
 66 61  2  0
 67 60  1  0
 68 58  1  0
 70 72  2  0
 71 70  1  0
 73 71  1  0
 74 83  2  0
 74 79  1  0
 75 71  1  0
 75 79  1  0
 76 75  1  0
 77 78  1  0
 77 76  1  0
 78 74  1  0
 79 80  2  0
 80 81  1  0
 82 81  2  0
 83 82  1  0
 84 58  1  0
 84 89  1  0
 84 85  1  0
 85 88  1  1
 85 86  1  0
 87 85  1  0
 89 92  1  0
 90 94  1  0
 90 89  1  0
 91 90  2  0
 94 93  1  0
 96 94  1  0
 96 97  1  0
 96 95  1  0
M  ISO  4  12 100  25 100  56 101  57 101
M  END
>  <TORSDO>  (44) 
F 20

>  <SCORE>  (44) 
-13.905

>  <name>  (44) 
43

>  <ligand_id>  (44) 
43

>  <original_smiles>  (44) 
[H]c1c([H])c([H])c2c(c1[H])C([H])([H])C([H])([H])C([H])([H])C2([H])N([H])C(=O)C1([H])N(C(=O)C([H])(N([H])C(=O)C([H])(N([H])C([H])([H])[H])C([H])([H])[H])C(C([H])([H])[H])(C([H])([H])[H])C([H])([H])[H])C([H])([H])c2c([H])c(OC([H])([H])C([H])([H])Oc3c([H])c([H])c4c(c3[H])C([H])(N([O-])C3([H])C([H])([H])C([H])([H])N(C(=O)N5C([H])([H])C([H])([H])C([H])([H])C([H])(n6nc(-c7c([H])c([H])c(Oc8c([H])c([H])c(F)c([H])c8F)c([H])c7[H])c(C(=O)N([H])[H])c6N([H])[H])C5([H])[H])C([H])([H])C3([H])[H])C([H])([H])C4([H])[H])c([H])c([H])c2C1([H])[H]

>  <smiles>  (44) 
[H]c1c([H])c([H])c2c(c1[H])C([H])([H])C([H])([H])C([H])([H])C2([H])N([H])C(=O)C1([H])N(C(=O)C([H])(N([H])C(=O)C([H])(N([H])C([H])([H])[H])C([H])([H])[H])C(C([H])([H])[H])(C([H])([H])[H])C([H])([H])[H])C([H])([H])c2c([H])c(OC([H])([H])C([H])([H])Oc3c([H])c([H])c4c(c3[H])C([H])(N([O-])C3([H])C([H])([H])C([H])([H])N(C(=O)N5C([H])([H])C([H])([H])C([H])([H])C([H])(n6nc(-c7c([H])c([H])c(Oc8c([H])c([H])c(F)c([H])c8F)c([H])c7[H])c(C(=O)N([H])[H])c6N([H])[H])C5([H])[H])C([H])([H])C3([H])[H])C([H])([H])C4([H])[H])c([H])c([H])c2C1([H])[H]

$$$$
44:0:0
     RDKit          3D

 96105  0  0  1  0  0  0  0  0999 V2000
  -28.6240  -21.1570   21.0760 C   0  0  0  0  0  3  0  0  0  0  0  0
  -30.8340  -21.2810   20.1090 C   0  0  0  0  0  0  0  0  0  0  0  0
  -30.7030  -22.6970   20.1220 C   0  0  0  0  0  0  0  0  0  0  0  0
  -29.7730  -20.4820   20.5990 C   0  0  0  0  0  0  0  0  0  0  0  0
  -29.5310  -23.2650   20.6800 C   0  0  0  0  0  0  0  0  0  0  0  0
  -32.1030  -20.6170   19.5900 C   0  0  0  0  0  1  0  0  0  0  0  0
  -31.8100  -23.6010   19.5840 C   0  0  0  0  0  1  0  0  0  0  0  0
  -28.5160  -22.5000   21.1440 N   0  0  0  0  0  0  0  0  0  0  0  0
  -29.3710  -24.7690   20.9750 C   0  0  0  0  0  3  0  0  0  0  0  0
  -28.8270  -24.9010   22.2760 O   0  0  0  0  0  0  0  0  0  0  0  0
  -28.2080  -24.1730   22.3140 H   0  0  0  0  0  0  0  0  0  0  0  0
  -28.4080  -25.4880   20.0010 C   0  0  0  0  0  2  0  0  0  0  0  0
  -28.4300  -26.9120   20.2360 O   0  0  0  0  0  0  0  0  0  0  0  0
  -24.5310  -31.9870   23.3760 C   0  0  0  0  0  0  0  0  0  0  0  0
  -27.2360  -27.6080   20.2360 C   0  0  0  0  0  0  0  0  0  0  0  0
  -23.3480  -30.5990   21.7090 C   0  0  0  0  0  3  0  0  0  0  0  0
  -24.8240  -29.0940   20.2740 C   0  0  0  0  0  0  0  0  0  0  0  0
  -25.8740  -30.9820   21.5340 C   0  0  0  0  0  2  0  0  0  0  0  0
  -25.9750  -29.6200   20.8700 C   0  0  0  0  0  0  0  0  0  0  0  0
  -27.1830  -28.8850   20.8450 C   0  0  0  0  0  3  0  0  0  0  0  0
  -26.0660  -27.1050   19.6200 C   0  0  0  0  0  3  0  0  0  0  0  0
  -24.8630  -27.8360   19.6490 C   0  0  0  0  0  3  0  0  0  0  0  0
  -23.5700  -29.9360   20.3250 C   0  0  0  0  0  2  0  0  0  0  0  0
  -24.6030  -31.2030   22.2640 N   0  0  0  0  0  0  0  0  0  0  0  0
  -23.4420  -32.2410   23.9120 O   0  0  0  0  0  0  0  0  0  0  0  0
  -22.6990  -29.5590   22.6500 C   0  0  0  0  0  0  0  0  0  0  0  0
  -21.3910  -29.3140   22.4650 N   0  0  0  0  0  0  0  0  0  0  0  0
  -23.3740  -28.9690   23.4990 O   0  0  0  0  0  0  0  0  0  0  0  0
  -20.9060  -29.8430   21.7540 H   0  0  0  0  0  0  0  0  0  0  0  0
  -18.0690  -27.9310   22.7830 C   0  0  0  0  0  0  0  0  0  0  0  0
  -20.5830  -28.3460   23.2090 C   0  0  0  0  0  3  0  0  0  0  0  0
  -20.8050  -26.9100   22.6780 C   0  0  0  0  0  2  0  0  0  0  0  0
  -19.7920  -26.4990   21.6060 C   0  0  0  0  0  2  0  0  0  0  0  0
  -18.3660  -26.5780   22.1580 C   0  0  0  0  0  2  0  0  0  0  0  0
  -19.1110  -28.7690   23.2620 C   0  0  0  0  0  0  0  0  0  0  0  0
  -18.7830  -30.0310   23.8010 C   0  0  0  0  0  3  0  0  0  0  0  0
  -17.4430  -30.4600   23.8650 C   0  0  0  0  0  3  0  0  0  0  0  0
  -16.4140  -29.6200   23.4030 C   0  0  0  0  0  3  0  0  0  0  0  0
  -16.7280  -28.3580   22.8700 C   0  0  0  0  0  3  0  0  0  0  0  0
  -25.8070  -32.6220   24.0150 C   0  0  0  0  0  3  0  0  0  0  0  0
  -26.2650  -31.8970   25.3380 C   0  0  1  0  0  0  0  0  0  0  0  0
  -25.1280  -31.7110   26.3700 C   0  0  0  0  0  1  0  0  0  0  0  0
  -26.8480  -30.5000   25.0220 C   0  0  0  0  0  1  0  0  0  0  0  0
  -27.3960  -32.7070   26.0150 C   0  0  0  0  0  1  0  0  0  0  0  0
  -25.5110  -34.0380   24.2740 N   0  0  0  0  0  0  0  0  0  0  0  0
  -25.8710  -35.0470   23.4700 C   0  0  0  0  0  0  0  0  0  0  0  0
  -26.5530  -34.8860   22.4540 O   0  0  0  0  0  0  0  0  0  0  0  0
  -24.9030  -34.2390   25.0530 H   0  0  0  0  0  0  0  0  0  0  0  0
  -24.1580  -36.8340   23.0250 C   0  0  0  0  0  1  0  0  0  0  0  0
  -25.3970  -36.4620   23.8550 C   0  0  0  0  0  3  0  0  0  0  0  0
  -27.5380  -37.3700   24.6440 C   0  0  0  0  0  1  0  0  0  0  0  0
  -26.4400  -37.4980   23.6880 N   0  0  0  0  0  0  0  0  0  0  0  0
  -26.0430  -38.4290   23.7840 H   0  0  0  0  0  0  0  0  0  0  0  0
  -29.9560  -19.1110   20.6470 O   0  0  0  0  0  0  0  0  0  0  0  0
  -30.9500  -14.5160   19.8150 C   0  0  0  0  0  0  0  0  0  0  0  0
  -30.6020  -12.2960   18.8200 C   0  0  0  0  0  2  0  0  0  0  0  0
  -29.6030  -12.4520   17.6540 C   0  0  0  0  0  2  0  0  0  0  0  0
  -28.1500  -12.3450   18.1610 C   0  0  0  0  0  2  0  0  0  0  0  0
  -27.8760  -13.2330   19.4050 C   0  0  0  0  0  3  0  0  0  0  0  0
  -28.9900  -13.0660   20.4630 C   0  0  0  0  0  2  0  0  0  0  0  0
  -30.2780  -13.3340   19.8050 N   0  0  0  0  0  0  0  0  0  0  0  0
  -32.0710  -14.6550   19.3170 O   0  0  0  0  0  0  0  0  0  0  0  0
  -28.8530  -17.5260   19.1980 C   0  0  0  0  0  2  0  0  0  0  0  0
  -29.0490  -17.1260   21.6710 C   0  0  0  0  0  2  0  0  0  0  0  0
  -30.0900  -16.6220   19.0090 C   0  0  0  0  0  2  0  0  0  0  0  0
  -30.2790  -16.2330   21.3970 C   0  0  0  0  0  2  0  0  0  0  0  0
  -28.8540  -18.1990   20.5820 C   0  0  0  0  0  3  0  0  0  0  0  0
  -30.1890  -15.6060   20.0730 N   0  0  0  0  0  0  0  0  0  0  0  0
  -25.5410  -13.8710   20.2850 C   0  0  0  0  0  0  0  0  0  0  0  0
  -24.4840  -13.1110   20.7040 C   0  0  0  0  0  0  0  0  0  0  0  0
  -24.9120  -11.7510   20.6050 C   0  0  0  0  0  0  0  0  0  0  0  0
  -26.5500  -12.9740   19.9640 N   0  0  0  0  0  0  0  0  0  0  0  0
  -26.1780  -11.6920   20.2120 N   0  0  0  0  0  0  0  0  0  0  0  0
  -24.1700  -10.5010   20.8080 C   0  0  0  0  0  0  0  0  0  0  0  0
  -24.5650   -9.5580   21.7830 C   0  0  0  0  0  3  0  0  0  0  0  0
  -23.8250   -8.3710   21.9720 C   0  0  0  0  0  3  0  0  0  0  0  0
  -22.6770   -8.1180   21.1860 C   0  0  0  0  0  0  0  0  0  0  0  0
  -22.3010   -9.0480   20.2010 C   0  0  0  0  0  3  0  0  0  0  0  0
  -23.0410  -10.2270   20.0100 C   0  0  0  0  0  3  0  0  0  0  0  0
  -21.9100   -6.9820   21.2820 O   0  0  0  0  0  0  0  0  0  0  0  0
  -21.7090   -6.3500   22.4830 C   0  0  0  0  0  0  0  0  0  0  0  0
  -21.1300   -7.0130   23.5870 C   0  0  0  0  0  3  0  0  0  0  0  0
  -20.8780   -6.3040   24.7790 C   0  0  0  0  0  3  0  0  0  0  0  0
  -21.1940   -4.9360   24.8670 C   0  0  0  0  0  0  0  0  0  0  0  0
  -21.7630   -4.2740   23.7670 C   0  0  0  0  0  3  0  0  0  0  0  0
  -22.0170   -4.9780   22.5770 C   0  0  0  0  0  0  0  0  0  0  0  0
  -22.5460   -4.3270   21.5120 F   0  0  0  0  0  0  0  0  0  0  0  0
  -20.9450   -4.2570   26.0100 F   0  0  0  0  0  0  0  0  0  0  0  0
  -23.1170  -13.6080   21.0800 C   0  0  0  0  0  0  0  0  0  0  0  0
  -22.4430  -12.9160   21.9910 N   0  0  0  0  0  0  0  0  0  0  0  0
  -22.6590  -14.6470   20.6020 O   0  0  0  0  0  0  0  0  0  0  0  0
  -22.8250  -12.0760   22.3970 H   0  0  0  0  0  0  0  0  0  0  0  0
  -21.5290  -13.2290   22.2890 H   0  0  0  0  0  0  0  0  0  0  0  0
  -25.7280  -15.2420   20.1300 N   0  0  0  0  0  0  0  0  0  0  0  0
  -24.9830  -15.9120   20.2930 H   0  0  0  0  0  0  0  0  0  0  0  0
  -26.5710  -15.6640   19.7640 H   0  0  0  0  0  0  0  0  0  0  0  0
  1  8  1  0
  2  3  2  0
  2  4  1  0
  3  5  1  0
  4 54  1  0
  4  1  2  0
  5  9  1  0
  5  8  2  0
  6  2  1  0
  7  3  1  0
  9 12  1  0
  9 10  1  0
 10 11  1  0
 12 13  1  0
 14 25  2  0
 15 13  1  0
 15 20  1  0
 16 24  1  0
 16 26  1  0
 17 23  1  0
 17 19  1  0
 18 24  1  0
 19 18  1  0
 20 19  2  0
 21 22  1  0
 21 15  2  0
 22 17  2  0
 23 16  1  0
 24 14  1  0
 26 28  2  0
 27 26  1  0
 29 27  1  0
 30 39  2  0
 30 35  1  0
 31 27  1  0
 31 35  1  0
 32 31  1  0
 33 34  1  0
 33 32  1  0
 34 30  1  0
 35 36  2  0
 36 37  1  0
 38 37  2  0
 39 38  1  0
 40 14  1  0
 40 45  1  0
 40 41  1  0
 41 44  1  1
 41 42  1  0
 43 41  1  0
 45 48  1  0
 46 50  1  0
 46 45  1  0
 47 46  2  0
 50 49  1  0
 52 53  1  0
 52 50  1  0
 52 51  1  0
 55 68  1  0
 56 61  1  0
 57 58  1  0
 57 56  1  0
 59 58  1  0
 59 72  1  0
 59 60  1  0
 61 55  1  0
 61 60  1  0
 62 55  2  0
 63 67  1  0
 65 63  1  0
 65 68  1  0
 66 64  1  0
 67 54  1  0
 67 64  1  0
 68 66  1  0
 69 70  2  0
 70 89  1  0
 71 70  1  0
 71 74  1  0
 72 73  1  0
 72 69  1  0
 73 71  2  0
 74 75  1  0
 75 76  2  0
 77 80  1  0
 77 76  1  0
 78 77  2  0
 79 78  1  0
 79 74  2  0
 80 81  1  0
 81 86  2  0
 81 82  1  0
 82 83  2  0
 83 84  1  0
 84 88  1  0
 85 84  2  0
 86 85  1  0
 87 86  1  0
 89 90  1  0
 90 93  1  0
 90 92  1  0
 91 89  2  0
 94 69  1  0
 94 95  1  0
 96 94  1  0
M  ISO  4  12 101  13 101  55 100  68 100
M  END
>  <TORSDO>  (45) 
F 20

>  <SCORE>  (45) 
-13.295

>  <name>  (45) 
44

>  <ligand_id>  (45) 
44

>  <original_smiles>  (45) 
[H]OC([H])(c1nc([H])c(OC2([H])C([H])([H])C([H])([H])N(C(=O)N3C([H])([H])C([H])([H])C([H])([H])C([H])(n4nc(-c5c([H])c([H])c(Oc6c([H])c([H])c(F)c([H])c6F)c([H])c5[H])c(C(=O)N([H])[H])c4N([H])[H])C3([H])[H])C([H])([H])C2([H])[H])c(C([H])([H])[H])c1C([H])([H])[H])C([H])([H])Oc1c([H])c([H])c2c(c1[H])C([H])([H])N(C(=O)C([H])(N([H])C(=O)C([H])(N([H])C([H])([H])[H])C([H])([H])[H])C(C([H])([H])[H])(C([H])([H])[H])C([H])([H])[H])C([H])(C(=O)N([H])C1([H])c3c([H])c([H])c([H])c([H])c3C([H])([H])C([H])([H])C1([H])[H])C2([H])[H]

>  <smiles>  (45) 
[H]OC([H])(c1nc([H])c(OC2([H])C([H])([H])C([H])([H])N(C(=O)N3C([H])([H])C([H])([H])C([H])([H])C([H])(n4nc(-c5c([H])c([H])c(Oc6c([H])c([H])c(F)c([H])c6F)c([H])c5[H])c(C(=O)N([H])[H])c4N([H])[H])C3([H])[H])C([H])([H])C2([H])[H])c(C([H])([H])[H])c1C([H])([H])[H])C([H])([H])Oc1c([H])c([H])c2c(c1[H])C([H])([H])N(C(=O)C([H])(N([H])C(=O)C([H])(N([H])C([H])([H])[H])C([H])([H])[H])C(C([H])([H])[H])(C([H])([H])[H])C([H])([H])[H])C([H])(C(=O)N([H])C1([H])c3c([H])c([H])c([H])c([H])c3C([H])([H])C([H])([H])C1([H])[H])C2([H])[H]

$$$$
45:0:0
     RDKit          3D

 99109  0  0  1  0  0  0  0  0999 V2000
  -28.7910  -21.7730   17.6360 C   0  0  0  0  0  3  0  0  0  0  0  0
  -29.9520  -19.2640   17.7420 C   0  0  0  0  0  3  0  0  0  0  0  0
  -29.1150  -21.2580   18.9230 C   0  0  0  0  0  0  0  0  0  0  0  0
  -29.0370  -21.0800   16.4410 C   0  0  0  0  0  0  0  0  0  0  0  0
  -29.6430  -19.8170   16.4920 C   0  0  0  0  0  0  0  0  0  0  0  0
  -29.6950  -19.9250   18.9770 C   0  0  0  0  0  0  0  0  0  0  0  0
  -28.6340  -21.6980   15.1140 C   0  0  0  0  0  1  0  0  0  0  0  0
  -29.9740  -19.0470   15.2210 C   0  0  0  0  0  1  0  0  0  0  0  0
  -28.5150  -23.7150   19.7980 C   0  0  0  0  0  2  0  0  0  0  0  0
  -29.8460  -22.1030   21.2610 C   0  0  0  0  0  2  0  0  0  0  0  0
  -29.3830  -24.5060   22.0190 C   0  0  0  0  0  2  0  0  0  0  0  0
  -28.7730  -22.1800   20.1530 C   0  0  0  0  0  3  0  0  0  0  0  0
  -28.2700  -24.7220   20.9710 C   0  0  0  0  0  3  0  0  0  0  0  0
  -29.5950  -23.0390   22.4790 C   0  0  1  0  0  0  0  0  0  0  0  0
  -28.3900  -22.5490   23.3120 C   0  0  0  0  0  1  0  0  0  0  0  0
  -30.8420  -22.9940   23.3870 C   0  0  0  0  0  1  0  0  0  0  0  0
  -28.3550  -26.1450   20.6280 O   0  0  0  0  0  0  0  0  0  0  0  0
  -24.5730  -31.6330   23.3220 C   0  0  0  0  0  0  0  0  0  0  0  0
  -27.2110  -26.9360   20.5720 C   0  0  0  0  0  0  0  0  0  0  0  0
  -23.4180  -30.2310   21.6440 C   0  0  0  0  0  3  0  0  0  0  0  0
  -24.8950  -28.5810   20.3660 C   0  0  0  0  0  0  0  0  0  0  0  0
  -25.9680  -30.4680   21.6060 C   0  0  0  0  0  2  0  0  0  0  0  0
  -26.0380  -29.0680   21.0130 C   0  0  0  0  0  0  0  0  0  0  0  0
  -27.2000  -28.2570   21.1000 C   0  0  0  0  0  3  0  0  0  0  0  0
  -26.0490  -26.4760   19.9200 C   0  0  0  0  0  3  0  0  0  0  0  0
  -24.8990  -27.2880   19.8120 C   0  0  0  0  0  3  0  0  0  0  0  0
  -23.6910  -29.4980   20.3020 C   0  0  0  0  0  2  0  0  0  0  0  0
  -24.6690  -30.7950   22.2490 N   0  0  0  0  0  0  0  0  0  0  0  0
  -23.4700  -31.9640   23.7820 O   0  0  0  0  0  0  0  0  0  0  0  0
  -22.6600  -29.2710   22.5890 C   0  0  0  0  0  0  0  0  0  0  0  0
  -21.3260  -29.2080   22.4390 N   0  0  0  0  0  0  0  0  0  0  0  0
  -23.2700  -28.5860   23.4140 O   0  0  0  0  0  0  0  0  0  0  0  0
  -20.8990  -29.8060   21.7460 H   0  0  0  0  0  0  0  0  0  0  0  0
  -17.8410  -28.4070   22.9750 C   0  0  0  0  0  0  0  0  0  0  0  0
  -20.4170  -28.3400   23.1890 C   0  0  0  0  0  3  0  0  0  0  0  0
  -20.3320  -26.9360   22.5470 C   0  0  0  0  0  2  0  0  0  0  0  0
  -19.1770  -26.7980   21.5500 C   0  0  0  0  0  2  0  0  0  0  0  0
  -17.8380  -27.0780   22.2360 C   0  0  0  0  0  2  0  0  0  0  0  0
  -19.0530  -29.0060   23.4090 C   0  0  0  0  0  0  0  0  0  0  0  0
  -19.0020  -30.2580   24.0590 C   0  0  0  0  0  3  0  0  0  0  0  0
  -17.7720  -30.9050   24.2820 C   0  0  0  0  0  3  0  0  0  0  0  0
  -16.5750  -30.2990   23.8650 C   0  0  0  0  0  3  0  0  0  0  0  0
  -16.6110  -29.0510   23.2170 C   0  0  0  0  0  3  0  0  0  0  0  0
  -25.8390  -32.2320   24.0100 C   0  0  0  0  0  3  0  0  0  0  0  0
  -25.5420  -33.6310   24.3460 N   0  0  0  0  0  0  0  0  0  0  0  0
  -25.9110  -34.6860   23.6070 C   0  0  0  0  0  0  0  0  0  0  0  0
  -26.6060  -34.5820   22.5930 O   0  0  0  0  0  0  0  0  0  0  0  0
  -24.9280  -33.7860   25.1320 H   0  0  0  0  0  0  0  0  0  0  0  0
  -24.2040  -36.4960   23.2390 C   0  0  0  0  0  1  0  0  0  0  0  0
  -25.4320  -36.0780   24.0650 C   0  0  0  0  0  3  0  0  0  0  0  0
  -27.5560  -36.9460   24.9400 C   0  0  0  0  0  1  0  0  0  0  0  0
  -26.4770  -37.1210   23.9700 N   0  0  0  0  0  0  0  0  0  0  0  0
  -26.0770  -38.0450   24.1050 H   0  0  0  0  0  0  0  0  0  0  0  0
  -26.2860  -31.4340   25.2960 C   0  0  1  0  0  0  0  0  0  0  0  0
  -25.1380  -31.1890   26.3050 C   0  0  0  0  0  1  0  0  0  0  0  0
  -26.8750  -30.0590   24.9080 C   0  0  0  0  0  1  0  0  0  0  0  0
  -27.4100  -32.2060   26.0270 C   0  0  0  0  0  1  0  0  0  0  0  0
  -30.0300  -19.2500   20.1580 O   0  0  0  0  0  0  0  0  0  0  0  0
  -31.1080  -14.2830   20.0330 C   0  0  0  0  0  0  0  0  0  0  0  0
  -30.6670  -12.1600   18.8270 C   0  0  0  0  0  2  0  0  0  0  0  0
  -29.6620  -12.4330   17.6860 C   0  0  0  0  0  2  0  0  0  0  0  0
  -28.2110  -12.3130   18.1960 C   0  0  0  0  0  2  0  0  0  0  0  0
  -27.9790  -13.0950   19.5180 C   0  0  0  0  0  3  0  0  0  0  0  0
  -29.0970  -12.7910   20.5420 C   0  0  0  0  0  2  0  0  0  0  0  0
  -30.3780  -13.1280   19.9050 N   0  0  0  0  0  0  0  0  0  0  0  0
  -32.2340  -14.3670   19.5320 O   0  0  0  0  0  0  0  0  0  0  0  0
  -29.7560  -17.3310   21.7210 C   0  0  0  0  0  2  0  0  0  0  0  0
  -29.7960  -15.7870   21.6160 C   0  0  0  0  0  2  0  0  0  0  0  0
  -30.7390  -16.7480   19.6760 C   0  0  0  0  0  2  0  0  0  0  0  0
  -29.7600  -17.8090   20.2720 C   0  0  0  0  0  3  0  0  0  0  0  0
  -30.4390  -15.4480   20.3370 N   0  0  0  0  0  0  0  0  0  0  0  0
  -25.6520  -13.7560   20.3840 C   0  0  0  0  0  0  0  0  0  0  0  0
  -24.5770  -13.0100   20.7890 C   0  0  0  0  0  0  0  0  0  0  0  0
  -24.9870  -11.6430   20.6930 C   0  0  0  0  0  0  0  0  0  0  0  0
  -26.6490  -12.8470   20.0660 N   0  0  0  0  0  0  0  0  0  0  0  0
  -26.2560  -11.5700   20.3080 N   0  0  0  0  0  0  0  0  0  0  0  0
  -24.2300  -10.4020   20.8940 C   0  0  0  0  0  0  0  0  0  0  0  0
  -24.5910   -9.4680   21.8910 C   0  0  0  0  0  3  0  0  0  0  0  0
  -23.8380   -8.2870   22.0730 C   0  0  0  0  0  3  0  0  0  0  0  0
  -22.7090   -8.0340   21.2560 C   0  0  0  0  0  0  0  0  0  0  0  0
  -22.3660   -8.9580   20.2500 C   0  0  0  0  0  3  0  0  0  0  0  0
  -23.1220  -10.1280   20.0690 C   0  0  0  0  0  3  0  0  0  0  0  0
  -21.9300   -6.9050   21.3450 O   0  0  0  0  0  0  0  0  0  0  0  0
  -21.6760   -6.3000   22.5490 C   0  0  0  0  0  0  0  0  0  0  0  0
  -20.9810   -6.9650   23.5840 C   0  0  0  0  0  3  0  0  0  0  0  0
  -20.6770   -6.2840   24.7790 C   0  0  0  0  0  3  0  0  0  0  0  0
  -21.0580   -4.9370   24.9380 C   0  0  0  0  0  0  0  0  0  0  0  0
  -21.7450   -4.2710   23.9080 C   0  0  0  0  0  3  0  0  0  0  0  0
  -22.0510   -4.9520   22.7150 C   0  0  0  0  0  0  0  0  0  0  0  0
  -22.6940   -4.3000   21.7170 F   0  0  0  0  0  0  0  0  0  0  0  0
  -20.7590   -4.2800   26.0840 F   0  0  0  0  0  0  0  0  0  0  0  0
  -23.2150  -13.5270   21.1530 C   0  0  0  0  0  0  0  0  0  0  0  0
  -22.5210  -12.8500   22.0600 N   0  0  0  0  0  0  0  0  0  0  0  0
  -22.7760  -14.5700   20.6700 O   0  0  0  0  0  0  0  0  0  0  0  0
  -22.8890  -12.0050   22.4740 H   0  0  0  0  0  0  0  0  0  0  0  0
  -21.6120  -13.1830   22.3490 H   0  0  0  0  0  0  0  0  0  0  0  0
  -25.8610  -15.1250   20.2410 N   0  0  0  0  0  0  0  0  0  0  0  0
  -25.1400  -15.8080   20.4500 H   0  0  0  0  0  0  0  0  0  0  0  0
  -26.7160  -15.5410   19.8940 H   0  0  0  0  0  0  0  0  0  0  0  0
  1  3  1  0
  2  6  1  0
  3  6  2  0
  4  5  1  0
  4  1  2  0
  5  2  2  0
  6 58  1  0
  7  4  1  0
  8  5  1  0
  9 12  1  0
  9 13  1  0
 10 14  1  0
 11 14  1  0
 12  3  1  0
 12 10  1  0
 13 17  1  0
 13 11  1  0
 14 15  1  1
 14 16  1  0
 18 29  2  0
 19 17  1  0
 19 24  1  0
 20 28  1  0
 20 30  1  0
 21 23  1  0
 22 28  1  0
 23 24  2  0
 23 22  1  0
 25 19  2  0
 26 25  1  0
 26 21  2  0
 27 21  1  0
 27 20  1  0
 28 18  1  0
 30 32  2  0
 31 30  1  0
 33 31  1  0
 34 43  2  0
 34 39  1  0
 35 31  1  0
 35 39  1  0
 36 35  1  0
 37 38  1  0
 37 36  1  0
 38 34  1  0
 39 40  2  0
 40 41  1  0
 42 41  2  0
 43 42  1  0
 44 18  1  0
 44 45  1  0
 44 54  1  0
 45 48  1  0
 46 50  1  0
 46 45  1  0
 47 46  2  0
 50 49  1  0
 52 50  1  0
 52 53  1  0
 52 51  1  0
 54 57  1  1
 54 55  1  0
 56 54  1  0
 59 71  1  0
 60 65  1  0
 61 62  1  0
 61 60  1  0
 63 62  1  0
 63 75  1  0
 63 64  1  0
 65 59  1  0
 65 64  1  0
 66 59  2  0
 68 67  1  0
 69 70  1  0
 69 71  1  0
 70 58  1  0
 70 67  1  0
 71 68  1  0
 72 73  2  0
 73 92  1  0
 74 73  1  0
 74 77  1  0
 75 76  1  0
 75 72  1  0
 76 74  2  0
 77 78  1  0
 78 79  2  0
 80 83  1  0
 80 79  1  0
 81 80  2  0
 82 81  1  0
 82 77  2  0
 83 84  1  0
 84 89  2  0
 84 85  1  0
 85 86  2  0
 86 87  1  0
 87 91  1  0
 88 87  2  0
 89 88  1  0
 90 89  1  0
 92 93  1  0
 93 96  1  0
 93 95  1  0
 94 92  2  0
 97 72  1  0
 97 98  1  0
 99 97  1  0
M  ISO  4  13 101  17 101  59 100  71 100
M  END
>  <TORSDO>  (46) 
F 18

>  <SCORE>  (46) 
-9.710

>  <name>  (46) 
45

>  <ligand_id>  (46) 
45

>  <original_smiles>  (46) 
[H]c1c([H])c([H])c2c(c1[H])C([H])([H])C([H])([H])C([H])([H])C2([H])N([H])C(=O)C1([H])N(C(=O)C([H])(N([H])C(=O)C([H])(N([H])C([H])([H])[H])C([H])([H])[H])C(C([H])([H])[H])(C([H])([H])[H])C([H])([H])[H])C([H])([H])c2c([H])c(OC3([H])C([H])([H])C([H])(c4c([H])c(C([H])([H])[H])c(C([H])([H])[H])c([H])c4OC4([H])C([H])([H])N(C(=O)N5C([H])([H])C([H])([H])C([H])([H])C([H])(n6nc(-c7c([H])c([H])c(Oc8c([H])c([H])c(F)c([H])c8F)c([H])c7[H])c(C(=O)N([H])[H])c6N([H])[H])C5([H])[H])C([H])([H])C4([H])[H])C([H])([H])C(C([H])([H])[H])(C([H])([H])[H])C3([H])[H])c([H])c([H])c2C1([H])[H]

>  <smiles>  (46) 
[H]c1c([H])c([H])c2c(c1[H])C([H])([H])C([H])([H])C([H])([H])C2([H])N([H])C(=O)C1([H])N(C(=O)C([H])(N([H])C(=O)C([H])(N([H])C([H])([H])[H])C([H])([H])[H])C(C([H])([H])[H])(C([H])([H])[H])C([H])([H])[H])C([H])([H])c2c([H])c(OC3([H])C([H])([H])C([H])(c4c([H])c(C([H])([H])[H])c(C([H])([H])[H])c([H])c4OC4([H])C([H])([H])N(C(=O)N5C([H])([H])C([H])([H])C([H])([H])C([H])(n6nc(-c7c([H])c([H])c(Oc8c([H])c([H])c(F)c([H])c8F)c([H])c7[H])c(C(=O)N([H])[H])c6N([H])[H])C5([H])[H])C([H])([H])C4([H])[H])C([H])([H])C(C([H])([H])[H])(C([H])([H])[H])C3([H])[H])c([H])c([H])c2C1([H])[H]

$$$$
46:0:0
     RDKit          3D

 97107  0  0  1  0  0  0  0  0999 V2000
  -28.7620  -21.3160   19.4950 C   0  0  0  0  0  3  0  0  0  0  0  0
  -29.5630  -22.9100   21.6110 C   0  0  0  0  0  3  0  0  0  0  0  0
  -29.5130  -20.6520   20.5130 C   0  0  0  0  0  0  0  0  0  0  0  0
  -29.9560  -21.5250   21.5740 C   0  0  0  0  0  0  0  0  0  0  0  0
  -28.4040  -22.7110   19.5360 C   0  0  0  0  0  0  0  0  0  0  0  0
  -28.7740  -23.5580   20.6240 C   0  0  0  0  0  0  0  0  0  0  0  0
  -27.5470  -23.2710   18.4160 C   0  0  0  0  0  1  0  0  0  0  0  0
  -30.6710  -14.6620   19.9450 C   0  0  0  0  0  0  0  0  0  0  0  0
  -30.2890  -12.4320   18.8840 C   0  0  0  0  0  2  0  0  0  0  0  0
  -29.2770  -12.5440   17.7280 C   0  0  0  0  0  2  0  0  0  0  0  0
  -27.8410  -12.3770   18.2610 C   0  0  0  0  0  2  0  0  0  0  0  0
  -27.5670  -13.2400   19.5230 C   0  0  0  0  0  3  0  0  0  0  0  0
  -28.7050  -13.1280   20.5600 C   0  0  0  0  0  2  0  0  0  0  0  0
  -29.9450  -13.4910   19.8660 N   0  0  0  0  0  0  0  0  0  0  0  0
  -31.8490  -14.6230   19.5750 O   0  0  0  0  0  0  0  0  0  0  0  0
  -28.9350  -18.0490   21.1480 C   0  0  0  0  0  2  0  0  0  0  0  0
  -30.0030  -18.4270   19.0440 C   0  0  0  0  0  2  0  0  0  0  0  0
  -29.4390  -16.5360   21.1980 C   0  0  0  0  0  2  0  0  0  0  0  0
  -30.6280  -16.9790   19.0790 C   0  0  0  0  0  2  0  0  0  0  0  0
  -29.8680  -19.0800   20.4380 C   0  0  0  0  0  3  0  0  0  0  0  0
  -30.0380  -15.9200   19.9700 N   0  0  0  0  0  0  0  0  0  0  0  0
  -25.2470  -13.8310   20.4360 C   0  0  0  0  0  0  0  0  0  0  0  0
  -24.1990  -13.0570   20.8550 C   0  0  0  0  0  0  0  0  0  0  0  0
  -24.6420  -11.7020   20.7530 C   0  0  0  0  0  0  0  0  0  0  0  0
  -26.2600  -12.9480   20.1030 N   0  0  0  0  0  0  0  0  0  0  0  0
  -25.9090  -11.6600   20.3560 N   0  0  0  0  0  0  0  0  0  0  0  0
  -23.9130  -10.4430   20.9570 C   0  0  0  0  0  0  0  0  0  0  0  0
  -24.3640   -9.4670   21.8740 C   0  0  0  0  0  3  0  0  0  0  0  0
  -23.6350   -8.2730   22.0650 C   0  0  0  0  0  3  0  0  0  0  0  0
  -22.4410   -8.0460   21.3400 C   0  0  0  0  0  0  0  0  0  0  0  0
  -22.0080   -9.0100   20.4120 C   0  0  0  0  0  3  0  0  0  0  0  0
  -22.7380  -10.1960   20.2190 C   0  0  0  0  0  3  0  0  0  0  0  0
  -21.6820   -6.9050   21.4430 O   0  0  0  0  0  0  0  0  0  0  0  0
  -21.6250   -6.1800   22.6060 C   0  0  0  0  0  0  0  0  0  0  0  0
  -21.1730   -6.7500   23.8160 C   0  0  0  0  0  3  0  0  0  0  0  0
  -21.0630   -5.9510   24.9730 C   0  0  0  0  0  3  0  0  0  0  0  0
  -21.3970   -4.5840   24.9190 C   0  0  0  0  0  0  0  0  0  0  0  0
  -21.8430   -4.0150   23.7140 C   0  0  0  0  0  3  0  0  0  0  0  0
  -21.9540   -4.8110   22.5590 C   0  0  0  0  0  0  0  0  0  0  0  0
  -22.3650   -4.2520   21.3950 F   0  0  0  0  0  0  0  0  0  0  0  0
  -21.2840   -3.8150   26.0270 F   0  0  0  0  0  0  0  0  0  0  0  0
  -22.8300  -13.5420   21.2330 C   0  0  0  0  0  0  0  0  0  0  0  0
  -22.1550  -12.8320   22.1300 N   0  0  0  0  0  0  0  0  0  0  0  0
  -22.3700  -14.5860   20.7690 O   0  0  0  0  0  0  0  0  0  0  0  0
  -22.5400  -11.9880   22.5260 H   0  0  0  0  0  0  0  0  0  0  0  0
  -21.2400  -13.1390   22.4290 H   0  0  0  0  0  0  0  0  0  0  0  0
  -25.4160  -15.2040   20.2890 N   0  0  0  0  0  0  0  0  0  0  0  0
  -24.6640  -15.8610   20.4720 H   0  0  0  0  0  0  0  0  0  0  0  0
  -26.2510  -15.6460   19.9230 H   0  0  0  0  0  0  0  0  0  0  0  0
  -32.7540  -21.1260   23.7200 C   0  0  0  0  0  2  0  0  0  0  0  0
  -32.2620  -20.5290   22.4040 C   0  0  0  0  0  2  0  0  0  0  0  0
  -31.5320  -22.0350   23.6590 C   0  0  0  0  0  2  0  0  0  0  0  0
  -30.8280  -21.0080   22.7340 C   0  0  1  0  0  0  0  0  0  0  0  0
  -30.0730  -20.0790   23.4810 O   0  0  0  0  0  0  0  0  0  0  0  0
  -29.8120  -19.4070   22.8650 H   0  0  0  0  0  0  0  0  0  0  0  0
  -28.1090  -24.9800   20.9340 C   0  0  0  0  0  2  0  0  0  0  0  0
  -28.4990  -26.3000   20.3390 O   0  0  0  0  0  0  0  0  0  0  0  0
  -24.6640  -31.7940   23.1580 C   0  0  0  0  0  0  0  0  0  0  0  0
  -27.4320  -27.2200   20.2360 C   0  0  0  0  0  0  0  0  0  0  0  0
  -23.5380  -30.3620   21.4930 C   0  0  0  0  0  3  0  0  0  0  0  0
  -25.0590  -28.8260   20.1230 C   0  0  0  0  0  0  0  0  0  0  0  0
  -26.0790  -30.7100   21.3940 C   0  0  0  0  0  2  0  0  0  0  0  0
  -26.2030  -29.3260   20.7600 C   0  0  0  0  0  0  0  0  0  0  0  0
  -27.3960  -28.5350   20.8080 C   0  0  0  0  0  3  0  0  0  0  0  0
  -26.2760  -26.8000   19.5440 C   0  0  0  0  0  3  0  0  0  0  0  0
  -25.1000  -27.5700   19.5010 C   0  0  0  0  0  3  0  0  0  0  0  0
  -23.8080  -29.6840   20.1250 C   0  0  0  0  0  2  0  0  0  0  0  0
  -24.7780  -30.9760   22.0700 N   0  0  0  0  0  0  0  0  0  0  0  0
  -23.5590  -32.0600   23.6550 O   0  0  0  0  0  0  0  0  0  0  0  0
  -22.8590  -29.3440   22.4410 C   0  0  0  0  0  0  0  0  0  0  0  0
  -21.5360  -29.1600   22.2870 N   0  0  0  0  0  0  0  0  0  0  0  0
  -23.5230  -28.7250   23.2760 O   0  0  0  0  0  0  0  0  0  0  0  0
  -21.0590  -29.7120   21.5890 H   0  0  0  0  0  0  0  0  0  0  0  0
  -18.1530  -27.9550   22.7330 C   0  0  0  0  0  0  0  0  0  0  0  0
  -20.7060  -28.2190   23.0440 C   0  0  0  0  0  3  0  0  0  0  0  0
  -20.8180  -26.7880   22.4700 C   0  0  0  0  0  2  0  0  0  0  0  0
  -19.7350  -26.4650   21.4360 C   0  0  0  0  0  2  0  0  0  0  0  0
  -18.3430  -26.6080   22.0570 C   0  0  0  0  0  2  0  0  0  0  0  0
  -19.2630  -28.7190   23.1820 C   0  0  0  0  0  0  0  0  0  0  0  0
  -19.0310  -29.9800   23.7740 C   0  0  0  0  0  3  0  0  0  0  0  0
  -17.7230  -30.4770   23.9200 C   0  0  0  0  0  3  0  0  0  0  0  0
  -16.6270  -29.7100   23.4870 C   0  0  0  0  0  3  0  0  0  0  0  0
  -16.8420  -28.4510   22.8990 C   0  0  0  0  0  3  0  0  0  0  0  0
  -25.9150  -32.4530   23.8150 C   0  0  0  0  0  3  0  0  0  0  0  0
  -26.4170  -31.6890   25.1020 C   0  0  1  0  0  0  0  0  0  0  0  0
  -25.3020  -31.4210   26.1400 C   0  0  0  0  0  1  0  0  0  0  0  0
  -27.0420  -30.3260   24.7230 C   0  0  0  0  0  1  0  0  0  0  0  0
  -27.5320  -32.5060   25.7960 C   0  0  0  0  0  1  0  0  0  0  0  0
  -25.5660  -33.8420   24.1440 N   0  0  0  0  0  0  0  0  0  0  0  0
  -25.8920  -34.9080   23.4000 C   0  0  0  0  0  0  0  0  0  0  0  0
  -26.5890  -34.8260   22.3840 O   0  0  0  0  0  0  0  0  0  0  0  0
  -24.9500  -33.9780   24.9320 H   0  0  0  0  0  0  0  0  0  0  0  0
  -24.1370  -36.6680   23.0100 C   0  0  0  0  0  1  0  0  0  0  0  0
  -25.3630  -36.2830   23.8530 C   0  0  0  0  0  3  0  0  0  0  0  0
  -27.4520  -37.2090   24.7510 C   0  0  0  0  0  1  0  0  0  0  0  0
  -26.3760  -37.3590   23.7760 N   0  0  0  0  0  0  0  0  0  0  0  0
  -25.9460  -38.2700   23.9120 H   0  0  0  0  0  0  0  0  0  0  0  0
  1  5  2  0
  1  3  1  0
  3  4  2  0
  4  2  1  0
  4 53  1  0
  5  6  1  0
  6 56  1  0
  6  2  2  0
  7  5  1  0
  8 21  1  0
  9 14  1  0
 10 11  1  0
 10  9  1  0
 12 11  1  0
 12 25  1  0
 12 13  1  0
 14  8  1  0
 14 13  1  0
 15  8  2  0
 16 18  1  0
 17 19  1  0
 17 20  1  0
 19 21  1  0
 20  3  1  0
 20 16  1  0
 21 18  1  0
 22 23  2  0
 23 42  1  0
 24 23  1  0
 24 27  1  0
 25 26  1  0
 25 22  1  0
 26 24  2  0
 27 28  1  0
 28 29  2  0
 30 33  1  0
 30 29  1  0
 31 30  2  0
 32 31  1  0
 32 27  2  0
 33 34  1  0
 34 35  1  0
 35 36  2  0
 37 36  1  0
 37 41  1  0
 38 37  2  0
 39 34  2  0
 39 38  1  0
 40 39  1  0
 42 43  1  0
 43 46  1  0
 43 45  1  0
 44 42  2  0
 47 22  1  0
 47 48  1  0
 49 47  1  0
 51 53  1  0
 51 50  1  0
 52 50  1  0
 53 54  1  1
 53 52  1  0
 55 54  1  0
 57 56  1  0
 58 69  2  0
 59 57  1  0
 59 64  1  0
 60 68  1  0
 60 70  1  0
 61 67  1  0
 61 63  1  0
 62 68  1  0
 63 64  2  0
 63 62  1  0
 65 59  2  0
 66 65  1  0
 66 61  2  0
 67 60  1  0
 68 58  1  0
 70 72  2  0
 71 70  1  0
 73 71  1  0
 74 83  2  0
 74 79  1  0
 75 71  1  0
 75 79  1  0
 76 75  1  0
 77 78  1  0
 77 76  1  0
 78 74  1  0
 79 80  2  0
 80 81  1  0
 82 81  2  0
 83 82  1  0
 84 58  1  0
 84 89  1  0
 84 85  1  0
 85 88  1  1
 85 86  1  0
 87 85  1  0
 89 92  1  0
 90 94  1  0
 90 89  1  0
 91 90  2  0
 94 93  1  0
 96 94  1  0
 96 97  1  0
 96 95  1  0
M  ISO  4   8 100  21 100  56 101  57 101
M  END
>  <TORSDO>  (47) 
F 19

>  <SCORE>  (47) 
-13.824

>  <name>  (47) 
46

>  <ligand_id>  (47) 
46

>  <original_smiles>  (47) 
[H]OC1(c2c([H])c(C([H])([H])Oc3c([H])c([H])c4c(c3[H])C([H])([H])N(C(=O)C([H])(N([H])C(=O)C([H])(N([H])C([H])([H])[H])C([H])([H])[H])C(C([H])([H])[H])(C([H])([H])[H])C([H])([H])[H])C([H])(C(=O)N([H])C3([H])c5c([H])c([H])c([H])c([H])c5C([H])([H])C([H])([H])C3([H])[H])C4([H])[H])c(C([H])([H])[H])c([H])c2C2([H])C([H])([H])C([H])([H])N(C(=O)N3C([H])([H])C([H])([H])C([H])([H])C([H])(n4nc(-c5c([H])c([H])c(Oc6c([H])c([H])c(F)c([H])c6F)c([H])c5[H])c(C(=O)N([H])[H])c4N([H])[H])C3([H])[H])C([H])([H])C2([H])[H])C([H])([H])C([H])([H])C1([H])[H]

>  <smiles>  (47) 
[H]OC1(c2c([H])c(C([H])([H])Oc3c([H])c([H])c4c(c3[H])C([H])([H])N(C(=O)C([H])(N([H])C(=O)C([H])(N([H])C([H])([H])[H])C([H])([H])[H])C(C([H])([H])[H])(C([H])([H])[H])C([H])([H])[H])C([H])(C(=O)N([H])C3([H])c5c([H])c([H])c([H])c([H])c5C([H])([H])C([H])([H])C3([H])[H])C4([H])[H])c(C([H])([H])[H])c([H])c2C2([H])C([H])([H])C([H])([H])N(C(=O)N3C([H])([H])C([H])([H])C([H])([H])C([H])(n4nc(-c5c([H])c([H])c(Oc6c([H])c([H])c(F)c([H])c6F)c([H])c5[H])c(C(=O)N([H])[H])c4N([H])[H])C3([H])[H])C([H])([H])C2([H])[H])C([H])([H])C([H])([H])C1([H])[H]

$$$$
47:0:0
     RDKit          3D

 98108  0  0  1  0  0  0  0  0999 V2000
  -29.5620  -23.1320   23.9020 C   0  0  0  0  0  2  0  0  0  0  0  0
  -29.4050  -24.5980   23.4890 C   0  0  0  0  0  2  0  0  0  0  0  0
  -29.7740  -23.2990   21.5210 C   0  0  0  0  0  2  0  0  0  0  0  0
  -30.3810  -22.5950   22.7380 C   0  0  0  0  0  3  0  0  0  0  0  0
  -29.2630  -24.6040   22.0070 N   0  0  2  0  0  4  0  0  0  0  0  0
  -28.2660  -24.5730   21.8380 H   0  0  0  0  0  0  0  0  0  0  0  0
  -29.3460  -19.0100   21.8830 C   0  0  0  0  0  3  0  0  0  0  0  0
  -29.3150  -20.3950   22.1070 C   0  0  0  0  0  3  0  0  0  0  0  0
  -31.6410  -18.9420   22.6870 C   0  0  0  0  0  3  0  0  0  0  0  0
  -30.5180  -18.2830   22.1550 C   0  0  0  0  0  0  0  0  0  0  0  0
  -30.4510  -21.0760   22.5990 C   0  0  0  0  0  0  0  0  0  0  0  0
  -31.6230  -20.3340   22.9110 C   0  0  0  0  0  0  0  0  0  0  0  0
  -31.1940  -14.4680   19.5520 C   0  0  0  0  0  0  0  0  0  0  0  0
  -30.6630  -12.4160   18.2890 C   0  0  0  0  0  2  0  0  0  0  0  0
  -29.6100  -12.6890   17.1990 C   0  0  0  0  0  2  0  0  0  0  0  0
  -28.1810  -12.5990   17.7710 C   0  0  0  0  0  2  0  0  0  0  0  0
  -28.0100  -13.4270   19.0710 C   0  0  0  0  0  3  0  0  0  0  0  0
  -29.1450  -13.0950   20.0630 C   0  0  0  0  0  2  0  0  0  0  0  0
  -30.4340  -13.3560   19.3930 N   0  0  0  0  0  0  0  0  0  0  0  0
  -32.1640  -14.7450   18.8360 O   0  0  0  0  0  0  0  0  0  0  0  0
  -29.9010  -16.2730   20.5880 C   0  0  0  0  0  2  0  0  0  0  0  0
  -31.8100  -16.0910   21.3400 C   0  0  0  0  0  2  0  0  0  0  0  0
  -30.5610  -16.8020   21.8490 C   0  0  0  0  0  3  0  0  0  0  0  0
  -30.8870  -15.1870   20.6430 N   0  0  0  0  0  0  0  0  0  0  0  0
  -25.7100  -14.1400   19.9930 C   0  0  0  0  0  0  0  0  0  0  0  0
  -24.6500  -13.4120   20.4640 C   0  0  0  0  0  0  0  0  0  0  0  0
  -25.0510  -12.0430   20.3940 C   0  0  0  0  0  0  0  0  0  0  0  0
  -26.6930  -13.2160   19.6710 N   0  0  0  0  0  0  0  0  0  0  0  0
  -26.3020  -11.9500   19.9640 N   0  0  0  0  0  0  0  0  0  0  0  0
  -24.2970  -10.8110   20.6550 C   0  0  0  0  0  0  0  0  0  0  0  0
  -24.6960   -9.8990   21.6570 C   0  0  0  0  0  3  0  0  0  0  0  0
  -23.9450   -8.7290   21.9020 C   0  0  0  0  0  3  0  0  0  0  0  0
  -22.7800   -8.4630   21.1450 C   0  0  0  0  0  0  0  0  0  0  0  0
  -22.3990   -9.3620   20.1340 C   0  0  0  0  0  3  0  0  0  0  0  0
  -23.1500  -10.5240   19.8870 C   0  0  0  0  0  3  0  0  0  0  0  0
  -22.0020   -7.3400   21.2940 O   0  0  0  0  0  0  0  0  0  0  0  0
  -21.7140   -6.8250   22.5330 C   0  0  0  0  0  0  0  0  0  0  0  0
  -21.1310   -7.6120   23.5490 C   0  0  0  0  0  3  0  0  0  0  0  0
  -20.7860   -7.0250   24.7840 C   0  0  0  0  0  3  0  0  0  0  0  0
  -21.0150   -5.6530   25.0000 C   0  0  0  0  0  0  0  0  0  0  0  0
  -21.5900   -4.8660   23.9860 C   0  0  0  0  0  3  0  0  0  0  0  0
  -21.9360   -5.4510   22.7550 C   0  0  0  0  0  0  0  0  0  0  0  0
  -22.4710   -4.6840   21.7740 F   0  0  0  0  0  0  0  0  0  0  0  0
  -20.6760   -5.0870   26.1810 F   0  0  0  0  0  0  0  0  0  0  0  0
  -23.3050  -13.9450   20.8670 C   0  0  0  0  0  0  0  0  0  0  0  0
  -22.6690  -13.3210   21.8530 N   0  0  0  0  0  0  0  0  0  0  0  0
  -22.8310  -14.9490   20.3400 O   0  0  0  0  0  0  0  0  0  0  0  0
  -23.0670  -12.5090   22.2990 H   0  0  0  0  0  0  0  0  0  0  0  0
  -21.7700  -13.6620   22.1650 H   0  0  0  0  0  0  0  0  0  0  0  0
  -25.9110  -15.5020   19.7940 N   0  0  0  0  0  0  0  0  0  0  0  0
  -25.1800  -16.1850   19.9610 H   0  0  0  0  0  0  0  0  0  0  0  0
  -26.7350  -15.9030   19.3610 H   0  0  0  0  0  0  0  0  0  0  0  0
  -32.6640  -21.5150   24.8980 C   0  0  0  0  0  1  0  0  0  0  0  0
  -32.8830  -20.9730   23.4810 C   0  0  0  0  0  2  0  0  0  0  0  0
  -29.4480  -27.1060   22.0450 C   0  0  0  0  0  1  0  0  0  0  0  0
  -29.7920  -25.8030   21.2820 C   0  0  0  0  0  3  0  0  0  0  0  0
  -29.2920  -25.8020   19.7990 C   0  0  0  0  0  2  0  0  0  0  0  0
  -29.1370  -27.0980   19.2050 O   0  0  0  0  0  0  0  0  0  0  0  0
  -24.6270  -30.8850   23.0840 C   0  0  0  0  0  0  0  0  0  0  0  0
  -27.8610  -27.6020   19.2640 C   0  0  0  0  0  0  0  0  0  0  0  0
  -23.6070  -29.5790   21.2450 C   0  0  0  0  0  3  0  0  0  0  0  0
  -25.2390  -28.5940   19.5520 C   0  0  0  0  0  0  0  0  0  0  0  0
  -26.0090  -30.4370   21.0620 C   0  0  0  0  0  2  0  0  0  0  0  0
  -26.3050  -29.2390   20.1890 C   0  0  0  0  0  0  0  0  0  0  0  0
  -27.6190  -28.7670   20.0180 C   0  0  0  0  0  3  0  0  0  0  0  0
  -26.7800  -26.9660   18.6120 C   0  0  0  0  0  3  0  0  0  0  0  0
  -25.4700  -27.4590   18.7520 C   0  0  0  0  0  3  0  0  0  0  0  0
  -23.8650  -29.1830   19.7660 C   0  0  0  0  0  2  0  0  0  0  0  0
  -24.7670  -30.3040   21.8580 N   0  0  0  0  0  0  0  0  0  0  0  0
  -23.5420  -30.8650   23.6810 O   0  0  0  0  0  0  0  0  0  0  0  0
  -23.1940  -28.3120   22.0280 C   0  0  0  0  0  0  0  0  0  0  0  0
  -21.9950  -27.7930   21.7260 N   0  0  0  0  0  0  0  0  0  0  0  0
  -23.9520  -27.8070   22.8590 O   0  0  0  0  0  0  0  0  0  0  0  0
  -21.4330  -28.2720   21.0350 H   0  0  0  0  0  0  0  0  0  0  0  0
  -19.1990  -25.5180   21.4910 C   0  0  0  0  0  0  0  0  0  0  0  0
  -21.4080  -26.5830   22.3030 C   0  0  0  0  0  3  0  0  0  0  0  0
  -22.1030  -25.3140   21.7580 C   0  0  0  0  0  2  0  0  0  0  0  0
  -21.4010  -24.7210   20.5330 C   0  0  0  0  0  2  0  0  0  0  0  0
  -19.9530  -24.3550   20.8680 C   0  0  0  0  0  2  0  0  0  0  0  0
  -19.8830  -26.5720   22.1500 C   0  0  0  0  0  0  0  0  0  0  0  0
  -19.1380  -27.6470   22.6810 C   0  0  0  0  0  3  0  0  0  0  0  0
  -17.7360  -27.6780   22.5640 C   0  0  0  0  0  3  0  0  0  0  0  0
  -17.0620  -26.6230   21.9250 C   0  0  0  0  0  3  0  0  0  0  0  0
  -17.7920  -25.5450   21.3950 C   0  0  0  0  0  3  0  0  0  0  0  0
  -25.8120  -31.6230   23.7810 C   0  0  0  0  0  3  0  0  0  0  0  0
  -26.3270  -30.8860   25.0790 C   0  0  1  0  0  0  0  0  0  0  0  0
  -25.2020  -30.5290   26.0780 C   0  0  0  0  0  1  0  0  0  0  0  0
  -27.0630  -29.5770   24.7030 C   0  0  0  0  0  1  0  0  0  0  0  0
  -27.3540  -31.7780   25.8160 C   0  0  0  0  0  1  0  0  0  0  0  0
  -25.3580  -32.9830   24.1000 N   0  0  0  0  0  0  0  0  0  0  0  0
  -25.6860  -34.0770   23.3990 C   0  0  0  0  0  0  0  0  0  0  0  0
  -26.4720  -34.0520   22.4480 O   0  0  0  0  0  0  0  0  0  0  0  0
  -24.6680  -33.0700   24.8320 H   0  0  0  0  0  0  0  0  0  0  0  0
  -23.8840  -35.7460   22.8680 C   0  0  0  0  0  1  0  0  0  0  0  0
  -25.0410  -35.4090   23.8210 C   0  0  0  0  0  3  0  0  0  0  0  0
  -26.9920  -36.4130   24.9230 C   0  0  0  0  0  1  0  0  0  0  0  0
  -25.9960  -36.5380   23.8630 N   0  0  0  0  0  0  0  0  0  0  0  0
  -25.5070  -37.4180   23.9930 H   0  0  0  0  0  0  0  0  0  0  0  0
  2  1  1  0
  3  5  1  0
  3  4  1  0
  4 11  1  0
  4  1  1  0
  5  2  1  0
  5  6  1  1
  7  8  2  0
  7 10  1  0
  8 11  1  0
  9 12  1  0
 10  9  2  0
 11 12  2  0
 12 54  1  0
 13 24  1  0
 14 19  1  0
 15 16  1  0
 15 14  1  0
 17 16  1  0
 17 28  1  0
 17 18  1  0
 19 13  1  0
 19 18  1  0
 20 13  2  0
 21 24  1  0
 21 23  1  0
 22 23  1  0
 23 10  1  0
 24 22  1  0
 25 26  2  0
 26 45  1  0
 27 26  1  0
 27 30  1  0
 28 29  1  0
 28 25  1  0
 29 27  2  0
 30 31  1  0
 31 32  2  0
 33 36  1  0
 33 32  1  0
 34 33  2  0
 35 34  1  0
 35 30  2  0
 36 37  1  0
 37 42  2  0
 37 38  1  0
 38 39  2  0
 39 40  1  0
 40 44  1  0
 41 40  2  0
 42 41  1  0
 43 42  1  0
 45 46  1  0
 46 49  1  0
 46 48  1  0
 47 45  2  0
 50 51  1  0
 50 25  1  0
 52 50  1  0
 54 53  1  0
 56  5  1  0
 56 55  1  0
 57 56  1  0
 58 60  1  0
 58 57  1  0
 59 70  2  0
 60 65  1  0
 61 69  1  0
 61 71  1  0
 62 68  1  0
 62 64  1  0
 63 69  1  0
 64 63  1  0
 65 64  2  0
 66 67  1  0
 66 60  2  0
 67 62  2  0
 68 61  1  0
 69 59  1  0
 71 73  2  0
 72 71  1  0
 74 72  1  0
 75 80  1  0
 76 72  1  0
 77 76  1  0
 78 79  1  0
 78 77  1  0
 79 75  1  0
 80 76  1  0
 80 81  2  0
 82 81  1  0
 83 82  2  0
 84 75  2  0
 84 83  1  0
 85 59  1  0
 85 90  1  0
 85 86  1  0
 86 89  1  1
 86 87  1  0
 88 86  1  0
 90 93  1  0
 91 95  1  0
 91 90  1  0
 92 91  2  0
 95 94  1  0
 95 97  1  0
 97 98  1  0
 97 96  1  0
M  ISO  4  13 100  24 100  57 101  58 101
M  END
>  <TORSDO>  (48) 
F 20

>  <SCORE>  (48) 
-6.329

>  <name>  (48) 
47

>  <ligand_id>  (48) 
47

>  <original_smiles>  (48) 
[H]c1c([H])c([H])c2c(c1[H])C([H])([H])C([H])([H])C([H])([H])C2([H])N([H])C(=O)C1([H])N(C(=O)C([H])(N([H])C(=O)C([H])(N([H])C([H])([H])[H])C([H])([H])[H])C(C([H])([H])[H])(C([H])([H])[H])C([H])([H])[H])C([H])([H])c2c([H])c(OC([H])([H])C([H])(C([H])([H])[H])[N+]3([H])C([H])([H])C([H])([H])C([H])(c4c([H])c([H])c(C5([H])C([H])([H])N(C(=O)N6C([H])([H])C([H])([H])C([H])([H])C([H])(n7nc(-c8c([H])c([H])c(Oc9c([H])c([H])c(F)c([H])c9F)c([H])c8[H])c(C(=O)N([H])[H])c7N([H])[H])C6([H])[H])C5([H])[H])c([H])c4C([H])([H])C([H])([H])[H])C3([H])[H])c([H])c([H])c2C1([H])[H]

>  <smiles>  (48) 
[H]c1c([H])c([H])c2c(c1[H])C([H])([H])C([H])([H])C([H])([H])C2([H])N([H])C(=O)C1([H])N(C(=O)C([H])(N([H])C(=O)C([H])(N([H])C([H])([H])[H])C([H])([H])[H])C(C([H])([H])[H])(C([H])([H])[H])C([H])([H])[H])C([H])([H])c2c([H])c(OC([H])([H])C([H])(C([H])([H])[H])[N+]3([H])C([H])([H])C([H])([H])C([H])(c4c([H])c([H])c(C5([H])C([H])([H])N(C(=O)N6C([H])([H])C([H])([H])C([H])([H])C([H])(n7nc(-c8c([H])c([H])c(Oc9c([H])c([H])c(F)c([H])c9F)c([H])c8[H])c(C(=O)N([H])[H])c7N([H])[H])C6([H])[H])C5([H])[H])c([H])c4C([H])([H])C([H])([H])[H])C3([H])[H])c([H])c([H])c2C1([H])[H]

$$$$
48:0:0
     RDKit          3D

 95104  0  0  1  0  0  0  0  0999 V2000
  -27.9300  -22.2330   22.0210 C   0  0  0  0  0  3  0  0  0  0  0  0
  -27.4200  -23.5130   22.2870 C   0  0  0  0  0  3  0  0  0  0  0  0
  -28.9130  -23.0660   19.9550 C   0  0  0  0  0  0  0  0  0  0  0  0
  -28.4080  -24.3790   20.2170 C   0  0  0  0  0  0  0  0  0  0  0  0
  -28.6930  -21.9930   20.8600 C   0  0  0  0  0  0  0  0  0  0  0  0
  -27.6530  -24.5930   21.4060 C   0  0  0  0  0  0  0  0  0  0  0  0
  -29.7260  -22.8010   18.6900 C   0  0  0  0  0  1  0  0  0  0  0  0
  -26.0250  -25.9860   22.5060 C   0  0  0  0  0  1  0  0  0  0  0  0
  -27.1920  -25.8520   21.7050 O   0  0  0  0  0  0  0  0  0  0  0  0
  -28.6840  -25.4970   19.1780 C   0  0  0  0  0  2  0  0  0  0  0  0
  -28.5630  -26.8710   19.5800 O   0  0  0  0  0  0  0  0  0  0  0  0
  -24.6400  -31.6050   23.1000 C   0  0  0  0  0  0  0  0  0  0  0  0
  -27.3380  -27.5110   19.6050 C   0  0  0  0  0  0  0  0  0  0  0  0
  -23.4200  -30.2500   21.4260 C   0  0  0  0  0  3  0  0  0  0  0  0
  -24.8730  -28.8810   19.8320 C   0  0  0  0  0  0  0  0  0  0  0  0
  -25.9110  -30.7440   21.1380 C   0  0  0  0  0  2  0  0  0  0  0  0
  -26.0280  -29.4250   20.4020 C   0  0  0  0  0  0  0  0  0  0  0  0
  -27.2600  -28.7450   20.2890 C   0  0  0  0  0  3  0  0  0  0  0  0
  -26.1610  -26.9760   19.0310 C   0  0  0  0  0  3  0  0  0  0  0  0
  -24.9330  -27.6580   19.1420 C   0  0  0  0  0  3  0  0  0  0  0  0
  -23.5890  -29.6620   19.9980 C   0  0  0  0  0  2  0  0  0  0  0  0
  -24.6780  -30.8780   21.9480 N   0  0  0  0  0  0  0  0  0  0  0  0
  -23.5750  -31.7930   23.7050 O   0  0  0  0  0  0  0  0  0  0  0  0
  -22.8640  -29.1440   22.3510 C   0  0  0  0  0  0  0  0  0  0  0  0
  -21.5600  -28.8520   22.2150 N   0  0  0  0  0  0  0  0  0  0  0  0
  -23.6020  -28.5500   23.1400 O   0  0  0  0  0  0  0  0  0  0  0  0
  -21.0210  -29.3900   21.5500 H   0  0  0  0  0  0  0  0  0  0  0  0
  -18.3250  -27.2910   22.5900 C   0  0  0  0  0  0  0  0  0  0  0  0
  -20.8290  -27.8200   22.9480 C   0  0  0  0  0  3  0  0  0  0  0  0
  -21.1070  -26.4210   22.3530 C   0  0  0  0  0  2  0  0  0  0  0  0
  -20.0760  -25.9930   21.3040 C   0  0  0  0  0  2  0  0  0  0  0  0
  -18.6690  -25.9790   21.9080 C   0  0  0  0  0  2  0  0  0  0  0  0
  -19.3400  -28.1640   23.0630 C   0  0  0  0  0  0  0  0  0  0  0  0
  -18.9670  -29.3890   23.6580 C   0  0  0  0  0  3  0  0  0  0  0  0
  -17.6120  -29.7430   23.7890 C   0  0  0  0  0  3  0  0  0  0  0  0
  -16.6100  -28.8690   23.3330 C   0  0  0  0  0  3  0  0  0  0  0  0
  -16.9670  -27.6460   22.7370 C   0  0  0  0  0  3  0  0  0  0  0  0
  -25.9250  -32.2550   23.7000 C   0  0  0  0  0  3  0  0  0  0  0  0
  -26.5140  -31.4580   24.9300 C   0  0  1  0  0  0  0  0  0  0  0  0
  -25.4640  -31.1230   26.0150 C   0  0  0  0  0  1  0  0  0  0  0  0
  -27.1500  -30.1270   24.4660 C   0  0  0  0  0  1  0  0  0  0  0  0
  -27.6410  -32.2810   25.5970 C   0  0  0  0  0  1  0  0  0  0  0  0
  -25.5820  -33.6300   24.0870 N   0  0  0  0  0  0  0  0  0  0  0  0
  -25.8560  -34.7160   23.3540 C   0  0  0  0  0  0  0  0  0  0  0  0
  -26.4960  -34.6720   22.2990 O   0  0  0  0  0  0  0  0  0  0  0  0
  -25.0000  -33.7370   24.9050 H   0  0  0  0  0  0  0  0  0  0  0  0
  -24.0520  -36.4570   23.1280 C   0  0  0  0  0  1  0  0  0  0  0  0
  -25.3390  -36.0710   23.8740 C   0  0  0  0  0  3  0  0  0  0  0  0
  -27.4740  -37.0100   24.6480 C   0  0  0  0  0  1  0  0  0  0  0  0
  -26.3280  -37.1640   23.7550 N   0  0  0  0  0  0  0  0  0  0  0  0
  -25.8940  -38.0620   23.9500 H   0  0  0  0  0  0  0  0  0  0  0  0
  -29.2520  -20.7600   20.5690 O   0  0  0  0  0  0  0  0  0  0  0  0
  -29.1500  -19.6880   21.5120 C   0  0  0  0  0  2  0  0  0  0  0  0
  -31.1380  -14.6090   19.5940 C   0  0  0  0  0  0  0  0  0  0  0  0
  -30.6670  -12.4630   18.4820 C   0  0  0  0  0  2  0  0  0  0  0  0
  -29.5730  -12.6960   17.4190 C   0  0  0  0  0  2  0  0  0  0  0  0
  -28.1710  -12.5630   18.0460 C   0  0  0  0  0  2  0  0  0  0  0  0
  -28.0140  -13.3820   19.3560 C   0  0  0  0  0  3  0  0  0  0  0  0
  -29.2110  -13.1460   20.3040 C   0  0  0  0  0  2  0  0  0  0  0  0
  -30.4430  -13.4400   19.5590 N   0  0  0  0  0  0  0  0  0  0  0  0
  -32.1970  -14.7740   18.9770 O   0  0  0  0  0  0  0  0  0  0  0  0
  -29.3150  -17.8880   19.6980 C   0  0  0  0  0  2  0  0  0  0  0  0
  -30.0650  -17.3180   21.9850 C   0  0  0  0  0  2  0  0  0  0  0  0
  -30.1920  -16.7550   19.1340 C   0  0  0  0  0  2  0  0  0  0  0  0
  -30.9270  -16.1640   21.4210 C   0  0  0  0  0  2  0  0  0  0  0  0
  -29.9330  -18.4710   20.9730 C   0  0  0  0  0  3  0  0  0  0  0  0
  -30.4750  -15.6760   20.1050 N   0  0  0  0  0  0  0  0  0  0  0  0
  -25.7900  -13.9830   20.5020 C   0  0  0  0  0  0  0  0  0  0  0  0
  -24.7550  -13.2080   20.9550 C   0  0  0  0  0  0  0  0  0  0  0  0
  -25.1390  -11.8550   20.7050 C   0  0  0  0  0  0  0  0  0  0  0  0
  -26.7410  -13.1000   20.0150 N   0  0  0  0  0  0  0  0  0  0  0  0
  -26.3600  -11.8090   20.1900 N   0  0  0  0  0  0  0  0  0  0  0  0
  -24.3880  -10.6020   20.8740 C   0  0  0  0  0  0  0  0  0  0  0  0
  -24.8350   -9.5840   21.7430 C   0  0  0  0  0  3  0  0  0  0  0  0
  -24.0850   -8.3980   21.9040 C   0  0  0  0  0  3  0  0  0  0  0  0
  -22.8740   -8.2250   21.1930 C   0  0  0  0  0  0  0  0  0  0  0  0
  -22.4460   -9.2320   20.3100 C   0  0  0  0  0  3  0  0  0  0  0  0
  -23.1960  -10.4070   20.1470 C   0  0  0  0  0  3  0  0  0  0  0  0
  -22.0910   -7.0980   21.2670 O   0  0  0  0  0  0  0  0  0  0  0  0
  -21.9610   -6.3860   22.4330 C   0  0  0  0  0  0  0  0  0  0  0  0
  -21.4830   -6.9810   23.6210 C   0  0  0  0  0  3  0  0  0  0  0  0
  -21.3000   -6.1970   24.7770 C   0  0  0  0  0  3  0  0  0  0  0  0
  -21.5850   -4.8200   24.7460 C   0  0  0  0  0  0  0  0  0  0  0  0
  -22.0570   -4.2230   23.5630 C   0  0  0  0  0  3  0  0  0  0  0  0
  -22.2410   -5.0050   22.4090 C   0  0  0  0  0  0  0  0  0  0  0  0
  -22.6750   -4.4200   21.2650 F   0  0  0  0  0  0  0  0  0  0  0  0
  -21.4020   -4.0640   25.8550 F   0  0  0  0  0  0  0  0  0  0  0  0
  -23.4430  -13.6950   21.4990 C   0  0  0  0  0  0  0  0  0  0  0  0
  -22.8440  -12.9440   22.4180 N   0  0  0  0  0  0  0  0  0  0  0  0
  -22.9630  -14.7720   21.1470 O   0  0  0  0  0  0  0  0  0  0  0  0
  -23.2450  -12.0680   22.7200 H   0  0  0  0  0  0  0  0  0  0  0  0
  -21.9690  -13.2460   22.8230 H   0  0  0  0  0  0  0  0  0  0  0  0
  -25.9940  -15.3590   20.4450 N   0  0  0  0  0  0  0  0  0  0  0  0
  -25.2980  -16.0300   20.7490 H   0  0  0  0  0  0  0  0  0  0  0  0
  -26.8240  -15.7940   20.0610 H   0  0  0  0  0  0  0  0  0  0  0  0
  1  2  1  0
  3  4  2  0
  3  5  1  0
  4  6  1  0
  5  1  2  0
  6  9  1  0
  6  2  2  0
  7  3  1  0
  9  8  1  0
 10 11  1  0
 10  4  1  0
 11 13  1  0
 12 23  2  0
 13 18  1  0
 14 22  1  0
 14 24  1  0
 15 21  1  0
 15 17  1  0
 16 22  1  0
 17 16  1  0
 18 17  2  0
 19 20  1  0
 19 13  2  0
 20 15  2  0
 21 14  1  0
 22 12  1  0
 24 26  2  0
 25 24  1  0
 27 25  1  0
 28 37  2  0
 28 33  1  0
 29 25  1  0
 29 33  1  0
 30 29  1  0
 31 32  1  0
 31 30  1  0
 32 28  1  0
 33 34  2  0
 34 35  1  0
 36 35  2  0
 37 36  1  0
 38 12  1  0
 38 43  1  0
 38 39  1  0
 39 42  1  1
 39 40  1  0
 41 39  1  0
 43 46  1  0
 44 48  1  0
 44 43  1  0
 45 44  2  0
 48 47  1  0
 50 48  1  0
 50 51  1  0
 50 49  1  0
 52  5  1  0
 52 53  1  0
 54 67  1  0
 55 60  1  0
 56 57  1  0
 56 55  1  0
 58 57  1  0
 58 71  1  0
 58 59  1  0
 60 54  1  0
 60 59  1  0
 61 54  2  0
 62 66  1  0
 64 62  1  0
 64 67  1  0
 65 63  1  0
 66 53  1  0
 66 63  1  0
 67 65  1  0
 68 69  2  0
 69 88  1  0
 70 73  1  0
 70 69  1  0
 71 72  1  0
 71 68  1  0
 72 70  2  0
 73 74  1  0
 74 75  2  0
 76 79  1  0
 76 75  1  0
 77 76  2  0
 78 77  1  0
 78 73  2  0
 79 80  1  0
 80 81  1  0
 81 82  2  0
 83 82  1  0
 83 87  1  0
 84 83  2  0
 85 80  2  0
 85 84  1  0
 86 85  1  0
 88 89  1  0
 89 91  1  0
 89 92  1  0
 90 88  2  0
 93 68  1  0
 93 94  1  0
 95 93  1  0
M  ISO  4  10 101  11 101  54 100  67 100
M  END
>  <TORSDO>  (49) 
F 20

>  <SCORE>  (49) 
-11.121

>  <name>  (49) 
48

>  <ligand_id>  (49) 
48

>  <original_smiles>  (49) 
[H]c1c([H])c([H])c2c(c1[H])C([H])([H])C([H])([H])C([H])([H])C2([H])N([H])C(=O)C1([H])N(C(=O)C([H])(N([H])C(=O)C([H])(N([H])C([H])([H])[H])C([H])([H])[H])C(C([H])([H])[H])(C([H])([H])[H])C([H])([H])[H])C([H])([H])c2c([H])c(OC([H])([H])c3c(OC([H])([H])[H])c([H])c([H])c(OC([H])([H])C4([H])C([H])([H])C([H])([H])N(C(=O)N5C([H])([H])C([H])([H])C([H])([H])C([H])(n6nc(-c7c([H])c([H])c(Oc8c([H])c([H])c(F)c([H])c8F)c([H])c7[H])c(C(=O)N([H])[H])c6N([H])[H])C5([H])[H])C([H])([H])C4([H])[H])c3C([H])([H])[H])c([H])c([H])c2C1([H])[H]

>  <smiles>  (49) 
[H]c1c([H])c([H])c2c(c1[H])C([H])([H])C([H])([H])C([H])([H])C2([H])N([H])C(=O)C1([H])N(C(=O)C([H])(N([H])C(=O)C([H])(N([H])C([H])([H])[H])C([H])([H])[H])C(C([H])([H])[H])(C([H])([H])[H])C([H])([H])[H])C([H])([H])c2c([H])c(OC([H])([H])c3c(OC([H])([H])[H])c([H])c([H])c(OC([H])([H])C4([H])C([H])([H])C([H])([H])N(C(=O)N5C([H])([H])C([H])([H])C([H])([H])C([H])(n6nc(-c7c([H])c([H])c(Oc8c([H])c([H])c(F)c([H])c8F)c([H])c7[H])c(C(=O)N([H])[H])c6N([H])[H])C5([H])[H])C([H])([H])C4([H])[H])c3C([H])([H])[H])c([H])c([H])c2C1([H])[H]

$$$$
49:0:0
     RDKit          3D

101111  0  0  1  0  0  0  0  0999 V2000
  -32.0660  -19.2220   19.7160 C   0  0  0  0  0  3  0  0  0  0  0  0
  -30.6910  -20.2890   21.4100 C   0  0  0  0  0  3  0  0  0  0  0  0
  -31.2920  -19.1320   20.8880 C   0  0  0  0  0  0  0  0  0  0  0  0
  -31.5620  -21.6100   19.5390 C   0  0  0  0  0  0  0  0  0  0  0  0
  -32.2150  -20.4500   19.0440 C   0  0  0  0  0  0  0  0  0  0  0  0
  -30.8050  -21.5300   20.7440 C   0  0  0  0  0  0  0  0  0  0  0  0
  -33.0420  -20.4640   17.7660 C   0  0  0  0  0  1  0  0  0  0  0  0
  -30.6050  -14.3580   19.8780 C   0  0  0  0  0  0  0  0  0  0  0  0
  -30.0500  -12.4080   18.4700 C   0  0  0  0  0  2  0  0  0  0  0  0
  -28.9810  -12.7510   17.4170 C   0  0  0  0  0  2  0  0  0  0  0  0
  -27.5640  -12.5890   18.0000 C   0  0  0  0  0  2  0  0  0  0  0  0
  -27.4010  -13.3080   19.3640 C   0  0  0  0  0  3  0  0  0  0  0  0
  -28.5610  -12.9210   20.3120 C   0  0  0  0  0  2  0  0  0  0  0  0
  -29.8320  -13.2620   19.6490 N   0  0  0  0  0  0  0  0  0  0  0  0
  -31.5350  -14.6770   19.1270 O   0  0  0  0  0  0  0  0  0  0  0  0
  -29.6630  -17.2590   20.8890 C   0  0  0  0  0  2  0  0  0  0  0  0
  -32.1150  -16.7600   21.4530 C   0  0  0  0  0  2  0  0  0  0  0  0
  -29.3290  -15.8420   21.3690 C   0  0  0  0  0  2  0  0  0  0  0  0
  -31.6380  -15.3520   21.8720 C   0  0  0  0  0  2  0  0  0  0  0  0
  -30.9650  -17.7900   21.5180 C   0  0  0  0  0  3  0  0  0  0  0  0
  -30.4600  -14.9470   21.0900 N   0  0  0  0  0  0  0  0  0  0  0  0
  -25.0860  -13.9020   20.3280 C   0  0  0  0  0  0  0  0  0  0  0  0
  -24.0560  -13.1190   20.7760 C   0  0  0  0  0  0  0  0  0  0  0  0
  -24.5040  -11.7690   20.6470 C   0  0  0  0  0  0  0  0  0  0  0  0
  -26.0980  -13.0280   19.9620 N   0  0  0  0  0  0  0  0  0  0  0  0
  -25.7530  -11.7370   20.2060 N   0  0  0  0  0  0  0  0  0  0  0  0
  -23.7940  -10.5010   20.8620 C   0  0  0  0  0  0  0  0  0  0  0  0
  -24.2470   -9.5540   21.8070 C   0  0  0  0  0  3  0  0  0  0  0  0
  -23.5380   -8.3490   22.0080 C   0  0  0  0  0  3  0  0  0  0  0  0
  -22.3630   -8.0850   21.2640 C   0  0  0  0  0  0  0  0  0  0  0  0
  -21.9320   -9.0210   20.3080 C   0  0  0  0  0  3  0  0  0  0  0  0
  -22.6400  -10.2170   20.1050 C   0  0  0  0  0  3  0  0  0  0  0  0
  -21.6240   -6.9320   21.3740 O   0  0  0  0  0  0  0  0  0  0  0  0
  -21.5410   -6.2410   22.5560 C   0  0  0  0  0  0  0  0  0  0  0  0
  -21.0030   -6.8260   23.7240 C   0  0  0  0  0  3  0  0  0  0  0  0
  -20.8720   -6.0580   24.8990 C   0  0  0  0  0  3  0  0  0  0  0  0
  -21.2680   -4.7070   24.9050 C   0  0  0  0  0  0  0  0  0  0  0  0
  -21.7980   -4.1230   23.7420 C   0  0  0  0  0  3  0  0  0  0  0  0
  -21.9310   -4.8870   22.5690 C   0  0  0  0  0  0  0  0  0  0  0  0
  -22.4230   -4.3130   21.4450 F   0  0  0  0  0  0  0  0  0  0  0  0
  -21.1360   -3.9670   26.0310 F   0  0  0  0  0  0  0  0  0  0  0  0
  -22.6960  -13.5880   21.2090 C   0  0  0  0  0  0  0  0  0  0  0  0
  -22.0620  -12.8640   22.1250 N   0  0  0  0  0  0  0  0  0  0  0  0
  -22.2090  -14.6300   20.7720 O   0  0  0  0  0  0  0  0  0  0  0  0
  -22.4700  -12.0200   22.4990 H   0  0  0  0  0  0  0  0  0  0  0  0
  -21.1550  -13.1590   22.4570 H   0  0  0  0  0  0  0  0  0  0  0  0
  -25.2410  -15.2790   20.1830 N   0  0  0  0  0  0  0  0  0  0  0  0
  -24.4940  -15.9320   20.3940 H   0  0  0  0  0  0  0  0  0  0  0  0
  -26.0570  -15.7260   19.7870 H   0  0  0  0  0  0  0  0  0  0  0  0
  -30.1490  -23.2890   18.2890 C   0  0  0  0  0  2  0  0  0  0  0  0
  -32.3250  -24.0630   19.4790 C   0  0  0  0  0  2  0  0  0  0  0  0
  -30.0560  -24.6950   17.6980 C   0  0  0  0  0  2  0  0  0  0  0  0
  -32.0910  -25.4340   18.8310 C   0  0  0  0  0  2  0  0  0  0  0  0
  -31.5850  -22.9200   18.7400 C   0  0  0  0  0  3  0  0  0  0  0  0
  -30.6370  -25.6610   18.6540 N   0  0  1  0  0  4  0  0  0  0  0  0
  -30.2020  -25.4520   19.5430 H   0  0  0  0  0  0  0  0  0  0  0  0
  -30.2580  -27.0640   18.3890 C   0  0  0  0  0  2  0  0  0  0  0  0
  -29.4430  -27.6040   19.5670 C   0  0  0  0  0  2  0  0  0  0  0  0
  -28.2580  -26.8070   19.7250 O   0  0  0  0  0  0  0  0  0  0  0  0
  -24.5040  -31.8520   23.1140 C   0  0  0  0  0  0  0  0  0  0  0  0
  -27.0820  -27.5020   19.8890 C   0  0  0  0  0  0  0  0  0  0  0  0
  -23.2470  -30.4830   21.4750 C   0  0  0  0  0  3  0  0  0  0  0  0
  -24.6610  -28.9510   20.0050 C   0  0  0  0  0  0  0  0  0  0  0  0
  -25.7600  -30.8410   21.2250 C   0  0  0  0  0  2  0  0  0  0  0  0
  -25.8230  -29.4770   20.5800 C   0  0  0  0  0  0  0  0  0  0  0  0
  -27.0250  -28.7530   20.5440 C   0  0  0  0  0  3  0  0  0  0  0  0
  -25.8970  -26.9580   19.3490 C   0  0  0  0  0  3  0  0  0  0  0  0
  -24.6860  -27.6800   19.4000 C   0  0  0  0  0  3  0  0  0  0  0  0
  -23.4210  -29.8120   20.0830 C   0  0  0  0  0  2  0  0  0  0  0  0
  -24.5220  -31.0710   21.9980 N   0  0  0  0  0  0  0  0  0  0  0  0
  -23.4390  -32.1250   23.6840 O   0  0  0  0  0  0  0  0  0  0  0  0
  -22.6110  -29.4550   22.4350 C   0  0  0  0  0  0  0  0  0  0  0  0
  -21.2850  -29.2800   22.3250 N   0  0  0  0  0  0  0  0  0  0  0  0
  -23.3060  -28.8170   23.2300 O   0  0  0  0  0  0  0  0  0  0  0  0
  -20.7860  -29.8470   21.6530 H   0  0  0  0  0  0  0  0  0  0  0  0
  -17.9070  -28.1360   22.8870 C   0  0  0  0  0  0  0  0  0  0  0  0
  -20.4750  -28.3390   23.0960 C   0  0  0  0  0  3  0  0  0  0  0  0
  -20.5360  -26.9220   22.4820 C   0  0  0  0  0  2  0  0  0  0  0  0
  -19.4010  -26.6440   21.4900 C   0  0  0  0  0  2  0  0  0  0  0  0
  -18.0400  -26.8000   22.1760 C   0  0  0  0  0  2  0  0  0  0  0  0
  -19.0520  -28.8660   23.3050 C   0  0  0  0  0  0  0  0  0  0  0  0
  -18.8740  -30.1200   23.9300 C   0  0  0  0  0  3  0  0  0  0  0  0
  -17.5840  -30.6430   24.1410 C   0  0  0  0  0  3  0  0  0  0  0  0
  -16.4540  -29.9080   23.7400 C   0  0  0  0  0  3  0  0  0  0  0  0
  -16.6170  -28.6580   23.1190 C   0  0  0  0  0  3  0  0  0  0  0  0
  -25.8130  -32.4570   23.7150 C   0  0  0  0  0  3  0  0  0  0  0  0
  -26.3610  -31.6510   24.9560 C   0  0  1  0  0  0  0  0  0  0  0  0
  -25.2880  -31.3620   26.0310 C   0  0  0  0  0  1  0  0  0  0  0  0
  -26.9560  -30.2960   24.5060 C   0  0  0  0  0  1  0  0  0  0  0  0
  -27.5100  -32.4380   25.6280 C   0  0  0  0  0  1  0  0  0  0  0  0
  -25.5270  -33.8490   24.0820 N   0  0  0  0  0  0  0  0  0  0  0  0
  -25.8740  -34.9140   23.3460 C   0  0  0  0  0  0  0  0  0  0  0  0
  -26.5420  -34.8260   22.3110 O   0  0  0  0  0  0  0  0  0  0  0  0
  -24.9340  -33.9940   24.8870 H   0  0  0  0  0  0  0  0  0  0  0  0
  -24.1910  -36.7510   23.0130 C   0  0  0  0  0  1  0  0  0  0  0  0
  -25.4080  -36.2970   23.8360 C   0  0  0  0  0  3  0  0  0  0  0  0
  -27.5370  -37.1170   24.7420 C   0  0  0  0  0  1  0  0  0  0  0  0
  -26.4630  -37.3310   23.7750 N   0  0  0  0  0  0  0  0  0  0  0  0
  -26.0730  -38.2550   23.9340 H   0  0  0  0  0  0  0  0  0  0  0  0
  -29.3260  -22.5760   22.3470 C   0  0  0  0  0  1  0  0  0  0  0  0
  -30.1640  -22.6650   21.2010 O   0  0  0  0  0  0  0  0  0  0  0  0
  1  3  1  0
  3  2  2  0
  4  6  2  0
  5  4  1  0
  5  1  2  0
  6101  1  0
  6  2  1  0
  7  5  1  0
  8 21  1  0
  9 14  1  0
 10 11  1  0
 10  9  1  0
 12 11  1  0
 12 25  1  0
 12 13  1  0
 14  8  1  0
 14 13  1  0
 15  8  2  0
 16 18  1  0
 16 20  1  0
 17 20  1  0
 17 19  1  0
 20  3  1  0
 21 18  1  0
 21 19  1  0
 22 23  2  0
 23 42  1  0
 24 23  1  0
 24 27  1  0
 25 26  1  0
 25 22  1  0
 26 24  2  0
 27 28  1  0
 28 29  2  0
 30 33  1  0
 30 29  1  0
 31 30  2  0
 32 31  1  0
 32 27  2  0
 33 34  1  0
 34 39  2  0
 34 35  1  0
 35 36  2  0
 36 37  1  0
 37 41  1  0
 38 37  2  0
 39 38  1  0
 40 39  1  0
 42 43  1  0
 43 46  1  0
 43 45  1  0
 44 42  2  0
 47 22  1  0
 47 48  1  0
 49 47  1  0
 50 54  1  0
 52 50  1  0
 52 55  1  0
 53 51  1  0
 54 51  1  0
 54  4  1  0
 55 53  1  0
 55 56  1  1
 57 55  1  0
 57 58  1  0
 58 59  1  0
 59 61  1  0
 60 71  2  0
 61 66  1  0
 62 70  1  0
 62 72  1  0
 63 69  1  0
 63 65  1  0
 64 70  1  0
 65 64  1  0
 66 65  2  0
 67 68  1  0
 67 61  2  0
 68 63  2  0
 69 62  1  0
 70 60  1  0
 72 74  2  0
 73 72  1  0
 75 73  1  0
 76 85  2  0
 76 81  1  0
 77 73  1  0
 77 81  1  0
 78 77  1  0
 79 80  1  0
 79 78  1  0
 80 76  1  0
 81 82  2  0
 82 83  1  0
 84 83  2  0
 85 84  1  0
 86 60  1  0
 86 91  1  0
 86 87  1  0
 87 90  1  1
 87 88  1  0
 89 87  1  0
 91 94  1  0
 92 96  1  0
 92 91  1  0
 93 92  2  0
 96 95  1  0
 98 96  1  0
 98 99  1  0
 98 97  1  0
101100  1  0
M  ISO  4   8 100  21 100  58 101  59 101
M  END
>  <TORSDO>  (50) 
F 20

>  <SCORE>  (50) 
-12.140

>  <name>  (50) 
49

>  <ligand_id>  (50) 
49

>  <original_smiles>  (50) 
[H]c1c([H])c([H])c2c(c1[H])C([H])([H])C([H])([H])C([H])([H])C2([H])N([H])C(=O)C1([H])N(C(=O)C([H])(N([H])C(=O)C([H])(N([H])C([H])([H])[H])C([H])([H])[H])C(C([H])([H])[H])(C([H])([H])[H])C([H])([H])[H])C([H])([H])c2c([H])c(OC([H])([H])C([H])([H])[N+]3([H])C([H])([H])C([H])([H])C([H])(c4c(OC([H])([H])[H])c([H])c(C5([H])C([H])([H])C([H])([H])N(C(=O)N6C([H])([H])C([H])([H])C([H])([H])C([H])(n7nc(-c8c([H])c([H])c(Oc9c([H])c([H])c(F)c([H])c9F)c([H])c8[H])c(C(=O)N([H])[H])c7N([H])[H])C6([H])[H])C([H])([H])C5([H])[H])c([H])c4C([H])([H])[H])C([H])([H])C3([H])[H])c([H])c([H])c2C1([H])[H]

>  <smiles>  (50) 
[H]c1c([H])c([H])c2c(c1[H])C([H])([H])C([H])([H])C([H])([H])C2([H])N([H])C(=O)C1([H])N(C(=O)C([H])(N([H])C(=O)C([H])(N([H])C([H])([H])[H])C([H])([H])[H])C(C([H])([H])[H])(C([H])([H])[H])C([H])([H])[H])C([H])([H])c2c([H])c(OC([H])([H])C([H])([H])[N+]3([H])C([H])([H])C([H])([H])C([H])(c4c(OC([H])([H])[H])c([H])c(C5([H])C([H])([H])C([H])([H])N(C(=O)N6C([H])([H])C([H])([H])C([H])([H])C([H])(n7nc(-c8c([H])c([H])c(Oc9c([H])c([H])c(F)c([H])c9F)c([H])c8[H])c(C(=O)N([H])[H])c7N([H])[H])C6([H])[H])C([H])([H])C5([H])[H])c([H])c4C([H])([H])[H])C([H])([H])C3([H])[H])c([H])c([H])c2C1([H])[H]

$$$$
50:0:0
     RDKit          3D

101112  0  0  1  0  0  0  0  0999 V2000
  -29.4400  -21.6810   22.6930 C   0  0  0  0  0  3  0  0  0  0  0  0
  -29.8380  -23.0080   20.6780 C   0  0  0  0  0  0  0  0  0  0  0  0
  -29.3810  -22.9210   22.0260 C   0  0  0  0  0  0  0  0  0  0  0  0
  -30.3860  -21.8360   20.0950 C   0  0  0  0  0  0  0  0  0  0  0  0
  -29.9530  -20.5720   22.0140 C   0  0  0  0  0  0  0  0  0  0  0  0
  -28.7820  -24.1030   22.7750 C   0  0  0  0  0  1  0  0  0  0  0  0
  -30.4470  -20.6740   20.7710 N   0  0  0  0  0  0  0  0  0  0  0  0
  -29.9390  -19.3030   22.6100 N   0  0  0  0  0  0  0  0  0  0  0  0
  -29.5510  -19.1760   23.5380 H   0  0  0  0  0  0  0  0  0  0  0  0
  -31.1270  -14.6340   19.7090 C   0  0  0  0  0  0  0  0  0  0  0  0
  -30.6030  -12.5600   18.4990 C   0  0  0  0  0  2  0  0  0  0  0  0
  -29.5270  -12.8420   17.4320 C   0  0  0  0  0  2  0  0  0  0  0  0
  -28.1150  -12.7200   18.0370 C   0  0  0  0  0  2  0  0  0  0  0  0
  -27.9570  -13.5200   19.3570 C   0  0  0  0  0  3  0  0  0  0  0  0
  -29.1300  -13.2270   20.3190 C   0  0  0  0  0  2  0  0  0  0  0  0
  -30.3890  -13.5010   19.6050 N   0  0  0  0  0  0  0  0  0  0  0  0
  -32.1330  -14.8610   19.0260 O   0  0  0  0  0  0  0  0  0  0  0  0
  -29.4270  -17.7720   20.7040 C   0  0  0  0  0  2  0  0  0  0  0  0
  -30.6340  -16.8920   22.6700 C   0  0  0  0  0  2  0  0  0  0  0  0
  -30.1420  -16.7820   19.7860 C   0  0  0  0  0  2  0  0  0  0  0  0
  -31.3110  -15.8250   21.7830 C   0  0  0  0  0  2  0  0  0  0  0  0
  -30.3900  -18.1510   21.8370 C   0  0  0  0  0  3  0  0  0  0  0  0
  -30.6100  -15.5870   20.5060 N   0  0  0  0  0  0  0  0  0  0  0  0
  -25.7040  -14.1550   20.4340 C   0  0  0  0  0  0  0  0  0  0  0  0
  -24.6540  -13.3940   20.8710 C   0  0  0  0  0  0  0  0  0  0  0  0
  -25.0350  -12.0340   20.6540 C   0  0  0  0  0  0  0  0  0  0  0  0
  -26.6630  -13.2590   19.9860 N   0  0  0  0  0  0  0  0  0  0  0  0
  -26.2690  -11.9730   20.1700 N   0  0  0  0  0  0  0  0  0  0  0  0
  -24.2750  -10.7900   20.8250 C   0  0  0  0  0  0  0  0  0  0  0  0
  -24.7090   -9.7760   21.7090 C   0  0  0  0  0  3  0  0  0  0  0  0
  -23.9520   -8.5950   21.8700 C   0  0  0  0  0  3  0  0  0  0  0  0
  -22.7470   -8.4200   21.1480 C   0  0  0  0  0  0  0  0  0  0  0  0
  -22.3330   -9.4220   20.2530 C   0  0  0  0  0  3  0  0  0  0  0  0
  -23.0890  -10.5940   20.0910 C   0  0  0  0  0  3  0  0  0  0  0  0
  -21.9620   -7.2950   21.2200 O   0  0  0  0  0  0  0  0  0  0  0  0
  -21.7950   -6.6090   22.3960 C   0  0  0  0  0  0  0  0  0  0  0  0
  -21.2880   -7.2330   23.5570 C   0  0  0  0  0  3  0  0  0  0  0  0
  -21.0660   -6.4750   24.7240 C   0  0  0  0  0  3  0  0  0  0  0  0
  -21.3410   -5.0930   24.7290 C   0  0  0  0  0  0  0  0  0  0  0  0
  -21.8390   -4.4690   23.5720 C   0  0  0  0  0  3  0  0  0  0  0  0
  -22.0620   -5.2250   22.4080 C   0  0  0  0  0  0  0  0  0  0  0  0
  -22.5230   -4.6150   21.2900 F   0  0  0  0  0  0  0  0  0  0  0  0
  -21.1200   -4.3630   25.8480 F   0  0  0  0  0  0  0  0  0  0  0  0
  -23.3320  -13.8970   21.3770 C   0  0  0  0  0  0  0  0  0  0  0  0
  -22.7120  -13.1700   22.2990 N   0  0  0  0  0  0  0  0  0  0  0  0
  -22.8650  -14.9680   20.9890 O   0  0  0  0  0  0  0  0  0  0  0  0
  -23.1040  -12.3020   22.6320 H   0  0  0  0  0  0  0  0  0  0  0  0
  -21.8310  -13.4880   22.6790 H   0  0  0  0  0  0  0  0  0  0  0  0
  -25.9180  -15.5290   20.3600 N   0  0  0  0  0  0  0  0  0  0  0  0
  -25.2120  -16.2020   20.6380 H   0  0  0  0  0  0  0  0  0  0  0  0
  -26.7530  -15.9600   19.9860 H   0  0  0  0  0  0  0  0  0  0  0  0
  -28.4550  -24.1280   18.8580 C   0  0  0  0  0  2  0  0  0  0  0  0
  -30.8510  -24.9680   19.2310 C   0  0  0  0  0  2  0  0  0  0  0  0
  -28.4520  -25.2200   17.7690 C   0  0  0  0  0  2  0  0  0  0  0  0
  -30.5070  -26.3660   18.6480 C   0  0  0  0  0  2  0  0  0  0  0  0
  -29.6160  -24.2930   19.8700 C   0  0  0  0  0  3  0  0  0  0  0  0
  -29.0050  -26.5520   18.3120 C   0  0  0  0  0  3  0  0  0  0  0  0
  -28.4070  -26.9400   19.5490 O   0  0  0  0  0  0  0  0  0  0  0  0
  -24.6310  -31.7460   23.0860 C   0  0  0  0  0  0  0  0  0  0  0  0
  -27.2120  -27.6120   19.5760 C   0  0  0  0  0  0  0  0  0  0  0  0
  -23.3690  -30.4180   21.4210 C   0  0  0  0  0  3  0  0  0  0  0  0
  -24.7760  -29.0130   19.8270 C   0  0  0  0  0  0  0  0  0  0  0  0
  -25.8710  -30.8570   21.1220 C   0  0  0  0  0  2  0  0  0  0  0  0
  -25.9480  -29.5390   20.3850 C   0  0  0  0  0  0  0  0  0  0  0  0
  -27.1640  -28.8390   20.2640 C   0  0  0  0  0  3  0  0  0  0  0  0
  -26.0190  -27.0720   19.0490 C   0  0  0  0  0  3  0  0  0  0  0  0
  -24.8040  -27.7740   19.1640 C   0  0  0  0  0  3  0  0  0  0  0  0
  -23.5160  -29.8290   19.9930 C   0  0  0  0  0  2  0  0  0  0  0  0
  -24.6440  -31.0180   21.9330 N   0  0  0  0  0  0  0  0  0  0  0  0
  -23.5750  -31.9580   23.6970 O   0  0  0  0  0  0  0  0  0  0  0  0
  -22.7910  -29.3250   22.3480 C   0  0  0  0  0  0  0  0  0  0  0  0
  -21.4760  -29.0810   22.2320 N   0  0  0  0  0  0  0  0  0  0  0  0
  -23.5200  -28.7010   23.1240 O   0  0  0  0  0  0  0  0  0  0  0  0
  -20.9450  -29.6390   21.5780 H   0  0  0  0  0  0  0  0  0  0  0  0
  -18.1870  -27.6550   22.6840 C   0  0  0  0  0  0  0  0  0  0  0  0
  -20.7210  -28.0730   22.9750 C   0  0  0  0  0  3  0  0  0  0  0  0
  -20.9190  -26.6680   22.3620 C   0  0  0  0  0  2  0  0  0  0  0  0
  -19.8440  -26.2990   21.3350 C   0  0  0  0  0  2  0  0  0  0  0  0
  -18.4530  -26.3370   21.9750 C   0  0  0  0  0  2  0  0  0  0  0  0
  -19.2520  -28.4780   23.1380 C   0  0  0  0  0  0  0  0  0  0  0  0
  -18.9500  -29.7090   23.7590 C   0  0  0  0  0  3  0  0  0  0  0  0
  -17.6140  -30.1220   23.9270 C   0  0  0  0  0  3  0  0  0  0  0  0
  -16.5630  -29.2970   23.4890 C   0  0  0  0  0  3  0  0  0  0  0  0
  -16.8500  -28.0650   22.8760 C   0  0  0  0  0  3  0  0  0  0  0  0
  -25.9370  -32.3650   23.6770 C   0  0  0  0  0  3  0  0  0  0  0  0
  -25.6310  -33.7450   24.0740 N   0  0  0  0  0  0  0  0  0  0  0  0
  -25.9220  -34.8290   23.3430 C   0  0  0  0  0  0  0  0  0  0  0  0
  -26.5520  -34.7740   22.2830 O   0  0  0  0  0  0  0  0  0  0  0  0
  -25.0630  -33.8620   24.9020 H   0  0  0  0  0  0  0  0  0  0  0  0
  -24.1600  -36.6110   23.1290 C   0  0  0  0  0  1  0  0  0  0  0  0
  -25.4380  -36.1930   23.8720 C   0  0  0  0  0  3  0  0  0  0  0  0
  -27.5980  -37.0690   24.6460 C   0  0  0  0  0  1  0  0  0  0  0  0
  -26.4540  -37.2630   23.7580 N   0  0  0  0  0  0  0  0  0  0  0  0
  -26.0450  -38.1710   23.9660 H   0  0  0  0  0  0  0  0  0  0  0  0
  -26.5180  -31.5480   24.8960 C   0  0  1  0  0  0  0  0  0  0  0  0
  -25.4710  -31.2350   25.9900 C   0  0  0  0  0  1  0  0  0  0  0  0
  -27.1170  -30.2050   24.4200 C   0  0  0  0  0  1  0  0  0  0  0  0
  -27.6770  -32.3370   25.5510 C   0  0  0  0  0  1  0  0  0  0  0  0
  -31.6340  -20.5010   18.1490 C   0  0  0  0  0  2  0  0  0  0  0  0
  -32.3760  -21.7890   18.3890 C   0  0  0  0  0  2  0  0  0  0  0  0
  -30.8890  -21.7190   18.6740 C   0  0  0  0  0  3  0  0  0  0  0  0
  2  3  2  0
  3  1  1  0
  3  6  1  0
  4  2  1  0
  4  7  2  0
  5  8  1  0
  5  1  2  0
  7  5  1  0
  8  9  1  0
 10 23  1  0
 11 16  1  0
 12 13  1  0
 12 11  1  0
 14 13  1  0
 14 27  1  0
 14 15  1  0
 16 10  1  0
 16 15  1  0
 17 10  2  0
 18 22  1  0
 20 23  1  0
 20 18  1  0
 21 19  1  0
 22  8  1  0
 22 19  1  0
 23 21  1  0
 24 25  2  0
 25 44  1  0
 26 29  1  0
 26 25  1  0
 27 28  1  0
 27 24  1  0
 28 26  2  0
 29 30  1  0
 30 31  2  0
 32 35  1  0
 32 31  1  0
 33 32  2  0
 34 33  1  0
 34 29  2  0
 35 36  1  0
 36 41  2  0
 36 37  1  0
 37 38  2  0
 38 39  1  0
 39 43  1  0
 40 39  2  0
 41 40  1  0
 42 41  1  0
 44 45  1  0
 45 47  1  0
 45 48  1  0
 46 44  2  0
 49 24  1  0
 49 50  1  0
 51 49  1  0
 52 56  1  0
 53 56  1  0
 54 57  1  0
 54 52  1  0
 55 53  1  0
 56  2  1  0
 57 55  1  0
 57 58  1  0
 58 60  1  0
 59 70  2  0
 60 65  1  0
 61 69  1  0
 61 71  1  0
 62 68  1  0
 62 64  1  0
 63 69  1  0
 64 63  1  0
 65 64  2  0
 66 67  1  0
 66 60  2  0
 67 62  2  0
 68 61  1  0
 69 59  1  0
 71 73  2  0
 72 71  1  0
 74 72  1  0
 75 84  2  0
 75 80  1  0
 76 72  1  0
 76 80  1  0
 77 76  1  0
 78 79  1  0
 78 77  1  0
 79 75  1  0
 80 81  2  0
 81 82  1  0
 83 82  2  0
 84 83  1  0
 85 59  1  0
 85 86  1  0
 85 95  1  0
 86 89  1  0
 87 91  1  0
 87 86  1  0
 88 87  2  0
 91 90  1  0
 93 91  1  0
 93 94  1  0
 93 92  1  0
 95 98  1  1
 95 96  1  0
 97 95  1  0
 99100  1  0
 99101  1  0
100101  1  0
101  4  1  0
M  ISO  4  10 100  23 100  57 101  58 101
M  END
>  <TORSDO>  (51) 
F 18

>  <SCORE>  (51) 
-12.205

>  <name>  (51) 
50

>  <ligand_id>  (51) 
50

>  <original_smiles>  (51) 
[H]c1c([H])c([H])c2c(c1[H])C([H])([H])C([H])([H])C([H])([H])C2([H])N([H])C(=O)C1([H])N(C(=O)C([H])(N([H])C(=O)C([H])(N([H])C([H])([H])[H])C([H])([H])[H])C(C([H])([H])[H])(C([H])([H])[H])C([H])([H])[H])C([H])([H])c2c([H])c(OC3([H])C([H])([H])C([H])([H])C([H])(c4c(C5([H])C([H])([H])C5([H])[H])nc(N([H])C5([H])C([H])([H])C([H])([H])N(C(=O)N6C([H])([H])C([H])([H])C([H])([H])C([H])(n7nc(-c8c([H])c([H])c(Oc9c([H])c([H])c(F)c([H])c9F)c([H])c8[H])c(C(=O)N([H])[H])c7N([H])[H])C6([H])[H])C([H])([H])C5([H])[H])c([H])c4C([H])([H])[H])C([H])([H])C3([H])[H])c([H])c([H])c2C1([H])[H]

>  <smiles>  (51) 
[H]c1c([H])c([H])c2c(c1[H])C([H])([H])C([H])([H])C([H])([H])C2([H])N([H])C(=O)C1([H])N(C(=O)C([H])(N([H])C(=O)C([H])(N([H])C([H])([H])[H])C([H])([H])[H])C(C([H])([H])[H])(C([H])([H])[H])C([H])([H])[H])C([H])([H])c2c([H])c(OC3([H])C([H])([H])C([H])([H])C([H])(c4c(C5([H])C([H])([H])C5([H])[H])nc(N([H])C5([H])C([H])([H])C([H])([H])N(C(=O)N6C([H])([H])C([H])([H])C([H])([H])C([H])(n7nc(-c8c([H])c([H])c(Oc9c([H])c([H])c(F)c([H])c9F)c([H])c8[H])c(C(=O)N([H])[H])c7N([H])[H])C6([H])[H])C([H])([H])C5([H])[H])c([H])c4C([H])([H])[H])C([H])([H])C3([H])[H])c([H])c([H])c2C1([H])[H]

$$$$
51:0:0
     RDKit          3D

 98107  0  0  1  0  0  0  0  0999 V2000
  -27.2880  -21.0970   20.3130 C   0  0  0  0  0  3  0  0  0  0  0  0
  -29.4110  -21.0790   21.4480 C   0  0  0  0  0  3  0  0  0  0  0  0
  -28.3210  -21.8110   20.9440 C   0  0  0  0  0  0  0  0  0  0  0  0
  -27.4300  -19.7110   20.1080 C   0  0  0  0  0  0  0  0  0  0  0  0
  -28.6570  -19.0990   20.4810 C   0  0  0  0  0  0  0  0  0  0  0  0
  -26.2980  -18.9850   19.3920 C   0  0  0  0  0  1  0  0  0  0  0  0
  -29.5980  -19.7720   21.1790 N   0  0  0  0  0  0  0  0  0  0  0  0
  -31.4270  -14.8310   20.4610 C   0  0  0  0  0  0  0  0  0  0  0  0
  -31.1650  -12.5830   19.5480 C   0  0  0  0  0  2  0  0  0  0  0  0
  -30.3010  -12.6940   18.2770 C   0  0  0  0  0  2  0  0  0  0  0  0
  -28.7980  -12.6450   18.6190 C   0  0  0  0  0  2  0  0  0  0  0  0
  -28.3960  -13.5750   19.7950 C   0  0  0  0  0  3  0  0  0  0  0  0
  -29.3860  -13.4610   20.9750 C   0  0  0  0  0  2  0  0  0  0  0  0
  -30.7400  -13.6620   20.4450 N   0  0  0  0  0  0  0  0  0  0  0  0
  -32.6590  -14.8710   20.4030 O   0  0  0  0  0  0  0  0  0  0  0  0
  -30.2830  -16.9740   17.6990 C   0  0  0  0  0  2  0  0  0  0  0  0
  -29.7520  -18.1930   18.4350 C   0  0  0  0  0  2  0  0  0  0  0  0
  -31.3310  -16.2980   18.5760 C   0  0  0  0  0  2  0  0  0  0  0  0
  -30.1330  -16.9300   20.6320 C   0  0  0  0  0  2  0  0  0  0  0  0
  -29.1360  -17.8090   19.7980 C   0  0  0  0  0  3  0  0  0  0  0  0
  -30.7460  -15.8340   19.8510 N   0  0  0  0  0  0  0  0  0  0  0  0
  -25.9810  -14.2510   20.3670 C   0  0  0  0  0  0  0  0  0  0  0  0
  -24.8760  -13.5110   20.6870 C   0  0  0  0  0  0  0  0  0  0  0  0
  -25.3060  -12.1520   20.7140 C   0  0  0  0  0  0  0  0  0  0  0  0
  -27.0160  -13.3420   20.2140 N   0  0  0  0  0  0  0  0  0  0  0  0
  -26.6110  -12.0760   20.4850 N   0  0  0  0  0  0  0  0  0  0  0  0
  -24.5410  -10.9110   20.8820 C   0  0  0  0  0  0  0  0  0  0  0  0
  -24.8660   -9.9710   21.8820 C   0  0  0  0  0  3  0  0  0  0  0  0
  -24.1010   -8.7960   22.0350 C   0  0  0  0  0  3  0  0  0  0  0  0
  -22.9940   -8.5530   21.1870 C   0  0  0  0  0  0  0  0  0  0  0  0
  -22.6900   -9.4810   20.1760 C   0  0  0  0  0  3  0  0  0  0  0  0
  -23.4570  -10.6470   20.0200 C   0  0  0  0  0  3  0  0  0  0  0  0
  -22.2050   -7.4300   21.2490 O   0  0  0  0  0  0  0  0  0  0  0  0
  -21.9890   -6.7690   22.4310 C   0  0  0  0  0  0  0  0  0  0  0  0
  -21.4180   -7.4120   23.5510 C   0  0  0  0  0  3  0  0  0  0  0  0
  -21.1430   -6.6770   24.7220 C   0  0  0  0  0  3  0  0  0  0  0  0
  -21.4340   -5.3000   24.7730 C   0  0  0  0  0  0  0  0  0  0  0  0
  -21.9990   -4.6580   23.6580 C   0  0  0  0  0  3  0  0  0  0  0  0
  -22.2730   -5.3900   22.4900 C   0  0  0  0  0  0  0  0  0  0  0  0
  -22.7970   -4.7620   21.4100 F   0  0  0  0  0  0  0  0  0  0  0  0
  -21.1660   -4.5910   25.8950 F   0  0  0  0  0  0  0  0  0  0  0  0
  -23.4800  -14.0290   20.8730 C   0  0  0  0  0  0  0  0  0  0  0  0
  -22.6930  -13.3730   21.7190 N   0  0  0  0  0  0  0  0  0  0  0  0
  -23.0940  -15.0520   20.3080 O   0  0  0  0  0  0  0  0  0  0  0  0
  -23.0120  -12.5390   22.1900 H   0  0  0  0  0  0  0  0  0  0  0  0
  -21.7580  -13.7120   21.8930 H   0  0  0  0  0  0  0  0  0  0  0  0
  -26.1820  -15.6100   20.1690 N   0  0  0  0  0  0  0  0  0  0  0  0
  -25.4190  -16.2750   20.2100 H   0  0  0  0  0  0  0  0  0  0  0  0
  -27.0580  -16.0170   19.8720 H   0  0  0  0  0  0  0  0  0  0  0  0
  -28.6610  -23.9440   22.3390 C   0  0  0  0  0  1  0  0  0  0  0  0
  -28.2910  -23.3370   20.9730 C   0  0  0  0  0  3  0  0  0  0  0  0
  -29.1650  -23.8400   19.8830 N   0  0  0  0  0  4  0  0  0  0  0  0
  -29.3490  -23.0510   19.2830 H   0  0  0  0  0  0  0  0  0  0  0  0
  -30.0580  -24.1260   20.2630 H   0  0  0  0  0  0  0  0  0  0  0  0
  -29.5000  -25.0720   17.7580 C   0  0  0  0  0  1  0  0  0  0  0  0
  -28.6030  -24.8980   19.0030 C   0  0  0  0  0  3  0  0  0  0  0  0
  -28.4140  -26.2270   19.7640 C   0  0  0  0  0  2  0  0  0  0  0  0
  -28.0060  -27.2390   18.8500 O   0  0  0  0  0  0  0  0  0  0  0  0
  -24.4860  -31.7980   23.0250 C   0  0  0  0  0  0  0  0  0  0  0  0
  -26.8250  -27.8640   19.1450 C   0  0  0  0  0  0  0  0  0  0  0  0
  -23.1160  -30.5690   21.3700 C   0  0  0  0  0  3  0  0  0  0  0  0
  -24.4160  -29.2430   19.6270 C   0  0  0  0  0  0  0  0  0  0  0  0
  -25.5900  -31.0310   20.9290 C   0  0  0  0  0  2  0  0  0  0  0  0
  -25.6230  -29.7450   20.1300 C   0  0  0  0  0  0  0  0  0  0  0  0
  -26.8330  -29.0630   19.8870 C   0  0  0  0  0  3  0  0  0  0  0  0
  -25.6040  -27.3510   18.6600 C   0  0  0  0  0  3  0  0  0  0  0  0
  -24.3970  -28.0370   18.9010 C   0  0  0  0  0  3  0  0  0  0  0  0
  -23.1720  -30.0580   19.9070 C   0  0  0  0  0  2  0  0  0  0  0  0
  -24.4220  -31.1390   21.8340 N   0  0  0  0  0  0  0  0  0  0  0  0
  -23.4700  -31.9790   23.7100 O   0  0  0  0  0  0  0  0  0  0  0  0
  -22.5890  -29.4280   22.2660 C   0  0  0  0  0  0  0  0  0  0  0  0
  -21.2700  -29.1860   22.2140 N   0  0  0  0  0  0  0  0  0  0  0  0
  -23.3620  -28.7630   22.9640 O   0  0  0  0  0  0  0  0  0  0  0  0
  -20.7040  -29.7790   21.6220 H   0  0  0  0  0  0  0  0  0  0  0  0
  -18.0200  -27.7020   22.7410 C   0  0  0  0  0  0  0  0  0  0  0  0
  -20.5600  -28.1350   22.9390 C   0  0  0  0  0  3  0  0  0  0  0  0
  -20.7440  -26.7630   22.2520 C   0  0  0  0  0  2  0  0  0  0  0  0
  -19.6270  -26.4320   21.2570 C   0  0  0  0  0  2  0  0  0  0  0  0
  -18.2660  -26.4220   21.9580 C   0  0  0  0  0  2  0  0  0  0  0  0
  -19.0960  -28.5140   23.1860 C   0  0  0  0  0  0  0  0  0  0  0  0
  -18.8100  -29.7120   23.8780 C   0  0  0  0  0  3  0  0  0  0  0  0
  -17.4790  -30.1010   24.1230 C   0  0  0  0  0  3  0  0  0  0  0  0
  -16.4190  -29.2860   23.6930 C   0  0  0  0  0  3  0  0  0  0  0  0
  -16.6890  -28.0860   23.0110 C   0  0  0  0  0  3  0  0  0  0  0  0
  -25.8290  -32.3800   23.5710 C   0  0  0  0  0  3  0  0  0  0  0  0
  -26.4860  -31.4830   24.6930 C   0  0  1  0  0  0  0  0  0  0  0  0
  -25.5170  -31.1150   25.8430 C   0  0  0  0  0  1  0  0  0  0  0  0
  -27.0260  -30.1650   24.0910 C   0  0  0  0  0  1  0  0  0  0  0  0
  -27.7090  -32.2150   25.3000 C   0  0  0  0  0  1  0  0  0  0  0  0
  -25.5520  -33.7290   24.0770 N   0  0  0  0  0  0  0  0  0  0  0  0
  -25.8240  -34.8610   23.4110 C   0  0  0  0  0  0  0  0  0  0  0  0
  -26.4040  -34.8750   22.3220 O   0  0  0  0  0  0  0  0  0  0  0  0
  -25.0220  -33.7930   24.9340 H   0  0  0  0  0  0  0  0  0  0  0  0
  -24.0720  -36.6650   23.3930 C   0  0  0  0  0  1  0  0  0  0  0  0
  -25.3760  -36.1880   24.0540 C   0  0  0  0  0  3  0  0  0  0  0  0
  -27.5720  -36.9890   24.8000 C   0  0  0  0  0  1  0  0  0  0  0  0
  -26.3970  -37.2540   23.9740 N   0  0  0  0  0  0  0  0  0  0  0  0
  -26.0070  -38.1490   24.2580 H   0  0  0  0  0  0  0  0  0  0  0  0
  1  3  1  0
  3 51  1  0
  3  2  2  0
  4  1  2  0
  4  5  1  0
  5  7  2  0
  6  4  1  0
  7  2  1  0
  9 14  1  0
 10 11  1  0
 10  9  1  0
 12 11  1  0
 12 25  1  0
 12 13  1  0
 14  8  1  0
 14 13  1  0
 15  8  2  0
 16 17  1  0
 16 18  1  0
 17 20  1  0
 18 21  1  0
 20  5  1  0
 20 19  1  0
 21  8  1  0
 21 19  1  0
 22 23  2  0
 23 24  1  0
 23 42  1  0
 24 27  1  0
 25 22  1  0
 25 26  1  0
 26 24  2  0
 27 28  1  0
 28 29  2  0
 30 33  1  0
 30 29  1  0
 31 30  2  0
 32 31  1  0
 32 27  2  0
 33 34  1  0
 34 39  2  0
 34 35  1  0
 35 36  2  0
 36 37  1  0
 37 41  1  0
 38 37  2  0
 39 38  1  0
 40 39  1  0
 42 43  1  0
 43 46  1  0
 43 45  1  0
 44 42  2  0
 47 48  1  0
 47 22  1  0
 49 47  1  0
 51 50  1  0
 52 54  1  0
 52 51  1  0
 53 52  1  0
 56 55  1  0
 56 57  1  0
 56 52  1  0
 58 60  1  0
 58 57  1  0
 59 70  2  0
 60 65  1  0
 61 69  1  0
 61 71  1  0
 62 68  1  0
 62 64  1  0
 63 69  1  0
 64 63  1  0
 65 64  2  0
 66 67  1  0
 66 60  2  0
 67 62  2  0
 68 61  1  0
 69 59  1  0
 71 73  2  0
 72 71  1  0
 74 72  1  0
 75 84  2  0
 75 80  1  0
 76 72  1  0
 76 80  1  0
 77 76  1  0
 78 79  1  0
 78 77  1  0
 79 75  1  0
 80 81  2  0
 81 82  1  0
 83 82  2  0
 84 83  1  0
 85 59  1  0
 85 90  1  0
 85 86  1  0
 86 89  1  1
 86 87  1  0
 88 86  1  0
 90 93  1  0
 91 95  1  0
 91 90  1  0
 92 91  2  0
 95 94  1  0
 97 95  1  0
 97 98  1  0
 97 96  1  0
M  ISO  4   8 100  21 100  57 101  58 101
M  END
>  <TORSDO>  (52) 
F 20

>  <SCORE>  (52) 
-10.902

>  <name>  (52) 
51

>  <ligand_id>  (52) 
51

>  <original_smiles>  (52) 
[H]c1nc(C2([H])C([H])([H])N(C(=O)N3C([H])([H])C([H])([H])C([H])([H])C([H])(n4nc(-c5c([H])c([H])c(Oc6c([H])c([H])c(F)c([H])c6F)c([H])c5[H])c(C(=O)N([H])[H])c4N([H])[H])C3([H])[H])C([H])([H])C([H])([H])C2([H])[H])c(C([H])([H])[H])c([H])c1C([H])(C([H])([H])[H])[N+]([H])([H])C([H])(C([H])([H])[H])C([H])([H])Oc1c([H])c([H])c2c(c1[H])C([H])([H])N(C(=O)C([H])(N([H])C(=O)C([H])(N([H])C([H])([H])[H])C([H])([H])[H])C(C([H])([H])[H])(C([H])([H])[H])C([H])([H])[H])C([H])(C(=O)N([H])C1([H])c3c([H])c([H])c([H])c([H])c3C([H])([H])C([H])([H])C1([H])[H])C2([H])[H]

>  <smiles>  (52) 
[H]c1nc(C2([H])C([H])([H])N(C(=O)N3C([H])([H])C([H])([H])C([H])([H])C([H])(n4nc(-c5c([H])c([H])c(Oc6c([H])c([H])c(F)c([H])c6F)c([H])c5[H])c(C(=O)N([H])[H])c4N([H])[H])C3([H])[H])C([H])([H])C([H])([H])C2([H])[H])c(C([H])([H])[H])c([H])c1C([H])(C([H])([H])[H])[N+]([H])([H])C([H])(C([H])([H])[H])C([H])([H])Oc1c([H])c([H])c2c(c1[H])C([H])([H])N(C(=O)C([H])(N([H])C(=O)C([H])(N([H])C([H])([H])[H])C([H])([H])[H])C(C([H])([H])[H])(C([H])([H])[H])C([H])([H])[H])C([H])(C(=O)N([H])C1([H])c3c([H])c([H])c([H])c([H])c3C([H])([H])C([H])([H])C1([H])[H])C2([H])[H]

$$$$
52:0:0
     RDKit          3D

 99110  0  0  1  0  0  0  0  0999 V2000
  -33.1300  -22.8340   19.2500 C   0  0  0  0  0  3  0  0  0  0  0  0
  -32.2530  -20.6200   19.5860 C   0  0  0  0  0  3  0  0  0  0  0  0
  -33.3260  -21.4530   19.2460 C   0  0  0  0  0  0  0  0  0  0  0  0
  -30.7610  -22.5520   19.9130 C   0  0  0  0  0  0  0  0  0  0  0  0
  -31.8810  -23.3900   19.5740 C   0  0  0  0  0  0  0  0  0  0  0  0
  -30.9640  -21.1090   19.9340 C   0  0  0  0  0  0  0  0  0  0  0  0
  -31.8780  -24.9180   19.5660 C   0  0  0  0  0  1  0  0  0  0  0  0
  -29.2610  -24.3780   21.3010 C   0  0  0  0  0  2  0  0  0  0  0  0
  -28.6090  -24.1470   19.2790 C   0  0  0  0  0  2  0  0  0  0  0  0
  -29.3960  -23.2270   20.2620 C   0  0  0  0  0  3  0  0  0  0  0  0
  -28.2090  -25.1040   20.4320 C   0  0  0  0  0  3  0  0  0  0  0  0
  -28.4260  -26.5430   20.2460 O   0  0  0  0  0  0  0  0  0  0  0  0
  -24.6190  -31.8430   23.2180 C   0  0  0  0  0  0  0  0  0  0  0  0
  -27.2910  -27.3470   20.1840 C   0  0  0  0  0  0  0  0  0  0  0  0
  -23.4370  -30.4440   21.5580 C   0  0  0  0  0  3  0  0  0  0  0  0
  -24.9110  -28.9070   20.1460 C   0  0  0  0  0  0  0  0  0  0  0  0
  -25.9710  -30.7880   21.4000 C   0  0  0  0  0  2  0  0  0  0  0  0
  -26.0660  -29.4160   20.7520 C   0  0  0  0  0  0  0  0  0  0  0  0
  -27.2620  -28.6480   20.7600 C   0  0  0  0  0  3  0  0  0  0  0  0
  -26.1180  -26.8770   19.5530 C   0  0  0  0  0  3  0  0  0  0  0  0
  -24.9360  -27.6410   19.5370 C   0  0  0  0  0  3  0  0  0  0  0  0
  -23.6660  -29.7680   20.1790 C   0  0  0  0  0  2  0  0  0  0  0  0
  -24.6940  -31.0410   22.1160 N   0  0  0  0  0  0  0  0  0  0  0  0
  -23.5290  -32.1160   23.7420 O   0  0  0  0  0  0  0  0  0  0  0  0
  -22.7680  -29.4240   22.5080 C   0  0  0  0  0  0  0  0  0  0  0  0
  -21.4410  -29.2610   22.3780 N   0  0  0  0  0  0  0  0  0  0  0  0
  -23.4420  -28.7830   23.3190 O   0  0  0  0  0  0  0  0  0  0  0  0
  -20.9590  -29.8300   21.6970 H   0  0  0  0  0  0  0  0  0  0  0  0
  -18.0490  -28.1130   22.8760 C   0  0  0  0  0  0  0  0  0  0  0  0
  -20.6110  -28.3250   23.1390 C   0  0  0  0  0  3  0  0  0  0  0  0
  -20.6890  -26.9020   22.5400 C   0  0  0  0  0  2  0  0  0  0  0  0
  -19.5780  -26.6120   21.5270 C   0  0  0  0  0  2  0  0  0  0  0  0
  -18.2010  -26.7700   22.1790 C   0  0  0  0  0  2  0  0  0  0  0  0
  -19.1820  -28.8490   23.3110 C   0  0  0  0  0  0  0  0  0  0  0  0
  -18.9870  -30.1060   23.9230 C   0  0  0  0  0  3  0  0  0  0  0  0
  -17.6920  -30.6270   24.1040 C   0  0  0  0  0  3  0  0  0  0  0  0
  -16.5740  -29.8870   23.6840 C   0  0  0  0  0  3  0  0  0  0  0  0
  -16.7530  -28.6320   23.0750 C   0  0  0  0  0  3  0  0  0  0  0  0
  -25.8940  -32.4750   23.8560 C   0  0  0  0  0  3  0  0  0  0  0  0
  -26.4000  -31.6970   25.1320 C   0  0  1  0  0  0  0  0  0  0  0  0
  -25.2970  -31.4480   26.1870 C   0  0  0  0  0  1  0  0  0  0  0  0
  -26.9940  -30.3250   24.7380 C   0  0  0  0  0  1  0  0  0  0  0  0
  -27.5380  -32.4930   25.8140 C   0  0  0  0  0  1  0  0  0  0  0  0
  -25.5770  -33.8700   24.1910 N   0  0  0  0  0  0  0  0  0  0  0  0
  -25.9040  -34.9280   23.4370 C   0  0  0  0  0  0  0  0  0  0  0  0
  -26.5750  -34.8320   22.4060 O   0  0  0  0  0  0  0  0  0  0  0  0
  -24.9790  -34.0180   24.9910 H   0  0  0  0  0  0  0  0  0  0  0  0
  -24.1650  -36.7130   23.0920 C   0  0  0  0  0  1  0  0  0  0  0  0
  -25.4090  -36.3110   23.9000 C   0  0  0  0  0  3  0  0  0  0  0  0
  -27.5340  -37.2100   24.7390 C   0  0  0  0  0  1  0  0  0  0  0  0
  -26.4350  -37.3710   23.7910 N   0  0  0  0  0  0  0  0  0  0  0  0
  -26.0230  -38.2890   23.9370 H   0  0  0  0  0  0  0  0  0  0  0  0
  -35.1650  -18.7780   19.1200 C   0  0  0  0  0  2  0  0  0  0  0  0
  -35.4330  -20.0330   19.9550 C   0  0  0  0  0  2  0  0  0  0  0  0
  -34.8150  -19.6870   17.9380 C   0  0  0  0  0  2  0  0  0  0  0  0
  -34.6940  -20.8760   18.9040 C   0  0  0  0  0  3  0  0  0  0  0  0
  -29.9660  -20.1780   20.2840 O   0  0  0  0  0  0  0  0  0  0  0  0
  -30.7280  -14.5790   20.0810 C   0  0  0  0  0  0  0  0  0  0  0  0
  -30.4000  -12.3930   18.9670 C   0  0  0  0  0  2  0  0  0  0  0  0
  -29.3930  -12.5760   17.8110 C   0  0  0  0  0  2  0  0  0  0  0  0
  -27.9480  -12.4210   18.3220 C   0  0  0  0  0  2  0  0  0  0  0  0
  -27.6680  -13.2490   19.6060 C   0  0  0  0  0  3  0  0  0  0  0  0
  -28.7870  -13.0620   20.6530 C   0  0  0  0  0  2  0  0  0  0  0  0
  -30.0610  -13.3890   20.0000 N   0  0  0  0  0  0  0  0  0  0  0  0
  -31.8850  -14.6990   19.6660 O   0  0  0  0  0  0  0  0  0  0  0  0
  -29.4030  -17.9470   21.3850 C   0  0  0  0  0  2  0  0  0  0  0  0
  -30.3030  -17.9680   19.0480 C   0  0  0  0  0  2  0  0  0  0  0  0
  -29.8530  -16.4450   21.5130 C   0  0  0  0  0  2  0  0  0  0  0  0
  -29.6520  -16.5470   19.0520 C   0  0  0  0  0  2  0  0  0  0  0  0
  -30.2900  -18.7410   20.4020 C   0  0  0  0  0  3  0  0  0  0  0  0
  -29.9510  -15.7030   20.2320 N   0  0  0  0  0  0  0  0  0  0  0  0
  -25.3210  -13.8330   20.4760 C   0  0  0  0  0  0  0  0  0  0  0  0
  -24.2720  -13.0520   20.8780 C   0  0  0  0  0  0  0  0  0  0  0  0
  -24.7250  -11.7010   20.7780 C   0  0  0  0  0  0  0  0  0  0  0  0
  -26.3470  -12.9570   20.1580 N   0  0  0  0  0  0  0  0  0  0  0  0
  -25.9970  -11.6680   20.3990 N   0  0  0  0  0  0  0  0  0  0  0  0
  -24.0050  -10.4350   20.9670 C   0  0  0  0  0  0  0  0  0  0  0  0
  -24.4400   -9.4700   21.9010 C   0  0  0  0  0  3  0  0  0  0  0  0
  -23.7190   -8.2690   22.0790 C   0  0  0  0  0  3  0  0  0  0  0  0
  -22.5480   -8.0240   21.3230 C   0  0  0  0  0  0  0  0  0  0  0  0
  -22.1320   -8.9800   20.3780 C   0  0  0  0  0  3  0  0  0  0  0  0
  -22.8520  -10.1720   20.1990 C   0  0  0  0  0  3  0  0  0  0  0  0
  -21.8000   -6.8760   21.4090 O   0  0  0  0  0  0  0  0  0  0  0  0
  -21.6980   -6.1690   22.5800 C   0  0  0  0  0  0  0  0  0  0  0  0
  -21.1880   -6.7530   23.7600 C   0  0  0  0  0  3  0  0  0  0  0  0
  -21.0370   -5.9710   24.9240 C   0  0  0  0  0  3  0  0  0  0  0  0
  -21.3860   -4.6080   24.9060 C   0  0  0  0  0  0  0  0  0  0  0  0
  -21.8890   -4.0230   23.7310 C   0  0  0  0  0  3  0  0  0  0  0  0
  -22.0420   -4.8030   22.5700 C   0  0  0  0  0  0  0  0  0  0  0  0
  -22.5080   -4.2300   21.4340 F   0  0  0  0  0  0  0  0  0  0  0  0
  -21.2330   -3.8550   26.0210 F   0  0  0  0  0  0  0  0  0  0  0  0
  -22.8940  -13.5240   21.2420 C   0  0  0  0  0  0  0  0  0  0  0  0
  -22.2120  -12.8030   22.1250 N   0  0  0  0  0  0  0  0  0  0  0  0
  -22.4310  -14.5660   20.7790 O   0  0  0  0  0  0  0  0  0  0  0  0
  -22.6000  -11.9600   22.5220 H   0  0  0  0  0  0  0  0  0  0  0  0
  -21.2910  -13.1000   22.4120 H   0  0  0  0  0  0  0  0  0  0  0  0
  -25.4840  -15.2080   20.3350 N   0  0  0  0  0  0  0  0  0  0  0  0
  -24.7320  -15.8660   20.5160 H   0  0  0  0  0  0  0  0  0  0  0  0
  -26.3300  -15.6540   20.0060 H   0  0  0  0  0  0  0  0  0  0  0  0
  1  5  1  0
  2  6  2  0
  3  1  2  0
  3  2  1  0
  4  6  1  0
  5  4  2  0
  6 57  1  0
  7  5  1  0
  9 10  1  0
  9 11  1  0
 10  4  1  0
 10  8  1  0
 11 12  1  0
 11  8  1  0
 13 24  2  0
 14 12  1  0
 14 19  1  0
 15 23  1  0
 15 25  1  0
 16 22  1  0
 16 18  1  0
 17 23  1  0
 18 19  2  0
 18 17  1  0
 20 14  2  0
 21 20  1  0
 21 16  2  0
 22 15  1  0
 23 13  1  0
 25 27  2  0
 26 25  1  0
 28 26  1  0
 29 38  2  0
 29 34  1  0
 30 26  1  0
 30 34  1  0
 31 30  1  0
 32 33  1  0
 32 31  1  0
 33 29  1  0
 34 35  2  0
 35 36  1  0
 37 36  2  0
 38 37  1  0
 39 13  1  0
 39 44  1  0
 39 40  1  0
 40 43  1  1
 40 41  1  0
 42 40  1  0
 44 47  1  0
 45 49  1  0
 45 44  1  0
 46 45  2  0
 49 48  1  0
 51 49  1  0
 51 52  1  0
 51 50  1  0
 53 54  1  0
 55 56  1  0
 55 53  1  0
 56  3  1  0
 56 54  1  0
 58 71  1  0
 59 64  1  0
 60 61  1  0
 60 59  1  0
 62 61  1  0
 62 75  1  0
 62 63  1  0
 64 58  1  0
 64 63  1  0
 65 58  2  0
 66 68  1  0
 67 69  1  0
 67 70  1  0
 69 71  1  0
 70 57  1  0
 70 66  1  0
 71 68  1  0
 72 73  2  0
 73 92  1  0
 74 73  1  0
 74 77  1  0
 75 76  1  0
 75 72  1  0
 76 74  2  0
 77 78  1  0
 78 79  2  0
 80 83  1  0
 80 79  1  0
 81 80  2  0
 82 81  1  0
 82 77  2  0
 83 84  1  0
 84 85  1  0
 85 86  2  0
 87 86  1  0
 87 91  1  0
 88 87  2  0
 89 84  2  0
 89 88  1  0
 90 89  1  0
 92 93  1  0
 93 96  1  0
 93 95  1  0
 94 92  2  0
 97 72  1  0
 97 98  1  0
 99 97  1  0
M  ISO  4  11 101  12 101  58 100  71 100
M  END
>  <TORSDO>  (53) 
F 19

>  <SCORE>  (53) 
-14.128

>  <name>  (53) 
52

>  <ligand_id>  (53) 
52

>  <original_smiles>  (53) 
[H]c1c([H])c([H])c2c(c1[H])C([H])([H])C([H])([H])C([H])([H])C2([H])N([H])C(=O)C1([H])N(C(=O)C([H])(N([H])C(=O)C([H])(N([H])C([H])([H])[H])C([H])([H])[H])C(C([H])([H])[H])(C([H])([H])[H])C([H])([H])[H])C([H])([H])c2c([H])c(OC3([H])C([H])([H])C([H])(c4c(OC5([H])C([H])([H])C([H])([H])N(C(=O)N6C([H])([H])C([H])([H])C([H])([H])C([H])(n7nc(-c8c([H])c([H])c(Oc9c([H])c([H])c(F)c([H])c9F)c([H])c8[H])c(C(=O)N([H])[H])c7N([H])[H])C6([H])[H])C([H])([H])C5([H])[H])c([H])c(C5([H])C([H])([H])C([H])([H])C5([H])[H])c([H])c4C([H])([H])[H])C3([H])[H])c([H])c([H])c2C1([H])[H]

>  <smiles>  (53) 
[H]c1c([H])c([H])c2c(c1[H])C([H])([H])C([H])([H])C([H])([H])C2([H])N([H])C(=O)C1([H])N(C(=O)C([H])(N([H])C(=O)C([H])(N([H])C([H])([H])[H])C([H])([H])[H])C(C([H])([H])[H])(C([H])([H])[H])C([H])([H])[H])C([H])([H])c2c([H])c(OC3([H])C([H])([H])C([H])(c4c(OC5([H])C([H])([H])C([H])([H])N(C(=O)N6C([H])([H])C([H])([H])C([H])([H])C([H])(n7nc(-c8c([H])c([H])c(Oc9c([H])c([H])c(F)c([H])c9F)c([H])c8[H])c(C(=O)N([H])[H])c7N([H])[H])C6([H])[H])C([H])([H])C5([H])[H])c([H])c(C5([H])C([H])([H])C([H])([H])C5([H])[H])c([H])c4C([H])([H])[H])C3([H])[H])c([H])c([H])c2C1([H])[H]

$$$$
53:0:0
     RDKit          3D

 99108  0  0  1  0  0  0  0  0999 V2000
  -30.4350  -19.2970   21.7190 C   0  0  0  0  0  3  0  0  0  0  0  0
  -29.6350  -20.4340   21.4300 C   0  0  0  0  0  0  0  0  0  0  0  0
  -28.6340  -20.3290   20.4350 C   0  0  0  0  0  0  0  0  0  0  0  0
  -30.3200  -18.0950   20.9700 C   0  0  0  0  0  0  0  0  0  0  0  0
  -29.4320  -18.0890   19.8620 C   0  0  0  0  0  0  0  0  0  0  0  0
  -28.5400  -19.1640   19.6540 C   0  0  0  0  0  0  0  0  0  0  0  0
  -27.6910  -21.4910   20.1540 C   0  0  0  0  0  2  0  0  0  0  0  0
  -29.8340  -21.7600   22.1860 C   0  0  0  0  0  2  0  0  0  0  0  0
  -27.7350  -22.5630   21.2410 C   0  0  0  0  0  2  0  0  0  0  0  0
  -29.4360  -16.9660   18.8530 C   0  0  0  0  0  1  0  0  0  0  0  0
  -29.1520  -22.9030   21.5080 N   0  0  1  0  0  4  0  0  0  0  0  0
  -29.5820  -22.9260   20.5960 H   0  0  0  0  0  0  0  0  0  0  0  0
  -29.4960  -24.2920   23.6100 C   0  0  0  0  0  1  0  0  0  0  0  0
  -29.4110  -24.2730   22.0660 C   0  0  0  0  0  3  0  0  0  0  0  0
  -27.3700  -25.8780   22.4530 C   0  0  0  0  0  1  0  0  0  0  0  0
  -28.4440  -25.3650   21.4620 C   0  0  0  0  0  3  0  0  0  0  0  0
  -29.1620  -26.5700   20.7930 C   0  0  0  0  0  2  0  0  0  0  0  0
  -28.4490  -26.9900   19.6240 O   0  0  0  0  0  0  0  0  0  0  0  0
  -24.6410  -31.8170   23.2730 C   0  0  0  0  0  0  0  0  0  0  0  0
  -27.2900  -27.7130   19.7870 C   0  0  0  0  0  0  0  0  0  0  0  0
  -23.4180  -30.5480   21.5340 C   0  0  0  0  0  3  0  0  0  0  0  0
  -24.8670  -29.1540   19.9630 C   0  0  0  0  0  0  0  0  0  0  0  0
  -25.9310  -30.9580   21.3250 C   0  0  0  0  0  2  0  0  0  0  0  0
  -26.0230  -29.6440   20.5830 C   0  0  0  0  0  0  0  0  0  0  0  0
  -27.2360  -28.9280   20.5050 C   0  0  0  0  0  3  0  0  0  0  0  0
  -26.1230  -27.2350   19.1550 C   0  0  0  0  0  3  0  0  0  0  0  0
  -24.9090  -27.9430   19.2490 C   0  0  0  0  0  3  0  0  0  0  0  0
  -23.6130  -29.9890   20.0970 C   0  0  0  0  0  2  0  0  0  0  0  0
  -24.6820  -31.1160   22.1040 N   0  0  0  0  0  0  0  0  0  0  0  0
  -23.5680  -32.0290   23.8530 O   0  0  0  0  0  0  0  0  0  0  0  0
  -22.7940  -29.4400   22.4130 C   0  0  0  0  0  0  0  0  0  0  0  0
  -21.4660  -29.2720   22.3090 N   0  0  0  0  0  0  0  0  0  0  0  0
  -23.5000  -28.7400   23.1440 O   0  0  0  0  0  0  0  0  0  0  0  0
  -20.9600  -29.8960   21.6960 H   0  0  0  0  0  0  0  0  0  0  0  0
  -18.1020  -28.0460   22.7880 C   0  0  0  0  0  0  0  0  0  0  0  0
  -20.6680  -28.2680   23.0080 C   0  0  0  0  0  3  0  0  0  0  0  0
  -20.7450  -26.8990   22.2940 C   0  0  0  0  0  2  0  0  0  0  0  0
  -19.6120  -26.6780   21.2870 C   0  0  0  0  0  2  0  0  0  0  0  0
  -18.2500  -26.7660   21.9830 C   0  0  0  0  0  2  0  0  0  0  0  0
  -19.2370  -28.7590   23.2570 C   0  0  0  0  0  0  0  0  0  0  0  0
  -19.0450  -29.9620   23.9700 C   0  0  0  0  0  3  0  0  0  0  0  0
  -17.7490  -30.4520   24.2190 C   0  0  0  0  0  3  0  0  0  0  0  0
  -16.6280  -29.7330   23.7680 C   0  0  0  0  0  3  0  0  0  0  0  0
  -16.8060  -28.5330   23.0590 C   0  0  0  0  0  3  0  0  0  0  0  0
  -25.9350  -32.4010   23.9230 C   0  0  0  0  0  3  0  0  0  0  0  0
  -25.6380  -33.7790   24.3350 N   0  0  0  0  0  0  0  0  0  0  0  0
  -25.9770  -34.8700   23.6350 C   0  0  0  0  0  0  0  0  0  0  0  0
  -26.6430  -34.8210   22.5970 O   0  0  0  0  0  0  0  0  0  0  0  0
  -25.0480  -33.8920   25.1470 H   0  0  0  0  0  0  0  0  0  0  0  0
  -24.2530  -36.6850   23.3900 C   0  0  0  0  0  1  0  0  0  0  0  0
  -25.4990  -36.2340   24.1700 C   0  0  0  0  0  3  0  0  0  0  0  0
  -27.6440  -37.0620   25.0300 C   0  0  0  0  0  1  0  0  0  0  0  0
  -26.5350  -37.2870   24.1050 N   0  0  0  0  0  0  0  0  0  0  0  0
  -26.1350  -38.1990   24.3060 H   0  0  0  0  0  0  0  0  0  0  0  0
  -26.4550  -31.5510   25.1450 C   0  0  1  0  0  0  0  0  0  0  0  0
  -25.3710  -31.2670   26.2100 C   0  0  0  0  0  1  0  0  0  0  0  0
  -27.0150  -30.1920   24.6610 C   0  0  0  0  0  1  0  0  0  0  0  0
  -27.6250  -32.2900   25.8370 C   0  0  0  0  0  1  0  0  0  0  0  0
  -26.4640  -18.3160   19.0270 C   0  0  0  0  0  1  0  0  0  0  0  0
  -27.5900  -19.1060   18.6670 O   0  0  0  0  0  0  0  0  0  0  0  0
  -31.2120  -16.8930   21.3650 C   0  0  0  0  0  2  0  0  0  0  0  0
  -31.1560  -14.4840   20.6780 C   0  0  0  0  0  0  0  0  0  0  0  0
  -30.7690  -12.2990   19.5940 C   0  0  0  0  0  2  0  0  0  0  0  0
  -29.8990  -12.4510   18.3300 C   0  0  0  0  0  2  0  0  0  0  0  0
  -28.4070  -12.3570   18.6930 C   0  0  0  0  0  2  0  0  0  0  0  0
  -28.0270  -13.2870   19.8730 C   0  0  0  0  0  3  0  0  0  0  0  0
  -29.0250  -13.1530   21.0520 C   0  0  0  0  0  2  0  0  0  0  0  0
  -30.3930  -13.3610   20.5450 N   0  0  0  0  0  0  0  0  0  0  0  0
  -32.2660  -14.5890   20.1540 O   0  0  0  0  0  0  0  0  0  0  0  0
  -30.6220  -15.5320   21.3370 N   0  0  0  0  0  0  0  0  0  0  0  0
  -29.7210  -15.4060   21.7690 H   0  0  0  0  0  0  0  0  0  0  0  0
  -25.6220  -14.0040   20.4670 C   0  0  0  0  0  0  0  0  0  0  0  0
  -24.5120  -13.2900   20.8130 C   0  0  0  0  0  0  0  0  0  0  0  0
  -24.9160  -11.9230   20.8170 C   0  0  0  0  0  0  0  0  0  0  0  0
  -26.6440  -13.0820   20.2990 N   0  0  0  0  0  0  0  0  0  0  0  0
  -26.2160  -11.8210   20.5650 N   0  0  0  0  0  0  0  0  0  0  0  0
  -24.1250  -10.7000   20.9830 C   0  0  0  0  0  0  0  0  0  0  0  0
  -24.4960   -9.7020   21.9100 C   0  0  0  0  0  3  0  0  0  0  0  0
  -23.7090   -8.5430   22.0650 C   0  0  0  0  0  3  0  0  0  0  0  0
  -22.5350   -8.3740   21.2910 C   0  0  0  0  0  0  0  0  0  0  0  0
  -22.1830   -9.3600   20.3530 C   0  0  0  0  0  3  0  0  0  0  0  0
  -22.9710  -10.5110   20.1960 C   0  0  0  0  0  3  0  0  0  0  0  0
  -21.7220   -7.2690   21.3570 O   0  0  0  0  0  0  0  0  0  0  0  0
  -21.6370   -6.5060   22.4940 C   0  0  0  0  0  0  0  0  0  0  0  0
  -21.2590   -7.0590   23.7360 C   0  0  0  0  0  3  0  0  0  0  0  0
  -21.1180   -6.2270   24.8640 C   0  0  0  0  0  3  0  0  0  0  0  0
  -21.3450   -4.8430   24.7500 C   0  0  0  0  0  0  0  0  0  0  0  0
  -21.7170   -4.2880   23.5130 C   0  0  0  0  0  3  0  0  0  0  0  0
  -21.8600   -5.1180   22.3870 C   0  0  0  0  0  0  0  0  0  0  0  0
  -22.1990   -4.5770   21.1930 F   0  0  0  0  0  0  0  0  0  0  0  0
  -21.2010   -4.0400   25.8310 F   0  0  0  0  0  0  0  0  0  0  0  0
  -23.1300  -13.8400   21.0220 C   0  0  0  0  0  0  0  0  0  0  0  0
  -22.3400  -13.1980   21.8770 N   0  0  0  0  0  0  0  0  0  0  0  0
  -22.7600  -14.8730   20.4670 O   0  0  0  0  0  0  0  0  0  0  0  0
  -22.6510  -12.3620   22.3490 H   0  0  0  0  0  0  0  0  0  0  0  0
  -21.4100  -13.5490   22.0610 H   0  0  0  0  0  0  0  0  0  0  0  0
  -25.8210  -15.3570   20.2490 N   0  0  0  0  0  0  0  0  0  0  0  0
  -25.0390  -15.9980   20.2410 H   0  0  0  0  0  0  0  0  0  0  0  0
  -26.6610  -15.7420   19.8430 H   0  0  0  0  0  0  0  0  0  0  0  0
  2  1  1  0
  2  8  1  0
  3  2  2  0
  4 61  1  0
  4  1  2  0
  5  4  1  0
  6  5  2  0
  6  3  1  0
  7  3  1  0
  7  9  1  0
  9 11  1  0
 10  5  1  0
 11 14  1  0
 11  8  1  0
 11 12  1  6
 14 13  1  0
 16 14  1  0
 16 15  1  0
 17 16  1  0
 18 20  1  0
 18 17  1  0
 19 30  2  0
 20 25  1  0
 21 29  1  0
 21 31  1  0
 22 28  1  0
 22 24  1  0
 23 29  1  0
 24 23  1  0
 25 24  2  0
 26 27  1  0
 26 20  2  0
 27 22  2  0
 28 21  1  0
 29 19  1  0
 31 33  2  0
 32 31  1  0
 34 32  1  0
 35 44  2  0
 35 40  1  0
 36 32  1  0
 36 40  1  0
 37 36  1  0
 38 39  1  0
 38 37  1  0
 39 35  1  0
 40 41  2  0
 41 42  1  0
 43 42  2  0
 44 43  1  0
 45 19  1  0
 45 46  1  0
 45 55  1  0
 46 49  1  0
 47 51  1  0
 47 46  1  0
 48 47  2  0
 51 50  1  0
 53 51  1  0
 53 54  1  0
 53 52  1  0
 55 58  1  1
 55 56  1  0
 57 55  1  0
 60 59  1  0
 60  6  1  0
 62 70  1  0
 63 68  1  0
 64 65  1  0
 64 63  1  0
 66 65  1  0
 66 75  1  0
 66 67  1  0
 68 62  1  0
 68 67  1  0
 69 62  2  0
 70 61  1  0
 70 71  1  0
 72 73  2  0
 73 74  1  0
 73 92  1  0
 74 77  1  0
 75 72  1  0
 75 76  1  0
 76 74  2  0
 77 78  1  0
 78 79  2  0
 80 83  1  0
 80 79  1  0
 81 80  2  0
 82 81  1  0
 82 77  2  0
 83 84  1  0
 84 85  1  0
 85 86  2  0
 87 86  1  0
 87 91  1  0
 88 87  2  0
 89 84  2  0
 89 88  1  0
 90 89  1  0
 92 93  1  0
 93 96  1  0
 93 95  1  0
 94 92  2  0
 97 72  1  0
 98 97  1  0
 99 97  1  0
M  ISO  4  17 101  18 101  62 100  70 100
M  END
>  <TORSDO>  (54) 
F 21

>  <SCORE>  (54) 
-13.065

>  <name>  (54) 
53

>  <ligand_id>  (54) 
53

>  <original_smiles>  (54) 
[H]c1c([H])c([H])c2c(c1[H])C([H])([H])C([H])([H])C([H])([H])C2([H])N([H])C(=O)C1([H])N(C(=O)C([H])(N([H])C(=O)C([H])(N([H])C([H])([H])[H])C([H])([H])[H])C(C([H])([H])[H])(C([H])([H])[H])C([H])([H])[H])C([H])([H])c2c([H])c(OC([H])([H])C([H])(C([H])([H])[H])C([H])(C([H])([H])[H])[N+]3([H])C([H])([H])c4c([H])c(C([H])([H])N([H])C(=O)N5C([H])([H])C([H])([H])C([H])([H])C([H])(n6nc(-c7c([H])c([H])c(Oc8c([H])c([H])c(F)c([H])c8F)c([H])c7[H])c(C(=O)N([H])[H])c6N([H])[H])C5([H])[H])c(C([H])([H])[H])c(OC([H])([H])[H])c4C([H])([H])C3([H])[H])c([H])c([H])c2C1([H])[H]

>  <smiles>  (54) 
[H]c1c([H])c([H])c2c(c1[H])C([H])([H])C([H])([H])C([H])([H])C2([H])N([H])C(=O)C1([H])N(C(=O)C([H])(N([H])C(=O)C([H])(N([H])C([H])([H])[H])C([H])([H])[H])C(C([H])([H])[H])(C([H])([H])[H])C([H])([H])[H])C([H])([H])c2c([H])c(OC([H])([H])C([H])(C([H])([H])[H])C([H])(C([H])([H])[H])[N+]3([H])C([H])([H])c4c([H])c(C([H])([H])N([H])C(=O)N5C([H])([H])C([H])([H])C([H])([H])C([H])(n6nc(-c7c([H])c([H])c(Oc8c([H])c([H])c(F)c([H])c8F)c([H])c7[H])c(C(=O)N([H])[H])c6N([H])[H])C5([H])[H])c(C([H])([H])[H])c(OC([H])([H])[H])c4C([H])([H])C3([H])[H])c([H])c([H])c2C1([H])[H]

$$$$
54:0:0
     RDKit          3D

 98108  0  0  1  0  0  0  0  0999 V2000
  -30.0400  -20.8190   20.0020 C   0  0  0  0  0  3  0  0  0  0  0  0
  -32.3780  -21.4170   21.4250 C   0  0  0  0  0  3  0  0  0  0  0  0
  -30.3590  -22.1760   20.2680 C   0  0  0  0  0  0  0  0  0  0  0  0
  -30.8980  -19.7590   20.4080 C   0  0  0  0  0  0  0  0  0  0  0  0
  -31.5310  -22.4630   21.0150 C   0  0  0  0  0  0  0  0  0  0  0  0
  -32.0900  -20.0700   21.1120 C   0  0  0  0  0  0  0  0  0  0  0  0
  -31.9400  -23.8850   21.3760 C   0  0  0  0  0  1  0  0  0  0  0  0
  -30.6200  -14.5020   19.4380 C   0  0  0  0  0  0  0  0  0  0  0  0
  -30.3460  -12.2000   18.5970 C   0  0  0  0  0  2  0  0  0  0  0  0
  -29.2450  -12.1910   17.5170 C   0  0  0  0  0  2  0  0  0  0  0  0
  -27.8510  -12.0190   18.1520 C   0  0  0  0  0  2  0  0  0  0  0  0
  -27.6140  -12.9780   19.3500 C   0  0  0  0  0  3  0  0  0  0  0  0
  -28.8160  -12.9520   20.3180 C   0  0  0  0  0  2  0  0  0  0  0  0
  -30.0250  -13.2790   19.5450 N   0  0  0  0  0  0  0  0  0  0  0  0
  -31.6770  -14.6620   18.8180 O   0  0  0  0  0  0  0  0  0  0  0  0
  -30.2860  -17.4220   21.3200 C   0  0  0  0  0  2  0  0  0  0  0  0
  -29.5320  -18.0190   19.0060 C   0  0  0  0  0  2  0  0  0  0  0  0
  -29.5530  -16.0900   21.0200 C   0  0  0  0  0  2  0  0  0  0  0  0
  -29.5290  -16.5310   18.5730 C   0  0  0  0  0  2  0  0  0  0  0  0
  -30.6080  -18.2810   20.0710 C   0  0  0  0  0  3  0  0  0  0  0  0
  -29.8100  -15.5700   19.6670 N   0  0  0  0  0  0  0  0  0  0  0  0
  -25.3950  -13.5540   20.5190 C   0  0  0  0  0  0  0  0  0  0  0  0
  -24.3870  -12.7660   21.0070 C   0  0  0  0  0  0  0  0  0  0  0  0
  -24.7990  -11.4170   20.7850 C   0  0  0  0  0  0  0  0  0  0  0  0
  -26.3600  -12.6820   20.0360 N   0  0  0  0  0  0  0  0  0  0  0  0
  -26.0140  -11.3870   20.2520 N   0  0  0  0  0  0  0  0  0  0  0  0
  -24.0840  -10.1520   20.9980 C   0  0  0  0  0  0  0  0  0  0  0  0
  -24.5140   -9.2150   21.9640 C   0  0  0  0  0  3  0  0  0  0  0  0
  -23.8010   -8.0130   22.1630 C   0  0  0  0  0  3  0  0  0  0  0  0
  -22.6430   -7.7410   21.3960 C   0  0  0  0  0  0  0  0  0  0  0  0
  -22.2330   -8.6670   20.4210 C   0  0  0  0  0  3  0  0  0  0  0  0
  -22.9460   -9.8590   20.2200 C   0  0  0  0  0  3  0  0  0  0  0  0
  -21.9000   -6.5900   21.5020 O   0  0  0  0  0  0  0  0  0  0  0  0
  -21.6780   -5.9870   22.7130 C   0  0  0  0  0  0  0  0  0  0  0  0
  -20.9570   -6.6270   23.7440 C   0  0  0  0  0  3  0  0  0  0  0  0
  -20.6920   -5.9440   24.9480 C   0  0  0  0  0  3  0  0  0  0  0  0
  -21.1380   -4.6190   25.1190 C   0  0  0  0  0  0  0  0  0  0  0  0
  -21.8520   -3.9780   24.0910 C   0  0  0  0  0  3  0  0  0  0  0  0
  -22.1180   -4.6590   22.8900 C   0  0  0  0  0  0  0  0  0  0  0  0
  -22.7870   -4.0290   21.8950 F   0  0  0  0  0  0  0  0  0  0  0  0
  -20.8780   -3.9590   26.2710 F   0  0  0  0  0  0  0  0  0  0  0  0
  -23.0730  -13.2350   21.5600 C   0  0  0  0  0  0  0  0  0  0  0  0
  -22.5100  -12.4990   22.5130 N   0  0  0  0  0  0  0  0  0  0  0  0
  -22.5590  -14.2880   21.1850 O   0  0  0  0  0  0  0  0  0  0  0  0
  -22.9420  -11.6470   22.8380 H   0  0  0  0  0  0  0  0  0  0  0  0
  -21.6360  -12.7920   22.9240 H   0  0  0  0  0  0  0  0  0  0  0  0
  -25.5650  -14.9320   20.4270 N   0  0  0  0  0  0  0  0  0  0  0  0
  -24.8540  -15.5890   20.7290 H   0  0  0  0  0  0  0  0  0  0  0  0
  -26.3730  -15.3830   20.0150 H   0  0  0  0  0  0  0  0  0  0  0  0
  -28.5430  -23.9610   20.7530 C   0  0  0  0  0  2  0  0  0  0  0  0
  -28.7130  -23.0340   18.4330 C   0  0  0  0  0  2  0  0  0  0  0  0
  -27.9710  -25.2920   20.2120 C   0  0  0  0  0  2  0  0  0  0  0  0
  -28.1610  -24.3510   17.8420 C   0  0  0  0  0  2  0  0  0  0  0  0
  -29.4990  -23.3330   19.7220 C   0  0  0  0  0  3  0  0  0  0  0  0
  -27.2800  -25.1390   18.8360 C   0  0  0  0  0  3  0  0  0  0  0  0
  -27.0770  -26.4440   18.2750 O   0  0  0  0  0  0  0  0  0  0  0  0
  -24.2930  -31.2710   22.7020 C   0  0  0  0  0  0  0  0  0  0  0  0
  -25.9600  -27.1650   18.6400 C   0  0  0  0  0  0  0  0  0  0  0  0
  -22.6870  -30.1440   21.1930 C   0  0  0  0  0  3  0  0  0  0  0  0
  -23.7160  -28.7440   19.3280 C   0  0  0  0  0  0  0  0  0  0  0  0
  -25.1350  -30.4280   20.5130 C   0  0  0  0  0  2  0  0  0  0  0  0
  -25.0000  -29.1470   19.7160 C   0  0  0  0  0  0  0  0  0  0  0  0
  -26.1230  -28.3670   19.3640 C   0  0  0  0  0  3  0  0  0  0  0  0
  -24.6590  -26.7760   18.2510 C   0  0  0  0  0  3  0  0  0  0  0  0
  -23.5400  -27.5580   18.5930 C   0  0  0  0  0  3  0  0  0  0  0  0
  -22.5660  -29.6390   19.7310 C   0  0  0  0  0  2  0  0  0  0  0  0
  -24.0700  -30.6210   21.5240 N   0  0  0  0  0  0  0  0  0  0  0  0
  -23.3650  -31.5140   23.4850 O   0  0  0  0  0  0  0  0  0  0  0  0
  -22.1790  -29.0340   22.1420 C   0  0  0  0  0  0  0  0  0  0  0  0
  -20.8680  -28.7530   22.0850 N   0  0  0  0  0  0  0  0  0  0  0  0
  -22.9590  -28.4310   22.8840 O   0  0  0  0  0  0  0  0  0  0  0  0
  -20.2940  -29.2970   21.4560 H   0  0  0  0  0  0  0  0  0  0  0  0
  -17.6900  -27.0930   22.5250 C   0  0  0  0  0  0  0  0  0  0  0  0
  -20.1750  -27.7210   22.8550 C   0  0  0  0  0  3  0  0  0  0  0  0
  -20.4990  -26.3090   22.3120 C   0  0  0  0  0  2  0  0  0  0  0  0
  -19.4830  -25.8140   21.2770 C   0  0  0  0  0  2  0  0  0  0  0  0
  -18.0770  -25.7720   21.8820 C   0  0  0  0  0  2  0  0  0  0  0  0
  -18.6760  -28.0150   22.9670 C   0  0  0  0  0  0  0  0  0  0  0  0
  -18.2630  -29.2450   23.5230 C   0  0  0  0  0  3  0  0  0  0  0  0
  -16.8950  -29.5570   23.6460 C   0  0  0  0  0  3  0  0  0  0  0  0
  -15.9240  -28.6340   23.2220 C   0  0  0  0  0  3  0  0  0  0  0  0
  -16.3220  -27.4040   22.6670 C   0  0  0  0  0  3  0  0  0  0  0  0
  -25.7180  -31.7630   23.1070 C   0  0  0  0  0  3  0  0  0  0  0  0
  -25.5730  -33.0960   23.7050 N   0  0  0  0  0  0  0  0  0  0  0  0
  -26.0020  -34.2330   23.1410 C   0  0  0  0  0  0  0  0  0  0  0  0
  -26.6360  -34.2570   22.0820 O   0  0  0  0  0  0  0  0  0  0  0  0
  -25.0150  -33.1570   24.5450 H   0  0  0  0  0  0  0  0  0  0  0  0
  -24.5190  -36.2630   23.1510 C   0  0  0  0  0  1  0  0  0  0  0  0
  -25.6790  -35.5520   23.8680 C   0  0  0  0  0  3  0  0  0  0  0  0
  -27.8830  -35.9740   24.8630 C   0  0  0  0  0  1  0  0  0  0  0  0
  -26.8360  -36.4670   23.9720 N   0  0  0  0  0  0  0  0  0  0  0  0
  -26.5420  -37.3810   24.3040 H   0  0  0  0  0  0  0  0  0  0  0  0
  -26.4560  -30.7820   24.1000 C   0  0  1  0  0  0  0  0  0  0  0  0
  -25.5780  -30.3240   25.2880 C   0  0  0  0  0  1  0  0  0  0  0  0
  -26.9420  -29.5160   23.3580 C   0  0  0  0  0  1  0  0  0  0  0  0
  -27.7160  -31.4700   24.6760 C   0  0  0  0  0  1  0  0  0  0  0  0
  -34.3390  -19.2510   21.4180 C   0  0  0  0  0  1  0  0  0  0  0  0
  -32.9340  -19.0310   21.4510 O   0  0  0  0  0  0  0  0  0  0  0  0
  1  3  2  0
  1  4  1  0
  3  5  1  0
  4  6  2  0
  5  7  1  0
  5  2  2  0
  6  2  1  0
  6 98  1  0
  8 14  1  0
  8 21  1  0
  9 14  1  0
 10 11  1  0
 10  9  1  0
 12 11  1  0
 12 25  1  0
 12 13  1  0
 14 13  1  0
 15  8  2  0
 17 20  1  0
 18 16  1  0
 19 17  1  0
 19 21  1  0
 20  4  1  0
 20 16  1  0
 21 18  1  0
 22 23  2  0
 23 42  1  0
 24 27  1  0
 24 23  1  0
 25 26  1  0
 25 22  1  0
 26 24  2  0
 27 28  1  0
 28 29  2  0
 30 33  1  0
 30 29  1  0
 31 30  2  0
 32 31  1  0
 32 27  2  0
 33 34  1  0
 34 39  2  0
 34 35  1  0
 35 36  2  0
 36 37  1  0
 37 41  1  0
 38 37  2  0
 39 38  1  0
 40 39  1  0
 42 43  1  0
 43 45  1  0
 43 46  1  0
 44 42  2  0
 47 22  1  0
 47 48  1  0
 49 47  1  0
 51 54  1  0
 52 50  1  0
 53 51  1  0
 53 55  1  0
 54  3  1  0
 54 50  1  0
 55 56  1  0
 55 52  1  0
 56 58  1  0
 57 68  2  0
 58 63  1  0
 59 67  1  0
 59 69  1  0
 60 62  1  0
 60 66  1  0
 61 67  1  0
 62 61  1  0
 63 62  2  0
 64 65  1  0
 64 58  2  0
 65 60  2  0
 66 59  1  0
 67 57  1  0
 69 71  2  0
 70 69  1  0
 72 70  1  0
 73 82  2  0
 73 78  1  0
 74 70  1  0
 74 78  1  0
 75 74  1  0
 76 77  1  0
 76 75  1  0
 77 73  1  0
 78 79  2  0
 79 80  1  0
 81 80  2  0
 82 81  1  0
 83 57  1  0
 83 84  1  0
 83 93  1  0
 84 87  1  0
 85 84  1  0
 85 89  1  0
 86 85  2  0
 89 88  1  0
 89 91  1  0
 91 92  1  0
 91 90  1  0
 93 96  1  1
 93 94  1  0
 95 93  1  0
 97 98  1  0
M  ISO  4   8 100  21 100  55 101  56 101
M  END
>  <TORSDO>  (55) 
F 18

>  <SCORE>  (55) 
-10.161

>  <name>  (55) 
54

>  <ligand_id>  (55) 
54

>  <original_smiles>  (55) 
[H]c1c([H])c([H])c2c(c1[H])C([H])([H])C([H])([H])C([H])([H])C2([H])N([H])C(=O)C1([H])N(C(=O)C([H])(N([H])C(=O)C([H])(N([H])C([H])([H])[H])C([H])([H])[H])C(C([H])([H])[H])(C([H])([H])[H])C([H])([H])[H])C([H])([H])c2c([H])c(OC3([H])C([H])([H])C([H])([H])C([H])(c4c([H])c(C5([H])C([H])([H])C([H])([H])N(C(=O)N6C([H])([H])C([H])([H])C([H])([H])C([H])(n7nc(-c8c([H])c([H])c(Oc9c([H])c([H])c(F)c([H])c9F)c([H])c8[H])c(C(=O)N([H])[H])c7N([H])[H])C6([H])[H])C([H])([H])C5([H])[H])c(OC([H])([H])[H])c([H])c4C([H])([H])[H])C([H])([H])C3([H])[H])c([H])c([H])c2C1([H])[H]

>  <smiles>  (55) 
[H]c1c([H])c([H])c2c(c1[H])C([H])([H])C([H])([H])C([H])([H])C2([H])N([H])C(=O)C1([H])N(C(=O)C([H])(N([H])C(=O)C([H])(N([H])C([H])([H])[H])C([H])([H])[H])C(C([H])([H])[H])(C([H])([H])[H])C([H])([H])[H])C([H])([H])c2c([H])c(OC3([H])C([H])([H])C([H])([H])C([H])(c4c([H])c(C5([H])C([H])([H])C([H])([H])N(C(=O)N6C([H])([H])C([H])([H])C([H])([H])C([H])(n7nc(-c8c([H])c([H])c(Oc9c([H])c([H])c(F)c([H])c9F)c([H])c8[H])c(C(=O)N([H])[H])c7N([H])[H])C6([H])[H])C([H])([H])C5([H])[H])c(OC([H])([H])[H])c([H])c4C([H])([H])[H])C([H])([H])C3([H])[H])c([H])c([H])c2C1([H])[H]

$$$$
55:0:0
     RDKit          3D

 91100  0  0  1  0  0  0  0  0999 V2000
  -27.8740  -21.0890   21.3060 C   0  0  0  0  0  3  0  0  0  0  0  0
  -28.2220  -19.7320   21.4300 C   0  0  0  0  0  3  0  0  0  0  0  0
  -29.8310  -21.3840   19.9430 C   0  0  0  0  0  3  0  0  0  0  0  0
  -28.6910  -21.9630   20.5630 C   0  0  0  0  0  0  0  0  0  0  0  0
  -29.3860  -19.2510   20.8060 C   0  0  0  0  0  0  0  0  0  0  0  0
  -30.1730  -20.0690   20.0620 N   0  0  0  0  0  0  0  0  0  0  0  0
  -31.0730  -14.6510   19.5680 C   0  0  0  0  0  0  0  0  0  0  0  0
  -30.5990  -12.4940   18.4530 C   0  0  0  0  0  2  0  0  0  0  0  0
  -29.4950  -12.6770   17.3920 C   0  0  0  0  0  2  0  0  0  0  0  0
  -28.1010  -12.5250   18.0290 C   0  0  0  0  0  2  0  0  0  0  0  0
  -27.9380  -13.3760   19.3160 C   0  0  0  0  0  3  0  0  0  0  0  0
  -29.1390  -13.1810   20.2690 C   0  0  0  0  0  2  0  0  0  0  0  0
  -30.3690  -13.4840   19.5190 N   0  0  0  0  0  0  0  0  0  0  0  0
  -32.0750  -14.8510   18.8750 O   0  0  0  0  0  0  0  0  0  0  0  0
  -31.1900  -17.5920   21.6870 C   0  0  0  0  0  2  0  0  0  0  0  0
  -31.4330  -16.0820   21.5210 C   0  0  0  0  0  2  0  0  0  0  0  0
  -29.8480  -16.7840   19.8910 C   0  0  0  0  0  2  0  0  0  0  0  0
  -29.8220  -17.7900   21.0560 C   0  0  0  0  0  3  0  0  0  0  0  0
  -30.6010  -15.6140   20.3990 N   0  0  0  0  0  0  0  0  0  0  0  0
  -25.7200  -13.9920   20.4650 C   0  0  0  0  0  0  0  0  0  0  0  0
  -24.6840  -13.2240   20.9260 C   0  0  0  0  0  0  0  0  0  0  0  0
  -25.0610  -11.8670   20.6860 C   0  0  0  0  0  0  0  0  0  0  0  0
  -26.6660  -13.1020   19.9810 N   0  0  0  0  0  0  0  0  0  0  0  0
  -26.2820  -11.8130   20.1680 N   0  0  0  0  0  0  0  0  0  0  0  0
  -24.3090  -10.6190   20.8670 C   0  0  0  0  0  0  0  0  0  0  0  0
  -24.7430   -9.6170   21.7630 C   0  0  0  0  0  3  0  0  0  0  0  0
  -23.9920   -8.4350   21.9320 C   0  0  0  0  0  3  0  0  0  0  0  0
  -22.7930   -8.2440   21.2050 C   0  0  0  0  0  0  0  0  0  0  0  0
  -22.3780   -9.2350   20.2970 C   0  0  0  0  0  3  0  0  0  0  0  0
  -23.1290  -10.4080   20.1250 C   0  0  0  0  0  3  0  0  0  0  0  0
  -22.0130   -7.1160   21.2860 O   0  0  0  0  0  0  0  0  0  0  0  0
  -21.8480   -6.4380   22.4660 C   0  0  0  0  0  0  0  0  0  0  0  0
  -21.3070   -7.0580   23.6130 C   0  0  0  0  0  3  0  0  0  0  0  0
  -21.0910   -6.3050   24.7850 C   0  0  0  0  0  3  0  0  0  0  0  0
  -21.4060   -4.9340   24.8090 C   0  0  0  0  0  0  0  0  0  0  0  0
  -21.9400   -4.3130   23.6660 C   0  0  0  0  0  3  0  0  0  0  0  0
  -22.1580   -5.0630   22.4970 C   0  0  0  0  0  0  0  0  0  0  0  0
  -22.6530   -4.4550   21.3920 F   0  0  0  0  0  0  0  0  0  0  0  0
  -21.1920   -4.2090   25.9320 F   0  0  0  0  0  0  0  0  0  0  0  0
  -23.3750  -13.7200   21.4700 C   0  0  0  0  0  0  0  0  0  0  0  0
  -22.7670  -12.9700   22.3830 N   0  0  0  0  0  0  0  0  0  0  0  0
  -22.9080  -14.8030   21.1230 O   0  0  0  0  0  0  0  0  0  0  0  0
  -23.1620  -12.0910   22.6820 H   0  0  0  0  0  0  0  0  0  0  0  0
  -21.8970  -13.2810   22.7890 H   0  0  0  0  0  0  0  0  0  0  0  0
  -25.9270  -15.3660   20.4000 N   0  0  0  0  0  0  0  0  0  0  0  0
  -25.2230  -16.0330   20.6970 H   0  0  0  0  0  0  0  0  0  0  0  0
  -26.7380  -15.8050   19.9850 H   0  0  0  0  0  0  0  0  0  0  0  0
  -28.2990  -23.2950   20.5300 O   0  0  0  0  0  0  0  0  0  0  0  0
  -29.0630  -24.3150   19.8670 C   0  0  0  0  0  2  0  0  0  0  0  0
  -28.6720  -25.6880   20.4940 C   0  0  0  0  0  2  0  0  0  0  0  0
  -28.6720  -26.8290   19.6060 O   0  0  0  0  0  0  0  0  0  0  0  0
  -24.7670  -31.6520   23.1290 C   0  0  0  0  0  0  0  0  0  0  0  0
  -27.5090  -27.5700   19.6610 C   0  0  0  0  0  0  0  0  0  0  0  0
  -23.5820  -30.3450   21.3950 C   0  0  0  0  0  3  0  0  0  0  0  0
  -25.0670  -28.9860   19.8240 C   0  0  0  0  0  0  0  0  0  0  0  0
  -26.0900  -30.8150   21.1870 C   0  0  0  0  0  2  0  0  0  0  0  0
  -26.2170  -29.5040   20.4350 C   0  0  0  0  0  0  0  0  0  0  0  0
  -27.4450  -28.8040   20.3510 C   0  0  0  0  0  3  0  0  0  0  0  0
  -26.3460  -27.0710   19.0400 C   0  0  0  0  0  3  0  0  0  0  0  0
  -25.1270  -27.7700   19.1220 C   0  0  0  0  0  3  0  0  0  0  0  0
  -23.7910  -29.7880   19.9620 C   0  0  0  0  0  2  0  0  0  0  0  0
  -24.8320  -30.9480   21.9630 N   0  0  0  0  0  0  0  0  0  0  0  0
  -23.6870  -31.8390   23.7070 O   0  0  0  0  0  0  0  0  0  0  0  0
  -22.9860  -29.2260   22.2790 C   0  0  0  0  0  0  0  0  0  0  0  0
  -21.6700  -28.9930   22.1440 N   0  0  0  0  0  0  0  0  0  0  0  0
  -23.7030  -28.5730   23.0420 O   0  0  0  0  0  0  0  0  0  0  0  0
  -21.1510  -29.5770   21.5030 H   0  0  0  0  0  0  0  0  0  0  0  0
  -18.3570  -27.6100   22.5610 C   0  0  0  0  0  0  0  0  0  0  0  0
  -20.9030  -27.9640   22.8440 C   0  0  0  0  0  3  0  0  0  0  0  0
  -21.0660  -26.5870   22.1610 C   0  0  0  0  0  2  0  0  0  0  0  0
  -19.9740  -26.2910   21.1290 C   0  0  0  0  0  2  0  0  0  0  0  0
  -18.5910  -26.3240   21.7860 C   0  0  0  0  0  2  0  0  0  0  0  0
  -19.4430  -28.3870   23.0450 C   0  0  0  0  0  0  0  0  0  0  0  0
  -19.1710  -29.5920   23.7290 C   0  0  0  0  0  3  0  0  0  0  0  0
  -17.8460  -30.0200   23.9350 C   0  0  0  0  0  3  0  0  0  0  0  0
  -16.7750  -29.2380   23.4690 C   0  0  0  0  0  3  0  0  0  0  0  0
  -17.0310  -28.0350   22.7890 C   0  0  0  0  0  3  0  0  0  0  0  0
  -26.0410  -32.2780   23.7780 C   0  0  0  0  0  3  0  0  0  0  0  0
  -26.5970  -31.4370   24.9920 C   0  0  1  0  0  0  0  0  0  0  0  0
  -25.5220  -31.0790   26.0430 C   0  0  0  0  0  1  0  0  0  0  0  0
  -27.2310  -30.1170   24.4970 C   0  0  0  0  0  1  0  0  0  0  0  0
  -27.7210  -32.2260   25.7050 C   0  0  0  0  0  1  0  0  0  0  0  0
  -25.6960  -33.6420   24.2030 N   0  0  0  0  0  0  0  0  0  0  0  0
  -25.9900  -34.7510   23.5110 C   0  0  0  0  0  0  0  0  0  0  0  0
  -26.6500  -34.7350   22.4680 O   0  0  0  0  0  0  0  0  0  0  0  0
  -25.1080  -33.7270   25.0190 H   0  0  0  0  0  0  0  0  0  0  0  0
  -24.2060  -36.5100   23.2920 C   0  0  0  0  0  1  0  0  0  0  0  0
  -25.4670  -36.0910   24.0630 C   0  0  0  0  0  3  0  0  0  0  0  0
  -27.5820  -36.9840   24.9330 C   0  0  0  0  0  1  0  0  0  0  0  0
  -26.4660  -37.1800   24.0100 N   0  0  0  0  0  0  0  0  0  0  0  0
  -26.0350  -38.0750   24.2200 H   0  0  0  0  0  0  0  0  0  0  0  0
  1  2  1  0
  3  6  2  0
  3  4  1  0
  4  1  2  0
  5  2  2  0
  6  5  1  0
  7 19  1  0
  8 13  1  0
  9 10  1  0
  9  8  1  0
 11 10  1  0
 11 23  1  0
 11 12  1  0
 13  7  1  0
 13 12  1  0
 14  7  2  0
 16 15  1  0
 17 19  1  0
 17 18  1  0
 18  5  1  0
 18 15  1  0
 19 16  1  0
 20 21  2  0
 21 40  1  0
 22 25  1  0
 22 21  1  0
 23 24  1  0
 23 20  1  0
 24 22  2  0
 25 26  1  0
 26 27  2  0
 28 31  1  0
 28 27  1  0
 29 28  2  0
 30 29  1  0
 30 25  2  0
 31 32  1  0
 32 37  2  0
 32 33  1  0
 33 34  2  0
 34 35  1  0
 35 39  1  0
 36 35  2  0
 37 36  1  0
 38 37  1  0
 40 41  1  0
 41 43  1  0
 41 44  1  0
 42 40  2  0
 45 20  1  0
 45 46  1  0
 47 45  1  0
 48  4  1  0
 49 50  1  0
 49 48  1  0
 51 53  1  0
 51 50  1  0
 52 63  2  0
 53 58  1  0
 54 62  1  0
 54 64  1  0
 55 61  1  0
 55 57  1  0
 56 62  1  0
 57 56  1  0
 58 57  2  0
 59 60  1  0
 59 53  2  0
 60 55  2  0
 61 54  1  0
 62 52  1  0
 64 66  2  0
 65 64  1  0
 67 65  1  0
 68 77  2  0
 68 73  1  0
 69 65  1  0
 69 73  1  0
 70 69  1  0
 71 72  1  0
 71 70  1  0
 72 68  1  0
 73 74  2  0
 74 75  1  0
 76 75  2  0
 77 76  1  0
 78 52  1  0
 78 83  1  0
 78 79  1  0
 79 82  1  1
 79 80  1  0
 81 79  1  0
 83 86  1  0
 84 88  1  0
 84 83  1  0
 85 84  2  0
 88 87  1  0
 90 88  1  0
 90 91  1  0
 90 89  1  0
M  ISO  4   7 100  19 100  50 101  51 101
M  END
>  <TORSDO>  (56) 
F 19

>  <SCORE>  (56) 
-10.724

>  <name>  (56) 
55

>  <ligand_id>  (56) 
55

>  <original_smiles>  (56) 
[H]c1nc(C2([H])C([H])([H])N(C(=O)N3C([H])([H])C([H])([H])C([H])([H])C([H])(n4nc(-c5c([H])c([H])c(Oc6c([H])c([H])c(F)c([H])c6F)c([H])c5[H])c(C(=O)N([H])[H])c4N([H])[H])C3([H])[H])C([H])([H])C2([H])[H])c([H])c([H])c1OC([H])([H])C([H])([H])Oc1c([H])c([H])c2c(c1[H])C([H])([H])N(C(=O)C([H])(N([H])C(=O)C([H])(N([H])C([H])([H])[H])C([H])([H])[H])C(C([H])([H])[H])(C([H])([H])[H])C([H])([H])[H])C([H])(C(=O)N([H])C1([H])c3c([H])c([H])c([H])c([H])c3C([H])([H])C([H])([H])C1([H])[H])C2([H])[H]

>  <smiles>  (56) 
[H]c1nc(C2([H])C([H])([H])N(C(=O)N3C([H])([H])C([H])([H])C([H])([H])C([H])(n4nc(-c5c([H])c([H])c(Oc6c([H])c([H])c(F)c([H])c6F)c([H])c5[H])c(C(=O)N([H])[H])c4N([H])[H])C3([H])[H])C([H])([H])C2([H])[H])c([H])c([H])c1OC([H])([H])C([H])([H])Oc1c([H])c([H])c2c(c1[H])C([H])([H])N(C(=O)C([H])(N([H])C(=O)C([H])(N([H])C([H])([H])[H])C([H])([H])[H])C(C([H])([H])[H])(C([H])([H])[H])C([H])([H])[H])C([H])(C(=O)N([H])C1([H])c3c([H])c([H])c([H])c([H])c3C([H])([H])C([H])([H])C1([H])[H])C2([H])[H]

$$$$
56:0:0
     RDKit          3D

 96105  0  0  1  0  0  0  0  0999 V2000
  -28.8570  -21.0510   20.7950 C   0  0  0  0  0  3  0  0  0  0  0  0
  -30.9130  -22.8950   21.2310 C   0  0  0  0  0  3  0  0  0  0  0  0
  -30.1760  -20.5760   20.9530 C   0  0  0  0  0  0  0  0  0  0  0  0
  -28.5540  -22.4330   20.8460 C   0  0  0  0  0  0  0  0  0  0  0  0
  -31.2120  -21.5180   21.1840 C   0  0  0  0  0  0  0  0  0  0  0  0
  -29.5930  -23.3760   21.0500 C   0  0  0  0  0  0  0  0  0  0  0  0
  -32.6600  -21.0920   21.3730 C   0  0  0  0  0  1  0  0  0  0  0  0
  -31.1810  -15.0290   20.4080 C   0  0  0  0  0  0  0  0  0  0  0  0
  -30.8590  -12.8460   19.3300 C   0  0  0  0  0  2  0  0  0  0  0  0
  -29.9560  -13.0360   18.0960 C   0  0  0  0  0  2  0  0  0  0  0  0
  -28.4710  -12.9270   18.4940 C   0  0  0  0  0  2  0  0  0  0  0  0
  -28.1100  -13.8080   19.7210 C   0  0  0  0  0  3  0  0  0  0  0  0
  -29.1370  -13.6300   20.8620 C   0  0  0  0  0  2  0  0  0  0  0  0
  -30.4760  -13.8740   20.3080 N   0  0  0  0  0  0  0  0  0  0  0  0
  -32.3500  -15.1370   20.0230 O   0  0  0  0  0  0  0  0  0  0  0  0
  -30.1850  -18.2630   22.1010 C   0  0  0  0  0  2  0  0  0  0  0  0
  -29.6750  -18.4000   19.7140 C   0  0  0  0  0  2  0  0  0  0  0  0
  -30.6970  -16.8080   21.9610 C   0  0  0  0  0  2  0  0  0  0  0  0
  -30.2300  -16.9910   19.4540 C   0  0  0  0  0  2  0  0  0  0  0  0
  -30.4630  -19.0720   20.8330 C   0  0  0  0  0  3  0  0  0  0  0  0
  -30.4530  -16.1470   20.6550 N   0  0  0  0  0  0  0  0  0  0  0  0
  -25.7230  -14.4690   20.4120 C   0  0  0  0  0  0  0  0  0  0  0  0
  -24.6260  -13.7200   20.7440 C   0  0  0  0  0  0  0  0  0  0  0  0
  -25.0490  -12.3560   20.6860 C   0  0  0  0  0  0  0  0  0  0  0  0
  -26.7450  -13.5630   20.1750 N   0  0  0  0  0  0  0  0  0  0  0  0
  -26.3420  -12.2860   20.3980 N   0  0  0  0  0  0  0  0  0  0  0  0
  -24.2850  -11.1120   20.8320 C   0  0  0  0  0  0  0  0  0  0  0  0
  -24.6690  -10.1130   21.7550 C   0  0  0  0  0  3  0  0  0  0  0  0
  -23.9070   -8.9330   21.8900 C   0  0  0  0  0  3  0  0  0  0  0  0
  -22.7470   -8.7430   21.1010 C   0  0  0  0  0  0  0  0  0  0  0  0
  -22.3830   -9.7290   20.1670 C   0  0  0  0  0  3  0  0  0  0  0  0
  -23.1460  -10.9010   20.0300 C   0  0  0  0  0  3  0  0  0  0  0  0
  -21.9600   -7.6180   21.1470 O   0  0  0  0  0  0  0  0  0  0  0  0
  -21.8520   -6.8610   22.2850 C   0  0  0  0  0  0  0  0  0  0  0  0
  -21.3830   -7.4060   23.5010 C   0  0  0  0  0  3  0  0  0  0  0  0
  -21.2220   -6.5770   24.6290 C   0  0  0  0  0  3  0  0  0  0  0  0
  -21.5170   -5.2040   24.5410 C   0  0  0  0  0  0  0  0  0  0  0  0
  -21.9770   -4.6570   23.3300 C   0  0  0  0  0  3  0  0  0  0  0  0
  -22.1410   -5.4840   22.2040 C   0  0  0  0  0  0  0  0  0  0  0  0
  -22.5630   -4.9480   21.0340 F   0  0  0  0  0  0  0  0  0  0  0  0
  -21.3530   -4.4040   25.6220 F   0  0  0  0  0  0  0  0  0  0  0  0
  -23.2390  -14.2310   21.0060 C   0  0  0  0  0  0  0  0  0  0  0  0
  -22.4800  -13.5380   21.8480 N   0  0  0  0  0  0  0  0  0  0  0  0
  -22.8370  -15.2790   20.5020 O   0  0  0  0  0  0  0  0  0  0  0  0
  -22.8150  -12.6880   22.2750 H   0  0  0  0  0  0  0  0  0  0  0  0
  -21.5480  -13.8610   22.0650 H   0  0  0  0  0  0  0  0  0  0  0  0
  -25.9320  -15.8380   20.2710 N   0  0  0  0  0  0  0  0  0  0  0  0
  -25.1910  -16.5190   20.3930 H   0  0  0  0  0  0  0  0  0  0  0  0
  -26.8150  -16.2540   20.0050 H   0  0  0  0  0  0  0  0  0  0  0  0
  -26.1580  -22.2310   21.6850 C   0  0  0  0  0  1  0  0  0  0  0  0
  -26.6200  -22.6400   19.2230 C   0  0  0  0  0  1  0  0  0  0  0  0
  -27.1020  -22.8840   20.6610 C   0  0  0  0  0  3  0  0  0  0  0  0
  -29.2770  -24.7230   21.0600 O   0  0  0  0  0  0  0  0  0  0  0  0
  -30.3360  -25.6830   21.0860 C   0  0  0  0  0  2  0  0  0  0  0  0
  -29.7650  -27.1100   21.1380 C   0  0  0  0  0  2  0  0  0  0  0  0
  -29.1170  -27.3880   19.9020 O   0  0  0  0  0  0  0  0  0  0  0  0
  -24.8440  -31.8860   23.4370 C   0  0  0  0  0  0  0  0  0  0  0  0
  -27.9170  -28.0470   19.9960 C   0  0  0  0  0  0  0  0  0  0  0  0
  -23.7930  -30.5710   21.6230 C   0  0  0  0  0  3  0  0  0  0  0  0
  -25.4010  -29.3180   20.0910 C   0  0  0  0  0  0  0  0  0  0  0  0
  -26.2780  -31.1610   21.5350 C   0  0  0  0  0  2  0  0  0  0  0  0
  -26.4940  -29.8740   20.7700 C   0  0  0  0  0  0  0  0  0  0  0  0
  -27.7540  -29.2420   20.7320 C   0  0  0  0  0  3  0  0  0  0  0  0
  -26.8160  -27.5030   19.3070 C   0  0  0  0  0  3  0  0  0  0  0  0
  -25.5550  -28.1260   19.3590 C   0  0  0  0  0  3  0  0  0  0  0  0
  -24.0870  -30.0580   20.1870 C   0  0  0  0  0  2  0  0  0  0  0  0
  -24.9870  -31.2160   22.2590 N   0  0  0  0  0  0  0  0  0  0  0  0
  -23.7350  -32.0110   23.9730 O   0  0  0  0  0  0  0  0  0  0  0  0
  -23.2140  -29.4030   22.4540 C   0  0  0  0  0  0  0  0  0  0  0  0
  -21.9150  -29.1220   22.2670 N   0  0  0  0  0  0  0  0  0  0  0  0
  -23.9320  -28.7570   23.2230 O   0  0  0  0  0  0  0  0  0  0  0  0
  -21.3940  -29.7030   21.6250 H   0  0  0  0  0  0  0  0  0  0  0  0
  -18.6490  -27.6010   22.5250 C   0  0  0  0  0  0  0  0  0  0  0  0
  -21.1660  -28.0450   22.9110 C   0  0  0  0  0  3  0  0  0  0  0  0
  -21.4110  -26.6940   22.1990 C   0  0  0  0  0  2  0  0  0  0  0  0
  -20.3680  -26.3850   21.1200 C   0  0  0  0  0  2  0  0  0  0  0  0
  -18.9620  -26.3460   21.7260 C   0  0  0  0  0  2  0  0  0  0  0  0
  -19.6850  -28.4060   23.0680 C   0  0  0  0  0  0  0  0  0  0  0  0
  -19.3410  -29.5810   23.7720 C   0  0  0  0  0  3  0  0  0  0  0  0
  -17.9930  -29.9510   23.9400 C   0  0  0  0  0  3  0  0  0  0  0  0
  -16.9710  -29.1410   23.4130 C   0  0  0  0  0  3  0  0  0  0  0  0
  -17.3000  -27.9680   22.7120 C   0  0  0  0  0  3  0  0  0  0  0  0
  -26.0620  -32.5510   24.1520 C   0  0  0  0  0  3  0  0  0  0  0  0
  -26.5320  -31.7660   25.4390 C   0  0  1  0  0  0  0  0  0  0  0  0
  -25.3870  -31.4580   26.4310 C   0  0  0  0  0  1  0  0  0  0  0  0
  -27.1920  -30.4240   25.0480 C   0  0  0  0  0  1  0  0  0  0  0  0
  -27.6080  -32.5860   26.1900 C   0  0  0  0  0  1  0  0  0  0  0  0
  -25.6780  -33.9270   24.4920 N   0  0  0  0  0  0  0  0  0  0  0  0
  -26.0110  -35.0080   23.7740 C   0  0  0  0  0  0  0  0  0  0  0  0
  -26.7460  -34.9530   22.7830 O   0  0  0  0  0  0  0  0  0  0  0  0
  -25.0330  -34.0400   25.2600 H   0  0  0  0  0  0  0  0  0  0  0  0
  -24.2240  -36.7270   23.3580 C   0  0  0  0  0  1  0  0  0  0  0  0
  -25.4390  -36.3650   24.2260 C   0  0  0  0  0  3  0  0  0  0  0  0
  -27.4850  -37.3300   25.1820 C   0  0  0  0  0  1  0  0  0  0  0  0
  -26.4280  -37.4640   24.1830 N   0  0  0  0  0  0  0  0  0  0  0  0
  -25.9730  -38.3630   24.3210 H   0  0  0  0  0  0  0  0  0  0  0  0
  1  4  2  0
  1  3  1  0
  3  5  2  0
  4  6  1  0
  5  2  1  0
  5  7  1  0
  6 53  1  0
  6  2  2  0
  8 21  1  0
  9 14  1  0
 10 11  1  0
 10  9  1  0
 12 11  1  0
 12 25  1  0
 12 13  1  0
 14  8  1  0
 14 13  1  0
 15  8  2  0
 17 20  1  0
 18 16  1  0
 19 17  1  0
 19 21  1  0
 20  3  1  0
 20 16  1  0
 21 18  1  0
 22 23  2  0
 23 42  1  0
 24 23  1  0
 24 27  1  0
 25 26  1  0
 25 22  1  0
 26 24  2  0
 27 28  1  0
 28 29  2  0
 30 33  1  0
 30 29  1  0
 31 30  2  0
 32 31  1  0
 32 27  2  0
 33 34  1  0
 34 35  1  0
 35 36  2  0
 37 36  1  0
 37 41  1  0
 38 37  2  0
 39 34  2  0
 39 38  1  0
 40 39  1  0
 42 43  1  0
 43 46  1  0
 43 45  1  0
 44 42  2  0
 47 48  1  0
 47 22  1  0
 49 47  1  0
 51 52  1  0
 52  4  1  0
 52 50  1  0
 53 54  1  0
 54 55  1  0
 56 58  1  0
 56 55  1  0
 57 68  2  0
 58 63  1  0
 59 67  1  0
 59 69  1  0
 60 66  1  0
 60 62  1  0
 61 67  1  0
 62 61  1  0
 63 62  2  0
 64 65  1  0
 64 58  2  0
 65 60  2  0
 66 59  1  0
 67 57  1  0
 69 71  2  0
 70 69  1  0
 72 70  1  0
 73 82  2  0
 73 78  1  0
 74 70  1  0
 74 78  1  0
 75 74  1  0
 76 77  1  0
 76 75  1  0
 77 73  1  0
 78 79  2  0
 79 80  1  0
 81 80  2  0
 82 81  1  0
 83 57  1  0
 83 88  1  0
 83 84  1  0
 84 87  1  1
 84 85  1  0
 86 84  1  0
 88 91  1  0
 89 93  1  0
 89 88  1  0
 90 89  2  0
 93 92  1  0
 95 93  1  0
 95 96  1  0
 95 94  1  0
M  ISO  4   8 100  21 100  55 101  56 101
M  END
>  <TORSDO>  (57) 
F 20

>  <SCORE>  (57) 
-10.930

>  <name>  (57) 
56

>  <ligand_id>  (57) 
56

>  <original_smiles>  (57) 
[H]c1c([H])c([H])c2c(c1[H])C([H])([H])C([H])([H])C([H])([H])C2([H])N([H])C(=O)C1([H])N(C(=O)C([H])(N([H])C(=O)C([H])(N([H])C([H])([H])[H])C([H])([H])[H])C(C([H])([H])[H])(C([H])([H])[H])C([H])([H])[H])C([H])([H])c2c([H])c(OC([H])([H])C([H])([H])Oc3c([H])c(C([H])([H])[H])c(C4([H])C([H])([H])C([H])([H])N(C(=O)N5C([H])([H])C([H])([H])C([H])([H])C([H])(n6nc(-c7c([H])c([H])c(Oc8c([H])c([H])c(F)c([H])c8F)c([H])c7[H])c(C(=O)N([H])[H])c6N([H])[H])C5([H])[H])C([H])([H])C4([H])[H])c([H])c3C([H])(C([H])([H])[H])C([H])([H])[H])c([H])c([H])c2C1([H])[H]

>  <smiles>  (57) 
[H]c1c([H])c([H])c2c(c1[H])C([H])([H])C([H])([H])C([H])([H])C2([H])N([H])C(=O)C1([H])N(C(=O)C([H])(N([H])C(=O)C([H])(N([H])C([H])([H])[H])C([H])([H])[H])C(C([H])([H])[H])(C([H])([H])[H])C([H])([H])[H])C([H])([H])c2c([H])c(OC([H])([H])C([H])([H])Oc3c([H])c(C([H])([H])[H])c(C4([H])C([H])([H])C([H])([H])N(C(=O)N5C([H])([H])C([H])([H])C([H])([H])C([H])(n6nc(-c7c([H])c([H])c(Oc8c([H])c([H])c(F)c([H])c8F)c([H])c7[H])c(C(=O)N([H])[H])c6N([H])[H])C5([H])[H])C([H])([H])C4([H])[H])c([H])c3C([H])(C([H])([H])[H])C([H])([H])[H])c([H])c([H])c2C1([H])[H]

$$$$
57:0:0
     RDKit          3D

 95104  0  0  1  0  0  0  0  0999 V2000
  -30.2280  -23.8180   18.5050 C   0  0  0  0  0  3  0  0  0  0  0  0
  -30.4380  -21.0770   18.0930 C   0  0  0  0  0  3  0  0  0  0  0  0
  -30.8640  -23.3490   17.3450 C   0  0  0  0  0  0  0  0  0  0  0  0
  -29.6670  -22.9490   19.4710 C   0  0  0  0  0  0  0  0  0  0  0  0
  -30.9440  -21.9640   17.1240 C   0  0  0  0  0  0  0  0  0  0  0  0
  -29.8070  -21.5010   19.2980 C   0  0  0  0  0  0  0  0  0  0  0  0
  -31.4490  -24.3390   16.3520 C   0  0  0  0  0  1  0  0  0  0  0  0
  -31.5830  -21.4100   15.8600 C   0  0  0  0  0  1  0  0  0  0  0  0
  -29.9580  -24.0880   21.7380 C   0  0  0  0  0  1  0  0  0  0  0  0
  -28.9600  -23.7040   20.6380 C   0  0  0  0  0  3  0  0  0  0  0  0
  -28.0020  -24.9350   20.2420 C   0  0  0  0  0  2  0  0  0  0  0  0
  -28.3510  -26.3880   20.2680 O   0  0  0  0  0  0  0  0  0  0  0  0
  -24.5920  -31.8420   23.1980 C   0  0  0  0  0  0  0  0  0  0  0  0
  -27.2610  -27.2810   20.1770 C   0  0  0  0  0  0  0  0  0  0  0  0
  -23.4230  -30.4460   21.5340 C   0  0  0  0  0  3  0  0  0  0  0  0
  -24.9010  -28.9110   20.1270 C   0  0  0  0  0  0  0  0  0  0  0  0
  -25.9670  -30.7650   21.4000 C   0  0  0  0  0  2  0  0  0  0  0  0
  -26.0620  -29.3900   20.7480 C   0  0  0  0  0  0  0  0  0  0  0  0
  -27.2460  -28.5880   20.7640 C   0  0  0  0  0  3  0  0  0  0  0  0
  -26.0750  -26.8740   19.5170 C   0  0  0  0  0  3  0  0  0  0  0  0
  -24.9120  -27.6590   19.5020 C   0  0  0  0  0  3  0  0  0  0  0  0
  -23.6630  -29.7820   20.1550 C   0  0  0  0  0  2  0  0  0  0  0  0
  -24.6790  -31.0350   22.1000 N   0  0  0  0  0  0  0  0  0  0  0  0
  -23.4980  -32.1160   23.7110 O   0  0  0  0  0  0  0  0  0  0  0  0
  -22.7450  -29.4230   22.4770 C   0  0  0  0  0  0  0  0  0  0  0  0
  -21.4190  -29.2580   22.3400 N   0  0  0  0  0  0  0  0  0  0  0  0
  -23.4130  -28.7830   23.2940 O   0  0  0  0  0  0  0  0  0  0  0  0
  -20.9390  -29.8270   21.6560 H   0  0  0  0  0  0  0  0  0  0  0  0
  -18.0190  -28.1230   22.8450 C   0  0  0  0  0  0  0  0  0  0  0  0
  -20.5860  -28.3220   23.0980 C   0  0  0  0  0  3  0  0  0  0  0  0
  -20.6510  -26.9010   22.4900 C   0  0  0  0  0  2  0  0  0  0  0  0
  -19.5330  -26.6260   21.4780 C   0  0  0  0  0  2  0  0  0  0  0  0
  -18.1610  -26.7870   22.1380 C   0  0  0  0  0  2  0  0  0  0  0  0
  -19.1580  -28.8520   23.2820 C   0  0  0  0  0  0  0  0  0  0  0  0
  -18.9710  -30.1050   23.9040 C   0  0  0  0  0  3  0  0  0  0  0  0
  -17.6790  -30.6310   24.0930 C   0  0  0  0  0  3  0  0  0  0  0  0
  -16.5550  -29.8980   23.6710 C   0  0  0  0  0  3  0  0  0  0  0  0
  -16.7260  -28.6470   23.0540 C   0  0  0  0  0  3  0  0  0  0  0  0
  -25.8620  -32.4760   23.8440 C   0  0  0  0  0  3  0  0  0  0  0  0
  -26.3550  -31.7050   25.1300 C   0  0  1  0  0  0  0  0  0  0  0  0
  -25.2420  -31.4650   26.1770 C   0  0  0  0  0  1  0  0  0  0  0  0
  -26.9490  -30.3280   24.7510 C   0  0  0  0  0  1  0  0  0  0  0  0
  -27.4910  -32.5020   25.8140 C   0  0  0  0  0  1  0  0  0  0  0  0
  -25.5430  -33.8740   24.1710 N   0  0  0  0  0  0  0  0  0  0  0  0
  -25.8790  -34.9280   23.4150 C   0  0  0  0  0  0  0  0  0  0  0  0
  -26.5590  -34.8270   22.3900 O   0  0  0  0  0  0  0  0  0  0  0  0
  -24.9370  -34.0250   24.9630 H   0  0  0  0  0  0  0  0  0  0  0  0
  -24.1480  -36.7170   23.0420 C   0  0  0  0  0  1  0  0  0  0  0  0
  -25.3800  -36.3140   23.8680 C   0  0  0  0  0  3  0  0  0  0  0  0
  -27.4990  -37.2090   24.7290 C   0  0  0  0  0  1  0  0  0  0  0  0
  -26.4110  -37.3700   23.7680 N   0  0  0  0  0  0  0  0  0  0  0  0
  -26.0000  -38.2900   23.9070 H   0  0  0  0  0  0  0  0  0  0  0  0
  -29.3770  -20.5120   20.2200 O   0  0  0  0  0  0  0  0  0  0  0  0
  -30.7870  -14.6760   20.0480 C   0  0  0  0  0  0  0  0  0  0  0  0
  -30.3490  -12.4730   18.9780 C   0  0  0  0  0  2  0  0  0  0  0  0
  -29.3600  -12.5790   17.8030 C   0  0  0  0  0  2  0  0  0  0  0  0
  -27.9200  -12.4040   18.3160 C   0  0  0  0  0  2  0  0  0  0  0  0
  -27.6190  -13.2790   19.5630 C   0  0  0  0  0  3  0  0  0  0  0  0
  -28.7440  -13.1900   20.6200 C   0  0  0  0  0  2  0  0  0  0  0  0
  -29.9950  -13.5490   19.9410 N   0  0  0  0  0  0  0  0  0  0  0  0
  -31.9720  -14.5480   19.7370 O   0  0  0  0  0  0  0  0  0  0  0  0
  -30.9990  -18.5620   20.1360 C   0  0  0  0  0  2  0  0  0  0  0  0
  -28.7710  -18.0520   20.8270 C   0  0  0  0  0  2  0  0  0  0  0  0
  -31.2430  -17.0830   19.7000 C   0  0  0  0  0  2  0  0  0  0  0  0
  -28.9360  -16.5150   20.4560 C   0  0  0  0  0  2  0  0  0  0  0  0
  -29.5560  -19.0550   19.9370 C   0  0  0  0  0  3  0  0  0  0  0  0
  -30.3050  -15.9950   20.1520 N   0  0  0  0  0  0  0  0  0  0  0  0
  -25.2720  -13.8640   20.4080 C   0  0  0  0  0  0  0  0  0  0  0  0
  -24.2230  -13.0860   20.8130 C   0  0  0  0  0  0  0  0  0  0  0  0
  -24.6850  -11.7360   20.7530 C   0  0  0  0  0  0  0  0  0  0  0  0
  -26.3060  -12.9880   20.1210 N   0  0  0  0  0  0  0  0  0  0  0  0
  -25.9620  -11.7020   20.3920 N   0  0  0  0  0  0  0  0  0  0  0  0
  -23.9670  -10.4720   20.9610 C   0  0  0  0  0  0  0  0  0  0  0  0
  -24.4150   -9.5130   21.8960 C   0  0  0  0  0  3  0  0  0  0  0  0
  -23.6970   -8.3140   22.0910 C   0  0  0  0  0  3  0  0  0  0  0  0
  -22.5160   -8.0640   21.3530 C   0  0  0  0  0  0  0  0  0  0  0  0
  -22.0870   -9.0120   20.4070 C   0  0  0  0  0  3  0  0  0  0  0  0
  -22.8050  -10.2030   20.2090 C   0  0  0  0  0  3  0  0  0  0  0  0
  -21.7670   -6.9170   21.4590 O   0  0  0  0  0  0  0  0  0  0  0  0
  -21.7130   -6.1990   22.6270 C   0  0  0  0  0  0  0  0  0  0  0  0
  -21.2480   -6.7700   23.8330 C   0  0  0  0  0  3  0  0  0  0  0  0
  -21.1420   -5.9770   24.9920 C   0  0  0  0  0  3  0  0  0  0  0  0
  -21.4920   -4.6130   24.9490 C   0  0  0  0  0  0  0  0  0  0  0  0
  -21.9500   -4.0420   23.7480 C   0  0  0  0  0  3  0  0  0  0  0  0
  -22.0580   -4.8330   22.5910 C   0  0  0  0  0  0  0  0  0  0  0  0
  -22.4790   -4.2710   21.4320 F   0  0  0  0  0  0  0  0  0  0  0  0
  -21.3830   -3.8500   26.0610 F   0  0  0  0  0  0  0  0  0  0  0  0
  -22.8380  -13.5620   21.1430 C   0  0  0  0  0  0  0  0  0  0  0  0
  -22.1440  -12.8600   22.0320 N   0  0  0  0  0  0  0  0  0  0  0  0
  -22.3810  -14.5910   20.6480 O   0  0  0  0  0  0  0  0  0  0  0  0
  -22.5260  -12.0260   22.4560 H   0  0  0  0  0  0  0  0  0  0  0  0
  -21.2160  -13.1600   22.2940 H   0  0  0  0  0  0  0  0  0  0  0  0
  -25.4280  -15.2370   20.2340 N   0  0  0  0  0  0  0  0  0  0  0  0
  -24.6660  -15.8900   20.3870 H   0  0  0  0  0  0  0  0  0  0  0  0
  -26.2650  -15.6800   19.8810 H   0  0  0  0  0  0  0  0  0  0  0  0
  1  4  1  0
  2  6  1  0
  3  1  2  0
  4 10  1  0
  5  3  1  0
  5  2  2  0
  6  4  2  0
  6 53  1  0
  7  3  1  0
  8  5  1  0
 10  9  1  0
 11 12  1  0
 11 10  1  0
 13 24  2  0
 14 12  1  0
 14 19  1  0
 15 23  1  0
 15 25  1  0
 16 22  1  0
 16 18  1  0
 17 23  1  0
 18 19  2  0
 18 17  1  0
 20 14  2  0
 21 20  1  0
 21 16  2  0
 22 15  1  0
 23 13  1  0
 25 27  2  0
 26 25  1  0
 28 26  1  0
 29 38  2  0
 29 34  1  0
 30 26  1  0
 30 34  1  0
 31 30  1  0
 32 33  1  0
 32 31  1  0
 33 29  1  0
 34 35  2  0
 35 36  1  0
 37 36  2  0
 38 37  1  0
 39 13  1  0
 39 44  1  0
 39 40  1  0
 40 43  1  1
 40 41  1  0
 42 40  1  0
 44 47  1  0
 45 49  1  0
 45 44  1  0
 46 45  2  0
 49 48  1  0
 51 49  1  0
 51 52  1  0
 51 50  1  0
 54 67  1  0
 55 60  1  0
 56 57  1  0
 56 55  1  0
 58 57  1  0
 58 71  1  0
 58 59  1  0
 60 54  1  0
 60 59  1  0
 61 54  2  0
 64 62  1  0
 64 67  1  0
 65 63  1  0
 66 62  1  0
 66 53  1  0
 66 63  1  0
 67 65  1  0
 68 69  2  0
 69 88  1  0
 70 69  1  0
 70 73  1  0
 71 72  1  0
 71 68  1  0
 72 70  2  0
 73 74  1  0
 74 75  2  0
 76 79  1  0
 76 75  1  0
 77 76  2  0
 78 77  1  0
 78 73  2  0
 79 80  1  0
 80 81  1  0
 81 82  2  0
 83 82  1  0
 83 87  1  0
 84 83  2  0
 85 80  2  0
 85 84  1  0
 86 85  1  0
 88 89  1  0
 89 92  1  0
 89 91  1  0
 90 88  2  0
 93 94  1  0
 93 68  1  0
 95 93  1  0
M  ISO  4  11 101  12 101  54 100  67 100
M  END
>  <TORSDO>  (58) 
F 19

>  <SCORE>  (58) 
-14.289

>  <name>  (58) 
57

>  <ligand_id>  (58) 
57

>  <original_smiles>  (58) 
[H]c1c([H])c([H])c2c(c1[H])C([H])([H])C([H])([H])C([H])([H])C2([H])N([H])C(=O)C1([H])N(C(=O)C([H])(N([H])C(=O)C([H])(N([H])C([H])([H])[H])C([H])([H])[H])C(C([H])([H])[H])(C([H])([H])[H])C([H])([H])[H])C([H])([H])c2c([H])c(OC([H])([H])C([H])(c3c([H])c(C([H])([H])[H])c(C([H])([H])[H])c([H])c3OC3([H])C([H])([H])C([H])([H])N(C(=O)N4C([H])([H])C([H])([H])C([H])([H])C([H])(n5nc(-c6c([H])c([H])c(Oc7c([H])c([H])c(F)c([H])c7F)c([H])c6[H])c(C(=O)N([H])[H])c5N([H])[H])C4([H])[H])C([H])([H])C3([H])[H])C([H])([H])[H])c([H])c([H])c2C1([H])[H]

>  <smiles>  (58) 
[H]c1c([H])c([H])c2c(c1[H])C([H])([H])C([H])([H])C([H])([H])C2([H])N([H])C(=O)C1([H])N(C(=O)C([H])(N([H])C(=O)C([H])(N([H])C([H])([H])[H])C([H])([H])[H])C(C([H])([H])[H])(C([H])([H])[H])C([H])([H])[H])C([H])([H])c2c([H])c(OC([H])([H])C([H])(c3c([H])c(C([H])([H])[H])c(C([H])([H])[H])c([H])c3OC3([H])C([H])([H])C([H])([H])N(C(=O)N4C([H])([H])C([H])([H])C([H])([H])C([H])(n5nc(-c6c([H])c([H])c(Oc7c([H])c([H])c(F)c([H])c7F)c([H])c6[H])c(C(=O)N([H])[H])c5N([H])[H])C4([H])[H])C([H])([H])C3([H])[H])C([H])([H])[H])c([H])c([H])c2C1([H])[H]

$$$$
58:0:0
     RDKit          3D

 95104  0  0  1  0  0  0  0  0999 V2000
  -28.0590  -21.2190   19.8180 C   0  0  0  0  0  3  0  0  0  0  0  0
  -29.7990  -23.1260   20.8500 C   0  0  0  0  0  3  0  0  0  0  0  0
  -29.2970  -20.7230   20.3200 C   0  0  0  0  0  0  0  0  0  0  0  0
  -30.1900  -21.7430   20.8010 C   0  0  0  0  0  0  0  0  0  0  0  0
  -28.5410  -23.6110   20.4080 C   0  0  0  0  0  0  0  0  0  0  0  0
  -27.6770  -22.6120   19.8560 C   0  0  0  0  0  0  0  0  0  0  0  0
  -30.7000  -14.7500   19.9490 C   0  0  0  0  0  0  0  0  0  0  0  0
  -30.3230  -12.5040   18.9290 C   0  0  0  0  0  2  0  0  0  0  0  0
  -29.3140  -12.5700   17.7680 C   0  0  0  0  0  2  0  0  0  0  0  0
  -27.8790  -12.3970   18.3000 C   0  0  0  0  0  2  0  0  0  0  0  0
  -27.5880  -13.2860   19.5400 C   0  0  0  0  0  3  0  0  0  0  0  0
  -28.7260  -13.2230   20.5830 C   0  0  0  0  0  2  0  0  0  0  0  0
  -29.9580  -13.5880   19.8760 N   0  0  0  0  0  0  0  0  0  0  0  0
  -31.8930  -14.6670   19.6370 O   0  0  0  0  0  0  0  0  0  0  0  0
  -28.5340  -18.0870   20.5810 C   0  0  0  0  0  2  0  0  0  0  0  0
  -30.4140  -18.5860   19.1710 C   0  0  0  0  0  2  0  0  0  0  0  0
  -29.0240  -16.5790   20.7920 C   0  0  0  0  0  2  0  0  0  0  0  0
  -30.9990  -17.1460   19.3990 C   0  0  0  0  0  2  0  0  0  0  0  0
  -29.6530  -19.1550   20.3820 C   0  0  0  0  0  3  0  0  0  0  0  0
  -30.1260  -16.0400   19.9300 N   0  0  0  0  0  0  0  0  0  0  0  0
  -25.2640  -13.8660   20.4490 C   0  0  0  0  0  0  0  0  0  0  0  0
  -24.2200  -13.0870   20.8660 C   0  0  0  0  0  0  0  0  0  0  0  0
  -24.6700  -11.7340   20.7670 C   0  0  0  0  0  0  0  0  0  0  0  0
  -26.2840  -12.9880   20.1210 N   0  0  0  0  0  0  0  0  0  0  0  0
  -25.9390  -11.7000   20.3760 N   0  0  0  0  0  0  0  0  0  0  0  0
  -23.9480  -10.4710   20.9680 C   0  0  0  0  0  0  0  0  0  0  0  0
  -24.4000   -9.4980   21.8850 C   0  0  0  0  0  3  0  0  0  0  0  0
  -23.6750   -8.3010   22.0740 C   0  0  0  0  0  3  0  0  0  0  0  0
  -22.4840   -8.0700   21.3450 C   0  0  0  0  0  0  0  0  0  0  0  0
  -22.0520   -9.0320   20.4150 C   0  0  0  0  0  3  0  0  0  0  0  0
  -22.7770  -10.2200   20.2250 C   0  0  0  0  0  3  0  0  0  0  0  0
  -21.7280   -6.9270   21.4450 O   0  0  0  0  0  0  0  0  0  0  0  0
  -21.6740   -6.2000   22.6070 C   0  0  0  0  0  0  0  0  0  0  0  0
  -21.2190   -6.7630   23.8180 C   0  0  0  0  0  3  0  0  0  0  0  0
  -21.1140   -5.9610   24.9730 C   0  0  0  0  0  3  0  0  0  0  0  0
  -21.4550   -4.5960   24.9150 C   0  0  0  0  0  0  0  0  0  0  0  0
  -21.9030   -4.0310   23.7080 C   0  0  0  0  0  3  0  0  0  0  0  0
  -22.0090   -4.8310   22.5570 C   0  0  0  0  0  0  0  0  0  0  0  0
  -22.4220   -4.2780   21.3910 F   0  0  0  0  0  0  0  0  0  0  0  0
  -21.3480   -3.8240   26.0220 F   0  0  0  0  0  0  0  0  0  0  0  0
  -22.8470  -13.5650   21.2390 C   0  0  0  0  0  0  0  0  0  0  0  0
  -22.1690  -12.8510   22.1290 N   0  0  0  0  0  0  0  0  0  0  0  0
  -22.3880  -14.6090   20.7750 O   0  0  0  0  0  0  0  0  0  0  0  0
  -22.5530  -12.0060   22.5260 H   0  0  0  0  0  0  0  0  0  0  0  0
  -21.2500  -13.1550   22.4180 H   0  0  0  0  0  0  0  0  0  0  0  0
  -25.4210  -15.2400   20.2940 N   0  0  0  0  0  0  0  0  0  0  0  0
  -24.6640  -15.8890   20.4770 H   0  0  0  0  0  0  0  0  0  0  0  0
  -26.2410  -15.6880   19.9090 H   0  0  0  0  0  0  0  0  0  0  0  0
  -31.5380  -21.2410   22.8740 C   0  0  0  0  0  1  0  0  0  0  0  0
  -32.7000  -22.3120   20.9000 C   0  0  0  0  0  1  0  0  0  0  0  0
  -31.5740  -21.3640   21.3430 C   0  0  0  0  0  3  0  0  0  0  0  0
  -25.5140  -22.1110   18.9060 C   0  0  0  0  0  1  0  0  0  0  0  0
  -26.4440  -23.0560   19.4220 O   0  0  0  0  0  0  0  0  0  0  0  0
  -28.0180  -25.0650   20.8150 C   0  0  0  0  0  2  0  0  0  0  0  0
  -28.3890  -26.3610   20.1570 O   0  0  0  0  0  0  0  0  0  0  0  0
  -24.6610  -31.8390   23.1360 C   0  0  0  0  0  0  0  0  0  0  0  0
  -27.3340  -27.2940   20.0910 C   0  0  0  0  0  0  0  0  0  0  0  0
  -23.4940  -30.4430   21.4700 C   0  0  0  0  0  3  0  0  0  0  0  0
  -24.9770  -28.9180   20.0470 C   0  0  0  0  0  0  0  0  0  0  0  0
  -26.0360  -30.7760   21.3260 C   0  0  0  0  0  2  0  0  0  0  0  0
  -26.1370  -29.4010   20.6690 C   0  0  0  0  0  0  0  0  0  0  0  0
  -27.3250  -28.6020   20.6820 C   0  0  0  0  0  3  0  0  0  0  0  0
  -26.1640  -26.8880   19.4200 C   0  0  0  0  0  3  0  0  0  0  0  0
  -24.9950  -27.6700   19.4080 C   0  0  0  0  0  3  0  0  0  0  0  0
  -23.7330  -29.7830   20.0870 C   0  0  0  0  0  2  0  0  0  0  0  0
  -24.7490  -31.0360   22.0350 N   0  0  0  0  0  0  0  0  0  0  0  0
  -23.5680  -32.1030   23.6570 O   0  0  0  0  0  0  0  0  0  0  0  0
  -22.8260  -29.4130   22.4140 C   0  0  0  0  0  0  0  0  0  0  0  0
  -21.4950  -29.2610   22.3020 N   0  0  0  0  0  0  0  0  0  0  0  0
  -23.5050  -28.7560   23.2080 O   0  0  0  0  0  0  0  0  0  0  0  0
  -21.0080  -29.8430   21.6360 H   0  0  0  0  0  0  0  0  0  0  0  0
  -18.0970  -28.1380   22.8540 C   0  0  0  0  0  0  0  0  0  0  0  0
  -20.6690  -28.3180   23.0610 C   0  0  0  0  0  3  0  0  0  0  0  0
  -20.7140  -26.9070   22.4320 C   0  0  0  0  0  2  0  0  0  0  0  0
  -19.5780  -26.6510   21.4380 C   0  0  0  0  0  2  0  0  0  0  0  0
  -18.2190  -26.8090   22.1250 C   0  0  0  0  0  2  0  0  0  0  0  0
  -19.2490  -28.8540   23.2780 C   0  0  0  0  0  0  0  0  0  0  0  0
  -19.0810  -30.0990   23.9210 C   0  0  0  0  0  3  0  0  0  0  0  0
  -17.7960  -30.6290   24.1420 C   0  0  0  0  0  3  0  0  0  0  0  0
  -16.6600  -29.9090   23.7330 C   0  0  0  0  0  3  0  0  0  0  0  0
  -16.8120  -28.6660   23.0950 C   0  0  0  0  0  3  0  0  0  0  0  0
  -25.9290  -32.4810   23.7790 C   0  0  0  0  0  3  0  0  0  0  0  0
  -26.4450  -31.6950   25.0470 C   0  0  1  0  0  0  0  0  0  0  0  0
  -25.3480  -31.4230   26.1020 C   0  0  0  0  0  1  0  0  0  0  0  0
  -27.0480  -30.3310   24.6380 C   0  0  0  0  0  1  0  0  0  0  0  0
  -27.5820  -32.4900   25.7300 C   0  0  0  0  0  1  0  0  0  0  0  0
  -25.5960  -33.8690   24.1330 N   0  0  0  0  0  0  0  0  0  0  0  0
  -25.9120  -34.9400   23.3920 C   0  0  0  0  0  0  0  0  0  0  0  0
  -26.5830  -34.8650   22.3580 O   0  0  0  0  0  0  0  0  0  0  0  0
  -25.0010  -34.0000   24.9370 H   0  0  0  0  0  0  0  0  0  0  0  0
  -24.1560  -36.7120   23.0670 C   0  0  0  0  0  1  0  0  0  0  0  0
  -25.4030  -36.3140   23.8710 C   0  0  0  0  0  3  0  0  0  0  0  0
  -27.5210  -37.2210   24.7220 C   0  0  0  0  0  1  0  0  0  0  0  0
  -26.4200  -37.3840   23.7760 N   0  0  0  0  0  0  0  0  0  0  0  0
  -26.0000  -38.2960   23.9310 H   0  0  0  0  0  0  0  0  0  0  0  0
  1  6  2  0
  1  3  1  0
  3  4  2  0
  4  2  1  0
  4 51  1  0
  5 54  1  0
  5  2  2  0
  6  5  1  0
  8 13  1  0
  9 10  1  0
  9  8  1  0
 11 10  1  0
 11 24  1  0
 11 12  1  0
 13  7  1  0
 13 12  1  0
 14  7  2  0
 15 17  1  0
 16 18  1  0
 16 19  1  0
 18 20  1  0
 19  3  1  0
 19 15  1  0
 20  7  1  0
 20 17  1  0
 21 22  2  0
 22 41  1  0
 23 22  1  0
 23 26  1  0
 24 25  1  0
 24 21  1  0
 25 23  2  0
 26 27  1  0
 27 28  2  0
 29 32  1  0
 29 28  1  0
 30 29  2  0
 31 30  1  0
 31 26  2  0
 32 33  1  0
 33 34  1  0
 34 35  2  0
 36 35  1  0
 36 40  1  0
 37 36  2  0
 38 33  2  0
 38 37  1  0
 39 38  1  0
 41 42  1  0
 42 45  1  0
 42 44  1  0
 43 41  2  0
 46 21  1  0
 46 47  1  0
 48 46  1  0
 50 51  1  0
 51 49  1  0
 52 53  1  0
 53  6  1  0
 55 54  1  0
 56 67  2  0
 57 55  1  0
 57 62  1  0
 58 66  1  0
 58 68  1  0
 59 65  1  0
 59 61  1  0
 60 66  1  0
 61 62  2  0
 61 60  1  0
 63 57  2  0
 64 63  1  0
 64 59  2  0
 65 58  1  0
 66 56  1  0
 68 70  2  0
 69 68  1  0
 71 69  1  0
 72 81  2  0
 72 77  1  0
 73 69  1  0
 73 77  1  0
 74 73  1  0
 75 76  1  0
 75 74  1  0
 76 72  1  0
 77 78  2  0
 78 79  1  0
 80 79  2  0
 81 80  1  0
 82 56  1  0
 82 87  1  0
 82 83  1  0
 83 86  1  1
 83 84  1  0
 85 83  1  0
 87 90  1  0
 88 92  1  0
 88 87  1  0
 89 88  2  0
 92 91  1  0
 94 92  1  0
 94 95  1  0
 94 93  1  0
M  ISO  4   7 100  20 100  54 101  55 101
M  END
>  <TORSDO>  (59) 
F 19

>  <SCORE>  (59) 
-14.383

>  <name>  (59) 
58

>  <ligand_id>  (59) 
58

>  <original_smiles>  (59) 
[H]c1c([H])c([H])c2c(c1[H])C([H])([H])C([H])([H])C([H])([H])C2([H])N([H])C(=O)C1([H])N(C(=O)C([H])(N([H])C(=O)C([H])(N([H])C([H])([H])[H])C([H])([H])[H])C(C([H])([H])[H])(C([H])([H])[H])C([H])([H])[H])C([H])([H])c2c([H])c(OC([H])([H])c3c([H])c(C([H])(C([H])([H])[H])C([H])([H])[H])c(C4([H])C([H])([H])C([H])([H])N(C(=O)N5C([H])([H])C([H])([H])C([H])([H])C([H])(n6nc(-c7c([H])c([H])c(Oc8c([H])c([H])c(F)c([H])c8F)c([H])c7[H])c(C(=O)N([H])[H])c6N([H])[H])C5([H])[H])C([H])([H])C4([H])[H])c([H])c3OC([H])([H])[H])c([H])c([H])c2C1([H])[H]

>  <smiles>  (59) 
[H]c1c([H])c([H])c2c(c1[H])C([H])([H])C([H])([H])C([H])([H])C2([H])N([H])C(=O)C1([H])N(C(=O)C([H])(N([H])C(=O)C([H])(N([H])C([H])([H])[H])C([H])([H])[H])C(C([H])([H])[H])(C([H])([H])[H])C([H])([H])[H])C([H])([H])c2c([H])c(OC([H])([H])c3c([H])c(C([H])(C([H])([H])[H])C([H])([H])[H])c(C4([H])C([H])([H])C([H])([H])N(C(=O)N5C([H])([H])C([H])([H])C([H])([H])C([H])(n6nc(-c7c([H])c([H])c(Oc8c([H])c([H])c(F)c([H])c8F)c([H])c7[H])c(C(=O)N([H])[H])c6N([H])[H])C5([H])[H])C([H])([H])C4([H])[H])c([H])c3OC([H])([H])[H])c([H])c([H])c2C1([H])[H]

$$$$
59:0:0
     RDKit          3D

101105  0  0  1  0  0  0  0  0999 V2000
  -24.1700  -26.5780   25.0530 C   0  0  0  0  0  3  0  0  0  0  0  0
  -24.1260  -25.3970   22.9700 C   0  0  0  0  0  3  0  0  0  0  0  0
  -25.9740  -24.8390   24.2650 C   0  0  0  0  0  3  0  0  0  0  0  0
  -23.3390  -26.6220   23.9480 C   0  0  0  0  0  3  0  0  0  0  0  0
  -25.3630  -25.7770   25.2230 C   0  0  0  0  0  0  0  0  0  0  0  0
  -25.5560  -24.3990   22.9650 C   0  0  0  0  0  0  0  0  0  0  0  0
  -20.1780  -28.7440   22.9690 C   0  0  0  0  0  2  0  0  0  0  0  0
  -21.3020  -29.6600   23.2050 C   0  0  0  0  0  3  0  0  0  0  0  0
  -21.7940  -28.2340   24.0710 C   0  0  0  0  0  1  0  0  0  0  0  0
  -20.4520  -29.1250   21.6820 N   0  0  1  0  0  4  0  0  0  0  0  0
  -19.6030  -29.6580   21.4450 H   0  0  0  0  0  0  0  0  0  0  0  0
  -19.7370  -27.1140   19.6530 C   0  0  0  0  0  1  0  0  0  0  0  0
  -20.8250  -28.1190   20.1390 C   0  0  0  0  0  2  0  0  0  0  0  0
  -22.4930  -27.2040   19.4910 C   0  0  0  0  0  1  0  0  0  0  0  0
  -24.2530  -27.4640   19.3510 O   0  0  0  0  0  0  0  0  0  0  0  0
  -25.2000  -31.3020   23.2850 C   0  0  0  0  0  0  0  0  0  0  0  0
  -25.1000  -28.1210   18.4320 C   0  0  0  0  0  3  0  0  0  0  0  0
  -23.7510  -29.8040   21.8370 C   0  0  0  0  0  3  0  0  0  0  0  0
  -23.8200  -30.1060   19.4340 C   0  0  0  0  0  3  0  0  0  0  0  0
  -25.7090  -30.8610   20.9060 C   0  0  0  0  0  2  0  0  0  0  0  0
  -25.1770  -30.0770   19.7110 C   0  0  0  0  0  3  0  0  0  0  0  0
  -25.9150  -29.1060   19.0320 C   0  0  0  0  0  2  0  0  0  0  0  0
  -24.1460  -28.5620   17.5800 C   0  0  0  0  0  2  0  0  0  0  0  0
  -23.3350  -29.5210   18.2360 C   0  0  0  0  0  2  0  0  0  0  0  0
  -23.0710  -30.5300   20.6150 C   0  0  0  0  0  2  0  0  0  0  0  0
  -24.9510  -30.6020   22.1300 N   0  0  0  0  0  0  0  0  0  0  0  0
  -24.3940  -31.3800   24.2290 O   0  0  0  0  0  0  0  0  0  0  0  0
  -23.9360  -28.0230   22.0000 C   0  0  0  0  0  0  0  0  0  0  0  0
  -22.9290  -26.7890   21.7120 N   0  0  0  0  0  0  0  0  0  0  0  0
  -24.8520  -27.8780   22.7930 O   0  0  0  0  0  0  0  0  0  0  0  0
  -23.6480  -26.0840   21.8220 H   0  0  0  0  0  0  0  0  0  0  0  0
  -18.8790  -24.8780   21.9520 C   0  0  0  0  0  0  0  0  0  0  0  0
  -21.5510  -25.6980   22.3070 C   0  0  0  0  0  3  0  0  0  0  0  0
  -21.8850  -24.4810   21.6350 C   0  0  0  0  0  2  0  0  0  0  0  0
  -20.8010  -24.1190   20.6500 C   0  0  0  0  0  2  0  0  0  0  0  0
  -19.5200  -23.6940   21.3040 C   0  0  0  0  0  2  0  0  0  0  0  0
  -19.7450  -25.7740   22.6160 C   0  0  0  0  0  0  0  0  0  0  0  0
  -18.8900  -26.7810   23.3000 C   0  0  0  0  0  3  0  0  0  0  0  0
  -17.5280  -27.1020   22.9530 C   0  0  0  0  0  3  0  0  0  0  0  0
  -16.7900  -26.1730   22.2360 C   0  0  0  0  0  3  0  0  0  0  0  0
  -17.4720  -25.0150   21.8440 C   0  0  0  0  0  3  0  0  0  0  0  0
  -26.6100  -31.9300   23.4800 C   0  0  0  0  0  3  0  0  0  0  0  0
  -26.4570  -33.2430   24.1370 N   0  0  0  0  0  0  0  0  0  0  0  0
  -26.3250  -34.3930   23.4670 C   0  0  0  0  0  0  0  0  0  0  0  0
  -26.4620  -34.4740   22.2380 O   0  0  0  0  0  0  0  0  0  0  0  0
  -26.3720  -33.2530   25.1480 H   0  0  0  0  0  0  0  0  0  0  0  0
  -24.5320  -36.0720   24.0540 C   0  0  0  0  0  1  0  0  0  0  0  0
  -25.9890  -35.6380   24.3120 C   0  0  0  0  0  3  0  0  0  0  0  0
  -28.2750  -36.4940   24.5280 C   0  0  0  0  0  1  0  0  0  0  0  0
  -26.9080  -36.7700   24.0840 N   0  0  0  0  0  0  0  0  0  0  0  0
  -26.5940  -37.6080   24.5700 H   0  0  0  0  0  0  0  0  0  0  0  0
  -27.6090  -31.0270   24.3200 C   0  0  1  0  0  0  0  0  0  0  0  0
  -27.0200  -30.5200   25.6440 C   0  0  0  0  0  1  0  0  0  0  0  0
  -28.0910  -29.7650   23.5680 C   0  0  0  0  0  1  0  0  0  0  0  0
  -28.9090  -31.8190   24.6240 C   0  0  0  0  0  1  0  0  0  0  0  0
  -25.4660  -27.0810   27.5090 C   0  0  0  0  0  1  0  0  0  0  0  0
  -27.5480  -26.2140   26.4240 C   0  0  0  0  0  1  0  0  0  0  0  0
  -26.0440  -25.9720   26.5940 C   0  0  0  0  0  3  0  0  0  0  0  0
  -26.7540  -23.2420   22.2620 N   0  0  0  0  0  2  0  0  0  0  0  0
  -27.5280  -23.4300   22.8920 H   0  0  0  0  0  0  0  0  0  0  0  0
  -27.5740  -21.7670   21.2590 C   0  0  0  0  0 15  0  0  0  0  0  0
  -30.1590  -20.8460   22.2120 C   0  0  0  0  0  1  0  0  0  0  0  0
  -29.2880  -20.3430   21.0470 C   0  0  0  0  0  1  0  0  0  0  0  0
  -31.0820  -17.1080   20.7190 C   0  0  0  0  0  0  0  0  0  0  0  0
  -31.9130  -14.4140   20.1810 C   0  0  0  0  0  2  0  0  0  0  0  0
  -31.4040  -13.4950   18.9880 C   0  0  0  0  0  2  0  0  0  0  0  0
  -29.9730  -13.0090   19.2040 C   0  0  0  0  0  2  0  0  0  0  0  0
  -29.1960  -14.1360   19.9080 C   0  0  0  0  0  3  0  0  0  0  0  0
  -29.8560  -14.7640   21.1550 C   0  0  0  0  0  2  0  0  0  0  0  0
  -30.9450  -15.5930   20.6630 N   0  0  0  0  0  0  0  0  0  0  0  0
  -32.3570  -17.1340   20.6130 O   0  0  0  0  0  0  0  0  0  0  0  0
  -30.0040  -18.4550   20.7710 N   0  0  0  0  0  2  0  0  0  0  0  0
  -30.8140  -18.8970   20.3710 H   0  0  0  0  0  0  0  0  0  0  0  0
  -26.8120  -14.7260   20.3110 C   0  0  0  0  0  0  0  0  0  0  0  0
  -25.7050  -13.9880   20.5880 C   0  0  0  0  0  0  0  0  0  0  0  0
  -26.1400  -12.6300   20.6670 C   0  0  0  0  0  0  0  0  0  0  0  0
  -27.8350  -13.8150   20.2100 N   0  0  0  0  0  0  0  0  0  0  0  0
  -27.4540  -12.5470   20.5010 N   0  0  0  0  0  0  0  0  0  0  0  0
  -25.3680  -11.3970   20.8320 C   0  0  0  0  0  0  0  0  0  0  0  0
  -25.6610  -10.4620   21.8520 C   0  0  0  0  0  3  0  0  0  0  0  0
  -24.8780   -9.2960   21.9980 C   0  0  0  0  0  3  0  0  0  0  0  0
  -23.7930   -9.0560   21.1200 C   0  0  0  0  0  0  0  0  0  0  0  0
  -23.5270   -9.9740   20.0910 C   0  0  0  0  0  3  0  0  0  0  0  0
  -24.3100  -11.1300   19.9420 C   0  0  0  0  0  3  0  0  0  0  0  0
  -22.9970   -7.9350   21.1660 O   0  0  0  0  0  0  0  0  0  0  0  0
  -22.4700   -7.4800   22.3480 C   0  0  0  0  0  0  0  0  0  0  0  0
  -21.7440   -8.3250   23.2170 C   0  0  0  0  0  3  0  0  0  0  0  0
  -21.1590   -7.7970   24.3850 C   0  0  0  0  0  3  0  0  0  0  0  0
  -21.2930   -6.4270   24.6830 C   0  0  0  0  0  0  0  0  0  0  0  0
  -22.0080   -5.5830   23.8140 C   0  0  0  0  0  3  0  0  0  0  0  0
  -22.5920   -6.1090   22.6490 C   0  0  0  0  0  0  0  0  0  0  0  0
  -23.2660   -5.2910   21.8050 F   0  0  0  0  0  0  0  0  0  0  0  0
  -20.7230   -5.9150   25.7980 F   0  0  0  0  0  0  0  0  0  0  0  0
  -24.3070  -14.5140   20.6700 C   0  0  0  0  0  0  0  0  0  0  0  0
  -23.4940  -13.9400   21.5510 N   0  0  0  0  0  0  0  0  0  0  0  0
  -23.9510  -15.4780   19.9930 O   0  0  0  0  0  0  0  0  0  0  0  0
  -23.8010  -13.1550   22.1070 H   0  0  0  0  0  0  0  0  0  0  0  0
  -22.5530  -14.2890   21.6660 H   0  0  0  0  0  0  0  0  0  0  0  0
  -27.0420  -16.0850   20.1160 N   0  0  0  0  0  0  0  0  0  0  0  0
  -26.3050  -16.7790   20.1010 H   0  0  0  0  0  0  0  0  0  0  0  0
  -27.9490  -16.4700   19.8890 H   0  0  0  0  0  0  0  0  0  0  0  0
  1  5  1  0
  2  4  1  0
  3  5  2  0
  4  1  2  0
  5 58  1  0
  6  2  2  0
  6  3  1  0
  7  8  1  0
  8  9  1  0
 10  7  1  0
 10  8  1  0
 10 11  1  6
 12 13  1  0
 13 10  1  0
 15 14  1  0
 16 27  2  0
 17 22  1  0
 17 15  1  0
 18 28  1  0
 18 26  1  0
 19 24  1  0
 19 21  1  0
 19 25  1  0
 20 26  1  0
 21 22  1  0
 21 20  1  0
 23 24  1  0
 23 17  1  0
 25 18  1  0
 26 16  1  0
 28 30  2  0
 29 31  1  0
 29 28  1  0
 32 37  1  0
 33 29  1  0
 33 37  1  0
 34 33  1  0
 35 36  1  0
 35 34  1  0
 36 32  1  0
 37 38  2  0
 39 38  1  0
 40 39  2  0
 41 32  2  0
 41 40  1  0
 42 16  1  0
 42 43  1  0
 42 52  1  0
 43 46  1  0
 44 43  1  0
 44 48  1  0
 45 44  2  0
 48 47  1  0
 50 48  1  0
 50 49  1  0
 50 51  1  0
 52 55  1  1
 52 53  1  0
 54 52  1  0
 57 58  1  0
 58 56  1  0
 59 60  1  0
 59  6  1  0
 63 62  1  0
 64 72  1  0
 65 70  1  0
 66 67  1  0
 66 65  1  0
 68 67  1  0
 68 77  1  0
 68 69  1  0
 70 64  1  0
 70 69  1  0
 71 64  2  0
 73 72  1  0
 74 75  2  0
 75 76  1  0
 75 94  1  0
 76 79  1  0
 77 74  1  0
 77 78  1  0
 78 76  2  0
 79 80  1  0
 80 81  2  0
 82 85  1  0
 82 81  1  0
 83 82  2  0
 84 83  1  0
 84 79  2  0
 85 86  1  0
 86 91  2  0
 86 87  1  0
 87 88  2  0
 88 89  1  0
 89 93  1  0
 90 89  2  0
 91 90  1  0
 92 91  1  0
 94 95  1  0
 95 98  1  0
 95 97  1  0
 96 94  2  0
 99 74  1  0
100 99  1  0
101 99  1  0
M  ISO  4  14 101  15 101  64 100  72 100
M  END
>  <TORSDO>  (60) 
F 23

>  <SCORE>  (60) 
-8.183

>  <name>  (60) 
59

>  <ligand_id>  (60) 
59

>  <original_smiles>  (60) 
[H]c1c([H])c([H])c2c(c1[H])C([H])([H])C([H])([H])C([H])([H])C2([H])N([H])C(=O)C1([H])N(C(=O)C([H])(N([H])C(=O)C([H])(N([H])C([H])([H])[H])C([H])([H])[H])C(C([H])([H])[H])(C([H])([H])[H])C([H])([H])[H])C([H])([H])c2c([H])c(OC([H])([H])C([H])(C([H])([H])[H])[N+]3([H])C([H])([H])C([H])(c4c([H])c(N([H])C([H])([H])C([H])(N([H])C(=O)N5C([H])([H])C([H])([H])C([H])([H])C([H])(n6nc(-c7c([H])c([H])c(Oc8c([H])c([H])c(F)c([H])c8F)c([H])c7[H])c(C(=O)N([H])[H])c6N([H])[H])C5([H])[H])C([H])([H])[H])c([H])c(C([H])(C([H])([H])[H])C([H])([H])[H])c4[H])C3([H])[H])c([H])c([H])c2C1([H])[H]

>  <smiles>  (60) 
[H]c1c([H])c([H])c2c(c1[H])C([H])([H])C([H])([H])C([H])([H])C2([H])N([H])C(=O)C1([H])N(C(=O)C([H])(N([H])C(=O)C([H])(N([H])C([H])([H])[H])C([H])([H])[H])C(C([H])([H])[H])(C([H])([H])[H])C([H])([H])[H])C([H])([H])c2c([H])c(OC([H])([H])C([H])(C([H])([H])[H])[N+]3([H])C([H])([H])C([H])(c4c([H])c(N([H])C([H])([H])C([H])(N([H])C(=O)N5C([H])([H])C([H])([H])C([H])([H])C([H])(n6nc(-c7c([H])c([H])c(Oc8c([H])c([H])c(F)c([H])c8F)c([H])c7[H])c(C(=O)N([H])[H])c6N([H])[H])C5([H])[H])C([H])([H])[H])c([H])c(C([H])(C([H])([H])[H])C([H])([H])[H])c4[H])C3([H])[H])c([H])c([H])c2C1([H])[H]

$$$$
60:0:0
     RDKit          3D

104114  0  0  1  0  0  0  0  0999 V2000
  -32.0270  -22.9650   20.2800 C   0  0  0  0  0  2  0  0  0  0  0  0
  -29.6990  -21.9030   20.3680 C   0  0  0  0  0  2  0  0  0  0  0  0
  -31.7990  -23.2110   18.7710 C   0  0  0  0  0  2  0  0  0  0  0  0
  -29.5630  -22.2130   18.8710 C   0  0  0  0  0  2  0  0  0  0  0  0
  -31.1700  -21.8020   20.8430 C   0  0  0  0  0  3  0  0  0  0  0  0
  -30.3510  -23.4280   18.5870 N   0  0  2  0  0  4  0  0  0  0  0  0
  -30.1230  -24.0360   19.3600 H   0  0  0  0  0  0  0  0  0  0  0  0
  -29.8830  -24.2580   17.4550 C   0  0  0  0  0  2  0  0  0  0  0  0
  -29.4390  -25.6470   18.0010 C   0  0  0  0  0  3  0  0  0  0  0  0
  -28.7780  -26.3680   16.9660 O   0  0  0  0  0  0  0  0  0  0  0  0
  -28.1070  -25.8200   16.5700 H   0  0  0  0  0  0  0  0  0  0  0  0
  -28.5360  -25.5450   19.2740 C   0  0  0  0  0  2  0  0  0  0  0  0
  -28.4250  -26.7860   19.9760 O   0  0  0  0  0  0  0  0  0  0  0  0
  -24.6140  -31.8730   23.2190 C   0  0  0  0  0  0  0  0  0  0  0  0
  -27.2200  -27.4610   20.0230 C   0  0  0  0  0  0  0  0  0  0  0  0
  -23.3930  -30.5040   21.5610 C   0  0  0  0  0  3  0  0  0  0  0  0
  -24.8310  -28.9760   20.1170 C   0  0  0  0  0  0  0  0  0  0  0  0
  -25.9270  -30.8300   21.3780 C   0  0  0  0  0  2  0  0  0  0  0  0
  -25.9950  -29.4720   20.7140 C   0  0  0  0  0  0  0  0  0  0  0  0
  -27.1880  -28.7150   20.6760 C   0  0  0  0  0  3  0  0  0  0  0  0
  -26.0260  -26.9750   19.4390 C   0  0  0  0  0  3  0  0  0  0  0  0
  -24.8410  -27.7250   19.4890 C   0  0  0  0  0  3  0  0  0  0  0  0
  -23.5970  -29.8480   20.1720 C   0  0  0  0  0  2  0  0  0  0  0  0
  -24.6610  -31.0840   22.1080 N   0  0  0  0  0  0  0  0  0  0  0  0
  -23.5350  -32.1540   23.7600 O   0  0  0  0  0  0  0  0  0  0  0  0
  -22.7350  -29.4700   22.5040 C   0  0  0  0  0  0  0  0  0  0  0  0
  -21.4080  -29.3030   22.3750 N   0  0  0  0  0  0  0  0  0  0  0  0
  -23.4150  -28.8260   23.3080 O   0  0  0  0  0  0  0  0  0  0  0  0
  -20.9190  -29.8660   21.6920 H   0  0  0  0  0  0  0  0  0  0  0  0
  -18.0260  -28.1400   22.8500 C   0  0  0  0  0  0  0  0  0  0  0  0
  -20.5850  -28.3680   23.1370 C   0  0  0  0  0  3  0  0  0  0  0  0
  -20.6770  -26.9430   22.5430 C   0  0  0  0  0  2  0  0  0  0  0  0
  -19.5750  -26.6400   21.5230 C   0  0  0  0  0  2  0  0  0  0  0  0
  -18.1910  -26.7940   22.1630 C   0  0  0  0  0  2  0  0  0  0  0  0
  -19.1510  -28.8860   23.2920 C   0  0  0  0  0  0  0  0  0  0  0  0
  -18.9420  -30.1480   23.8920 C   0  0  0  0  0  3  0  0  0  0  0  0
  -17.6410  -30.6610   24.0590 C   0  0  0  0  0  3  0  0  0  0  0  0
  -16.5320  -29.9110   23.6370 C   0  0  0  0  0  3  0  0  0  0  0  0
  -16.7240  -28.6540   23.0350 C   0  0  0  0  0  3  0  0  0  0  0  0
  -25.9090  -32.4800   23.8430 C   0  0  0  0  0  3  0  0  0  0  0  0
  -25.6030  -33.8610   24.2350 N   0  0  0  0  0  0  0  0  0  0  0  0
  -25.9040  -34.9450   23.5080 C   0  0  0  0  0  0  0  0  0  0  0  0
  -26.5530  -34.8880   22.4590 O   0  0  0  0  0  0  0  0  0  0  0  0
  -25.0400  -33.9790   25.0650 H   0  0  0  0  0  0  0  0  0  0  0  0
  -24.1490  -36.7290   23.2610 C   0  0  0  0  0  1  0  0  0  0  0  0
  -25.4110  -36.3070   24.0310 C   0  0  0  0  0  3  0  0  0  0  0  0
  -27.5560  -37.1780   24.8450 C   0  0  0  0  0  1  0  0  0  0  0  0
  -26.4280  -37.3760   23.9400 N   0  0  0  0  0  0  0  0  0  0  0  0
  -26.0140  -38.2810   24.1460 H   0  0  0  0  0  0  0  0  0  0  0  0
  -26.4480  -31.6590   25.0780 C   0  0  1  0  0  0  0  0  0  0  0  0
  -25.3740  -31.3780   26.1540 C   0  0  0  0  0  1  0  0  0  0  0  0
  -27.0180  -30.2950   24.6250 C   0  0  0  0  0  1  0  0  0  0  0  0
  -27.6120  -32.4270   25.7500 C   0  0  0  0  0  1  0  0  0  0  0  0
  -31.2220  -21.9390   22.2670 O   0  0  0  0  0  0  0  0  0  0  0  0
  -30.3280  -19.7260   22.8210 C   0  0  0  0  0  3  0  0  0  0  0  0
  -29.4290  -18.9560   23.5940 C   0  0  0  0  0  0  0  0  0  0  0  0
  -30.4100  -21.1230   23.0230 C   0  0  0  0  0  0  0  0  0  0  0  0
  -28.6800  -19.6230   24.5960 C   0  0  0  0  0  0  0  0  0  0  0  0
  -29.5820  -21.6880   24.0150 C   0  0  0  0  0  0  0  0  0  0  0  0
  -27.7260  -18.9070   25.5390 C   0  0  0  0  0  1  0  0  0  0  0  0
  -29.5030  -23.1880   24.2140 C   0  0  0  0  0  1  0  0  0  0  0  0
  -28.7610  -20.9550   24.7940 N   0  0  0  0  0  0  0  0  0  0  0  0
  -30.7420  -14.3760   20.6620 C   0  0  0  0  0  0  0  0  0  0  0  0
  -30.4200  -12.2790   19.3930 C   0  0  0  0  0  2  0  0  0  0  0  0
  -29.4840  -12.5130   18.1890 C   0  0  0  0  0  2  0  0  0  0  0  0
  -28.0080  -12.3630   18.6110 C   0  0  0  0  0  2  0  0  0  0  0  0
  -27.6650  -13.1950   19.8730 C   0  0  0  0  0  3  0  0  0  0  0  0
  -28.7020  -12.9310   20.9870 C   0  0  0  0  0  2  0  0  0  0  0  0
  -30.0460  -13.2270   20.4540 N   0  0  0  0  0  0  0  0  0  0  0  0
  -31.7800  -14.6630   20.0600 O   0  0  0  0  0  0  0  0  0  0  0  0
  -28.7220  -17.2590   21.8350 C   0  0  0  0  0  2  0  0  0  0  0  0
  -30.5230  -16.6390   23.5480 C   0  0  0  0  0  2  0  0  0  0  0  0
  -29.7320  -16.5580   20.9150 C   0  0  0  0  0  2  0  0  0  0  0  0
  -30.4180  -15.2310   22.9270 C   0  0  0  0  0  2  0  0  0  0  0  0
  -29.2520  -17.4700   23.2750 C   0  0  0  0  0  3  0  0  0  0  0  0
  -30.1430  -15.2650   21.4790 N   0  0  0  0  0  0  0  0  0  0  0  0
  -25.2620  -13.8160   20.5700 C   0  0  0  0  0  0  0  0  0  0  0  0
  -24.1850  -13.0430   20.9180 C   0  0  0  0  0  0  0  0  0  0  0  0
  -24.6400  -11.6910   20.8700 C   0  0  0  0  0  0  0  0  0  0  0  0
  -26.3040  -12.9310   20.3360 N   0  0  0  0  0  0  0  0  0  0  0  0
  -25.9310  -11.6470   20.5730 N   0  0  0  0  0  0  0  0  0  0  0  0
  -23.9070  -10.4290   21.0370 C   0  0  0  0  0  0  0  0  0  0  0  0
  -24.3620   -9.4230   21.9160 C   0  0  0  0  0  3  0  0  0  0  0  0
  -23.6300   -8.2260   22.0740 C   0  0  0  0  0  3  0  0  0  0  0  0
  -22.4260   -8.0290   21.3560 C   0  0  0  0  0  0  0  0  0  0  0  0
  -21.9910   -9.0250   20.4650 C   0  0  0  0  0  3  0  0  0  0  0  0
  -22.7240  -10.2150   20.3040 C   0  0  0  0  0  3  0  0  0  0  0  0
  -21.6630   -6.8890   21.4250 O   0  0  0  0  0  0  0  0  0  0  0  0
  -21.6840   -6.0770   22.5290 C   0  0  0  0  0  0  0  0  0  0  0  0
  -21.4010   -6.5660   23.8230 C   0  0  0  0  0  3  0  0  0  0  0  0
  -21.3660   -5.6820   24.9190 C   0  0  0  0  0  3  0  0  0  0  0  0
  -21.6040   -4.3080   24.7240 C   0  0  0  0  0  0  0  0  0  0  0  0
  -21.8810   -3.8180   23.4360 C   0  0  0  0  0  3  0  0  0  0  0  0
  -21.9190   -4.7000   22.3420 C   0  0  0  0  0  0  0  0  0  0  0  0
  -22.1660   -4.2180   21.1000 F   0  0  0  0  0  0  0  0  0  0  0  0
  -21.5620   -3.4540   25.7750 F   0  0  0  0  0  0  0  0  0  0  0  0
  -22.7900  -13.5270   21.1860 C   0  0  0  0  0  0  0  0  0  0  0  0
  -22.0540  -12.8220   22.0410 N   0  0  0  0  0  0  0  0  0  0  0  0
  -22.3590  -14.5590   20.6760 O   0  0  0  0  0  0  0  0  0  0  0  0
  -22.4140  -11.9850   22.4720 H   0  0  0  0  0  0  0  0  0  0  0  0
  -21.1200  -13.1290   22.2680 H   0  0  0  0  0  0  0  0  0  0  0  0
  -25.4360  -15.1880   20.4170 N   0  0  0  0  0  0  0  0  0  0  0  0
  -24.6670  -15.8410   20.5160 H   0  0  0  0  0  0  0  0  0  0  0  0
  -26.3030  -15.6260   20.1280 H   0  0  0  0  0  0  0  0  0  0  0  0
  1  5  1  0
  2  5  1  0
  3  1  1  0
  4  2  1  0
  5 54  1  0
  6  3  1  0
  6  4  1  0
  6  7  1  1
  8  6  1  0
  9  8  1  0
  9 12  1  0
 10  9  1  0
 11 10  1  0
 12 13  1  0
 13 15  1  0
 14 25  2  0
 15 20  1  0
 16 24  1  0
 16 26  1  0
 17 23  1  0
 17 19  1  0
 18 24  1  0
 19 18  1  0
 20 19  2  0
 21 22  1  0
 21 15  2  0
 22 17  2  0
 23 16  1  0
 24 14  1  0
 26 28  2  0
 27 26  1  0
 29 27  1  0
 30 39  2  0
 30 35  1  0
 31 27  1  0
 31 35  1  0
 32 31  1  0
 33 34  1  0
 33 32  1  0
 34 30  1  0
 35 36  2  0
 36 37  1  0
 38 37  2  0
 39 38  1  0
 40 14  1  0
 40 41  1  0
 40 50  1  0
 41 44  1  0
 42 46  1  0
 42 41  1  0
 43 42  2  0
 46 45  1  0
 48 46  1  0
 48 49  1  0
 48 47  1  0
 50 53  1  1
 50 51  1  0
 52 50  1  0
 54 57  1  0
 55 57  2  0
 55 56  1  0
 56 58  2  0
 57 59  1  0
 58 62  1  0
 58 60  1  0
 59 61  1  0
 59 62  2  0
 63 76  1  0
 64 69  1  0
 65 66  1  0
 65 64  1  0
 67 66  1  0
 67 80  1  0
 67 68  1  0
 69 63  1  0
 69 68  1  0
 70 63  2  0
 71 75  1  0
 73 76  1  0
 73 71  1  0
 74 72  1  0
 75 72  1  0
 75 56  1  0
 76 74  1  0
 77 78  2  0
 78 97  1  0
 79 78  1  0
 79 82  1  0
 80 77  1  0
 80 81  1  0
 81 79  2  0
 82 83  1  0
 83 84  2  0
 85 88  1  0
 85 84  1  0
 86 85  2  0
 87 86  1  0
 87 82  2  0
 88 89  1  0
 89 90  1  0
 90 91  2  0
 92 91  1  0
 92 96  1  0
 93 92  2  0
 94 89  2  0
 94 93  1  0
 95 94  1  0
 97 98  1  0
 98101  1  0
 98100  1  0
 99 97  2  0
102103  1  0
102 77  1  0
104102  1  0
M  ISO  4  12 101  13 101  63 100  76 100
M  END
>  <TORSDO>  (61) 
F 22

>  <SCORE>  (61) 
9.867

>  <name>  (61) 
60

>  <ligand_id>  (61) 
60

>  <original_smiles>  (61) 
[H]OC([H])(C([H])([H])Oc1c([H])c([H])c2c(c1[H])C([H])([H])N(C(=O)C([H])(N([H])C(=O)C([H])(N([H])C([H])([H])[H])C([H])([H])[H])C(C([H])([H])[H])(C([H])([H])[H])C([H])([H])[H])C([H])(C(=O)N([H])C1([H])c3c([H])c([H])c([H])c([H])c3C([H])([H])C([H])([H])C1([H])[H])C2([H])[H])C([H])([H])[N+]1([H])C([H])([H])C([H])([H])C([H])(Oc2c(C([H])([H])[H])nc(C([H])([H])[H])c(C3([H])C([H])([H])C([H])([H])N(C(=O)N4C([H])([H])C([H])([H])C([H])([H])C([H])(n5nc(-c6c([H])c([H])c(Oc7c([H])c([H])c(F)c([H])c7F)c([H])c6[H])c(C(=O)N([H])[H])c5N([H])[H])C4([H])[H])C([H])([H])C3([H])[H])c2[H])C([H])([H])C1([H])[H]

>  <smiles>  (61) 
[H]OC([H])(C([H])([H])Oc1c([H])c([H])c2c(c1[H])C([H])([H])N(C(=O)C([H])(N([H])C(=O)C([H])(N([H])C([H])([H])[H])C([H])([H])[H])C(C([H])([H])[H])(C([H])([H])[H])C([H])([H])[H])C([H])(C(=O)N([H])C1([H])c3c([H])c([H])c([H])c([H])c3C([H])([H])C([H])([H])C1([H])[H])C2([H])[H])C([H])([H])[N+]1([H])C([H])([H])C([H])([H])C([H])(Oc2c(C([H])([H])[H])nc(C([H])([H])[H])c(C3([H])C([H])([H])C([H])([H])N(C(=O)N4C([H])([H])C([H])([H])C([H])([H])C([H])(n5nc(-c6c([H])c([H])c(Oc7c([H])c([H])c(F)c([H])c7F)c([H])c6[H])c(C(=O)N([H])[H])c5N([H])[H])C4([H])[H])C([H])([H])C3([H])[H])c2[H])C([H])([H])C1([H])[H]

$$$$
61:0:0
     RDKit          3D

101111  0  0  1  0  0  0  0  0999 V2000
  -32.0660  -19.2220   19.7160 C   0  0  0  0  0  3  0  0  0  0  0  0
  -30.6910  -20.2890   21.4100 C   0  0  0  0  0  3  0  0  0  0  0  0
  -31.2920  -19.1320   20.8880 C   0  0  0  0  0  0  0  0  0  0  0  0
  -31.5620  -21.6100   19.5390 C   0  0  0  0  0  0  0  0  0  0  0  0
  -32.2150  -20.4500   19.0440 C   0  0  0  0  0  0  0  0  0  0  0  0
  -30.8050  -21.5300   20.7440 C   0  0  0  0  0  0  0  0  0  0  0  0
  -33.0420  -20.4640   17.7660 C   0  0  0  0  0  1  0  0  0  0  0  0
  -30.6050  -14.3580   19.8780 C   0  0  0  0  0  0  0  0  0  0  0  0
  -30.0500  -12.4080   18.4700 C   0  0  0  0  0  2  0  0  0  0  0  0
  -28.9810  -12.7510   17.4170 C   0  0  0  0  0  2  0  0  0  0  0  0
  -27.5640  -12.5890   18.0000 C   0  0  0  0  0  2  0  0  0  0  0  0
  -27.4010  -13.3080   19.3640 C   0  0  0  0  0  3  0  0  0  0  0  0
  -28.5610  -12.9210   20.3120 C   0  0  0  0  0  2  0  0  0  0  0  0
  -29.8320  -13.2620   19.6490 N   0  0  0  0  0  0  0  0  0  0  0  0
  -31.5350  -14.6770   19.1270 O   0  0  0  0  0  0  0  0  0  0  0  0
  -29.6630  -17.2590   20.8890 C   0  0  0  0  0  2  0  0  0  0  0  0
  -32.1150  -16.7600   21.4530 C   0  0  0  0  0  2  0  0  0  0  0  0
  -29.3290  -15.8420   21.3690 C   0  0  0  0  0  2  0  0  0  0  0  0
  -31.6380  -15.3520   21.8720 C   0  0  0  0  0  2  0  0  0  0  0  0
  -30.9650  -17.7900   21.5180 C   0  0  0  0  0  3  0  0  0  0  0  0
  -30.4600  -14.9470   21.0900 N   0  0  0  0  0  0  0  0  0  0  0  0
  -25.0860  -13.9020   20.3280 C   0  0  0  0  0  0  0  0  0  0  0  0
  -24.0560  -13.1190   20.7760 C   0  0  0  0  0  0  0  0  0  0  0  0
  -24.5040  -11.7690   20.6470 C   0  0  0  0  0  0  0  0  0  0  0  0
  -26.0980  -13.0280   19.9620 N   0  0  0  0  0  0  0  0  0  0  0  0
  -25.7530  -11.7370   20.2060 N   0  0  0  0  0  0  0  0  0  0  0  0
  -23.7940  -10.5010   20.8620 C   0  0  0  0  0  0  0  0  0  0  0  0
  -24.2470   -9.5540   21.8070 C   0  0  0  0  0  3  0  0  0  0  0  0
  -23.5380   -8.3490   22.0080 C   0  0  0  0  0  3  0  0  0  0  0  0
  -22.3630   -8.0850   21.2640 C   0  0  0  0  0  0  0  0  0  0  0  0
  -21.9320   -9.0210   20.3080 C   0  0  0  0  0  3  0  0  0  0  0  0
  -22.6400  -10.2170   20.1050 C   0  0  0  0  0  3  0  0  0  0  0  0
  -21.6240   -6.9320   21.3740 O   0  0  0  0  0  0  0  0  0  0  0  0
  -21.5410   -6.2410   22.5560 C   0  0  0  0  0  0  0  0  0  0  0  0
  -21.0030   -6.8260   23.7240 C   0  0  0  0  0  3  0  0  0  0  0  0
  -20.8720   -6.0580   24.8990 C   0  0  0  0  0  3  0  0  0  0  0  0
  -21.2680   -4.7070   24.9050 C   0  0  0  0  0  0  0  0  0  0  0  0
  -21.7980   -4.1230   23.7420 C   0  0  0  0  0  3  0  0  0  0  0  0
  -21.9310   -4.8870   22.5690 C   0  0  0  0  0  0  0  0  0  0  0  0
  -22.4230   -4.3130   21.4450 F   0  0  0  0  0  0  0  0  0  0  0  0
  -21.1360   -3.9670   26.0310 F   0  0  0  0  0  0  0  0  0  0  0  0
  -22.6960  -13.5880   21.2090 C   0  0  0  0  0  0  0  0  0  0  0  0
  -22.0620  -12.8640   22.1250 N   0  0  0  0  0  0  0  0  0  0  0  0
  -22.2090  -14.6300   20.7720 O   0  0  0  0  0  0  0  0  0  0  0  0
  -22.4700  -12.0200   22.4990 H   0  0  0  0  0  0  0  0  0  0  0  0
  -21.1550  -13.1590   22.4570 H   0  0  0  0  0  0  0  0  0  0  0  0
  -25.2410  -15.2790   20.1830 N   0  0  0  0  0  0  0  0  0  0  0  0
  -24.4940  -15.9320   20.3940 H   0  0  0  0  0  0  0  0  0  0  0  0
  -26.0570  -15.7260   19.7870 H   0  0  0  0  0  0  0  0  0  0  0  0
  -30.1490  -23.2890   18.2890 C   0  0  0  0  0  2  0  0  0  0  0  0
  -32.3250  -24.0630   19.4790 C   0  0  0  0  0  2  0  0  0  0  0  0
  -30.0560  -24.6950   17.6980 C   0  0  0  0  0  2  0  0  0  0  0  0
  -32.0910  -25.4340   18.8310 C   0  0  0  0  0  2  0  0  0  0  0  0
  -31.5850  -22.9200   18.7400 C   0  0  0  0  0  3  0  0  0  0  0  0
  -30.6370  -25.6610   18.6540 N   0  0  1  0  0  4  0  0  0  0  0  0
  -30.2020  -25.4520   19.5430 H   0  0  0  0  0  0  0  0  0  0  0  0
  -30.2580  -27.0640   18.3890 C   0  0  0  0  0  2  0  0  0  0  0  0
  -29.4430  -27.6040   19.5670 C   0  0  0  0  0  2  0  0  0  0  0  0
  -28.2580  -26.8070   19.7250 O   0  0  0  0  0  0  0  0  0  0  0  0
  -24.5040  -31.8520   23.1140 C   0  0  0  0  0  0  0  0  0  0  0  0
  -27.0820  -27.5020   19.8890 C   0  0  0  0  0  0  0  0  0  0  0  0
  -23.2470  -30.4830   21.4750 C   0  0  0  0  0  3  0  0  0  0  0  0
  -24.6610  -28.9510   20.0050 C   0  0  0  0  0  0  0  0  0  0  0  0
  -25.7600  -30.8410   21.2250 C   0  0  0  0  0  2  0  0  0  0  0  0
  -25.8230  -29.4770   20.5800 C   0  0  0  0  0  0  0  0  0  0  0  0
  -27.0250  -28.7530   20.5440 C   0  0  0  0  0  3  0  0  0  0  0  0
  -25.8970  -26.9580   19.3490 C   0  0  0  0  0  3  0  0  0  0  0  0
  -24.6860  -27.6800   19.4000 C   0  0  0  0  0  3  0  0  0  0  0  0
  -23.4210  -29.8120   20.0830 C   0  0  0  0  0  2  0  0  0  0  0  0
  -24.5220  -31.0710   21.9980 N   0  0  0  0  0  0  0  0  0  0  0  0
  -23.4390  -32.1250   23.6840 O   0  0  0  0  0  0  0  0  0  0  0  0
  -22.6110  -29.4550   22.4350 C   0  0  0  0  0  0  0  0  0  0  0  0
  -21.2850  -29.2800   22.3250 N   0  0  0  0  0  0  0  0  0  0  0  0
  -23.3060  -28.8170   23.2300 O   0  0  0  0  0  0  0  0  0  0  0  0
  -20.7860  -29.8470   21.6530 H   0  0  0  0  0  0  0  0  0  0  0  0
  -17.9070  -28.1360   22.8870 C   0  0  0  0  0  0  0  0  0  0  0  0
  -20.4750  -28.3390   23.0960 C   0  0  0  0  0  3  0  0  0  0  0  0
  -20.5360  -26.9220   22.4820 C   0  0  0  0  0  2  0  0  0  0  0  0
  -19.4010  -26.6440   21.4900 C   0  0  0  0  0  2  0  0  0  0  0  0
  -18.0400  -26.8000   22.1760 C   0  0  0  0  0  2  0  0  0  0  0  0
  -19.0520  -28.8660   23.3050 C   0  0  0  0  0  0  0  0  0  0  0  0
  -18.8740  -30.1200   23.9300 C   0  0  0  0  0  3  0  0  0  0  0  0
  -17.5840  -30.6430   24.1410 C   0  0  0  0  0  3  0  0  0  0  0  0
  -16.4540  -29.9080   23.7400 C   0  0  0  0  0  3  0  0  0  0  0  0
  -16.6170  -28.6580   23.1190 C   0  0  0  0  0  3  0  0  0  0  0  0
  -25.8130  -32.4570   23.7150 C   0  0  0  0  0  3  0  0  0  0  0  0
  -26.3610  -31.6510   24.9560 C   0  0  1  0  0  0  0  0  0  0  0  0
  -25.2880  -31.3620   26.0310 C   0  0  0  0  0  1  0  0  0  0  0  0
  -26.9560  -30.2960   24.5060 C   0  0  0  0  0  1  0  0  0  0  0  0
  -27.5100  -32.4380   25.6280 C   0  0  0  0  0  1  0  0  0  0  0  0
  -25.5270  -33.8490   24.0820 N   0  0  0  0  0  0  0  0  0  0  0  0
  -25.8740  -34.9140   23.3460 C   0  0  0  0  0  0  0  0  0  0  0  0
  -26.5420  -34.8260   22.3110 O   0  0  0  0  0  0  0  0  0  0  0  0
  -24.9340  -33.9940   24.8870 H   0  0  0  0  0  0  0  0  0  0  0  0
  -24.1910  -36.7510   23.0130 C   0  0  0  0  0  1  0  0  0  0  0  0
  -25.4080  -36.2970   23.8360 C   0  0  0  0  0  3  0  0  0  0  0  0
  -27.5370  -37.1170   24.7420 C   0  0  0  0  0  1  0  0  0  0  0  0
  -26.4630  -37.3310   23.7750 N   0  0  0  0  0  0  0  0  0  0  0  0
  -26.0730  -38.2550   23.9340 H   0  0  0  0  0  0  0  0  0  0  0  0
  -29.3260  -22.5760   22.3470 C   0  0  0  0  0  1  0  0  0  0  0  0
  -30.1640  -22.6650   21.2010 O   0  0  0  0  0  0  0  0  0  0  0  0
  1  3  1  0
  3  2  2  0
  4  6  2  0
  5  4  1  0
  5  1  2  0
  6101  1  0
  6  2  1  0
  7  5  1  0
  8 21  1  0
  9 14  1  0
 10 11  1  0
 10  9  1  0
 12 11  1  0
 12 25  1  0
 12 13  1  0
 14  8  1  0
 14 13  1  0
 15  8  2  0
 16 18  1  0
 16 20  1  0
 17 20  1  0
 17 19  1  0
 20  3  1  0
 21 18  1  0
 21 19  1  0
 22 23  2  0
 23 42  1  0
 24 23  1  0
 24 27  1  0
 25 26  1  0
 25 22  1  0
 26 24  2  0
 27 28  1  0
 28 29  2  0
 30 33  1  0
 30 29  1  0
 31 30  2  0
 32 31  1  0
 32 27  2  0
 33 34  1  0
 34 39  2  0
 34 35  1  0
 35 36  2  0
 36 37  1  0
 37 41  1  0
 38 37  2  0
 39 38  1  0
 40 39  1  0
 42 43  1  0
 43 46  1  0
 43 45  1  0
 44 42  2  0
 47 22  1  0
 47 48  1  0
 49 47  1  0
 50 54  1  0
 52 50  1  0
 52 55  1  0
 53 51  1  0
 54 51  1  0
 54  4  1  0
 55 53  1  0
 55 56  1  1
 57 55  1  0
 57 58  1  0
 58 59  1  0
 59 61  1  0
 60 71  2  0
 61 66  1  0
 62 70  1  0
 62 72  1  0
 63 69  1  0
 63 65  1  0
 64 70  1  0
 65 64  1  0
 66 65  2  0
 67 68  1  0
 67 61  2  0
 68 63  2  0
 69 62  1  0
 70 60  1  0
 72 74  2  0
 73 72  1  0
 75 73  1  0
 76 85  2  0
 76 81  1  0
 77 73  1  0
 77 81  1  0
 78 77  1  0
 79 80  1  0
 79 78  1  0
 80 76  1  0
 81 82  2  0
 82 83  1  0
 84 83  2  0
 85 84  1  0
 86 60  1  0
 86 91  1  0
 86 87  1  0
 87 90  1  1
 87 88  1  0
 89 87  1  0
 91 94  1  0
 92 96  1  0
 92 91  1  0
 93 92  2  0
 96 95  1  0
 98 96  1  0
 98 99  1  0
 98 97  1  0
101100  1  0
M  ISO  4   8 100  21 100  58 101  59 101
M  END
>  <TORSDO>  (62) 
F 20

>  <SCORE>  (62) 
-12.140

>  <name>  (62) 
61

>  <ligand_id>  (62) 
61

>  <original_smiles>  (62) 
[H]c1c([H])c([H])c2c(c1[H])C([H])([H])C([H])([H])C([H])([H])C2([H])N([H])C(=O)C1([H])N(C(=O)C([H])(N([H])C(=O)C([H])(N([H])C([H])([H])[H])C([H])([H])[H])C(C([H])([H])[H])(C([H])([H])[H])C([H])([H])[H])C([H])([H])c2c([H])c(OC([H])([H])C([H])([H])[N+]3([H])C([H])([H])C([H])([H])C([H])(c4c(OC([H])([H])[H])c([H])c(C5([H])C([H])([H])C([H])([H])N(C(=O)N6C([H])([H])C([H])([H])C([H])([H])C([H])(n7nc(-c8c([H])c([H])c(Oc9c([H])c([H])c(F)c([H])c9F)c([H])c8[H])c(C(=O)N([H])[H])c7N([H])[H])C6([H])[H])C([H])([H])C5([H])[H])c([H])c4C([H])([H])[H])C([H])([H])C3([H])[H])c([H])c([H])c2C1([H])[H]

>  <smiles>  (62) 
[H]c1c([H])c([H])c2c(c1[H])C([H])([H])C([H])([H])C([H])([H])C2([H])N([H])C(=O)C1([H])N(C(=O)C([H])(N([H])C(=O)C([H])(N([H])C([H])([H])[H])C([H])([H])[H])C(C([H])([H])[H])(C([H])([H])[H])C([H])([H])[H])C([H])([H])c2c([H])c(OC([H])([H])C([H])([H])[N+]3([H])C([H])([H])C([H])([H])C([H])(c4c(OC([H])([H])[H])c([H])c(C5([H])C([H])([H])C([H])([H])N(C(=O)N6C([H])([H])C([H])([H])C([H])([H])C([H])(n7nc(-c8c([H])c([H])c(Oc9c([H])c([H])c(F)c([H])c9F)c([H])c8[H])c(C(=O)N([H])[H])c7N([H])[H])C6([H])[H])C([H])([H])C5([H])[H])c([H])c4C([H])([H])[H])C([H])([H])C3([H])[H])c([H])c([H])c2C1([H])[H]

$$$$
62:0:0
     RDKit          3D

101111  0  0  1  0  0  0  0  0999 V2000
  -29.2040  -19.7910   17.8900 C   0  0  0  0  0  3  0  0  0  0  0  0
  -29.2480  -21.8480   16.6170 C   0  0  0  0  0  3  0  0  0  0  0  0
  -29.3220  -21.9420   19.0770 C   0  0  0  0  0  0  0  0  0  0  0  0
  -29.1530  -20.4530   16.6560 C   0  0  0  0  0  0  0  0  0  0  0  0
  -29.3380  -20.5010   19.1120 C   0  0  0  0  0  0  0  0  0  0  0  0
  -29.3400  -22.6060   17.8090 C   0  0  0  0  0  0  0  0  0  0  0  0
  -29.0310  -19.6690   15.3650 C   0  0  0  0  0  1  0  0  0  0  0  0
  -30.4580  -22.4250   21.3360 C   0  0  0  0  0  2  0  0  0  0  0  0
  -29.5450  -24.5440   21.9700 C   0  0  0  0  0  2  0  0  0  0  0  0
  -29.2710  -22.7420   20.4120 C   0  0  0  0  0  3  0  0  0  0  0  0
  -29.2510  -24.3150   20.4810 C   0  0  0  0  0  3  0  0  0  0  0  0
  -30.2060  -22.9450   23.7520 C   0  0  0  0  0  1  0  0  0  0  0  0
  -30.4670  -23.4630   22.3900 N   0  0  1  0  0  4  0  0  0  0  0  0
  -31.3990  -23.8500   22.4000 H   0  0  0  0  0  0  0  0  0  0  0  0
  -27.9770  -25.0870   20.0080 C   0  0  0  0  0  2  0  0  0  0  0  0
  -28.1270  -26.5270   20.1030 O   0  0  0  0  0  0  0  0  0  0  0  0
  -24.5520  -31.9000   23.1740 C   0  0  0  0  0  0  0  0  0  0  0  0
  -26.9760  -27.3050   20.1000 C   0  0  0  0  0  0  0  0  0  0  0  0
  -23.2630  -30.5140   21.5850 C   0  0  0  0  0  3  0  0  0  0  0  0
  -24.6300  -28.9110   20.1470 C   0  0  0  0  0  0  0  0  0  0  0  0
  -25.7960  -30.7830   21.3200 C   0  0  0  0  0  2  0  0  0  0  0  0
  -25.8230  -29.4000   20.6950 C   0  0  0  0  0  0  0  0  0  0  0  0
  -26.9970  -28.6070   20.6620 C   0  0  0  0  0  3  0  0  0  0  0  0
  -25.7600  -26.8410   19.5450 C   0  0  0  0  0  3  0  0  0  0  0  0
  -24.5960  -27.6320   19.5670 C   0  0  0  0  0  3  0  0  0  0  0  0
  -23.4170  -29.8110   20.2110 C   0  0  0  0  0  2  0  0  0  0  0  0
  -24.5570  -31.0820   22.0830 N   0  0  0  0  0  0  0  0  0  0  0  0
  -23.4930  -32.2140   23.7360 O   0  0  0  0  0  0  0  0  0  0  0  0
  -22.6050  -29.5270   22.5770 C   0  0  0  0  0  0  0  0  0  0  0  0
  -21.2790  -29.3470   22.4550 N   0  0  0  0  0  0  0  0  0  0  0  0
  -23.2830  -28.9250   23.4120 O   0  0  0  0  0  0  0  0  0  0  0  0
  -20.7920  -29.8860   21.7520 H   0  0  0  0  0  0  0  0  0  0  0  0
  -17.8990  -28.1760   22.9780 C   0  0  0  0  0  0  0  0  0  0  0  0
  -20.4560  -28.4390   23.2530 C   0  0  0  0  0  3  0  0  0  0  0  0
  -20.5590  -26.9890   22.7280 C   0  0  0  0  0  2  0  0  0  0  0  0
  -19.4610  -26.6330   21.7210 C   0  0  0  0  0  2  0  0  0  0  0  0
  -18.0760  -26.8040   22.3520 C   0  0  0  0  0  2  0  0  0  0  0  0
  -19.0180  -28.9500   23.3870 C   0  0  0  0  0  0  0  0  0  0  0  0
  -18.7980  -30.2350   23.9320 C   0  0  0  0  0  3  0  0  0  0  0  0
  -17.4930  -30.7450   24.0730 C   0  0  0  0  0  3  0  0  0  0  0  0
  -16.3900  -29.9670   23.6810 C   0  0  0  0  0  3  0  0  0  0  0  0
  -16.5940  -28.6860   23.1390 C   0  0  0  0  0  3  0  0  0  0  0  0
  -25.8720  -32.5020   23.7520 C   0  0  0  0  0  3  0  0  0  0  0  0
  -26.4400  -31.6890   24.9800 C   0  0  1  0  0  0  0  0  0  0  0  0
  -25.3940  -31.4260   26.0890 C   0  0  0  0  0  1  0  0  0  0  0  0
  -26.9950  -30.3200   24.5190 C   0  0  0  0  0  1  0  0  0  0  0  0
  -27.6240  -32.4570   25.6130 C   0  0  0  0  0  1  0  0  0  0  0  0
  -25.5940  -33.8930   24.1340 N   0  0  0  0  0  0  0  0  0  0  0  0
  -25.9000  -34.9620   23.3860 C   0  0  0  0  0  0  0  0  0  0  0  0
  -26.5180  -34.8800   22.3210 O   0  0  0  0  0  0  0  0  0  0  0  0
  -25.0430  -34.0320   24.9670 H   0  0  0  0  0  0  0  0  0  0  0  0
  -24.1810  -36.7840   23.1570 C   0  0  0  0  0  1  0  0  0  0  0  0
  -25.4490  -36.3410   23.9040 C   0  0  0  0  0  3  0  0  0  0  0  0
  -27.6250  -37.1810   24.6750 C   0  0  0  0  0  1  0  0  0  0  0  0
  -26.4900  -37.3850   23.7780 N   0  0  0  0  0  0  0  0  0  0  0  0
  -26.1010  -38.3060   23.9630 H   0  0  0  0  0  0  0  0  0  0  0  0
  -29.5450  -24.6440   16.5110 C   0  0  0  0  0  1  0  0  0  0  0  0
  -29.4670  -23.9760   17.7660 O   0  0  0  0  0  0  0  0  0  0  0  0
  -29.5030  -19.8130   20.3170 O   0  0  0  0  0  0  0  0  0  0  0  0
  -30.5660  -14.4390   20.5670 C   0  0  0  0  0  0  0  0  0  0  0  0
  -30.2980  -12.2380   19.4540 C   0  0  0  0  0  2  0  0  0  0  0  0
  -29.3460  -12.3510   18.2470 C   0  0  0  0  0  2  0  0  0  0  0  0
  -27.8860  -12.1340   18.6920 C   0  0  0  0  0  2  0  0  0  0  0  0
  -27.5120  -12.9990   19.9190 C   0  0  0  0  0  3  0  0  0  0  0  0
  -28.5860  -12.9020   21.0320 C   0  0  0  0  0  2  0  0  0  0  0  0
  -29.8860  -13.2550   20.4410 N   0  0  0  0  0  0  0  0  0  0  0  0
  -31.7300  -14.5490   20.1720 O   0  0  0  0  0  0  0  0  0  0  0  0
  -30.8270  -17.9480   21.3280 C   0  0  0  0  0  2  0  0  0  0  0  0
  -28.4590  -17.5970   20.6430 C   0  0  0  0  0  2  0  0  0  0  0  0
  -30.6500  -16.5170   21.9410 C   0  0  0  0  0  2  0  0  0  0  0  0
  -28.6730  -16.0660   20.5240 C   0  0  0  0  0  2  0  0  0  0  0  0
  -29.7390  -18.3760   20.3210 C   0  0  0  0  0  3  0  0  0  0  0  0
  -29.9270  -15.5310   21.1030 N   0  0  0  0  0  0  0  0  0  0  0  0
  -25.1240  -13.5750   20.6790 C   0  0  0  0  0  0  0  0  0  0  0  0
  -24.0700  -12.7850   21.0470 C   0  0  0  0  0  0  0  0  0  0  0  0
  -24.5480  -11.4400   20.9870 C   0  0  0  0  0  0  0  0  0  0  0  0
  -26.1750  -12.7060   20.4180 N   0  0  0  0  0  0  0  0  0  0  0  0
  -25.8340  -11.4180   20.6660 N   0  0  0  0  0  0  0  0  0  0  0  0
  -23.8400  -10.1670   21.1570 C   0  0  0  0  0  0  0  0  0  0  0  0
  -24.2910   -9.1920   22.0740 C   0  0  0  0  0  3  0  0  0  0  0  0
  -23.5850   -7.9810   22.2310 C   0  0  0  0  0  3  0  0  0  0  0  0
  -22.4150   -7.7370   21.4730 C   0  0  0  0  0  0  0  0  0  0  0  0
  -21.9850   -8.7010   20.5450 C   0  0  0  0  0  3  0  0  0  0  0  0
  -22.6920   -9.9050   20.3840 C   0  0  0  0  0  3  0  0  0  0  0  0
  -21.6800   -6.5790   21.5420 O   0  0  0  0  0  0  0  0  0  0  0  0
  -21.6390   -5.8200   22.6830 C   0  0  0  0  0  0  0  0  0  0  0  0
  -21.1520   -6.3350   23.9040 C   0  0  0  0  0  3  0  0  0  0  0  0
  -21.0620   -5.5000   25.0360 C   0  0  0  0  0  3  0  0  0  0  0  0
  -21.4510   -4.1500   24.9460 C   0  0  0  0  0  0  0  0  0  0  0  0
  -21.9310   -3.6340   23.7300 C   0  0  0  0  0  3  0  0  0  0  0  0
  -22.0220   -4.4670   22.6020 C   0  0  0  0  0  0  0  0  0  0  0  0
  -22.4670   -3.9590   21.4270 F   0  0  0  0  0  0  0  0  0  0  0  0
  -21.3570   -3.3450   26.0310 F   0  0  0  0  0  0  0  0  0  0  0  0
  -22.6700  -13.2410   21.3390 C   0  0  0  0  0  0  0  0  0  0  0  0
  -21.9570  -12.5180   22.1950 N   0  0  0  0  0  0  0  0  0  0  0  0
  -22.2160  -14.2730   20.8450 O   0  0  0  0  0  0  0  0  0  0  0  0
  -22.3360  -11.6830   22.6160 H   0  0  0  0  0  0  0  0  0  0  0  0
  -21.0180  -12.8040   22.4340 H   0  0  0  0  0  0  0  0  0  0  0  0
  -25.2620  -14.9500   20.5160 N   0  0  0  0  0  0  0  0  0  0  0  0
  -24.4830  -15.5860   20.6390 H   0  0  0  0  0  0  0  0  0  0  0  0
  -26.0920  -15.4050   20.1590 H   0  0  0  0  0  0  0  0  0  0  0  0
  1  5  1  0
  2  4  1  0
  2  6  2  0
  3  5  2  0
  4  1  2  0
  5 59  1  0
  6  3  1  0
  7  4  1  0
  8 13  1  0
  9 13  1  0
 10  3  1  0
 10 11  1  0
 10  8  1  0
 11 15  1  0
 11  9  1  0
 13 14  1  1
 13 12  1  0
 15 16  1  0
 17 28  2  0
 18 16  1  0
 18 23  1  0
 19 27  1  0
 19 29  1  0
 20 26  1  0
 20 22  1  0
 21 27  1  0
 22 21  1  0
 23 22  2  0
 24 25  1  0
 24 18  2  0
 25 20  2  0
 26 19  1  0
 27 17  1  0
 29 31  2  0
 30 29  1  0
 32 30  1  0
 33 42  2  0
 33 38  1  0
 34 30  1  0
 34 38  1  0
 35 34  1  0
 36 37  1  0
 36 35  1  0
 37 33  1  0
 38 39  2  0
 39 40  1  0
 41 40  2  0
 42 41  1  0
 43 17  1  0
 43 48  1  0
 43 44  1  0
 44 47  1  1
 44 45  1  0
 46 44  1  0
 48 51  1  0
 49 53  1  0
 49 48  1  0
 50 49  2  0
 53 52  1  0
 55 53  1  0
 55 56  1  0
 55 54  1  0
 57 58  1  0
 58  6  1  0
 60 73  1  0
 61 66  1  0
 62 63  1  0
 62 61  1  0
 64 63  1  0
 64 77  1  0
 64 65  1  0
 66 60  1  0
 66 65  1  0
 67 60  2  0
 68 70  1  0
 71 69  1  0
 71 73  1  0
 72 59  1  0
 72 69  1  0
 72 68  1  0
 73 70  1  0
 74 75  2  0
 75 94  1  0
 76 75  1  0
 76 79  1  0
 77 78  1  0
 77 74  1  0
 78 76  2  0
 79 80  1  0
 80 81  2  0
 82 85  1  0
 82 81  1  0
 83 82  2  0
 84 83  1  0
 84 79  2  0
 85 86  1  0
 86 87  1  0
 87 88  2  0
 89 88  1  0
 89 93  1  0
 90 89  2  0
 91 86  2  0
 91 90  1  0
 92 91  1  0
 94 95  1  0
 95 98  1  0
 95 97  1  0
 96 94  2  0
 99100  1  0
 99 74  1  0
101 99  1  0
M  ISO  4  15 101  16 101  60 100  73 100
M  END
>  <TORSDO>  (63) 
F 20

>  <SCORE>  (63) 
-14.213

>  <name>  (63) 
62

>  <ligand_id>  (63) 
62

>  <original_smiles>  (63) 
[H]c1c([H])c([H])c2c(c1[H])C([H])([H])C([H])([H])C([H])([H])C2([H])N([H])C(=O)C1([H])N(C(=O)C([H])(N([H])C(=O)C([H])(N([H])C([H])([H])[H])C([H])([H])[H])C(C([H])([H])[H])(C([H])([H])[H])C([H])([H])[H])C([H])([H])c2c([H])c(OC([H])([H])C3([H])C([H])(c4c(OC([H])([H])[H])c([H])c(C([H])([H])[H])c([H])c4OC4([H])C([H])([H])C([H])([H])N(C(=O)N5C([H])([H])C([H])([H])C([H])([H])C([H])(n6nc(-c7c([H])c([H])c(Oc8c([H])c([H])c(F)c([H])c8F)c([H])c7[H])c(C(=O)N([H])[H])c6N([H])[H])C5([H])[H])C([H])([H])C4([H])[H])C([H])([H])[N+]([H])(C([H])([H])[H])C3([H])[H])c([H])c([H])c2C1([H])[H]

>  <smiles>  (63) 
[H]c1c([H])c([H])c2c(c1[H])C([H])([H])C([H])([H])C([H])([H])C2([H])N([H])C(=O)C1([H])N(C(=O)C([H])(N([H])C(=O)C([H])(N([H])C([H])([H])[H])C([H])([H])[H])C(C([H])([H])[H])(C([H])([H])[H])C([H])([H])[H])C([H])([H])c2c([H])c(OC([H])([H])C3([H])C([H])(c4c(OC([H])([H])[H])c([H])c(C([H])([H])[H])c([H])c4OC4([H])C([H])([H])C([H])([H])N(C(=O)N5C([H])([H])C([H])([H])C([H])([H])C([H])(n6nc(-c7c([H])c([H])c(Oc8c([H])c([H])c(F)c([H])c8F)c([H])c7[H])c(C(=O)N([H])[H])c6N([H])[H])C5([H])[H])C([H])([H])C4([H])[H])C([H])([H])[N+]([H])(C([H])([H])[H])C3([H])[H])c([H])c([H])c2C1([H])[H]

$$$$
63:0:0
     RDKit          3D

100110  0  0  1  0  0  0  0  0999 V2000
  -26.8360  -24.1180   22.2260 C   0  0  0  0  0  2  0  0  0  0  0  0
  -26.8490  -25.2670   19.9340 C   0  0  0  0  0  2  0  0  0  0  0  0
  -26.2550  -25.4820   22.5990 C   0  0  0  0  0  2  0  0  0  0  0  0
  -27.4250  -26.5120   20.6530 C   0  0  0  0  0  2  0  0  0  0  0  0
  -26.9510  -23.9270   20.7070 C   0  0  0  0  0  3  0  0  0  0  0  0
  -27.1330  -26.5880   22.1190 N   0  0  1  0  0  4  0  0  0  0  0  0
  -28.0220  -26.4340   22.5760 H   0  0  0  0  0  0  0  0  0  0  0  0
  -28.2740  -22.4320   19.1470 C   0  0  0  0  0  3  0  0  0  0  0  0
  -29.2600  -23.0250   21.2780 C   0  0  0  0  0  3  0  0  0  0  0  0
  -28.1860  -23.1070   20.3730 C   0  0  0  0  0  0  0  0  0  0  0  0
  -30.5000  -21.5830   19.7190 C   0  0  0  0  0  0  0  0  0  0  0  0
  -29.3920  -21.6520   18.8210 C   0  0  0  0  0  0  0  0  0  0  0  0
  -30.4070  -22.2660   20.9670 C   0  0  0  0  0  0  0  0  0  0  0  0
  -29.2800  -20.8900   17.5060 C   0  0  0  0  0  1  0  0  0  0  0  0
  -31.4940  -22.1720   22.0310 C   0  0  0  0  0  1  0  0  0  0  0  0
  -34.7190  -20.7220   21.4260 C   0  0  0  0  0  0  0  0  0  0  0  0
  -36.9220  -21.6850   22.0090 C   0  0  0  0  0  2  0  0  0  0  0  0
  -36.8080  -23.1330   22.5220 C   0  0  0  0  0  2  0  0  0  0  0  0
  -36.7440  -24.1480   21.3610 C   0  0  0  0  0  2  0  0  0  0  0  0
  -35.7150  -23.7410   20.2740 C   0  0  0  0  0  3  0  0  0  0  0  0
  -35.9830  -22.2750   19.8710 C   0  0  0  0  0  2  0  0  0  0  0  0
  -35.8200  -21.4350   21.0700 N   0  0  0  0  0  0  0  0  0  0  0  0
  -34.5790  -20.2340   22.5570 O   0  0  0  0  0  0  0  0  0  0  0  0
  -31.7700  -19.2970   20.0350 C   0  0  0  0  0  2  0  0  0  0  0  0
  -33.2620  -19.0720   20.3000 C   0  0  0  0  0  2  0  0  0  0  0  0
  -33.0030  -21.4020   19.8290 C   0  0  0  0  0  2  0  0  0  0  0  0
  -31.7170  -20.6990   19.4280 C   0  0  0  0  0  3  0  0  0  0  0  0
  -33.9000  -20.3920   20.4000 N   0  0  0  0  0  0  0  0  0  0  0  0
  -34.7720  -25.4520   18.5850 C   0  0  0  0  0  0  0  0  0  0  0  0
  -35.3630  -26.1420   17.5620 C   0  0  0  0  0  0  0  0  0  0  0  0
  -36.7280  -25.7210   17.5420 C   0  0  0  0  0  0  0  0  0  0  0  0
  -35.7630  -24.6450   19.1250 N   0  0  0  0  0  0  0  0  0  0  0  0
  -36.9360  -24.7840   18.4570 N   0  0  0  0  0  0  0  0  0  0  0  0
  -37.8640  -26.1950   16.7410 C   0  0  0  0  0  0  0  0  0  0  0  0
  -38.7000  -25.2930   16.0460 C   0  0  0  0  0  3  0  0  0  0  0  0
  -39.7780  -25.7710   15.2700 C   0  0  0  0  0  3  0  0  0  0  0  0
  -40.0230  -27.1610   15.1770 C   0  0  0  0  0  0  0  0  0  0  0  0
  -39.2010  -28.0530   15.8900 C   0  0  0  0  0  3  0  0  0  0  0  0
  -38.1340  -27.5750   16.6670 C   0  0  0  0  0  3  0  0  0  0  0  0
  -41.0620  -27.7150   14.4670 O   0  0  0  0  0  0  0  0  0  0  0  0
  -41.6610  -27.0470   13.4320 C   0  0  0  0  0  0  0  0  0  0  0  0
  -40.9250  -26.5870   12.3170 C   0  0  0  0  0  3  0  0  0  0  0  0
  -41.5910  -25.9670   11.2400 C   0  0  0  0  0  3  0  0  0  0  0  0
  -42.9900  -25.8140   11.2720 C   0  0  0  0  0  0  0  0  0  0  0  0
  -43.7250  -26.2760   12.3780 C   0  0  0  0  0  3  0  0  0  0  0  0
  -43.0610  -26.8930   13.4520 C   0  0  0  0  0  0  0  0  0  0  0  0
  -43.7750  -27.3570   14.5070 F   0  0  0  0  0  0  0  0  0  0  0  0
  -43.6330  -25.2260   10.2350 F   0  0  0  0  0  0  0  0  0  0  0  0
  -34.7300  -27.2030   16.7080 C   0  0  0  0  0  0  0  0  0  0  0  0
  -35.0930  -27.2610   15.4330 N   0  0  0  0  0  0  0  0  0  0  0  0
  -33.8680  -27.9590   17.1600 O   0  0  0  0  0  0  0  0  0  0  0  0
  -35.7850  -26.6310   15.0560 H   0  0  0  0  0  0  0  0  0  0  0  0
  -34.6740  -27.9480   14.8210 H   0  0  0  0  0  0  0  0  0  0  0  0
  -33.4810  -25.4520   19.1090 N   0  0  0  0  0  0  0  0  0  0  0  0
  -32.7530  -26.0570   18.7470 H   0  0  0  0  0  0  0  0  0  0  0  0
  -33.1780  -24.8940   19.8970 H   0  0  0  0  0  0  0  0  0  0  0  0
  -26.7160  -27.9700   22.5040 C   0  0  0  0  0  2  0  0  0  0  0  0
  -28.5950  -28.5070   24.1450 C   0  0  0  0  0  1  0  0  0  0  0  0
  -27.0780  -28.4660   23.9380 C   0  0  0  0  0  3  0  0  0  0  0  0
  -26.5600  -27.7440   25.0680 O   0  0  0  0  0  0  0  0  0  0  0  0
  -25.4890  -28.0490   32.1130 C   0  0  0  0  0  0  0  0  0  0  0  0
  -27.1110  -27.9640   26.3120 C   0  0  0  0  0  0  0  0  0  0  0  0
  -27.6590  -28.9030   31.3020 C   0  0  0  0  0  3  0  0  0  0  0  0
  -28.2090  -28.3910   28.8780 C   0  0  0  0  0  0  0  0  0  0  0  0
  -26.3860  -27.1050   29.9950 C   0  0  0  0  0  2  0  0  0  0  0  0
  -27.0240  -27.6580   28.7390 C   0  0  0  0  0  0  0  0  0  0  0  0
  -26.4650  -27.4500   27.4580 C   0  0  0  0  0  3  0  0  0  0  0  0
  -28.2840  -28.7300   26.4870 C   0  0  0  0  0  3  0  0  0  0  0  0
  -28.8330  -28.9450   27.7560 C   0  0  0  0  0  3  0  0  0  0  0  0
  -28.7590  -28.5640   30.2700 C   0  0  0  0  0  2  0  0  0  0  0  0
  -26.4520  -28.0280   31.1530 N   0  0  0  0  0  0  0  0  0  0  0  0
  -25.6050  -28.7590   33.1220 O   0  0  0  0  0  0  0  0  0  0  0  0
  -27.3370  -30.4120   31.2120 C   0  0  0  0  0  0  0  0  0  0  0  0
  -28.1180  -31.2380   31.9290 N   0  0  0  0  0  0  0  0  0  0  0  0
  -26.4180  -30.8200   30.4950 O   0  0  0  0  0  0  0  0  0  0  0  0
  -28.8410  -30.8310   32.5060 H   0  0  0  0  0  0  0  0  0  0  0  0
  -29.3020  -34.1870   33.6470 C   0  0  0  0  0  0  0  0  0  0  0  0
  -28.0070  -32.6960   31.9770 C   0  0  0  0  0  3  0  0  0  0  0  0
  -28.8700  -33.3520   30.8750 C   0  0  0  0  0  2  0  0  0  0  0  0
  -30.2760  -33.7280   31.3540 C   0  0  0  0  0  2  0  0  0  0  0  0
  -30.2030  -34.7000   32.5350 C   0  0  0  0  0  2  0  0  0  0  0  0
  -28.2810  -33.2350   33.3870 C   0  0  0  0  0  0  0  0  0  0  0  0
  -27.4980  -32.7600   34.4600 C   0  0  0  0  0  3  0  0  0  0  0  0
  -27.7170  -33.2210   35.7720 C   0  0  0  0  0  3  0  0  0  0  0  0
  -28.7170  -34.1760   36.0210 C   0  0  0  0  0  3  0  0  0  0  0  0
  -29.5060  -34.6590   34.9620 C   0  0  0  0  0  3  0  0  0  0  0  0
  -24.2050  -27.1670   31.9980 C   0  0  0  0  0  3  0  0  0  0  0  0
  -22.9270  -27.9810   31.5590 C   0  0  1  0  0  0  0  0  0  0  0  0
  -22.7510  -29.3150   32.3220 C   0  0  0  0  0  1  0  0  0  0  0  0
  -22.9670  -28.3040   30.0480 C   0  0  0  0  0  1  0  0  0  0  0  0
  -21.6560  -27.1300   31.7950 C   0  0  0  0  0  1  0  0  0  0  0  0
  -23.9930  -26.5240   33.3010 N   0  0  0  0  0  0  0  0  0  0  0  0
  -24.3070  -25.2540   33.5830 C   0  0  0  0  0  0  0  0  0  0  0  0
  -24.7510  -24.4690   32.7410 O   0  0  0  0  0  0  0  0  0  0  0  0
  -23.6820  -27.1190   34.0550 H   0  0  0  0  0  0  0  0  0  0  0  0
  -25.4460  -24.8030   35.7780 C   0  0  0  0  0  1  0  0  0  0  0  0
  -24.1010  -24.7800   35.0350 C   0  0  0  0  0  3  0  0  0  0  0  0
  -22.0960  -23.4050   34.7030 C   0  0  0  0  0  1  0  0  0  0  0  0
  -23.4910  -23.4370   35.1350 N   0  0  0  0  0  0  0  0  0  0  0  0
  -23.5380  -23.0890   36.0900 H   0  0  0  0  0  0  0  0  0  0  0  0
  1  3  1  0
  2  4  1  0
  2  5  1  0
  4  6  1  0
  5 10  1  0
  5  1  1  0
  6 57  1  0
  6  7  1  1
  6  3  1  0
  8 10  1  0
 10  9  2  0
 11 13  2  0
 12  8  2  0
 12 11  1  0
 13  9  1  0
 13 15  1  0
 14 12  1  0
 16 23  2  0
 17 18  1  0
 19 18  1  0
 20 32  1  0
 20 19  1  0
 21 20  1  0
 21 22  1  0
 22 16  1  0
 22 17  1  0
 24 25  1  0
 25 28  1  0
 26 28  1  0
 27 11  1  0
 27 26  1  0
 27 24  1  0
 28 16  1  0
 29 54  1  0
 29 32  1  0
 30 29  2  0
 31 30  1  0
 31 33  2  0
 33 32  1  0
 34 31  1  0
 35 34  2  0
 36 35  1  0
 37 36  2  0
 37 38  1  0
 38 39  2  0
 39 34  1  0
 40 37  1  0
 41 46  1  0
 41 40  1  0
 42 41  2  0
 43 44  2  0
 43 42  1  0
 44 45  1  0
 45 46  2  0
 46 47  1  0
 48 44  1  0
 49 51  2  0
 49 30  1  0
 50 49  1  0
 52 50  1  0
 53 50  1  0
 54 56  1  0
 55 54  1  0
 57 59  1  0
 59 58  1  0
 59 60  1  0
 60 62  1  0
 61 72  2  0
 62 68  2  0
 62 67  1  0
 63 73  1  0
 64 70  1  0
 65 71  1  0
 66 64  1  0
 66 65  1  0
 67 66  2  0
 68 69  1  0
 69 64  2  0
 70 63  1  0
 71 63  1  0
 71 61  1  0
 73 74  1  0
 74 76  1  0
 75 73  2  0
 77 86  1  0
 78 74  1  0
 78 82  1  0
 79 80  1  0
 79 78  1  0
 80 81  1  0
 81 77  1  0
 82 77  2  0
 82 83  1  0
 83 84  2  0
 84 85  1  0
 86 85  2  0
 87 61  1  0
 87 92  1  0
 88 91  1  6
 88 87  1  0
 88 89  1  0
 90 88  1  0
 92 93  1  0
 92 95  1  0
 93 97  1  0
 94 93  2  0
 97 99  1  0
 97 96  1  0
 98 99  1  0
 99100  1  0
M  ISO  4  16 100  28 100  59 101  60 101
M  END
>  <TORSDO>  (64) 
F 19

>  <SCORE>  (64) 
-4.760

>  <name>  (64) 
63

>  <ligand_id>  (64) 
63

>  <original_smiles>  (64) 
[H]c1c([H])c([H])c2c(c1[H])C([H])([H])C([H])([H])C([H])([H])C2([H])N([H])C(=O)C1([H])N(C(=O)C([H])(N([H])C(=O)C([H])(N([H])C([H])([H])[H])C([H])([H])[H])C(C([H])([H])[H])(C([H])([H])[H])C([H])([H])[H])C([H])([H])c2c([H])c(OC([H])(C([H])([H])[H])C([H])([H])[N+]3([H])C([H])([H])C([H])([H])C([H])(c4c([H])c(C([H])([H])[H])c(C5([H])C([H])([H])N(C(=O)N6C([H])([H])C([H])([H])C([H])([H])C([H])(n7nc(-c8c([H])c([H])c(Oc9c([H])c([H])c(F)c([H])c9F)c([H])c8[H])c(C(=O)N([H])[H])c7N([H])[H])C6([H])[H])C([H])([H])C5([H])[H])c(C([H])([H])[H])c4[H])C([H])([H])C3([H])[H])c([H])c([H])c2C1([H])[H]

>  <smiles>  (64) 
[H]c1c([H])c([H])c2c(c1[H])C([H])([H])C([H])([H])C([H])([H])C2([H])N([H])C(=O)C1([H])N(C(=O)C([H])(N([H])C(=O)C([H])(N([H])C([H])([H])[H])C([H])([H])[H])C(C([H])([H])[H])(C([H])([H])[H])C([H])([H])[H])C([H])([H])c2c([H])c(OC([H])(C([H])([H])[H])C([H])([H])[N+]3([H])C([H])([H])C([H])([H])C([H])(c4c([H])c(C([H])([H])[H])c(C5([H])C([H])([H])N(C(=O)N6C([H])([H])C([H])([H])C([H])([H])C([H])(n7nc(-c8c([H])c([H])c(Oc9c([H])c([H])c(F)c([H])c9F)c([H])c8[H])c(C(=O)N([H])[H])c7N([H])[H])C6([H])[H])C([H])([H])C5([H])[H])c(C([H])([H])[H])c4[H])C([H])([H])C3([H])[H])c([H])c([H])c2C1([H])[H]

$$$$
64:0:0
     RDKit          3D

 98108  0  0  1  0  0  0  0  0999 V2000
  -31.1510  -21.8170   23.4790 C   0  0  0  0  0  3  0  0  0  0  0  0
  -31.2300  -20.4620   23.8480 C   0  0  0  0  0  3  0  0  0  0  0  0
  -29.6980  -21.2290   21.6200 C   0  0  0  0  0  3  0  0  0  0  0  0
  -30.3740  -22.2110   22.3730 C   0  0  0  0  0  0  0  0  0  0  0  0
  -30.5610  -19.4720   23.0910 C   0  0  0  0  0  0  0  0  0  0  0  0
  -29.8120  -19.8650   21.9610 C   0  0  0  0  0  0  0  0  0  0  0  0
  -29.9160  -24.6250   23.1750 C   0  0  0  0  0  2  0  0  0  0  0  0
  -30.2450  -23.6660   22.0570 C   0  0  0  0  0  3  0  0  0  0  0  0
  -28.9030  -24.3620   22.0760 C   0  0  0  0  0  3  0  0  0  0  0  0
  -28.5030  -25.4310   21.0650 C   0  0  0  0  0  3  0  0  0  0  0  0
  -27.1850  -25.7800   21.4430 O   0  0  0  0  0  0  0  0  0  0  0  0
  -26.9090  -26.4920   20.8760 H   0  0  0  0  0  0  0  0  0  0  0  0
  -29.4030  -26.7020   21.0630 C   0  0  0  0  0  2  0  0  0  0  0  0
  -29.1400  -27.5910   19.9800 O   0  0  0  0  0  0  0  0  0  0  0  0
  -24.5610  -31.8540   23.4390 C   0  0  0  0  0  0  0  0  0  0  0  0
  -27.9140  -28.2030   20.0300 C   0  0  0  0  0  0  0  0  0  0  0  0
  -23.6410  -30.5480   21.5510 C   0  0  0  0  0  3  0  0  0  0  0  0
  -25.3580  -29.3870   20.0650 C   0  0  0  0  0  0  0  0  0  0  0  0
  -26.1050  -31.2170   21.5940 C   0  0  0  0  0  2  0  0  0  0  0  0
  -26.3990  -29.9560   20.8080 C   0  0  0  0  0  0  0  0  0  0  0  0
  -27.6800  -29.3630   20.8040 C   0  0  0  0  0  3  0  0  0  0  0  0
  -26.8660  -27.6550   19.2670 C   0  0  0  0  0  3  0  0  0  0  0  0
  -25.5820  -28.2330   19.2950 C   0  0  0  0  0  3  0  0  0  0  0  0
  -24.0140  -30.0760   20.1210 C   0  0  0  0  0  2  0  0  0  0  0  0
  -24.7830  -31.2140   22.2560 N   0  0  0  0  0  0  0  0  0  0  0  0
  -23.4240  -31.9230   23.9250 O   0  0  0  0  0  0  0  0  0  0  0  0
  -23.0620  -29.3430   22.3270 C   0  0  0  0  0  0  0  0  0  0  0  0
  -21.7730  -29.0470   22.0980 N   0  0  0  0  0  0  0  0  0  0  0  0
  -23.7740  -28.6860   23.0900 O   0  0  0  0  0  0  0  0  0  0  0  0
  -21.2540  -29.6360   21.4590 H   0  0  0  0  0  0  0  0  0  0  0  0
  -18.5170  -27.5000   22.2810 C   0  0  0  0  0  0  0  0  0  0  0  0
  -21.0310  -27.9350   22.6870 C   0  0  0  0  0  3  0  0  0  0  0  0
  -21.2800  -26.6240   21.9070 C   0  0  0  0  0  2  0  0  0  0  0  0
  -20.2380  -26.3670   20.8130 C   0  0  0  0  0  2  0  0  0  0  0  0
  -18.8340  -26.2910   21.4180 C   0  0  0  0  0  2  0  0  0  0  0  0
  -19.5480  -28.2820   22.8650 C   0  0  0  0  0  0  0  0  0  0  0  0
  -19.1990  -29.4180   23.6280 C   0  0  0  0  0  3  0  0  0  0  0  0
  -17.8490  -29.7740   23.8100 C   0  0  0  0  0  3  0  0  0  0  0  0
  -16.8310  -28.9870   23.2430 C   0  0  0  0  0  3  0  0  0  0  0  0
  -17.1670  -27.8500   22.4850 C   0  0  0  0  0  3  0  0  0  0  0  0
  -25.7220  -32.5420   24.2250 C   0  0  0  0  0  3  0  0  0  0  0  0
  -25.3410  -33.9430   24.4440 N   0  0  0  0  0  0  0  0  0  0  0  0
  -25.7500  -34.9680   23.6850 C   0  0  0  0  0  0  0  0  0  0  0  0
  -26.5570  -34.8360   22.7600 O   0  0  0  0  0  0  0  0  0  0  0  0
  -24.6430  -34.1160   25.1530 H   0  0  0  0  0  0  0  0  0  0  0  0
  -24.0340  -36.6790   23.0130 C   0  0  0  0  0  1  0  0  0  0  0  0
  -25.1710  -36.3610   23.9980 C   0  0  0  0  0  3  0  0  0  0  0  0
  -27.1640  -37.3500   25.0360 C   0  0  0  0  0  1  0  0  0  0  0  0
  -26.1810  -37.4420   23.9600 N   0  0  0  0  0  0  0  0  0  0  0  0
  -25.7340  -38.3530   24.0130 H   0  0  0  0  0  0  0  0  0  0  0  0
  -26.0470  -31.8320   25.5980 C   0  0  1  0  0  0  0  0  0  0  0  0
  -24.7970  -31.5470   26.4620 C   0  0  0  0  0  1  0  0  0  0  0  0
  -26.7670  -30.4850   25.3540 C   0  0  0  0  0  1  0  0  0  0  0  0
  -27.0140  -32.7070   26.4270 C   0  0  0  0  0  1  0  0  0  0  0  0
  -31.3830  -17.6830   24.4770 C   0  0  0  0  0  1  0  0  0  0  0  0
  -30.5920  -18.1250   23.3830 O   0  0  0  0  0  0  0  0  0  0  0  0
  -29.1980  -18.9160   21.1850 O   0  0  0  0  0  0  0  0  0  0  0  0
  -31.3380  -14.7170   20.2390 C   0  0  0  0  0  0  0  0  0  0  0  0
  -31.2090  -12.3330   19.6850 C   0  0  0  0  0  2  0  0  0  0  0  0
  -30.3140  -12.2100   18.4350 C   0  0  0  0  0  2  0  0  0  0  0  0
  -28.8230  -12.1260   18.8240 C   0  0  0  0  0  2  0  0  0  0  0  0
  -28.3970  -13.2080   19.8530 C   0  0  0  0  0  3  0  0  0  0  0  0
  -29.4130  -13.2930   21.0140 C   0  0  0  0  0  2  0  0  0  0  0  0
  -30.7450  -13.5110   20.4290 N   0  0  0  0  0  0  0  0  0  0  0  0
  -32.5050  -14.8370   19.8510 O   0  0  0  0  0  0  0  0  0  0  0  0
  -29.8720  -17.8660   19.1140 C   0  0  0  0  0  2  0  0  0  0  0  0
  -30.4870  -16.5090   18.7860 C   0  0  0  0  0  2  0  0  0  0  0  0
  -29.9490  -16.5650   21.1120 C   0  0  0  0  0  2  0  0  0  0  0  0
  -30.1130  -17.9950   20.6060 C   0  0  0  0  0  3  0  0  0  0  0  0
  -30.4560  -15.7190   20.0270 N   0  0  0  0  0  0  0  0  0  0  0  0
  -26.0500  -13.9260   20.6360 C   0  0  0  0  0  0  0  0  0  0  0  0
  -24.9420  -13.2040   20.9770 C   0  0  0  0  0  0  0  0  0  0  0  0
  -25.3140  -11.8290   20.8580 C   0  0  0  0  0  0  0  0  0  0  0  0
  -27.0350  -12.9960   20.3340 N   0  0  0  0  0  0  0  0  0  0  0  0
  -26.5930  -11.7260   20.5210 N   0  0  0  0  0  0  0  0  0  0  0  0
  -24.5100  -10.6080   20.9870 C   0  0  0  0  0  0  0  0  0  0  0  0
  -24.8750   -9.5720   21.8760 C   0  0  0  0  0  3  0  0  0  0  0  0
  -24.0770   -8.4140   21.9930 C   0  0  0  0  0  3  0  0  0  0  0  0
  -22.8970   -8.2840   21.2210 C   0  0  0  0  0  0  0  0  0  0  0  0
  -22.5530   -9.3070   20.3190 C   0  0  0  0  0  3  0  0  0  0  0  0
  -23.3520  -10.4560   20.1990 C   0  0  0  0  0  3  0  0  0  0  0  0
  -22.0720   -7.1860   21.2560 O   0  0  0  0  0  0  0  0  0  0  0  0
  -21.8970   -6.4520   22.4020 C   0  0  0  0  0  0  0  0  0  0  0  0
  -21.4050   -7.0350   23.5900 C   0  0  0  0  0  3  0  0  0  0  0  0
  -21.1640   -6.2290   24.7210 C   0  0  0  0  0  3  0  0  0  0  0  0
  -21.4110   -4.8440   24.6670 C   0  0  0  0  0  0  0  0  0  0  0  0
  -21.8960   -4.2630   23.4830 C   0  0  0  0  0  3  0  0  0  0  0  0
  -22.1340   -5.0640   22.3520 C   0  0  0  0  0  0  0  0  0  0  0  0
  -22.5810   -4.4930   21.2070 F   0  0  0  0  0  0  0  0  0  0  0  0
  -21.1740   -4.0700   25.7520 F   0  0  0  0  0  0  0  0  0  0  0  0
  -23.5800  -13.7510   21.3030 C   0  0  0  0  0  0  0  0  0  0  0  0
  -22.8350  -13.0760   22.1710 N   0  0  0  0  0  0  0  0  0  0  0  0
  -23.1880  -14.8150   20.8230 O   0  0  0  0  0  0  0  0  0  0  0  0
  -23.1660  -12.2190   22.5910 H   0  0  0  0  0  0  0  0  0  0  0  0
  -21.9220  -13.4290   22.4250 H   0  0  0  0  0  0  0  0  0  0  0  0
  -26.2990  -15.2940   20.5440 N   0  0  0  0  0  0  0  0  0  0  0  0
  -25.5770  -15.9860   20.7020 H   0  0  0  0  0  0  0  0  0  0  0  0
  -27.1790  -15.7010   20.2550 H   0  0  0  0  0  0  0  0  0  0  0  0
  1  2  1  0
  3  6  2  0
  3  4  1  0
  4  1  2  0
  5 56  1  0
  5  2  2  0
  6  5  1  0
  8  9  1  0
  8  4  1  0
  8  7  1  0
  9 10  1  0
  9  7  1  0
 10 13  1  0
 10 11  1  0
 12 11  1  0
 14 16  1  0
 14 13  1  0
 15 26  2  0
 16 21  1  0
 17 25  1  0
 17 27  1  0
 18 24  1  0
 18 20  1  0
 19 25  1  0
 20 19  1  0
 21 20  2  0
 22 23  1  0
 22 16  2  0
 23 18  2  0
 24 17  1  0
 25 15  1  0
 27 29  2  0
 28 27  1  0
 30 28  1  0
 31 40  2  0
 31 36  1  0
 32 28  1  0
 32 36  1  0
 33 32  1  0
 34 35  1  0
 34 33  1  0
 35 31  1  0
 36 37  2  0
 37 38  1  0
 39 38  2  0
 40 39  1  0
 41 15  1  0
 41 42  1  0
 41 51  1  0
 42 45  1  0
 43 47  1  0
 43 42  1  0
 44 43  2  0
 47 46  1  0
 49 47  1  0
 49 50  1  0
 49 48  1  0
 51 54  1  1
 51 52  1  0
 53 51  1  0
 56 55  1  0
 57  6  1  0
 58 64  1  0
 59 64  1  0
 60 61  1  0
 60 59  1  0
 62 61  1  0
 62 74  1  0
 62 63  1  0
 64 63  1  0
 65 58  2  0
 66 69  1  0
 67 66  1  0
 67 70  1  0
 69 68  1  0
 69 57  1  0
 70 58  1  0
 70 68  1  0
 71 72  2  0
 72 91  1  0
 73 72  1  0
 73 76  1  0
 74 75  1  0
 74 71  1  0
 75 73  2  0
 76 77  1  0
 77 78  2  0
 79 82  1  0
 79 78  1  0
 80 79  2  0
 81 80  1  0
 81 76  2  0
 82 83  1  0
 83 84  1  0
 84 85  2  0
 86 85  1  0
 86 90  1  0
 87 86  2  0
 88 83  2  0
 88 87  1  0
 89 88  1  0
 91 92  1  0
 92 95  1  0
 92 94  1  0
 93 91  2  0
 96 71  1  0
 96 97  1  0
 98 96  1  0
M  ISO  4  13 101  14 101  58 100  70 100
M  END
>  <TORSDO>  (65) 
F 22

>  <SCORE>  (65) 
-8.298

>  <name>  (65) 
64

>  <ligand_id>  (65) 
64

>  <original_smiles>  (65) 
[H]OC([H])(C([H])([H])Oc1c([H])c([H])c2c(c1[H])C([H])([H])N(C(=O)C([H])(N([H])C(=O)C([H])(N([H])C([H])([H])[H])C([H])([H])[H])C(C([H])([H])[H])(C([H])([H])[H])C([H])([H])[H])C([H])(C(=O)N([H])C1([H])c3c([H])c([H])c([H])c([H])c3C([H])([H])C([H])([H])C1([H])[H])C2([H])[H])C1([H])C([H])([H])C1([H])c1c([H])c([H])c(OC([H])([H])[H])c(OC2([H])C([H])([H])N(C(=O)N3C([H])([H])C([H])([H])C([H])([H])C([H])(n4nc(-c5c([H])c([H])c(Oc6c([H])c([H])c(F)c([H])c6F)c([H])c5[H])c(C(=O)N([H])[H])c4N([H])[H])C3([H])[H])C([H])([H])C2([H])[H])c1[H]

>  <smiles>  (65) 
[H]OC([H])(C([H])([H])Oc1c([H])c([H])c2c(c1[H])C([H])([H])N(C(=O)C([H])(N([H])C(=O)C([H])(N([H])C([H])([H])[H])C([H])([H])[H])C(C([H])([H])[H])(C([H])([H])[H])C([H])([H])[H])C([H])(C(=O)N([H])C1([H])c3c([H])c([H])c([H])c([H])c3C([H])([H])C([H])([H])C1([H])[H])C2([H])[H])C1([H])C([H])([H])C1([H])c1c([H])c([H])c(OC([H])([H])[H])c(OC2([H])C([H])([H])N(C(=O)N3C([H])([H])C([H])([H])C([H])([H])C([H])(n4nc(-c5c([H])c([H])c(Oc6c([H])c([H])c(F)c([H])c6F)c([H])c5[H])c(C(=O)N([H])[H])c4N([H])[H])C3([H])[H])C([H])([H])C2([H])[H])c1[H]

$$$$
65:0:0
     RDKit          3D

 98108  0  0  1  0  0  0  0  0999 V2000
  -28.5240  -22.6200   18.8040 C   0  0  0  0  0  3  0  0  0  0  0  0
  -28.8760  -21.2630   19.0240 C   0  0  0  0  0  3  0  0  0  0  0  0
  -29.4300  -23.2230   20.9540 C   0  0  0  0  0  3  0  0  0  0  0  0
  -29.7890  -21.8590   21.1870 C   0  0  0  0  0  0  0  0  0  0  0  0
  -28.7920  -23.6340   19.7560 C   0  0  0  0  0  0  0  0  0  0  0  0
  -29.5180  -20.8460   20.2140 C   0  0  0  0  0  0  0  0  0  0  0  0
  -29.4210  -21.6100   23.7220 C   0  0  0  0  0  2  0  0  0  0  0  0
  -30.3430  -21.6270   24.9530 C   0  0  0  0  0  2  0  0  0  0  0  0
  -31.6010  -22.2680   23.0320 C   0  0  0  0  0  2  0  0  0  0  0  0
  -30.3860  -21.4680   22.5420 C   0  0  0  0  0  3  0  0  0  0  0  0
  -31.7070  -21.9090   24.4570 N   0  0  0  0  0  4  0  0  0  0  0  0
  -32.2530  -21.0660   24.5350 H   0  0  0  0  0  0  0  0  0  0  0  0
  -32.1650  -22.6280   24.9950 H   0  0  0  0  0  0  0  0  0  0  0  0
  -28.2950  -25.0850   19.4530 C   0  0  0  0  0  2  0  0  0  0  0  0
  -28.3300  -26.2990   20.2780 O   0  0  0  0  0  0  0  0  0  0  0  0
  -24.5960  -31.6560   23.3060 C   0  0  0  0  0  0  0  0  0  0  0  0
  -27.2330  -27.1690   20.1930 C   0  0  0  0  0  0  0  0  0  0  0  0
  -23.4290  -30.3320   21.5830 C   0  0  0  0  0  3  0  0  0  0  0  0
  -24.9000  -28.8090   20.1610 C   0  0  0  0  0  0  0  0  0  0  0  0
  -25.9780  -30.6110   21.5030 C   0  0  0  0  0  2  0  0  0  0  0  0
  -26.0550  -29.2560   20.8170 C   0  0  0  0  0  0  0  0  0  0  0  0
  -27.2240  -28.4430   20.8320 C   0  0  0  0  0  3  0  0  0  0  0  0
  -26.0570  -26.7770   19.5100 C   0  0  0  0  0  3  0  0  0  0  0  0
  -24.9010  -27.5720   19.5040 C   0  0  0  0  0  3  0  0  0  0  0  0
  -23.6800  -29.7010   20.1900 C   0  0  0  0  0  2  0  0  0  0  0  0
  -24.6850  -30.8800   22.1880 N   0  0  0  0  0  0  0  0  0  0  0  0
  -23.4980  -31.9390   23.8060 O   0  0  0  0  0  0  0  0  0  0  0  0
  -22.7160  -29.2950   22.4820 C   0  0  0  0  0  0  0  0  0  0  0  0
  -21.3920  -29.1490   22.3010 N   0  0  0  0  0  0  0  0  0  0  0  0
  -23.3520  -28.6270   23.3020 O   0  0  0  0  0  0  0  0  0  0  0  0
  -20.9390  -29.7380   21.6150 H   0  0  0  0  0  0  0  0  0  0  0  0
  -17.9720  -28.0310   22.6510 C   0  0  0  0  0  0  0  0  0  0  0  0
  -20.5260  -28.2090   23.0130 C   0  0  0  0  0  3  0  0  0  0  0  0
  -20.6090  -26.7950   22.3900 C   0  0  0  0  0  2  0  0  0  0  0  0
  -19.5350  -26.5400   21.3300 C   0  0  0  0  0  2  0  0  0  0  0  0
  -18.1350  -26.7030   21.9330 C   0  0  0  0  0  2  0  0  0  0  0  0
  -19.0970  -28.7460   23.1440 C   0  0  0  0  0  0  0  0  0  0  0  0
  -18.8910  -29.9940   23.7710 C   0  0  0  0  0  3  0  0  0  0  0  0
  -17.5960  -30.5250   23.9130 C   0  0  0  0  0  3  0  0  0  0  0  0
  -16.4860  -29.8070   23.4370 C   0  0  0  0  0  3  0  0  0  0  0  0
  -16.6750  -28.5620   22.8120 C   0  0  0  0  0  3  0  0  0  0  0  0
  -25.8650  -32.2470   23.9940 C   0  0  0  0  0  3  0  0  0  0  0  0
  -26.2850  -31.4600   25.2950 C   0  0  1  0  0  0  0  0  0  0  0  0
  -25.1280  -31.2650   26.3030 C   0  0  0  0  0  1  0  0  0  0  0  0
  -26.8410  -30.0610   24.9370 C   0  0  0  0  0  1  0  0  0  0  0  0
  -27.4230  -32.2190   26.0190 C   0  0  0  0  0  1  0  0  0  0  0  0
  -25.5840  -33.6540   24.3060 N   0  0  0  0  0  0  0  0  0  0  0  0
  -25.9720  -34.6930   23.5540 C   0  0  0  0  0  0  0  0  0  0  0  0
  -26.6730  -34.5630   22.5460 O   0  0  0  0  0  0  0  0  0  0  0  0
  -24.9650  -33.8310   25.0830 H   0  0  0  0  0  0  0  0  0  0  0  0
  -24.3040  -36.5310   23.1380 C   0  0  0  0  0  1  0  0  0  0  0  0
  -25.5090  -36.0970   23.9880 C   0  0  0  0  0  3  0  0  0  0  0  0
  -27.6450  -36.9240   24.8780 C   0  0  0  0  0  1  0  0  0  0  0  0
  -26.5740  -37.1210   23.9050 N   0  0  0  0  0  0  0  0  0  0  0  0
  -26.1870  -38.0520   24.0440 H   0  0  0  0  0  0  0  0  0  0  0  0
  -29.9140  -19.5170   20.4390 O   0  0  0  0  0  0  0  0  0  0  0  0
  -30.9480  -14.3430   19.9220 C   0  0  0  0  0  0  0  0  0  0  0  0
  -30.5210  -12.1210   18.9270 C   0  0  0  0  0  2  0  0  0  0  0  0
  -29.5660  -12.2860   17.7280 C   0  0  0  0  0  2  0  0  0  0  0  0
  -28.0970  -12.2210   18.1920 C   0  0  0  0  0  2  0  0  0  0  0  0
  -27.8140  -13.1190   19.4290 C   0  0  0  0  0  3  0  0  0  0  0  0
  -28.8990  -12.9610   20.5160 C   0  0  0  0  0  2  0  0  0  0  0  0
  -30.2010  -13.1990   19.8800 N   0  0  0  0  0  0  0  0  0  0  0  0
  -32.1260  -14.3360   19.5480 O   0  0  0  0  0  0  0  0  0  0  0  0
  -29.6430  -17.6670   18.7030 C   0  0  0  0  0  2  0  0  0  0  0  0
  -28.8960  -17.3350   21.0760 C   0  0  0  0  0  2  0  0  0  0  0  0
  -30.7140  -16.5810   18.9770 C   0  0  0  0  0  2  0  0  0  0  0  0
  -30.0000  -16.2400   21.2180 C   0  0  0  0  0  2  0  0  0  0  0  0
  -29.1160  -18.4000   19.9620 C   0  0  0  0  0  3  0  0  0  0  0  0
  -30.2800  -15.5450   19.9470 N   0  0  0  0  0  0  0  0  0  0  0  0
  -25.4750  -13.8200   20.2170 C   0  0  0  0  0  0  0  0  0  0  0  0
  -24.3870  -13.0970   20.6210 C   0  0  0  0  0  0  0  0  0  0  0  0
  -24.7860  -11.7260   20.5830 C   0  0  0  0  0  0  0  0  0  0  0  0
  -26.4730  -12.8940   19.9580 N   0  0  0  0  0  0  0  0  0  0  0  0
  -26.0660  -11.6290   20.2370 N   0  0  0  0  0  0  0  0  0  0  0  0
  -24.0090  -10.4980   20.8010 C   0  0  0  0  0  0  0  0  0  0  0  0
  -24.4070   -9.5280   21.7480 C   0  0  0  0  0  3  0  0  0  0  0  0
  -23.6310   -8.3670   21.9510 C   0  0  0  0  0  3  0  0  0  0  0  0
  -22.4420   -8.1680   21.2090 C   0  0  0  0  0  0  0  0  0  0  0  0
  -22.0630   -9.1250   20.2520 C   0  0  0  0  0  3  0  0  0  0  0  0
  -22.8390  -10.2780   20.0460 C   0  0  0  0  0  3  0  0  0  0  0  0
  -21.6380   -7.0610   21.3230 O   0  0  0  0  0  0  0  0  0  0  0  0
  -21.5400   -6.3610   22.4990 C   0  0  0  0  0  0  0  0  0  0  0  0
  -21.1180   -6.9730   23.6990 C   0  0  0  0  0  3  0  0  0  0  0  0
  -20.9660   -6.2010   24.8680 C   0  0  0  0  0  3  0  0  0  0  0  0
  -21.2230   -4.8180   24.8360 C   0  0  0  0  0  0  0  0  0  0  0  0
  -21.6360   -4.2050   23.6410 C   0  0  0  0  0  3  0  0  0  0  0  0
  -21.7920   -4.9740   22.4740 C   0  0  0  0  0  0  0  0  0  0  0  0
  -22.1710   -4.3760   21.3190 F   0  0  0  0  0  0  0  0  0  0  0  0
  -21.0700   -4.0730   25.9570 F   0  0  0  0  0  0  0  0  0  0  0  0
  -23.0220  -13.6400   20.9320 C   0  0  0  0  0  0  0  0  0  0  0  0
  -22.2960  -12.9920   21.8380 N   0  0  0  0  0  0  0  0  0  0  0  0
  -22.6100  -14.6730   20.4070 O   0  0  0  0  0  0  0  0  0  0  0  0
  -22.6410  -12.1550   22.2830 H   0  0  0  0  0  0  0  0  0  0  0  0
  -21.3810  -13.3390   22.0870 H   0  0  0  0  0  0  0  0  0  0  0  0
  -25.6930  -15.1810   20.0260 N   0  0  0  0  0  0  0  0  0  0  0  0
  -24.9610  -15.8690   20.1570 H   0  0  0  0  0  0  0  0  0  0  0  0
  -26.5560  -15.5770   19.6750 H   0  0  0  0  0  0  0  0  0  0  0  0
  1  2  2  0
  1  5  1  0
  2  6  1  0
  3  4  1  0
  5  3  2  0
  6 56  1  0
  6  4  2  0
  7  8  1  0
  9 11  1  0
 10  4  1  0
 10  9  1  0
 10  7  1  0
 11 12  1  0
 11  8  1  0
 11 13  1  0
 14  5  1  0
 14 15  1  0
 16 27  2  0
 17 15  1  0
 17 22  1  0
 18 26  1  0
 18 28  1  0
 19 25  1  0
 19 21  1  0
 20 26  1  0
 21 22  2  0
 21 20  1  0
 23 17  2  0
 24 23  1  0
 24 19  2  0
 25 18  1  0
 26 16  1  0
 28 30  2  0
 29 28  1  0
 31 29  1  0
 32 41  2  0
 32 37  1  0
 33 29  1  0
 33 37  1  0
 34 33  1  0
 35 36  1  0
 35 34  1  0
 36 32  1  0
 37 38  2  0
 38 39  1  0
 40 39  2  0
 41 40  1  0
 42 16  1  0
 42 47  1  0
 42 43  1  0
 43 46  1  1
 43 44  1  0
 45 43  1  0
 47 50  1  0
 48 52  1  0
 48 47  1  0
 49 48  2  0
 52 51  1  0
 54 52  1  0
 54 55  1  0
 54 53  1  0
 57 70  1  0
 58 63  1  0
 59 60  1  0
 59 58  1  0
 61 60  1  0
 61 74  1  0
 61 62  1  0
 63 57  1  0
 63 62  1  0
 64 57  2  0
 65 67  1  0
 65 69  1  0
 66 68  1  0
 67 70  1  0
 69 56  1  0
 69 66  1  0
 70 68  1  0
 71 72  2  0
 72 91  1  0
 73 72  1  0
 73 76  1  0
 74 71  1  0
 74 75  1  0
 75 73  2  0
 76 77  1  0
 77 78  2  0
 79 82  1  0
 79 78  1  0
 80 79  2  0
 81 80  1  0
 81 76  2  0
 82 83  1  0
 83 84  1  0
 84 85  2  0
 86 85  1  0
 86 90  1  0
 87 86  2  0
 88 83  2  0
 88 87  1  0
 89 88  1  0
 91 92  1  0
 92 95  1  0
 92 94  1  0
 93 91  2  0
 96 97  1  0
 96 71  1  0
 98 96  1  0
M  ISO  4  14 101  15 101  57 100  70 100
M  END
>  <TORSDO>  (66) 
F 19

>  <SCORE>  (66) 
-13.280

>  <name>  (66) 
65

>  <ligand_id>  (66) 
65

>  <original_smiles>  (66) 
[H]c1c([H])c([H])c2c(c1[H])C([H])([H])C([H])([H])C([H])([H])C2([H])N([H])C(=O)C1([H])N(C(=O)C([H])(N([H])C(=O)C([H])(N([H])C([H])([H])[H])C([H])([H])[H])C(C([H])([H])[H])(C([H])([H])[H])C([H])([H])[H])C([H])([H])c2c([H])c(OC([H])([H])c3c([H])c([H])c(OC4([H])C([H])([H])C([H])([H])N(C(=O)N5C([H])([H])C([H])([H])C([H])([H])C([H])(n6nc(-c7c([H])c([H])c(Oc8c([H])c([H])c(F)c([H])c8F)c([H])c7[H])c(C(=O)N([H])[H])c6N([H])[H])C5([H])[H])C([H])([H])C4([H])[H])c(C4([H])C([H])([H])C([H])([H])[N+]([H])([H])C4([H])[H])c3[H])c([H])c([H])c2C1([H])[H]

>  <smiles>  (66) 
[H]c1c([H])c([H])c2c(c1[H])C([H])([H])C([H])([H])C([H])([H])C2([H])N([H])C(=O)C1([H])N(C(=O)C([H])(N([H])C(=O)C([H])(N([H])C([H])([H])[H])C([H])([H])[H])C(C([H])([H])[H])(C([H])([H])[H])C([H])([H])[H])C([H])([H])c2c([H])c(OC([H])([H])c3c([H])c([H])c(OC4([H])C([H])([H])C([H])([H])N(C(=O)N5C([H])([H])C([H])([H])C([H])([H])C([H])(n6nc(-c7c([H])c([H])c(Oc8c([H])c([H])c(F)c([H])c8F)c([H])c7[H])c(C(=O)N([H])[H])c6N([H])[H])C5([H])[H])C([H])([H])C4([H])[H])c(C4([H])C([H])([H])C([H])([H])[N+]([H])([H])C4([H])[H])c3[H])c([H])c([H])c2C1([H])[H]

$$$$
66:0:0
     RDKit          3D

102112  0  0  1  0  0  0  0  0999 V2000
  -30.9750  -21.9220   14.3520 C   0  0  0  0  0  3  0  0  0  0  0  0
  -31.1060  -20.6400   14.9250 C   0  0  0  0  0  3  0  0  0  0  0  0
  -32.4320  -22.8240   16.0660 C   0  0  0  0  0  3  0  0  0  0  0  0
  -31.5900  -23.0420   14.9540 C   0  0  0  0  0  0  0  0  0  0  0  0
  -31.8360  -20.4620   16.1170 C   0  0  0  0  0  0  0  0  0  0  0  0
  -32.5290  -21.5570   16.6830 C   0  0  0  0  0  0  0  0  0  0  0  0
  -29.7640  -24.7670   14.5930 C   0  0  0  0  0  2  0  0  0  0  0  0
  -32.1240  -25.6010   15.0660 C   0  0  0  0  0  2  0  0  0  0  0  0
  -29.4340  -25.9500   15.5300 C   0  0  0  0  0  2  0  0  0  0  0  0
  -31.7010  -26.0240   16.5050 C   0  0  0  0  0  2  0  0  0  0  0  0
  -31.2800  -24.4570   14.4440 C   0  0  0  0  0  3  0  0  0  0  0  0
  -30.2390  -25.8850   16.7740 N   0  0  1  0  0  4  0  0  0  0  0  0
  -30.1180  -24.9420   17.1190 H   0  0  0  0  0  0  0  0  0  0  0  0
  -29.7440  -26.7790   17.8690 C   0  0  0  0  0  2  0  0  0  0  0  0
  -28.8420  -26.0460   18.8920 C   0  0  0  0  0  2  0  0  0  0  0  0
  -28.4930  -26.8930   20.0010 O   0  0  0  0  0  0  0  0  0  0  0  0
  -24.5960  -31.9070   23.2300 C   0  0  0  0  0  0  0  0  0  0  0  0
  -27.2740  -27.5400   20.0300 C   0  0  0  0  0  0  0  0  0  0  0  0
  -23.3840  -30.5060   21.5890 C   0  0  0  0  0  3  0  0  0  0  0  0
  -24.8330  -28.9790   20.1420 C   0  0  0  0  0  0  0  0  0  0  0  0
  -25.9010  -30.8790   21.3740 C   0  0  0  0  0  2  0  0  0  0  0  0
  -25.9920  -29.5150   20.7240 C   0  0  0  0  0  0  0  0  0  0  0  0
  -27.2020  -28.7930   20.6810 C   0  0  0  0  0  3  0  0  0  0  0  0
  -26.0850  -27.0010   19.4760 C   0  0  0  0  0  3  0  0  0  0  0  0
  -24.8720  -27.7170   19.5290 C   0  0  0  0  0  3  0  0  0  0  0  0
  -23.5850  -29.8280   20.2080 C   0  0  0  0  0  2  0  0  0  0  0  0
  -24.6440  -31.1100   22.1240 N   0  0  0  0  0  0  0  0  0  0  0  0
  -23.5200  -32.1690   23.7850 O   0  0  0  0  0  0  0  0  0  0  0  0
  -22.7470  -29.4760   22.5480 C   0  0  0  0  0  0  0  0  0  0  0  0
  -21.4230  -29.2890   22.4250 N   0  0  0  0  0  0  0  0  0  0  0  0
  -23.4410  -28.8460   23.3500 O   0  0  0  0  0  0  0  0  0  0  0  0
  -20.9290  -29.8440   21.7410 H   0  0  0  0  0  0  0  0  0  0  0  0
  -18.0560  -28.0700   22.9310 C   0  0  0  0  0  0  0  0  0  0  0  0
  -20.6160  -28.3410   23.1920 C   0  0  0  0  0  3  0  0  0  0  0  0
  -20.7260  -26.9150   22.6080 C   0  0  0  0  0  2  0  0  0  0  0  0
  -19.6220  -26.5900   21.5970 C   0  0  0  0  0  2  0  0  0  0  0  0
  -18.2410  -26.7250   22.2460 C   0  0  0  0  0  2  0  0  0  0  0  0
  -19.1740  -28.8350   23.3630 C   0  0  0  0  0  0  0  0  0  0  0  0
  -18.9520  -30.0960   23.9570 C   0  0  0  0  0  3  0  0  0  0  0  0
  -17.6470  -30.5910   24.1300 C   0  0  0  0  0  3  0  0  0  0  0  0
  -16.5460  -29.8230   23.7170 C   0  0  0  0  0  3  0  0  0  0  0  0
  -16.7480  -28.5660   23.1210 C   0  0  0  0  0  3  0  0  0  0  0  0
  -25.8880  -32.5350   23.8380 C   0  0  0  0  0  3  0  0  0  0  0  0
  -25.5850  -33.9310   24.1680 N   0  0  0  0  0  0  0  0  0  0  0  0
  -25.9200  -34.9830   23.4110 C   0  0  0  0  0  0  0  0  0  0  0  0
  -26.5920  -34.8810   22.3810 O   0  0  0  0  0  0  0  0  0  0  0  0
  -24.9910  -34.0880   24.9690 H   0  0  0  0  0  0  0  0  0  0  0  0
  -24.2060  -36.7830   23.0440 C   0  0  0  0  0  1  0  0  0  0  0  0
  -25.4350  -36.3720   23.8680 C   0  0  0  0  0  3  0  0  0  0  0  0
  -27.5640  -37.2420   24.7250 C   0  0  0  0  0  1  0  0  0  0  0  0
  -26.4730  -37.4190   23.7700 N   0  0  0  0  0  0  0  0  0  0  0  0
  -26.0690  -38.3380   23.9230 H   0  0  0  0  0  0  0  0  0  0  0  0
  -26.4130  -31.7640   25.1120 C   0  0  1  0  0  0  0  0  0  0  0  0
  -25.3270  -31.5340   26.1890 C   0  0  0  0  0  1  0  0  0  0  0  0
  -26.9920  -30.3850   24.7160 C   0  0  0  0  0  1  0  0  0  0  0  0
  -27.5660  -32.5620   25.7700 C   0  0  0  0  0  1  0  0  0  0  0  0
  -33.6250  -22.4830   18.6100 C   0  0  0  0  0  1  0  0  0  0  0  0
  -33.2660  -21.3460   17.8300 O   0  0  0  0  0  0  0  0  0  0  0  0
  -31.8950  -19.0920   16.7740 C   0  0  0  0  0  2  0  0  0  0  0  0
  -30.8470  -18.8420   17.7320 O   0  0  0  0  0  0  0  0  0  0  0  0
  -30.7040  -14.5950   20.4750 C   0  0  0  0  0  0  0  0  0  0  0  0
  -30.4240  -12.3600   19.5800 C   0  0  0  0  0  2  0  0  0  0  0  0
  -29.5130  -12.4450   18.3380 C   0  0  0  0  0  2  0  0  0  0  0  0
  -28.0360  -12.3190   18.7480 C   0  0  0  0  0  2  0  0  0  0  0  0
  -27.6430  -13.2620   19.9170 C   0  0  0  0  0  3  0  0  0  0  0  0
  -28.6770  -13.2260   21.0650 C   0  0  0  0  0  2  0  0  0  0  0  0
  -30.0070  -13.4350   20.4830 N   0  0  0  0  0  0  0  0  0  0  0  0
  -31.9240  -14.6060   20.6140 O   0  0  0  0  0  0  0  0  0  0  0  0
  -30.1880  -17.9690   19.9930 C   0  0  0  0  0  2  0  0  0  0  0  0
  -32.0030  -16.8510   18.5960 C   0  0  0  0  0  2  0  0  0  0  0  0
  -29.3630  -16.6420   19.9070 C   0  0  0  0  0  2  0  0  0  0  0  0
  -30.9610  -15.7500   18.3390 C   0  0  0  0  0  2  0  0  0  0  0  0
  -31.3040  -18.1850   18.9230 C   0  0  0  0  0  3  0  0  0  0  0  0
  -30.2060  -15.4850   19.5740 N   0  0  0  0  0  0  0  0  0  0  0  0
  -25.2310  -13.8600   20.5860 C   0  0  0  0  0  0  0  0  0  0  0  0
  -24.1570  -13.0820   20.9300 C   0  0  0  0  0  0  0  0  0  0  0  0
  -24.6290  -11.7340   20.9290 C   0  0  0  0  0  0  0  0  0  0  0  0
  -26.2860  -12.9840   20.3890 N   0  0  0  0  0  0  0  0  0  0  0  0
  -25.9280  -11.7020   20.6640 N   0  0  0  0  0  0  0  0  0  0  0  0
  -23.9080  -10.4680   21.1080 C   0  0  0  0  0  0  0  0  0  0  0  0
  -24.3270   -9.5060   22.0530 C   0  0  0  0  0  3  0  0  0  0  0  0
  -23.6040   -8.3040   22.2200 C   0  0  0  0  0  3  0  0  0  0  0  0
  -22.4490   -8.0550   21.4410 C   0  0  0  0  0  0  0  0  0  0  0  0
  -22.0510   -9.0060   20.4830 C   0  0  0  0  0  3  0  0  0  0  0  0
  -22.7760  -10.1980   20.3140 C   0  0  0  0  0  3  0  0  0  0  0  0
  -21.7000   -6.9050   21.5160 O   0  0  0  0  0  0  0  0  0  0  0  0
  -21.6390   -6.1610   22.6670 C   0  0  0  0  0  0  0  0  0  0  0  0
  -21.1810   -6.7100   23.8850 C   0  0  0  0  0  3  0  0  0  0  0  0
  -21.0660   -5.8920   25.0280 C   0  0  0  0  0  3  0  0  0  0  0  0
  -21.3980   -4.5260   24.9520 C   0  0  0  0  0  0  0  0  0  0  0  0
  -21.8510   -3.9770   23.7380 C   0  0  0  0  0  3  0  0  0  0  0  0
  -21.9650   -4.7910   22.5990 C   0  0  0  0  0  0  0  0  0  0  0  0
  -22.3790   -4.2520   21.4270 F   0  0  0  0  0  0  0  0  0  0  0  0
  -21.2820   -3.7380   26.0460 F   0  0  0  0  0  0  0  0  0  0  0  0
  -22.7480  -13.5500   21.1530 C   0  0  0  0  0  0  0  0  0  0  0  0
  -22.0000  -12.8510   21.9990 N   0  0  0  0  0  0  0  0  0  0  0  0
  -22.3140  -14.5630   20.6070 O   0  0  0  0  0  0  0  0  0  0  0  0
  -22.3590  -12.0290   22.4600 H   0  0  0  0  0  0  0  0  0  0  0  0
  -21.0500  -13.1430   22.1890 H   0  0  0  0  0  0  0  0  0  0  0  0
  -25.3960  -15.2300   20.3970 N   0  0  0  0  0  0  0  0  0  0  0  0
  -24.6320  -15.8910   20.4750 H   0  0  0  0  0  0  0  0  0  0  0  0
  -26.2660  -15.6620   20.1050 H   0  0  0  0  0  0  0  0  0  0  0  0
  1  2  2  0
  1  4  1  0
  2  5  1  0
  3  6  1  0
  4  3  2  0
  5  6  2  0
  5 59  1  0
  6 58  1  0
  7  9  1  0
  8 10  1  0
  9 12  1  0
 10 12  1  0
 11  7  1  0
 11  4  1  0
 11  8  1  0
 12 13  1  1
 12 14  1  0
 14 15  1  0
 15 16  1  0
 16 18  1  0
 17 28  2  0
 18 23  1  0
 19 27  1  0
 19 29  1  0
 20 26  1  0
 20 22  1  0
 21 27  1  0
 22 21  1  0
 23 22  2  0
 24 25  1  0
 24 18  2  0
 25 20  2  0
 26 19  1  0
 27 17  1  0
 29 31  2  0
 30 29  1  0
 32 30  1  0
 33 42  2  0
 33 38  1  0
 34 30  1  0
 34 38  1  0
 35 34  1  0
 36 37  1  0
 36 35  1  0
 37 33  1  0
 38 39  2  0
 39 40  1  0
 41 40  2  0
 42 41  1  0
 43 17  1  0
 43 44  1  0
 43 53  1  0
 44 47  1  0
 45 49  1  0
 45 44  1  0
 46 45  2  0
 49 48  1  0
 51 49  1  0
 51 52  1  0
 51 50  1  0
 53 56  1  1
 53 54  1  0
 55 53  1  0
 58 57  1  0
 59 60  1  0
 61 67  1  0
 61 68  2  0
 62 67  1  0
 63 64  1  0
 63 62  1  0
 65 64  1  0
 65 78  1  0
 65 66  1  0
 67 66  1  0
 70 73  1  0
 71 69  1  0
 72 70  1  0
 72 74  1  0
 73 60  1  0
 73 69  1  0
 74 71  1  0
 74 61  1  0
 75 76  2  0
 76 95  1  0
 77 76  1  0
 77 80  1  0
 78 75  1  0
 78 79  1  0
 79 77  2  0
 80 81  1  0
 81 82  2  0
 83 86  1  0
 83 82  1  0
 84 83  2  0
 85 84  1  0
 85 80  2  0
 86 87  1  0
 87 88  1  0
 88 89  2  0
 90 89  1  0
 90 94  1  0
 91 90  2  0
 92 87  2  0
 92 91  1  0
 93 92  1  0
 95 96  1  0
 96 99  1  0
 96 98  1  0
 97 95  2  0
100101  1  0
100 75  1  0
102100  1  0
M  ISO  4  15 101  16 101  61 100  74 100
M  END
>  <TORSDO>  (67) 
F 22

>  <SCORE>  (67) 
-12.879

>  <name>  (67) 
66

>  <ligand_id>  (67) 
66

>  <original_smiles>  (67) 
[H]c1c([H])c([H])c2c(c1[H])C([H])([H])C([H])([H])C([H])([H])C2([H])N([H])C(=O)C1([H])N(C(=O)C([H])(N([H])C(=O)C([H])(N([H])C([H])([H])[H])C([H])([H])[H])C(C([H])([H])[H])(C([H])([H])[H])C([H])([H])[H])C([H])([H])c2c([H])c(OC([H])([H])C([H])([H])[N+]3([H])C([H])([H])C([H])([H])C([H])(c4c([H])c([H])c(C([H])([H])OC5([H])C([H])([H])C([H])([H])N(C(=O)N6C([H])([H])C([H])([H])C([H])([H])C([H])(n7nc(-c8c([H])c([H])c(Oc9c([H])c([H])c(F)c([H])c9F)c([H])c8[H])c(C(=O)N([H])[H])c7N([H])[H])C6([H])[H])C([H])([H])C5([H])[H])c(OC([H])([H])[H])c4[H])C([H])([H])C3([H])[H])c([H])c([H])c2C1([H])[H]

>  <smiles>  (67) 
[H]c1c([H])c([H])c2c(c1[H])C([H])([H])C([H])([H])C([H])([H])C2([H])N([H])C(=O)C1([H])N(C(=O)C([H])(N([H])C(=O)C([H])(N([H])C([H])([H])[H])C([H])([H])[H])C(C([H])([H])[H])(C([H])([H])[H])C([H])([H])[H])C([H])([H])c2c([H])c(OC([H])([H])C([H])([H])[N+]3([H])C([H])([H])C([H])([H])C([H])(c4c([H])c([H])c(C([H])([H])OC5([H])C([H])([H])C([H])([H])N(C(=O)N6C([H])([H])C([H])([H])C([H])([H])C([H])(n7nc(-c8c([H])c([H])c(Oc9c([H])c([H])c(F)c([H])c9F)c([H])c8[H])c(C(=O)N([H])[H])c7N([H])[H])C6([H])[H])C([H])([H])C5([H])[H])c(OC([H])([H])[H])c4[H])C([H])([H])C3([H])[H])c([H])c([H])c2C1([H])[H]

$$$$
67:0:0
     RDKit          3D

103113  0  0  1  0  0  0  0  0999 V2000
  -29.5560  -24.2370   17.0920 C   0  0  0  0  0  2  0  0  0  0  0  0
  -32.1230  -24.2020   17.3450 C   0  0  0  0  0  2  0  0  0  0  0  0
  -29.6850  -25.6520   16.5040 C   0  0  0  0  0  2  0  0  0  0  0  0
  -32.1250  -25.5980   16.7030 C   0  0  0  0  0  2  0  0  0  0  0  0
  -30.8660  -23.4010   16.9440 C   0  0  0  0  0  3  0  0  0  0  0  0
  -30.8790  -26.2780   17.1110 N   0  0  1  0  0  4  0  0  0  0  0  0
  -30.8020  -26.0600   18.0930 H   0  0  0  0  0  0  0  0  0  0  0  0
  -31.4960  -20.9490   17.1760 C   0  0  0  0  0  3  0  0  0  0  0  0
  -30.0890  -21.9280   18.8770 C   0  0  0  0  0  3  0  0  0  0  0  0
  -30.8150  -22.0690   17.6820 C   0  0  0  0  0  0  0  0  0  0  0  0
  -30.5260  -19.5080   18.9210 C   0  0  0  0  0  0  0  0  0  0  0  0
  -31.3800  -19.6820   17.7880 C   0  0  0  0  0  0  0  0  0  0  0  0
  -29.9220  -20.6710   19.4830 C   0  0  0  0  0  0  0  0  0  0  0  0
  -32.1900  -18.5560   17.1610 C   0  0  0  0  0  1  0  0  0  0  0  0
  -29.0400  -20.6390   20.7270 C   0  0  0  0  0  1  0  0  0  0  0  0
  -30.7690  -14.2180   20.3720 C   0  0  0  0  0  0  0  0  0  0  0  0
  -30.4230  -12.0130   19.3570 C   0  0  0  0  0  2  0  0  0  0  0  0
  -29.4730  -12.1590   18.1510 C   0  0  0  0  0  2  0  0  0  0  0  0
  -27.9960  -12.0690   18.5940 C   0  0  0  0  0  2  0  0  0  0  0  0
  -27.6640  -12.9380   19.8390 C   0  0  0  0  0  3  0  0  0  0  0  0
  -28.7460  -12.8080   20.9360 C   0  0  0  0  0  2  0  0  0  0  0  0
  -30.0610  -13.0550   20.3230 N   0  0  0  0  0  0  0  0  0  0  0  0
  -31.9690  -14.2900   20.1070 O   0  0  0  0  0  0  0  0  0  0  0  0
  -29.9660  -16.9740   18.5530 C   0  0  0  0  0  2  0  0  0  0  0  0
  -31.0830  -17.6590   20.6700 C   0  0  0  0  0  2  0  0  0  0  0  0
  -29.2880  -15.8140   19.2830 C   0  0  0  0  0  2  0  0  0  0  0  0
  -30.4510  -16.4370   21.3860 C   0  0  0  0  0  2  0  0  0  0  0  0
  -30.1760  -18.1330   19.5280 C   0  0  0  0  0  3  0  0  0  0  0  0
  -30.0390  -15.3510   20.4730 N   0  0  0  0  0  0  0  0  0  0  0  0
  -25.2960  -13.5970   20.5860 C   0  0  0  0  0  0  0  0  0  0  0  0
  -24.2170  -12.8430   20.9610 C   0  0  0  0  0  0  0  0  0  0  0  0
  -24.6570  -11.4850   20.9300 C   0  0  0  0  0  0  0  0  0  0  0  0
  -26.3220  -12.6930   20.3460 N   0  0  0  0  0  0  0  0  0  0  0  0
  -25.9430  -11.4200   20.6090 N   0  0  0  0  0  0  0  0  0  0  0  0
  -23.9170  -10.2330   21.1190 C   0  0  0  0  0  0  0  0  0  0  0  0
  -24.3460   -9.2490   22.0360 C   0  0  0  0  0  3  0  0  0  0  0  0
  -23.6030   -8.0640   22.2100 C   0  0  0  0  0  3  0  0  0  0  0  0
  -22.4170   -7.8530   21.4670 C   0  0  0  0  0  0  0  0  0  0  0  0
  -22.0070   -8.8250   20.5370 C   0  0  0  0  0  3  0  0  0  0  0  0
  -22.7520  -10.0020   20.3610 C   0  0  0  0  0  3  0  0  0  0  0  0
  -21.6430   -6.7210   21.5570 O   0  0  0  0  0  0  0  0  0  0  0  0
  -21.6220   -5.9570   22.6960 C   0  0  0  0  0  0  0  0  0  0  0  0
  -21.2300   -6.4870   23.9450 C   0  0  0  0  0  3  0  0  0  0  0  0
  -21.1580   -5.6490   25.0750 C   0  0  0  0  0  3  0  0  0  0  0  0
  -21.4620   -4.2800   24.9560 C   0  0  0  0  0  0  0  0  0  0  0  0
  -21.8460   -3.7480   23.7130 C   0  0  0  0  0  3  0  0  0  0  0  0
  -21.9220   -4.5850   22.5850 C   0  0  0  0  0  0  0  0  0  0  0  0
  -22.2720   -4.0630   21.3850 F   0  0  0  0  0  0  0  0  0  0  0  0
  -21.3800   -3.4720   26.0390 F   0  0  0  0  0  0  0  0  0  0  0  0
  -22.8280  -13.3440   21.2320 C   0  0  0  0  0  0  0  0  0  0  0  0
  -22.0860  -12.6610   22.0970 N   0  0  0  0  0  0  0  0  0  0  0  0
  -22.4090  -14.3770   20.7140 O   0  0  0  0  0  0  0  0  0  0  0  0
  -22.4340  -11.8280   22.5490 H   0  0  0  0  0  0  0  0  0  0  0  0
  -21.1500  -12.9770   22.3100 H   0  0  0  0  0  0  0  0  0  0  0  0
  -25.4770  -14.9630   20.4090 N   0  0  0  0  0  0  0  0  0  0  0  0
  -24.7160  -15.6230   20.5250 H   0  0  0  0  0  0  0  0  0  0  0  0
  -26.3420  -15.3990   20.1150 H   0  0  0  0  0  0  0  0  0  0  0  0
  -30.9270  -27.7570   17.1420 C   0  0  0  0  0  2  0  0  0  0  0  0
  -30.1090  -28.2820   18.3390 C   0  0  0  0  0  3  0  0  0  0  0  0
  -30.5160  -29.6170   18.6110 O   0  0  0  0  0  0  0  0  0  0  0  0
  -29.9310  -29.9760   19.2720 H   0  0  0  0  0  0  0  0  0  0  0  0
  -30.2400  -27.4020   19.6350 C   0  0  0  0  0  2  0  0  0  0  0  0
  -29.1010  -26.5490   19.8440 O   0  0  0  0  0  0  0  0  0  0  0  0
  -25.0580  -31.4540   23.0650 C   0  0  0  0  0  0  0  0  0  0  0  0
  -27.8930  -27.1920   19.9640 C   0  0  0  0  0  0  0  0  0  0  0  0
  -23.9220  -30.0880   21.3310 C   0  0  0  0  0  3  0  0  0  0  0  0
  -25.4480  -28.5950   19.9360 C   0  0  0  0  0  0  0  0  0  0  0  0
  -26.4350  -30.4930   21.2370 C   0  0  0  0  0  2  0  0  0  0  0  0
  -26.5600  -29.1350   20.5890 C   0  0  0  0  0  0  0  0  0  0  0  0
  -27.7710  -28.4320   20.6270 C   0  0  0  0  0  3  0  0  0  0  0  0
  -26.7580  -26.6290   19.3450 C   0  0  0  0  0  3  0  0  0  0  0  0
  -25.5330  -27.3330   19.3230 C   0  0  0  0  0  3  0  0  0  0  0  0
  -24.1920  -29.4340   19.9460 C   0  0  0  0  0  2  0  0  0  0  0  0
  -25.1520  -30.6940   21.9390 N   0  0  0  0  0  0  0  0  0  0  0  0
  -23.9570  -31.7010   23.5780 O   0  0  0  0  0  0  0  0  0  0  0  0
  -23.2500  -29.0390   22.2410 C   0  0  0  0  0  0  0  0  0  0  0  0
  -21.9250  -28.8960   22.0940 N   0  0  0  0  0  0  0  0  0  0  0  0
  -23.9180  -28.3560   23.0220 O   0  0  0  0  0  0  0  0  0  0  0  0
  -21.4590  -29.5000   21.4320 H   0  0  0  0  0  0  0  0  0  0  0  0
  -18.5110  -27.8070   22.5570 C   0  0  0  0  0  0  0  0  0  0  0  0
  -21.0780  -27.9440   22.8120 C   0  0  0  0  0  3  0  0  0  0  0  0
  -21.1170  -26.5510   22.1420 C   0  0  0  0  0  2  0  0  0  0  0  0
  -19.9950  -26.3430   21.1200 C   0  0  0  0  0  2  0  0  0  0  0  0
  -18.6280  -26.4990   21.7900 C   0  0  0  0  0  2  0  0  0  0  0  0
  -19.6640  -28.4950   23.0210 C   0  0  0  0  0  0  0  0  0  0  0  0
  -19.5030  -29.7240   23.6960 C   0  0  0  0  0  3  0  0  0  0  0  0
  -18.2210  -30.2670   23.9080 C   0  0  0  0  0  3  0  0  0  0  0  0
  -17.0840  -29.5750   23.4560 C   0  0  0  0  0  3  0  0  0  0  0  0
  -17.2300  -28.3480   22.7870 C   0  0  0  0  0  3  0  0  0  0  0  0
  -26.3200  -32.0670   23.7510 C   0  0  0  0  0  3  0  0  0  0  0  0
  -25.9840  -33.4370   24.1530 N   0  0  0  0  0  0  0  0  0  0  0  0
  -26.2980  -34.5340   23.4510 C   0  0  0  0  0  0  0  0  0  0  0  0
  -26.9710  -34.5010   22.4160 O   0  0  0  0  0  0  0  0  0  0  0  0
  -25.3830  -33.5380   24.9600 H   0  0  0  0  0  0  0  0  0  0  0  0
  -24.5180  -36.2940   23.1900 C   0  0  0  0  0  1  0  0  0  0  0  0
  -25.7730  -35.8840   23.9780 C   0  0  0  0  0  3  0  0  0  0  0  0
  -27.8890  -36.7880   24.8430 C   0  0  0  0  0  1  0  0  0  0  0  0
  -26.7770  -36.9710   23.9140 N   0  0  0  0  0  0  0  0  0  0  0  0
  -26.3480  -37.8740   24.1010 H   0  0  0  0  0  0  0  0  0  0  0  0
  -26.8360  -31.2270   24.9870 C   0  0  1  0  0  0  0  0  0  0  0  0
  -25.7330  -30.8970   26.0170 C   0  0  0  0  0  1  0  0  0  0  0  0
  -27.4540  -29.8890   24.5200 C   0  0  0  0  0  1  0  0  0  0  0  0
  -27.9570  -32.0020   25.7190 C   0  0  0  0  0  1  0  0  0  0  0  0
  3  1  1  0
  3  6  1  0
  4  6  1  0
  4  2  1  0
  5  1  1  0
  5  2  1  0
  5 10  1  0
  6 58  1  0
  6  7  1  1
  8 10  2  0
  8 12  1  0
  9 13  2  0
 10  9  1  0
 11 13  1  0
 12 11  2  0
 13 15  1  0
 14 12  1  0
 16 29  1  0
 17 22  1  0
 18 19  1  0
 18 17  1  0
 20 19  1  0
 20 33  1  0
 20 21  1  0
 22 16  1  0
 22 21  1  0
 23 16  2  0
 24 26  1  0
 24 28  1  0
 25 27  1  0
 26 29  1  0
 28 11  1  0
 28 25  1  0
 29 27  1  0
 30 31  2  0
 31 50  1  0
 32 31  1  0
 32 35  1  0
 33 30  1  0
 33 34  1  0
 34 32  2  0
 35 36  1  0
 36 37  2  0
 38 41  1  0
 38 37  1  0
 39 38  2  0
 40 39  1  0
 40 35  2  0
 41 42  1  0
 42 43  1  0
 43 44  2  0
 45 44  1  0
 45 49  1  0
 46 45  2  0
 47 42  2  0
 47 46  1  0
 48 47  1  0
 50 51  1  0
 51 54  1  0
 51 53  1  0
 52 50  2  0
 55 56  1  0
 55 30  1  0
 57 55  1  0
 59 58  1  0
 59 60  1  0
 59 62  1  0
 60 61  1  0
 62 63  1  0
 63 65  1  0
 64 75  2  0
 65 70  1  0
 66 74  1  0
 66 76  1  0
 67 73  1  0
 67 69  1  0
 68 74  1  0
 69 70  2  0
 69 68  1  0
 71 65  2  0
 72 71  1  0
 72 67  2  0
 73 66  1  0
 74 64  1  0
 76 78  2  0
 77 76  1  0
 79 77  1  0
 80 89  2  0
 80 85  1  0
 81 77  1  0
 81 85  1  0
 82 81  1  0
 83 84  1  0
 83 82  1  0
 84 80  1  0
 85 86  2  0
 86 87  1  0
 88 87  2  0
 89 88  1  0
 90 64  1  0
 90 91  1  0
 90100  1  0
 91 94  1  0
 92 96  1  0
 92 91  1  0
 93 92  2  0
 96 95  1  0
 98 96  1  0
 98 99  1  0
 98 97  1  0
100103  1  1
100101  1  0
102100  1  0
M  ISO  4  16 100  29 100  62 101  63 101
M  END
>  <TORSDO>  (68) 
F 21

>  <SCORE>  (68) 
-10.818

>  <name>  (68) 
67

>  <ligand_id>  (68) 
67

>  <original_smiles>  (68) 
[H]OC([H])(C([H])([H])Oc1c([H])c([H])c2c(c1[H])C([H])([H])N(C(=O)C([H])(N([H])C(=O)C([H])(N([H])C([H])([H])[H])C([H])([H])[H])C(C([H])([H])[H])(C([H])([H])[H])C([H])([H])[H])C([H])(C(=O)N([H])C1([H])c3c([H])c([H])c([H])c([H])c3C([H])([H])C([H])([H])C1([H])[H])C2([H])[H])C([H])([H])[N+]1([H])C([H])([H])C([H])([H])C([H])(c2c([H])c(C([H])([H])[H])c(C3([H])C([H])([H])C([H])([H])N(C(=O)N4C([H])([H])C([H])([H])C([H])([H])C([H])(n5nc(-c6c([H])c([H])c(Oc7c([H])c([H])c(F)c([H])c7F)c([H])c6[H])c(C(=O)N([H])[H])c5N([H])[H])C4([H])[H])C([H])([H])C3([H])[H])c(C([H])([H])[H])c2[H])C([H])([H])C1([H])[H]

>  <smiles>  (68) 
[H]OC([H])(C([H])([H])Oc1c([H])c([H])c2c(c1[H])C([H])([H])N(C(=O)C([H])(N([H])C(=O)C([H])(N([H])C([H])([H])[H])C([H])([H])[H])C(C([H])([H])[H])(C([H])([H])[H])C([H])([H])[H])C([H])(C(=O)N([H])C1([H])c3c([H])c([H])c([H])c([H])c3C([H])([H])C([H])([H])C1([H])[H])C2([H])[H])C([H])([H])[N+]1([H])C([H])([H])C([H])([H])C([H])(c2c([H])c(C([H])([H])[H])c(C3([H])C([H])([H])C([H])([H])N(C(=O)N4C([H])([H])C([H])([H])C([H])([H])C([H])(n5nc(-c6c([H])c([H])c(Oc7c([H])c([H])c(F)c([H])c7F)c([H])c6[H])c(C(=O)N([H])[H])c5N([H])[H])C4([H])[H])C([H])([H])C3([H])[H])c(C([H])([H])[H])c2[H])C([H])([H])C1([H])[H]

$$$$
68:0:0
     RDKit          3D

 92101  0  0  1  0  0  0  0  0999 V2000
  -29.9180  -19.1000   18.4120 C   0  0  0  0  0  3  0  0  0  0  0  0
  -29.5140  -18.5900   21.1310 C   0  0  0  0  0  3  0  0  0  0  0  0
  -29.5830  -20.1700   19.2720 C   0  0  0  0  0  0  0  0  0  0  0  0
  -30.0350  -17.7620   18.9030 C   0  0  0  0  0  0  0  0  0  0  0  0
  -29.8530  -17.4420   20.2910 C   0  0  0  0  0  0  0  0  0  0  0  0
  -29.3930  -19.9470   20.6150 C   0  0  0  0  0  0  0  0  0  0  0  0
  -29.3680  -21.6490   18.9520 C   0  0  0  0  0  3  0  0  0  0  0  0
  -30.2900  -16.6780   17.8680 C   0  0  0  0  0  1  0  0  0  0  0  0
  -28.4840  -21.8730   17.7190 C   0  0  0  0  0  1  0  0  0  0  0  0
  -28.7140  -22.2020   20.1600 N   0  0  0  0  0  0  0  0  0  0  0  0
  -29.0870  -21.1800   21.2330 O   0  0  0  0  0  0  0  0  0  0  0  0
  -30.6450  -14.8990   20.5350 C   0  0  0  0  0  0  0  0  0  0  0  0
  -30.5490  -12.5760   19.5970 C   0  0  0  0  0  2  0  0  0  0  0  0
  -29.6600  -12.5850   18.3320 C   0  0  0  0  0  2  0  0  0  0  0  0
  -28.1760  -12.4000   18.7050 C   0  0  0  0  0  2  0  0  0  0  0  0
  -27.7390  -13.3080   19.8840 C   0  0  0  0  0  3  0  0  0  0  0  0
  -28.7510  -13.2690   21.0500 C   0  0  0  0  0  2  0  0  0  0  0  0
  -30.0630  -13.6450   20.5050 N   0  0  0  0  0  0  0  0  0  0  0  0
  -31.8340  -15.0120   20.2210 O   0  0  0  0  0  0  0  0  0  0  0  0
  -29.8410  -16.0170   20.7850 N   0  0  0  0  0  0  0  0  0  0  0  0
  -28.9910  -15.7680   21.2690 H   0  0  0  0  0  0  0  0  0  0  0  0
  -25.3180  -13.8730   20.5170 C   0  0  0  0  0  0  0  0  0  0  0  0
  -24.2490  -13.0900   20.8560 C   0  0  0  0  0  0  0  0  0  0  0  0
  -24.7300  -11.7440   20.8590 C   0  0  0  0  0  0  0  0  0  0  0  0
  -26.3810  -13.0050   20.3290 N   0  0  0  0  0  0  0  0  0  0  0  0
  -26.0320  -11.7210   20.5990 N   0  0  0  0  0  0  0  0  0  0  0  0
  -24.0130  -10.4760   21.0380 C   0  0  0  0  0  0  0  0  0  0  0  0
  -24.4180   -9.5250   22.0010 C   0  0  0  0  0  3  0  0  0  0  0  0
  -23.6990   -8.3220   22.1670 C   0  0  0  0  0  3  0  0  0  0  0  0
  -22.5600   -8.0590   21.3690 C   0  0  0  0  0  0  0  0  0  0  0  0
  -22.1750   -8.9980   20.3960 C   0  0  0  0  0  3  0  0  0  0  0  0
  -22.8940  -10.1930   20.2280 C   0  0  0  0  0  3  0  0  0  0  0  0
  -21.8160   -6.9060   21.4420 O   0  0  0  0  0  0  0  0  0  0  0  0
  -21.7190   -6.1860   22.6050 C   0  0  0  0  0  0  0  0  0  0  0  0
  -21.2100   -6.7540   23.7930 C   0  0  0  0  0  3  0  0  0  0  0  0
  -21.0610   -5.9580   24.9470 C   0  0  0  0  0  3  0  0  0  0  0  0
  -21.4110   -4.5950   24.9130 C   0  0  0  0  0  0  0  0  0  0  0  0
  -21.9130   -4.0260   23.7290 C   0  0  0  0  0  3  0  0  0  0  0  0
  -22.0620   -4.8190   22.5770 C   0  0  0  0  0  0  0  0  0  0  0  0
  -22.5260   -4.2610   21.4330 F   0  0  0  0  0  0  0  0  0  0  0  0
  -21.2620   -3.8280   26.0180 F   0  0  0  0  0  0  0  0  0  0  0  0
  -22.8370  -13.5520   21.0680 C   0  0  0  0  0  0  0  0  0  0  0  0
  -22.0840  -12.8570   21.9140 N   0  0  0  0  0  0  0  0  0  0  0  0
  -22.4080  -14.5670   20.5200 O   0  0  0  0  0  0  0  0  0  0  0  0
  -22.4450  -12.0370   22.3810 H   0  0  0  0  0  0  0  0  0  0  0  0
  -21.1360  -13.1500   22.1000 H   0  0  0  0  0  0  0  0  0  0  0  0
  -25.4720  -15.2440   20.3280 N   0  0  0  0  0  0  0  0  0  0  0  0
  -24.6910  -15.8870   20.4010 H   0  0  0  0  0  0  0  0  0  0  0  0
  -26.3230  -15.6900   20.0100 H   0  0  0  0  0  0  0  0  0  0  0  0
  -29.0150  -23.6570   20.5510 C   0  0  0  0  0  3  0  0  0  0  0  0
  -28.0820  -24.8890   19.9890 C   0  0  0  0  0  3  0  0  0  0  0  0
  -28.3010  -26.3720   20.2660 O   0  0  0  0  0  0  0  0  0  0  0  0
  -24.6020  -31.9090   23.2430 C   0  0  0  0  0  0  0  0  0  0  0  0
  -27.2160  -27.2940   20.1840 C   0  0  0  0  0  0  0  0  0  0  0  0
  -23.4050  -30.5100   21.6020 C   0  0  0  0  0  3  0  0  0  0  0  0
  -24.8610  -28.9630   20.1660 C   0  0  0  0  0  0  0  0  0  0  0  0
  -25.9500  -30.8160   21.4260 C   0  0  0  0  0  2  0  0  0  0  0  0
  -26.0320  -29.4340   20.7720 C   0  0  0  0  0  0  0  0  0  0  0  0
  -27.2110  -28.6110   20.7700 C   0  0  0  0  0  3  0  0  0  0  0  0
  -26.0220  -26.9110   19.5310 C   0  0  0  0  0  3  0  0  0  0  0  0
  -24.8630  -27.7120   19.5320 C   0  0  0  0  0  3  0  0  0  0  0  0
  -23.6230  -29.8400   20.2190 C   0  0  0  0  0  2  0  0  0  0  0  0
  -24.6720  -31.0970   22.1450 N   0  0  0  0  0  0  0  0  0  0  0  0
  -23.5160  -32.1830   23.7770 O   0  0  0  0  0  0  0  0  0  0  0  0
  -22.7430  -29.4900   22.5600 C   0  0  0  0  0  0  0  0  0  0  0  0
  -21.4180  -29.3000   22.4260 N   0  0  0  0  0  0  0  0  0  0  0  0
  -23.4200  -28.8750   23.3880 O   0  0  0  0  0  0  0  0  0  0  0  0
  -20.9280  -29.8480   21.7330 H   0  0  0  0  0  0  0  0  0  0  0  0
  -18.0530  -28.0530   22.9010 C   0  0  0  0  0  0  0  0  0  0  0  0
  -20.6040  -28.3550   23.1950 C   0  0  0  0  0  3  0  0  0  0  0  0
  -20.7330  -26.9210   22.6310 C   0  0  0  0  0  2  0  0  0  0  0  0
  -19.6480  -26.5740   21.6080 C   0  0  0  0  0  2  0  0  0  0  0  0
  -18.2570  -26.7020   22.2370 C   0  0  0  0  0  2  0  0  0  0  0  0
  -19.1550  -28.8360   23.3370 C   0  0  0  0  0  0  0  0  0  0  0  0
  -18.9090  -30.0980   23.9200 C   0  0  0  0  0  3  0  0  0  0  0  0
  -17.5950  -30.5790   24.0700 C   0  0  0  0  0  3  0  0  0  0  0  0
  -16.5070  -29.7950   23.6500 C   0  0  0  0  0  3  0  0  0  0  0  0
  -16.7370  -28.5330   23.0710 C   0  0  0  0  0  3  0  0  0  0  0  0
  -25.8800  -32.5490   23.8660 C   0  0  0  0  0  3  0  0  0  0  0  0
  -25.5700  -33.9520   24.1780 N   0  0  0  0  0  0  0  0  0  0  0  0
  -25.9040  -34.9960   23.4090 C   0  0  0  0  0  0  0  0  0  0  0  0
  -26.5750  -34.8800   22.3790 O   0  0  0  0  0  0  0  0  0  0  0  0
  -24.9740  -34.1150   24.9760 H   0  0  0  0  0  0  0  0  0  0  0  0
  -24.1830  -36.7920   23.0310 C   0  0  0  0  0  1  0  0  0  0  0  0
  -25.4200  -36.3910   23.8510 C   0  0  0  0  0  3  0  0  0  0  0  0
  -27.5520  -37.2810   24.6850 C   0  0  0  0  0  1  0  0  0  0  0  0
  -26.4560  -37.4400   23.7310 N   0  0  0  0  0  0  0  0  0  0  0  0
  -26.0520  -38.3630   23.8630 H   0  0  0  0  0  0  0  0  0  0  0  0
  -26.3840  -31.7940   25.1580 C   0  0  1  0  0  0  0  0  0  0  0  0
  -25.2810  -31.5740   26.2210 C   0  0  0  0  0  1  0  0  0  0  0  0
  -26.9660  -30.4090   24.7940 C   0  0  0  0  0  1  0  0  0  0  0  0
  -27.5310  -32.5950   25.8180 C   0  0  0  0  0  1  0  0  0  0  0  0
  1  4  2  0
  1  3  1  0
  3  6  2  0
  4  5  1  0
  5 20  1  0
  5  2  2  0
  6  2  1  0
  6 11  1  0
  7  9  1  0
  7  3  1  0
  7 10  1  0
  8  4  1  0
 10 50  1  0
 10 11  1  0
 12 20  1  0
 13 18  1  0
 14 15  1  0
 14 13  1  0
 16 15  1  0
 16 25  1  0
 16 17  1  0
 18 12  1  0
 18 17  1  0
 19 12  2  0
 20 21  1  0
 22 23  2  0
 23 24  1  0
 23 42  1  0
 24 27  1  0
 25 22  1  0
 25 26  1  0
 26 24  2  0
 27 28  1  0
 28 29  2  0
 30 33  1  0
 30 29  1  0
 31 30  2  0
 32 31  1  0
 32 27  2  0
 33 34  1  0
 34 35  1  0
 35 36  2  0
 37 36  1  0
 37 41  1  0
 38 37  2  0
 39 34  2  0
 39 38  1  0
 40 39  1  0
 42 43  1  0
 43 46  1  0
 43 45  1  0
 44 42  2  0
 47 48  1  0
 47 22  1  0
 49 47  1  0
 51 52  1  0
 51 50  2  0
 53 64  2  0
 54 52  1  0
 54 59  1  0
 55 63  1  0
 55 65  1  0
 56 62  1  0
 56 58  1  0
 57 63  1  0
 58 57  1  0
 59 58  2  0
 60 61  1  0
 60 54  2  0
 61 56  2  0
 62 55  1  0
 63 53  1  0
 65 67  2  0
 66 65  1  0
 68 66  1  0
 69 78  2  0
 69 74  1  0
 70 66  1  0
 70 74  1  0
 71 70  1  0
 72 73  1  0
 72 71  1  0
 73 69  1  0
 74 75  2  0
 75 76  1  0
 77 76  2  0
 78 77  1  0
 79 53  1  0
 79 80  1  0
 79 89  1  0
 80 83  1  0
 81 85  1  0
 81 80  1  0
 82 81  2  0
 85 84  1  0
 87 85  1  0
 87 88  1  0
 87 86  1  0
 89 92  1  1
 89 90  1  0
 91 89  1  0
M  ISO  4  12 100  20 100  51 101  52 101
M  END
>  <TORSDO>  (69) 
F 18

>  <SCORE>  (69) 
-14.015

>  <name>  (69) 
68

>  <ligand_id>  (69) 
68

>  <original_smiles>  (69) 
[H]c1c([H])c([H])c2c(c1[H])C([H])([H])C([H])([H])C([H])([H])C2([H])N([H])C(=O)C1([H])N(C(=O)C([H])(N([H])C(=O)C([H])(N([H])C([H])([H])[H])C([H])([H])[H])C(C([H])([H])[H])(C([H])([H])[H])C([H])([H])[H])C([H])([H])c2c([H])c(OC([H])([H])C([H])([H])N3Oc4c([H])c(N([H])C(=O)N5C([H])([H])C([H])([H])C([H])([H])C([H])(n6nc(-c7c([H])c([H])c(Oc8c([H])c([H])c(F)c([H])c8F)c([H])c7[H])c(C(=O)N([H])[H])c6N([H])[H])C5([H])[H])c(C([H])([H])[H])c([H])c4C3([H])C([H])([H])[H])c([H])c([H])c2C1([H])[H]

>  <smiles>  (69) 
[H]c1c([H])c([H])c2c(c1[H])C([H])([H])C([H])([H])C([H])([H])C2([H])N([H])C(=O)C1([H])N(C(=O)C([H])(N([H])C(=O)C([H])(N([H])C([H])([H])[H])C([H])([H])[H])C(C([H])([H])[H])(C([H])([H])[H])C([H])([H])[H])C([H])([H])c2c([H])c(OC([H])([H])C([H])([H])N3Oc4c([H])c(N([H])C(=O)N5C([H])([H])C([H])([H])C([H])([H])C([H])(n6nc(-c7c([H])c([H])c(Oc8c([H])c([H])c(F)c([H])c8F)c([H])c7[H])c(C(=O)N([H])[H])c6N([H])[H])C5([H])[H])c(C([H])([H])[H])c([H])c4C3([H])C([H])([H])[H])c([H])c([H])c2C1([H])[H]

$$$$
69:0:0
     RDKit          3D

 99109  0  0  1  0  0  0  0  0999 V2000
  -28.8660  -19.0450   20.8710 C   0  0  0  0  0  3  0  0  0  0  0  0
  -29.6750  -21.5880   21.6960 C   0  0  0  0  0  3  0  0  0  0  0  0
  -30.1810  -19.2230   21.3530 C   0  0  0  0  0  0  0  0  0  0  0  0
  -27.9870  -20.1330   20.7060 C   0  0  0  0  0  0  0  0  0  0  0  0
  -30.5480  -20.5000   21.8650 C   0  0  0  0  0  0  0  0  0  0  0  0
  -28.4350  -21.4350   21.0510 C   0  0  0  0  0  0  0  0  0  0  0  0
  -26.6270  -19.8680   20.0770 C   0  0  0  0  0  1  0  0  0  0  0  0
  -31.8630  -20.8040   22.5690 C   0  0  0  0  0  1  0  0  0  0  0  0
  -32.2440  -14.4530   19.2280 C   0  0  0  0  0  0  0  0  0  0  0  0
  -31.6110  -12.1860   18.5010 C   0  0  0  0  0  2  0  0  0  0  0  0
  -30.5010  -12.2120   17.4320 C   0  0  0  0  0  2  0  0  0  0  0  0
  -29.1140  -12.1530   18.0950 C   0  0  0  0  0  2  0  0  0  0  0  0
  -28.9640  -13.2370   19.1920 C   0  0  0  0  0  3  0  0  0  0  0  0
  -30.1760  -13.2200   20.1460 C   0  0  0  0  0  2  0  0  0  0  0  0
  -31.4360  -13.3600   19.3840 N   0  0  0  0  0  0  0  0  0  0  0  0
  -33.0910  -14.4770   18.3290 O   0  0  0  0  0  0  0  0  0  0  0  0
  -30.6880  -16.6960   21.6820 C   0  0  0  0  0  2  0  0  0  0  0  0
  -31.7050  -17.9830   19.7320 C   0  0  0  0  0  2  0  0  0  0  0  0
  -31.7930  -15.6340   21.4410 C   0  0  0  0  0  2  0  0  0  0  0  0
  -32.7030  -16.8340   19.5630 C   0  0  0  0  0  2  0  0  0  0  0  0
  -31.1830  -18.0750   21.1870 C   0  0  0  0  0  3  0  0  0  0  0  0
  -32.0830  -15.5640   19.9970 N   0  0  0  0  0  0  0  0  0  0  0  0
  -26.9920  -14.0540   20.6470 C   0  0  0  0  0  0  0  0  0  0  0  0
  -25.8610  -13.4180   21.0970 C   0  0  0  0  0  0  0  0  0  0  0  0
  -25.9680  -12.0680   20.6440 C   0  0  0  0  0  0  0  0  0  0  0  0
  -27.7110  -13.1010   19.9400 N   0  0  0  0  0  0  0  0  0  0  0  0
  -27.1150  -11.8840   20.0020 N   0  0  0  0  0  0  0  0  0  0  0  0
  -25.0150  -10.9510   20.7370 C   0  0  0  0  0  0  0  0  0  0  0  0
  -25.3340   -9.7580   21.4220 C   0  0  0  0  0  3  0  0  0  0  0  0
  -24.3910   -8.7110   21.5160 C   0  0  0  0  0  3  0  0  0  0  0  0
  -23.1160   -8.8510   20.9210 C   0  0  0  0  0  0  0  0  0  0  0  0
  -22.8090  -10.0300   20.2240 C   0  0  0  0  0  3  0  0  0  0  0  0
  -23.7490  -11.0710   20.1280 C   0  0  0  0  0  3  0  0  0  0  0  0
  -22.1500   -7.8740   20.9330 O   0  0  0  0  0  0  0  0  0  0  0  0
  -21.9720   -7.0510   22.0130 C   0  0  0  0  0  0  0  0  0  0  0  0
  -21.6750   -7.5690   23.2930 C   0  0  0  0  0  3  0  0  0  0  0  0
  -21.4320   -6.6920   24.3680 C   0  0  0  0  0  3  0  0  0  0  0  0
  -21.4660   -5.2990   24.1620 C   0  0  0  0  0  0  0  0  0  0  0  0
  -21.7560   -4.7830   22.8870 C   0  0  0  0  0  3  0  0  0  0  0  0
  -22.0080   -5.6570   21.8140 C   0  0  0  0  0  0  0  0  0  0  0  0
  -22.2730   -5.1580   20.5810 F   0  0  0  0  0  0  0  0  0  0  0  0
  -21.2240   -4.4520   25.1870 F   0  0  0  0  0  0  0  0  0  0  0  0
  -24.7030  -14.0510   21.8150 C   0  0  0  0  0  0  0  0  0  0  0  0
  -24.0610  -13.3100   22.7140 N   0  0  0  0  0  0  0  0  0  0  0  0
  -24.3890  -15.2250   21.6190 O   0  0  0  0  0  0  0  0  0  0  0  0
  -24.3330  -12.3540   22.8980 H   0  0  0  0  0  0  0  0  0  0  0  0
  -23.2730  -13.7010   23.2080 H   0  0  0  0  0  0  0  0  0  0  0  0
  -27.4420  -15.3630   20.7790 N   0  0  0  0  0  0  0  0  0  0  0  0
  -26.9540  -16.0210   21.3760 H   0  0  0  0  0  0  0  0  0  0  0  0
  -28.2800  -15.7500   20.3610 H   0  0  0  0  0  0  0  0  0  0  0  0
  -27.7290  -22.5830   20.6730 N   0  0  0  0  0  0  0  0  0  0  0  0
  -26.8510  -22.3800   20.2100 H   0  0  0  0  0  0  0  0  0  0  0  0
  -28.3070  -24.9520   20.4230 C   0  0  0  0  0  2  0  0  0  0  0  0
  -28.1800  -23.3840   18.3640 C   0  0  0  0  0  2  0  0  0  0  0  0
  -28.7520  -26.0540   19.4440 C   0  0  0  0  0  2  0  0  0  0  0  0
  -28.6040  -24.5670   17.4710 C   0  0  0  0  0  2  0  0  0  0  0  0
  -28.5270  -23.5260   19.8790 C   0  0  0  0  0  3  0  0  0  0  0  0
  -28.0340  -25.8390   18.0930 C   0  0  0  0  0  3  0  0  0  0  0  0
  -27.9950  -27.0100   17.2450 O   0  0  0  0  0  0  0  0  0  0  0  0
  -25.4230  -29.7720   23.1880 C   0  0  0  0  0  0  0  0  0  0  0  0
  -27.0640  -27.8970   17.7340 C   0  0  0  0  0  0  0  0  0  0  0  0
  -23.8840  -29.7570   21.2520 C   0  0  0  0  0  3  0  0  0  0  0  0
  -24.9620  -29.2990   18.9840 C   0  0  0  0  0  0  0  0  0  0  0  0
  -26.4160  -29.9450   20.9130 C   0  0  0  0  0  2  0  0  0  0  0  0
  -26.2320  -29.2590   19.5770 C   0  0  0  0  0  0  0  0  0  0  0  0
  -27.2900  -28.5690   18.9520 C   0  0  0  0  0  3  0  0  0  0  0  0
  -25.7990  -28.0080   17.1140 C   0  0  0  0  0  3  0  0  0  0  0  0
  -24.7450  -28.6890   17.7400 C   0  0  0  0  0  3  0  0  0  0  0  0
  -23.8770  -30.0440   19.7250 C   0  0  0  0  0  2  0  0  0  0  0  0
  -25.2650  -29.7970   21.8340 N   0  0  0  0  0  0  0  0  0  0  0  0
  -24.4420  -29.7620   23.9450 O   0  0  0  0  0  0  0  0  0  0  0  0
  -23.1440  -28.4230   21.5060 C   0  0  0  0  0  0  0  0  0  0  0  0
  -21.8120  -28.4390   21.3420 N   0  0  0  0  0  0  0  0  0  0  0  0
  -23.7620  -27.4040   21.8220 O   0  0  0  0  0  0  0  0  0  0  0  0
  -21.3750  -29.3190   21.1010 H   0  0  0  0  0  0  0  0  0  0  0  0
  -18.3610  -27.4010   21.0740 C   0  0  0  0  0  0  0  0  0  0  0  0
  -20.9120  -27.2950   21.4910 C   0  0  0  0  0  3  0  0  0  0  0  0
  -20.9740  -26.3660   20.2600 C   0  0  0  0  0  2  0  0  0  0  0  0
  -19.9110  -26.6930   19.2030 C   0  0  0  0  0  2  0  0  0  0  0  0
  -18.5060  -26.5800   19.8040 C   0  0  0  0  0  2  0  0  0  0  0  0
  -19.4930  -27.7470   21.8570 C   0  0  0  0  0  0  0  0  0  0  0  0
  -19.3080  -28.5380   23.0130 C   0  0  0  0  0  3  0  0  0  0  0  0
  -18.0210  -28.9710   23.3870 C   0  0  0  0  0  3  0  0  0  0  0  0
  -16.9020  -28.6100   22.6160 C   0  0  0  0  0  3  0  0  0  0  0  0
  -17.0740  -27.8250   21.4630 C   0  0  0  0  0  3  0  0  0  0  0  0
  -26.8380  -29.7850   23.8460 C   0  0  0  0  0  3  0  0  0  0  0  0
  -26.7700  -30.6400   25.0370 N   0  0  0  0  0  0  0  0  0  0  0  0
  -27.3100  -31.8620   25.1220 C   0  0  0  0  0  0  0  0  0  0  0  0
  -27.9930  -32.3600   24.2220 O   0  0  0  0  0  0  0  0  0  0  0  0
  -26.1830  -30.3190   25.7920 H   0  0  0  0  0  0  0  0  0  0  0  0
  -25.9850  -33.7380   26.1390 C   0  0  0  0  0  1  0  0  0  0  0  0
  -27.0480  -32.6610   26.4120 C   0  0  0  0  0  3  0  0  0  0  0  0
  -29.2210  -32.3120   27.4950 C   0  0  0  0  0  1  0  0  0  0  0  0
  -28.2660  -33.2860   26.9720 N   0  0  0  0  0  0  0  0  0  0  0  0
  -28.0300  -33.9290   27.7240 H   0  0  0  0  0  0  0  0  0  0  0  0
  -27.3540  -28.3440   24.2170 C   0  0  1  0  0  0  0  0  0  0  0  0
  -26.3420  -27.5170   25.0450 C   0  0  0  0  0  1  0  0  0  0  0  0
  -27.6960  -27.5430   22.9390 C   0  0  0  0  0  1  0  0  0  0  0  0
  -28.6660  -28.4550   25.0270 C   0  0  0  0  0  1  0  0  0  0  0  0
  1  3  1  0
  2  5  1  0
  3  5  2  0
  4  1  2  0
  4  6  1  0
  5  8  1  0
  6  2  2  0
  7  4  1  0
  9 15  1  0
  9 22  1  0
 10 15  1  0
 11 12  1  0
 11 10  1  0
 13 12  1  0
 13 26  1  0
 13 14  1  0
 15 14  1  0
 16  9  2  0
 18 21  1  0
 19 17  1  0
 20 18  1  0
 20 22  1  0
 21  3  1  0
 21 17  1  0
 22 19  1  0
 23 48  1  0
 23 24  2  0
 24 43  1  0
 25 28  1  0
 25 24  1  0
 26 27  1  0
 26 23  1  0
 27 25  2  0
 28 29  1  0
 29 30  2  0
 31 34  1  0
 31 30  1  0
 32 31  2  0
 33 32  1  0
 33 28  2  0
 34 35  1  0
 35 36  1  0
 36 37  2  0
 38 37  1  0
 38 42  1  0
 39 38  2  0
 40 35  2  0
 40 39  1  0
 41 40  1  0
 43 44  1  0
 44 46  1  0
 44 47  1  0
 45 43  2  0
 48 49  1  0
 50 48  1  0
 51  6  1  0
 52 51  1  0
 54 57  1  0
 55 53  1  0
 56 58  1  0
 56 54  1  0
 57 53  1  0
 57 51  1  0
 58 59  1  0
 58 55  1  0
 59 61  1  0
 60 71  2  0
 61 66  1  0
 62 72  1  0
 62 70  1  0
 63 65  1  0
 63 69  1  0
 64 70  1  0
 65 64  1  0
 66 65  2  0
 67 61  2  0
 67 68  1  0
 68 63  2  0
 69 62  1  0
 70 60  1  0
 72 74  2  0
 73 72  1  0
 75 73  1  0
 76 85  2  0
 76 81  1  0
 77 73  1  0
 77 81  1  0
 78 77  1  0
 79 80  1  0
 79 78  1  0
 80 76  1  0
 81 82  2  0
 82 83  1  0
 84 83  2  0
 85 84  1  0
 86 60  1  0
 86 96  1  0
 86 87  1  0
 87 88  1  0
 87 90  1  0
 88 92  1  0
 89 88  2  0
 92 91  1  0
 92 94  1  0
 94 93  1  0
 94 95  1  0
 96 99  1  1
 96 97  1  0
 98 96  1  0
M  ISO  4   9 100  22 100  58 101  59 101
M  END
>  <TORSDO>  (70) 
F 18

>  <SCORE>  (70) 
-7.187

>  <name>  (70) 
69

>  <ligand_id>  (70) 
69

>  <original_smiles>  (70) 
[H]c1c([H])c([H])c2c(c1[H])C([H])([H])C([H])([H])C([H])([H])C2([H])N([H])C(=O)C1([H])N(C(=O)C([H])(N([H])C(=O)C([H])(N([H])C([H])([H])[H])C([H])([H])[H])C(C([H])([H])[H])(C([H])([H])[H])C([H])([H])[H])C([H])([H])c2c([H])c(OC3([H])C([H])([H])C([H])([H])C([H])(N([H])c4c([H])c(C([H])([H])[H])c(C5([H])C([H])([H])C([H])([H])N(C(=O)N6C([H])([H])C([H])([H])C([H])([H])C([H])(n7nc(-c8c([H])c([H])c(Oc9c([H])c([H])c(F)c([H])c9F)c([H])c8[H])c(C(=O)N([H])[H])c7N([H])[H])C6([H])[H])C([H])([H])C5([H])[H])c([H])c4C([H])([H])[H])C([H])([H])C3([H])[H])c([H])c([H])c2C1([H])[H]

>  <smiles>  (70) 
[H]c1c([H])c([H])c2c(c1[H])C([H])([H])C([H])([H])C([H])([H])C2([H])N([H])C(=O)C1([H])N(C(=O)C([H])(N([H])C(=O)C([H])(N([H])C([H])([H])[H])C([H])([H])[H])C(C([H])([H])[H])(C([H])([H])[H])C([H])([H])[H])C([H])([H])c2c([H])c(OC3([H])C([H])([H])C([H])([H])C([H])(N([H])c4c([H])c(C([H])([H])[H])c(C5([H])C([H])([H])C([H])([H])N(C(=O)N6C([H])([H])C([H])([H])C([H])([H])C([H])(n7nc(-c8c([H])c([H])c(Oc9c([H])c([H])c(F)c([H])c9F)c([H])c8[H])c(C(=O)N([H])[H])c7N([H])[H])C6([H])[H])C([H])([H])C5([H])[H])c([H])c4C([H])([H])[H])C([H])([H])C3([H])[H])c([H])c([H])c2C1([H])[H]

$$$$
70:0:0
     RDKit          3D

102112  0  0  1  0  0  0  0  0999 V2000
  -33.5970  -19.8590   20.4750 C   0  0  0  0  0  2  0  0  0  0  0  0
  -32.6480  -18.6470   20.4500 C   0  0  0  0  0  2  0  0  0  0  0  0
  -30.8740  -19.9670   21.5430 C   0  0  0  0  0  2  0  0  0  0  0  0
  -31.7650  -21.2430   21.5400 C   0  0  0  0  0  3  0  0  0  0  0  0
  -32.8050  -21.1810   20.3860 C   0  0  0  0  0  3  0  0  0  0  0  0
  -31.6700  -18.7020   21.5720 N   0  0  1  0  0  4  0  0  0  0  0  0
  -32.2200  -18.7470   22.4190 H   0  0  0  0  0  0  0  0  0  0  0  0
  -30.1390  -14.0930   19.9440 C   0  0  0  0  0  0  0  0  0  0  0  0
  -29.5760  -12.1890   18.4800 C   0  0  0  0  0  2  0  0  0  0  0  0
  -28.4520  -12.5600   17.4940 C   0  0  0  0  0  2  0  0  0  0  0  0
  -27.0710  -12.3220   18.1300 C   0  0  0  0  0  2  0  0  0  0  0  0
  -26.9470  -12.9580   19.5390 C   0  0  0  0  0  3  0  0  0  0  0  0
  -28.1630  -12.5900   20.4190 C   0  0  0  0  0  2  0  0  0  0  0  0
  -29.3910  -12.9830   19.7030 N   0  0  0  0  0  0  0  0  0  0  0  0
  -31.0750  -14.4470   19.2210 O   0  0  0  0  0  0  0  0  0  0  0  0
  -31.6800  -16.1870   21.9620 C   0  0  0  0  0  2  0  0  0  0  0  0
  -29.7790  -17.2370   20.6500 C   0  0  0  0  0  2  0  0  0  0  0  0
  -30.7890  -14.9400   22.1560 C   0  0  0  0  0  2  0  0  0  0  0  0
  -28.9510  -15.9660   20.9380 C   0  0  0  0  0  2  0  0  0  0  0  0
  -30.8340  -17.4720   21.7600 C   0  0  0  0  0  3  0  0  0  0  0  0
  -29.8230  -14.7900   21.0570 N   0  0  0  0  0  0  0  0  0  0  0  0
  -24.6380  -13.4080   20.5870 C   0  0  0  0  0  0  0  0  0  0  0  0
  -23.6680  -12.5640   21.0580 C   0  0  0  0  0  0  0  0  0  0  0  0
  -24.1860  -11.2420   20.9000 C   0  0  0  0  0  0  0  0  0  0  0  0
  -25.6850  -12.5960   20.1790 N   0  0  0  0  0  0  0  0  0  0  0  0
  -25.4220  -11.2860   20.4190 N   0  0  0  0  0  0  0  0  0  0  0  0
  -23.5540   -9.9350   21.1230 C   0  0  0  0  0  0  0  0  0  0  0  0
  -24.0720   -9.0180   22.0630 C   0  0  0  0  0  3  0  0  0  0  0  0
  -23.4370   -7.7750   22.2740 C   0  0  0  0  0  3  0  0  0  0  0  0
  -22.2720   -7.4410   21.5450 C   0  0  0  0  0  0  0  0  0  0  0  0
  -21.7730   -8.3490   20.5950 C   0  0  0  0  0  3  0  0  0  0  0  0
  -22.4080   -9.5840   20.3830 C   0  0  0  0  0  3  0  0  0  0  0  0
  -21.6020   -6.2470   21.6660 O   0  0  0  0  0  0  0  0  0  0  0  0
  -21.5270   -5.5810   22.8640 C   0  0  0  0  0  0  0  0  0  0  0  0
  -20.9460   -6.1710   24.0090 C   0  0  0  0  0  3  0  0  0  0  0  0
  -20.8250   -5.4270   25.1990 C   0  0  0  0  0  3  0  0  0  0  0  0
  -21.2760   -4.0940   25.2470 C   0  0  0  0  0  0  0  0  0  0  0  0
  -21.8490   -3.5040   24.1070 C   0  0  0  0  0  3  0  0  0  0  0  0
  -21.9720   -4.2440   22.9180 C   0  0  0  0  0  0  0  0  0  0  0  0
  -22.5070   -3.6630   21.8170 F   0  0  0  0  0  0  0  0  0  0  0  0
  -21.1530   -3.3770   26.3880 F   0  0  0  0  0  0  0  0  0  0  0  0
  -22.3010  -12.9520   21.5400 C   0  0  0  0  0  0  0  0  0  0  0  0
  -21.7450  -12.1940   22.4780 N   0  0  0  0  0  0  0  0  0  0  0  0
  -21.7360  -13.9610   21.1180 O   0  0  0  0  0  0  0  0  0  0  0  0
  -22.2150  -11.3760   22.8360 H   0  0  0  0  0  0  0  0  0  0  0  0
  -20.8340  -12.4340   22.8440 H   0  0  0  0  0  0  0  0  0  0  0  0
  -24.7100  -14.7920   20.4540 N   0  0  0  0  0  0  0  0  0  0  0  0
  -23.9380  -15.4010   20.6990 H   0  0  0  0  0  0  0  0  0  0  0  0
  -25.4910  -15.2890   20.0450 H   0  0  0  0  0  0  0  0  0  0  0  0
  -30.6980  -23.1590   20.2460 C   0  0  0  0  0  3  0  0  0  0  0  0
  -29.9340  -24.3380   20.1470 C   0  0  0  0  0  3  0  0  0  0  0  0
  -29.5880  -24.3060   22.5480 C   0  0  0  0  0  3  0  0  0  0  0  0
  -30.9190  -22.5300   21.4940 C   0  0  0  0  0  0  0  0  0  0  0  0
  -29.3690  -24.9190   21.3000 C   0  0  0  0  0  0  0  0  0  0  0  0
  -30.3430  -23.1160   22.6600 C   0  0  0  0  0  0  0  0  0  0  0  0
  -30.4900  -22.5020   24.0450 C   0  0  0  0  0  1  0  0  0  0  0  0
  -28.5010  -26.1690   21.2170 C   0  0  0  0  0  2  0  0  0  0  0  0
  -27.6730  -26.1900   20.0560 O   0  0  0  0  0  0  0  0  0  0  0  0
  -24.2370  -31.6760   23.0790 C   0  0  0  0  0  0  0  0  0  0  0  0
  -26.5870  -27.0330   20.0890 C   0  0  0  0  0  0  0  0  0  0  0  0
  -22.9260  -30.3020   21.4940 C   0  0  0  0  0  3  0  0  0  0  0  0
  -24.2690  -28.6460   20.0920 C   0  0  0  0  0  0  0  0  0  0  0  0
  -25.4590  -30.5170   21.2480 C   0  0  0  0  0  2  0  0  0  0  0  0
  -25.4600  -29.1260   20.6520 C   0  0  0  0  0  0  0  0  0  0  0  0
  -26.6200  -28.3260   20.6590 C   0  0  0  0  0  3  0  0  0  0  0  0
  -25.3880  -26.5660   19.5130 C   0  0  0  0  0  3  0  0  0  0  0  0
  -24.2250  -27.3610   19.5220 C   0  0  0  0  0  3  0  0  0  0  0  0
  -23.0740  -29.5710   20.1320 C   0  0  0  0  0  2  0  0  0  0  0  0
  -24.2260  -30.8450   21.9980 N   0  0  0  0  0  0  0  0  0  0  0  0
  -23.1830  -32.0220   23.6280 O   0  0  0  0  0  0  0  0  0  0  0  0
  -22.2330  -29.3460   22.4920 C   0  0  0  0  0  0  0  0  0  0  0  0
  -20.8970  -29.2490   22.3940 N   0  0  0  0  0  0  0  0  0  0  0  0
  -22.8950  -28.6960   23.3070 O   0  0  0  0  0  0  0  0  0  0  0  0
  -20.4280  -29.8200   21.7060 H   0  0  0  0  0  0  0  0  0  0  0  0
  -17.4630  -28.3060   22.9990 C   0  0  0  0  0  0  0  0  0  0  0  0
  -20.0370  -28.3850   23.2030 C   0  0  0  0  0  3  0  0  0  0  0  0
  -20.0240  -26.9410   22.6510 C   0  0  0  0  0  2  0  0  0  0  0  0
  -18.8780  -26.6810   21.6690 C   0  0  0  0  0  2  0  0  0  0  0  0
  -17.5270  -26.9360   22.3420 C   0  0  0  0  0  2  0  0  0  0  0  0
  -18.6430  -28.9920   23.3870 C   0  0  0  0  0  0  0  0  0  0  0  0
  -18.5310  -30.2790   23.9580 C   0  0  0  0  0  3  0  0  0  0  0  0
  -17.2710  -30.8780   24.1440 C   0  0  0  0  0  3  0  0  0  0  0  0
  -16.1040  -30.1870   23.7710 C   0  0  0  0  0  3  0  0  0  0  0  0
  -16.2010  -28.9020   23.2070 C   0  0  0  0  0  3  0  0  0  0  0  0
  -25.5720  -32.2440   23.6600 C   0  0  0  0  0  3  0  0  0  0  0  0
  -26.1030  -31.4310   24.9040 C   0  0  1  0  0  0  0  0  0  0  0  0
  -25.0440  -31.2260   26.0120 C   0  0  0  0  0  1  0  0  0  0  0  0
  -26.6050  -30.0330   24.4680 C   0  0  0  0  0  1  0  0  0  0  0  0
  -27.3150  -32.1600   25.5300 C   0  0  0  0  0  1  0  0  0  0  0  0
  -25.3330  -33.6480   24.0200 N   0  0  0  0  0  0  0  0  0  0  0  0
  -25.7850  -34.6990   23.3220 C   0  0  0  0  0  0  0  0  0  0  0  0
  -26.5190  -34.5840   22.3370 O   0  0  0  0  0  0  0  0  0  0  0  0
  -24.7000  -33.8150   24.7880 H   0  0  0  0  0  0  0  0  0  0  0  0
  -24.2080  -36.6130   22.9080 C   0  0  0  0  0  1  0  0  0  0  0  0
  -25.3560  -36.1020   23.7930 C   0  0  0  0  0  3  0  0  0  0  0  0
  -27.4770  -36.8110   24.8090 C   0  0  0  0  0  1  0  0  0  0  0  0
  -26.4610  -37.0870   23.7950 N   0  0  0  0  0  0  0  0  0  0  0  0
  -26.1050  -38.0260   23.9530 H   0  0  0  0  0  0  0  0  0  0  0  0
  -34.8380  -22.4080   21.2450 C   0  0  0  0  0  1  0  0  0  0  0  0
  -34.0550  -22.7760   18.9470 C   0  0  0  0  0  1  0  0  0  0  0  0
  -33.6700  -22.4000   20.3290 N   0  0  1  0  0  4  0  0  0  0  0  0
  -33.0730  -23.1530   20.6450 H   0  0  0  0  0  0  0  0  0  0  0  0
  2  1  1  0
  2  6  1  0
  3  6  1  0
  4 53  1  0
  4  3  1  0
  5101  1  0
  5  1  1  0
  5  4  1  0
  6 20  1  0
  6  7  1  1
  8 21  1  0
  9 14  1  0
 10 11  1  0
 10  9  1  0
 12 11  1  0
 12 25  1  0
 12 13  1  0
 14  8  1  0
 14 13  1  0
 15  8  2  0
 16 18  1  0
 17 19  1  0
 19 21  1  0
 20 17  1  0
 20 16  1  0
 21 18  1  0
 22 23  2  0
 23 42  1  0
 24 23  1  0
 24 27  1  0
 25 26  1  0
 25 22  1  0
 26 24  2  0
 27 28  1  0
 28 29  2  0
 30 33  1  0
 30 29  1  0
 31 30  2  0
 32 31  1  0
 32 27  2  0
 33 34  1  0
 34 39  2  0
 34 35  1  0
 35 36  2  0
 36 37  1  0
 37 41  1  0
 38 37  2  0
 39 38  1  0
 40 39  1  0
 42 43  1  0
 43 45  1  0
 43 46  1  0
 44 42  2  0
 47 22  1  0
 47 48  1  0
 49 47  1  0
 50 53  1  0
 51 50  2  0
 51 54  1  0
 52 55  1  0
 53 55  2  0
 54 52  2  0
 55 56  1  0
 57 54  1  0
 58 60  1  0
 58 57  1  0
 59 70  2  0
 60 65  1  0
 61 69  1  0
 61 71  1  0
 62 68  1  0
 62 64  1  0
 63 69  1  0
 64 65  2  0
 64 63  1  0
 66 67  1  0
 66 60  2  0
 67 62  2  0
 68 61  1  0
 69 59  1  0
 71 73  2  0
 72 71  1  0
 74 72  1  0
 75 84  2  0
 75 80  1  0
 76 72  1  0
 76 80  1  0
 77 76  1  0
 78 79  1  0
 78 77  1  0
 79 75  1  0
 80 81  2  0
 81 82  1  0
 83 82  2  0
 84 83  1  0
 85 59  1  0
 85 90  1  0
 85 86  1  0
 86 89  1  1
 86 87  1  0
 88 86  1  0
 90 93  1  0
 91 95  1  0
 91 90  1  0
 92 91  2  0
 95 94  1  0
 95 97  1  0
 97 98  1  0
 97 96  1  0
100101  1  0
101102  1  1
101 99  1  0
M  ISO  4   8 100  21 100  57 101  58 101
M  END
>  <TORSDO>  (71) 
F 19

>  <SCORE>  (71) 
-11.224

>  <name>  (71) 
70

>  <ligand_id>  (71) 
70

>  <original_smiles>  (71) 
[H]c1c([H])c([H])c2c(c1[H])C([H])([H])C([H])([H])C([H])([H])C2([H])N([H])C(=O)C1([H])N(C(=O)C([H])(N([H])C(=O)C([H])(N([H])C([H])([H])[H])C([H])([H])[H])C(C([H])([H])[H])(C([H])([H])[H])C([H])([H])[H])C([H])([H])c2c([H])c(OC([H])([H])c3c([H])c([H])c(C4([H])C([H])([H])[N+]([H])(C5([H])C([H])([H])C([H])([H])N(C(=O)N6C([H])([H])C([H])([H])C([H])([H])C([H])(n7nc(-c8c([H])c([H])c(Oc9c([H])c([H])c(F)c([H])c9F)c([H])c8[H])c(C(=O)N([H])[H])c7N([H])[H])C6([H])[H])C([H])([H])C5([H])[H])C([H])([H])C([H])([H])C4([H])[N+]([H])(C([H])([H])[H])C([H])([H])[H])c(C([H])([H])[H])c3[H])c([H])c([H])c2C1([H])[H]

>  <smiles>  (71) 
[H]c1c([H])c([H])c2c(c1[H])C([H])([H])C([H])([H])C([H])([H])C2([H])N([H])C(=O)C1([H])N(C(=O)C([H])(N([H])C(=O)C([H])(N([H])C([H])([H])[H])C([H])([H])[H])C(C([H])([H])[H])(C([H])([H])[H])C([H])([H])[H])C([H])([H])c2c([H])c(OC([H])([H])c3c([H])c([H])c(C4([H])C([H])([H])[N+]([H])(C5([H])C([H])([H])C([H])([H])N(C(=O)N6C([H])([H])C([H])([H])C([H])([H])C([H])(n7nc(-c8c([H])c([H])c(Oc9c([H])c([H])c(F)c([H])c9F)c([H])c8[H])c(C(=O)N([H])[H])c7N([H])[H])C6([H])[H])C([H])([H])C5([H])[H])C([H])([H])C([H])([H])C4([H])[N+]([H])(C([H])([H])[H])C([H])([H])[H])c(C([H])([H])[H])c3[H])c([H])c([H])c2C1([H])[H]

$$$$
71:0:0
     RDKit          3D

 96105  0  0  1  0  0  0  0  0999 V2000
  -29.0480  -22.5720   19.7440 C   0  0  0  0  0  3  0  0  0  0  0  0
  -31.4410  -23.3660   20.9030 C   0  0  0  0  0  3  0  0  0  0  0  0
  -29.2240  -23.9680   20.0600 C   0  0  0  0  0  0  0  0  0  0  0  0
  -30.0460  -21.5670   19.9960 C   0  0  0  0  0  0  0  0  0  0  0  0
  -30.4420  -24.3370   20.6790 C   0  0  0  0  0  0  0  0  0  0  0  0
  -31.2740  -22.0010   20.5490 C   0  0  0  0  0  0  0  0  0  0  0  0
  -30.7250  -25.7630   21.1240 C   0  0  0  0  0  1  0  0  0  0  0  0
  -33.5840  -21.5340   21.0320 C   0  0  0  0  0  1  0  0  0  0  0  0
  -32.2800  -21.0710   20.6970 O   0  0  0  0  0  0  0  0  0  0  0  0
  -29.8770  -20.0600   19.5520 C   0  0  0  0  0  2  0  0  0  0  0  0
  -30.8700  -14.6780   19.8670 C   0  0  0  0  0  0  0  0  0  0  0  0
  -30.5150  -12.4080   18.9190 C   0  0  0  0  0  2  0  0  0  0  0  0
  -29.5120  -12.4540   17.7470 C   0  0  0  0  0  2  0  0  0  0  0  0
  -28.0750  -12.2790   18.2720 C   0  0  0  0  0  2  0  0  0  0  0  0
  -27.7620  -13.1980   19.4830 C   0  0  0  0  0  3  0  0  0  0  0  0
  -28.8940  -13.1920   20.5380 C   0  0  0  0  0  2  0  0  0  0  0  0
  -30.1580  -13.4990   19.8540 N   0  0  0  0  0  0  0  0  0  0  0  0
  -32.0240  -14.6940   19.4290 O   0  0  0  0  0  0  0  0  0  0  0  0
  -30.5090  -18.1920   21.4220 C   0  0  0  0  0  2  0  0  0  0  0  0
  -28.5890  -17.7620   19.9210 C   0  0  0  0  0  2  0  0  0  0  0  0
  -31.1990  -16.9390   20.7760 C   0  0  0  0  0  2  0  0  0  0  0  0
  -29.4300  -16.6090   19.2790 C   0  0  0  0  0  2  0  0  0  0  0  0
  -29.4160  -18.9170   20.5750 C   0  0  2  0  0  0  0  0  0  0  0  0
  -30.2880  -15.8790   20.2450 N   0  0  0  0  0  0  0  0  0  0  0  0
  -25.4500  -13.7950   20.4180 C   0  0  0  0  0  0  0  0  0  0  0  0
  -24.4030  -13.0200   20.8350 C   0  0  0  0  0  0  0  0  0  0  0  0
  -24.8430  -11.6660   20.7200 C   0  0  0  0  0  0  0  0  0  0  0  0
  -26.4590  -12.9100   20.0690 N   0  0  0  0  0  0  0  0  0  0  0  0
  -26.1060  -11.6230   20.3140 N   0  0  0  0  0  0  0  0  0  0  0  0
  -24.1140  -10.4070   20.9170 C   0  0  0  0  0  0  0  0  0  0  0  0
  -24.5220   -9.4660   21.8870 C   0  0  0  0  0  3  0  0  0  0  0  0
  -23.7990   -8.2700   22.0720 C   0  0  0  0  0  3  0  0  0  0  0  0
  -22.6530   -8.0060   21.2860 C   0  0  0  0  0  0  0  0  0  0  0  0
  -22.2660   -8.9330   20.3030 C   0  0  0  0  0  3  0  0  0  0  0  0
  -22.9910  -10.1240   20.1160 C   0  0  0  0  0  3  0  0  0  0  0  0
  -21.9030   -6.8580   21.3760 O   0  0  0  0  0  0  0  0  0  0  0  0
  -21.7260   -6.2050   22.5690 C   0  0  0  0  0  0  0  0  0  0  0  0
  -21.0840   -6.8190   23.6670 C   0  0  0  0  0  3  0  0  0  0  0  0
  -20.8630   -6.0870   24.8500 C   0  0  0  0  0  3  0  0  0  0  0  0
  -21.2720   -4.7430   24.9370 C   0  0  0  0  0  0  0  0  0  0  0  0
  -21.9070   -4.1290   23.8420 C   0  0  0  0  0  3  0  0  0  0  0  0
  -22.1300   -4.8570   22.6610 C   0  0  0  0  0  0  0  0  0  0  0  0
  -22.7220   -4.2530   21.6030 F   0  0  0  0  0  0  0  0  0  0  0  0
  -21.0510   -4.0390   26.0720 F   0  0  0  0  0  0  0  0  0  0  0  0
  -23.0370  -13.5050   21.2240 C   0  0  0  0  0  0  0  0  0  0  0  0
  -22.3590  -12.7830   22.1120 N   0  0  0  0  0  0  0  0  0  0  0  0
  -22.5800  -14.5550   20.7750 O   0  0  0  0  0  0  0  0  0  0  0  0
  -22.7460  -11.9360   22.4970 H   0  0  0  0  0  0  0  0  0  0  0  0
  -21.4420  -13.0880   22.4060 H   0  0  0  0  0  0  0  0  0  0  0  0
  -25.6210  -15.1690   20.2820 N   0  0  0  0  0  0  0  0  0  0  0  0
  -24.8760  -15.8270   20.4810 H   0  0  0  0  0  0  0  0  0  0  0  0
  -26.4580  -15.6100   19.9270 H   0  0  0  0  0  0  0  0  0  0  0  0
  -28.5270  -19.5650   21.4700 O   0  0  0  0  0  0  0  0  0  0  0  0
  -28.2910  -18.9520   22.1570 H   0  0  0  0  0  0  0  0  0  0  0  0
  -28.0730  -24.9990   19.7830 C   0  0  0  0  0  2  0  0  0  0  0  0
  -28.2960  -26.4520   19.9470 O   0  0  0  0  0  0  0  0  0  0  0  0
  -24.6120  -31.7780   23.1040 C   0  0  0  0  0  0  0  0  0  0  0  0
  -27.1750  -27.2910   19.9180 C   0  0  0  0  0  0  0  0  0  0  0  0
  -23.3820  -30.4020   21.4640 C   0  0  0  0  0  3  0  0  0  0  0  0
  -24.8070  -28.8870   19.9830 C   0  0  0  0  0  0  0  0  0  0  0  0
  -25.9140  -30.7360   21.2380 C   0  0  0  0  0  2  0  0  0  0  0  0
  -25.9850  -29.3700   20.5680 C   0  0  0  0  0  0  0  0  0  0  0  0
  -27.1710  -28.5810   20.5320 C   0  0  0  0  0  3  0  0  0  0  0  0
  -25.9770  -26.8680   19.2990 C   0  0  0  0  0  3  0  0  0  0  0  0
  -24.8050  -27.6420   19.3390 C   0  0  0  0  0  3  0  0  0  0  0  0
  -23.5710  -29.7560   20.0680 C   0  0  0  0  0  2  0  0  0  0  0  0
  -24.6550  -30.9890   21.9910 N   0  0  0  0  0  0  0  0  0  0  0  0
  -23.5380  -32.0410   23.6650 O   0  0  0  0  0  0  0  0  0  0  0  0
  -22.7430  -29.3640   22.4190 C   0  0  0  0  0  0  0  0  0  0  0  0
  -21.4130  -29.1920   22.3260 N   0  0  0  0  0  0  0  0  0  0  0  0
  -23.4410  -28.7200   23.2050 O   0  0  0  0  0  0  0  0  0  0  0  0
  -20.9080  -29.7650   21.6630 H   0  0  0  0  0  0  0  0  0  0  0  0
  -18.0400  -28.0250   22.9130 C   0  0  0  0  0  0  0  0  0  0  0  0
  -20.6100  -28.2430   23.1000 C   0  0  0  0  0  3  0  0  0  0  0  0
  -20.6710  -26.8270   22.4810 C   0  0  0  0  0  2  0  0  0  0  0  0
  -19.5300  -26.5490   21.4980 C   0  0  0  0  0  2  0  0  0  0  0  0
  -18.1730  -26.6940   22.1930 C   0  0  0  0  0  2  0  0  0  0  0  0
  -19.1840  -28.7600   23.3230 C   0  0  0  0  0  0  0  0  0  0  0  0
  -19.0020  -30.0080   23.9570 C   0  0  0  0  0  3  0  0  0  0  0  0
  -17.7110  -30.5210   24.1840 C   0  0  0  0  0  3  0  0  0  0  0  0
  -16.5830  -29.7820   23.7900 C   0  0  0  0  0  3  0  0  0  0  0  0
  -16.7480  -28.5370   23.1600 C   0  0  0  0  0  3  0  0  0  0  0  0
  -25.9060  -32.4040   23.7090 C   0  0  0  0  0  3  0  0  0  0  0  0
  -26.4660  -31.5990   24.9460 C   0  0  1  0  0  0  0  0  0  0  0  0
  -25.4030  -31.3130   26.0330 C   0  0  0  0  0  1  0  0  0  0  0  0
  -27.0560  -30.2430   24.4950 C   0  0  0  0  0  1  0  0  0  0  0  0
  -27.6220  -32.3870   25.6050 C   0  0  0  0  0  1  0  0  0  0  0  0
  -25.5940  -33.7880   24.0910 N   0  0  0  0  0  0  0  0  0  0  0  0
  -25.8750  -34.8670   23.3460 C   0  0  0  0  0  0  0  0  0  0  0  0
  -26.4990  -34.8020   22.2830 O   0  0  0  0  0  0  0  0  0  0  0  0
  -25.0450  -33.9110   24.9290 H   0  0  0  0  0  0  0  0  0  0  0  0
  -24.1170  -36.6480   23.1010 C   0  0  0  0  0  1  0  0  0  0  0  0
  -25.3870  -36.2340   23.8630 C   0  0  0  0  0  3  0  0  0  0  0  0
  -27.5270  -37.1280   24.6690 C   0  0  0  0  0  1  0  0  0  0  0  0
  -26.4020  -37.3030   23.7540 N   0  0  0  0  0  0  0  0  0  0  0  0
  -25.9880  -38.2140   23.9330 H   0  0  0  0  0  0  0  0  0  0  0  0
  1  4  2  0
  1  3  1  0
  3  5  2  0
  4  6  1  0
  5  2  1  0
  5  7  1  0
  6  9  1  0
  6  2  2  0
  9  8  1  0
 10  4  1  0
 11 24  1  0
 12 17  1  0
 13 14  1  0
 13 12  1  0
 15 14  1  0
 15 28  1  0
 15 16  1  0
 17 11  1  0
 17 16  1  0
 18 11  2  0
 20 23  1  0
 21 19  1  0
 22 20  1  0
 22 24  1  0
 23 10  1  6
 23 19  1  0
 23 53  1  0
 24 21  1  0
 25 26  2  0
 26 45  1  0
 27 26  1  0
 27 30  1  0
 28 29  1  0
 28 25  1  0
 29 27  2  0
 30 31  1  0
 31 32  2  0
 33 36  1  0
 33 32  1  0
 34 33  2  0
 35 34  1  0
 35 30  2  0
 36 37  1  0
 37 42  2  0
 37 38  1  0
 38 39  2  0
 39 40  1  0
 40 44  1  0
 41 40  2  0
 42 41  1  0
 43 42  1  0
 45 46  1  0
 46 49  1  0
 46 48  1  0
 47 45  2  0
 50 25  1  0
 50 51  1  0
 52 50  1  0
 53 54  1  0
 55 56  1  0
 55  3  1  0
 57 68  2  0
 58 56  1  0
 58 63  1  0
 59 67  1  0
 59 69  1  0
 60 66  1  0
 60 62  1  0
 61 67  1  0
 62 61  1  0
 63 62  2  0
 64 65  1  0
 64 58  2  0
 65 60  2  0
 66 59  1  0
 67 57  1  0
 69 71  2  0
 70 69  1  0
 72 70  1  0
 73 82  2  0
 73 78  1  0
 74 70  1  0
 74 78  1  0
 75 74  1  0
 76 77  1  0
 76 75  1  0
 77 73  1  0
 78 79  2  0
 79 80  1  0
 81 80  2  0
 82 81  1  0
 83 57  1  0
 83 88  1  0
 83 84  1  0
 84 87  1  1
 84 85  1  0
 86 84  1  0
 88 91  1  0
 89 93  1  0
 89 88  1  0
 90 89  2  0
 93 92  1  0
 95 93  1  0
 95 96  1  0
 95 94  1  0
M  ISO  4  11 100  24 100  55 101  56 101
M  END
>  <TORSDO>  (72) 
F 20

>  <SCORE>  (72) 
-13.432

>  <name>  (72) 
71

>  <ligand_id>  (72) 
71

>  <original_smiles>  (72) 
[H]OC1(C([H])([H])c2c([H])c(C([H])([H])Oc3c([H])c([H])c4c(c3[H])C([H])([H])N(C(=O)C([H])(N([H])C(=O)C([H])(N([H])C([H])([H])[H])C([H])([H])[H])C(C([H])([H])[H])(C([H])([H])[H])C([H])([H])[H])C([H])(C(=O)N([H])C3([H])c5c([H])c([H])c([H])c([H])c5C([H])([H])C([H])([H])C3([H])[H])C4([H])[H])c(C([H])([H])[H])c([H])c2OC([H])([H])[H])C([H])([H])C([H])([H])N(C(=O)N2C([H])([H])C([H])([H])C([H])([H])C([H])(n3nc(-c4c([H])c([H])c(Oc5c([H])c([H])c(F)c([H])c5F)c([H])c4[H])c(C(=O)N([H])[H])c3N([H])[H])C2([H])[H])C([H])([H])C1([H])[H]

>  <smiles>  (72) 
[H]OC1(C([H])([H])c2c([H])c(C([H])([H])Oc3c([H])c([H])c4c(c3[H])C([H])([H])N(C(=O)C([H])(N([H])C(=O)C([H])(N([H])C([H])([H])[H])C([H])([H])[H])C(C([H])([H])[H])(C([H])([H])[H])C([H])([H])[H])C([H])(C(=O)N([H])C3([H])c5c([H])c([H])c([H])c([H])c5C([H])([H])C([H])([H])C3([H])[H])C4([H])[H])c(C([H])([H])[H])c([H])c2OC([H])([H])[H])C([H])([H])C([H])([H])N(C(=O)N2C([H])([H])C([H])([H])C([H])([H])C([H])(n3nc(-c4c([H])c([H])c(Oc5c([H])c([H])c(F)c([H])c5F)c([H])c4[H])c(C(=O)N([H])[H])c3N([H])[H])C2([H])[H])C([H])([H])C1([H])[H]

$$$$
72:0:0
     RDKit          3D

102111  0  0  1  0  0  0  0  0999 V2000
  -30.9140  -21.4430   20.4310 C   0  0  0  0  0  3  0  0  0  0  0  0
  -31.7880  -20.7520   18.2740 C   0  0  0  0  0  3  0  0  0  0  0  0
  -31.4920  -21.7760   19.1900 C   0  0  0  0  0  0  0  0  0  0  0  0
  -30.5680  -20.1180   20.7440 C   0  0  0  0  0  0  0  0  0  0  0  0
  -30.7560  -19.0970   19.7700 C   0  0  0  0  0  0  0  0  0  0  0  0
  -31.4230  -19.4110   18.5530 C   0  0  0  0  0  0  0  0  0  0  0  0
  -29.9730  -19.8650   22.1200 C   0  0  0  0  0  1  0  0  0  0  0  0
  -30.7180  -23.4210   17.5290 C   0  0  0  0  0  2  0  0  0  0  0  0
  -31.3640  -24.2300   19.9530 C   0  0  0  0  0  2  0  0  0  0  0  0
  -30.2390  -24.8500   17.2900 C   0  0  0  0  0  2  0  0  0  0  0  0
  -30.8020  -25.5980   19.5250 C   0  0  0  0  0  2  0  0  0  0  0  0
  -31.6300  -23.2380   18.7740 C   0  0  0  0  0  3  0  0  0  0  0  0
  -29.7060  -25.3550   18.5660 N   0  0  1  0  0  4  0  0  0  0  0  0
  -29.2080  -24.5740   18.9680 H   0  0  0  0  0  0  0  0  0  0  0  0
  -28.6480  -26.3830   18.4420 C   0  0  0  0  0  2  0  0  0  0  0  0
  -26.7640  -24.9470   19.4240 C   0  0  0  0  0  1  0  0  0  0  0  0
  -27.3030  -25.6710   18.1690 C   0  0  0  0  0  3  0  0  0  0  0  0
  -26.4280  -26.5630   17.4620 O   0  0  0  0  0  0  0  0  0  0  0  0
  -25.6980  -30.0680   23.5840 C   0  0  0  0  0  0  0  0  0  0  0  0
  -25.6990  -27.4560   18.2010 C   0  0  0  0  0  0  0  0  0  0  0  0
  -23.7510  -30.1540   22.0560 C   0  0  0  0  0  3  0  0  0  0  0  0
  -24.1640  -29.2810   19.6940 C   0  0  0  0  0  0  0  0  0  0  0  0
  -26.1190  -29.8750   21.1400 C   0  0  0  0  0  2  0  0  0  0  0  0
  -25.5170  -29.0920   19.9960 C   0  0  0  0  0  0  0  0  0  0  0  0
  -26.2950  -28.1910   19.2450 C   0  0  0  0  0  3  0  0  0  0  0  0
  -24.3380  -27.6550   17.8930 C   0  0  0  0  0  3  0  0  0  0  0  0
  -23.5650  -28.5640   18.6410 C   0  0  0  0  0  3  0  0  0  0  0  0
  -23.4130  -30.2810   20.5450 C   0  0  0  0  0  2  0  0  0  0  0  0
  -25.2210  -30.0060   22.3090 N   0  0  0  0  0  0  0  0  0  0  0  0
  -24.9410  -30.2910   24.5390 O   0  0  0  0  0  0  0  0  0  0  0  0
  -22.9090  -29.0030   22.6490 C   0  0  0  0  0  0  0  0  0  0  0  0
  -21.5760  -29.1480   22.5900 N   0  0  0  0  0  0  0  0  0  0  0  0
  -23.4510  -27.9990   23.1210 O   0  0  0  0  0  0  0  0  0  0  0  0
  -21.2090  -30.0030   22.1940 H   0  0  0  0  0  0  0  0  0  0  0  0
  -18.0590  -28.3340   22.5230 C   0  0  0  0  0  0  0  0  0  0  0  0
  -20.5840  -28.1780   23.0520 C   0  0  0  0  0  3  0  0  0  0  0  0
  -20.5890  -26.9130   22.1630 C   0  0  0  0  0  2  0  0  0  0  0  0
  -19.5750  -26.9760   21.0170 C   0  0  0  0  0  2  0  0  0  0  0  0
  -18.1560  -27.1580   21.5660 C   0  0  0  0  0  2  0  0  0  0  0  0
  -19.2030  -28.8220   23.2090 C   0  0  0  0  0  0  0  0  0  0  0  0
  -19.0650  -29.9410   24.0600 C   0  0  0  0  0  3  0  0  0  0  0  0
  -17.8150  -30.5640   24.2340 C   0  0  0  0  0  3  0  0  0  0  0  0
  -16.6830  -30.0650   23.5660 C   0  0  0  0  0  3  0  0  0  0  0  0
  -16.8060  -28.9510   22.7160 C   0  0  0  0  0  3  0  0  0  0  0  0
  -27.2150  -29.8860   23.9020 C   0  0  0  0  0  3  0  0  0  0  0  0
  -27.5710  -30.8720   24.9310 N   0  0  0  0  0  0  0  0  0  0  0  0
  -28.3570  -31.9370   24.7230 C   0  0  0  0  0  0  0  0  0  0  0  0
  -28.9210  -32.1530   23.6460 O   0  0  0  0  0  0  0  0  0  0  0  0
  -27.0980  -30.7890   25.8200 H   0  0  0  0  0  0  0  0  0  0  0  0
  -27.6900  -34.1730   25.6590 C   0  0  0  0  0  1  0  0  0  0  0  0
  -28.5460  -32.9180   25.8940 C   0  0  0  0  0  3  0  0  0  0  0  0
  -30.7840  -32.2280   26.6330 C   0  0  0  0  0  1  0  0  0  0  0  0
  -29.9550  -33.3110   26.1110 N   0  0  0  0  0  0  0  0  0  0  0  0
  -30.0160  -34.0950   26.7550 H   0  0  0  0  0  0  0  0  0  0  0  0
  -27.5820  -28.4250   24.3720 C   0  0  1  0  0  0  0  0  0  0  0  0
  -26.7190  -27.9160   25.5490 C   0  0  0  0  0  1  0  0  0  0  0  0
  -27.4310  -27.4230   23.2040 C   0  0  0  0  0  1  0  0  0  0  0  0
  -29.0660  -28.3740   24.8110 C   0  0  0  0  0  1  0  0  0  0  0  0
  -30.2130  -17.6720   19.9520 C   0  0  1  0  0  0  0  0  0  0  0  0
  -29.0930  -17.6130   20.6720 F   0  0  0  0  0  0  0  0  0  0  0  0
  -29.8700  -17.2270   18.7410 F   0  0  0  0  0  0  0  0  0  0  0  0
  -31.2360  -16.7330   20.6240 C   0  0  0  0  0  2  0  0  0  0  0  0
  -31.1510  -14.3900   19.8540 C   0  0  0  0  0  0  0  0  0  0  0  0
  -30.8250  -12.0440   19.1850 C   0  0  0  0  0  2  0  0  0  0  0  0
  -29.8670  -11.9170   17.9880 C   0  0  0  0  0  2  0  0  0  0  0  0
  -28.4040  -11.8590   18.4660 C   0  0  0  0  0  2  0  0  0  0  0  0
  -28.0590  -12.9990   19.4590 C   0  0  0  0  0  3  0  0  0  0  0  0
  -29.1200  -13.0850   20.5790 C   0  0  0  0  0  2  0  0  0  0  0  0
  -30.4500  -13.2350   19.9580 N   0  0  0  0  0  0  0  0  0  0  0  0
  -32.1280  -14.5320   19.1120 O   0  0  0  0  0  0  0  0  0  0  0  0
  -30.7360  -15.3660   20.6630 N   0  0  0  0  0  0  0  0  0  0  0  0
  -29.9560  -15.1720   21.2710 H   0  0  0  0  0  0  0  0  0  0  0  0
  -25.7490  -13.7940   20.2790 C   0  0  0  0  0  0  0  0  0  0  0  0
  -24.6480  -13.1070   20.7150 C   0  0  0  0  0  0  0  0  0  0  0  0
  -25.0060  -11.7240   20.6780 C   0  0  0  0  0  0  0  0  0  0  0  0
  -26.7140  -12.8350   20.0070 N   0  0  0  0  0  0  0  0  0  0  0  0
  -26.2700  -11.5860   20.3020 N   0  0  0  0  0  0  0  0  0  0  0  0
  -24.2010  -10.5210   20.9260 C   0  0  0  0  0  0  0  0  0  0  0  0
  -24.6020   -9.5450   21.8650 C   0  0  0  0  0  3  0  0  0  0  0  0
  -23.8030   -8.4050   22.0970 C   0  0  0  0  0  3  0  0  0  0  0  0
  -22.5880   -8.2340   21.3920 C   0  0  0  0  0  0  0  0  0  0  0  0
  -22.2050   -9.1970   20.4420 C   0  0  0  0  0  3  0  0  0  0  0  0
  -23.0040  -10.3290   20.2070 C   0  0  0  0  0  3  0  0  0  0  0  0
  -21.7610   -7.1460   21.5320 O   0  0  0  0  0  0  0  0  0  0  0  0
  -21.7190   -6.4190   22.6950 C   0  0  0  0  0  0  0  0  0  0  0  0
  -21.2400   -6.9730   23.9030 C   0  0  0  0  0  3  0  0  0  0  0  0
  -21.1500   -6.1710   25.0580 C   0  0  0  0  0  3  0  0  0  0  0  0
  -21.5270   -4.8160   25.0060 C   0  0  0  0  0  0  0  0  0  0  0  0
  -21.9980   -4.2610   23.8030 C   0  0  0  0  0  3  0  0  0  0  0  0
  -22.0910   -5.0610   22.6500 C   0  0  0  0  0  0  0  0  0  0  0  0
  -22.5260   -4.5170   21.4880 F   0  0  0  0  0  0  0  0  0  0  0  0
  -21.4320   -4.0420   26.1130 F   0  0  0  0  0  0  0  0  0  0  0  0
  -23.3060  -13.6880   21.0580 C   0  0  0  0  0  0  0  0  0  0  0  0
  -22.5860  -13.0650   21.9850 N   0  0  0  0  0  0  0  0  0  0  0  0
  -22.9090  -14.7300   20.5380 O   0  0  0  0  0  0  0  0  0  0  0  0
  -22.9210  -12.2220   22.4270 H   0  0  0  0  0  0  0  0  0  0  0  0
  -21.6880  -13.4380   22.2570 H   0  0  0  0  0  0  0  0  0  0  0  0
  -26.0040  -15.1470   20.0750 N   0  0  0  0  0  0  0  0  0  0  0  0
  -25.3000  -15.8600   20.2220 H   0  0  0  0  0  0  0  0  0  0  0  0
  -26.8770  -15.5190   19.7220 H   0  0  0  0  0  0  0  0  0  0  0  0
  -32.2650  -18.6730   16.4140 C   0  0  0  0  0  1  0  0  0  0  0  0
  -31.6600  -18.3800   17.6670 O   0  0  0  0  0  0  0  0  0  0  0  0
  1  4  1  0
  2  6  2  0
  2  3  1  0
  3  1  2  0
  4  7  1  0
  5 59  1  0
  5  4  2  0
  6  5  1  0
  8 12  1  0
 10  8  1  0
 10 13  1  0
 11  9  1  0
 12  3  1  0
 12  9  1  0
 13 14  1  1
 13 11  1  0
 15 13  1  0
 17 15  1  0
 17 16  1  0
 18 17  1  0
 18 20  1  0
 19 30  2  0
 20 25  1  0
 21 29  1  0
 21 31  1  0
 22 24  1  0
 22 28  1  0
 23 29  1  0
 24 23  1  0
 25 24  2  0
 26 20  2  0
 26 27  1  0
 27 22  2  0
 28 21  1  0
 29 19  1  0
 31 33  2  0
 32 31  1  0
 34 32  1  0
 35 44  2  0
 35 40  1  0
 36 32  1  0
 36 40  1  0
 37 36  1  0
 38 39  1  0
 38 37  1  0
 39 35  1  0
 40 41  2  0
 41 42  1  0
 43 42  2  0
 44 43  1  0
 45 19  1  0
 45 55  1  0
 45 46  1  0
 46 49  1  0
 47 46  1  0
 47 51  1  0
 48 47  2  0
 51 50  1  0
 51 53  1  0
 53 52  1  0
 53 54  1  0
 55 58  1  1
 55 56  1  0
 57 55  1  0
 59 62  1  0
 59 60  1  1
 61 59  1  0
 62 71  1  0
 63 69  1  0
 63 71  1  0
 64 69  1  0
 65 66  1  0
 65 64  1  0
 67 66  1  0
 67 76  1  0
 67 68  1  0
 69 68  1  0
 70 63  2  0
 71 72  1  0
 73 74  2  0
 74 93  1  0
 75 74  1  0
 75 78  1  0
 76 73  1  0
 76 77  1  0
 77 75  2  0
 78 79  1  0
 79 80  2  0
 81 84  1  0
 81 80  1  0
 82 81  2  0
 83 82  1  0
 83 78  2  0
 84 85  1  0
 85 86  1  0
 86 87  2  0
 88 87  1  0
 88 92  1  0
 89 88  2  0
 90 85  2  0
 90 89  1  0
 91 90  1  0
 93 94  1  0
 94 97  1  0
 94 96  1  0
 95 93  2  0
 98 99  1  0
 98 73  1  0
100 98  1  0
101102  1  0
102  6  1  0
M  ISO  4  17 101  18 101  63 100  71 100
M  END
>  <TORSDO>  (73) 
F 22

>  <SCORE>  (73) 
-11.261

>  <name>  (73) 
72

>  <ligand_id>  (73) 
72

>  <original_smiles>  (73) 
[H]c1c([H])c([H])c2c(c1[H])C([H])([H])C([H])([H])C([H])([H])C2([H])N([H])C(=O)C1([H])N(C(=O)C([H])(N([H])C(=O)C([H])(N([H])C([H])([H])[H])C([H])([H])[H])C(C([H])([H])[H])(C([H])([H])[H])C([H])([H])[H])C([H])([H])c2c([H])c(OC([H])(C([H])([H])[H])C([H])([H])[N+]3([H])C([H])([H])C([H])([H])C([H])(c4c([H])c(OC([H])([H])[H])c(C(F)(F)C([H])([H])N([H])C(=O)N5C([H])([H])C([H])([H])C([H])([H])C([H])(n6nc(-c7c([H])c([H])c(Oc8c([H])c([H])c(F)c([H])c8F)c([H])c7[H])c(C(=O)N([H])[H])c6N([H])[H])C5([H])[H])c(C([H])([H])[H])c4[H])C([H])([H])C3([H])[H])c([H])c([H])c2C1([H])[H]

>  <smiles>  (73) 
[H]c1c([H])c([H])c2c(c1[H])C([H])([H])C([H])([H])C([H])([H])C2([H])N([H])C(=O)C1([H])N(C(=O)C([H])(N([H])C(=O)C([H])(N([H])C([H])([H])[H])C([H])([H])[H])C(C([H])([H])[H])(C([H])([H])[H])C([H])([H])[H])C([H])([H])c2c([H])c(OC([H])(C([H])([H])[H])C([H])([H])[N+]3([H])C([H])([H])C([H])([H])C([H])(c4c([H])c(OC([H])([H])[H])c(C(F)(F)C([H])([H])N([H])C(=O)N5C([H])([H])C([H])([H])C([H])([H])C([H])(n6nc(-c7c([H])c([H])c(Oc8c([H])c([H])c(F)c([H])c8F)c([H])c7[H])c(C(=O)N([H])[H])c6N([H])[H])C5([H])[H])c(C([H])([H])[H])c4[H])C([H])([H])C3([H])[H])c([H])c([H])c2C1([H])[H]

$$$$
73:0:0
     RDKit          3D

 95104  0  0  1  0  0  0  0  0999 V2000
  -28.9170  -21.7970   18.9880 C   0  0  0  0  0  0  0  0  0  0  0  0
  -28.9780  -22.4830   21.3240 C   0  0  0  0  0  0  0  0  0  0  0  0
  -29.1090  -23.1510   18.5880 C   0  0  0  0  0  0  0  0  0  0  0  0
  -29.1000  -23.8620   20.9240 C   0  0  0  0  0  0  0  0  0  0  0  0
  -28.8550  -21.4290   20.3590 C   0  0  0  0  0  0  0  0  0  0  0  0
  -29.1020  -24.2150   19.5370 C   0  0  0  0  0  0  0  0  0  0  0  0
  -28.6980  -20.7520   17.9070 C   0  0  0  0  0  1  0  0  0  0  0  0
  -28.8730  -22.1120   22.8080 C   0  0  0  0  0  1  0  0  0  0  0  0
  -29.3040  -23.4500   17.0950 C   0  0  0  0  0  1  0  0  0  0  0  0
  -29.2130  -24.9840   21.9640 C   0  0  0  0  0  1  0  0  0  0  0  0
  -28.4100  -19.9820   20.7920 C   0  0  0  0  0  2  0  0  0  0  0  0
  -31.1150  -14.7360   19.9570 C   0  0  0  0  0  0  0  0  0  0  0  0
  -30.6860  -12.5240   18.9240 C   0  0  0  0  0  2  0  0  0  0  0  0
  -29.6570  -12.6040   17.7750 C   0  0  0  0  0  2  0  0  0  0  0  0
  -28.2340  -12.4120   18.3300 C   0  0  0  0  0  2  0  0  0  0  0  0
  -27.9460  -13.3470   19.5270 C   0  0  0  0  0  3  0  0  0  0  0  0
  -29.0890  -13.3000   20.5760 C   0  0  0  0  0  2  0  0  0  0  0  0
  -30.3590  -13.5900   19.8920 N   0  0  0  0  0  0  0  0  0  0  0  0
  -32.2960  -14.7170   19.5990 O   0  0  0  0  0  0  0  0  0  0  0  0
  -29.0120  -17.8240   19.4030 C   0  0  0  0  0  2  0  0  0  0  0  0
  -30.7550  -18.5370   20.9730 C   0  0  0  0  0  2  0  0  0  0  0  0
  -29.2580  -16.3290   19.6510 C   0  0  0  0  0  2  0  0  0  0  0  0
  -31.4090  -17.1250   20.6490 C   0  0  0  0  0  2  0  0  0  0  0  0
  -29.2510  -18.6350   20.6740 C   0  0  0  0  0  3  0  0  0  0  0  0
  -30.5400  -15.9540   20.2760 N   0  0  0  0  0  0  0  0  0  0  0  0
  -25.6520  -14.0340   20.4580 C   0  0  0  0  0  0  0  0  0  0  0  0
  -24.5840  -13.2910   20.8760 C   0  0  0  0  0  0  0  0  0  0  0  0
  -24.9880  -11.9260   20.7610 C   0  0  0  0  0  0  0  0  0  0  0  0
  -26.6360  -13.1170   20.1150 N   0  0  0  0  0  0  0  0  0  0  0  0
  -26.2490  -11.8440   20.3640 N   0  0  0  0  0  0  0  0  0  0  0  0
  -24.2270  -10.6860   20.9440 C   0  0  0  0  0  0  0  0  0  0  0  0
  -24.6360   -9.7050   21.8730 C   0  0  0  0  0  3  0  0  0  0  0  0
  -23.8810   -8.5260   22.0420 C   0  0  0  0  0  3  0  0  0  0  0  0
  -22.7030   -8.3240   21.2840 C   0  0  0  0  0  0  0  0  0  0  0  0
  -22.3170   -9.2920   20.3390 C   0  0  0  0  0  3  0  0  0  0  0  0
  -23.0730  -10.4620   20.1660 C   0  0  0  0  0  3  0  0  0  0  0  0
  -21.9210   -7.1990   21.3690 O   0  0  0  0  0  0  0  0  0  0  0  0
  -21.7610   -6.5210   22.5510 C   0  0  0  0  0  0  0  0  0  0  0  0
  -21.2080   -7.1360   23.6940 C   0  0  0  0  0  3  0  0  0  0  0  0
  -21.0000   -6.3850   24.8660 C   0  0  0  0  0  3  0  0  0  0  0  0
  -21.3320   -5.0180   24.8970 C   0  0  0  0  0  0  0  0  0  0  0  0
  -21.8780   -4.4010   23.7570 C   0  0  0  0  0  3  0  0  0  0  0  0
  -22.0900   -5.1510   22.5860 C   0  0  0  0  0  0  0  0  0  0  0  0
  -22.5970   -4.5470   21.4840 F   0  0  0  0  0  0  0  0  0  0  0  0
  -21.1260   -4.2940   26.0210 F   0  0  0  0  0  0  0  0  0  0  0  0
  -23.2290  -13.8060   21.2650 C   0  0  0  0  0  0  0  0  0  0  0  0
  -22.5490  -13.1080   22.1690 N   0  0  0  0  0  0  0  0  0  0  0  0
  -22.7860  -14.8590   20.8030 O   0  0  0  0  0  0  0  0  0  0  0  0
  -22.9150  -12.2530   22.5590 H   0  0  0  0  0  0  0  0  0  0  0  0
  -21.6450  -13.4360   22.4770 H   0  0  0  0  0  0  0  0  0  0  0  0
  -25.8560  -15.4050   20.3140 N   0  0  0  0  0  0  0  0  0  0  0  0
  -25.1310  -16.0940   20.4900 H   0  0  0  0  0  0  0  0  0  0  0  0
  -26.6940  -15.8170   19.9280 H   0  0  0  0  0  0  0  0  0  0  0  0
  -29.1060  -25.6730   18.9660 C   0  0  0  0  0  2  0  0  0  0  0  0
  -28.7880  -26.8230   19.7750 O   0  0  0  0  0  0  0  0  0  0  0  0
  -24.6760  -31.5980   23.0430 C   0  0  0  0  0  0  0  0  0  0  0  0
  -27.5640  -27.4700   19.7270 C   0  0  0  0  0  0  0  0  0  0  0  0
  -23.5480  -30.2320   21.3140 C   0  0  0  0  0  3  0  0  0  0  0  0
  -25.0880  -28.8620   19.7990 C   0  0  0  0  0  0  0  0  0  0  0  0
  -26.0490  -30.7330   21.1510 C   0  0  0  0  0  2  0  0  0  0  0  0
  -26.2130  -29.4080   20.4270 C   0  0  0  0  0  0  0  0  0  0  0  0
  -27.4470  -28.7180   20.3870 C   0  0  0  0  0  3  0  0  0  0  0  0
  -26.4180  -26.9380   19.0890 C   0  0  0  0  0  3  0  0  0  0  0  0
  -25.1910  -27.6310   19.1240 C   0  0  0  0  0  3  0  0  0  0  0  0
  -23.7930  -29.6430   19.8980 C   0  0  0  0  0  2  0  0  0  0  0  0
  -24.7760  -30.8660   21.8950 N   0  0  0  0  0  0  0  0  0  0  0  0
  -23.5820  -31.7810   23.5920 O   0  0  0  0  0  0  0  0  0  0  0  0
  -22.9470  -29.1260   22.2110 C   0  0  0  0  0  0  0  0  0  0  0  0
  -21.6240  -28.9220   22.1030 N   0  0  0  0  0  0  0  0  0  0  0  0
  -23.6650  -28.4600   22.9590 O   0  0  0  0  0  0  0  0  0  0  0  0
  -21.1010  -29.5110   21.4720 H   0  0  0  0  0  0  0  0  0  0  0  0
  -18.2940  -27.6280   22.6200 C   0  0  0  0  0  0  0  0  0  0  0  0
  -20.8540  -27.9090   22.8200 C   0  0  0  0  0  3  0  0  0  0  0  0
  -20.9550  -26.5340   22.1190 C   0  0  0  0  0  2  0  0  0  0  0  0
  -19.8230  -26.2780   21.1150 C   0  0  0  0  0  2  0  0  0  0  0  0
  -18.4640  -26.3450   21.8220 C   0  0  0  0  0  2  0  0  0  0  0  0
  -19.4160  -28.3700   23.0740 C   0  0  0  0  0  0  0  0  0  0  0  0
  -19.2030  -29.5760   23.7790 C   0  0  0  0  0  3  0  0  0  0  0  0
  -17.8980  -30.0370   24.0370 C   0  0  0  0  0  3  0  0  0  0  0  0
  -16.7890  -29.2900   23.6020 C   0  0  0  0  0  3  0  0  0  0  0  0
  -16.9890  -28.0890   22.8950 C   0  0  0  0  0  3  0  0  0  0  0  0
  -25.9250  -32.2600   23.7050 C   0  0  0  0  0  3  0  0  0  0  0  0
  -25.5490  -33.6280   24.0910 N   0  0  0  0  0  0  0  0  0  0  0  0
  -25.8310  -34.7260   23.3760 C   0  0  0  0  0  0  0  0  0  0  0  0
  -26.5010  -34.6980   22.3400 O   0  0  0  0  0  0  0  0  0  0  0  0
  -24.9420  -33.7210   24.8940 H   0  0  0  0  0  0  0  0  0  0  0  0
  -24.0040  -36.4350   23.1080 C   0  0  0  0  0  1  0  0  0  0  0  0
  -25.2770  -36.0690   23.8870 C   0  0  0  0  0  3  0  0  0  0  0  0
  -27.3670  -37.0420   24.7320 C   0  0  0  0  0  1  0  0  0  0  0  0
  -26.2530  -37.1800   23.7970 N   0  0  0  0  0  0  0  0  0  0  0  0
  -25.8010  -38.0720   23.9770 H   0  0  0  0  0  0  0  0  0  0  0  0
  -26.4700  -31.4560   24.9480 C   0  0  1  0  0  0  0  0  0  0  0  0
  -25.3840  -31.1270   25.9970 C   0  0  0  0  0  1  0  0  0  0  0  0
  -27.1050  -30.1200   24.5010 C   0  0  0  0  0  1  0  0  0  0  0  0
  -27.5880  -32.2660   25.6470 C   0  0  0  0  0  1  0  0  0  0  0  0
  1  5  1  0
  2  8  1  0
  3  1  2  0
  3  6  1  0
  4  2  1  0
  4 10  1  0
  5 11  1  0
  5  2  2  0
  6  4  2  0
  7  1  1  0
  9  3  1  0
 12 25  1  0
 13 18  1  0
 14 15  1  0
 14 13  1  0
 16 15  1  0
 16 29  1  0
 16 17  1  0
 18 12  1  0
 18 17  1  0
 19 12  2  0
 20 22  1  0
 20 24  1  0
 22 25  1  0
 23 21  1  0
 24 11  1  0
 24 21  1  0
 25 23  1  0
 26 27  2  0
 27 46  1  0
 28 27  1  0
 28 31  1  0
 29 30  1  0
 29 26  1  0
 30 28  2  0
 31 32  1  0
 32 33  2  0
 34 37  1  0
 34 33  1  0
 35 34  2  0
 36 35  1  0
 36 31  2  0
 37 38  1  0
 38 43  2  0
 38 39  1  0
 39 40  2  0
 40 41  1  0
 41 45  1  0
 42 41  2  0
 43 42  1  0
 44 43  1  0
 46 47  1  0
 47 50  1  0
 47 49  1  0
 48 46  2  0
 51 26  1  0
 51 52  1  0
 53 51  1  0
 54  6  1  0
 54 55  1  0
 56 67  2  0
 57 55  1  0
 57 62  1  0
 58 66  1  0
 58 68  1  0
 59 65  1  0
 59 61  1  0
 60 66  1  0
 61 60  1  0
 62 61  2  0
 63 64  1  0
 63 57  2  0
 64 59  2  0
 65 58  1  0
 66 56  1  0
 68 70  2  0
 69 68  1  0
 71 69  1  0
 72 81  2  0
 72 77  1  0
 73 69  1  0
 73 77  1  0
 74 73  1  0
 75 76  1  0
 75 74  1  0
 76 72  1  0
 77 78  2  0
 78 79  1  0
 80 79  2  0
 81 80  1  0
 82 56  1  0
 82 83  1  0
 82 92  1  0
 83 86  1  0
 84 88  1  0
 84 83  1  0
 85 84  2  0
 88 87  1  0
 90 88  1  0
 90 91  1  0
 90 89  1  0
 92 95  1  1
 92 93  1  0
 94 92  1  0
M  ISO  4  12 100  25 100  54 101  55 101
M  END
>  <TORSDO>  (74) 
F 18

>  <SCORE>  (74) 
-13.624

>  <name>  (74) 
73

>  <ligand_id>  (74) 
73

>  <original_smiles>  (74) 
[H]c1c([H])c([H])c2c(c1[H])C([H])([H])C([H])([H])C([H])([H])C2([H])N([H])C(=O)C1([H])N(C(=O)C([H])(N([H])C(=O)C([H])(N([H])C([H])([H])[H])C([H])([H])[H])C(C([H])([H])[H])(C([H])([H])[H])C([H])([H])[H])C([H])([H])c2c([H])c(OC([H])([H])c3c(C([H])([H])[H])c(C([H])([H])[H])c(C([H])([H])C4([H])C([H])([H])C([H])([H])N(C(=O)N5C([H])([H])C([H])([H])C([H])([H])C([H])(n6nc(-c7c([H])c([H])c(Oc8c([H])c([H])c(F)c([H])c8F)c([H])c7[H])c(C(=O)N([H])[H])c6N([H])[H])C5([H])[H])C([H])([H])C4([H])[H])c(C([H])([H])[H])c3C([H])([H])[H])c([H])c([H])c2C1([H])[H]

>  <smiles>  (74) 
[H]c1c([H])c([H])c2c(c1[H])C([H])([H])C([H])([H])C([H])([H])C2([H])N([H])C(=O)C1([H])N(C(=O)C([H])(N([H])C(=O)C([H])(N([H])C([H])([H])[H])C([H])([H])[H])C(C([H])([H])[H])(C([H])([H])[H])C([H])([H])[H])C([H])([H])c2c([H])c(OC([H])([H])c3c(C([H])([H])[H])c(C([H])([H])[H])c(C([H])([H])C4([H])C([H])([H])C([H])([H])N(C(=O)N5C([H])([H])C([H])([H])C([H])([H])C([H])(n6nc(-c7c([H])c([H])c(Oc8c([H])c([H])c(F)c([H])c8F)c([H])c7[H])c(C(=O)N([H])[H])c6N([H])[H])C5([H])[H])C([H])([H])C4([H])[H])c(C([H])([H])[H])c3C([H])([H])[H])c([H])c([H])c2C1([H])[H]

$$$$
74:0:0
     RDKit          3D

 96105  0  0  1  0  0  0  0  0999 V2000
  -28.8280  -23.7440   18.3780 C   0  0  0  0  0  3  0  0  0  0  0  0
  -30.7900  -23.1340   20.2870 C   0  0  0  0  0  3  0  0  0  0  0  0
  -29.3500  -24.7770   19.1850 C   0  0  0  0  0  0  0  0  0  0  0  0
  -29.2980  -22.4220   18.4970 C   0  0  0  0  0  0  0  0  0  0  0  0
  -30.3310  -24.4640   20.1620 C   0  0  0  0  0  0  0  0  0  0  0  0
  -30.2990  -22.1070   19.4420 C   0  0  0  0  0  0  0  0  0  0  0  0
  -28.7260  -21.3470   17.5890 C   0  0  0  0  0  1  0  0  0  0  0  0
  -30.9110  -25.5310   21.0810 C   0  0  0  0  0  1  0  0  0  0  0  0
  -28.8740  -26.2010   18.9330 C   0  0  0  0  0  2  0  0  0  0  0  0
  -28.4080  -26.8280   20.1200 O   0  0  0  0  0  0  0  0  0  0  0  0
  -24.5630  -31.8660   23.2360 C   0  0  0  0  0  0  0  0  0  0  0  0
  -27.2160  -27.5010   20.0900 C   0  0  0  0  0  0  0  0  0  0  0  0
  -23.3510  -30.4840   21.5760 C   0  0  0  0  0  3  0  0  0  0  0  0
  -24.8050  -28.9650   20.1300 C   0  0  0  0  0  0  0  0  0  0  0  0
  -25.8700  -30.8550   21.3780 C   0  0  0  0  0  2  0  0  0  0  0  0
  -25.9560  -29.4920   20.7280 C   0  0  0  0  0  0  0  0  0  0  0  0
  -27.1590  -28.7590   20.7190 C   0  0  0  0  0  3  0  0  0  0  0  0
  -26.0470  -26.9690   19.5020 C   0  0  0  0  0  3  0  0  0  0  0  0
  -24.8440  -27.6990   19.5180 C   0  0  0  0  0  3  0  0  0  0  0  0
  -23.5570  -29.8170   20.1880 C   0  0  0  0  0  2  0  0  0  0  0  0
  -24.6130  -31.0820   22.1230 N   0  0  0  0  0  0  0  0  0  0  0  0
  -23.4840  -32.1320   23.7820 O   0  0  0  0  0  0  0  0  0  0  0  0
  -22.7030  -29.4510   22.5240 C   0  0  0  0  0  0  0  0  0  0  0  0
  -21.3800  -29.2710   22.3900 N   0  0  0  0  0  0  0  0  0  0  0  0
  -23.3860  -28.8190   23.3330 O   0  0  0  0  0  0  0  0  0  0  0  0
  -20.8890  -29.8350   21.7130 H   0  0  0  0  0  0  0  0  0  0  0  0
  -18.0060  -28.0700   22.8540 C   0  0  0  0  0  0  0  0  0  0  0  0
  -20.5620  -28.3240   23.1470 C   0  0  0  0  0  3  0  0  0  0  0  0
  -20.6680  -26.8990   22.5570 C   0  0  0  0  0  2  0  0  0  0  0  0
  -19.5730  -26.5860   21.5330 C   0  0  0  0  0  2  0  0  0  0  0  0
  -18.1860  -26.7280   22.1680 C   0  0  0  0  0  2  0  0  0  0  0  0
  -19.1220  -28.8270   23.3000 C   0  0  0  0  0  0  0  0  0  0  0  0
  -18.9000  -30.0870   23.8970 C   0  0  0  0  0  3  0  0  0  0  0  0
  -17.5940  -30.5880   24.0590 C   0  0  0  0  0  3  0  0  0  0  0  0
  -16.4920  -29.8250   23.6340 C   0  0  0  0  0  3  0  0  0  0  0  0
  -16.6980  -28.5700   23.0350 C   0  0  0  0  0  3  0  0  0  0  0  0
  -25.8540  -32.4850   23.8620 C   0  0  0  0  0  3  0  0  0  0  0  0
  -26.3660  -31.7030   25.1340 C   0  0  1  0  0  0  0  0  0  0  0  0
  -25.2710  -31.4650   26.1980 C   0  0  0  0  0  1  0  0  0  0  0  0
  -26.9430  -30.3260   24.7320 C   0  0  0  0  0  1  0  0  0  0  0  0
  -27.5170  -32.4880   25.8060 C   0  0  0  0  0  1  0  0  0  0  0  0
  -25.5530  -33.8830   24.1960 N   0  0  0  0  0  0  0  0  0  0  0  0
  -25.8820  -34.9340   23.4320 C   0  0  0  0  0  0  0  0  0  0  0  0
  -26.5410  -34.8300   22.3950 O   0  0  0  0  0  0  0  0  0  0  0  0
  -24.9710  -34.0420   25.0050 H   0  0  0  0  0  0  0  0  0  0  0  0
  -24.1520  -36.7280   23.0960 C   0  0  0  0  0  1  0  0  0  0  0  0
  -25.4020  -36.3240   23.8940 C   0  0  0  0  0  3  0  0  0  0  0  0
  -27.5460  -37.2090   24.6990 C   0  0  0  0  0  1  0  0  0  0  0  0
  -26.4330  -37.3770   23.7690 N   0  0  0  0  0  0  0  0  0  0  0  0
  -26.0290  -38.2970   23.9250 H   0  0  0  0  0  0  0  0  0  0  0  0
  -30.7330  -20.7960   19.4840 O   0  0  0  0  0  0  0  0  0  0  0  0
  -31.9500  -20.5090   20.1670 C   0  0  0  0  0  2  0  0  0  0  0  0
  -32.3120  -19.0290   19.9730 C   0  0  0  0  0  2  0  0  0  0  0  0
  -30.6530  -14.4130   20.1420 C   0  0  0  0  0  0  0  0  0  0  0  0
  -30.1730  -12.3240   18.9250 C   0  0  0  0  0  2  0  0  0  0  0  0
  -29.1650  -12.5640   17.7840 C   0  0  0  0  0  2  0  0  0  0  0  0
  -27.7250  -12.4040   18.3000 C   0  0  0  0  0  2  0  0  0  0  0  0
  -27.4710  -13.2270   19.5910 C   0  0  0  0  0  3  0  0  0  0  0  0
  -28.5940  -13.0200   20.6380 C   0  0  0  0  0  2  0  0  0  0  0  0
  -29.8900  -13.2930   19.9950 N   0  0  0  0  0  0  0  0  0  0  0  0
  -31.7200  -14.5710   19.5450 O   0  0  0  0  0  0  0  0  0  0  0  0
  -31.0440  -15.9690   21.9780 C   0  0  0  0  0  2  0  0  0  0  0  0
  -29.4110  -16.4960   20.3180 C   0  0  0  0  0  2  0  0  0  0  0  0
  -32.0210  -17.0370   21.4180 C   0  0  0  0  0  2  0  0  0  0  0  0
  -30.3370  -17.5520   19.6660 C   0  0  0  0  0  2  0  0  0  0  0  0
  -30.1780  -15.4020   20.9350 N   0  0  0  0  0  0  0  0  0  0  0  0
  -31.3430  -18.0970   20.6220 N   0  0  2  0  0  4  0  0  0  0  0  0
  -30.8200  -18.6500   21.2870 H   0  0  0  0  0  0  0  0  0  0  0  0
  -25.1260  -13.8460   20.4500 C   0  0  0  0  0  0  0  0  0  0  0  0
  -24.0720  -13.0770   20.8680 C   0  0  0  0  0  0  0  0  0  0  0  0
  -24.5170  -11.7220   20.7920 C   0  0  0  0  0  0  0  0  0  0  0  0
  -26.1460  -12.9570   20.1480 N   0  0  0  0  0  0  0  0  0  0  0  0
  -25.7880  -11.6750   20.4120 N   0  0  0  0  0  0  0  0  0  0  0  0
  -23.7920  -10.4630   21.0020 C   0  0  0  0  0  0  0  0  0  0  0  0
  -24.2680   -9.4810   21.9000 C   0  0  0  0  0  3  0  0  0  0  0  0
  -23.5430   -8.2870   22.1020 C   0  0  0  0  0  3  0  0  0  0  0  0
  -22.3310   -8.0650   21.4050 C   0  0  0  0  0  0  0  0  0  0  0  0
  -21.8730   -9.0350   20.4940 C   0  0  0  0  0  3  0  0  0  0  0  0
  -22.5980  -10.2220   20.2900 C   0  0  0  0  0  3  0  0  0  0  0  0
  -21.5740   -6.9220   21.5160 O   0  0  0  0  0  0  0  0  0  0  0  0
  -21.5880   -6.1560   22.6550 C   0  0  0  0  0  0  0  0  0  0  0  0
  -21.2330   -6.6850   23.9150 C   0  0  0  0  0  3  0  0  0  0  0  0
  -21.1980   -5.8470   25.0480 C   0  0  0  0  0  3  0  0  0  0  0  0
  -21.5060   -4.4790   24.9200 C   0  0  0  0  0  0  0  0  0  0  0  0
  -21.8510   -3.9470   23.6660 C   0  0  0  0  0  3  0  0  0  0  0  0
  -21.8890   -4.7830   22.5360 C   0  0  0  0  0  0  0  0  0  0  0  0
  -22.2030   -4.2630   21.3250 F   0  0  0  0  0  0  0  0  0  0  0  0
  -21.4630   -3.6710   26.0050 F   0  0  0  0  0  0  0  0  0  0  0  0
  -22.6980  -13.5630   21.2270 C   0  0  0  0  0  0  0  0  0  0  0  0
  -22.0100  -12.8550   22.1150 N   0  0  0  0  0  0  0  0  0  0  0  0
  -22.2430  -14.6050   20.7540 O   0  0  0  0  0  0  0  0  0  0  0  0
  -22.3900  -12.0100   22.5190 H   0  0  0  0  0  0  0  0  0  0  0  0
  -21.0880  -13.1550   22.3920 H   0  0  0  0  0  0  0  0  0  0  0  0
  -25.3020  -15.2160   20.2790 N   0  0  0  0  0  0  0  0  0  0  0  0
  -24.5580  -15.8910   20.4200 H   0  0  0  0  0  0  0  0  0  0  0  0
  -26.1560  -15.6340   19.9340 H   0  0  0  0  0  0  0  0  0  0  0  0
  1  4  2  0
  1  3  1  0
  3  5  2  0
  4  6  1  0
  5  2  1  0
  5  8  1  0
  6 51  1  0
  6  2  2  0
  7  4  1  0
  9  3  1  0
  9 10  1  0
 11 22  2  0
 12 10  1  0
 12 17  1  0
 13 21  1  0
 13 23  1  0
 14 20  1  0
 14 16  1  0
 15 21  1  0
 16 15  1  0
 17 16  2  0
 18 19  1  0
 18 12  2  0
 19 14  2  0
 20 13  1  0
 21 11  1  0
 23 25  2  0
 24 23  1  0
 26 24  1  0
 27 36  2  0
 27 32  1  0
 28 24  1  0
 28 32  1  0
 29 28  1  0
 30 31  1  0
 30 29  1  0
 31 27  1  0
 32 33  2  0
 33 34  1  0
 35 34  2  0
 36 35  1  0
 37 11  1  0
 37 42  1  0
 37 38  1  0
 38 41  1  1
 38 39  1  0
 40 38  1  0
 42 45  1  0
 43 47  1  0
 43 42  1  0
 44 43  2  0
 47 46  1  0
 49 47  1  0
 49 50  1  0
 49 48  1  0
 51 52  1  0
 53 52  1  0
 53 67  1  0
 54 66  1  0
 55 60  1  0
 56 57  1  0
 56 55  1  0
 58 57  1  0
 58 72  1  0
 58 59  1  0
 60 54  1  0
 60 59  1  0
 61 54  2  0
 63 66  1  0
 64 62  1  0
 65 63  1  0
 65 67  1  0
 66 62  1  0
 67 68  1  1
 67 64  1  0
 69 70  2  0
 70 89  1  0
 71 70  1  0
 71 74  1  0
 72 73  1  0
 72 69  1  0
 73 71  2  0
 74 75  1  0
 75 76  2  0
 77 80  1  0
 77 76  1  0
 78 77  2  0
 79 78  1  0
 79 74  2  0
 80 81  1  0
 81 82  1  0
 82 83  2  0
 84 83  1  0
 84 88  1  0
 85 84  2  0
 86 81  2  0
 86 85  1  0
 87 86  1  0
 89 90  1  0
 90 93  1  0
 90 92  1  0
 91 89  2  0
 94 95  1  0
 94 69  1  0
 96 94  1  0
M  ISO  4   9 101  10 101  54 100  66 100
M  END
>  <TORSDO>  (75) 
F 20

>  <SCORE>  (75) 
-13.426

>  <name>  (75) 
74

>  <ligand_id>  (75) 
74

>  <original_smiles>  (75) 
[H]c1c([H])c([H])c2c(c1[H])C([H])([H])C([H])([H])C([H])([H])C2([H])N([H])C(=O)C1([H])N(C(=O)C([H])(N([H])C(=O)C([H])(N([H])C([H])([H])[H])C([H])([H])[H])C(C([H])([H])[H])(C([H])([H])[H])C([H])([H])[H])C([H])([H])c2c([H])c(OC([H])([H])c3c([H])c(C([H])([H])[H])c(OC([H])([H])C([H])([H])[N+]4([H])C([H])([H])C([H])([H])N(C(=O)N5C([H])([H])C([H])([H])C([H])([H])C([H])(n6nc(-c7c([H])c([H])c(Oc8c([H])c([H])c(F)c([H])c8F)c([H])c7[H])c(C(=O)N([H])[H])c6N([H])[H])C5([H])[H])C([H])([H])C4([H])[H])c([H])c3C([H])([H])[H])c([H])c([H])c2C1([H])[H]

>  <smiles>  (75) 
[H]c1c([H])c([H])c2c(c1[H])C([H])([H])C([H])([H])C([H])([H])C2([H])N([H])C(=O)C1([H])N(C(=O)C([H])(N([H])C(=O)C([H])(N([H])C([H])([H])[H])C([H])([H])[H])C(C([H])([H])[H])(C([H])([H])[H])C([H])([H])[H])C([H])([H])c2c([H])c(OC([H])([H])c3c([H])c(C([H])([H])[H])c(OC([H])([H])C([H])([H])[N+]4([H])C([H])([H])C([H])([H])N(C(=O)N5C([H])([H])C([H])([H])C([H])([H])C([H])(n6nc(-c7c([H])c([H])c(Oc8c([H])c([H])c(F)c([H])c8F)c([H])c7[H])c(C(=O)N([H])[H])c6N([H])[H])C5([H])[H])C([H])([H])C4([H])[H])c([H])c3C([H])([H])[H])c([H])c([H])c2C1([H])[H]

$$$$
75:0:0
     RDKit          3D

 94103  0  0  1  0  0  0  0  0999 V2000
  -27.2260  -19.7600   19.0900 C   0  0  0  0  0  3  0  0  0  0  0  0
  -26.7650  -22.4510   18.9070 C   0  0  0  0  0  3  0  0  0  0  0  0
  -28.3210  -20.5990   19.4460 C   0  0  0  0  0  0  0  0  0  0  0  0
  -25.9670  -20.1940   18.6700 C   0  0  0  0  0  0  0  0  0  0  0  0
  -28.0710  -22.0920   19.3650 C   0  0  0  0  0  0  0  0  0  0  0  0
  -25.7360  -21.5620   18.5690 C   0  0  0  0  0  0  0  0  0  0  0  0
  -24.8950  -19.1770   18.3150 C   0  0  0  0  0  1  0  0  0  0  0  0
  -24.3930  -22.0980   18.0950 C   0  0  0  0  0  1  0  0  0  0  0  0
  -31.0330  -15.0850   20.0610 C   0  0  0  0  0  0  0  0  0  0  0  0
  -30.7970  -12.7280   19.2130 C   0  0  0  0  0  2  0  0  0  0  0  0
  -29.8560  -12.6630   17.9910 C   0  0  0  0  0  2  0  0  0  0  0  0
  -28.3980  -12.4960   18.4510 C   0  0  0  0  0  2  0  0  0  0  0  0
  -28.0140  -13.4790   19.5900 C   0  0  0  0  0  3  0  0  0  0  0  0
  -29.0840  -13.5440   20.7010 C   0  0  0  0  0  2  0  0  0  0  0  0
  -30.3550  -13.8760   20.0490 N   0  0  0  0  0  0  0  0  0  0  0  0
  -32.2370  -15.0550   19.7840 O   0  0  0  0  0  0  0  0  0  0  0  0
  -29.2890  -18.5670   21.0010 C   0  0  0  0  0  2  0  0  0  0  0  0
  -29.9470  -18.6120   18.6410 C   0  0  0  0  0  2  0  0  0  0  0  0
  -30.1710  -17.2300   21.1660 C   0  0  0  0  0  2  0  0  0  0  0  0
  -30.8280  -17.3180   18.9460 C   0  0  0  0  0  2  0  0  0  0  0  0
  -29.5600  -19.6070   19.8130 C   0  0  0  0  0  3  0  0  0  0  0  0
  -30.3560  -16.3310   19.9790 N   0  0  0  0  0  0  0  0  0  0  0  0
  -25.6690  -14.1000   20.4070 C   0  0  0  0  0  0  0  0  0  0  0  0
  -24.5940  -13.3440   20.7820 C   0  0  0  0  0  0  0  0  0  0  0  0
  -25.0230  -11.9820   20.7080 C   0  0  0  0  0  0  0  0  0  0  0  0
  -26.6830  -13.2020   20.1190 N   0  0  0  0  0  0  0  0  0  0  0  0
  -26.3040  -11.9210   20.3670 N   0  0  0  0  0  0  0  0  0  0  0  0
  -24.2680  -10.7330   20.8840 C   0  0  0  0  0  0  0  0  0  0  0  0
  -24.6220   -9.7870   21.8700 C   0  0  0  0  0  3  0  0  0  0  0  0
  -23.8670   -8.6050   22.0330 C   0  0  0  0  0  3  0  0  0  0  0  0
  -22.7420   -8.3620   21.2100 C   0  0  0  0  0  0  0  0  0  0  0  0
  -22.4070   -9.2970   20.2150 C   0  0  0  0  0  3  0  0  0  0  0  0
  -23.1630  -10.4690   20.0500 C   0  0  0  0  0  3  0  0  0  0  0  0
  -21.9650   -7.2310   21.2800 O   0  0  0  0  0  0  0  0  0  0  0  0
  -21.7370   -6.5860   22.4690 C   0  0  0  0  0  0  0  0  0  0  0  0
  -21.0870   -7.2230   23.5500 C   0  0  0  0  0  3  0  0  0  0  0  0
  -20.8100   -6.5020   24.7290 C   0  0  0  0  0  3  0  0  0  0  0  0
  -21.1730   -5.1460   24.8270 C   0  0  0  0  0  0  0  0  0  0  0  0
  -21.8170   -4.5090   23.7520 C   0  0  0  0  0  3  0  0  0  0  0  0
  -22.0940   -5.2270   22.5740 C   0  0  0  0  0  0  0  0  0  0  0  0
  -22.6950   -4.6020   21.5330 F   0  0  0  0  0  0  0  0  0  0  0  0
  -20.9010   -4.4510   25.9560 F   0  0  0  0  0  0  0  0  0  0  0  0
  -23.2170  -13.8490   21.0960 C   0  0  0  0  0  0  0  0  0  0  0  0
  -22.4980  -13.1620   21.9760 N   0  0  0  0  0  0  0  0  0  0  0  0
  -22.7890  -14.8890   20.5960 O   0  0  0  0  0  0  0  0  0  0  0  0
  -22.8580  -12.3200   22.4020 H   0  0  0  0  0  0  0  0  0  0  0  0
  -21.5750  -13.4840   22.2310 H   0  0  0  0  0  0  0  0  0  0  0  0
  -25.8680  -15.4690   20.2630 N   0  0  0  0  0  0  0  0  0  0  0  0
  -25.1320  -16.1450   20.4310 H   0  0  0  0  0  0  0  0  0  0  0  0
  -26.7380  -15.8920   19.9640 H   0  0  0  0  0  0  0  0  0  0  0  0
  -30.1940  -23.4480   18.7830 C   0  0  0  0  0  1  0  0  0  0  0  0
  -28.9450  -23.4450   19.6690 C   0  0  0  0  0  3  0  0  0  0  0  0
  -28.1680  -24.9370   19.5420 C   0  0  0  0  0  2  0  0  0  0  0  0
  -28.4940  -26.3930   19.9180 O   0  0  0  0  0  0  0  0  0  0  0  0
  -24.6640  -31.7060   23.2400 C   0  0  0  0  0  0  0  0  0  0  0  0
  -27.4200  -27.3500   19.8940 C   0  0  0  0  0  0  0  0  0  0  0  0
  -23.5250  -30.3970   21.4910 C   0  0  0  0  0  3  0  0  0  0  0  0
  -25.0370  -28.9980   19.9680 C   0  0  0  0  0  0  0  0  0  0  0  0
  -26.0700  -30.7680   21.3740 C   0  0  0  0  0  2  0  0  0  0  0  0
  -26.1950  -29.4370   20.6210 C   0  0  0  0  0  0  0  0  0  0  0  0
  -27.3900  -28.6290   20.5720 C   0  0  0  0  0  3  0  0  0  0  0  0
  -26.2290  -27.0180   19.2020 C   0  0  0  0  0  3  0  0  0  0  0  0
  -25.0640  -27.8020   19.2450 C   0  0  0  0  0  3  0  0  0  0  0  0
  -23.7780  -29.8410   20.0670 C   0  0  0  0  0  2  0  0  0  0  0  0
  -24.7720  -30.9730   22.0910 N   0  0  0  0  0  0  0  0  0  0  0  0
  -23.5650  -31.9160   23.7740 O   0  0  0  0  0  0  0  0  0  0  0  0
  -22.8780  -29.2940   22.3650 C   0  0  0  0  0  0  0  0  0  0  0  0
  -21.5600  -29.0790   22.2030 N   0  0  0  0  0  0  0  0  0  0  0  0
  -23.5630  -28.6380   23.1540 O   0  0  0  0  0  0  0  0  0  0  0  0
  -21.0630  -29.6630   21.5450 H   0  0  0  0  0  0  0  0  0  0  0  0
  -18.2140  -27.7470   22.5880 C   0  0  0  0  0  0  0  0  0  0  0  0
  -20.7640  -28.0630   22.8940 C   0  0  0  0  0  3  0  0  0  0  0  0
  -20.9120  -26.6820   22.2130 C   0  0  0  0  0  2  0  0  0  0  0  0
  -19.8250  -26.4040   21.1700 C   0  0  0  0  0  2  0  0  0  0  0  0
  -18.4360  -26.4590   21.8120 C   0  0  0  0  0  2  0  0  0  0  0  0
  -19.3080  -28.5070   23.0820 C   0  0  0  0  0  0  0  0  0  0  0  0
  -19.0470  -29.7130   23.7680 C   0  0  0  0  0  3  0  0  0  0  0  0
  -17.7250  -30.1590   23.9650 C   0  0  0  0  0  3  0  0  0  0  0  0
  -16.6470  -29.3940   23.4860 C   0  0  0  0  0  3  0  0  0  0  0  0
  -16.8930  -28.1910   22.8030 C   0  0  0  0  0  3  0  0  0  0  0  0
  -25.9150  -32.3360   23.9230 C   0  0  0  0  0  3  0  0  0  0  0  0
  -25.5980  -33.7390   24.2310 N   0  0  0  0  0  0  0  0  0  0  0  0
  -25.9240  -34.7820   23.4570 C   0  0  0  0  0  0  0  0  0  0  0  0
  -26.5920  -34.6660   22.4260 O   0  0  0  0  0  0  0  0  0  0  0  0
  -25.0040  -33.9020   25.0300 H   0  0  0  0  0  0  0  0  0  0  0  0
  -24.1690  -36.5520   23.1060 C   0  0  0  0  0  1  0  0  0  0  0  0
  -25.4340  -36.1760   23.8960 C   0  0  0  0  0  3  0  0  0  0  0  0
  -27.5660  -37.1120   24.6730 C   0  0  0  0  0  1  0  0  0  0  0  0
  -26.4520  -37.2360   23.7370 N   0  0  0  0  0  0  0  0  0  0  0  0
  -26.0360  -38.1560   23.8610 H   0  0  0  0  0  0  0  0  0  0  0  0
  -26.3570  -31.5710   25.2310 C   0  0  1  0  0  0  0  0  0  0  0  0
  -25.2070  -31.3530   26.2430 C   0  0  0  0  0  1  0  0  0  0  0  0
  -26.9450  -30.1830   24.8860 C   0  0  0  0  0  1  0  0  0  0  0  0
  -27.4800  -32.3590   25.9440 C   0  0  0  0  0  1  0  0  0  0  0  0
  1  3  1  0
  2  5  1  0
  4  1  2  0
  5  3  2  0
  5 52  1  0
  6  4  1  0
  6  2  2  0
  7  4  1  0
  8  6  1  0
 10 15  1  0
 11 12  1  0
 11 10  1  0
 13 12  1  0
 13 26  1  0
 13 14  1  0
 15  9  1  0
 15 14  1  0
 16  9  2  0
 17 19  1  0
 18 20  1  0
 18 21  1  0
 20 22  1  0
 21  3  1  0
 21 17  1  0
 22  9  1  0
 22 19  1  0
 23 24  2  0
 24 43  1  0
 25 24  1  0
 25 28  1  0
 26 27  1  0
 26 23  1  0
 27 25  2  0
 28 29  1  0
 29 30  2  0
 31 34  1  0
 31 30  1  0
 32 31  2  0
 33 32  1  0
 33 28  2  0
 34 35  1  0
 35 40  2  0
 35 36  1  0
 36 37  2  0
 37 38  1  0
 38 42  1  0
 39 38  2  0
 40 39  1  0
 41 40  1  0
 43 44  1  0
 44 47  1  0
 44 46  1  0
 45 43  2  0
 48 23  1  0
 48 49  1  0
 50 48  1  0
 52 51  1  0
 53 52  1  0
 53 54  1  0
 55 66  2  0
 56 54  1  0
 56 61  1  0
 57 65  1  0
 57 67  1  0
 58 64  1  0
 58 60  1  0
 59 65  1  0
 60 59  1  0
 61 60  2  0
 62 63  1  0
 62 56  2  0
 63 58  2  0
 64 57  1  0
 65 55  1  0
 67 69  2  0
 68 67  1  0
 70 68  1  0
 71 80  2  0
 71 76  1  0
 72 68  1  0
 72 76  1  0
 73 72  1  0
 74 75  1  0
 74 73  1  0
 75 71  1  0
 76 77  2  0
 77 78  1  0
 79 78  2  0
 80 79  1  0
 81 55  1  0
 81 82  1  0
 81 91  1  0
 82 85  1  0
 83 87  1  0
 83 82  1  0
 84 83  2  0
 87 86  1  0
 89 90  1  0
 89 87  1  0
 89 88  1  0
 91 94  1  1
 91 92  1  0
 93 91  1  0
M  ISO  4   9 100  22 100  53 101  54 101
M  END
>  <TORSDO>  (76) 
F 18

>  <SCORE>  (76) 
-12.966

>  <name>  (76) 
75

>  <ligand_id>  (76) 
75

>  <original_smiles>  (76) 
[H]c1c([H])c([H])c2c(c1[H])C([H])([H])C([H])([H])C([H])([H])C2([H])N([H])C(=O)C1([H])N(C(=O)C([H])(N([H])C(=O)C([H])(N([H])C([H])([H])[H])C([H])([H])[H])C(C([H])([H])[H])(C([H])([H])[H])C([H])([H])[H])C([H])([H])c2c([H])c(OC([H])([H])C([H])(c3c([H])c(C([H])([H])[H])c(C([H])([H])[H])c([H])c3C3([H])C([H])([H])C([H])([H])N(C(=O)N4C([H])([H])C([H])([H])C([H])([H])C([H])(n5nc(-c6c([H])c([H])c(Oc7c([H])c([H])c(F)c([H])c7F)c([H])c6[H])c(C(=O)N([H])[H])c5N([H])[H])C4([H])[H])C([H])([H])C3([H])[H])C([H])([H])[H])c([H])c([H])c2C1([H])[H]

>  <smiles>  (76) 
[H]c1c([H])c([H])c2c(c1[H])C([H])([H])C([H])([H])C([H])([H])C2([H])N([H])C(=O)C1([H])N(C(=O)C([H])(N([H])C(=O)C([H])(N([H])C([H])([H])[H])C([H])([H])[H])C(C([H])([H])[H])(C([H])([H])[H])C([H])([H])[H])C([H])([H])c2c([H])c(OC([H])([H])C([H])(c3c([H])c(C([H])([H])[H])c(C([H])([H])[H])c([H])c3C3([H])C([H])([H])C([H])([H])N(C(=O)N4C([H])([H])C([H])([H])C([H])([H])C([H])(n5nc(-c6c([H])c([H])c(Oc7c([H])c([H])c(F)c([H])c7F)c([H])c6[H])c(C(=O)N([H])[H])c5N([H])[H])C4([H])[H])C([H])([H])C3([H])[H])C([H])([H])[H])c([H])c([H])c2C1([H])[H]

$$$$
76:0:0
     RDKit          3D

 97108  0  0  1  0  0  0  0  0999 V2000
  -31.1110  -20.5550   21.9200 C   0  0  0  0  0  3  0  0  0  0  0  0
  -31.1120  -21.9350   22.1930 C   0  0  0  0  0  3  0  0  0  0  0  0
  -29.5160  -20.9230   20.1250 C   0  0  0  0  0  3  0  0  0  0  0  0
  -30.3100  -20.0250   20.8860 C   0  0  0  0  0  0  0  0  0  0  0  0
  -30.3290  -22.8280   21.4330 C   0  0  0  0  0  0  0  0  0  0  0  0
  -29.5300  -22.3200   20.3850 C   0  0  0  0  0  0  0  0  0  0  0  0
  -30.7100  -14.5610   20.2050 C   0  0  0  0  0  0  0  0  0  0  0  0
  -30.3810  -12.4170   19.0440 C   0  0  0  0  0  2  0  0  0  0  0  0
  -29.3960  -12.6660   17.8820 C   0  0  0  0  0  2  0  0  0  0  0  0
  -27.9390  -12.5040   18.3630 C   0  0  0  0  0  2  0  0  0  0  0  0
  -27.6450  -13.2930   19.6670 C   0  0  0  0  0  3  0  0  0  0  0  0
  -28.7490  -13.0630   20.7270 C   0  0  0  0  0  2  0  0  0  0  0  0
  -30.0450  -13.3780   20.1050 N   0  0  0  0  0  0  0  0  0  0  0  0
  -31.8580  -14.7170   19.7790 O   0  0  0  0  0  0  0  0  0  0  0  0
  -30.3240  -17.6300   21.8680 C   0  0  0  0  0  2  0  0  0  0  0  0
  -29.3640  -17.9930   19.5580 C   0  0  0  0  0  2  0  0  0  0  0  0
  -29.6500  -16.2430   21.6790 C   0  0  0  0  0  2  0  0  0  0  0  0
  -29.6550  -16.5200   19.1980 C   0  0  0  0  0  2  0  0  0  0  0  0
  -30.3750  -18.5130   20.5940 C   0  0  0  0  0  3  0  0  0  0  0  0
  -29.9040  -15.6410   20.3610 N   0  0  0  0  0  0  0  0  0  0  0  0
  -25.2690  -13.8580   20.4720 C   0  0  0  0  0  0  0  0  0  0  0  0
  -24.2240  -13.0650   20.8620 C   0  0  0  0  0  0  0  0  0  0  0  0
  -24.7010  -11.7210   20.7900 C   0  0  0  0  0  0  0  0  0  0  0  0
  -26.3160  -12.9940   20.1890 N   0  0  0  0  0  0  0  0  0  0  0  0
  -25.9790  -11.7030   20.4360 N   0  0  0  0  0  0  0  0  0  0  0  0
  -23.9970  -10.4460   20.9800 C   0  0  0  0  0  0  0  0  0  0  0  0
  -24.4530   -9.4840   21.9080 C   0  0  0  0  0  3  0  0  0  0  0  0
  -23.7490   -8.2740   22.0870 C   0  0  0  0  0  3  0  0  0  0  0  0
  -22.5770   -8.0180   21.3380 C   0  0  0  0  0  0  0  0  0  0  0  0
  -22.1420   -8.9680   20.3980 C   0  0  0  0  0  3  0  0  0  0  0  0
  -22.8460  -10.1710   20.2160 C   0  0  0  0  0  3  0  0  0  0  0  0
  -21.8420   -6.8600   21.4260 O   0  0  0  0  0  0  0  0  0  0  0  0
  -21.7710   -6.1390   22.5900 C   0  0  0  0  0  0  0  0  0  0  0  0
  -21.2730   -6.7040   23.7860 C   0  0  0  0  0  3  0  0  0  0  0  0
  -21.1540   -5.9090   24.9430 C   0  0  0  0  0  3  0  0  0  0  0  0
  -21.5190   -4.5490   24.9070 C   0  0  0  0  0  0  0  0  0  0  0  0
  -22.0090   -3.9840   23.7160 C   0  0  0  0  0  3  0  0  0  0  0  0
  -22.1320   -4.7780   22.5610 C   0  0  0  0  0  0  0  0  0  0  0  0
  -22.5850   -4.2230   21.4110 F   0  0  0  0  0  0  0  0  0  0  0  0
  -21.3980   -3.7830   26.0150 F   0  0  0  0  0  0  0  0  0  0  0  0
  -22.8320  -13.5200   21.1950 C   0  0  0  0  0  0  0  0  0  0  0  0
  -22.1460  -12.7970   22.0730 N   0  0  0  0  0  0  0  0  0  0  0  0
  -22.3630  -14.5480   20.7100 O   0  0  0  0  0  0  0  0  0  0  0  0
  -22.5380  -11.9610   22.4810 H   0  0  0  0  0  0  0  0  0  0  0  0
  -21.2150  -13.0820   22.3410 H   0  0  0  0  0  0  0  0  0  0  0  0
  -25.4120  -15.2350   20.3180 N   0  0  0  0  0  0  0  0  0  0  0  0
  -24.6460  -15.8810   20.4720 H   0  0  0  0  0  0  0  0  0  0  0  0
  -26.2580  -15.6910   19.9990 H   0  0  0  0  0  0  0  0  0  0  0  0
  -29.9830  -24.8300   23.0830 C   0  0  0  0  0  2  0  0  0  0  0  0
  -30.4100  -24.3030   21.7370 C   0  0  0  0  0  3  0  0  0  0  0  0
  -29.1980  -25.2160   21.8450 C   0  0  0  0  0  3  0  0  0  0  0  0
  -29.2350  -26.6620   21.3760 C   0  0  0  0  0  2  0  0  0  0  0  0
  -28.5060  -26.8050   20.1550 O   0  0  0  0  0  0  0  0  0  0  0  0
  -24.5990  -31.9210   23.2410 C   0  0  0  0  0  0  0  0  0  0  0  0
  -27.3510  -27.5510   20.1900 C   0  0  0  0  0  0  0  0  0  0  0  0
  -23.4290  -30.5120   21.5750 C   0  0  0  0  0  3  0  0  0  0  0  0
  -24.9230  -28.9990   20.1660 C   0  0  0  0  0  0  0  0  0  0  0  0
  -25.9460  -30.9160   21.4040 C   0  0  0  0  0  2  0  0  0  0  0  0
  -26.0610  -29.5480   20.7720 C   0  0  0  0  0  0  0  0  0  0  0  0
  -27.2770  -28.8340   20.7820 C   0  0  0  0  0  3  0  0  0  0  0  0
  -26.2030  -27.0190   19.5690 C   0  0  0  0  0  3  0  0  0  0  0  0
  -24.9880  -27.7300   19.5610 C   0  0  0  0  0  3  0  0  0  0  0  0
  -23.6650  -29.8360   20.1960 C   0  0  0  0  0  2  0  0  0  0  0  0
  -24.6750  -31.1310   22.1330 N   0  0  0  0  0  0  0  0  0  0  0  0
  -23.5080  -32.1760   23.7720 O   0  0  0  0  0  0  0  0  0  0  0  0
  -22.7800  -29.4790   22.5240 C   0  0  0  0  0  0  0  0  0  0  0  0
  -21.4560  -29.2990   22.3950 N   0  0  0  0  0  0  0  0  0  0  0  0
  -23.4640  -28.8440   23.3310 O   0  0  0  0  0  0  0  0  0  0  0  0
  -20.9660  -29.8660   21.7160 H   0  0  0  0  0  0  0  0  0  0  0  0
  -18.0750  -28.1320   22.9010 C   0  0  0  0  0  0  0  0  0  0  0  0
  -20.6380  -28.3530   23.1520 C   0  0  0  0  0  3  0  0  0  0  0  0
  -20.7180  -26.9360   22.5400 C   0  0  0  0  0  2  0  0  0  0  0  0
  -19.6020  -26.6500   21.5300 C   0  0  0  0  0  2  0  0  0  0  0  0
  -18.2290  -26.7980   22.1920 C   0  0  0  0  0  2  0  0  0  0  0  0
  -19.2070  -28.8710   23.3370 C   0  0  0  0  0  0  0  0  0  0  0  0
  -19.0120  -30.1230   23.9580 C   0  0  0  0  0  3  0  0  0  0  0  0
  -17.7160  -30.6370   24.1500 C   0  0  0  0  0  3  0  0  0  0  0  0
  -16.5980  -29.8950   23.7300 C   0  0  0  0  0  3  0  0  0  0  0  0
  -16.7790  -28.6460   23.1110 C   0  0  0  0  0  3  0  0  0  0  0  0
  -25.8710  -32.5620   23.8800 C   0  0  0  0  0  3  0  0  0  0  0  0
  -26.3740  -31.7970   25.1660 C   0  0  1  0  0  0  0  0  0  0  0  0
  -25.2660  -31.5510   26.2160 C   0  0  0  0  0  1  0  0  0  0  0  0
  -26.9760  -30.4260   24.7820 C   0  0  0  0  0  1  0  0  0  0  0  0
  -27.5030  -32.6050   25.8470 C   0  0  0  0  0  1  0  0  0  0  0  0
  -25.5500  -33.9590   24.1950 N   0  0  0  0  0  0  0  0  0  0  0  0
  -25.8950  -35.0080   23.4360 C   0  0  0  0  0  0  0  0  0  0  0  0
  -26.5880  -34.9010   22.4200 O   0  0  0  0  0  0  0  0  0  0  0  0
  -24.9390  -34.1170   24.9840 H   0  0  0  0  0  0  0  0  0  0  0  0
  -24.1700  -36.7890   23.0250 C   0  0  0  0  0  1  0  0  0  0  0  0
  -25.3910  -36.3960   23.8720 C   0  0  0  0  0  3  0  0  0  0  0  0
  -27.4990  -37.2950   24.7550 C   0  0  0  0  0  1  0  0  0  0  0  0
  -26.4220  -37.4530   23.7800 N   0  0  0  0  0  0  0  0  0  0  0  0
  -26.0080  -38.3730   23.9130 H   0  0  0  0  0  0  0  0  0  0  0  0
  -28.8050  -23.2420   19.6610 O   0  0  0  0  0  0  0  0  0  0  0  0
  -28.2340  -23.9920   17.4570 C   0  0  0  0  0  2  0  0  0  0  0  0
  -29.1510  -22.8040   17.2530 C   0  0  0  0  0  2  0  0  0  0  0  0
  -28.2140  -22.8440   18.4360 C   0  0  0  0  0  3  0  0  0  0  0  0
  1  2  1  0
  3  6  2  0
  3  4  1  0
  4  1  2  0
  5  2  2  0
  6  5  1  0
  7 20  1  0
  8 13  1  0
  9 10  1  0
  9  8  1  0
 11 10  1  0
 11 24  1  0
 11 12  1  0
 13  7  1  0
 13 12  1  0
 14  7  2  0
 16 19  1  0
 17 15  1  0
 18 16  1  0
 18 20  1  0
 19  4  1  0
 19 15  1  0
 20 17  1  0
 21 22  2  0
 22 41  1  0
 23 22  1  0
 23 26  1  0
 24 25  1  0
 24 21  1  0
 25 23  2  0
 26 27  1  0
 27 28  2  0
 29 32  1  0
 29 28  1  0
 30 29  2  0
 31 30  1  0
 31 26  2  0
 32 33  1  0
 33 34  1  0
 34 35  2  0
 36 35  1  0
 36 40  1  0
 37 36  2  0
 38 33  2  0
 38 37  1  0
 39 38  1  0
 41 42  1  0
 42 45  1  0
 42 44  1  0
 43 41  2  0
 46 47  1  0
 46 21  1  0
 48 46  1  0
 50  5  1  0
 50 51  1  0
 50 49  1  0
 51 52  1  0
 51 49  1  0
 53 55  1  0
 53 52  1  0
 54 65  2  0
 55 60  1  0
 56 64  1  0
 56 66  1  0
 57 63  1  0
 57 59  1  0
 58 64  1  0
 59 60  2  0
 59 58  1  0
 61 55  2  0
 62 61  1  0
 62 57  2  0
 63 56  1  0
 64 54  1  0
 66 68  2  0
 67 66  1  0
 69 67  1  0
 70 79  2  0
 70 75  1  0
 71 67  1  0
 71 75  1  0
 72 71  1  0
 73 74  1  0
 73 72  1  0
 74 70  1  0
 75 76  2  0
 76 77  1  0
 78 77  2  0
 79 78  1  0
 80 54  1  0
 80 85  1  0
 80 81  1  0
 81 84  1  1
 81 82  1  0
 83 81  1  0
 85 88  1  0
 86 90  1  0
 86 85  1  0
 87 86  2  0
 90 89  1  0
 92 90  1  0
 92 93  1  0
 92 91  1  0
 94  6  1  0
 95 97  1  0
 96 95  1  0
 96 97  1  0
 97 94  1  0
M  ISO  4   7 100  20 100  52 101  53 101
M  END
>  <TORSDO>  (77) 
F 20

>  <SCORE>  (77) 
-13.899

>  <name>  (77) 
76

>  <ligand_id>  (77) 
76

>  <original_smiles>  (77) 
[H]c1c([H])c([H])c2c(c1[H])C([H])([H])C([H])([H])C([H])([H])C2([H])N([H])C(=O)C1([H])N(C(=O)C([H])(N([H])C(=O)C([H])(N([H])C([H])([H])[H])C([H])([H])[H])C(C([H])([H])[H])(C([H])([H])[H])C([H])([H])[H])C([H])([H])c2c([H])c(OC([H])([H])C3([H])C([H])([H])C3([H])c3c([H])c([H])c(C4([H])C([H])([H])C([H])([H])N(C(=O)N5C([H])([H])C([H])([H])C([H])([H])C([H])(n6nc(-c7c([H])c([H])c(Oc8c([H])c([H])c(F)c([H])c8F)c([H])c7[H])c(C(=O)N([H])[H])c6N([H])[H])C5([H])[H])C([H])([H])C4([H])[H])c([H])c3OC3([H])C([H])([H])C3([H])[H])c([H])c([H])c2C1([H])[H]

>  <smiles>  (77) 
[H]c1c([H])c([H])c2c(c1[H])C([H])([H])C([H])([H])C([H])([H])C2([H])N([H])C(=O)C1([H])N(C(=O)C([H])(N([H])C(=O)C([H])(N([H])C([H])([H])[H])C([H])([H])[H])C(C([H])([H])[H])(C([H])([H])[H])C([H])([H])[H])C([H])([H])c2c([H])c(OC([H])([H])C3([H])C([H])([H])C3([H])c3c([H])c([H])c(C4([H])C([H])([H])C([H])([H])N(C(=O)N5C([H])([H])C([H])([H])C([H])([H])C([H])(n6nc(-c7c([H])c([H])c(Oc8c([H])c([H])c(F)c([H])c8F)c([H])c7[H])c(C(=O)N([H])[H])c6N([H])[H])C5([H])[H])C([H])([H])C4([H])[H])c([H])c3OC3([H])C([H])([H])C3([H])[H])c([H])c([H])c2C1([H])[H]

$$$$
77:0:0
     RDKit          3D

 99109  0  0  1  0  0  0  0  0999 V2000
  -28.8130  -23.8880   17.4020 C   0  0  0  0  0  2  0  0  0  0  0  0
  -31.3310  -23.8390   18.0130 C   0  0  0  0  0  2  0  0  0  0  0  0
  -28.9980  -25.3670   17.0470 C   0  0  0  0  0  2  0  0  0  0  0  0
  -31.3690  -25.3260   17.6330 C   0  0  0  0  0  2  0  0  0  0  0  0
  -30.1370  -23.0890   17.3630 C   0  0  0  0  0  3  0  0  0  0  0  0
  -30.0470  -25.9150   17.9300 N   0  0  1  0  0  4  0  0  0  0  0  0
  -29.7940  -25.5690   18.8460 H   0  0  0  0  0  0  0  0  0  0  0  0
  -29.8900  -21.5730   19.3940 C   0  0  0  0  0  3  0  0  0  0  0  0
  -29.6430  -20.6100   17.1950 C   0  0  0  0  0  3  0  0  0  0  0  0
  -29.9140  -21.7240   17.9970 C   0  0  0  0  0  0  0  0  0  0  0  0
  -29.4240  -19.1620   19.1910 C   0  0  0  0  0  0  0  0  0  0  0  0
  -29.6530  -20.3230   20.0020 C   0  0  0  0  0  0  0  0  0  0  0  0
  -29.3650  -19.3560   17.7710 C   0  0  0  0  0  0  0  0  0  0  0  0
  -29.6340  -20.3520   21.5250 C   0  0  0  0  0  1  0  0  0  0  0  0
  -28.9770  -18.2650   16.7800 C   0  0  0  0  0  1  0  0  0  0  0  0
  -30.9130  -14.4520   19.9380 C   0  0  0  0  0  0  0  0  0  0  0  0
  -30.5210  -12.3550   18.7230 C   0  0  0  0  0  2  0  0  0  0  0  0
  -29.4760  -12.6260   17.6190 C   0  0  0  0  0  2  0  0  0  0  0  0
  -28.0380  -12.4970   18.1660 C   0  0  0  0  0  2  0  0  0  0  0  0
  -27.8250  -13.2720   19.4940 C   0  0  0  0  0  3  0  0  0  0  0  0
  -28.9650  -12.9300   20.4850 C   0  0  0  0  0  2  0  0  0  0  0  0
  -30.2330  -13.2790   19.8290 N   0  0  0  0  0  0  0  0  0  0  0  0
  -32.0340  -14.6080   19.4410 O   0  0  0  0  0  0  0  0  0  0  0  0
  -29.2170  -17.4260   21.2470 C   0  0  0  0  0  2  0  0  0  0  0  0
  -29.3800  -15.9110   21.3250 C   0  0  0  0  0  2  0  0  0  0  0  0
  -30.2890  -16.7280   19.2870 C   0  0  0  0  0  2  0  0  0  0  0  0
  -29.2140  -17.7260   19.7430 C   0  0  0  0  0  3  0  0  0  0  0  0
  -30.1260  -15.5400   20.1210 N   0  0  0  0  0  0  0  0  0  0  0  0
  -25.4950  -13.9000   20.3980 C   0  0  0  0  0  0  0  0  0  0  0  0
  -24.4460  -13.1300   20.8250 C   0  0  0  0  0  0  0  0  0  0  0  0
  -24.8820  -11.7750   20.7170 C   0  0  0  0  0  0  0  0  0  0  0  0
  -26.5080  -13.0100   20.0650 N   0  0  0  0  0  0  0  0  0  0  0  0
  -26.1440  -11.7270   20.3100 N   0  0  0  0  0  0  0  0  0  0  0  0
  -24.1560  -10.5160   20.9210 C   0  0  0  0  0  0  0  0  0  0  0  0
  -24.5850   -9.5620   21.8710 C   0  0  0  0  0  3  0  0  0  0  0  0
  -23.8590   -8.3680   22.0610 C   0  0  0  0  0  3  0  0  0  0  0  0
  -22.6930   -8.1170   21.3000 C   0  0  0  0  0  0  0  0  0  0  0  0
  -22.2840   -9.0580   20.3390 C   0  0  0  0  0  3  0  0  0  0  0  0
  -23.0100  -10.2460   20.1480 C   0  0  0  0  0  3  0  0  0  0  0  0
  -21.9410   -6.9710   21.3990 O   0  0  0  0  0  0  0  0  0  0  0  0
  -21.7980   -6.3050   22.5890 C   0  0  0  0  0  0  0  0  0  0  0  0
  -21.2530   -6.9300   23.7330 C   0  0  0  0  0  3  0  0  0  0  0  0
  -21.0580   -6.1890   24.9150 C   0  0  0  0  0  3  0  0  0  0  0  0
  -21.3980   -4.8230   24.9560 C   0  0  0  0  0  0  0  0  0  0  0  0
  -21.9350   -4.1980   23.8170 C   0  0  0  0  0  3  0  0  0  0  0  0
  -22.1310   -4.9370   22.6360 C   0  0  0  0  0  0  0  0  0  0  0  0
  -22.6270   -4.3230   21.5340 F   0  0  0  0  0  0  0  0  0  0  0  0
  -21.2060   -4.1090   26.0890 F   0  0  0  0  0  0  0  0  0  0  0  0
  -23.0820  -13.6160   21.2250 C   0  0  0  0  0  0  0  0  0  0  0  0
  -22.4290  -12.9220   22.1500 N   0  0  0  0  0  0  0  0  0  0  0  0
  -22.6050  -14.6480   20.7530 O   0  0  0  0  0  0  0  0  0  0  0  0
  -22.8280  -12.0870   22.5540 H   0  0  0  0  0  0  0  0  0  0  0  0
  -21.5210  -13.2320   22.4630 H   0  0  0  0  0  0  0  0  0  0  0  0
  -25.6670  -15.2720   20.2480 N   0  0  0  0  0  0  0  0  0  0  0  0
  -24.9270  -15.9400   20.4360 H   0  0  0  0  0  0  0  0  0  0  0  0
  -26.5090  -15.7040   19.8910 H   0  0  0  0  0  0  0  0  0  0  0  0
  -30.0120  -27.3740   18.1530 C   0  0  0  0  0  2  0  0  0  0  0  0
  -29.7650  -27.5970   19.6500 C   0  0  0  0  0  2  0  0  0  0  0  0
  -28.5980  -26.8400   20.0150 O   0  0  0  0  0  0  0  0  0  0  0  0
  -24.6050  -31.8350   23.1470 C   0  0  0  0  0  0  0  0  0  0  0  0
  -27.4080  -27.5240   20.0700 C   0  0  0  0  0  0  0  0  0  0  0  0
  -23.4410  -30.4050   21.4900 C   0  0  0  0  0  3  0  0  0  0  0  0
  -24.9450  -28.9020   20.0810 C   0  0  0  0  0  0  0  0  0  0  0  0
  -25.9490  -30.8410   21.3070 C   0  0  0  0  0  2  0  0  0  0  0  0
  -26.0730  -29.4740   20.6770 C   0  0  0  0  0  0  0  0  0  0  0  0
  -27.2970  -28.7870   20.6880 C   0  0  0  0  0  3  0  0  0  0  0  0
  -26.2580  -26.9350   19.5020 C   0  0  0  0  0  3  0  0  0  0  0  0
  -25.0270  -27.6230   19.4970 C   0  0  0  0  0  3  0  0  0  0  0  0
  -23.6760  -29.7210   20.1140 C   0  0  0  0  0  2  0  0  0  0  0  0
  -24.6820  -31.0420   22.0400 N   0  0  0  0  0  0  0  0  0  0  0  0
  -23.5170  -32.0800   23.6830 O   0  0  0  0  0  0  0  0  0  0  0  0
  -22.8090  -29.3720   22.4470 C   0  0  0  0  0  0  0  0  0  0  0  0
  -21.4850  -29.1870   22.3330 N   0  0  0  0  0  0  0  0  0  0  0  0
  -23.5060  -28.7390   23.2460 O   0  0  0  0  0  0  0  0  0  0  0  0
  -20.9870  -29.7500   21.6570 H   0  0  0  0  0  0  0  0  0  0  0  0
  -18.1130  -28.0190   22.8810 C   0  0  0  0  0  0  0  0  0  0  0  0
  -20.6780  -28.2380   23.0970 C   0  0  0  0  0  3  0  0  0  0  0  0
  -20.7490  -26.8230   22.4780 C   0  0  0  0  0  2  0  0  0  0  0  0
  -19.6180  -26.5410   21.4830 C   0  0  0  0  0  2  0  0  0  0  0  0
  -18.2550  -26.6860   22.1650 C   0  0  0  0  0  2  0  0  0  0  0  0
  -19.2500  -28.7550   23.3040 C   0  0  0  0  0  0  0  0  0  0  0  0
  -19.0620  -30.0070   23.9300 C   0  0  0  0  0  3  0  0  0  0  0  0
  -17.7680  -30.5200   24.1400 C   0  0  0  0  0  3  0  0  0  0  0  0
  -16.6450  -29.7790   23.7340 C   0  0  0  0  0  3  0  0  0  0  0  0
  -16.8180  -28.5300   23.1100 C   0  0  0  0  0  3  0  0  0  0  0  0
  -25.8770  -32.4880   23.7760 C   0  0  0  0  0  3  0  0  0  0  0  0
  -26.4240  -31.7040   25.0330 C   0  0  1  0  0  0  0  0  0  0  0  0
  -25.3440  -31.4100   26.1000 C   0  0  0  0  0  1  0  0  0  0  0  0
  -27.0440  -30.3540   24.6040 C   0  0  0  0  0  1  0  0  0  0  0  0
  -27.5550  -32.5160   25.7070 C   0  0  0  0  0  1  0  0  0  0  0  0
  -25.5350  -33.8700   24.1340 N   0  0  0  0  0  0  0  0  0  0  0  0
  -25.8370  -34.9430   23.3910 C   0  0  0  0  0  0  0  0  0  0  0  0
  -26.5050  -34.8760   22.3550 O   0  0  0  0  0  0  0  0  0  0  0  0
  -24.9420  -33.9940   24.9410 H   0  0  0  0  0  0  0  0  0  0  0  0
  -24.0610  -36.6910   23.0620 C   0  0  0  0  0  1  0  0  0  0  0  0
  -25.3110  -36.3100   23.8700 C   0  0  0  0  0  3  0  0  0  0  0  0
  -27.4180  -37.2380   24.7240 C   0  0  0  0  0  1  0  0  0  0  0  0
  -26.3160  -37.3910   23.7770 N   0  0  0  0  0  0  0  0  0  0  0  0
  -25.8840  -38.2980   23.9360 H   0  0  0  0  0  0  0  0  0  0  0  0
  3  1  1  0
  3  6  1  0
  4  6  1  0
  4  2  1  0
  5  1  1  0
  5 10  1  0
  5  2  1  0
  6 57  1  0
  6  7  1  1
  8 12  1  0
  9 13  2  0
  9 10  1  0
 10  8  2  0
 11 12  2  0
 12 14  1  0
 13 11  1  0
 15 13  1  0
 16 28  1  0
 17 22  1  0
 18 19  1  0
 18 17  1  0
 20 19  1  0
 20 32  1  0
 20 21  1  0
 22 16  1  0
 22 21  1  0
 23 16  2  0
 24 25  1  0
 26 27  1  0
 26 28  1  0
 27 11  1  0
 27 24  1  0
 28 25  1  0
 29 30  2  0
 30 49  1  0
 31 30  1  0
 31 34  1  0
 32 33  1  0
 32 29  1  0
 33 31  2  0
 34 35  1  0
 35 36  2  0
 37 40  1  0
 37 36  1  0
 38 37  2  0
 39 38  1  0
 39 34  2  0
 40 41  1  0
 41 46  2  0
 41 42  1  0
 42 43  2  0
 43 44  1  0
 44 48  1  0
 45 44  2  0
 46 45  1  0
 47 46  1  0
 49 50  1  0
 50 53  1  0
 50 52  1  0
 51 49  2  0
 54 29  1  0
 54 55  1  0
 56 54  1  0
 57 58  1  0
 58 59  1  0
 59 61  1  0
 60 71  2  0
 61 66  1  0
 62 70  1  0
 62 72  1  0
 63 69  1  0
 63 65  1  0
 64 70  1  0
 65 66  2  0
 65 64  1  0
 67 61  2  0
 68 67  1  0
 68 63  2  0
 69 62  1  0
 70 60  1  0
 72 74  2  0
 73 72  1  0
 75 73  1  0
 76 85  2  0
 76 81  1  0
 77 73  1  0
 77 81  1  0
 78 77  1  0
 79 80  1  0
 79 78  1  0
 80 76  1  0
 81 82  2  0
 82 83  1  0
 84 83  2  0
 85 84  1  0
 86 60  1  0
 86 91  1  0
 86 87  1  0
 87 90  1  1
 87 88  1  0
 89 87  1  0
 91 94  1  0
 92 96  1  0
 92 91  1  0
 93 92  2  0
 96 95  1  0
 98 96  1  0
 98 99  1  0
 98 97  1  0
M  ISO  4  16 100  28 100  58 101  59 101
M  END
>  <TORSDO>  (78) 
F 19

>  <SCORE>  (78) 
-13.569

>  <name>  (78) 
77

>  <ligand_id>  (78) 
77

>  <original_smiles>  (78) 
[H]c1c([H])c([H])c2c(c1[H])C([H])([H])C([H])([H])C([H])([H])C2([H])N([H])C(=O)C1([H])N(C(=O)C([H])(N([H])C(=O)C([H])(N([H])C([H])([H])[H])C([H])([H])[H])C(C([H])([H])[H])(C([H])([H])[H])C([H])([H])[H])C([H])([H])c2c([H])c(OC([H])([H])C([H])([H])[N+]3([H])C([H])([H])C([H])([H])C([H])(c4c([H])c(C([H])([H])[H])c(C5([H])C([H])([H])N(C(=O)N6C([H])([H])C([H])([H])C([H])([H])C([H])(n7nc(-c8c([H])c([H])c(Oc9c([H])c([H])c(F)c([H])c9F)c([H])c8[H])c(C(=O)N([H])[H])c7N([H])[H])C6([H])[H])C([H])([H])C5([H])[H])c(C([H])([H])[H])c4[H])C([H])([H])C3([H])[H])c([H])c([H])c2C1([H])[H]

>  <smiles>  (78) 
[H]c1c([H])c([H])c2c(c1[H])C([H])([H])C([H])([H])C([H])([H])C2([H])N([H])C(=O)C1([H])N(C(=O)C([H])(N([H])C(=O)C([H])(N([H])C([H])([H])[H])C([H])([H])[H])C(C([H])([H])[H])(C([H])([H])[H])C([H])([H])[H])C([H])([H])c2c([H])c(OC([H])([H])C([H])([H])[N+]3([H])C([H])([H])C([H])([H])C([H])(c4c([H])c(C([H])([H])[H])c(C5([H])C([H])([H])N(C(=O)N6C([H])([H])C([H])([H])C([H])([H])C([H])(n7nc(-c8c([H])c([H])c(Oc9c([H])c([H])c(F)c([H])c9F)c([H])c8[H])c(C(=O)N([H])[H])c7N([H])[H])C6([H])[H])C([H])([H])C5([H])[H])c(C([H])([H])[H])c4[H])C([H])([H])C3([H])[H])c([H])c([H])c2C1([H])[H]

$$$$
78:0:0
     RDKit          3D

 98108  0  0  1  0  0  0  0  0999 V2000
  -29.0440  -21.6820   19.5840 C   0  0  0  0  0  3  0  0  0  0  0  0
  -30.8280  -19.5940   20.1030 C   0  0  0  0  0  3  0  0  0  0  0  0
  -30.2870  -21.9610   20.1960 C   0  0  0  0  0  0  0  0  0  0  0  0
  -28.6780  -20.3790   19.2380 C   0  0  0  0  0  0  0  0  0  0  0  0
  -31.2050  -20.9110   20.4310 C   0  0  0  0  0  0  0  0  0  0  0  0
  -29.5720  -19.3280   19.5130 C   0  0  0  0  0  0  0  0  0  0  0  0
  -27.3360  -20.1370   18.5620 C   0  0  0  0  0  1  0  0  0  0  0  0
  -32.5940  -21.1630   20.9900 C   0  0  0  0  0  1  0  0  0  0  0  0
  -30.8990  -14.6160   20.9260 C   0  0  0  0  0  0  0  0  0  0  0  0
  -30.7170  -12.3660   19.9880 C   0  0  0  0  0  2  0  0  0  0  0  0
  -29.8840  -12.4160   18.6900 C   0  0  0  0  0  2  0  0  0  0  0  0
  -28.3650  -12.3990   18.9680 C   0  0  0  0  0  2  0  0  0  0  0  0
  -27.9090  -13.3000   20.1480 C   0  0  0  0  0  3  0  0  0  0  0  0
  -28.8720  -13.1630   21.3490 C   0  0  0  0  0  2  0  0  0  0  0  0
  -30.2350  -13.4310   20.8710 N   0  0  0  0  0  0  0  0  0  0  0  0
  -32.1240  -14.6950   20.9700 O   0  0  0  0  0  0  0  0  0  0  0  0
  -28.4340  -17.3170   20.1620 C   0  0  0  0  0  2  0  0  0  0  0  0
  -29.3560  -16.4850   21.0500 C   0  0  0  0  0  2  0  0  0  0  0  0
  -30.1450  -17.3150   18.3290 C   0  0  0  0  0  2  0  0  0  0  0  0
  -30.4890  -15.9010   18.8230 C   0  0  0  0  0  3  0  0  0  0  0  0
  -31.8740  -15.5160   18.2420 C   0  0  0  0  0  1  0  0  0  0  0  0
  -29.2060  -18.0310   19.1680 N   0  0  0  0  0  0  0  0  0  0  0  0
  -30.2380  -15.5960   20.2730 N   0  0  0  0  0  0  0  0  0  0  0  0
  -25.4440  -13.8940   20.6160 C   0  0  0  0  0  0  0  0  0  0  0  0
  -24.3550  -13.1170   20.9050 C   0  0  0  0  0  0  0  0  0  0  0  0
  -24.8350  -11.7730   20.9660 C   0  0  0  0  0  0  0  0  0  0  0  0
  -26.5200  -13.0250   20.5190 N   0  0  0  0  0  0  0  0  0  0  0  0
  -26.1510  -11.7460   20.7910 N   0  0  0  0  0  0  0  0  0  0  0  0
  -24.1120  -10.5050   21.1260 C   0  0  0  0  0  0  0  0  0  0  0  0
  -24.4800   -9.5630   22.1120 C   0  0  0  0  0  3  0  0  0  0  0  0
  -23.7600   -8.3560   22.2520 C   0  0  0  0  0  3  0  0  0  0  0  0
  -22.6580   -8.0840   21.4070 C   0  0  0  0  0  0  0  0  0  0  0  0
  -22.3090   -9.0160   20.4140 C   0  0  0  0  0  3  0  0  0  0  0  0
  -23.0290  -10.2130   20.2720 C   0  0  0  0  0  3  0  0  0  0  0  0
  -21.9120   -6.9330   21.4610 O   0  0  0  0  0  0  0  0  0  0  0  0
  -21.7790   -6.2160   22.6230 C   0  0  0  0  0  0  0  0  0  0  0  0
  -21.2300   -6.7830   23.7940 C   0  0  0  0  0  3  0  0  0  0  0  0
  -21.0470   -5.9870   24.9410 C   0  0  0  0  0  3  0  0  0  0  0  0
  -21.4090   -4.6260   24.9220 C   0  0  0  0  0  0  0  0  0  0  0  0
  -21.9530   -4.0610   23.7560 C   0  0  0  0  0  3  0  0  0  0  0  0
  -22.1360   -4.8530   22.6100 C   0  0  0  0  0  0  0  0  0  0  0  0
  -22.6380   -4.2990   21.4800 F   0  0  0  0  0  0  0  0  0  0  0  0
  -21.2290   -3.8580   26.0210 F   0  0  0  0  0  0  0  0  0  0  0  0
  -22.9320  -13.5800   21.0230 C   0  0  0  0  0  0  0  0  0  0  0  0
  -22.1290  -12.9040   21.8370 N   0  0  0  0  0  0  0  0  0  0  0  0
  -22.5340  -14.5800   20.4240 O   0  0  0  0  0  0  0  0  0  0  0  0
  -22.4510  -12.0920   22.3440 H   0  0  0  0  0  0  0  0  0  0  0  0
  -21.1750  -13.2140   21.9680 H   0  0  0  0  0  0  0  0  0  0  0  0
  -25.6000  -15.2580   20.4050 N   0  0  0  0  0  0  0  0  0  0  0  0
  -24.8070  -15.8900   20.3960 H   0  0  0  0  0  0  0  0  0  0  0  0
  -26.4530  -15.6880   20.0750 H   0  0  0  0  0  0  0  0  0  0  0  0
  -29.4980  -23.8500   21.6190 C   0  0  0  0  0  2  0  0  0  0  0  0
  -30.6440  -24.2260   19.2440 C   0  0  0  0  0  2  0  0  0  0  0  0
  -29.0560  -25.3100   21.5500 C   0  0  0  0  0  2  0  0  0  0  0  0
  -30.1870  -25.6700   19.3730 C   0  0  0  0  0  2  0  0  0  0  0  0
  -30.5630  -23.4110   20.5630 C   0  0  0  0  0  3  0  0  0  0  0  0
  -28.8420  -25.7390   20.0940 C   0  0  0  0  0  3  0  0  0  0  0  0
  -28.5510  -27.1060   20.0810 O   0  0  0  0  0  0  0  0  0  0  0  0
  -24.5600  -31.9220   23.2260 C   0  0  0  0  0  0  0  0  0  0  0  0
  -27.2780  -27.5990   20.1310 C   0  0  0  0  0  0  0  0  0  0  0  0
  -23.3570  -30.5050   21.5820 C   0  0  0  0  0  3  0  0  0  0  0  0
  -24.8270  -28.9840   20.1580 C   0  0  0  0  0  0  0  0  0  0  0  0
  -25.8620  -30.9280   21.3570 C   0  0  0  0  0  2  0  0  0  0  0  0
  -25.9650  -29.5570   20.7340 C   0  0  0  0  0  0  0  0  0  0  0  0
  -27.1840  -28.8680   20.7200 C   0  0  0  0  0  3  0  0  0  0  0  0
  -26.1260  -27.0040   19.5630 C   0  0  0  0  0  3  0  0  0  0  0  0
  -24.8980  -27.7020   19.5760 C   0  0  0  0  0  3  0  0  0  0  0  0
  -23.5660  -29.8180   20.2020 C   0  0  0  0  0  2  0  0  0  0  0  0
  -24.6110  -31.1330   22.1170 N   0  0  0  0  0  0  0  0  0  0  0  0
  -23.4800  -32.1760   23.7790 O   0  0  0  0  0  0  0  0  0  0  0  0
  -22.7330  -29.4760   22.5470 C   0  0  0  0  0  0  0  0  0  0  0  0
  -21.4080  -29.2870   22.4360 N   0  0  0  0  0  0  0  0  0  0  0  0
  -23.4350  -28.8480   23.3460 O   0  0  0  0  0  0  0  0  0  0  0  0
  -20.9070  -29.8470   21.7610 H   0  0  0  0  0  0  0  0  0  0  0  0
  -18.0510  -28.0670   22.9490 C   0  0  0  0  0  0  0  0  0  0  0  0
  -20.6070  -28.3400   23.2090 C   0  0  0  0  0  3  0  0  0  0  0  0
  -20.7170  -26.9130   22.6240 C   0  0  0  0  0  2  0  0  0  0  0  0
  -19.6110  -26.5880   21.6150 C   0  0  0  0  0  2  0  0  0  0  0  0
  -18.2320  -26.7220   22.2690 C   0  0  0  0  0  2  0  0  0  0  0  0
  -19.1670  -28.8340   23.3760 C   0  0  0  0  0  0  0  0  0  0  0  0
  -18.9450  -30.0950   23.9710 C   0  0  0  0  0  3  0  0  0  0  0  0
  -17.6390  -30.5890   24.1450 C   0  0  0  0  0  3  0  0  0  0  0  0
  -16.5360  -29.8180   23.7350 C   0  0  0  0  0  3  0  0  0  0  0  0
  -16.7440  -28.5600   23.1430 C   0  0  0  0  0  3  0  0  0  0  0  0
  -25.8470  -32.5640   23.8380 C   0  0  0  0  0  3  0  0  0  0  0  0
  -25.5260  -33.9530   24.1830 N   0  0  0  0  0  0  0  0  0  0  0  0
  -25.8890  -35.0200   23.4580 C   0  0  0  0  0  0  0  0  0  0  0  0
  -26.6020  -34.9360   22.4550 O   0  0  0  0  0  0  0  0  0  0  0  0
  -24.8990  -34.0940   24.9620 H   0  0  0  0  0  0  0  0  0  0  0  0
  -24.2090  -36.8390   23.0250 C   0  0  0  0  0  1  0  0  0  0  0  0
  -25.3800  -36.3980   23.9180 C   0  0  0  0  0  3  0  0  0  0  0  0
  -27.4520  -37.2340   24.9380 C   0  0  0  0  0  1  0  0  0  0  0  0
  -26.4270  -37.4430   23.9180 N   0  0  0  0  0  0  0  0  0  0  0  0
  -26.0180  -38.3630   24.0630 H   0  0  0  0  0  0  0  0  0  0  0  0
  -26.3910  -31.7850   25.0980 C   0  0  1  0  0  0  0  0  0  0  0  0
  -25.3140  -31.5080   26.1710 C   0  0  0  0  0  1  0  0  0  0  0  0
  -27.0000  -30.4270   24.6750 C   0  0  0  0  0  1  0  0  0  0  0  0
  -27.5300  -32.5940   25.7640 C   0  0  0  0  0  1  0  0  0  0  0  0
  1  3  1  0
  2  5  1  0
  3  5  2  0
  4  6  1  0
  4  1  2  0
  5  8  1  0
  6  2  2  0
  7  4  1  0
  9 16  2  0
 10 15  1  0
 11 12  1  0
 11 10  1  0
 13 12  1  0
 13 27  1  0
 13 14  1  0
 15  9  1  0
 15 14  1  0
 17 18  1  0
 19 20  1  0
 19 22  1  0
 20 21  1  0
 20 23  1  0
 22  6  1  0
 22 17  1  0
 23  9  1  0
 23 18  1  0
 24 25  2  0
 25 26  1  0
 25 44  1  0
 26 29  1  0
 27 24  1  0
 27 28  1  0
 28 26  2  0
 29 30  1  0
 30 31  2  0
 32 35  1  0
 32 31  1  0
 33 32  2  0
 34 33  1  0
 34 29  2  0
 35 36  1  0
 36 37  1  0
 37 38  2  0
 39 38  1  0
 39 43  1  0
 40 39  2  0
 41 36  2  0
 41 40  1  0
 42 41  1  0
 44 45  1  0
 45 48  1  0
 45 47  1  0
 46 44  2  0
 49 24  1  0
 50 49  1  0
 51 49  1  0
 53 55  1  0
 53 56  1  0
 54 52  1  0
 55 57  1  0
 56  3  1  0
 56 52  1  0
 57 58  1  0
 57 54  1  0
 58 60  1  0
 59 70  2  0
 60 65  1  0
 61 69  1  0
 61 71  1  0
 62 68  1  0
 62 64  1  0
 63 69  1  0
 64 63  1  0
 65 64  2  0
 66 67  1  0
 66 60  2  0
 67 62  2  0
 68 61  1  0
 69 59  1  0
 71 73  2  0
 72 71  1  0
 74 72  1  0
 75 84  2  0
 75 80  1  0
 76 72  1  0
 76 80  1  0
 77 76  1  0
 78 79  1  0
 78 77  1  0
 79 75  1  0
 80 81  2  0
 81 82  1  0
 83 82  2  0
 84 83  1  0
 85 59  1  0
 85 86  1  0
 85 95  1  0
 86 89  1  0
 87 91  1  0
 87 86  1  0
 88 87  2  0
 91 90  1  0
 91 93  1  0
 93 94  1  0
 93 92  1  0
 95 98  1  1
 95 96  1  0
 97 95  1  0
M  ISO  4   9 100  23 100  57 101  58 101
M  END
>  <TORSDO>  (79) 
F 17

>  <SCORE>  (79) 
-15.306

>  <name>  (79) 
78

>  <ligand_id>  (79) 
78

>  <original_smiles>  (79) 
[H]c1c([H])c([H])c2c(c1[H])C([H])([H])C([H])([H])C([H])([H])C2([H])N([H])C(=O)C1([H])N(C(=O)C([H])(N([H])C(=O)C([H])(N([H])C([H])([H])[H])C([H])([H])[H])C(C([H])([H])[H])(C([H])([H])[H])C([H])([H])[H])C([H])([H])c2c([H])c(OC3([H])C([H])([H])C([H])([H])C([H])(c4c([H])c(C([H])([H])[H])c(N5C([H])([H])C([H])([H])N(C(=O)N6C([H])([H])C([H])([H])C([H])([H])C([H])(n7nc(-c8c([H])c([H])c(Oc9c([H])c([H])c(F)c([H])c9F)c([H])c8[H])c(C(=O)N([H])[H])c7N([H])[H])C6([H])[H])C([H])(C([H])([H])[H])C5([H])[H])c([H])c4C([H])([H])[H])C([H])([H])C3([H])[H])c([H])c([H])c2C1([H])[H]

>  <smiles>  (79) 
[H]c1c([H])c([H])c2c(c1[H])C([H])([H])C([H])([H])C([H])([H])C2([H])N([H])C(=O)C1([H])N(C(=O)C([H])(N([H])C(=O)C([H])(N([H])C([H])([H])[H])C([H])([H])[H])C(C([H])([H])[H])(C([H])([H])[H])C([H])([H])[H])C([H])([H])c2c([H])c(OC3([H])C([H])([H])C([H])([H])C([H])(c4c([H])c(C([H])([H])[H])c(N5C([H])([H])C([H])([H])N(C(=O)N6C([H])([H])C([H])([H])C([H])([H])C([H])(n7nc(-c8c([H])c([H])c(Oc9c([H])c([H])c(F)c([H])c9F)c([H])c8[H])c(C(=O)N([H])[H])c7N([H])[H])C6([H])[H])C([H])(C([H])([H])[H])C5([H])[H])c([H])c4C([H])([H])[H])C([H])([H])C3([H])[H])c([H])c([H])c2C1([H])[H]

$$$$
79:0:0
     RDKit          3D

 92101  0  0  1  0  0  0  0  0999 V2000
  -28.9260  -20.2100   19.6190 C   0  0  0  0  0  3  0  0  0  0  0  0
  -29.1760  -18.8260   19.8520 C   0  0  0  0  0  3  0  0  0  0  0  0
  -29.6150  -21.2390   20.3300 C   0  0  0  0  0  0  0  0  0  0  0  0
  -30.1220  -18.4510   20.8250 C   0  0  0  0  0  0  0  0  0  0  0  0
  -30.4920  -20.7430   21.3400 C   0  0  0  0  0  0  0  0  0  0  0  0
  -31.3280  -21.6300   22.2400 C   0  0  0  0  0  1  0  0  0  0  0  0
  -30.7170  -19.4180   21.5620 N   0  0  0  0  0  0  0  0  0  0  0  0
  -30.4480  -23.8280   20.0860 C   0  0  0  0  0  2  0  0  0  0  0  0
  -29.4500  -22.7200   19.8330 C   0  0  0  0  0  3  0  0  0  0  0  0
  -29.0230  -24.0550   20.5410 C   0  0  1  0  0  0  0  0  0  0  0  0
  -28.6850  -24.0840   22.0280 C   0  0  0  0  0  1  0  0  0  0  0  0
  -28.1770  -25.1260   19.7950 C   0  0  0  0  0  2  0  0  0  0  0  0
  -28.3220  -26.5330   20.1910 O   0  0  0  0  0  0  0  0  0  0  0  0
  -24.5990  -31.8780   23.2360 C   0  0  0  0  0  0  0  0  0  0  0  0
  -27.1930  -27.3590   20.1330 C   0  0  0  0  0  0  0  0  0  0  0  0
  -23.3900  -30.4830   21.6020 C   0  0  0  0  0  3  0  0  0  0  0  0
  -24.8290  -28.9510   20.1600 C   0  0  0  0  0  0  0  0  0  0  0  0
  -25.9290  -30.8080   21.4080 C   0  0  0  0  0  2  0  0  0  0  0  0
  -26.0000  -29.4360   20.7530 C   0  0  0  0  0  0  0  0  0  0  0  0
  -27.1870  -28.6510   20.7310 C   0  0  0  0  0  3  0  0  0  0  0  0
  -26.0010  -26.9350   19.4950 C   0  0  0  0  0  3  0  0  0  0  0  0
  -24.8300  -27.7050   19.5220 C   0  0  0  0  0  3  0  0  0  0  0  0
  -23.5940  -29.8230   20.2170 C   0  0  0  0  0  2  0  0  0  0  0  0
  -24.6590  -31.0720   22.1390 N   0  0  0  0  0  0  0  0  0  0  0  0
  -23.5160  -32.1540   23.7730 O   0  0  0  0  0  0  0  0  0  0  0  0
  -22.7370  -29.4550   22.5570 C   0  0  0  0  0  0  0  0  0  0  0  0
  -21.4100  -29.2800   22.4370 N   0  0  0  0  0  0  0  0  0  0  0  0
  -23.4190  -28.8230   23.3670 O   0  0  0  0  0  0  0  0  0  0  0  0
  -20.9230  -29.8360   21.7490 H   0  0  0  0  0  0  0  0  0  0  0  0
  -18.0270  -28.1050   22.9410 C   0  0  0  0  0  0  0  0  0  0  0  0
  -20.5880  -28.3460   23.2050 C   0  0  0  0  0  3  0  0  0  0  0  0
  -20.6800  -26.9170   22.6230 C   0  0  0  0  0  2  0  0  0  0  0  0
  -19.5710  -26.6040   21.6130 C   0  0  0  0  0  2  0  0  0  0  0  0
  -18.1930  -26.7560   22.2630 C   0  0  0  0  0  2  0  0  0  0  0  0
  -19.1510  -28.8590   23.3680 C   0  0  0  0  0  0  0  0  0  0  0  0
  -18.9420  -30.1240   23.9620 C   0  0  0  0  0  3  0  0  0  0  0  0
  -17.6400  -30.6310   24.1350 C   0  0  0  0  0  3  0  0  0  0  0  0
  -16.5290  -29.8730   23.7240 C   0  0  0  0  0  3  0  0  0  0  0  0
  -16.7240  -28.6110   23.1340 C   0  0  0  0  0  3  0  0  0  0  0  0
  -25.8840  -32.5100   23.8530 C   0  0  0  0  0  3  0  0  0  0  0  0
  -26.4020  -31.7360   25.1270 C   0  0  1  0  0  0  0  0  0  0  0  0
  -25.3110  -31.4960   26.1960 C   0  0  0  0  0  1  0  0  0  0  0  0
  -26.9830  -30.3590   24.7290 C   0  0  0  0  0  1  0  0  0  0  0  0
  -27.5580  -32.5290   25.7820 C   0  0  0  0  0  1  0  0  0  0  0  0
  -25.5730  -33.9070   24.1850 N   0  0  0  0  0  0  0  0  0  0  0  0
  -25.9030  -34.9600   23.4240 C   0  0  0  0  0  0  0  0  0  0  0  0
  -26.5680  -34.8570   22.3900 O   0  0  0  0  0  0  0  0  0  0  0  0
  -24.9770  -34.0590   24.9840 H   0  0  0  0  0  0  0  0  0  0  0  0
  -24.1670  -36.7500   23.0820 C   0  0  0  0  0  1  0  0  0  0  0  0
  -25.4160  -36.3480   23.8830 C   0  0  0  0  0  3  0  0  0  0  0  0
  -27.5580  -37.2350   24.6950 C   0  0  0  0  0  1  0  0  0  0  0  0
  -26.4480  -37.4030   23.7610 N   0  0  0  0  0  0  0  0  0  0  0  0
  -26.0440  -38.3220   23.9120 H   0  0  0  0  0  0  0  0  0  0  0  0
  -30.7020  -17.0200   21.0610 C   0  0  0  0  0  2  0  0  0  0  0  0
  -30.6550  -14.5990   20.3900 C   0  0  0  0  0  0  0  0  0  0  0  0
  -30.3460  -12.3800   19.3280 C   0  0  0  0  0  2  0  0  0  0  0  0
  -29.4060  -12.5160   18.1120 C   0  0  0  0  0  2  0  0  0  0  0  0
  -27.9350  -12.3750   18.5510 C   0  0  0  0  0  2  0  0  0  0  0  0
  -27.5880  -13.2480   19.7890 C   0  0  0  0  0  3  0  0  0  0  0  0
  -28.6540  -13.1160   20.8970 C   0  0  0  0  0  2  0  0  0  0  0  0
  -29.9590  -13.4250   20.2960 N   0  0  0  0  0  0  0  0  0  0  0  0
  -31.8280  -14.6640   20.0220 O   0  0  0  0  0  0  0  0  0  0  0  0
  -29.9920  -15.7410   20.7410 N   0  0  0  0  0  0  0  0  0  0  0  0
  -29.0070  -15.6870   20.9460 H   0  0  0  0  0  0  0  0  0  0  0  0
  -25.2020  -13.8380   20.5330 C   0  0  0  0  0  0  0  0  0  0  0  0
  -24.1410  -13.0610   20.9100 C   0  0  0  0  0  0  0  0  0  0  0  0
  -24.6070  -11.7100   20.8740 C   0  0  0  0  0  0  0  0  0  0  0  0
  -26.2470  -12.9600   20.2880 N   0  0  0  0  0  0  0  0  0  0  0  0
  -25.8960  -11.6760   20.5590 N   0  0  0  0  0  0  0  0  0  0  0  0
  -23.8850  -10.4450   21.0660 C   0  0  0  0  0  0  0  0  0  0  0  0
  -24.3350   -9.4700   21.9820 C   0  0  0  0  0  3  0  0  0  0  0  0
  -23.6150   -8.2690   22.1620 C   0  0  0  0  0  3  0  0  0  0  0  0
  -22.4300   -8.0360   21.4240 C   0  0  0  0  0  0  0  0  0  0  0  0
  -21.9990   -8.9990   20.4940 C   0  0  0  0  0  3  0  0  0  0  0  0
  -22.7210  -10.1910   20.3130 C   0  0  0  0  0  3  0  0  0  0  0  0
  -21.6780   -6.8890   21.5160 O   0  0  0  0  0  0  0  0  0  0  0  0
  -21.6570   -6.1300   22.6590 C   0  0  0  0  0  0  0  0  0  0  0  0
  -21.2590   -6.6690   23.9020 C   0  0  0  0  0  3  0  0  0  0  0  0
  -21.1840   -5.8370   25.0380 C   0  0  0  0  0  3  0  0  0  0  0  0
  -21.4960   -4.4670   24.9320 C   0  0  0  0  0  0  0  0  0  0  0  0
  -21.8850   -3.9280   23.6920 C   0  0  0  0  0  3  0  0  0  0  0  0
  -21.9640   -4.7570   22.5590 C   0  0  0  0  0  0  0  0  0  0  0  0
  -22.3190   -4.2290   21.3640 F   0  0  0  0  0  0  0  0  0  0  0  0
  -21.4170   -3.6670   26.0190 F   0  0  0  0  0  0  0  0  0  0  0  0
  -22.7420  -13.5320   21.1870 C   0  0  0  0  0  0  0  0  0  0  0  0
  -22.0190  -12.8310   22.0540 N   0  0  0  0  0  0  0  0  0  0  0  0
  -22.2980  -14.5540   20.6700 O   0  0  0  0  0  0  0  0  0  0  0  0
  -22.3920  -12.0040   22.4940 H   0  0  0  0  0  0  0  0  0  0  0  0
  -21.0790  -13.1250   22.2800 H   0  0  0  0  0  0  0  0  0  0  0  0
  -25.3620  -15.2100   20.3550 N   0  0  0  0  0  0  0  0  0  0  0  0
  -24.5990  -15.8640   20.4900 H   0  0  0  0  0  0  0  0  0  0  0  0
  -26.2000  -15.6490   19.9950 H   0  0  0  0  0  0  0  0  0  0  0  0
  1  2  2  0
  1  3  1  0
  2  4  1  0
  3  5  2  0
  4 54  1  0
  4  7  2  0
  5  7  1  0
  5  6  1  0
  8 10  1  0
  9  8  1  0
  9  3  1  0
  9 10  1  0
 10 11  1  1
 12 13  1  0
 12 10  1  0
 14 25  2  0
 15 13  1  0
 15 20  1  0
 16 24  1  0
 16 26  1  0
 17 23  1  0
 17 19  1  0
 18 24  1  0
 19 18  1  0
 20 19  2  0
 21 22  1  0
 21 15  2  0
 22 17  2  0
 23 16  1  0
 24 14  1  0
 26 28  2  0
 27 26  1  0
 29 27  1  0
 30 39  2  0
 30 35  1  0
 31 27  1  0
 31 35  1  0
 32 31  1  0
 33 34  1  0
 33 32  1  0
 34 30  1  0
 35 36  2  0
 36 37  1  0
 38 37  2  0
 39 38  1  0
 40 14  1  0
 40 45  1  0
 40 41  1  0
 41 44  1  1
 41 42  1  0
 43 41  1  0
 45 48  1  0
 46 50  1  0
 46 45  1  0
 47 46  2  0
 50 49  1  0
 52 50  1  0
 52 53  1  0
 52 51  1  0
 55 63  1  0
 56 61  1  0
 57 58  1  0
 57 56  1  0
 59 58  1  0
 59 68  1  0
 59 60  1  0
 61 55  1  0
 61 60  1  0
 62 55  2  0
 63 64  1  0
 63 54  1  0
 65 66  2  0
 66 85  1  0
 67 66  1  0
 67 70  1  0
 68 65  1  0
 68 69  1  0
 69 67  2  0
 70 71  1  0
 71 72  2  0
 73 76  1  0
 73 72  1  0
 74 73  2  0
 75 74  1  0
 75 70  2  0
 76 77  1  0
 77 78  1  0
 78 79  2  0
 80 79  1  0
 80 84  1  0
 81 80  2  0
 82 77  2  0
 82 81  1  0
 83 82  1  0
 85 86  1  0
 86 89  1  0
 86 88  1  0
 87 85  2  0
 90 91  1  0
 90 65  1  0
 92 90  1  0
M  ISO  4  12 101  13 101  55 100  63 100
M  END
>  <TORSDO>  (80) 
F 19

>  <SCORE>  (80) 
-14.446

>  <name>  (80) 
79

>  <ligand_id>  (80) 
79

>  <original_smiles>  (80) 
[H]c1c(C([H])([H])N([H])C(=O)N2C([H])([H])C([H])([H])C([H])([H])C([H])(n3nc(-c4c([H])c([H])c(Oc5c([H])c([H])c(F)c([H])c5F)c([H])c4[H])c(C(=O)N([H])[H])c3N([H])[H])C2([H])[H])nc(C([H])([H])[H])c(C2([H])C([H])([H])C2(C([H])([H])[H])C([H])([H])Oc2c([H])c([H])c3c(c2[H])C([H])([H])N(C(=O)C([H])(N([H])C(=O)C([H])(N([H])C([H])([H])[H])C([H])([H])[H])C(C([H])([H])[H])(C([H])([H])[H])C([H])([H])[H])C([H])(C(=O)N([H])C2([H])c4c([H])c([H])c([H])c([H])c4C([H])([H])C([H])([H])C2([H])[H])C3([H])[H])c1[H]

>  <smiles>  (80) 
[H]c1c(C([H])([H])N([H])C(=O)N2C([H])([H])C([H])([H])C([H])([H])C([H])(n3nc(-c4c([H])c([H])c(Oc5c([H])c([H])c(F)c([H])c5F)c([H])c4[H])c(C(=O)N([H])[H])c3N([H])[H])C2([H])[H])nc(C([H])([H])[H])c(C2([H])C([H])([H])C2(C([H])([H])[H])C([H])([H])Oc2c([H])c([H])c3c(c2[H])C([H])([H])N(C(=O)C([H])(N([H])C(=O)C([H])(N([H])C([H])([H])[H])C([H])([H])[H])C(C([H])([H])[H])(C([H])([H])[H])C([H])([H])[H])C([H])(C(=O)N([H])C2([H])c4c([H])c([H])c([H])c([H])c4C([H])([H])C([H])([H])C2([H])[H])C3([H])[H])c1[H]

$$$$
80:0:0
     RDKit          3D

101109  0  0  1  0  0  0  0  0999 V2000
  -27.8110  -17.2360   18.2150 C   0  0  0  0  0  3  0  0  0  0  0  0
  -28.1110  -18.6560   18.5670 C   0  0  0  0  0  3  0  0  0  0  0  0
  -26.4340  -18.5640   20.0690 C   0  0  0  0  0  3  0  0  0  0  0  0
  -26.8600  -16.2380   18.7960 C   0  0  0  0  0  0  0  0  0  0  0  0
  -26.1340  -17.1440   19.7160 C   0  0  0  0  0  0  0  0  0  0  0  0
  -27.4640  -19.4670   19.5760 C   0  0  0  0  0  0  0  0  0  0  0  0
  -24.8750  -16.6550   20.4140 C   0  0  0  0  0  1  0  0  0  0  0  0
  -26.7760  -13.5050   17.3170 C   0  0  0  0  0  2  0  0  0  0  0  0
  -26.5240  -14.4240   18.5460 C   0  0  0  0  0  3  0  0  0  0  0  0
  -27.2890  -12.7170   18.5610 C   0  0  0  0  0  3  0  0  0  0  0  0
  -30.4790  -13.0210   20.2270 C   0  0  0  0  0  2  0  0  0  0  0  0
  -28.9850  -12.0060   19.0920 C   0  0  0  0  0  3  0  0  0  0  0  0
  -31.9630  -12.9560   19.6240 C   0  0  0  0  0  3  0  0  0  0  0  0
  -29.6270  -11.3300   17.8000 C   0  0  0  0  0  0  0  0  0  0  0  0
  -32.1450  -12.2280   18.2430 C   0  0  0  0  0  3  0  0  0  0  0  0
  -28.7680  -10.6910   16.7290 C   0  0  0  0  0  1  0  0  0  0  0  0
  -33.5370  -12.0910   17.6580 C   0  0  0  0  0  1  0  0  0  0  0  0
  -31.0860  -11.4930   17.4610 N   0  0  0  0  0  0  0  0  0  0  0  0
  -33.0640  -12.8670   20.6920 C   0  0  0  0  0  2  0  0  0  0  0  0
  -31.6570  -12.0730   22.5100 C   0  0  0  0  0  0  0  0  0  0  0  0
  -30.3820  -11.3610   20.2450 C   0  0  0  0  0  3  0  0  0  0  0  0
  -29.9430  -14.2510   18.7330 C   0  0  0  0  0 15  0  0  0  0  0  0
  -28.9840  -15.1130   20.3200 C   0  0  0  0  0 15  0  0  0  0  0  0
  -28.3030  -13.8210   21.9120 C   0  0  0  0  0  2  0  0  0  0  0  0
  -29.1540  -12.3700   22.5390 C   0  0  0  0  0  2  0  0  0  0  0  0
  -30.4240  -11.5600   21.9650 N   0  0  0  0  0  0  0  0  0  0  0  0
  -31.8620  -13.1310   23.1350 O   0  0  0  0  0  0  0  0  0  0  0  0
  -32.6620  -11.8020   21.6570 N   0  0  0  0  0  0  0  0  0  0  0  0
  -32.5780  -10.8910   21.2340 H   0  0  0  0  0  0  0  0  0  0  0  0
  -25.6380  -13.6990   21.9550 C   0  0  0  0  0  0  0  0  0  0  0  0
  -24.5980  -12.8200   21.7930 C   0  0  0  0  0  0  0  0  0  0  0  0
  -25.1480  -11.5070   21.7690 C   0  0  0  0  0  0  0  0  0  0  0  0
  -26.8440  -13.0580   21.9640 N   0  0  0  0  0  0  0  0  0  0  0  0
  -26.5020  -11.6580   21.9230 N   0  0  0  0  0  0  0  0  0  0  0  0
  -24.3930  -10.1980   21.5910 C   0  0  0  0  0  0  0  0  0  0  0  0
  -24.4000   -9.1590   22.5580 C   0  0  0  0  0  3  0  0  0  0  0  0
  -23.6040   -7.9890   22.4150 C   0  0  0  0  0  3  0  0  0  0  0  0
  -22.7570   -7.8210   21.2930 C   0  0  0  0  0  0  0  0  0  0  0  0
  -22.7460   -8.8390   20.3210 C   0  0  0  0  0  3  0  0  0  0  0  0
  -23.5450   -9.9980   20.4660 C   0  0  0  0  0  3  0  0  0  0  0  0
  -21.9840   -6.7010   21.0500 O   0  0  0  0  0  0  0  0  0  0  0  0
  -21.3530   -6.0040   22.0560 C   0  0  0  0  0  0  0  0  0  0  0  0
  -20.4290   -6.6280   22.9230 C   0  0  0  0  0  3  0  0  0  0  0  0
  -19.7490   -5.8720   23.9000 C   0  0  0  0  0  3  0  0  0  0  0  0
  -19.9810   -4.4880   24.0100 C   0  0  0  0  0  0  0  0  0  0  0  0
  -20.8890   -3.8580   23.1420 C   0  0  0  0  0  3  0  0  0  0  0  0
  -21.5690   -4.6120   22.1670 C   0  0  0  0  0  0  0  0  0  0  0  0
  -22.4230   -3.9880   21.3220 F   0  0  0  0  0  0  0  0  0  0  0  0
  -19.3320   -3.7630   24.9510 F   0  0  0  0  0  0  0  0  0  0  0  0
  -23.1650  -13.2280   21.6140 C   0  0  0  0  0  0  0  0  0  0  0  0
  -22.2300  -12.5120   22.2290 N   0  0  0  0  0  0  0  0  0  0  0  0
  -22.8750  -14.2350   20.9720 O   0  0  0  0  0  0  0  0  0  0  0  0
  -22.4640  -11.6880   22.7650 H   0  0  0  0  0  0  0  0  0  0  0  0
  -21.2610  -12.7860   22.1580 H   0  0  0  0  0  0  0  0  0  0  0  0
  -25.6680  -15.0640   22.0790 N   0  0  0  0  0  0  0  0  0  0  0  0
  -24.8310  -15.6140   21.9480 H   0  0  0  0  0  0  0  0  0  0  0  0
  -26.5070  -15.6050   21.9110 H   0  0  0  0  0  0  0  0  0  0  0  0
  -27.6680  -20.8800   20.1320 O   0  0  0  0  0  0  0  0  0  0  0  0
  -28.3830  -22.2900   19.7490 C   0  0  0  0  0  3  0  0  0  0  0  0
  -28.3090  -23.8720   20.5930 C   0  0  0  0  0  3  0  0  0  0  0  0
  -28.8580  -25.4230   20.4260 O   0  0  0  0  0  0  0  0  0  0  0  0
  -25.0240  -31.4230   23.0690 C   0  0  0  0  0  0  0  0  0  0  0  0
  -27.9620  -26.5820   20.3700 C   0  0  0  0  0  0  0  0  0  0  0  0
  -24.0690  -29.9230   21.3870 C   0  0  0  0  0  3  0  0  0  0  0  0
  -25.6960  -28.3940   20.1320 C   0  0  0  0  0  0  0  0  0  0  0  0
  -26.6300  -30.2490   21.4830 C   0  0  0  0  0  2  0  0  0  0  0  0
  -26.8100  -28.8340   20.8600 C   0  0  0  0  0  0  0  0  0  0  0  0
  -27.9630  -27.9360   20.9720 C   0  0  0  0  0  3  0  0  0  0  0  0
  -26.8470  -26.3220   19.5740 C   0  0  0  0  0  3  0  0  0  0  0  0
  -25.7370  -27.1640   19.4790 C   0  0  0  0  0  3  0  0  0  0  0  0
  -24.4500  -29.2560   20.0480 C   0  0  0  0  0  2  0  0  0  0  0  0
  -25.2600  -30.5600   22.0320 N   0  0  0  0  0  0  0  0  0  0  0  0
  -23.8740  -31.6660   23.4690 O   0  0  0  0  0  0  0  0  0  0  0  0
  -23.3600  -28.8910   22.3020 C   0  0  0  0  0  0  0  0  0  0  0  0
  -22.0420  -28.6960   22.1090 N   0  0  0  0  0  0  0  0  0  0  0  0
  -23.9980  -28.2760   23.1610 O   0  0  0  0  0  0  0  0  0  0  0  0
  -21.5810  -29.2450   21.3980 H   0  0  0  0  0  0  0  0  0  0  0  0
  -18.6410  -27.5210   22.5370 C   0  0  0  0  0  0  0  0  0  0  0  0
  -21.1990  -27.7450   22.8410 C   0  0  0  0  0  3  0  0  0  0  0  0
  -21.2910  -26.3300   22.2240 C   0  0  0  0  0  2  0  0  0  0  0  0
  -20.1960  -26.0510   21.1890 C   0  0  0  0  0  2  0  0  0  0  0  0
  -18.8090  -26.1920   21.8200 C   0  0  0  0  0  2  0  0  0  0  0  0
  -19.7620  -28.2580   23.0020 C   0  0  0  0  0  0  0  0  0  0  0  0
  -19.5480  -29.5020   23.6340 C   0  0  0  0  0  3  0  0  0  0  0  0
  -18.2470  -30.0100   23.8040 C   0  0  0  0  0  3  0  0  0  0  0  0
  -17.1400  -29.2700   23.3520 C   0  0  0  0  0  3  0  0  0  0  0  0
  -17.3370  -28.0270   22.7250 C   0  0  0  0  0  3  0  0  0  0  0  0
  -26.1880  -32.1630   23.7920 C   0  0  0  0  0  3  0  0  0  0  0  0
  -25.7350  -33.5360   24.0810 N   0  0  0  0  0  0  0  0  0  0  0  0
  -26.0590  -34.6180   23.3610 C   0  0  0  0  0  0  0  0  0  0  0  0
  -26.8340  -34.5720   22.4020 O   0  0  0  0  0  0  0  0  0  0  0  0
  -25.0530  -33.6390   24.8180 H   0  0  0  0  0  0  0  0  0  0  0  0
  -24.2590  -36.2960   22.8230 C   0  0  0  0  0  1  0  0  0  0  0  0
  -25.4260  -35.9640   23.7680 C   0  0  0  0  0  3  0  0  0  0  0  0
  -27.3760  -36.9910   24.8510 C   0  0  0  0  0  1  0  0  0  0  0  0
  -26.3880  -37.0890   23.7800 N   0  0  0  0  0  0  0  0  0  0  0  0
  -25.9020  -37.9770   23.8770 H   0  0  0  0  0  0  0  0  0  0  0  0
  -26.6380  -31.4490   25.1250 C   0  0  1  0  0  0  0  0  0  0  0  0
  -25.4690  -31.1340   26.0900 C   0  0  0  0  0  1  0  0  0  0  0  0
  -27.3640  -30.1190   24.8220 C   0  0  0  0  0  1  0  0  0  0  0  0
  -27.6540  -32.3390   25.8770 C   0  0  0  0  0  1  0  0  0  0  0  0
  1  2  2  0
  1  4  1  0
  2  6  1  0
  4  5  2  0
  5  3  1  0
  5  7  1  0
  6  3  2  0
  6 58  1  0
  8  9  1  0
  9 10  1  0
  9  4  1  0
 10  8  1  0
 10 12  1  0
 12 14  1  0
 12 21  1  0
 13 11  1  0
 13 19  1  0
 15 17  1  0
 15 13  1  0
 16 14  1  0
 18 14  2  0
 18 15  1  0
 19 28  1  0
 20 27  2  0
 21 11  1  0
 21 26  1  0
 24 33  1  0
 24 25  1  0
 26 20  1  0
 26 25  1  0
 28 20  1  0
 29 28  1  0
 30 33  1  0
 30 55  1  0
 31 30  2  0
 32 31  1  0
 32 34  2  0
 34 33  1  0
 35 32  1  0
 35 36  1  0
 37 36  2  0
 38 37  1  0
 39 40  1  0
 39 38  2  0
 40 35  2  0
 41 38  1  0
 41 42  1  0
 42 47  2  0
 42 43  1  0
 43 44  2  0
 44 45  1  0
 45 49  1  0
 46 45  2  0
 47 46  1  0
 48 47  1  0
 50 31  1  0
 50 51  1  0
 51 53  1  0
 52 50  2  0
 54 51  1  0
 56 55  1  0
 57 55  1  0
 59 58  1  0
 59 60  2  0
 61 60  1  0
 62 73  2  0
 63 61  1  0
 63 68  1  0
 64 72  1  0
 64 74  1  0
 65 67  1  0
 66 72  1  0
 67 68  2  0
 67 66  1  0
 69 63  2  0
 70 69  1  0
 70 65  2  0
 71 65  1  0
 71 64  1  0
 72 62  1  0
 74 76  2  0
 75 74  1  0
 77 75  1  0
 78 87  2  0
 78 83  1  0
 79 75  1  0
 79 83  1  0
 80 79  1  0
 81 82  1  0
 81 80  1  0
 82 78  1  0
 83 84  2  0
 84 85  1  0
 86 85  2  0
 87 86  1  0
 88 62  1  0
 88 89  1  0
 88 98  1  0
 89 92  1  0
 90 94  1  0
 90 89  1  0
 91 90  2  0
 94 93  1  0
 94 96  1  0
 96 97  1  0
 96 95  1  0
 98101  1  1
 98 99  1  0
100 98  1  0
M  ISO  4  20 100  28 100  60 101  61 101
M  END
>  <TORSDO>  (81) 
F 22

>  <SCORE>  (81) 
0.933

>  <name>  (81) 
80

>  <ligand_id>  (81) 
80

>  <original_smiles>  (81) 
[H]c1c([H])c([H])c2c(c1[H])C([H])([H])C([H])([H])C([H])([H])C2([H])N([H])C(=O)C1([H])N(C(=O)C([H])(N([H])C(=O)C([H])(N([H])C([H])([H])[H])C([H])([H])[H])C(C([H])([H])[H])(C([H])([H])[H])C([H])([H])[H])C([H])([H])c2c([H])c(OC([H])([H])C([H])([H])Oc3c([H])c([H])c(C4([H])C([H])([H])C4([H])c4c(C([H])([H])[H])nc(C([H])([H])[H])c(C([H])([H])N([H])C(=O)N5C([H])([H])C([H])([H])C([H])([H])C([H])(n6nc(-c7c([H])c([H])c(Oc8c([H])c([H])c(F)c([H])c8F)c([H])c7[H])c(C(=O)N([H])[H])c6N([H])[H])C5([H])[H])c4[H])c(C([H])([H])[H])c3[H])c([H])c([H])c2C1([H])[H]

>  <smiles>  (81) 
[H]c1c([H])c([H])c2c(c1[H])C([H])([H])C([H])([H])C([H])([H])C2([H])N([H])C(=O)C1([H])N(C(=O)C([H])(N([H])C(=O)C([H])(N([H])C([H])([H])[H])C([H])([H])[H])C(C([H])([H])[H])(C([H])([H])[H])C([H])([H])[H])C([H])([H])c2c([H])c(OC([H])([H])C([H])([H])Oc3c([H])c([H])c(C4([H])C([H])([H])C4([H])c4c(C([H])([H])[H])nc(C([H])([H])[H])c(C([H])([H])N([H])C(=O)N5C([H])([H])C([H])([H])C([H])([H])C([H])(n6nc(-c7c([H])c([H])c(Oc8c([H])c([H])c(F)c([H])c8F)c([H])c7[H])c(C(=O)N([H])[H])c6N([H])[H])C5([H])[H])c4[H])c(C([H])([H])[H])c3[H])c([H])c([H])c2C1([H])[H]

$$$$
81:0:0
     RDKit          3D

 97106  0  0  1  0  0  0  0  0999 V2000
  -29.5640  -21.4590   20.8380 C   0  0  0  0  0  3  0  0  0  0  0  0
  -28.6580  -22.1890   18.9510 C   0  0  0  0  0  3  0  0  0  0  0  0
  -29.1470  -22.6560   20.1380 C   0  0  0  0  0  0  0  0  0  0  0  0
  -29.3680  -20.3300   20.0570 C   0  0  0  0  0  0  0  0  0  0  0  0
  -28.7850  -20.8080   18.8790 N   0  0  0  0  0  0  0  0  0  0  0  0
  -30.7350  -14.6610   20.4280 C   0  0  0  0  0  0  0  0  0  0  0  0
  -30.3940  -12.4440   19.3610 C   0  0  0  0  0  2  0  0  0  0  0  0
  -29.4640  -12.5510   18.1380 C   0  0  0  0  0  2  0  0  0  0  0  0
  -27.9990  -12.3680   18.5690 C   0  0  0  0  0  2  0  0  0  0  0  0
  -27.6290  -13.2520   19.7870 C   0  0  0  0  0  3  0  0  0  0  0  0
  -28.6940  -13.1750   20.9110 C   0  0  0  0  0  2  0  0  0  0  0  0
  -29.9940  -13.5060   20.3140 N   0  0  0  0  0  0  0  0  0  0  0  0
  -31.9190  -14.6350   20.0810 O   0  0  0  0  0  0  0  0  0  0  0  0
  -30.6690  -18.4380   21.3540 C   0  0  0  0  0  2  0  0  0  0  0  0
  -28.5180  -17.8790   20.4780 C   0  0  0  0  0  2  0  0  0  0  0  0
  -31.1490  -16.9500   21.2620 C   0  0  0  0  0  2  0  0  0  0  0  0
  -28.8680  -16.3610   20.3440 C   0  0  0  0  0  2  0  0  0  0  0  0
  -29.7050  -18.8260   20.2280 C   0  0  0  0  0  3  0  0  0  0  0  0
  -30.1880  -15.8760   20.8310 N   0  0  0  0  0  0  0  0  0  0  0  0
  -25.2410  -13.8530   20.5080 C   0  0  0  0  0  0  0  0  0  0  0  0
  -24.1760  -13.0790   20.8790 C   0  0  0  0  0  0  0  0  0  0  0  0
  -24.6430  -11.7290   20.8550 C   0  0  0  0  0  0  0  0  0  0  0  0
  -26.2870  -12.9720   20.2810 N   0  0  0  0  0  0  0  0  0  0  0  0
  -25.9340  -11.6910   20.5510 N   0  0  0  0  0  0  0  0  0  0  0  0
  -23.9200  -10.4660   21.0450 C   0  0  0  0  0  0  0  0  0  0  0  0
  -24.3570   -9.5000   21.9760 C   0  0  0  0  0  3  0  0  0  0  0  0
  -23.6340   -8.3000   22.1540 C   0  0  0  0  0  3  0  0  0  0  0  0
  -22.4610   -8.0600   21.3990 C   0  0  0  0  0  0  0  0  0  0  0  0
  -22.0460   -9.0160   20.4550 C   0  0  0  0  0  3  0  0  0  0  0  0
  -22.7690  -10.2070   20.2750 C   0  0  0  0  0  3  0  0  0  0  0  0
  -21.7090   -6.9150   21.4860 O   0  0  0  0  0  0  0  0  0  0  0  0
  -21.6620   -6.1710   22.6380 C   0  0  0  0  0  0  0  0  0  0  0  0
  -21.2240   -6.7220   23.8620 C   0  0  0  0  0  3  0  0  0  0  0  0
  -21.1260   -5.9040   25.0070 C   0  0  0  0  0  3  0  0  0  0  0  0
  -21.4560   -4.5380   24.9270 C   0  0  0  0  0  0  0  0  0  0  0  0
  -21.8880   -3.9870   23.7070 C   0  0  0  0  0  3  0  0  0  0  0  0
  -21.9880   -4.8020   22.5650 C   0  0  0  0  0  0  0  0  0  0  0  0
  -22.3850   -4.2620   21.3880 F   0  0  0  0  0  0  0  0  0  0  0  0
  -21.3540   -3.7500   26.0230 F   0  0  0  0  0  0  0  0  0  0  0  0
  -22.7770  -13.5530   21.1420 C   0  0  0  0  0  0  0  0  0  0  0  0
  -22.0470  -12.8580   22.0070 N   0  0  0  0  0  0  0  0  0  0  0  0
  -22.3390  -14.5770   20.6170 O   0  0  0  0  0  0  0  0  0  0  0  0
  -22.4160  -12.0320   22.4540 H   0  0  0  0  0  0  0  0  0  0  0  0
  -21.1080  -13.1570   22.2280 H   0  0  0  0  0  0  0  0  0  0  0  0
  -25.3950  -15.2230   20.3210 N   0  0  0  0  0  0  0  0  0  0  0  0
  -24.6190  -15.8660   20.4270 H   0  0  0  0  0  0  0  0  0  0  0  0
  -26.2370  -15.6690   19.9830 H   0  0  0  0  0  0  0  0  0  0  0  0
  -29.2970  -20.3730   16.5020 C   0  0  0  0  0  1  0  0  0  0  0  0
  -26.9080  -20.2320   17.3750 C   0  0  0  0  0  1  0  0  0  0  0  0
  -28.3960  -20.0320   17.6990 C   0  0  0  0  0  3  0  0  0  0  0  0
  -29.2710  -24.1520   20.5580 C   0  0  0  0  0  3  0  0  0  0  0  0
  -30.6160  -24.6240   20.1960 N   0  0  0  0  0  4  0  0  0  0  0  0
  -30.7550  -24.5880   19.2020 H   0  0  0  0  0  0  0  0  0  0  0  0
  -31.3150  -24.0540   20.6380 H   0  0  0  0  0  0  0  0  0  0  0  0
  -30.7380  -25.5760   20.5010 H   0  0  0  0  0  0  0  0  0  0  0  0
  -28.1840  -25.1340   19.9730 C   0  0  0  0  0  2  0  0  0  0  0  0
  -28.3480  -26.5670   20.2620 O   0  0  0  0  0  0  0  0  0  0  0  0
  -24.6130  -31.9210   23.2340 C   0  0  0  0  0  0  0  0  0  0  0  0
  -27.2160  -27.3830   20.1840 C   0  0  0  0  0  0  0  0  0  0  0  0
  -23.4010  -30.5220   21.5980 C   0  0  0  0  0  3  0  0  0  0  0  0
  -24.8460  -28.9720   20.1720 C   0  0  0  0  0  0  0  0  0  0  0  0
  -25.9380  -30.8430   21.4090 C   0  0  0  0  0  2  0  0  0  0  0  0
  -26.0130  -29.4680   20.7670 C   0  0  0  0  0  0  0  0  0  0  0  0
  -27.1990  -28.6820   20.7690 C   0  0  0  0  0  3  0  0  0  0  0  0
  -26.0280  -26.9390   19.5520 C   0  0  0  0  0  3  0  0  0  0  0  0
  -24.8550  -27.7120   19.5570 C   0  0  0  0  0  3  0  0  0  0  0  0
  -23.6100  -29.8440   20.2190 C   0  0  0  0  0  2  0  0  0  0  0  0
  -24.6700  -31.1120   22.1370 N   0  0  0  0  0  0  0  0  0  0  0  0
  -23.5310  -32.2020   23.7700 O   0  0  0  0  0  0  0  0  0  0  0  0
  -22.7410  -29.5070   22.5600 C   0  0  0  0  0  0  0  0  0  0  0  0
  -21.4140  -29.3360   22.4370 N   0  0  0  0  0  0  0  0  0  0  0  0
  -23.4200  -28.8760   23.3760 O   0  0  0  0  0  0  0  0  0  0  0  0
  -20.9270  -29.8970   21.7520 H   0  0  0  0  0  0  0  0  0  0  0  0
  -18.0290  -28.1740   22.9560 C   0  0  0  0  0  0  0  0  0  0  0  0
  -20.5920  -28.4060   23.2110 C   0  0  0  0  0  3  0  0  0  0  0  0
  -20.6750  -26.9740   22.6330 C   0  0  0  0  0  2  0  0  0  0  0  0
  -19.5640  -26.6650   21.6250 C   0  0  0  0  0  2  0  0  0  0  0  0
  -18.1880  -26.8240   22.2770 C   0  0  0  0  0  2  0  0  0  0  0  0
  -19.1580  -28.9240   23.3810 C   0  0  0  0  0  0  0  0  0  0  0  0
  -18.9570  -30.1880   23.9740 C   0  0  0  0  0  3  0  0  0  0  0  0
  -17.6580  -30.7040   24.1490 C   0  0  0  0  0  3  0  0  0  0  0  0
  -16.5440  -29.9510   23.7400 C   0  0  0  0  0  3  0  0  0  0  0  0
  -16.7300  -28.6870   23.1500 C   0  0  0  0  0  3  0  0  0  0  0  0
  -25.9010  -32.5490   23.8520 C   0  0  0  0  0  3  0  0  0  0  0  0
  -26.4230  -31.7710   25.1210 C   0  0  1  0  0  0  0  0  0  0  0  0
  -25.3360  -31.5240   26.1920 C   0  0  0  0  0  1  0  0  0  0  0  0
  -27.0060  -30.3960   24.7170 C   0  0  0  0  0  1  0  0  0  0  0  0
  -27.5760  -32.5620   25.7830 C   0  0  0  0  0  1  0  0  0  0  0  0
  -25.5930  -33.9450   24.1910 N   0  0  0  0  0  0  0  0  0  0  0  0
  -25.9130  -35.0020   23.4310 C   0  0  0  0  0  0  0  0  0  0  0  0
  -26.5680  -34.9020   22.3900 O   0  0  0  0  0  0  0  0  0  0  0  0
  -25.0100  -34.0970   25.0010 H   0  0  0  0  0  0  0  0  0  0  0  0
  -24.1750  -36.7900   23.1070 C   0  0  0  0  0  1  0  0  0  0  0  0
  -25.4280  -36.3870   23.8990 C   0  0  0  0  0  3  0  0  0  0  0  0
  -27.5710  -37.2760   24.7030 C   0  0  0  0  0  1  0  0  0  0  0  0
  -26.4570  -37.4430   23.7740 N   0  0  0  0  0  0  0  0  0  0  0  0
  -26.0500  -38.3620   23.9270 H   0  0  0  0  0  0  0  0  0  0  0  0
  2  3  2  0
  3 51  1  0
  3  1  1  0
  4  1  2  0
  5  2  1  0
  5  4  1  0
  6 19  1  0
  7 12  1  0
  8  9  1  0
  8  7  1  0
 10  9  1  0
 10 23  1  0
 10 11  1  0
 12  6  1  0
 12 11  1  0
 13  6  2  0
 16 14  1  0
 17 15  1  0
 17 19  1  0
 18  4  1  0
 18 15  1  0
 18 14  1  0
 19 16  1  0
 20 21  2  0
 21 40  1  0
 22 21  1  0
 22 25  1  0
 23 20  1  0
 23 24  1  0
 24 22  2  0
 25 26  1  0
 26 27  2  0
 28 31  1  0
 28 27  1  0
 29 28  2  0
 30 29  1  0
 30 25  2  0
 31 32  1  0
 32 33  1  0
 33 34  2  0
 35 34  1  0
 35 39  1  0
 36 35  2  0
 37 32  2  0
 37 36  1  0
 38 37  1  0
 40 41  1  0
 41 44  1  0
 41 43  1  0
 42 40  2  0
 45 46  1  0
 45 20  1  0
 47 45  1  0
 48 50  1  0
 49 50  1  0
 50  5  1  0
 51 56  1  0
 52 55  1  0
 52 51  1  0
 52 54  1  0
 53 52  1  0
 56 57  1  0
 58 69  2  0
 59 57  1  0
 59 64  1  0
 60 68  1  0
 60 70  1  0
 61 67  1  0
 61 63  1  0
 62 68  1  0
 63 64  2  0
 63 62  1  0
 65 66  1  0
 65 59  2  0
 66 61  2  0
 67 60  1  0
 68 58  1  0
 70 72  2  0
 71 70  1  0
 73 71  1  0
 74 83  2  0
 74 79  1  0
 75 71  1  0
 75 79  1  0
 76 75  1  0
 77 78  1  0
 77 76  1  0
 78 74  1  0
 79 80  2  0
 80 81  1  0
 82 81  2  0
 83 82  1  0
 84 58  1  0
 84 89  1  0
 84 85  1  0
 85 88  1  1
 85 86  1  0
 87 85  1  0
 89 92  1  0
 90 94  1  0
 90 89  1  0
 91 90  2  0
 94 93  1  0
 96 94  1  0
 96 97  1  0
 96 95  1  0
M  ISO  4   6 100  19 100  56 101  57 101
M  END
>  <TORSDO>  (82) 
F 20

>  <SCORE>  (82) 
-14.606

>  <name>  (82) 
81

>  <ligand_id>  (82) 
81

>  <original_smiles>  (82) 
[H]c1c([H])c([H])c2c(c1[H])C([H])([H])C([H])([H])C([H])([H])C2([H])N([H])C(=O)C1([H])N(C(=O)C([H])(N([H])C(=O)C([H])(N([H])C([H])([H])[H])C([H])([H])[H])C(C([H])([H])[H])(C([H])([H])[H])C([H])([H])[H])C([H])([H])c2c([H])c(OC([H])([H])C([H])(c3c([H])c(C4([H])C([H])([H])C([H])([H])N(C(=O)N5C([H])([H])C([H])([H])C([H])([H])C([H])(n6nc(-c7c([H])c([H])c(Oc8c([H])c([H])c(F)c([H])c8F)c([H])c7[H])c(C(=O)N([H])[H])c6N([H])[H])C5([H])[H])C([H])([H])C4([H])[H])n(C([H])(C([H])([H])[H])C([H])([H])[H])c3[H])[N+]([H])([H])[H])c([H])c([H])c2C1([H])[H]

>  <smiles>  (82) 
[H]c1c([H])c([H])c2c(c1[H])C([H])([H])C([H])([H])C([H])([H])C2([H])N([H])C(=O)C1([H])N(C(=O)C([H])(N([H])C(=O)C([H])(N([H])C([H])([H])[H])C([H])([H])[H])C(C([H])([H])[H])(C([H])([H])[H])C([H])([H])[H])C([H])([H])c2c([H])c(OC([H])([H])C([H])(c3c([H])c(C4([H])C([H])([H])C([H])([H])N(C(=O)N5C([H])([H])C([H])([H])C([H])([H])C([H])(n6nc(-c7c([H])c([H])c(Oc8c([H])c([H])c(F)c([H])c8F)c([H])c7[H])c(C(=O)N([H])[H])c6N([H])[H])C5([H])[H])C([H])([H])C4([H])[H])n(C([H])(C([H])([H])[H])C([H])([H])[H])c3[H])[N+]([H])([H])[H])c([H])c([H])c2C1([H])[H]

$$$$
82:0:0
     RDKit          3D

 96105  0  0  1  0  0  0  0  0999 V2000
  -31.3840  -21.8390   21.9570 C   0  0  0  0  0  2  0  0  0  0  0  0
  -31.8690  -20.3820   22.0550 C   0  0  0  0  0  2  0  0  0  0  0  0
  -30.0530  -20.5000   20.5220 C   0  0  0  0  0  2  0  0  0  0  0  0
  -30.6500  -21.9120   20.6150 C   0  0  0  0  0  3  0  0  0  0  0  0
  -31.0820  -19.5870   21.0760 N   0  0  2  0  0  4  0  0  0  0  0  0
  -31.7140  -19.3960   20.3120 H   0  0  0  0  0  0  0  0  0  0  0  0
  -30.6520  -14.4960   20.2360 C   0  0  0  0  0  0  0  0  0  0  0  0
  -30.2080  -12.4510   18.9190 C   0  0  0  0  0  2  0  0  0  0  0  0
  -29.2110  -12.7190   17.7750 C   0  0  0  0  0  2  0  0  0  0  0  0
  -27.7640  -12.5340   18.2680 C   0  0  0  0  0  2  0  0  0  0  0  0
  -27.4890  -13.3190   19.5730 C   0  0  0  0  0  3  0  0  0  0  0  0
  -28.5930  -13.0590   20.6270 C   0  0  0  0  0  2  0  0  0  0  0  0
  -29.9010  -13.3760   20.0240 N   0  0  0  0  0  0  0  0  0  0  0  0
  -31.6910  -14.7210   19.6080 O   0  0  0  0  0  0  0  0  0  0  0  0
  -31.7700  -17.2680   21.7780 C   0  0  0  0  0  2  0  0  0  0  0  0
  -29.5500  -17.6070   20.6490 C   0  0  0  0  0  2  0  0  0  0  0  0
  -31.2880  -15.8560   22.1970 C   0  0  0  0  0  2  0  0  0  0  0  0
  -29.1340  -16.2130   21.1580 C   0  0  0  0  0  2  0  0  0  0  0  0
  -30.5990  -18.2620   21.5780 C   0  0  0  0  0  3  0  0  0  0  0  0
  -30.2890  -15.3100   21.2630 N   0  0  0  0  0  0  0  0  0  0  0  0
  -25.1200  -13.9140   20.3860 C   0  0  0  0  0  0  0  0  0  0  0  0
  -24.0730  -13.1320   20.7930 C   0  0  0  0  0  0  0  0  0  0  0  0
  -24.5430  -11.7840   20.7370 C   0  0  0  0  0  0  0  0  0  0  0  0
  -26.1590  -13.0390   20.1070 N   0  0  0  0  0  0  0  0  0  0  0  0
  -25.8190  -11.7550   20.3780 N   0  0  0  0  0  0  0  0  0  0  0  0
  -23.8370  -10.5140   20.9460 C   0  0  0  0  0  0  0  0  0  0  0  0
  -24.3000   -9.5570   21.8750 C   0  0  0  0  0  3  0  0  0  0  0  0
  -23.5940   -8.3510   22.0700 C   0  0  0  0  0  3  0  0  0  0  0  0
  -22.4120   -8.0930   21.3360 C   0  0  0  0  0  0  0  0  0  0  0  0
  -21.9690   -9.0400   20.3950 C   0  0  0  0  0  3  0  0  0  0  0  0
  -22.6760  -10.2380   20.1980 C   0  0  0  0  0  3  0  0  0  0  0  0
  -21.6740   -6.9400   21.4410 O   0  0  0  0  0  0  0  0  0  0  0  0
  -21.6430   -6.2090   22.6020 C   0  0  0  0  0  0  0  0  0  0  0  0
  -21.2360   -6.7770   23.8290 C   0  0  0  0  0  3  0  0  0  0  0  0
  -21.1540   -5.9710   24.9840 C   0  0  0  0  0  3  0  0  0  0  0  0
  -21.4680   -4.6010   24.9110 C   0  0  0  0  0  0  0  0  0  0  0  0
  -21.8690   -4.0340   23.6880 C   0  0  0  0  0  3  0  0  0  0  0  0
  -21.9530   -4.8360   22.5370 C   0  0  0  0  0  0  0  0  0  0  0  0
  -22.3190   -4.2800   21.3570 F   0  0  0  0  0  0  0  0  0  0  0  0
  -21.3820   -3.8250   26.0170 F   0  0  0  0  0  0  0  0  0  0  0  0
  -22.6830  -13.5960   21.1230 C   0  0  0  0  0  0  0  0  0  0  0  0
  -21.9910  -12.8830   22.0070 N   0  0  0  0  0  0  0  0  0  0  0  0
  -22.2180  -14.6230   20.6330 O   0  0  0  0  0  0  0  0  0  0  0  0
  -22.3800  -12.0500   22.4230 H   0  0  0  0  0  0  0  0  0  0  0  0
  -21.0610  -13.1740   22.2710 H   0  0  0  0  0  0  0  0  0  0  0  0
  -25.2690  -15.2860   20.2100 N   0  0  0  0  0  0  0  0  0  0  0  0
  -24.5060  -15.9360   20.3580 H   0  0  0  0  0  0  0  0  0  0  0  0
  -26.1020  -15.7290   19.8480 H   0  0  0  0  0  0  0  0  0  0  0  0
  -29.6070  -23.0480   20.4870 C   0  0  0  0  0  2  0  0  0  0  0  0
  -30.2300  -24.3940   20.3990 N   0  0  0  0  0  4  0  0  0  0  0  0
  -31.2290  -24.2720   20.4420 H   0  0  0  0  0  0  0  0  0  0  0  0
  -29.9650  -24.9300   21.2130 H   0  0  0  0  0  0  0  0  0  0  0  0
  -30.9540  -26.2890   18.9330 C   0  0  0  0  0  1  0  0  0  0  0  0
  -29.9150  -25.1760   19.1730 C   0  0  0  0  0  3  0  0  0  0  0  0
  -28.4700  -25.7250   19.1820 C   0  0  0  0  0  2  0  0  0  0  0  0
  -28.3450  -26.8180   20.0960 O   0  0  0  0  0  0  0  0  0  0  0  0
  -24.5460  -31.9580   23.2360 C   0  0  0  0  0  0  0  0  0  0  0  0
  -27.1470  -27.5070   20.1200 C   0  0  0  0  0  0  0  0  0  0  0  0
  -23.3140  -30.5530   21.6170 C   0  0  0  0  0  3  0  0  0  0  0  0
  -24.7470  -29.0070   20.1820 C   0  0  0  0  0  0  0  0  0  0  0  0
  -25.8400  -30.9000   21.3890 C   0  0  0  0  0  2  0  0  0  0  0  0
  -25.9110  -29.5270   20.7550 C   0  0  0  0  0  0  0  0  0  0  0  0
  -27.1110  -28.7800   20.7320 C   0  0  0  0  0  3  0  0  0  0  0  0
  -25.9530  -26.9910   19.5580 C   0  0  0  0  0  3  0  0  0  0  0  0
  -24.7590  -27.7340   19.5890 C   0  0  0  0  0  3  0  0  0  0  0  0
  -23.5040  -29.8660   20.2380 C   0  0  0  0  0  2  0  0  0  0  0  0
  -24.5860  -31.1520   22.1380 N   0  0  0  0  0  0  0  0  0  0  0  0
  -23.4720  -32.2360   23.7870 O   0  0  0  0  0  0  0  0  0  0  0  0
  -22.6720  -29.5370   22.5870 C   0  0  0  0  0  0  0  0  0  0  0  0
  -21.3490  -29.3490   22.4650 N   0  0  0  0  0  0  0  0  0  0  0  0
  -23.3620  -28.9210   23.4050 O   0  0  0  0  0  0  0  0  0  0  0  0
  -20.8550  -29.8960   21.7750 H   0  0  0  0  0  0  0  0  0  0  0  0
  -17.9810  -28.1440   22.9730 C   0  0  0  0  0  0  0  0  0  0  0  0
  -20.5360  -28.4150   23.2460 C   0  0  0  0  0  3  0  0  0  0  0  0
  -20.6470  -26.9780   22.6840 C   0  0  0  0  0  2  0  0  0  0  0  0
  -19.5470  -26.6400   21.6720 C   0  0  0  0  0  2  0  0  0  0  0  0
  -18.1640  -26.7890   22.3130 C   0  0  0  0  0  2  0  0  0  0  0  0
  -19.0950  -28.9150   23.3960 C   0  0  0  0  0  0  0  0  0  0  0  0
  -18.8710  -30.1850   23.9700 C   0  0  0  0  0  3  0  0  0  0  0  0
  -17.5640  -30.6830   24.1280 C   0  0  0  0  0  3  0  0  0  0  0  0
  -16.4630  -29.9090   23.7250 C   0  0  0  0  0  3  0  0  0  0  0  0
  -16.6720  -28.6410   23.1520 C   0  0  0  0  0  3  0  0  0  0  0  0
  -25.8410  -32.5860   23.8370 C   0  0  0  0  0  3  0  0  0  0  0  0
  -26.3750  -31.8150   25.1070 C   0  0  1  0  0  0  0  0  0  0  0  0
  -25.2950  -31.5820   26.1890 C   0  0  0  0  0  1  0  0  0  0  0  0
  -26.9490  -30.4360   24.7090 C   0  0  0  0  0  1  0  0  0  0  0  0
  -27.5330  -32.6110   25.7540 C   0  0  0  0  0  1  0  0  0  0  0  0
  -25.5420  -33.9850   24.1660 N   0  0  0  0  0  0  0  0  0  0  0  0
  -25.8780  -35.0360   23.4050 C   0  0  0  0  0  0  0  0  0  0  0  0
  -26.5460  -34.9260   22.3730 O   0  0  0  0  0  0  0  0  0  0  0  0
  -24.9470  -34.1440   24.9650 H   0  0  0  0  0  0  0  0  0  0  0  0
  -24.1630  -36.8390   23.0410 C   0  0  0  0  0  1  0  0  0  0  0  0
  -25.3970  -36.4260   23.8600 C   0  0  0  0  0  3  0  0  0  0  0  0
  -27.5360  -37.2920   24.6990 C   0  0  0  0  0  1  0  0  0  0  0  0
  -26.4380  -37.4720   23.7530 N   0  0  0  0  0  0  0  0  0  0  0  0
  -26.0370  -38.3950   23.9030 H   0  0  0  0  0  0  0  0  0  0  0  0
  1  2  1  0
  3  4  1  0
  3  5  1  0
  4 49  1  0
  4  1  1  0
  5  6  1  6
  5 19  1  0
  5  2  1  0
  7 20  1  0
  8 13  1  0
  9 10  1  0
  9  8  1  0
 11 10  1  0
 11 24  1  0
 11 12  1  0
 13  7  1  0
 13 12  1  0
 14  7  2  0
 15 17  1  0
 16 18  1  0
 18 20  1  0
 19 16  1  0
 19 15  1  0
 20 17  1  0
 21 22  2  0
 22 41  1  0
 23 22  1  0
 23 26  1  0
 24 25  1  0
 24 21  1  0
 25 23  2  0
 26 27  1  0
 27 28  2  0
 29 32  1  0
 29 28  1  0
 30 29  2  0
 31 30  1  0
 31 26  2  0
 32 33  1  0
 33 34  1  0
 34 35  2  0
 36 35  1  0
 36 40  1  0
 37 36  2  0
 38 33  2  0
 38 37  1  0
 39 38  1  0
 41 42  1  0
 42 45  1  0
 42 44  1  0
 43 41  2  0
 46 47  1  0
 46 21  1  0
 48 46  1  0
 50 51  1  0
 50 49  1  0
 50 52  1  0
 54 53  1  0
 54 55  1  0
 54 50  1  0
 55 56  1  0
 56 58  1  0
 57 68  2  0
 58 63  1  0
 59 67  1  0
 59 69  1  0
 60 66  1  0
 60 62  1  0
 61 67  1  0
 62 61  1  0
 63 62  2  0
 64 65  1  0
 64 58  2  0
 65 60  2  0
 66 59  1  0
 67 57  1  0
 69 71  2  0
 70 69  1  0
 72 70  1  0
 73 82  2  0
 73 78  1  0
 74 70  1  0
 74 78  1  0
 75 74  1  0
 76 77  1  0
 76 75  1  0
 77 73  1  0
 78 79  2  0
 79 80  1  0
 81 80  2  0
 82 81  1  0
 83 57  1  0
 83 88  1  0
 83 84  1  0
 84 87  1  1
 84 85  1  0
 86 84  1  0
 88 91  1  0
 89 93  1  0
 89 88  1  0
 90 89  2  0
 93 92  1  0
 95 93  1  0
 95 96  1  0
 95 94  1  0
M  ISO  4   7 100  20 100  55 101  56 101
M  END
>  <TORSDO>  (83) 
F 20

>  <SCORE>  (83) 
-13.109

>  <name>  (83) 
82

>  <ligand_id>  (83) 
82

>  <original_smiles>  (83) 
[H]c1c([H])c([H])c2c(c1[H])C([H])([H])C([H])([H])C([H])([H])C2([H])N([H])C(=O)C1([H])N(C(=O)C([H])(N([H])C(=O)C([H])(N([H])C([H])([H])[H])C([H])([H])[H])C(C([H])([H])[H])(C([H])([H])[H])C([H])([H])[H])C([H])([H])c2c([H])c(OC([H])([H])C([H])(C([H])([H])[H])[N+]([H])([H])C([H])([H])C3([H])C([H])([H])C([H])([H])[N+]([H])(C4([H])C([H])([H])C([H])([H])N(C(=O)N5C([H])([H])C([H])([H])C([H])([H])C([H])(n6nc(-c7c([H])c([H])c(Oc8c([H])c([H])c(F)c([H])c8F)c([H])c7[H])c(C(=O)N([H])[H])c6N([H])[H])C5([H])[H])C([H])([H])C4([H])[H])C3([H])[H])c([H])c([H])c2C1([H])[H]

>  <smiles>  (83) 
[H]c1c([H])c([H])c2c(c1[H])C([H])([H])C([H])([H])C([H])([H])C2([H])N([H])C(=O)C1([H])N(C(=O)C([H])(N([H])C(=O)C([H])(N([H])C([H])([H])[H])C([H])([H])[H])C(C([H])([H])[H])(C([H])([H])[H])C([H])([H])[H])C([H])([H])c2c([H])c(OC([H])([H])C([H])(C([H])([H])[H])[N+]([H])([H])C([H])([H])C3([H])C([H])([H])C([H])([H])[N+]([H])(C4([H])C([H])([H])C([H])([H])N(C(=O)N5C([H])([H])C([H])([H])C([H])([H])C([H])(n6nc(-c7c([H])c([H])c(Oc8c([H])c([H])c(F)c([H])c8F)c([H])c7[H])c(C(=O)N([H])[H])c6N([H])[H])C5([H])[H])C([H])([H])C4([H])[H])C3([H])[H])c([H])c([H])c2C1([H])[H]

$$$$
83:0:0
     RDKit          3D

 98107  0  0  1  0  0  0  0  0999 V2000
  -30.8690  -21.7120   18.9150 C   0  0  0  0  0  3  0  0  0  0  0  0
  -32.1670  -19.4720   19.9950 C   0  0  0  0  0  3  0  0  0  0  0  0
  -32.2240  -21.4820   18.6110 C   0  0  0  0  0  0  0  0  0  0  0  0
  -32.8870  -20.3680   19.1780 C   0  0  0  0  0  0  0  0  0  0  0  0
  -30.1500  -20.8260   19.7450 C   0  0  0  0  0  0  0  0  0  0  0  0
  -30.7980  -19.6850   20.2700 C   0  0  0  0  0  0  0  0  0  0  0  0
  -32.9390  -22.4470   17.6790 C   0  0  0  0  0  1  0  0  0  0  0  0
  -34.3650  -20.1260   18.9180 C   0  0  0  0  0  1  0  0  0  0  0  0
  -28.7950  -21.0070   20.0590 N   0  0  0  0  0  0  0  0  0  0  0  0
  -28.4320  -20.2790   20.6690 H   0  0  0  0  0  0  0  0  0  0  0  0
  -27.8720  -23.0860   18.9520 C   0  0  0  0  0  2  0  0  0  0  0  0
  -28.8980  -23.1290   21.4330 C   0  0  0  0  0  2  0  0  0  0  0  0
  -28.2930  -24.5640   18.8780 C   0  0  0  0  0  2  0  0  0  0  0  0
  -29.2390  -24.6060   21.1510 C   0  0  0  0  0  2  0  0  0  0  0  0
  -28.2270  -22.3370   20.2680 C   0  0  0  0  0  3  0  0  0  0  0  0
  -28.1810  -25.2440   20.2510 C   0  0  0  0  0  3  0  0  0  0  0  0
  -28.3550  -26.6690   20.1800 O   0  0  0  0  0  0  0  0  0  0  0  0
  -24.5850  -31.8750   23.2550 C   0  0  0  0  0  0  0  0  0  0  0  0
  -27.1940  -27.4200   20.1590 C   0  0  0  0  0  0  0  0  0  0  0  0
  -23.3700  -30.4800   21.6160 C   0  0  0  0  0  3  0  0  0  0  0  0
  -24.8110  -28.9470   20.1860 C   0  0  0  0  0  0  0  0  0  0  0  0
  -25.9000  -30.8270   21.4160 C   0  0  0  0  0  2  0  0  0  0  0  0
  -25.9770  -29.4590   20.7700 C   0  0  0  0  0  0  0  0  0  0  0  0
  -27.1740  -28.7040   20.7500 C   0  0  0  0  0  3  0  0  0  0  0  0
  -26.0070  -26.9310   19.5670 C   0  0  0  0  0  3  0  0  0  0  0  0
  -24.8210  -27.6820   19.5800 C   0  0  0  0  0  3  0  0  0  0  0  0
  -23.5730  -29.8070   20.2340 C   0  0  0  0  0  2  0  0  0  0  0  0
  -24.6370  -31.0740   22.1540 N   0  0  0  0  0  0  0  0  0  0  0  0
  -23.5060  -32.1520   23.7950 O   0  0  0  0  0  0  0  0  0  0  0  0
  -22.7200  -29.4560   22.5740 C   0  0  0  0  0  0  0  0  0  0  0  0
  -21.3960  -29.2740   22.4440 N   0  0  0  0  0  0  0  0  0  0  0  0
  -23.4020  -28.8320   23.3910 O   0  0  0  0  0  0  0  0  0  0  0  0
  -20.9080  -29.8330   21.7570 H   0  0  0  0  0  0  0  0  0  0  0  0
  -18.0210  -28.0800   22.9310 C   0  0  0  0  0  0  0  0  0  0  0  0
  -20.5760  -28.3380   23.2140 C   0  0  0  0  0  3  0  0  0  0  0  0
  -20.6820  -26.9070   22.6420 C   0  0  0  0  0  2  0  0  0  0  0  0
  -19.5850  -26.5800   21.6230 C   0  0  0  0  0  2  0  0  0  0  0  0
  -18.2010  -26.7280   22.2610 C   0  0  0  0  0  2  0  0  0  0  0  0
  -19.1380  -28.8420   23.3640 C   0  0  0  0  0  0  0  0  0  0  0  0
  -18.9180  -30.1080   23.9500 C   0  0  0  0  0  3  0  0  0  0  0  0
  -17.6130  -30.6130   24.1040 C   0  0  0  0  0  3  0  0  0  0  0  0
  -16.5100  -29.8460   23.6900 C   0  0  0  0  0  3  0  0  0  0  0  0
  -16.7150  -28.5810   23.1110 C   0  0  0  0  0  3  0  0  0  0  0  0
  -25.8760  -32.4990   23.8720 C   0  0  0  0  0  3  0  0  0  0  0  0
  -25.5760  -33.8990   24.2010 N   0  0  0  0  0  0  0  0  0  0  0  0
  -25.9070  -34.9460   23.4350 C   0  0  0  0  0  0  0  0  0  0  0  0
  -26.5710  -34.8380   22.4000 O   0  0  0  0  0  0  0  0  0  0  0  0
  -24.9910  -34.0580   25.0080 H   0  0  0  0  0  0  0  0  0  0  0  0
  -24.1830  -36.7410   23.0800 C   0  0  0  0  0  1  0  0  0  0  0  0
  -25.4250  -36.3370   23.8890 C   0  0  0  0  0  3  0  0  0  0  0  0
  -27.5660  -37.2170   24.7100 C   0  0  0  0  0  1  0  0  0  0  0  0
  -26.4610  -37.3850   23.7710 N   0  0  0  0  0  0  0  0  0  0  0  0
  -26.0570  -38.3070   23.9150 H   0  0  0  0  0  0  0  0  0  0  0  0
  -26.3940  -31.7250   25.1460 C   0  0  1  0  0  0  0  0  0  0  0  0
  -25.3030  -31.4940   26.2180 C   0  0  0  0  0  1  0  0  0  0  0  0
  -26.9680  -30.3440   24.7500 C   0  0  0  0  0  1  0  0  0  0  0  0
  -27.5490  -32.5140   25.8070 C   0  0  0  0  0  1  0  0  0  0  0  0
  -30.0800  -18.8270   21.0690 O   0  0  0  0  0  0  0  0  0  0  0  0
  -30.0560  -17.4630   20.6550 C   0  0  0  0  0  2  0  0  0  0  0  0
  -30.6080  -16.5340   21.7510 C   0  0  0  0  0  2  0  0  0  0  0  0
  -30.7330  -14.3600   20.5360 C   0  0  0  0  0  0  0  0  0  0  0  0
  -30.3710  -12.3190   19.2090 C   0  0  0  0  0  2  0  0  0  0  0  0
  -29.4040  -12.5870   18.0390 C   0  0  0  0  0  2  0  0  0  0  0  0
  -27.9410  -12.4300   18.4930 C   0  0  0  0  0  2  0  0  0  0  0  0
  -27.6330  -13.2260   19.7870 C   0  0  0  0  0  3  0  0  0  0  0  0
  -28.6910  -12.9220   20.8690 C   0  0  0  0  0  2  0  0  0  0  0  0
  -30.0260  -13.2250   20.3130 N   0  0  0  0  0  0  0  0  0  0  0  0
  -31.7400  -14.6810   19.9010 O   0  0  0  0  0  0  0  0  0  0  0  0
  -30.2350  -15.1450   21.4950 N   0  0  0  0  0  0  0  0  0  0  0  0
  -29.4410  -14.7810   22.0020 H   0  0  0  0  0  0  0  0  0  0  0  0
  -25.2320  -13.8390   20.5000 C   0  0  0  0  0  0  0  0  0  0  0  0
  -24.1660  -13.0680   20.8790 C   0  0  0  0  0  0  0  0  0  0  0  0
  -24.6290  -11.7160   20.8520 C   0  0  0  0  0  0  0  0  0  0  0  0
  -26.2770  -12.9570   20.2670 N   0  0  0  0  0  0  0  0  0  0  0  0
  -25.9150  -11.6750   20.5340 N   0  0  0  0  0  0  0  0  0  0  0  0
  -23.9070  -10.4540   21.0530 C   0  0  0  0  0  0  0  0  0  0  0  0
  -24.3610   -9.4810   21.9720 C   0  0  0  0  0  3  0  0  0  0  0  0
  -23.6370   -8.2830   22.1590 C   0  0  0  0  0  3  0  0  0  0  0  0
  -22.4490   -8.0510   21.4290 C   0  0  0  0  0  0  0  0  0  0  0  0
  -22.0160   -9.0120   20.4990 C   0  0  0  0  0  3  0  0  0  0  0  0
  -22.7390  -10.2010   20.3080 C   0  0  0  0  0  3  0  0  0  0  0  0
  -21.6960   -6.9050   21.5260 O   0  0  0  0  0  0  0  0  0  0  0  0
  -21.6880   -6.1450   22.6680 C   0  0  0  0  0  0  0  0  0  0  0  0
  -21.3140   -6.6830   23.9180 C   0  0  0  0  0  3  0  0  0  0  0  0
  -21.2480   -5.8500   25.0530 C   0  0  0  0  0  3  0  0  0  0  0  0
  -21.5500   -4.4790   24.9390 C   0  0  0  0  0  0  0  0  0  0  0  0
  -21.9180   -3.9410   23.6940 C   0  0  0  0  0  3  0  0  0  0  0  0
  -21.9840   -4.7710   22.5610 C   0  0  0  0  0  0  0  0  0  0  0  0
  -22.3190   -4.2420   21.3600 F   0  0  0  0  0  0  0  0  0  0  0  0
  -21.4810   -3.6760   26.0270 F   0  0  0  0  0  0  0  0  0  0  0  0
  -22.7710  -13.5460   21.1610 C   0  0  0  0  0  0  0  0  0  0  0  0
  -22.0500  -12.8530   22.0360 N   0  0  0  0  0  0  0  0  0  0  0  0
  -22.3280  -14.5690   20.6430 O   0  0  0  0  0  0  0  0  0  0  0  0
  -22.4210  -12.0290   22.4830 H   0  0  0  0  0  0  0  0  0  0  0  0
  -21.1160  -13.1610   22.2680 H   0  0  0  0  0  0  0  0  0  0  0  0
  -25.3930  -15.2090   20.3190 N   0  0  0  0  0  0  0  0  0  0  0  0
  -24.6230  -15.8600   20.4340 H   0  0  0  0  0  0  0  0  0  0  0  0
  -26.2450  -15.6540   20.0010 H   0  0  0  0  0  0  0  0  0  0  0  0
  1  5  1  0
  2  6  1  0
  3  1  2  0
  3  4  1  0
  4  2  2  0
  5  9  1  0
  5  6  2  0
  6 58  1  0
  7  3  1  0
  8  4  1  0
  9 10  1  0
 11 15  1  0
 13 11  1  0
 13 16  1  0
 14 12  1  0
 15  9  1  0
 15 12  1  0
 16 17  1  0
 16 14  1  0
 18 29  2  0
 19 17  1  0
 19 24  1  0
 20 28  1  0
 20 30  1  0
 21 27  1  0
 21 23  1  0
 22 28  1  0
 23 22  1  0
 24 23  2  0
 25 26  1  0
 25 19  2  0
 26 21  2  0
 27 20  1  0
 28 18  1  0
 30 32  2  0
 31 30  1  0
 33 31  1  0
 34 43  2  0
 34 39  1  0
 35 31  1  0
 35 39  1  0
 36 35  1  0
 37 38  1  0
 37 36  1  0
 38 34  1  0
 39 40  2  0
 40 41  1  0
 42 41  2  0
 43 42  1  0
 44 18  1  0
 44 45  1  0
 44 54  1  0
 45 48  1  0
 46 50  1  0
 46 45  1  0
 47 46  2  0
 50 49  1  0
 52 50  1  0
 52 53  1  0
 52 51  1  0
 54 57  1  1
 54 55  1  0
 56 54  1  0
 59 58  1  0
 59 60  1  0
 61 69  1  0
 62 67  1  0
 63 64  1  0
 63 62  1  0
 65 64  1  0
 65 74  1  0
 65 66  1  0
 67 61  1  0
 67 66  1  0
 68 61  2  0
 69 60  1  0
 69 70  1  0
 71 72  2  0
 72 91  1  0
 73 72  1  0
 73 76  1  0
 74 71  1  0
 74 75  1  0
 75 73  2  0
 76 77  1  0
 77 78  2  0
 79 82  1  0
 79 78  1  0
 80 79  2  0
 81 80  1  0
 81 76  2  0
 82 83  1  0
 83 84  1  0
 84 85  2  0
 86 85  1  0
 86 90  1  0
 87 86  2  0
 88 83  2  0
 88 87  1  0
 89 88  1  0
 91 92  1  0
 92 95  1  0
 92 94  1  0
 93 91  2  0
 96 97  1  0
 96 71  1  0
 98 96  1  0
M  ISO  4  16 101  17 101  61 100  69 100
M  END
>  <TORSDO>  (84) 
F 21

>  <SCORE>  (84) 
-13.783

>  <name>  (84) 
83

>  <ligand_id>  (84) 
83

>  <original_smiles>  (84) 
[H]c1c([H])c([H])c2c(c1[H])C([H])([H])C([H])([H])C([H])([H])C2([H])N([H])C(=O)C1([H])N(C(=O)C([H])(N([H])C(=O)C([H])(N([H])C([H])([H])[H])C([H])([H])[H])C(C([H])([H])[H])(C([H])([H])[H])C([H])([H])[H])C([H])([H])c2c([H])c(OC3([H])C([H])([H])C([H])([H])C([H])(N([H])c4c([H])c(C([H])([H])[H])c(C([H])([H])[H])c([H])c4OC([H])([H])C([H])([H])N([H])C(=O)N4C([H])([H])C([H])([H])C([H])([H])C([H])(n5nc(-c6c([H])c([H])c(Oc7c([H])c([H])c(F)c([H])c7F)c([H])c6[H])c(C(=O)N([H])[H])c5N([H])[H])C4([H])[H])C([H])([H])C3([H])[H])c([H])c([H])c2C1([H])[H]

>  <smiles>  (84) 
[H]c1c([H])c([H])c2c(c1[H])C([H])([H])C([H])([H])C([H])([H])C2([H])N([H])C(=O)C1([H])N(C(=O)C([H])(N([H])C(=O)C([H])(N([H])C([H])([H])[H])C([H])([H])[H])C(C([H])([H])[H])(C([H])([H])[H])C([H])([H])[H])C([H])([H])c2c([H])c(OC3([H])C([H])([H])C([H])([H])C([H])(N([H])c4c([H])c(C([H])([H])[H])c(C([H])([H])[H])c([H])c4OC([H])([H])C([H])([H])N([H])C(=O)N4C([H])([H])C([H])([H])C([H])([H])C([H])(n5nc(-c6c([H])c([H])c(Oc7c([H])c([H])c(F)c([H])c7F)c([H])c6[H])c(C(=O)N([H])[H])c5N([H])[H])C4([H])[H])C([H])([H])C3([H])[H])c([H])c([H])c2C1([H])[H]

$$$$
84:0:0
     RDKit          3D

 99108  0  0  1  0  0  0  0  0999 V2000
  -30.4180  -22.4500   21.6660 C   0  0  0  0  0  2  0  0  0  0  0  0
  -27.9470  -21.9140   20.9890 C   0  0  0  0  0  2  0  0  0  0  0  0
  -29.8410  -23.5710   22.5310 C   0  0  0  0  0  2  0  0  0  0  0  0
  -27.5470  -23.1220   21.8660 C   0  0  0  0  0  2  0  0  0  0  0  0
  -29.3510  -21.3670   21.3780 C   0  0  0  0  0  3  0  0  0  0  0  0
  -28.6430  -24.1200   21.8540 N   0  0  1  0  0  4  0  0  0  0  0  0
  -28.8860  -24.2430   20.8820 H   0  0  0  0  0  0  0  0  0  0  0  0
  -30.8530  -19.4990   18.3350 C   0  0  0  0  0  3  0  0  0  0  0  0
  -29.9310  -20.2520   20.4790 C   0  0  0  0  0  0  0  0  0  0  0  0
  -30.1860  -20.4750   19.0930 C   0  0  0  0  0  0  0  0  0  0  0  0
  -30.3550  -19.0140   21.0620 C   0  0  0  0  0  0  0  0  0  0  0  0
  -31.1310  -18.0850   20.3050 C   0  0  0  0  0  0  0  0  0  0  0  0
  -31.3780  -18.3410   18.9350 C   0  0  0  0  0  0  0  0  0  0  0  0
  -29.8820  -21.7650   18.3350 C   0  0  0  0  0  1  0  0  0  0  0  0
  -30.0340  -18.7180   22.5260 C   0  0  0  0  0  1  0  0  0  0  0  0
  -32.1220  -17.4030   16.8390 C   0  0  0  0  0  1  0  0  0  0  0  0
  -32.2100  -17.4830   18.2540 O   0  0  0  0  0  0  0  0  0  0  0  0
  -31.7890  -16.8430   20.9350 C   0  0  0  0  0  2  0  0  0  0  0  0
  -31.5000  -14.5330   20.0630 C   0  0  0  0  0  0  0  0  0  0  0  0
  -31.0120  -12.3450   19.0490 C   0  0  0  0  0  2  0  0  0  0  0  0
  -30.0740  -12.5050   17.8390 C   0  0  0  0  0  2  0  0  0  0  0  0
  -28.6050  -12.4560   18.2950 C   0  0  0  0  0  2  0  0  0  0  0  0
  -28.3160  -13.4110   19.4870 C   0  0  0  0  0  3  0  0  0  0  0  0
  -29.3760  -13.2530   20.6010 C   0  0  0  0  0  2  0  0  0  0  0  0
  -30.7080  -13.4290   19.9990 N   0  0  0  0  0  0  0  0  0  0  0  0
  -32.5880  -14.5850   19.4830 O   0  0  0  0  0  0  0  0  0  0  0  0
  -31.0450  -15.5830   20.7640 N   0  0  0  0  0  0  0  0  0  0  0  0
  -30.1470  -15.5000   21.2180 H   0  0  0  0  0  0  0  0  0  0  0  0
  -25.9880  -14.1700   20.2820 C   0  0  0  0  0  0  0  0  0  0  0  0
  -24.8800  -13.4690   20.6650 C   0  0  0  0  0  0  0  0  0  0  0  0
  -25.2360  -12.0880   20.5880 C   0  0  0  0  0  0  0  0  0  0  0  0
  -26.9600  -13.2220   19.9980 N   0  0  0  0  0  0  0  0  0  0  0  0
  -26.5110  -11.9640   20.2380 N   0  0  0  0  0  0  0  0  0  0  0  0
  -24.4260  -10.8790   20.7750 C   0  0  0  0  0  0  0  0  0  0  0  0
  -24.7840   -9.8860   21.7150 C   0  0  0  0  0  3  0  0  0  0  0  0
  -23.9770   -8.7410   21.8890 C   0  0  0  0  0  3  0  0  0  0  0  0
  -22.7990   -8.5800   21.1230 C   0  0  0  0  0  0  0  0  0  0  0  0
  -22.4590   -9.5590   20.1730 C   0  0  0  0  0  3  0  0  0  0  0  0
  -23.2660  -10.6960   19.9970 C   0  0  0  0  0  3  0  0  0  0  0  0
  -21.9680   -7.4880   21.2060 O   0  0  0  0  0  0  0  0  0  0  0  0
  -21.7990   -6.8010   22.3790 C   0  0  0  0  0  0  0  0  0  0  0  0
  -21.3180   -7.4290   23.5490 C   0  0  0  0  0  3  0  0  0  0  0  0
  -21.0930   -6.6700   24.7150 C   0  0  0  0  0  3  0  0  0  0  0  0
  -21.3350   -5.2840   24.7110 C   0  0  0  0  0  0  0  0  0  0  0  0
  -21.8080   -4.6540   23.5450 C   0  0  0  0  0  3  0  0  0  0  0  0
  -22.0350   -5.4100   22.3830 C   0  0  0  0  0  0  0  0  0  0  0  0
  -22.4710   -4.7960   21.2560 F   0  0  0  0  0  0  0  0  0  0  0  0
  -21.1120   -4.5520   25.8280 F   0  0  0  0  0  0  0  0  0  0  0  0
  -23.5300  -14.0410   20.9970 C   0  0  0  0  0  0  0  0  0  0  0  0
  -22.7880  -13.3860   21.8850 N   0  0  0  0  0  0  0  0  0  0  0  0
  -23.1460  -15.1000   20.5050 O   0  0  0  0  0  0  0  0  0  0  0  0
  -23.1110  -12.5270   22.3040 H   0  0  0  0  0  0  0  0  0  0  0  0
  -21.8830  -13.7520   22.1490 H   0  0  0  0  0  0  0  0  0  0  0  0
  -26.2440  -15.5300   20.1320 N   0  0  0  0  0  0  0  0  0  0  0  0
  -25.5270  -16.2300   20.2910 H   0  0  0  0  0  0  0  0  0  0  0  0
  -27.1180  -15.9250   19.8060 H   0  0  0  0  0  0  0  0  0  0  0  0
  -28.2740  -25.4770   22.3200 C   0  0  0  0  0  2  0  0  0  0  0  0
  -29.0760  -26.5440   21.5290 C   0  0  0  0  0  2  0  0  0  0  0  0
  -28.5110  -26.7750   20.2360 O   0  0  0  0  0  0  0  0  0  0  0  0
  -24.6190  -31.9140   23.2310 C   0  0  0  0  0  0  0  0  0  0  0  0
  -27.3670  -27.5340   20.2130 C   0  0  0  0  0  0  0  0  0  0  0  0
  -23.4490  -30.4870   21.5810 C   0  0  0  0  0  3  0  0  0  0  0  0
  -24.9380  -28.9700   20.1760 C   0  0  0  0  0  0  0  0  0  0  0  0
  -25.9590  -30.9060   21.3910 C   0  0  0  0  0  2  0  0  0  0  0  0
  -26.0740  -29.5310   20.7710 C   0  0  0  0  0  0  0  0  0  0  0  0
  -27.2880  -28.8210   20.7920 C   0  0  0  0  0  3  0  0  0  0  0  0
  -26.2290  -26.9930   19.5880 C   0  0  0  0  0  3  0  0  0  0  0  0
  -25.0110  -27.6970   19.5770 C   0  0  0  0  0  3  0  0  0  0  0  0
  -23.6760  -29.7990   20.2070 C   0  0  0  0  0  2  0  0  0  0  0  0
  -24.6930  -31.1140   22.1290 N   0  0  0  0  0  0  0  0  0  0  0  0
  -23.5300  -32.1700   23.7620 O   0  0  0  0  0  0  0  0  0  0  0  0
  -22.8050  -29.4650   22.5460 C   0  0  0  0  0  0  0  0  0  0  0  0
  -21.4840  -29.2740   22.4170 N   0  0  0  0  0  0  0  0  0  0  0  0
  -23.4920  -28.8450   23.3610 O   0  0  0  0  0  0  0  0  0  0  0  0
  -20.9930  -29.8320   21.7310 H   0  0  0  0  0  0  0  0  0  0  0  0
  -18.1050  -28.0950   22.9170 C   0  0  0  0  0  0  0  0  0  0  0  0
  -20.6670  -28.3320   23.1810 C   0  0  0  0  0  3  0  0  0  0  0  0
  -20.7560  -26.9080   22.5830 C   0  0  0  0  0  2  0  0  0  0  0  0
  -19.6450  -26.6060   21.5750 C   0  0  0  0  0  2  0  0  0  0  0  0
  -18.2680  -26.7530   22.2270 C   0  0  0  0  0  2  0  0  0  0  0  0
  -19.2310  -28.8440   23.3500 C   0  0  0  0  0  0  0  0  0  0  0  0
  -19.0250  -30.1020   23.9550 C   0  0  0  0  0  3  0  0  0  0  0  0
  -17.7250  -30.6100   24.1350 C   0  0  0  0  0  3  0  0  0  0  0  0
  -16.6120  -29.8550   23.7230 C   0  0  0  0  0  3  0  0  0  0  0  0
  -16.8040  -28.6010   23.1160 C   0  0  0  0  0  3  0  0  0  0  0  0
  -25.8900  -32.5640   23.8630 C   0  0  0  0  0  3  0  0  0  0  0  0
  -25.5640  -33.9580   24.1900 N   0  0  0  0  0  0  0  0  0  0  0  0
  -25.8960  -35.0100   23.4310 C   0  0  0  0  0  0  0  0  0  0  0  0
  -26.5790  -34.9110   22.4070 O   0  0  0  0  0  0  0  0  0  0  0  0
  -24.9660  -34.1070   24.9880 H   0  0  0  0  0  0  0  0  0  0  0  0
  -24.1510  -36.7760   23.0450 C   0  0  0  0  0  1  0  0  0  0  0  0
  -25.3840  -36.3940   23.8790 C   0  0  0  0  0  3  0  0  0  0  0  0
  -27.4930  -37.3060   24.7360 C   0  0  0  0  0  1  0  0  0  0  0  0
  -26.4050  -37.4580   23.7760 N   0  0  0  0  0  0  0  0  0  0  0  0
  -25.9890  -38.3740   23.9070 H   0  0  0  0  0  0  0  0  0  0  0  0
  -26.4090  -31.7960   25.1410 C   0  0  1  0  0  0  0  0  0  0  0  0
  -25.3070  -31.5240   26.1930 C   0  0  0  0  0  1  0  0  0  0  0  0
  -27.0320  -30.4390   24.7400 C   0  0  0  0  0  1  0  0  0  0  0  0
  -27.5320  -32.6110   25.8230 C   0  0  0  0  0  1  0  0  0  0  0  0
  1  3  1  0
  2  5  1  0
  2  4  1  0
  5  9  1  0
  5  1  1  0
  6  4  1  0
  6 57  1  0
  6  3  1  0
  6  7  1  6
  8 13  2  0
  8 10  1  0
  9 11  1  0
 10  9  2  0
 11 15  1  0
 12 18  1  0
 12 11  2  0
 13 12  1  0
 14 10  1  0
 16 17  1  0
 17 13  1  0
 19 27  1  0
 20 25  1  0
 21 22  1  0
 21 20  1  0
 23 22  1  0
 23 32  1  0
 23 24  1  0
 25 19  1  0
 25 24  1  0
 26 19  2  0
 27 18  1  0
 27 28  1  0
 29 30  2  0
 30 49  1  0
 31 30  1  0
 31 34  1  0
 32 33  1  0
 32 29  1  0
 33 31  2  0
 34 35  1  0
 35 36  2  0
 37 40  1  0
 37 36  1  0
 38 37  2  0
 39 38  1  0
 39 34  2  0
 40 41  1  0
 41 46  2  0
 41 42  1  0
 42 43  2  0
 44 43  1  0
 44 48  1  0
 45 44  2  0
 46 45  1  0
 47 46  1  0
 49 50  1  0
 50 53  1  0
 50 52  1  0
 51 49  2  0
 54 29  1  0
 54 55  1  0
 56 54  1  0
 58 57  1  0
 59 58  1  0
 60 71  2  0
 61 59  1  0
 61 66  1  0
 62 70  1  0
 62 72  1  0
 63 69  1  0
 63 65  1  0
 64 70  1  0
 65 66  2  0
 65 64  1  0
 67 61  2  0
 68 67  1  0
 68 63  2  0
 69 62  1  0
 70 60  1  0
 72 74  2  0
 73 72  1  0
 75 73  1  0
 76 85  2  0
 76 81  1  0
 77 73  1  0
 77 81  1  0
 78 77  1  0
 79 80  1  0
 79 78  1  0
 80 76  1  0
 81 82  2  0
 82 83  1  0
 84 83  2  0
 85 84  1  0
 86 60  1  0
 86 87  1  0
 86 96  1  0
 87 90  1  0
 88 92  1  0
 88 87  1  0
 89 88  2  0
 92 91  1  0
 94 92  1  0
 94 95  1  0
 94 93  1  0
 96 99  1  1
 96 97  1  0
 98 96  1  0
M  ISO  4  19 100  27 100  58 101  59 101
M  END
>  <TORSDO>  (85) 
F 21

>  <SCORE>  (85) 
-12.659

>  <name>  (85) 
84

>  <ligand_id>  (85) 
84

>  <original_smiles>  (85) 
[H]c1c([H])c([H])c2c(c1[H])C([H])([H])C([H])([H])C([H])([H])C2([H])N([H])C(=O)C1([H])N(C(=O)C([H])(N([H])C(=O)C([H])(N([H])C([H])([H])[H])C([H])([H])[H])C(C([H])([H])[H])(C([H])([H])[H])C([H])([H])[H])C([H])([H])c2c([H])c(OC([H])([H])C([H])([H])[N+]3([H])C([H])([H])C([H])([H])C([H])(c4c(C([H])([H])[H])c([H])c(OC([H])([H])[H])c(C([H])([H])N([H])C(=O)N5C([H])([H])C([H])([H])C([H])([H])C([H])(n6nc(-c7c([H])c([H])c(Oc8c([H])c([H])c(F)c([H])c8F)c([H])c7[H])c(C(=O)N([H])[H])c6N([H])[H])C5([H])[H])c4C([H])([H])[H])C([H])([H])C3([H])[H])c([H])c([H])c2C1([H])[H]

>  <smiles>  (85) 
[H]c1c([H])c([H])c2c(c1[H])C([H])([H])C([H])([H])C([H])([H])C2([H])N([H])C(=O)C1([H])N(C(=O)C([H])(N([H])C(=O)C([H])(N([H])C([H])([H])[H])C([H])([H])[H])C(C([H])([H])[H])(C([H])([H])[H])C([H])([H])[H])C([H])([H])c2c([H])c(OC([H])([H])C([H])([H])[N+]3([H])C([H])([H])C([H])([H])C([H])(c4c(C([H])([H])[H])c([H])c(OC([H])([H])[H])c(C([H])([H])N([H])C(=O)N5C([H])([H])C([H])([H])C([H])([H])C([H])(n6nc(-c7c([H])c([H])c(Oc8c([H])c([H])c(F)c([H])c8F)c([H])c7[H])c(C(=O)N([H])[H])c6N([H])[H])C5([H])[H])c4C([H])([H])[H])C([H])([H])C3([H])[H])c([H])c([H])c2C1([H])[H]

$$$$
85:0:0
     RDKit          3D

 96106  0  0  1  0  0  0  0  0999 V2000
  -26.5080  -21.9070   19.6190 C   0  0  0  0  0  3  0  0  0  0  0  0
  -27.7590  -22.0480   20.1930 C   0  0  0  0  0  0  0  0  0  0  0  0
  -28.2660  -20.7090   20.0940 C   0  0  0  0  0  0  0  0  0  0  0  0
  -25.1390  -19.9110   18.7630 C   0  0  0  0  0  1  0  0  0  0  0  0
  -27.4190  -19.8610   19.5230 N   0  0  0  0  0  0  0  0  0  0  0  0
  -26.3190  -20.5830   19.2810 N   0  0  0  0  0  0  0  0  0  0  0  0
  -29.5000  -20.2310   20.5810 N   0  0  0  0  0  0  0  0  0  0  0  0
  -30.0850  -20.8310   21.1520 H   0  0  0  0  0  0  0  0  0  0  0  0
  -31.3460  -14.8210   20.2170 C   0  0  0  0  0  0  0  0  0  0  0  0
  -31.0820  -12.5590   19.2690 C   0  0  0  0  0  2  0  0  0  0  0  0
  -30.1630  -12.6430   18.0370 C   0  0  0  0  0  2  0  0  0  0  0  0
  -28.6810  -12.5240   18.4440 C   0  0  0  0  0  2  0  0  0  0  0  0
  -28.3050  -13.4520   19.6300 C   0  0  0  0  0  3  0  0  0  0  0  0
  -29.3450  -13.3770   20.7740 C   0  0  0  0  0  2  0  0  0  0  0  0
  -30.6700  -13.6390   20.1870 N   0  0  0  0  0  0  0  0  0  0  0  0
  -32.5090  -14.9250   19.8130 O   0  0  0  0  0  0  0  0  0  0  0  0
  -30.7560  -18.2560   21.5920 C   0  0  0  0  0  2  0  0  0  0  0  0
  -30.1000  -18.2030   19.2330 C   0  0  0  0  0  2  0  0  0  0  0  0
  -30.6980  -16.7000   21.7030 C   0  0  0  0  0  2  0  0  0  0  0  0
  -30.0280  -16.6580   19.2430 C   0  0  0  0  0  2  0  0  0  0  0  0
  -29.7100  -18.7710   20.6010 C   0  0  0  0  0  3  0  0  0  0  0  0
  -30.6020  -15.9510   20.4230 N   0  0  0  0  0  0  0  0  0  0  0  0
  -25.9360  -14.1450   20.3300 C   0  0  0  0  0  0  0  0  0  0  0  0
  -24.8350  -13.4050   20.6840 C   0  0  0  0  0  0  0  0  0  0  0  0
  -25.2530  -12.0410   20.6560 C   0  0  0  0  0  0  0  0  0  0  0  0
  -26.9420  -13.2220   20.0980 N   0  0  0  0  0  0  0  0  0  0  0  0
  -26.5410  -11.9560   20.3520 N   0  0  0  0  0  0  0  0  0  0  0  0
  -24.4850  -10.8060   20.8390 C   0  0  0  0  0  0  0  0  0  0  0  0
  -24.7930   -9.9010   21.8760 C   0  0  0  0  0  3  0  0  0  0  0  0
  -24.0310   -8.7230   22.0500 C   0  0  0  0  0  3  0  0  0  0  0  0
  -22.9540   -8.4410   21.1800 C   0  0  0  0  0  0  0  0  0  0  0  0
  -22.6660   -9.3360   20.1340 C   0  0  0  0  0  3  0  0  0  0  0  0
  -23.4250  -10.5030   19.9600 C   0  0  0  0  0  3  0  0  0  0  0  0
  -22.1700   -7.3130   21.2580 O   0  0  0  0  0  0  0  0  0  0  0  0
  -21.8420   -6.7450   22.4610 C   0  0  0  0  0  0  0  0  0  0  0  0
  -21.1530   -7.4650   23.4610 C   0  0  0  0  0  3  0  0  0  0  0  0
  -20.7610   -6.8190   24.6500 C   0  0  0  0  0  3  0  0  0  0  0  0
  -21.0590   -5.4570   24.8460 C   0  0  0  0  0  0  0  0  0  0  0  0
  -21.7410   -4.7380   23.8490 C   0  0  0  0  0  3  0  0  0  0  0  0
  -22.1270   -5.3780   22.6580 C   0  0  0  0  0  0  0  0  0  0  0  0
  -22.7640   -4.6750   21.6910 F   0  0  0  0  0  0  0  0  0  0  0  0
  -20.6810   -4.8340   25.9860 F   0  0  0  0  0  0  0  0  0  0  0  0
  -23.4590  -13.9310   20.9560 C   0  0  0  0  0  0  0  0  0  0  0  0
  -22.7170  -13.2640   21.8340 N   0  0  0  0  0  0  0  0  0  0  0  0
  -23.0450  -14.9620   20.4240 O   0  0  0  0  0  0  0  0  0  0  0  0
  -23.0580  -12.4240   22.2840 H   0  0  0  0  0  0  0  0  0  0  0  0
  -21.7960  -13.6040   22.0620 H   0  0  0  0  0  0  0  0  0  0  0  0
  -26.1580  -15.5050   20.1620 N   0  0  0  0  0  0  0  0  0  0  0  0
  -25.4550  -16.2170   20.3490 H   0  0  0  0  0  0  0  0  0  0  0  0
  -27.0610  -15.9010   19.9180 H   0  0  0  0  0  0  0  0  0  0  0  0
  -27.3130  -24.1180   21.6770 C   0  0  0  0  0  2  0  0  0  0  0  0
  -27.5080  -25.5930   21.3030 C   0  0  0  0  0  2  0  0  0  0  0  0
  -28.9950  -24.3720   19.8740 C   0  0  0  0  0  2  0  0  0  0  0  0
  -28.3530  -23.3190   20.8390 C   0  0  0  0  0  3  0  0  0  0  0  0
  -28.0110  -25.5570   19.8530 C   0  0  0  0  0  3  0  0  0  0  0  0
  -28.4050  -26.8860   19.3460 O   0  0  0  0  0  0  0  0  0  0  0  0
  -24.5700  -31.6070   23.0210 C   0  0  0  0  0  0  0  0  0  0  0  0
  -27.3180  -27.7500   19.3110 C   0  0  0  0  0  0  0  0  0  0  0  0
  -23.3970  -30.3340   21.2540 C   0  0  0  0  0  3  0  0  0  0  0  0
  -24.8790  -29.1330   19.5870 C   0  0  0  0  0  0  0  0  0  0  0  0
  -25.8860  -30.9160   21.0230 C   0  0  0  0  0  2  0  0  0  0  0  0
  -26.0340  -29.6460   20.2020 C   0  0  0  0  0  0  0  0  0  0  0  0
  -27.2640  -28.9490   20.0760 C   0  0  0  0  0  3  0  0  0  0  0  0
  -26.1590  -27.3400   18.6040 C   0  0  0  0  0  3  0  0  0  0  0  0
  -24.9350  -27.9840   18.7910 C   0  0  0  0  0  3  0  0  0  0  0  0
  -23.5860  -29.8760   19.7910 C   0  0  0  0  0  2  0  0  0  0  0  0
  -24.6380  -30.9600   21.8230 N   0  0  0  0  0  0  0  0  0  0  0  0
  -23.5010  -31.7300   23.6260 O   0  0  0  0  0  0  0  0  0  0  0  0
  -22.8630  -29.1520   22.0940 C   0  0  0  0  0  0  0  0  0  0  0  0
  -21.5730  -28.8210   21.9310 N   0  0  0  0  0  0  0  0  0  0  0  0
  -23.5980  -28.5350   22.8670 O   0  0  0  0  0  0  0  0  0  0  0  0
  -21.0720  -29.2730   21.1790 H   0  0  0  0  0  0  0  0  0  0  0  0
  -18.3670  -27.2230   22.2720 C   0  0  0  0  0  0  0  0  0  0  0  0
  -20.8640  -27.7600   22.6550 C   0  0  0  0  0  3  0  0  0  0  0  0
  -21.1470  -26.4000   21.9950 C   0  0  0  0  0  2  0  0  0  0  0  0
  -20.1390  -26.0190   20.9090 C   0  0  0  0  0  2  0  0  0  0  0  0
  -18.7180  -25.9750   21.4760 C   0  0  0  0  0  2  0  0  0  0  0  0
  -19.3730  -28.0660   22.8150 C   0  0  0  0  0  0  0  0  0  0  0  0
  -18.9810  -29.2150   23.5320 C   0  0  0  0  0  3  0  0  0  0  0  0
  -17.6220  -29.5170   23.7220 C   0  0  0  0  0  3  0  0  0  0  0  0
  -16.6310  -28.6870   23.1670 C   0  0  0  0  0  3  0  0  0  0  0  0
  -17.0120  -27.5440   22.4470 C   0  0  0  0  0  3  0  0  0  0  0  0
  -25.8330  -32.2670   23.6610 C   0  0  0  0  0  3  0  0  0  0  0  0
  -25.4650  -33.6240   24.0850 N   0  0  0  0  0  0  0  0  0  0  0  0
  -25.7440  -34.7350   23.3890 C   0  0  0  0  0  0  0  0  0  0  0  0
  -26.4170  -34.7260   22.3580 O   0  0  0  0  0  0  0  0  0  0  0  0
  -24.8680  -33.7100   24.8940 H   0  0  0  0  0  0  0  0  0  0  0  0
  -23.9310  -36.4590   23.1670 C   0  0  0  0  0  1  0  0  0  0  0  0
  -25.1990  -36.0670   23.9410 C   0  0  0  0  0  3  0  0  0  0  0  0
  -27.2950  -37.0020   24.8170 C   0  0  0  0  0  1  0  0  0  0  0  0
  -26.1810  -37.1760   23.8870 N   0  0  0  0  0  0  0  0  0  0  0  0
  -25.7320  -38.0640   24.0980 H   0  0  0  0  0  0  0  0  0  0  0  0
  -26.4190  -31.4420   24.8730 C   0  0  1  0  0  0  0  0  0  0  0  0
  -25.3650  -31.1110   25.9520 C   0  0  0  0  0  1  0  0  0  0  0  0
  -27.0330  -30.1060   24.3870 C   0  0  0  0  0  1  0  0  0  0  0  0
  -27.5610  -32.2350   25.5480 C   0  0  0  0  0  1  0  0  0  0  0  0
  1  2  2  0
  3  2  1  0
  3  7  1  0
  4  6  1  0
  5  3  2  0
  6  5  1  0
  6  1  1  0
  7  8  1  0
  9 22  1  0
 10 15  1  0
 11 12  1  0
 11 10  1  0
 13 12  1  0
 13 26  1  0
 13 14  1  0
 15  9  1  0
 15 14  1  0
 16  9  2  0
 17 19  1  0
 18 20  1  0
 18 21  1  0
 20 22  1  0
 21  7  1  0
 21 17  1  0
 22 19  1  0
 23 24  2  0
 24 43  1  0
 25 24  1  0
 25 28  1  0
 26 23  1  0
 26 27  1  0
 27 25  2  0
 28 29  1  0
 29 30  2  0
 31 34  1  0
 31 30  1  0
 32 31  2  0
 33 32  1  0
 33 28  2  0
 34 35  1  0
 35 40  2  0
 35 36  1  0
 36 37  2  0
 37 38  1  0
 38 42  1  0
 39 38  2  0
 40 39  1  0
 41 40  1  0
 43 44  1  0
 44 47  1  0
 44 46  1  0
 45 43  2  0
 48 23  1  0
 48 49  1  0
 50 48  1  0
 52 51  1  0
 53 54  1  0
 54  2  1  0
 54 51  1  0
 55 56  1  0
 55 53  1  0
 55 52  1  0
 57 68  2  0
 58 56  1  0
 58 63  1  0
 59 67  1  0
 59 69  1  0
 60 66  1  0
 60 62  1  0
 61 67  1  0
 62 61  1  0
 63 62  2  0
 64 65  1  0
 64 58  2  0
 65 60  2  0
 66 59  1  0
 67 57  1  0
 69 71  2  0
 70 69  1  0
 72 70  1  0
 73 82  2  0
 73 78  1  0
 74 70  1  0
 74 78  1  0
 75 74  1  0
 76 77  1  0
 76 75  1  0
 77 73  1  0
 78 79  2  0
 79 80  1  0
 81 80  2  0
 82 81  1  0
 83 57  1  0
 83 84  1  0
 83 93  1  0
 84 87  1  0
 85 89  1  0
 85 84  1  0
 86 85  2  0
 89 88  1  0
 91 89  1  0
 91 92  1  0
 91 90  1  0
 93 96  1  1
 93 94  1  0
 95 93  1  0
M  ISO  4   9 100  22 100  55 101  56 101
M  END
>  <TORSDO>  (86) 
F 17

>  <SCORE>  (86) 
-11.887

>  <name>  (86) 
85

>  <ligand_id>  (86) 
85

>  <original_smiles>  (86) 
[H]c1c([H])c([H])c2c(c1[H])C([H])([H])C([H])([H])C([H])([H])C2([H])N([H])C(=O)C1([H])N(C(=O)C([H])(N([H])C(=O)C([H])(N([H])C([H])([H])[H])C([H])([H])[H])C(C([H])([H])[H])(C([H])([H])[H])C([H])([H])[H])C([H])([H])c2c([H])c(OC3([H])C([H])([H])C([H])([H])C([H])(c4c(N([H])C5([H])C([H])([H])C([H])([H])N(C(=O)N6C([H])([H])C([H])([H])C([H])([H])C([H])(n7nc(-c8c([H])c([H])c(Oc9c([H])c([H])c(F)c([H])c9F)c([H])c8[H])c(C(=O)N([H])[H])c7N([H])[H])C6([H])[H])C([H])([H])C5([H])[H])nn(C([H])([H])[H])c4[H])C3([H])[H])c([H])c([H])c2C1([H])[H]

>  <smiles>  (86) 
[H]c1c([H])c([H])c2c(c1[H])C([H])([H])C([H])([H])C([H])([H])C2([H])N([H])C(=O)C1([H])N(C(=O)C([H])(N([H])C(=O)C([H])(N([H])C([H])([H])[H])C([H])([H])[H])C(C([H])([H])[H])(C([H])([H])[H])C([H])([H])[H])C([H])([H])c2c([H])c(OC3([H])C([H])([H])C([H])([H])C([H])(c4c(N([H])C5([H])C([H])([H])C([H])([H])N(C(=O)N6C([H])([H])C([H])([H])C([H])([H])C([H])(n7nc(-c8c([H])c([H])c(Oc9c([H])c([H])c(F)c([H])c9F)c([H])c8[H])c(C(=O)N([H])[H])c7N([H])[H])C6([H])[H])C([H])([H])C5([H])[H])nn(C([H])([H])[H])c4[H])C3([H])[H])c([H])c([H])c2C1([H])[H]

$$$$
86:0:0
     RDKit          3D

102112  0  0  1  0  0  0  0  0999 V2000
  -30.9740  -22.1620   22.7210 C   0  0  0  0  0  3  0  0  0  0  0  0
  -30.8470  -21.9080   20.3170 C   0  0  0  0  0  3  0  0  0  0  0  0
  -31.0240  -22.7360   21.4420 C   0  0  0  0  0  0  0  0  0  0  0  0
  -30.9180  -19.9140   21.7390 C   0  0  0  0  0  0  0  0  0  0  0  0
  -30.9120  -20.7630   22.8870 C   0  0  0  0  0  0  0  0  0  0  0  0
  -30.7840  -20.4990   20.4550 C   0  0  0  0  0  0  0  0  0  0  0  0
  -30.8280  -20.2280   24.3090 C   0  0  0  0  0  1  0  0  0  0  0  0
  -32.2760  -24.6760   20.2420 C   0  0  0  0  0  2  0  0  0  0  0  0
  -29.9160  -25.0090   21.2500 C   0  0  0  0  0  2  0  0  0  0  0  0
  -31.6880  -25.1020   18.8780 C   0  0  0  0  0  2  0  0  0  0  0  0
  -30.0020  -26.2230   20.3260 C   0  0  0  0  0  2  0  0  0  0  0  0
  -31.2460  -24.2380   21.3170 C   0  0  0  0  0  3  0  0  0  0  0  0
  -30.3400  -25.7120   18.9730 N   0  0  1  0  0  4  0  0  0  0  0  0
  -29.6850  -24.9540   18.8420 H   0  0  0  0  0  0  0  0  0  0  0  0
  -30.0170  -26.6150   17.8470 C   0  0  0  0  0  2  0  0  0  0  0  0
  -28.7960  -27.4590   18.1840 C   0  0  0  0  0  2  0  0  0  0  0  0
  -27.7550  -26.6180   18.7200 O   0  0  0  0  0  0  0  0  0  0  0  0
  -24.8690  -31.4070   23.1130 C   0  0  0  0  0  0  0  0  0  0  0  0
  -26.6590  -27.3370   19.1230 C   0  0  0  0  0  0  0  0  0  0  0  0
  -23.3290  -30.4270   21.4300 C   0  0  0  0  0  3  0  0  0  0  0  0
  -24.4320  -28.9700   19.6580 C   0  0  0  0  0  0  0  0  0  0  0  0
  -25.8370  -30.5590   20.9910 C   0  0  0  0  0  2  0  0  0  0  0  0
  -25.6880  -29.2960   20.1840 C   0  0  0  0  0  0  0  0  0  0  0  0
  -26.7940  -28.4700   19.9480 C   0  0  0  0  0  3  0  0  0  0  0  0
  -25.3870  -26.9850   18.6330 C   0  0  0  0  0  3  0  0  0  0  0  0
  -24.2640  -27.8000   18.8950 C   0  0  0  0  0  3  0  0  0  0  0  0
  -23.3180  -29.9490   19.9520 C   0  0  0  0  0  2  0  0  0  0  0  0
  -24.7030  -30.8050   21.9060 N   0  0  0  0  0  0  0  0  0  0  0  0
  -23.8930  -31.6970   23.8220 O   0  0  0  0  0  0  0  0  0  0  0  0
  -22.6740  -29.3350   22.3020 C   0  0  0  0  0  0  0  0  0  0  0  0
  -21.3340  -29.2630   22.2580 N   0  0  0  0  0  0  0  0  0  0  0  0
  -23.3640  -28.5630   22.9700 O   0  0  0  0  0  0  0  0  0  0  0  0
  -20.8310  -29.9390   21.6970 H   0  0  0  0  0  0  0  0  0  0  0  0
  -17.9360  -28.1930   22.7720 C   0  0  0  0  0  0  0  0  0  0  0  0
  -20.5080  -28.2960   22.9760 C   0  0  0  0  0  3  0  0  0  0  0  0
  -20.5180  -26.9220   22.2690 C   0  0  0  0  0  2  0  0  0  0  0  0
  -19.3760  -26.7600   21.2610 C   0  0  0  0  0  2  0  0  0  0  0  0
  -18.0250  -26.9040   21.9660 C   0  0  0  0  0  2  0  0  0  0  0  0
  -19.1050  -28.8510   23.2360 C   0  0  0  0  0  0  0  0  0  0  0  0
  -18.9720  -30.0640   23.9470 C   0  0  0  0  0  3  0  0  0  0  0  0
  -17.7040  -30.6170   24.2050 C   0  0  0  0  0  3  0  0  0  0  0  0
  -16.5480  -29.9500   23.7600 C   0  0  0  0  0  3  0  0  0  0  0  0
  -16.6650  -28.7430   23.0460 C   0  0  0  0  0  3  0  0  0  0  0  0
  -26.2860  -31.7950   23.6490 C   0  0  0  0  0  3  0  0  0  0  0  0
  -26.1940  -33.1420   24.2270 N   0  0  0  0  0  0  0  0  0  0  0  0
  -26.6390  -34.2570   23.6280 C   0  0  0  0  0  0  0  0  0  0  0  0
  -27.2500  -34.2410   22.5560 O   0  0  0  0  0  0  0  0  0  0  0  0
  -25.6600  -33.2360   25.0780 H   0  0  0  0  0  0  0  0  0  0  0  0
  -25.1710  -36.2970   23.6680 C   0  0  0  0  0  1  0  0  0  0  0  0
  -26.3690  -35.6010   24.3330 C   0  0  0  0  0  3  0  0  0  0  0  0
  -28.6370  -36.0380   25.1730 C   0  0  0  0  0  1  0  0  0  0  0  0
  -27.5360  -36.5110   24.3370 N   0  0  0  0  0  0  0  0  0  0  0  0
  -27.2700  -37.4410   24.6550 H   0  0  0  0  0  0  0  0  0  0  0  0
  -26.8540  -30.7660   24.7030 C   0  0  1  0  0  0  0  0  0  0  0  0
  -25.8800  -30.4470   25.8580 C   0  0  0  0  0  1  0  0  0  0  0  0
  -27.2070  -29.4280   24.0180 C   0  0  0  0  0  1  0  0  0  0  0  0
  -28.1650  -31.3020   25.3220 C   0  0  0  0  0  1  0  0  0  0  0  0
  -29.9650  -17.4500   22.0080 C   0  0  0  0  0  2  0  0  0  0  0  0
  -30.7150  -16.1130   22.1070 C   0  0  0  0  0  2  0  0  0  0  0  0
  -31.9920  -17.7360   20.7900 C   0  0  0  0  0  2  0  0  0  0  0  0
  -31.1530  -18.4010   21.8920 C   0  0  0  0  0  3  0  0  0  0  0  0
  -31.8970  -16.2300   21.1110 C   0  0  0  0  0  3  0  0  0  0  0  0
  -32.2870  -14.2920   19.5780 C   0  0  0  0  0  0  0  0  0  0  0  0
  -31.6540  -12.1510   18.5200 C   0  0  0  0  0  2  0  0  0  0  0  0
  -30.6180  -12.4300   17.4100 C   0  0  0  0  0  2  0  0  0  0  0  0
  -29.1870  -12.5040   17.9880 C   0  0  0  0  0  2  0  0  0  0  0  0
  -29.0930  -13.4320   19.2320 C   0  0  0  0  0  3  0  0  0  0  0  0
  -30.2040  -13.0690   20.2390 C   0  0  0  0  0  2  0  0  0  0  0  0
  -31.4880  -13.1950   19.5300 N   0  0  0  0  0  0  0  0  0  0  0  0
  -33.4330  -14.3420   19.1230 O   0  0  0  0  0  0  0  0  0  0  0  0
  -31.6130  -15.3850   19.9570 N   0  0  0  0  0  0  0  0  0  0  0  0
  -30.6220  -15.2730   19.8010 H   0  0  0  0  0  0  0  0  0  0  0  0
  -26.9690  -14.4330   20.2840 C   0  0  0  0  0  0  0  0  0  0  0  0
  -25.8080  -13.8560   20.7210 C   0  0  0  0  0  0  0  0  0  0  0  0
  -25.9680  -12.4510   20.5150 C   0  0  0  0  0  0  0  0  0  0  0  0
  -27.7710  -13.3910   19.8470 N   0  0  0  0  0  0  0  0  0  0  0  0
  -27.1760  -12.1860   20.0350 N   0  0  0  0  0  0  0  0  0  0  0  0
  -25.0150  -11.3490   20.6780 C   0  0  0  0  0  0  0  0  0  0  0  0
  -25.3280  -10.2140   21.4580 C   0  0  0  0  0  3  0  0  0  0  0  0
  -24.3880   -9.1720   21.6100 C   0  0  0  0  0  3  0  0  0  0  0  0
  -23.1200   -9.2650   20.9910 C   0  0  0  0  0  0  0  0  0  0  0  0
  -22.8230  -10.3870   20.1960 C   0  0  0  0  0  3  0  0  0  0  0  0
  -23.7620  -11.4200   20.0400 C   0  0  0  0  0  3  0  0  0  0  0  0
  -22.1500   -8.2960   21.0720 O   0  0  0  0  0  0  0  0  0  0  0  0
  -22.0070   -7.5160   22.1900 C   0  0  0  0  0  0  0  0  0  0  0  0
  -21.7750   -8.0740   23.4650 C   0  0  0  0  0  3  0  0  0  0  0  0
  -21.5620   -7.2330   24.5760 C   0  0  0  0  0  3  0  0  0  0  0  0
  -21.5720   -5.8340   24.4130 C   0  0  0  0  0  0  0  0  0  0  0  0
  -21.8010   -5.2750   23.1430 C   0  0  0  0  0  3  0  0  0  0  0  0
  -22.0160   -6.1140   22.0350 C   0  0  0  0  0  0  0  0  0  0  0  0
  -22.2130   -5.5690   20.8110 F   0  0  0  0  0  0  0  0  0  0  0  0
  -21.3610   -5.0260   25.4780 F   0  0  0  0  0  0  0  0  0  0  0  0
  -24.5800  -14.5750   21.2030 C   0  0  0  0  0  0  0  0  0  0  0  0
  -23.8280  -13.9660   22.1100 N   0  0  0  0  0  0  0  0  0  0  0  0
  -24.3090  -15.7080   20.8060 O   0  0  0  0  0  0  0  0  0  0  0  0
  -24.0650  -13.0470   22.4520 H   0  0  0  0  0  0  0  0  0  0  0  0
  -22.9940  -14.4170   22.4590 H   0  0  0  0  0  0  0  0  0  0  0  0
  -27.3910  -15.7570   20.2130 N   0  0  0  0  0  0  0  0  0  0  0  0
  -26.7620  -16.5100   20.4740 H   0  0  0  0  0  0  0  0  0  0  0  0
  -28.2610  -16.0830   19.8100 H   0  0  0  0  0  0  0  0  0  0  0  0
  -29.9040  -20.2020   18.2580 C   0  0  0  0  0  1  0  0  0  0  0  0
  -30.6240  -19.6730   19.3680 O   0  0  0  0  0  0  0  0  0  0  0  0
  1  5  1  0
  2  6  2  0
  2  3  1  0
  3  1  2  0
  4  5  2  0
  5  7  1  0
  6  4  1  0
  8 12  1  0
  9 12  1  0
 10 13  1  0
 10  8  1  0
 11  9  1  0
 12  3  1  0
 13 11  1  0
 13 14  1  6
 15 16  1  0
 15 13  1  0
 16 17  1  0
 17 19  1  0
 18 29  2  0
 19 24  1  0
 20 28  1  0
 20 30  1  0
 21 27  1  0
 21 23  1  0
 22 28  1  0
 23 22  1  0
 24 23  2  0
 25 26  1  0
 25 19  2  0
 26 21  2  0
 27 20  1  0
 28 18  1  0
 30 32  2  0
 31 30  1  0
 33 31  1  0
 34 43  2  0
 34 39  1  0
 35 31  1  0
 35 39  1  0
 36 35  1  0
 37 38  1  0
 37 36  1  0
 38 34  1  0
 39 40  2  0
 40 41  1  0
 42 41  2  0
 43 42  1  0
 44 18  1  0
 44 45  1  0
 44 54  1  0
 45 48  1  0
 46 45  1  0
 46 50  1  0
 47 46  2  0
 50 49  1  0
 50 52  1  0
 52 53  1  0
 52 51  1  0
 54 57  1  1
 54 55  1  0
 56 54  1  0
 58 59  1  0
 60 62  1  0
 60 61  1  0
 61  4  1  0
 61 58  1  0
 62 71  1  0
 62 59  1  0
 63 71  1  0
 64 69  1  0
 65 66  1  0
 65 64  1  0
 67 66  1  0
 67 76  1  0
 67 68  1  0
 69 63  1  0
 69 68  1  0
 70 63  2  0
 72 71  1  0
 73 74  2  0
 74 93  1  0
 75 78  1  0
 75 74  1  0
 76 77  1  0
 76 73  1  0
 77 75  2  0
 78 79  1  0
 79 80  2  0
 81 84  1  0
 81 80  1  0
 82 81  2  0
 83 82  1  0
 83 78  2  0
 84 85  1  0
 85 86  1  0
 86 87  2  0
 88 87  1  0
 88 92  1  0
 89 88  2  0
 90 85  2  0
 90 89  1  0
 91 90  1  0
 93 94  1  0
 94 96  1  0
 94 97  1  0
 95 93  2  0
 98 73  1  0
 98 99  1  0
100 98  1  0
101102  1  0
102  6  1  0
M  ISO  4  16 101  17 101  63 100  71 100
M  END
>  <TORSDO>  (87) 
F 21

>  <SCORE>  (87) 
-10.428

>  <name>  (87) 
86

>  <ligand_id>  (87) 
86

>  <original_smiles>  (87) 
[H]c1c([H])c([H])c2c(c1[H])C([H])([H])C([H])([H])C([H])([H])C2([H])N([H])C(=O)C1([H])N(C(=O)C([H])(N([H])C(=O)C([H])(N([H])C([H])([H])[H])C([H])([H])[H])C(C([H])([H])[H])(C([H])([H])[H])C([H])([H])[H])C([H])([H])c2c([H])c(OC([H])([H])C([H])([H])[N+]3([H])C([H])([H])C([H])([H])C([H])(c4c([H])c(OC([H])([H])[H])c(C5([H])C([H])([H])C([H])([H])C([H])(N([H])C(=O)N6C([H])([H])C([H])([H])C([H])([H])C([H])(n7nc(-c8c([H])c([H])c(Oc9c([H])c([H])c(F)c([H])c9F)c([H])c8[H])c(C(=O)N([H])[H])c7N([H])[H])C6([H])[H])C5([H])[H])c(C([H])([H])[H])c4[H])C([H])([H])C3([H])[H])c([H])c([H])c2C1([H])[H]

>  <smiles>  (87) 
[H]c1c([H])c([H])c2c(c1[H])C([H])([H])C([H])([H])C([H])([H])C2([H])N([H])C(=O)C1([H])N(C(=O)C([H])(N([H])C(=O)C([H])(N([H])C([H])([H])[H])C([H])([H])[H])C(C([H])([H])[H])(C([H])([H])[H])C([H])([H])[H])C([H])([H])c2c([H])c(OC([H])([H])C([H])([H])[N+]3([H])C([H])([H])C([H])([H])C([H])(c4c([H])c(OC([H])([H])[H])c(C5([H])C([H])([H])C([H])([H])C([H])(N([H])C(=O)N6C([H])([H])C([H])([H])C([H])([H])C([H])(n7nc(-c8c([H])c([H])c(Oc9c([H])c([H])c(F)c([H])c9F)c([H])c8[H])c(C(=O)N([H])[H])c7N([H])[H])C6([H])[H])C5([H])[H])c(C([H])([H])[H])c4[H])C([H])([H])C3([H])[H])c([H])c([H])c2C1([H])[H]

$$$$
87:0:0
     RDKit          3D

 93102  0  0  1  0  0  0  0  0999 V2000
  -29.3080  -21.6320   21.1470 C   0  0  0  0  0  3  0  0  0  0  0  0
  -29.0700  -23.0520   20.9880 C   0  0  0  0  0  0  0  0  0  0  0  0
  -28.4740  -22.6560   18.7000 C   0  0  0  0  0  0  0  0  0  0  0  0
  -28.6460  -23.6320   19.7490 C   0  0  0  0  0  0  0  0  0  0  0  0
  -28.7700  -21.2410   18.8560 C   0  0  0  0  0  0  0  0  0  0  0  0
  -29.1740  -20.6590   20.1030 C   0  0  0  0  0  0  0  0  0  0  0  0
  -29.2910  -23.9660   22.1790 C   0  0  0  0  0  1  0  0  0  0  0  0
  -27.9770  -23.1650   17.3430 C   0  0  0  0  0  1  0  0  0  0  0  0
  -28.7290  -20.3390   17.6200 C   0  0  0  0  0  1  0  0  0  0  0  0
  -30.6630  -14.8640   20.3090 C   0  0  0  0  0  0  0  0  0  0  0  0
  -30.3690  -12.5800   19.3130 C   0  0  0  0  0  2  0  0  0  0  0  0
  -29.4330  -12.6010   18.0880 C   0  0  0  0  0  2  0  0  0  0  0  0
  -27.9750  -12.4070   18.5360 C   0  0  0  0  0  2  0  0  0  0  0  0
  -27.5950  -13.3190   19.7300 C   0  0  0  0  0  3  0  0  0  0  0  0
  -28.6660  -13.3210   20.8450 C   0  0  0  0  0  2  0  0  0  0  0  0
  -29.9420  -13.6820   20.2180 N   0  0  0  0  0  0  0  0  0  0  0  0
  -31.8690  -14.8010   20.0530 O   0  0  0  0  0  0  0  0  0  0  0  0
  -30.4510  -18.7090   21.2070 C   0  0  0  0  0  2  0  0  0  0  0  0
  -28.3880  -18.2090   20.1540 C   0  0  0  0  0  2  0  0  0  0  0  0
  -31.0340  -17.2890   20.8200 C   0  0  0  0  0  2  0  0  0  0  0  0
  -28.7890  -16.6540   20.0480 C   0  0  0  0  0  2  0  0  0  0  0  0
  -29.4630  -19.2220   20.2540 N   0  0  0  0  0  0  0  0  0  0  0  0
  -30.1010  -16.1410   20.5540 N   0  0  0  0  0  0  0  0  0  0  0  0
  -25.2190  -13.9010   20.4860 C   0  0  0  0  0  0  0  0  0  0  0  0
  -24.1600  -13.1260   20.8650 C   0  0  0  0  0  0  0  0  0  0  0  0
  -24.6280  -11.7760   20.8360 C   0  0  0  0  0  0  0  0  0  0  0  0
  -26.2640  -13.0250   20.2440 N   0  0  0  0  0  0  0  0  0  0  0  0
  -25.9170  -11.7420   20.5210 N   0  0  0  0  0  0  0  0  0  0  0  0
  -23.9050  -10.5130   21.0290 C   0  0  0  0  0  0  0  0  0  0  0  0
  -24.3430   -9.5460   21.9610 C   0  0  0  0  0  3  0  0  0  0  0  0
  -23.6180   -8.3490   22.1420 C   0  0  0  0  0  3  0  0  0  0  0  0
  -22.4430   -8.1090   21.3900 C   0  0  0  0  0  0  0  0  0  0  0  0
  -22.0260   -9.0650   20.4450 C   0  0  0  0  0  3  0  0  0  0  0  0
  -22.7520  -10.2540   20.2630 C   0  0  0  0  0  3  0  0  0  0  0  0
  -21.6890   -6.9640   21.4830 O   0  0  0  0  0  0  0  0  0  0  0  0
  -21.6440   -6.2220   22.6360 C   0  0  0  0  0  0  0  0  0  0  0  0
  -21.2210   -6.7770   23.8630 C   0  0  0  0  0  3  0  0  0  0  0  0
  -21.1250   -5.9630   25.0070 C   0  0  0  0  0  3  0  0  0  0  0  0
  -21.4430   -4.5930   24.9260 C   0  0  0  0  0  0  0  0  0  0  0  0
  -21.8600   -4.0370   23.7040 C   0  0  0  0  0  3  0  0  0  0  0  0
  -21.9580   -4.8500   22.5610 C   0  0  0  0  0  0  0  0  0  0  0  0
  -22.3400   -4.3060   21.3810 F   0  0  0  0  0  0  0  0  0  0  0  0
  -21.3410   -3.8070   26.0230 F   0  0  0  0  0  0  0  0  0  0  0  0
  -22.7620  -13.6010   21.1370 C   0  0  0  0  0  0  0  0  0  0  0  0
  -22.0370  -12.9050   22.0050 N   0  0  0  0  0  0  0  0  0  0  0  0
  -22.3240  -14.6250   20.6160 O   0  0  0  0  0  0  0  0  0  0  0  0
  -22.4070  -12.0770   22.4490 H   0  0  0  0  0  0  0  0  0  0  0  0
  -21.1000  -13.2050   22.2300 H   0  0  0  0  0  0  0  0  0  0  0  0
  -25.3700  -15.2720   20.3000 N   0  0  0  0  0  0  0  0  0  0  0  0
  -24.5920  -15.9140   20.4050 H   0  0  0  0  0  0  0  0  0  0  0  0
  -26.1990  -15.7100   19.9240 H   0  0  0  0  0  0  0  0  0  0  0  0
  -28.5300  -25.2230   19.4030 C   0  0  0  0  0  2  0  0  0  0  0  0
  -28.3310  -26.3830   20.3420 O   0  0  0  0  0  0  0  0  0  0  0  0
  -24.6130  -31.9150   23.2650 C   0  0  0  0  0  0  0  0  0  0  0  0
  -27.2370  -27.2850   20.2380 C   0  0  0  0  0  0  0  0  0  0  0  0
  -23.4220  -30.5080   21.6260 C   0  0  0  0  0  3  0  0  0  0  0  0
  -24.8810  -28.9490   20.2100 C   0  0  0  0  0  0  0  0  0  0  0  0
  -25.9680  -30.8110   21.4600 C   0  0  0  0  0  2  0  0  0  0  0  0
  -26.0500  -29.4250   20.8140 C   0  0  0  0  0  0  0  0  0  0  0  0
  -27.2270  -28.6030   20.8230 C   0  0  0  0  0  3  0  0  0  0  0  0
  -26.0310  -26.8760   19.6240 C   0  0  0  0  0  3  0  0  0  0  0  0
  -24.8770  -27.6830   19.6060 C   0  0  0  0  0  3  0  0  0  0  0  0
  -23.6450  -29.8290   20.2500 C   0  0  0  0  0  2  0  0  0  0  0  0
  -24.6870  -31.0980   22.1730 N   0  0  0  0  0  0  0  0  0  0  0  0
  -23.5250  -32.1960   23.7900 O   0  0  0  0  0  0  0  0  0  0  0  0
  -22.7510  -29.4970   22.5880 C   0  0  0  0  0  0  0  0  0  0  0  0
  -21.4260  -29.3180   22.4540 N   0  0  0  0  0  0  0  0  0  0  0  0
  -23.4240  -28.8770   23.4160 O   0  0  0  0  0  0  0  0  0  0  0  0
  -20.9410  -29.8690   21.7590 H   0  0  0  0  0  0  0  0  0  0  0  0
  -18.0460  -28.1170   22.9450 C   0  0  0  0  0  0  0  0  0  0  0  0
  -20.6030  -28.3820   23.2250 C   0  0  0  0  0  3  0  0  0  0  0  0
  -20.7100  -26.9490   22.6550 C   0  0  0  0  0  2  0  0  0  0  0  0
  -19.6120  -26.6200   21.6380 C   0  0  0  0  0  2  0  0  0  0  0  0
  -18.2270  -26.7660   22.2740 C   0  0  0  0  0  2  0  0  0  0  0  0
  -19.1620  -28.8830   23.3760 C   0  0  0  0  0  0  0  0  0  0  0  0
  -18.9380  -30.1470   23.9640 C   0  0  0  0  0  3  0  0  0  0  0  0
  -17.6310  -30.6470   24.1230 C   0  0  0  0  0  3  0  0  0  0  0  0
  -16.5310  -29.8780   23.7070 C   0  0  0  0  0  3  0  0  0  0  0  0
  -16.7380  -28.6150   23.1250 C   0  0  0  0  0  3  0  0  0  0  0  0
  -25.8900  -32.5540   23.8920 C   0  0  0  0  0  3  0  0  0  0  0  0
  -25.5790  -33.9580   24.2050 N   0  0  0  0  0  0  0  0  0  0  0  0
  -25.9140  -35.0030   23.4370 C   0  0  0  0  0  0  0  0  0  0  0  0
  -26.5870  -34.8870   22.4080 O   0  0  0  0  0  0  0  0  0  0  0  0
  -24.9840  -34.1220   25.0030 H   0  0  0  0  0  0  0  0  0  0  0  0
  -24.1880  -36.7930   23.0600 C   0  0  0  0  0  1  0  0  0  0  0  0
  -25.4270  -36.3970   23.8770 C   0  0  0  0  0  3  0  0  0  0  0  0
  -27.5610  -37.2910   24.7010 C   0  0  0  0  0  1  0  0  0  0  0  0
  -26.4610  -37.4470   23.7540 N   0  0  0  0  0  0  0  0  0  0  0  0
  -26.0550  -38.3690   23.8880 H   0  0  0  0  0  0  0  0  0  0  0  0
  -26.3900  -31.7990   25.1850 C   0  0  1  0  0  0  0  0  0  0  0  0
  -25.2840  -31.5780   26.2440 C   0  0  0  0  0  1  0  0  0  0  0  0
  -26.9740  -30.4150   24.8190 C   0  0  0  0  0  1  0  0  0  0  0  0
  -27.5350  -32.5980   25.8500 C   0  0  0  0  0  1  0  0  0  0  0  0
  2  1  1  0
  2  7  1  0
  3  5  2  0
  3  4  1  0
  4  2  2  0
  5  6  1  0
  6 22  1  0
  6  1  2  0
  8  3  1  0
  9  5  1  0
 10 23  1  0
 11 16  1  0
 12 13  1  0
 12 11  1  0
 14 13  1  0
 14 27  1  0
 14 15  1  0
 16 10  1  0
 16 15  1  0
 17 10  2  0
 19 22  1  0
 20 18  1  0
 21 19  1  0
 21 23  1  0
 22 18  1  0
 23 20  1  0
 24 25  2  0
 25 44  1  0
 26 25  1  0
 26 29  1  0
 27 24  1  0
 27 28  1  0
 28 26  2  0
 29 30  1  0
 30 31  2  0
 32 35  1  0
 32 31  1  0
 33 32  2  0
 34 33  1  0
 34 29  2  0
 35 36  1  0
 36 37  1  0
 37 38  2  0
 39 38  1  0
 39 43  1  0
 40 39  2  0
 41 36  2  0
 41 40  1  0
 42 41  1  0
 44 45  1  0
 45 48  1  0
 45 47  1  0
 46 44  2  0
 49 50  1  0
 49 24  1  0
 51 49  1  0
 52  4  1  0
 52 53  1  0
 54 65  2  0
 55 53  1  0
 55 60  1  0
 56 64  1  0
 56 66  1  0
 57 63  1  0
 57 59  1  0
 58 64  1  0
 59 60  2  0
 59 58  1  0
 61 55  2  0
 62 61  1  0
 62 57  2  0
 63 56  1  0
 64 54  1  0
 66 68  2  0
 67 66  1  0
 69 67  1  0
 70 79  2  0
 70 75  1  0
 71 67  1  0
 71 75  1  0
 72 71  1  0
 73 74  1  0
 73 72  1  0
 74 70  1  0
 75 76  2  0
 76 77  1  0
 78 77  2  0
 79 78  1  0
 80 54  1  0
 80 81  1  0
 80 90  1  0
 81 84  1  0
 82 86  1  0
 82 81  1  0
 83 82  2  0
 86 85  1  0
 88 86  1  0
 88 89  1  0
 88 87  1  0
 90 93  1  1
 90 91  1  0
 92 90  1  0
M  ISO  4  10 100  23 100  52 101  53 101
M  END
>  <TORSDO>  (88) 
F 17

>  <SCORE>  (88) 
-15.367

>  <name>  (88) 
87

>  <ligand_id>  (88) 
87

>  <original_smiles>  (88) 
[H]c1c([H])c([H])c2c(c1[H])C([H])([H])C([H])([H])C([H])([H])C2([H])N([H])C(=O)C1([H])N(C(=O)C([H])(N([H])C(=O)C([H])(N([H])C([H])([H])[H])C([H])([H])[H])C(C([H])([H])[H])(C([H])([H])[H])C([H])([H])[H])C([H])([H])c2c([H])c(OC([H])([H])c3c(C([H])([H])[H])c([H])c(N4C([H])([H])C([H])([H])N(C(=O)N5C([H])([H])C([H])([H])C([H])([H])C([H])(n6nc(-c7c([H])c([H])c(Oc8c([H])c([H])c(F)c([H])c8F)c([H])c7[H])c(C(=O)N([H])[H])c6N([H])[H])C5([H])[H])C([H])([H])C4([H])[H])c(C([H])([H])[H])c3C([H])([H])[H])c([H])c([H])c2C1([H])[H]

>  <smiles>  (88) 
[H]c1c([H])c([H])c2c(c1[H])C([H])([H])C([H])([H])C([H])([H])C2([H])N([H])C(=O)C1([H])N(C(=O)C([H])(N([H])C(=O)C([H])(N([H])C([H])([H])[H])C([H])([H])[H])C(C([H])([H])[H])(C([H])([H])[H])C([H])([H])[H])C([H])([H])c2c([H])c(OC([H])([H])c3c(C([H])([H])[H])c([H])c(N4C([H])([H])C([H])([H])N(C(=O)N5C([H])([H])C([H])([H])C([H])([H])C([H])(n6nc(-c7c([H])c([H])c(Oc8c([H])c([H])c(F)c([H])c8F)c([H])c7[H])c(C(=O)N([H])[H])c6N([H])[H])C5([H])[H])C([H])([H])C4([H])[H])c(C([H])([H])[H])c3C([H])([H])[H])c([H])c([H])c2C1([H])[H]

$$$$
88:0:0
     RDKit          3D

 92101  0  0  1  0  0  0  0  0999 V2000
  -29.5370  -21.3770   18.0550 C   0  0  0  0  0  3  0  0  0  0  0  0
  -28.8390  -21.2230   20.6630 C   0  0  0  0  0  3  0  0  0  0  0  0
  -29.7070  -20.1210   18.7030 C   0  0  0  0  0  0  0  0  0  0  0  0
  -29.3400  -19.8810   20.0470 C   0  0  0  0  0  0  0  0  0  0  0  0
  -29.0400  -22.5700   18.6610 C   0  0  0  0  0  0  0  0  0  0  0  0
  -28.6670  -22.6390   20.0270 C   0  0  0  0  0  0  0  0  0  0  0  0
  -30.4590  -19.0090   17.9860 C   0  0  0  0  0  2  0  0  0  0  0  0
  -31.6670  -18.4850   18.8100 C   0  0  0  0  0  2  0  0  0  0  0  0
  -29.9330  -18.3180   20.6520 C   0  0  0  0  0  3  0  0  0  0  0  0
  -31.4490  -18.4630   20.3510 C   0  0  0  0  0  3  0  0  0  0  0  0
  -28.9190  -23.8100   17.7910 C   0  0  0  0  0  1  0  0  0  0  0  0
  -32.1070  -19.6810   21.0350 C   0  0  0  0  0  1  0  0  0  0  0  0
  -30.3610  -15.3470   20.3110 C   0  0  0  0  0  0  0  0  0  0  0  0
  -30.3320  -12.8860   19.4330 C   0  0  0  0  0  2  0  0  0  0  0  0
  -29.4120  -12.6300   18.2130 C   0  0  0  0  0  2  0  0  0  0  0  0
  -27.9710  -12.3450   18.6680 C   0  0  0  0  0  2  0  0  0  0  0  0
  -27.5130  -13.3230   19.7780 C   0  0  0  0  0  3  0  0  0  0  0  0
  -28.5640  -13.5180   20.8890 C   0  0  0  0  0  2  0  0  0  0  0  0
  -29.7730  -14.0440   20.2310 N   0  0  0  0  0  0  0  0  0  0  0  0
  -31.5900  -15.2800   20.1570 O   0  0  0  0  0  0  0  0  0  0  0  0
  -29.6350  -16.6650   20.3710 N   0  0  0  0  0  0  0  0  0  0  0  0
  -28.6410  -16.4960   20.3480 H   0  0  0  0  0  0  0  0  0  0  0  0
  -25.1520  -13.8740   20.5550 C   0  0  0  0  0  0  0  0  0  0  0  0
  -24.0920  -13.0950   20.9240 C   0  0  0  0  0  0  0  0  0  0  0  0
  -24.5590  -11.7450   20.8840 C   0  0  0  0  0  0  0  0  0  0  0  0
  -26.1920  -13.0010   20.3000 N   0  0  0  0  0  0  0  0  0  0  0  0
  -25.8490  -11.7130   20.5680 N   0  0  0  0  0  0  0  0  0  0  0  0
  -23.8320  -10.4820   21.0680 C   0  0  0  0  0  0  0  0  0  0  0  0
  -24.2630   -9.5070   21.9950 C   0  0  0  0  0  3  0  0  0  0  0  0
  -23.5330   -8.3120   22.1690 C   0  0  0  0  0  3  0  0  0  0  0  0
  -22.3550   -8.0830   21.4180 C   0  0  0  0  0  0  0  0  0  0  0  0
  -21.9420   -9.0460   20.4820 C   0  0  0  0  0  3  0  0  0  0  0  0
  -22.6740  -10.2330   20.3040 C   0  0  0  0  0  3  0  0  0  0  0  0
  -21.5960   -6.9410   21.5030 O   0  0  0  0  0  0  0  0  0  0  0  0
  -21.5490   -6.1920   22.6510 C   0  0  0  0  0  0  0  0  0  0  0  0
  -21.1200   -6.7370   23.8800 C   0  0  0  0  0  3  0  0  0  0  0  0
  -21.0210   -5.9140   25.0200 C   0  0  0  0  0  3  0  0  0  0  0  0
  -21.3410   -4.5450   24.9300 C   0  0  0  0  0  0  0  0  0  0  0  0
  -21.7630   -4.0000   23.7050 C   0  0  0  0  0  3  0  0  0  0  0  0
  -21.8630   -4.8200   22.5690 C   0  0  0  0  0  0  0  0  0  0  0  0
  -22.2500   -4.2840   21.3860 F   0  0  0  0  0  0  0  0  0  0  0  0
  -21.2380   -3.7530   26.0230 F   0  0  0  0  0  0  0  0  0  0  0  0
  -22.6950  -13.5720   21.1950 C   0  0  0  0  0  0  0  0  0  0  0  0
  -21.9670  -12.8750   22.0600 N   0  0  0  0  0  0  0  0  0  0  0  0
  -22.2590  -14.5990   20.6760 O   0  0  0  0  0  0  0  0  0  0  0  0
  -22.3340  -12.0450   22.5030 H   0  0  0  0  0  0  0  0  0  0  0  0
  -21.0290  -13.1760   22.2840 H   0  0  0  0  0  0  0  0  0  0  0  0
  -25.3110  -15.2460   20.3810 N   0  0  0  0  0  0  0  0  0  0  0  0
  -24.5420  -15.8960   20.4970 H   0  0  0  0  0  0  0  0  0  0  0  0
  -26.1480  -15.6860   20.0210 H   0  0  0  0  0  0  0  0  0  0  0  0
  -27.9810  -24.1750   20.5920 C   0  0  0  0  0  2  0  0  0  0  0  0
  -28.2130  -25.7900   20.2350 O   0  0  0  0  0  0  0  0  0  0  0  0
  -24.6430  -31.8400   23.2040 C   0  0  0  0  0  0  0  0  0  0  0  0
  -27.2020  -26.9040   20.2400 C   0  0  0  0  0  0  0  0  0  0  0  0
  -23.4530  -30.4280   21.5780 C   0  0  0  0  0  3  0  0  0  0  0  0
  -24.9050  -28.8060   20.1750 C   0  0  0  0  0  0  0  0  0  0  0  0
  -26.0230  -30.6320   21.4330 C   0  0  0  0  0  2  0  0  0  0  0  0
  -26.0960  -29.2110   20.7920 C   0  0  0  0  0  0  0  0  0  0  0  0
  -27.2400  -28.2850   20.7910 C   0  0  0  0  0  3  0  0  0  0  0  0
  -25.9770  -26.6590   19.5790 C   0  0  0  0  0  3  0  0  0  0  0  0
  -24.8730  -27.5500   19.5470 C   0  0  0  0  0  3  0  0  0  0  0  0
  -23.6870  -29.7320   20.2090 C   0  0  0  0  0  2  0  0  0  0  0  0
  -24.7290  -30.9950   22.1250 N   0  0  0  0  0  0  0  0  0  0  0  0
  -23.5520  -32.1330   23.7200 O   0  0  0  0  0  0  0  0  0  0  0  0
  -22.7570  -29.4420   22.5520 C   0  0  0  0  0  0  0  0  0  0  0  0
  -21.4260  -29.2780   22.4280 N   0  0  0  0  0  0  0  0  0  0  0  0
  -23.4210  -28.8240   23.3860 O   0  0  0  0  0  0  0  0  0  0  0  0
  -20.9430  -29.8270   21.7320 H   0  0  0  0  0  0  0  0  0  0  0  0
  -18.0430  -28.0700   22.9530 C   0  0  0  0  0  0  0  0  0  0  0  0
  -20.6040  -28.3450   23.2080 C   0  0  0  0  0  3  0  0  0  0  0  0
  -20.7070  -26.9080   22.6430 C   0  0  0  0  0  2  0  0  0  0  0  0
  -19.6030  -26.5760   21.6340 C   0  0  0  0  0  2  0  0  0  0  0  0
  -18.2230  -26.7190   22.2800 C   0  0  0  0  0  2  0  0  0  0  0  0
  -19.1610  -28.8400   23.3740 C   0  0  0  0  0  0  0  0  0  0  0  0
  -18.9370  -30.1010   23.9670 C   0  0  0  0  0  3  0  0  0  0  0  0
  -17.6290  -30.5940   24.1390 C   0  0  0  0  0  3  0  0  0  0  0  0
  -16.5270  -29.8230   23.7310 C   0  0  0  0  0  3  0  0  0  0  0  0
  -16.7350  -28.5620   23.1450 C   0  0  0  0  0  3  0  0  0  0  0  0
  -25.9100  -32.4920   23.8350 C   0  0  0  0  0  3  0  0  0  0  0  0
  -25.5860  -33.8930   24.1590 N   0  0  0  0  0  0  0  0  0  0  0  0
  -25.9210  -34.9530   23.4100 C   0  0  0  0  0  0  0  0  0  0  0  0
  -26.5950  -34.8530   22.3820 O   0  0  0  0  0  0  0  0  0  0  0  0
  -24.9870  -34.0430   24.9570 H   0  0  0  0  0  0  0  0  0  0  0  0
  -24.1960  -36.7550   23.0600 C   0  0  0  0  0  1  0  0  0  0  0  0
  -25.4340  -36.3420   23.8730 C   0  0  0  0  0  3  0  0  0  0  0  0
  -27.5640  -37.2270   24.7190 C   0  0  0  0  0  1  0  0  0  0  0  0
  -26.4680  -37.3960   23.7680 N   0  0  0  0  0  0  0  0  0  0  0  0
  -26.0620  -38.3160   23.9130 H   0  0  0  0  0  0  0  0  0  0  0  0
  -26.4130  -31.7400   25.1290 C   0  0  1  0  0  0  0  0  0  0  0  0
  -25.3110  -31.5200   26.1910 C   0  0  0  0  0  1  0  0  0  0  0  0
  -27.0000  -30.3560   24.7720 C   0  0  0  0  0  1  0  0  0  0  0  0
  -27.5590  -32.5440   25.7880 C   0  0  0  0  0  1  0  0  0  0  0  0
  1  5  2  0
  1  3  1  0
  3  4  2  0
  4  9  1  0
  4  2  1  0
  5  6  1  0
  6 51  1  0
  6  2  2  0
  7  3  1  0
  7  8  1  0
  8 10  1  0
  9 21  1  0
 10  9  1  0
 10 12  1  0
 11  5  1  0
 13 21  1  0
 14 19  1  0
 15 16  1  0
 15 14  1  0
 17 16  1  0
 17 26  1  0
 17 18  1  0
 19 13  1  0
 19 18  1  0
 20 13  2  0
 22 21  1  0
 23 24  2  0
 24 43  1  0
 25 24  1  0
 25 28  1  0
 26 23  1  0
 26 27  1  0
 27 25  2  0
 28 29  1  0
 29 30  2  0
 31 34  1  0
 31 30  1  0
 32 31  2  0
 33 32  1  0
 33 28  2  0
 34 35  1  0
 35 36  1  0
 36 37  2  0
 38 37  1  0
 38 42  1  0
 39 38  2  0
 40 35  2  0
 40 39  1  0
 41 40  1  0
 43 44  1  0
 44 47  1  0
 44 46  1  0
 45 43  2  0
 48 49  1  0
 48 23  1  0
 50 48  1  0
 52 54  1  0
 52 51  1  0
 53 64  2  0
 54 59  1  0
 55 63  1  0
 55 65  1  0
 56 62  1  0
 56 58  1  0
 57 63  1  0
 58 57  1  0
 59 58  2  0
 60 54  2  0
 61 60  1  0
 61 56  2  0
 62 55  1  0
 63 53  1  0
 65 67  2  0
 66 65  1  0
 68 66  1  0
 69 78  2  0
 69 74  1  0
 70 66  1  0
 70 74  1  0
 71 70  1  0
 72 73  1  0
 72 71  1  0
 73 69  1  0
 74 75  2  0
 75 76  1  0
 77 76  2  0
 78 77  1  0
 79 53  1  0
 79 80  1  0
 79 89  1  0
 80 83  1  0
 81 85  1  0
 81 80  1  0
 82 81  2  0
 85 84  1  0
 87 85  1  0
 87 88  1  0
 87 86  1  0
 89 92  1  1
 89 90  1  0
 91 89  1  0
M  ISO  4  13 100  21 100  51 101  52 101
M  END
>  <TORSDO>  (89) 
F 17

>  <SCORE>  (89) 
-16.949

>  <name>  (89) 
88

>  <ligand_id>  (89) 
88

>  <original_smiles>  (89) 
[H]c1c([H])c([H])c2c(c1[H])C([H])([H])C([H])([H])C([H])([H])C2([H])N([H])C(=O)C1([H])N(C(=O)C([H])(N([H])C(=O)C([H])(N([H])C([H])([H])[H])C([H])([H])[H])C(C([H])([H])[H])(C([H])([H])[H])C([H])([H])[H])C([H])([H])c2c([H])c(OC([H])([H])c3c([H])c4c(c([H])c3C([H])([H])[H])C([H])([H])C([H])([H])C([H])(C([H])([H])[H])C4([H])N([H])C(=O)N3C([H])([H])C([H])([H])C([H])([H])C([H])(n4nc(-c5c([H])c([H])c(Oc6c([H])c([H])c(F)c([H])c6F)c([H])c5[H])c(C(=O)N([H])[H])c4N([H])[H])C3([H])[H])c([H])c([H])c2C1([H])[H]

>  <smiles>  (89) 
[H]c1c([H])c([H])c2c(c1[H])C([H])([H])C([H])([H])C([H])([H])C2([H])N([H])C(=O)C1([H])N(C(=O)C([H])(N([H])C(=O)C([H])(N([H])C([H])([H])[H])C([H])([H])[H])C(C([H])([H])[H])(C([H])([H])[H])C([H])([H])[H])C([H])([H])c2c([H])c(OC([H])([H])c3c([H])c4c(c([H])c3C([H])([H])[H])C([H])([H])C([H])([H])C([H])(C([H])([H])[H])C4([H])N([H])C(=O)N3C([H])([H])C([H])([H])C([H])([H])C([H])(n4nc(-c5c([H])c([H])c(Oc6c([H])c([H])c(F)c([H])c6F)c([H])c5[H])c(C(=O)N([H])[H])c4N([H])[H])C3([H])[H])c([H])c([H])c2C1([H])[H]

$$$$
89:0:0
     RDKit          3D

 97106  0  0  1  0  0  0  0  0999 V2000
  -26.4690  -23.6370   21.4840 C   0  0  0  0  0  2  0  0  0  0  0  0
  -27.7470  -24.4790   21.4210 C   0  0  0  0  0  2  0  0  0  0  0  0
  -26.5340  -22.6990   20.2650 C   0  0  0  0  0  2  0  0  0  0  0  0
  -28.3590  -24.2090   20.0410 C   0  0  0  0  0  3  0  0  0  0  0  0
  -27.9150  -22.8170   19.7410 N   0  0  1  0  0  4  0  0  0  0  0  0
  -27.9270  -22.6530   18.7440 H   0  0  0  0  0  0  0  0  0  0  0  0
  -28.8200  -21.7850   20.3120 C   0  0  0  0  0  2  0  0  0  0  0  0
  -29.4940  -18.1290   19.4470 C   0  0  0  0  0  3  0  0  0  0  0  0
  -30.7050  -19.5140   17.8650 C   0  0  0  0  0  3  0  0  0  0  0  0
  -30.5070  -18.2710   18.4870 C   0  0  0  0  0  0  0  0  0  0  0  0
  -28.8050  -19.2700   19.9200 C   0  0  0  0  0  0  0  0  0  0  0  0
  -30.0220  -20.6620   18.3040 C   0  0  0  0  0  0  0  0  0  0  0  0
  -29.1590  -20.5660   19.4390 C   0  0  0  0  0  0  0  0  0  0  0  0
  -27.7130  -19.0660   20.9690 C   0  0  0  0  0  1  0  0  0  0  0  0
  -30.3200  -21.9480   17.5330 C   0  0  0  0  0  1  0  0  0  0  0  0
  -31.4390  -17.1320   18.1520 C   0  0  0  0  0  2  0  0  0  0  0  0
  -31.6600  -14.7300   18.5570 C   0  0  0  0  0  0  0  0  0  0  0  0
  -31.5670  -12.2990   18.8490 C   0  0  0  0  0  2  0  0  0  0  0  0
  -30.5630  -11.6710   17.8670 C   0  0  0  0  0  2  0  0  0  0  0  0
  -29.1420  -11.6880   18.4580 C   0  0  0  0  0  2  0  0  0  0  0  0
  -28.7380  -13.0760   19.0200 C   0  0  0  0  0  3  0  0  0  0  0  0
  -29.8480  -13.6490   19.9340 C   0  0  0  0  0  2  0  0  0  0  0  0
  -31.1120  -13.6560   19.1730 N   0  0  0  0  0  0  0  0  0  0  0  0
  -32.6180  -14.6510   17.7840 O   0  0  0  0  0  0  0  0  0  0  0  0
  -31.0860  -15.8980   18.8270 N   0  0  0  0  0  0  0  0  0  0  0  0
  -30.3160  -15.9140   19.4750 H   0  0  0  0  0  0  0  0  0  0  0  0
  -26.6290  -14.0270   20.1590 C   0  0  0  0  0  0  0  0  0  0  0  0
  -25.5120  -13.4190   20.6610 C   0  0  0  0  0  0  0  0  0  0  0  0
  -25.7090  -12.0140   20.4760 C   0  0  0  0  0  0  0  0  0  0  0  0
  -27.4500  -13.0050   19.7050 N   0  0  0  0  0  0  0  0  0  0  0  0
  -26.9050  -11.7840   19.9500 N   0  0  0  0  0  0  0  0  0  0  0  0
  -24.8080  -10.8790   20.7110 C   0  0  0  0  0  0  0  0  0  0  0  0
  -25.1210   -9.8610   21.6420 C   0  0  0  0  0  3  0  0  0  0  0  0
  -24.2300   -8.7890   21.8560 C   0  0  0  0  0  3  0  0  0  0  0  0
  -23.0090   -8.7270   21.1420 C   0  0  0  0  0  0  0  0  0  0  0  0
  -22.7150   -9.7260   20.1960 C   0  0  0  0  0  3  0  0  0  0  0  0
  -23.6080  -10.7900   19.9790 C   0  0  0  0  0  3  0  0  0  0  0  0
  -22.0940   -7.7110   21.2670 O   0  0  0  0  0  0  0  0  0  0  0  0
  -21.8420   -7.1180   22.4790 C   0  0  0  0  0  0  0  0  0  0  0  0
  -21.4160   -7.8650   23.5980 C   0  0  0  0  0  3  0  0  0  0  0  0
  -21.1050   -7.2060   24.8050 C   0  0  0  0  0  3  0  0  0  0  0  0
  -21.2090   -5.8040   24.8910 C   0  0  0  0  0  0  0  0  0  0  0  0
  -21.6300   -5.0600   23.7750 C   0  0  0  0  0  3  0  0  0  0  0  0
  -21.9430   -5.7160   22.5700 C   0  0  0  0  0  0  0  0  0  0  0  0
  -22.3290   -4.9930   21.4930 F   0  0  0  0  0  0  0  0  0  0  0  0
  -20.9010   -5.1700   26.0480 F   0  0  0  0  0  0  0  0  0  0  0  0
  -24.2840  -14.0970   21.2000 C   0  0  0  0  0  0  0  0  0  0  0  0
  -23.6270  -13.4930   22.1780 N   0  0  0  0  0  0  0  0  0  0  0  0
  -23.9330  -15.2030   20.7860 O   0  0  0  0  0  0  0  0  0  0  0  0
  -23.9310  -12.5990   22.5380 H   0  0  0  0  0  0  0  0  0  0  0  0
  -22.8130  -13.9360   22.5790 H   0  0  0  0  0  0  0  0  0  0  0  0
  -27.0130  -15.3610   20.0370 N   0  0  0  0  0  0  0  0  0  0  0  0
  -26.4290  -16.1280   20.3490 H   0  0  0  0  0  0  0  0  0  0  0  0
  -27.8860  -15.6770   19.6370 H   0  0  0  0  0  0  0  0  0  0  0  0
  -27.8780  -25.2330   18.9800 C   0  0  0  0  0  2  0  0  0  0  0  0
  -28.5820  -26.6140   19.0490 C   0  0  0  0  0  2  0  0  0  0  0  0
  -27.8760  -27.5990   18.3110 O   0  0  0  0  0  0  0  0  0  0  0  0
  -24.9300  -31.4950   23.5660 C   0  0  0  0  0  0  0  0  0  0  0  0
  -26.7670  -28.1680   18.8900 C   0  0  0  0  0  0  0  0  0  0  0  0
  -23.3830  -30.6280   21.8420 C   0  0  0  0  0  3  0  0  0  0  0  0
  -24.4840  -29.5570   19.8060 C   0  0  0  0  0  0  0  0  0  0  0  0
  -25.8510  -31.0190   21.3030 C   0  0  0  0  0  2  0  0  0  0  0  0
  -25.7510  -29.8910   20.2980 C   0  0  0  0  0  0  0  0  0  0  0  0
  -26.8970  -29.1980   19.8460 C   0  0  0  0  0  3  0  0  0  0  0  0
  -25.4830  -27.8440   18.4020 C   0  0  0  0  0  3  0  0  0  0  0  0
  -24.3400  -28.5260   18.8620 C   0  0  0  0  0  3  0  0  0  0  0  0
  -23.3140  -30.3690   20.3140 C   0  0  0  0  0  2  0  0  0  0  0  0
  -24.7490  -31.0430   22.2920 N   0  0  0  0  0  0  0  0  0  0  0  0
  -23.9770  -31.6010   24.3510 O   0  0  0  0  0  0  0  0  0  0  0  0
  -22.8530  -29.3740   22.5740 C   0  0  0  0  0  0  0  0  0  0  0  0
  -21.5590  -29.0720   22.3840 N   0  0  0  0  0  0  0  0  0  0  0  0
  -23.6040  -28.6850   23.2700 O   0  0  0  0  0  0  0  0  0  0  0  0
  -21.0130  -29.6910   21.8030 H   0  0  0  0  0  0  0  0  0  0  0  0
  -18.4640  -27.2120   22.2570 C   0  0  0  0  0  0  0  0  0  0  0  0
  -20.8560  -27.9200   22.9400 C   0  0  0  0  0  3  0  0  0  0  0  0
  -21.3240  -26.6050   22.2760 C   0  0  0  0  0  2  0  0  0  0  0  0
  -20.4590  -26.1920   21.0810 C   0  0  0  0  0  2  0  0  0  0  0  0
  -19.0020  -26.0020   21.5130 C   0  0  0  0  0  2  0  0  0  0  0  0
  -19.3360  -28.1220   22.9140 C   0  0  0  0  0  0  0  0  0  0  0  0
  -18.7860  -29.2480   23.5650 C   0  0  0  0  0  3  0  0  0  0  0  0
  -17.3970  -29.4750   23.5620 C   0  0  0  0  0  3  0  0  0  0  0  0
  -16.5390  -28.5630   22.9240 C   0  0  0  0  0  3  0  0  0  0  0  0
  -17.0700  -27.4320   22.2800 C   0  0  0  0  0  3  0  0  0  0  0  0
  -26.3400  -31.9170   24.0900 C   0  0  0  0  0  3  0  0  0  0  0  0
  -26.2250  -33.2870   24.6060 N   0  0  0  0  0  0  0  0  0  0  0  0
  -26.6240  -34.3830   23.9470 C   0  0  0  0  0  0  0  0  0  0  0  0
  -27.2000  -34.3360   22.8560 O   0  0  0  0  0  0  0  0  0  0  0  0
  -25.7090  -33.4070   25.4650 H   0  0  0  0  0  0  0  0  0  0  0  0
  -25.1000  -36.3830   23.9480 C   0  0  0  0  0  1  0  0  0  0  0  0
  -26.3390  -35.7490   24.6000 C   0  0  0  0  0  3  0  0  0  0  0  0
  -28.6150  -36.2810   25.3500 C   0  0  0  0  0  1  0  0  0  0  0  0
  -27.4800  -36.6870   24.5240 N   0  0  0  0  0  0  0  0  0  0  0  0
  -27.1990  -37.6200   24.8140 H   0  0  0  0  0  0  0  0  0  0  0  0
  -26.9080  -30.9490   25.1990 C   0  0  1  0  0  0  0  0  0  0  0  0
  -25.9160  -30.6770   26.3540 C   0  0  0  0  0  1  0  0  0  0  0  0
  -27.2980  -29.5850   24.5840 C   0  0  0  0  0  1  0  0  0  0  0  0
  -28.2020  -31.5460   25.8010 C   0  0  0  0  0  1  0  0  0  0  0  0
  2  1  1  0
  3  1  1  0
  4 55  1  0
  4  2  1  0
  5  4  1  0
  5  3  1  0
  5  7  1  0
  5  6  1  6
  8 11  1  0
  9 12  2  0
  9 10  1  0
 10  8  2  0
 11 14  1  0
 12 13  1  0
 13 11  2  0
 13  7  1  0
 15 12  1  0
 16 10  1  0
 16 25  1  0
 17 25  1  0
 17 23  1  0
 18 23  1  0
 19 20  1  0
 19 18  1  0
 21 20  1  0
 21 30  1  0
 21 22  1  0
 23 22  1  0
 24 17  2  0
 25 26  1  0
 27 28  2  0
 28 47  1  0
 29 28  1  0
 29 32  1  0
 30 31  1  0
 30 27  1  0
 31 29  2  0
 32 33  1  0
 33 34  2  0
 35 38  1  0
 35 34  1  0
 36 35  2  0
 37 36  1  0
 37 32  2  0
 38 39  1  0
 39 44  2  0
 39 40  1  0
 40 41  2  0
 41 42  1  0
 42 46  1  0
 43 42  2  0
 44 43  1  0
 45 44  1  0
 47 48  1  0
 48 50  1  0
 48 51  1  0
 49 47  2  0
 52 27  1  0
 52 53  1  0
 54 52  1  0
 55 56  1  0
 57 59  1  0
 57 56  1  0
 58 69  2  0
 59 64  1  0
 60 68  1  0
 60 70  1  0
 61 63  1  0
 61 67  1  0
 62 68  1  0
 63 62  1  0
 64 63  2  0
 65 66  1  0
 65 59  2  0
 66 61  2  0
 67 60  1  0
 68 58  1  0
 70 72  2  0
 71 70  1  0
 73 71  1  0
 74 83  2  0
 74 79  1  0
 75 71  1  0
 76 75  1  0
 77 78  1  0
 77 76  1  0
 78 74  1  0
 79 75  1  0
 79 80  2  0
 81 80  1  0
 82 81  2  0
 83 82  1  0
 84 58  1  0
 84 85  1  0
 84 94  1  0
 85 88  1  0
 86 90  1  0
 86 85  1  0
 87 86  2  0
 90 89  1  0
 92 90  1  0
 92 93  1  0
 92 91  1  0
 94 97  1  1
 94 95  1  0
 96 94  1  0
M  ISO  4  17 100  25 100  56 101  57 101
M  END
>  <TORSDO>  (90) 
F 21

>  <SCORE>  (90) 
-9.500

>  <name>  (90) 
89

>  <ligand_id>  (90) 
89

>  <original_smiles>  (90) 
[H]c1c([H])c([H])c2c(c1[H])C([H])([H])C([H])([H])C([H])([H])C2([H])N([H])C(=O)C1([H])N(C(=O)C([H])(N([H])C(=O)C([H])(N([H])C([H])([H])[H])C([H])([H])[H])C(C([H])([H])[H])(C([H])([H])[H])C([H])([H])[H])C([H])([H])c2c([H])c(OC([H])([H])C([H])([H])C3([H])C([H])([H])C([H])([H])C([H])([H])[N+]3([H])C([H])([H])c3c(C([H])([H])[H])c([H])c(C([H])([H])N([H])C(=O)N4C([H])([H])C([H])([H])C([H])([H])C([H])(n5nc(-c6c([H])c([H])c(Oc7c([H])c([H])c(F)c([H])c7F)c([H])c6[H])c(C(=O)N([H])[H])c5N([H])[H])C4([H])[H])c([H])c3C([H])([H])[H])c([H])c([H])c2C1([H])[H]

>  <smiles>  (90) 
[H]c1c([H])c([H])c2c(c1[H])C([H])([H])C([H])([H])C([H])([H])C2([H])N([H])C(=O)C1([H])N(C(=O)C([H])(N([H])C(=O)C([H])(N([H])C([H])([H])[H])C([H])([H])[H])C(C([H])([H])[H])(C([H])([H])[H])C([H])([H])[H])C([H])([H])c2c([H])c(OC([H])([H])C([H])([H])C3([H])C([H])([H])C([H])([H])C([H])([H])[N+]3([H])C([H])([H])c3c(C([H])([H])[H])c([H])c(C([H])([H])N([H])C(=O)N4C([H])([H])C([H])([H])C([H])([H])C([H])(n5nc(-c6c([H])c([H])c(Oc7c([H])c([H])c(F)c([H])c7F)c([H])c6[H])c(C(=O)N([H])[H])c5N([H])[H])C4([H])[H])c([H])c3C([H])([H])[H])c([H])c([H])c2C1([H])[H]

$$$$
90:0:0
     RDKit          3D

 94103  0  0  1  0  0  0  0  0999 V2000
  -28.7170  -22.1210   19.4560 C   0  0  0  0  0  3  0  0  0  0  0  0
  -28.6520  -20.7070   19.4660 C   0  0  0  0  0  3  0  0  0  0  0  0
  -29.8010  -20.6660   21.5850 C   0  0  0  0  0  3  0  0  0  0  0  0
  -29.3330  -22.8370   20.5080 C   0  0  0  0  0  0  0  0  0  0  0  0
  -29.2230  -19.9390   20.5120 C   0  0  0  0  0  0  0  0  0  0  0  0
  -29.8600  -22.0930   21.5990 C   0  0  0  0  0  0  0  0  0  0  0  0
  -30.6820  -14.5050   20.0530 C   0  0  0  0  0  0  0  0  0  0  0  0
  -30.3400  -12.3450   18.9160 C   0  0  0  0  0  2  0  0  0  0  0  0
  -29.3260  -12.5560   17.7720 C   0  0  0  0  0  2  0  0  0  0  0  0
  -27.8820  -12.4020   18.2900 C   0  0  0  0  0  2  0  0  0  0  0  0
  -27.6140  -13.2100   19.5890 C   0  0  0  0  0  3  0  0  0  0  0  0
  -28.7410  -12.9920   20.6250 C   0  0  0  0  0  2  0  0  0  0  0  0
  -30.0140  -13.3210   19.9710 N   0  0  0  0  0  0  0  0  0  0  0  0
  -31.8330  -14.6300   19.6180 O   0  0  0  0  0  0  0  0  0  0  0  0
  -28.9760  -17.7880   19.2310 C   0  0  0  0  0  2  0  0  0  0  0  0
  -29.7810  -17.7130   21.5870 C   0  0  0  0  0  2  0  0  0  0  0  0
  -29.9460  -16.5990   19.0550 C   0  0  0  0  0  2  0  0  0  0  0  0
  -29.4880  -16.1860   21.4560 C   0  0  0  0  0  2  0  0  0  0  0  0
  -29.2220  -18.5090   20.4830 N   0  0  0  0  0  0  0  0  0  0  0  0
  -29.8930  -15.6130   20.1540 N   0  0  0  0  0  0  0  0  0  0  0  0
  -25.2650  -13.7780   20.4640 C   0  0  0  0  0  0  0  0  0  0  0  0
  -24.2250  -12.9860   20.8730 C   0  0  0  0  0  0  0  0  0  0  0  0
  -24.6920  -11.6400   20.7760 C   0  0  0  0  0  0  0  0  0  0  0  0
  -26.2980  -12.9100   20.1450 N   0  0  0  0  0  0  0  0  0  0  0  0
  -25.9610  -11.6190   20.3900 N   0  0  0  0  0  0  0  0  0  0  0  0
  -23.9850  -10.3660   20.9730 C   0  0  0  0  0  0  0  0  0  0  0  0
  -24.4450   -9.4020   21.8970 C   0  0  0  0  0  3  0  0  0  0  0  0
  -23.7370   -8.1950   22.0820 C   0  0  0  0  0  3  0  0  0  0  0  0
  -22.5580   -7.9430   21.3410 C   0  0  0  0  0  0  0  0  0  0  0  0
  -22.1200   -8.8950   20.4050 C   0  0  0  0  0  3  0  0  0  0  0  0
  -22.8280  -10.0940   20.2190 C   0  0  0  0  0  3  0  0  0  0  0  0
  -21.8210   -6.7870   21.4350 O   0  0  0  0  0  0  0  0  0  0  0  0
  -21.7420   -6.0770   22.6060 C   0  0  0  0  0  0  0  0  0  0  0  0
  -21.2700   -6.6600   23.8010 C   0  0  0  0  0  3  0  0  0  0  0  0
  -21.1420   -5.8740   24.9650 C   0  0  0  0  0  3  0  0  0  0  0  0
  -21.4760   -4.5070   24.9330 C   0  0  0  0  0  0  0  0  0  0  0  0
  -21.9430   -3.9240   23.7400 C   0  0  0  0  0  3  0  0  0  0  0  0
  -22.0730   -4.7070   22.5800 C   0  0  0  0  0  0  0  0  0  0  0  0
  -22.5030   -4.1360   21.4300 F   0  0  0  0  0  0  0  0  0  0  0  0
  -21.3460   -3.7510   26.0470 F   0  0  0  0  0  0  0  0  0  0  0  0
  -22.8440  -13.4450   21.2430 C   0  0  0  0  0  0  0  0  0  0  0  0
  -22.1790  -12.7210   22.1380 N   0  0  0  0  0  0  0  0  0  0  0  0
  -22.3640  -14.4760   20.7740 O   0  0  0  0  0  0  0  0  0  0  0  0
  -22.5830  -11.8870   22.5360 H   0  0  0  0  0  0  0  0  0  0  0  0
  -21.2550  -13.0070   22.4310 H   0  0  0  0  0  0  0  0  0  0  0  0
  -25.4130  -15.1540   20.3180 N   0  0  0  0  0  0  0  0  0  0  0  0
  -24.6590  -15.8050   20.5020 H   0  0  0  0  0  0  0  0  0  0  0  0
  -26.2550  -15.6040   19.9810 H   0  0  0  0  0  0  0  0  0  0  0  0
  -30.6680  -24.7320   19.4970 C   0  0  0  0  0  1  0  0  0  0  0  0
  -29.5010  -24.3790   20.4340 C   0  0  0  0  0  3  0  0  0  0  0  0
  -28.2280  -25.1770   20.0360 C   0  0  0  0  0  2  0  0  0  0  0  0
  -28.3770  -26.6090   20.2130 O   0  0  0  0  0  0  0  0  0  0  0  0
  -24.5960  -31.8510   23.2660 C   0  0  0  0  0  0  0  0  0  0  0  0
  -27.2210  -27.3760   20.1800 C   0  0  0  0  0  0  0  0  0  0  0  0
  -23.3920  -30.4660   21.6120 C   0  0  0  0  0  3  0  0  0  0  0  0
  -24.8430  -28.9280   20.1860 C   0  0  0  0  0  0  0  0  0  0  0  0
  -25.9270  -30.8010   21.4330 C   0  0  0  0  0  2  0  0  0  0  0  0
  -26.0070  -29.4320   20.7810 C   0  0  0  0  0  0  0  0  0  0  0  0
  -27.1990  -28.6660   20.7690 C   0  0  0  0  0  3  0  0  0  0  0  0
  -26.0330  -26.8990   19.5770 C   0  0  0  0  0  3  0  0  0  0  0  0
  -24.8540  -27.6620   19.5800 C   0  0  0  0  0  3  0  0  0  0  0  0
  -23.6060  -29.7970   20.2290 C   0  0  0  0  0  2  0  0  0  0  0  0
  -24.6570  -31.0550   22.1610 N   0  0  0  0  0  0  0  0  0  0  0  0
  -23.5120  -32.1280   23.7990 O   0  0  0  0  0  0  0  0  0  0  0  0
  -22.7290  -29.4410   22.5620 C   0  0  0  0  0  0  0  0  0  0  0  0
  -21.4030  -29.2730   22.4310 N   0  0  0  0  0  0  0  0  0  0  0  0
  -23.4060  -28.8020   23.3710 O   0  0  0  0  0  0  0  0  0  0  0  0
  -20.9200  -29.8420   21.7500 H   0  0  0  0  0  0  0  0  0  0  0  0
  -18.0140  -28.1220   22.9280 C   0  0  0  0  0  0  0  0  0  0  0  0
  -20.5760  -28.3380   23.1930 C   0  0  0  0  0  3  0  0  0  0  0  0
  -20.6550  -26.9130   22.5980 C   0  0  0  0  0  2  0  0  0  0  0  0
  -19.5440  -26.6200   21.5850 C   0  0  0  0  0  2  0  0  0  0  0  0
  -18.1670  -26.7780   22.2350 C   0  0  0  0  0  2  0  0  0  0  0  0
  -19.1450  -28.8620   23.3630 C   0  0  0  0  0  0  0  0  0  0  0  0
  -18.9470  -30.1210   23.9700 C   0  0  0  0  0  3  0  0  0  0  0  0
  -17.6520  -30.6410   24.1450 C   0  0  0  0  0  3  0  0  0  0  0  0
  -16.5350  -29.8980   23.7260 C   0  0  0  0  0  3  0  0  0  0  0  0
  -16.7170  -28.6400   23.1230 C   0  0  0  0  0  3  0  0  0  0  0  0
  -25.8810  -32.4730   23.8960 C   0  0  0  0  0  3  0  0  0  0  0  0
  -26.3830  -31.6980   25.1760 C   0  0  1  0  0  0  0  0  0  0  0  0
  -25.2810  -31.4670   26.2350 C   0  0  0  0  0  1  0  0  0  0  0  0
  -26.9590  -30.3170   24.7870 C   0  0  0  0  0  1  0  0  0  0  0  0
  -27.5340  -32.4850   25.8480 C   0  0  0  0  0  1  0  0  0  0  0  0
  -25.5800  -33.8740   24.2220 N   0  0  0  0  0  0  0  0  0  0  0  0
  -25.9130  -34.9200   23.4550 C   0  0  0  0  0  0  0  0  0  0  0  0
  -26.5780  -34.8090   22.4220 O   0  0  0  0  0  0  0  0  0  0  0  0
  -24.9910  -34.0360   25.0250 H   0  0  0  0  0  0  0  0  0  0  0  0
  -24.1800  -36.7100   23.1130 C   0  0  0  0  0  1  0  0  0  0  0  0
  -25.4330  -36.3130   23.9080 C   0  0  0  0  0  3  0  0  0  0  0  0
  -27.5810  -37.2030   24.6990 C   0  0  0  0  0  1  0  0  0  0  0  0
  -26.4650  -37.3640   23.7720 N   0  0  0  0  0  0  0  0  0  0  0  0
  -26.0620  -38.2860   23.9180 H   0  0  0  0  0  0  0  0  0  0  0  0
  -30.8670  -22.1140   23.7930 C   0  0  0  0  0  1  0  0  0  0  0  0
  -30.4390  -22.8090   22.6280 O   0  0  0  0  0  0  0  0  0  0  0  0
  1  2  2  0
  1  4  1  0
  2  5  1  0
  3  6  1  0
  4  6  2  0
  5  3  2  0
  6 94  1  0
  7 20  1  0
  8 13  1  0
  9 10  1  0
  9  8  1  0
 11 10  1  0
 11 24  1  0
 11 12  1  0
 13  7  1  0
 13 12  1  0
 14  7  2  0
 15 19  1  0
 17 15  1  0
 17 20  1  0
 18 16  1  0
 19  5  1  0
 19 16  1  0
 20 18  1  0
 21 22  2  0
 22 41  1  0
 23 22  1  0
 23 26  1  0
 24 25  1  0
 24 21  1  0
 25 23  2  0
 26 27  1  0
 27 28  2  0
 29 32  1  0
 29 28  1  0
 30 29  2  0
 31 30  1  0
 31 26  2  0
 32 33  1  0
 33 34  1  0
 34 35  2  0
 36 35  1  0
 36 40  1  0
 37 36  2  0
 38 33  2  0
 38 37  1  0
 39 38  1  0
 41 42  1  0
 42 45  1  0
 42 44  1  0
 43 41  2  0
 46 21  1  0
 46 47  1  0
 48 46  1  0
 50 49  1  0
 50  4  1  0
 51 52  1  0
 51 50  1  0
 53 64  2  0
 54 52  1  0
 54 59  1  0
 55 63  1  0
 55 65  1  0
 56 62  1  0
 56 58  1  0
 57 63  1  0
 58 57  1  0
 59 58  2  0
 60 61  1  0
 60 54  2  0
 61 56  2  0
 62 55  1  0
 63 53  1  0
 65 67  2  0
 66 65  1  0
 68 66  1  0
 69 78  2  0
 69 74  1  0
 70 66  1  0
 70 74  1  0
 71 70  1  0
 72 73  1  0
 72 71  1  0
 73 69  1  0
 74 75  2  0
 75 76  1  0
 77 76  2  0
 78 77  1  0
 79 53  1  0
 79 84  1  0
 79 80  1  0
 80 83  1  1
 80 81  1  0
 82 80  1  0
 84 87  1  0
 85 89  1  0
 85 84  1  0
 86 85  2  0
 89 88  1  0
 91 89  1  0
 91 92  1  0
 91 90  1  0
 94 93  1  0
M  ISO  4   7 100  20 100  51 101  52 101
M  END
>  <TORSDO>  (91) 
F 19

>  <SCORE>  (91) 
-14.184

>  <name>  (91) 
90

>  <ligand_id>  (91) 
90

>  <original_smiles>  (91) 
[H]c1c([H])c([H])c2c(c1[H])C([H])([H])C([H])([H])C([H])([H])C2([H])N([H])C(=O)C1([H])N(C(=O)C([H])(N([H])C(=O)C([H])(N([H])C([H])([H])[H])C([H])([H])[H])C(C([H])([H])[H])(C([H])([H])[H])C([H])([H])[H])C([H])([H])c2c([H])c(OC([H])([H])C([H])(c3c([H])c([H])c(N4C([H])([H])C([H])([H])N(C(=O)N5C([H])([H])C([H])([H])C([H])([H])C([H])(n6nc(-c7c([H])c([H])c(Oc8c([H])c([H])c(F)c([H])c8F)c([H])c7[H])c(C(=O)N([H])[H])c6N([H])[H])C5([H])[H])C([H])([H])C4([H])[H])c([H])c3OC([H])([H])[H])C([H])([H])[H])c([H])c([H])c2C1([H])[H]

>  <smiles>  (91) 
[H]c1c([H])c([H])c2c(c1[H])C([H])([H])C([H])([H])C([H])([H])C2([H])N([H])C(=O)C1([H])N(C(=O)C([H])(N([H])C(=O)C([H])(N([H])C([H])([H])[H])C([H])([H])[H])C(C([H])([H])[H])(C([H])([H])[H])C([H])([H])[H])C([H])([H])c2c([H])c(OC([H])([H])C([H])(c3c([H])c([H])c(N4C([H])([H])C([H])([H])N(C(=O)N5C([H])([H])C([H])([H])C([H])([H])C([H])(n6nc(-c7c([H])c([H])c(Oc8c([H])c([H])c(F)c([H])c8F)c([H])c7[H])c(C(=O)N([H])[H])c6N([H])[H])C5([H])[H])C([H])([H])C4([H])[H])c([H])c3OC([H])([H])[H])C([H])([H])[H])c([H])c([H])c2C1([H])[H]

$$$$
91:0:0
     RDKit          3D

 98108  0  0  1  0  0  0  0  0999 V2000
  -27.1730  -20.0490   20.4300 C   0  0  0  0  0  3  0  0  0  0  0  0
  -28.2940  -20.8530   20.1760 C   0  0  0  0  0  3  0  0  0  0  0  0
  -28.5030  -18.0930   19.9180 C   0  0  0  0  0  3  0  0  0  0  0  0
  -29.6570  -18.8790   19.6650 C   0  0  0  0  0  0  0  0  0  0  0  0
  -27.2720  -18.6580   20.2900 C   0  0  0  0  0  0  0  0  0  0  0  0
  -29.5540  -20.3110   19.7980 C   0  0  0  0  0  0  0  0  0  0  0  0
  -26.0600  -17.7750   20.5090 C   0  0  0  0  0  1  0  0  0  0  0  0
  -33.3690  -14.4730   19.6570 C   0  0  0  0  0  0  0  0  0  0  0  0
  -33.3460  -12.0020   19.5760 C   0  0  0  0  0  2  0  0  0  0  0  0
  -32.3440  -11.5300   18.5010 C   0  0  0  0  0  2  0  0  0  0  0  0
  -30.9300  -11.4030   19.0990 C   0  0  0  0  0  2  0  0  0  0  0  0
  -30.5050  -12.6560   19.9070 C   0  0  0  0  0  3  0  0  0  0  0  0
  -31.6180  -13.1110   20.8770 C   0  0  0  0  0  2  0  0  0  0  0  0
  -32.8540  -13.2870   20.1010 N   0  0  0  0  0  0  0  0  0  0  0  0
  -34.4860  -14.5450   19.1360 O   0  0  0  0  0  0  0  0  0  0  0  0
  -31.9340  -17.8870   20.3880 C   0  0  0  0  0  2  0  0  0  0  0  0
  -30.5540  -16.7160   18.6410 C   0  0  0  0  0  2  0  0  0  0  0  0
  -33.0640  -16.8660   20.0780 C   0  0  0  0  0  2  0  0  0  0  0  0
  -31.7780  -15.7970   18.3980 C   0  0  0  0  0  2  0  0  0  0  0  0
  -30.9230  -18.1030   19.2210 C   0  0  0  0  0  3  0  0  0  0  0  0
  -32.5370  -15.5570   19.6420 N   0  0  0  0  0  0  0  0  0  0  0  0
  -28.4540  -13.3690   21.2800 C   0  0  0  0  0  0  0  0  0  0  0  0
  -27.3310  -12.6940   21.6680 C   0  0  0  0  0  0  0  0  0  0  0  0
  -27.4850  -11.3610   21.1780 C   0  0  0  0  0  0  0  0  0  0  0  0
  -29.2340  -12.4510   20.5940 N   0  0  0  0  0  0  0  0  0  0  0  0
  -28.6650  -11.2200   20.5860 N   0  0  0  0  0  0  0  0  0  0  0  0
  -26.5530  -10.2280   21.1870 C   0  0  0  0  0  0  0  0  0  0  0  0
  -26.5500   -9.2840   22.2370 C   0  0  0  0  0  3  0  0  0  0  0  0
  -25.6330   -8.2120   22.2310 C   0  0  0  0  0  3  0  0  0  0  0  0
  -24.7050   -8.0780   21.1720 C   0  0  0  0  0  0  0  0  0  0  0  0
  -24.7280   -9.0090   20.1180 C   0  0  0  0  0  3  0  0  0  0  0  0
  -25.6440  -10.0730   20.1220 C   0  0  0  0  0  3  0  0  0  0  0  0
  -23.7950   -7.0530   21.0690 O   0  0  0  0  0  0  0  0  0  0  0  0
  -22.9010   -6.7810   22.0750 C   0  0  0  0  0  0  0  0  0  0  0  0
  -21.9020   -7.7030   22.4540 C   0  0  0  0  0  3  0  0  0  0  0  0
  -20.9620   -7.3560   23.4440 C   0  0  0  0  0  3  0  0  0  0  0  0
  -21.0140   -6.0870   24.0510 C   0  0  0  0  0  0  0  0  0  0  0  0
  -22.0040   -5.1640   23.6700 C   0  0  0  0  0  3  0  0  0  0  0  0
  -22.9430   -5.5090   22.6830 C   0  0  0  0  0  0  0  0  0  0  0  0
  -23.8830   -4.6090   22.3060 F   0  0  0  0  0  0  0  0  0  0  0  0
  -20.1060   -5.7500   24.9970 F   0  0  0  0  0  0  0  0  0  0  0  0
  -26.1350  -13.2770   22.3650 C   0  0  0  0  0  0  0  0  0  0  0  0
  -25.4540  -12.4810   23.1810 N   0  0  0  0  0  0  0  0  0  0  0  0
  -25.8270  -14.4600   22.2290 O   0  0  0  0  0  0  0  0  0  0  0  0
  -25.7180  -11.5160   23.3100 H   0  0  0  0  0  0  0  0  0  0  0  0
  -24.6550  -12.8420   23.6830 H   0  0  0  0  0  0  0  0  0  0  0  0
  -28.8630  -14.6890   21.4340 N   0  0  0  0  0  0  0  0  0  0  0  0
  -28.2820  -15.3840   21.8860 H   0  0  0  0  0  0  0  0  0  0  0  0
  -29.7100  -15.0710   21.0350 H   0  0  0  0  0  0  0  0  0  0  0  0
  -31.2860  -23.0770   17.9480 C   0  0  0  0  0  2  0  0  0  0  0  0
  -31.8500  -23.2970   20.3290 C   0  0  0  0  0  2  0  0  0  0  0  0
  -30.2970  -21.9360   18.2660 C   0  0  0  0  0  2  0  0  0  0  0  0
  -30.9050  -22.1150   20.6630 C   0  0  0  0  0  2  0  0  0  0  0  0
  -31.3530  -24.1010   19.1030 C   0  0  0  0  0  3  0  0  0  0  0  0
  -30.6070  -21.2240   19.5170 N   0  0  0  0  0  0  0  0  0  0  0  0
  -33.6890  -25.1460   18.7480 C   0  0  0  0  0  1  0  0  0  0  0  0
  -32.1710  -25.3860   18.7330 C   0  0  0  0  0  3  0  0  0  0  0  0
  -31.9320  -26.5230   19.5930 O   0  0  0  0  0  0  0  0  0  0  0  0
  -27.1720  -29.5540   23.9520 C   0  0  0  0  0  0  0  0  0  0  0  0
  -30.6820  -27.1200   19.6850 C   0  0  0  0  0  0  0  0  0  0  0  0
  -26.3580  -29.0300   21.6760 C   0  0  0  0  0  3  0  0  0  0  0  0
  -28.1490  -28.3750   19.9790 C   0  0  0  0  0  0  0  0  0  0  0  0
  -28.8340  -29.5220   22.0920 C   0  0  0  0  0  2  0  0  0  0  0  0
  -29.1540  -28.6050   20.9240 C   0  0  0  0  0  0  0  0  0  0  0  0
  -30.4190  -27.9850   20.7790 C   0  0  0  0  0  3  0  0  0  0  0  0
  -29.6470  -26.9000   18.7480 C   0  0  0  0  0  3  0  0  0  0  0  0
  -28.3900  -27.5210   18.8910 C   0  0  0  0  0  3  0  0  0  0  0  0
  -26.8240  -29.0730   20.1960 C   0  0  0  0  0  2  0  0  0  0  0  0
  -27.4630  -29.3560   22.6350 N   0  0  0  0  0  0  0  0  0  0  0  0
  -26.0050  -29.5110   24.3660 O   0  0  0  0  0  0  0  0  0  0  0  0
  -25.6990  -27.6580   21.9480 C   0  0  0  0  0  0  0  0  0  0  0  0
  -24.6890  -27.3090   21.1340 N   0  0  0  0  0  0  0  0  0  0  0  0
  -26.1110  -26.9270   22.8520 O   0  0  0  0  0  0  0  0  0  0  0  0
  -24.4100  -27.9620   20.4160 H   0  0  0  0  0  0  0  0  0  0  0  0
  -22.3410  -25.2530   19.3170 C   0  0  0  0  0  0  0  0  0  0  0  0
  -23.9500  -26.0480   21.1770 C   0  0  0  0  0  3  0  0  0  0  0  0
  -24.8510  -24.8600   20.7680 C   0  0  0  0  0  2  0  0  0  0  0  0
  -24.7670  -24.5280   19.2760 C   0  0  0  0  0  2  0  0  0  0  0  0
  -23.3270  -24.1820   18.8790 C   0  0  0  0  0  2  0  0  0  0  0  0
  -22.6390  -26.1390   20.3860 C   0  0  0  0  0  0  0  0  0  0  0  0
  -21.7040  -27.1380   20.7300 C   0  0  0  0  0  3  0  0  0  0  0  0
  -20.4880  -27.2590   20.0280 C   0  0  0  0  0  3  0  0  0  0  0  0
  -20.1900  -26.3670   18.9840 C   0  0  0  0  0  3  0  0  0  0  0  0
  -21.1120  -25.3640   18.6340 C   0  0  0  0  0  3  0  0  0  0  0  0
  -28.2870  -29.8700   24.9970 C   0  0  0  0  0  3  0  0  0  0  0  0
  -27.9240  -31.1250   25.6670 N   0  0  0  0  0  0  0  0  0  0  0  0
  -28.5310  -32.3010   25.4600 C   0  0  0  0  0  0  0  0  0  0  0  0
  -29.5170  -32.4260   24.7270 O   0  0  0  0  0  0  0  0  0  0  0  0
  -27.0930  -31.1080   26.2400 H   0  0  0  0  0  0  0  0  0  0  0  0
  -27.1650  -34.3920   25.1760 C   0  0  0  0  0  1  0  0  0  0  0  0
  -27.9530  -33.5330   26.1780 C   0  0  0  0  0  3  0  0  0  0  0  0
  -29.5830  -33.7160   28.0050 C   0  0  0  0  0  1  0  0  0  0  0  0
  -28.9800  -34.3640   26.8420 N   0  0  0  0  0  0  0  0  0  0  0  0
  -28.5850  -35.2500   27.1450 H   0  0  0  0  0  0  0  0  0  0  0  0
  -28.4950  -28.7160   26.0530 C   0  0  1  0  0  0  0  0  0  0  0  0
  -27.1850  -28.2610   26.7400 C   0  0  0  0  0  1  0  0  0  0  0  0
  -29.1380  -27.4760   25.3890 C   0  0  0  0  0  1  0  0  0  0  0  0
  -29.4720  -29.1840   27.1560 C   0  0  0  0  0  1  0  0  0  0  0  0
  2  1  2  0
  3  5  2  0
  4  6  2  0
  4  3  1  0
  5  1  1  0
  5  7  1  0
  6  2  1  0
  8 14  1  0
  9 14  1  0
 10 11  1  0
 10  9  1  0
 12 11  1  0
 12 25  1  0
 12 13  1  0
 14 13  1  0
 15  8  2  0
 17 20  1  0
 18 16  1  0
 19 17  1  0
 19 21  1  0
 20  4  1  0
 20 16  1  0
 21  8  1  0
 21 18  1  0
 22 47  1  0
 22 23  2  0
 23 42  1  0
 24 27  1  0
 24 23  1  0
 25 22  1  0
 26 25  1  0
 26 24  2  0
 27 28  1  0
 29 28  2  0
 30 29  1  0
 31 32  1  0
 31 30  2  0
 32 27  2  0
 33 30  1  0
 33 34  1  0
 34 35  2  0
 34 39  1  0
 35 36  1  0
 36 37  2  0
 37 41  1  0
 38 37  1  0
 39 38  2  0
 40 39  1  0
 42 43  1  0
 43 45  1  0
 43 46  1  0
 44 42  2  0
 47 48  1  0
 49 47  1  0
 50 52  1  0
 50 54  1  0
 51 53  1  0
 52 55  1  0
 54 57  1  0
 54 51  1  0
 55  6  1  0
 55 53  1  0
 57 56  1  0
 57 58  1  0
 58 60  1  0
 59 70  2  0
 60 65  1  0
 61 71  1  0
 61 69  1  0
 62 68  1  0
 62 64  1  0
 63 69  1  0
 64 63  1  0
 65 64  2  0
 66 67  1  0
 66 60  2  0
 67 62  2  0
 68 61  1  0
 69 59  1  0
 71 73  2  0
 72 71  1  0
 74 72  1  0
 75 80  1  0
 76 72  1  0
 77 76  1  0
 78 77  1  0
 79 78  1  0
 79 75  1  0
 80 81  2  0
 80 76  1  0
 82 81  1  0
 83 82  2  0
 84 83  1  0
 84 75  2  0
 85 59  1  0
 85 86  1  0
 85 95  1  0
 86 89  1  0
 87 86  1  0
 87 91  1  0
 88 87  2  0
 91 90  1  0
 91 93  1  0
 93 94  1  0
 93 92  1  0
 95 96  1  1
 95 98  1  0
 97 95  1  0
M  ISO  4   8 100  21 100  57 101  58 101
M  END
>  <TORSDO>  (92) 
F 18

>  <SCORE>  (92) 
0.558

>  <name>  (92) 
91

>  <ligand_id>  (92) 
91

>  <original_smiles>  (92) 
[H]c1c([H])c([H])c2c(c1[H])C([H])([H])C([H])([H])C([H])([H])C2([H])N([H])C(=O)C1([H])N(C(=O)C([H])(N([H])C(=O)C([H])(N([H])C([H])([H])[H])C([H])([H])[H])C(C([H])([H])[H])(C([H])([H])[H])C([H])([H])[H])C([H])([H])c2c([H])c(OC([H])(C([H])([H])[H])C3([H])C([H])([H])C([H])([H])N(c4c([H])c([H])c(C([H])([H])[H])c([H])c4C4([H])C([H])([H])C([H])([H])N(C(=O)N5C([H])([H])C([H])([H])C([H])([H])C([H])(n6nc(-c7c([H])c([H])c(Oc8c([H])c([H])c(F)c([H])c8F)c([H])c7[H])c(C(=O)N([H])[H])c6N([H])[H])C5([H])[H])C([H])([H])C4([H])[H])C([H])([H])C3([H])[H])c([H])c([H])c2C1([H])[H]

>  <smiles>  (92) 
[H]c1c([H])c([H])c2c(c1[H])C([H])([H])C([H])([H])C([H])([H])C2([H])N([H])C(=O)C1([H])N(C(=O)C([H])(N([H])C(=O)C([H])(N([H])C([H])([H])[H])C([H])([H])[H])C(C([H])([H])[H])(C([H])([H])[H])C([H])([H])[H])C([H])([H])c2c([H])c(OC([H])(C([H])([H])[H])C3([H])C([H])([H])C([H])([H])N(c4c([H])c([H])c(C([H])([H])[H])c([H])c4C4([H])C([H])([H])C([H])([H])N(C(=O)N5C([H])([H])C([H])([H])C([H])([H])C([H])(n6nc(-c7c([H])c([H])c(Oc8c([H])c([H])c(F)c([H])c8F)c([H])c7[H])c(C(=O)N([H])[H])c6N([H])[H])C5([H])[H])C([H])([H])C4([H])[H])C([H])([H])C3([H])[H])c([H])c([H])c2C1([H])[H]

$$$$
92:0:0
     RDKit          3D

 91100  0  0  1  0  0  0  0  0999 V2000
  -30.5000  -15.3510   20.2320 C   0  0  0  0  0  0  0  0  0  0  0  0
  -30.4580  -12.8610   19.4910 C   0  0  0  0  0  2  0  0  0  0  0  0
  -29.5800  -12.5880   18.2480 C   0  0  0  0  0  2  0  0  0  0  0  0
  -28.1280  -12.3110   18.6670 C   0  0  0  0  0  2  0  0  0  0  0  0
  -27.6370  -13.3200   19.7370 C   0  0  0  0  0  3  0  0  0  0  0  0
  -28.6610  -13.5670   20.8710 C   0  0  0  0  0  2  0  0  0  0  0  0
  -29.8890  -14.0590   20.2200 N   0  0  0  0  0  0  0  0  0  0  0  0
  -31.7260  -15.2690   20.0590 O   0  0  0  0  0  0  0  0  0  0  0  0
  -28.0330  -21.3320   20.1130 C   0  0  0  0  0  3  0  0  0  0  0  0
  -29.9650  -22.2160   19.1860 C   0  0  0  0  0  3  0  0  0  0  0  0
  -28.5970  -19.9300   20.0980 C   0  0  0  0  0  0  0  0  0  0  0  0
  -29.9020  -19.6350   19.6500 C   0  0  0  0  0  0  0  0  0  0  0  0
  -28.6640  -22.6190   19.6880 C   0  0  0  0  0  0  0  0  0  0  0  0
  -30.5540  -20.8500   19.1550 C   0  0  0  0  0  3  0  0  0  0  0  0
  -27.8270  -18.5990   20.4150 C   0  0  0  0  0  3  0  0  0  0  0  0
  -30.5230  -18.0690   19.6490 C   0  0  0  0  0  3  0  0  0  0  0  0
  -28.5580  -17.1640   20.7510 C   0  0  0  0  0  3  0  0  0  0  0  0
  -29.8520  -16.7060   20.1290 N   0  0  0  0  0  0  0  0  0  0  0  0
  -25.2480  -13.8870   20.4210 C   0  0  0  0  0  0  0  0  0  0  0  0
  -24.1800  -13.1200   20.7860 C   0  0  0  0  0  0  0  0  0  0  0  0
  -24.6500  -11.7700   20.8030 C   0  0  0  0  0  0  0  0  0  0  0  0
  -26.3000  -13.0110   20.2280 N   0  0  0  0  0  0  0  0  0  0  0  0
  -25.9510  -11.7310   20.5260 N   0  0  0  0  0  0  0  0  0  0  0  0
  -23.9180  -10.5120   21.0010 C   0  0  0  0  0  0  0  0  0  0  0  0
  -24.3260   -9.5660   21.9680 C   0  0  0  0  0  3  0  0  0  0  0  0
  -23.5940   -8.3750   22.1600 C   0  0  0  0  0  3  0  0  0  0  0  0
  -22.4390   -8.1190   21.3830 C   0  0  0  0  0  0  0  0  0  0  0  0
  -22.0480   -9.0530   20.4060 C   0  0  0  0  0  3  0  0  0  0  0  0
  -22.7810  -10.2360   20.2120 C   0  0  0  0  0  3  0  0  0  0  0  0
  -21.6800   -6.9780   21.4810 O   0  0  0  0  0  0  0  0  0  0  0  0
  -21.5960   -6.2660   22.6510 C   0  0  0  0  0  0  0  0  0  0  0  0
  -21.1310   -6.8520   23.8500 C   0  0  0  0  0  3  0  0  0  0  0  0
  -21.0000   -6.0660   25.0120 C   0  0  0  0  0  3  0  0  0  0  0  0
  -21.3210   -4.6960   24.9760 C   0  0  0  0  0  0  0  0  0  0  0  0
  -21.7760   -4.1090   23.7830 C   0  0  0  0  0  3  0  0  0  0  0  0
  -21.9120   -4.8930   22.6240 C   0  0  0  0  0  0  0  0  0  0  0  0
  -22.3330   -4.3180   21.4700 F   0  0  0  0  0  0  0  0  0  0  0  0
  -21.1850   -3.9390   26.0900 F   0  0  0  0  0  0  0  0  0  0  0  0
  -22.7760  -13.6050   20.9980 C   0  0  0  0  0  0  0  0  0  0  0  0
  -22.0220  -12.9460   21.8710 N   0  0  0  0  0  0  0  0  0  0  0  0
  -22.3550  -14.6080   20.4210 O   0  0  0  0  0  0  0  0  0  0  0  0
  -22.3710  -12.1400   22.3630 H   0  0  0  0  0  0  0  0  0  0  0  0
  -21.0770  -13.2590   22.0480 H   0  0  0  0  0  0  0  0  0  0  0  0
  -25.4040  -15.2520   20.2050 N   0  0  0  0  0  0  0  0  0  0  0  0
  -24.6260  -15.8990   20.2730 H   0  0  0  0  0  0  0  0  0  0  0  0
  -26.2420  -15.6730   19.8280 H   0  0  0  0  0  0  0  0  0  0  0  0
  -32.8540  -21.9040   18.5220 C   0  0  0  0  0  1  0  0  0  0  0  0
  -31.8290  -20.1590   17.0430 C   0  0  0  0  0  1  0  0  0  0  0  0
  -31.9380  -20.6650   18.4950 C   0  0  0  0  0  3  0  0  0  0  0  0
  -27.8690  -24.1960   19.5250 C   0  0  0  0  0  2  0  0  0  0  0  0
  -28.2160  -25.8010   19.7780 O   0  0  0  0  0  0  0  0  0  0  0  0
  -24.6380  -31.7080   22.9850 C   0  0  0  0  0  0  0  0  0  0  0  0
  -27.2150  -26.9220   19.7780 C   0  0  0  0  0  0  0  0  0  0  0  0
  -23.4470  -30.3470   21.3180 C   0  0  0  0  0  3  0  0  0  0  0  0
  -24.8970  -28.7980   19.8330 C   0  0  0  0  0  0  0  0  0  0  0  0
  -26.0130  -30.5740   21.1630 C   0  0  0  0  0  2  0  0  0  0  0  0
  -26.0920  -29.1850   20.4560 C   0  0  0  0  0  0  0  0  0  0  0  0
  -27.2420  -28.2680   20.4080 C   0  0  0  0  0  3  0  0  0  0  0  0
  -25.9870  -26.7010   19.1130 C   0  0  0  0  0  3  0  0  0  0  0  0
  -24.8720  -27.5770   19.1420 C   0  0  0  0  0  3  0  0  0  0  0  0
  -23.6710  -29.7080   19.9210 C   0  0  0  0  0  2  0  0  0  0  0  0
  -24.7230  -30.9030   21.8760 N   0  0  0  0  0  0  0  0  0  0  0  0
  -23.5480  -31.9760   23.5210 O   0  0  0  0  0  0  0  0  0  0  0  0
  -22.7690  -29.3170   22.2600 C   0  0  0  0  0  0  0  0  0  0  0  0
  -21.4350  -29.1670   22.1640 N   0  0  0  0  0  0  0  0  0  0  0  0
  -23.4520  -28.6530   23.0440 O   0  0  0  0  0  0  0  0  0  0  0  0
  -20.9360  -29.7530   21.5100 H   0  0  0  0  0  0  0  0  0  0  0  0
  -18.0500  -28.0010   22.7650 C   0  0  0  0  0  0  0  0  0  0  0  0
  -20.6260  -28.2040   22.9180 C   0  0  0  0  0  3  0  0  0  0  0  0
  -20.6670  -26.8050   22.2610 C   0  0  0  0  0  2  0  0  0  0  0  0
  -19.5130  -26.5640   21.2820 C   0  0  0  0  0  2  0  0  0  0  0  0
  -18.1660  -26.6940   21.9990 C   0  0  0  0  0  2  0  0  0  0  0  0
  -19.2040  -28.7190   23.1810 C   0  0  0  0  0  0  0  0  0  0  0  0
  -19.0370  -29.9430   23.8640 C   0  0  0  0  0  3  0  0  0  0  0  0
  -17.7510  -30.4530   24.1260 C   0  0  0  0  0  3  0  0  0  0  0  0
  -16.6140  -29.7320   23.7230 C   0  0  0  0  0  3  0  0  0  0  0  0
  -16.7640  -28.5080   23.0490 C   0  0  0  0  0  3  0  0  0  0  0  0
  -25.9070  -32.3460   23.6260 C   0  0  0  0  0  3  0  0  0  0  0  0
  -25.5700  -33.7230   24.0300 N   0  0  0  0  0  0  0  0  0  0  0  0
  -25.8590  -34.8240   23.3230 C   0  0  0  0  0  0  0  0  0  0  0  0
  -26.5030  -34.7910   22.2720 O   0  0  0  0  0  0  0  0  0  0  0  0
  -24.9970  -33.8240   24.8550 H   0  0  0  0  0  0  0  0  0  0  0  0
  -24.0850  -36.5990   23.1120 C   0  0  0  0  0  1  0  0  0  0  0  0
  -25.3570  -36.1800   23.8660 C   0  0  0  0  0  3  0  0  0  0  0  0
  -27.4940  -37.0730   24.6830 C   0  0  0  0  0  1  0  0  0  0  0  0
  -26.3650  -37.2600   23.7760 N   0  0  0  0  0  0  0  0  0  0  0  0
  -25.9440  -38.1650   23.9730 H   0  0  0  0  0  0  0  0  0  0  0  0
  -26.4450  -31.5360   24.8700 C   0  0  1  0  0  0  0  0  0  0  0  0
  -25.3680  -31.2480   25.9410 C   0  0  0  0  0  1  0  0  0  0  0  0
  -27.0420  -30.1780   24.4340 C   0  0  0  0  0  1  0  0  0  0  0  0
  -27.5950  -32.3190   25.5460 C   0  0  0  0  0  1  0  0  0  0  0  0
  2  7  1  0
  3  4  1  0
  3  2  1  0
  5  4  1  0
  5 22  1  0
  5  6  1  0
  7  1  1  0
  7  6  1  0
  8  1  2  0
 10 13  2  0
 11  9  2  0
 11 15  1  0
 12 11  1  0
 13  9  1  0
 14 49  1  0
 14 10  1  0
 14 12  1  0
 15 17  2  0
 16 12  2  0
 16 18  1  0
 18  1  1  0
 18 17  1  0
 19 20  2  0
 20 21  1  0
 20 39  1  0
 21 24  1  0
 22 19  1  0
 22 23  1  0
 23 21  2  0
 24 25  1  0
 25 26  2  0
 27 30  1  0
 27 26  1  0
 28 27  2  0
 29 28  1  0
 29 24  2  0
 30 31  1  0
 31 32  1  0
 32 33  2  0
 34 33  1  0
 34 38  1  0
 35 34  2  0
 36 31  2  0
 36 35  1  0
 37 36  1  0
 39 40  1  0
 40 43  1  0
 40 42  1  0
 41 39  2  0
 44 45  1  0
 44 19  1  0
 46 44  1  0
 48 49  1  0
 49 47  1  0
 50 13  1  0
 50 51  1  0
 51 53  1  0
 52 63  2  0
 53 58  1  0
 54 62  1  0
 54 64  1  0
 55 61  1  0
 55 57  1  0
 56 62  1  0
 57 56  1  0
 58 57  2  0
 59 60  1  0
 59 53  2  0
 60 55  2  0
 61 54  1  0
 62 52  1  0
 64 66  2  0
 65 64  1  0
 67 65  1  0
 68 77  2  0
 68 73  1  0
 69 65  1  0
 69 73  1  0
 70 69  1  0
 71 72  1  0
 71 70  1  0
 72 68  1  0
 73 74  2  0
 74 75  1  0
 76 75  2  0
 77 76  1  0
 78 52  1  0
 78 79  1  0
 78 88  1  0
 79 82  1  0
 80 84  1  0
 80 79  1  0
 81 80  2  0
 84 83  1  0
 86 84  1  0
 86 87  1  0
 86 85  1  0
 88 91  1  1
 88 89  1  0
 90 88  1  0
M  ISO  4   1 100  18 100  50 101  51 101
M  END
>  <TORSDO>  (93) 
F 17

>  <SCORE>  (93) 
-15.891

>  <name>  (93) 
92

>  <ligand_id>  (93) 
92

>  <original_smiles>  (93) 
[H]c1c([H])c([H])c2c(c1[H])C([H])([H])C([H])([H])C([H])([H])C2([H])N([H])C(=O)C1([H])N(C(=O)C([H])(N([H])C(=O)C([H])(N([H])C([H])([H])[H])C([H])([H])[H])C(C([H])([H])[H])(C([H])([H])[H])C([H])([H])[H])C([H])([H])c2c([H])c(OC([H])([H])c3c([H])c4c(c(C([H])(C([H])([H])[H])C([H])([H])[H])c3[H])C([H])([H])N(C(=O)N3C([H])([H])C([H])([H])C([H])([H])C([H])(n5nc(-c6c([H])c([H])c(Oc7c([H])c([H])c(F)c([H])c7F)c([H])c6[H])c(C(=O)N([H])[H])c5N([H])[H])C3([H])[H])C([H])([H])C4([H])[H])c([H])c([H])c2C1([H])[H]

>  <smiles>  (93) 
[H]c1c([H])c([H])c2c(c1[H])C([H])([H])C([H])([H])C([H])([H])C2([H])N([H])C(=O)C1([H])N(C(=O)C([H])(N([H])C(=O)C([H])(N([H])C([H])([H])[H])C([H])([H])[H])C(C([H])([H])[H])(C([H])([H])[H])C([H])([H])[H])C([H])([H])c2c([H])c(OC([H])([H])c3c([H])c4c(c(C([H])(C([H])([H])[H])C([H])([H])[H])c3[H])C([H])([H])N(C(=O)N3C([H])([H])C([H])([H])C([H])([H])C([H])(n5nc(-c6c([H])c([H])c(Oc7c([H])c([H])c(F)c([H])c7F)c([H])c6[H])c(C(=O)N([H])[H])c5N([H])[H])C3([H])[H])C([H])([H])C4([H])[H])c([H])c([H])c2C1([H])[H]

$$$$
93:0:0
     RDKit          3D

102112  0  0  1  0  0  0  0  0999 V2000
  -34.4810  -21.6130   20.7510 C   0  0  0  0  0  1  0  0  0  0  0  0
  -33.1920  -21.5540   19.9150 C   0  0  0  0  0  3  0  0  0  0  0  0
  -31.9900  -23.6880   20.6470 C   0  0  0  0  0  2  0  0  0  0  0  0
  -31.8270  -23.0600   18.2400 C   0  0  0  0  0  2  0  0  0  0  0  0
  -31.6650  -25.1440   20.2830 C   0  0  0  0  0  2  0  0  0  0  0  0
  -31.4960  -24.5220   17.9000 C   0  0  0  0  0  2  0  0  0  0  0  0
  -32.7260  -22.9760   19.4940 C   0  0  0  0  0  3  0  0  0  0  0  0
  -30.8520  -25.2260   19.0450 N   0  0  2  0  0  4  0  0  0  0  0  0
  -29.9910  -24.7370   19.2460 H   0  0  0  0  0  0  0  0  0  0  0  0
  -30.4690  -26.6230   18.7080 C   0  0  0  0  0  2  0  0  0  0  0  0
  -28.9470  -26.7970   18.6800 C   0  0  0  0  0  2  0  0  0  0  0  0
  -28.4470  -26.8400   20.0200 O   0  0  0  0  0  0  0  0  0  0  0  0
  -24.6080  -31.9110   23.2380 C   0  0  0  0  0  0  0  0  0  0  0  0
  -27.2520  -27.5080   20.1180 C   0  0  0  0  0  0  0  0  0  0  0  0
  -23.3910  -30.4980   21.6080 C   0  0  0  0  0  3  0  0  0  0  0  0
  -24.8370  -28.9620   20.1790 C   0  0  0  0  0  0  0  0  0  0  0  0
  -25.9070  -30.8720   21.3870 C   0  0  0  0  0  2  0  0  0  0  0  0
  -25.9950  -29.4980   20.7600 C   0  0  0  0  0  0  0  0  0  0  0  0
  -27.2010  -28.7700   20.7480 C   0  0  0  0  0  3  0  0  0  0  0  0
  -26.0820  -26.9660   19.5540 C   0  0  0  0  0  3  0  0  0  0  0  0
  -24.8720  -27.6870   19.5840 C   0  0  0  0  0  3  0  0  0  0  0  0
  -23.5890  -29.8100   20.2320 C   0  0  0  0  0  2  0  0  0  0  0  0
  -24.6550  -31.1060   22.1370 N   0  0  0  0  0  0  0  0  0  0  0  0
  -23.5320  -32.1830   23.7850 O   0  0  0  0  0  0  0  0  0  0  0  0
  -22.7510  -29.4780   22.5780 C   0  0  0  0  0  0  0  0  0  0  0  0
  -21.4270  -29.2920   22.4570 N   0  0  0  0  0  0  0  0  0  0  0  0
  -23.4430  -28.8550   23.3870 O   0  0  0  0  0  0  0  0  0  0  0  0
  -20.9320  -29.8420   21.7680 H   0  0  0  0  0  0  0  0  0  0  0  0
  -18.0630  -28.0840   22.9610 C   0  0  0  0  0  0  0  0  0  0  0  0
  -20.6170  -28.3550   23.2340 C   0  0  0  0  0  3  0  0  0  0  0  0
  -20.7300  -26.9230   22.6630 C   0  0  0  0  0  2  0  0  0  0  0  0
  -19.6310  -26.5890   21.6510 C   0  0  0  0  0  2  0  0  0  0  0  0
  -18.2480  -26.7300   22.2950 C   0  0  0  0  0  2  0  0  0  0  0  0
  -19.1760  -28.8540   23.3850 C   0  0  0  0  0  0  0  0  0  0  0  0
  -18.9530  -30.1220   23.9680 C   0  0  0  0  0  3  0  0  0  0  0  0
  -17.6460  -30.6180   24.1310 C   0  0  0  0  0  3  0  0  0  0  0  0
  -16.5460  -29.8460   23.7230 C   0  0  0  0  0  3  0  0  0  0  0  0
  -16.7540  -28.5800   23.1460 C   0  0  0  0  0  3  0  0  0  0  0  0
  -25.9010  -32.5440   23.8400 C   0  0  0  0  0  3  0  0  0  0  0  0
  -25.5970  -33.9410   24.1740 N   0  0  0  0  0  0  0  0  0  0  0  0
  -25.9270  -34.9920   23.4120 C   0  0  0  0  0  0  0  0  0  0  0  0
  -26.5890  -34.8880   22.3760 O   0  0  0  0  0  0  0  0  0  0  0  0
  -25.0120  -34.0980   24.9810 H   0  0  0  0  0  0  0  0  0  0  0  0
  -24.1980  -36.7810   23.0600 C   0  0  0  0  0  1  0  0  0  0  0  0
  -25.4390  -36.3790   23.8710 C   0  0  0  0  0  3  0  0  0  0  0  0
  -27.5760  -37.2610   24.6950 C   0  0  0  0  0  1  0  0  0  0  0  0
  -26.4710  -37.4320   23.7570 N   0  0  0  0  0  0  0  0  0  0  0  0
  -26.0650  -38.3510   23.9120 H   0  0  0  0  0  0  0  0  0  0  0  0
  -26.4370  -31.7720   25.1070 C   0  0  1  0  0  0  0  0  0  0  0  0
  -25.3560  -31.5340   26.1860 C   0  0  0  0  0  1  0  0  0  0  0  0
  -27.0180  -30.3970   24.7010 C   0  0  0  0  0  1  0  0  0  0  0  0
  -27.5970  -32.5650   25.7550 C   0  0  0  0  0  1  0  0  0  0  0  0
  -33.9340  -18.7930   16.6400 C   0  0  0  0  0  3  0  0  0  0  0  0
  -32.9960  -18.4510   17.6330 C   0  0  0  0  0  3  0  0  0  0  0  0
  -34.3530  -20.9060   17.7610 C   0  0  0  0  0  3  0  0  0  0  0  0
  -34.6190  -20.0230   16.7040 C   0  0  0  0  0  0  0  0  0  0  0  0
  -33.4030  -20.5830   18.7530 C   0  0  0  0  0  0  0  0  0  0  0  0
  -32.7170  -19.3450   18.7010 C   0  0  0  0  0  0  0  0  0  0  0  0
  -35.6300  -20.4190   15.6510 C   0  0  0  0  0  1  0  0  0  0  0  0
  -31.8220  -19.0880   19.7200 O   0  0  0  0  0  0  0  0  0  0  0  0
  -30.6720  -14.4700   20.3790 C   0  0  0  0  0  0  0  0  0  0  0  0
  -30.3660  -12.3310   19.2260 C   0  0  0  0  0  2  0  0  0  0  0  0
  -29.4200  -12.5770   18.0360 C   0  0  0  0  0  2  0  0  0  0  0  0
  -27.9450  -12.4400   18.4660 C   0  0  0  0  0  2  0  0  0  0  0  0
  -27.6100  -13.2370   19.7550 C   0  0  0  0  0  3  0  0  0  0  0  0
  -28.6780  -13.0080   20.8500 C   0  0  0  0  0  2  0  0  0  0  0  0
  -29.9970  -13.3000   20.2660 N   0  0  0  0  0  0  0  0  0  0  0  0
  -31.8400  -14.6190   20.0130 O   0  0  0  0  0  0  0  0  0  0  0  0
  -31.1360  -17.5940   21.4560 C   0  0  0  0  0  2  0  0  0  0  0  0
  -30.0210  -17.5660   19.1790 C   0  0  0  0  0  2  0  0  0  0  0  0
  -30.2340  -16.3930   21.8390 C   0  0  0  0  0  2  0  0  0  0  0  0
  -29.2480  -16.2990   19.6120 C   0  0  0  0  0  2  0  0  0  0  0  0
  -31.3420  -17.7730   19.9400 C   0  0  0  0  0  3  0  0  0  0  0  0
  -29.9060  -15.5410   20.6930 N   0  0  0  0  0  0  0  0  0  0  0  0
  -25.2160  -13.8510   20.4570 C   0  0  0  0  0  0  0  0  0  0  0  0
  -24.1470  -13.0810   20.8290 C   0  0  0  0  0  0  0  0  0  0  0  0
  -24.6090  -11.7300   20.8050 C   0  0  0  0  0  0  0  0  0  0  0  0
  -26.2600  -12.9660   20.2340 N   0  0  0  0  0  0  0  0  0  0  0  0
  -25.8990  -11.6860   20.4970 N   0  0  0  0  0  0  0  0  0  0  0  0
  -23.8870  -10.4700   21.0000 C   0  0  0  0  0  0  0  0  0  0  0  0
  -24.3350   -9.4970   21.9200 C   0  0  0  0  0  3  0  0  0  0  0  0
  -23.6140   -8.2980   22.0990 C   0  0  0  0  0  3  0  0  0  0  0  0
  -22.4340   -8.0610   21.3570 C   0  0  0  0  0  0  0  0  0  0  0  0
  -22.0060   -9.0230   20.4260 C   0  0  0  0  0  3  0  0  0  0  0  0
  -22.7260  -10.2140   20.2440 C   0  0  0  0  0  3  0  0  0  0  0  0
  -21.6780   -6.9170   21.4530 O   0  0  0  0  0  0  0  0  0  0  0  0
  -21.6680   -6.1560   22.5940 C   0  0  0  0  0  0  0  0  0  0  0  0
  -21.2930   -6.6960   23.8440 C   0  0  0  0  0  3  0  0  0  0  0  0
  -21.2230   -5.8620   24.9790 C   0  0  0  0  0  3  0  0  0  0  0  0
  -21.5190   -4.4910   24.8660 C   0  0  0  0  0  0  0  0  0  0  0  0
  -21.8900   -3.9510   23.6220 C   0  0  0  0  0  3  0  0  0  0  0  0
  -21.9640   -4.7820   22.4900 C   0  0  0  0  0  0  0  0  0  0  0  0
  -22.2980   -4.2510   21.2890 F   0  0  0  0  0  0  0  0  0  0  0  0
  -21.4470   -3.6870   25.9530 F   0  0  0  0  0  0  0  0  0  0  0  0
  -22.7480  -13.5590   21.0960 C   0  0  0  0  0  0  0  0  0  0  0  0
  -22.0150  -12.8730   21.9650 N   0  0  0  0  0  0  0  0  0  0  0  0
  -22.3130  -14.5810   20.5670 O   0  0  0  0  0  0  0  0  0  0  0  0
  -22.3770  -12.0480   22.4200 H   0  0  0  0  0  0  0  0  0  0  0  0
  -21.0750  -13.1810   22.1780 H   0  0  0  0  0  0  0  0  0  0  0  0
  -25.3760  -15.2200   20.2710 N   0  0  0  0  0  0  0  0  0  0  0  0
  -24.6100  -15.8740   20.3830 H   0  0  0  0  0  0  0  0  0  0  0  0
  -26.2320  -15.6610   19.9600 H   0  0  0  0  0  0  0  0  0  0  0  0
  2  1  1  0
  4  7  1  0
  5  3  1  0
  6  4  1  0
  6  8  1  0
  7  2  1  0
  7  3  1  0
  8  9  1  1
  8  5  1  0
 10  8  1  0
 11 10  1  0
 11 12  1  0
 12 14  1  0
 13 24  2  0
 14 19  1  0
 15 23  1  0
 15 25  1  0
 16 22  1  0
 16 18  1  0
 17 23  1  0
 18 17  1  0
 19 18  2  0
 20 21  1  0
 20 14  2  0
 21 16  2  0
 22 15  1  0
 23 13  1  0
 25 27  2  0
 26 25  1  0
 28 26  1  0
 29 38  2  0
 29 34  1  0
 30 26  1  0
 30 34  1  0
 31 30  1  0
 32 33  1  0
 32 31  1  0
 33 29  1  0
 34 35  2  0
 35 36  1  0
 37 36  2  0
 38 37  1  0
 39 13  1  0
 39 40  1  0
 39 49  1  0
 40 43  1  0
 41 45  1  0
 41 40  1  0
 42 41  2  0
 45 44  1  0
 47 45  1  0
 47 48  1  0
 47 46  1  0
 49 52  1  1
 49 50  1  0
 51 49  1  0
 53 56  2  0
 53 54  1  0
 54 58  2  0
 55 57  2  0
 56 55  1  0
 57  2  1  0
 58 57  1  0
 58 60  1  0
 59 56  1  0
 61 74  1  0
 62 67  1  0
 63 64  1  0
 63 62  1  0
 65 64  1  0
 65 78  1  0
 65 66  1  0
 67 61  1  0
 67 66  1  0
 68 61  2  0
 69 71  1  0
 70 72  1  0
 70 73  1  0
 72 74  1  0
 73 60  1  0
 73 69  1  0
 74 71  1  0
 75 76  2  0
 76 95  1  0
 77 76  1  0
 77 80  1  0
 78 75  1  0
 78 79  1  0
 79 77  2  0
 80 81  1  0
 81 82  2  0
 83 86  1  0
 83 82  1  0
 84 83  2  0
 85 84  1  0
 85 80  2  0
 86 87  1  0
 87 88  1  0
 88 89  2  0
 90 89  1  0
 90 94  1  0
 91 90  2  0
 92 87  2  0
 92 91  1  0
 93 92  1  0
 95 96  1  0
 96 99  1  0
 96 98  1  0
 97 95  2  0
100101  1  0
100 75  1  0
102100  1  0
M  ISO  4  11 101  12 101  61 100  74 100
M  END
>  <TORSDO>  (94) 
F 21

>  <SCORE>  (94) 
-13.509

>  <name>  (94) 
93

>  <ligand_id>  (94) 
93

>  <original_smiles>  (94) 
[H]c1c([H])c([H])c2c(c1[H])C([H])([H])C([H])([H])C([H])([H])C2([H])N([H])C(=O)C1([H])N(C(=O)C([H])(N([H])C(=O)C([H])(N([H])C([H])([H])[H])C([H])([H])[H])C(C([H])([H])[H])(C([H])([H])[H])C([H])([H])[H])C([H])([H])c2c([H])c(OC([H])([H])C([H])([H])[N+]3([H])C([H])([H])C([H])([H])C([H])(C([H])(c4c([H])c(C([H])([H])[H])c([H])c([H])c4OC4([H])C([H])([H])C([H])([H])N(C(=O)N5C([H])([H])C([H])([H])C([H])([H])C([H])(n6nc(-c7c([H])c([H])c(Oc8c([H])c([H])c(F)c([H])c8F)c([H])c7[H])c(C(=O)N([H])[H])c6N([H])[H])C5([H])[H])C([H])([H])C4([H])[H])C([H])([H])[H])C([H])([H])C3([H])[H])c([H])c([H])c2C1([H])[H]

>  <smiles>  (94) 
[H]c1c([H])c([H])c2c(c1[H])C([H])([H])C([H])([H])C([H])([H])C2([H])N([H])C(=O)C1([H])N(C(=O)C([H])(N([H])C(=O)C([H])(N([H])C([H])([H])[H])C([H])([H])[H])C(C([H])([H])[H])(C([H])([H])[H])C([H])([H])[H])C([H])([H])c2c([H])c(OC([H])([H])C([H])([H])[N+]3([H])C([H])([H])C([H])([H])C([H])(C([H])(c4c([H])c(C([H])([H])[H])c([H])c([H])c4OC4([H])C([H])([H])C([H])([H])N(C(=O)N5C([H])([H])C([H])([H])C([H])([H])C([H])(n6nc(-c7c([H])c([H])c(Oc8c([H])c([H])c(F)c([H])c8F)c([H])c7[H])c(C(=O)N([H])[H])c6N([H])[H])C5([H])[H])C([H])([H])C4([H])[H])C([H])([H])[H])C([H])([H])C3([H])[H])c([H])c([H])c2C1([H])[H]

$$$$
94:0:0
     RDKit          3D

 99109  0  0  1  0  0  0  0  0999 V2000
  -28.5630  -25.5290   17.3770 C   0  0  0  0  0  3  0  0  0  0  0  0
  -30.7180  -25.2070   18.4560 C   0  0  0  0  0  3  0  0  0  0  0  0
  -29.5420  -25.9620   18.2850 C   0  0  0  0  0  0  0  0  0  0  0  0
  -28.7260  -24.3250   16.6680 C   0  0  0  0  0  0  0  0  0  0  0  0
  -30.9060  -24.0030   17.7460 C   0  0  0  0  0  0  0  0  0  0  0  0
  -29.8950  -23.5420   16.8620 C   0  0  0  0  0  0  0  0  0  0  0  0
  -27.6130  -23.8940   15.7250 C   0  0  0  0  0  1  0  0  0  0  0  0
  -32.1920  -23.2210   17.9620 C   0  0  0  0  0  1  0  0  0  0  0  0
  -30.0360  -22.2120   16.1300 C   0  0  0  0  0  2  0  0  0  0  0  0
  -28.4160  -18.9800   16.6010 C   0  0  0  0  0  2  0  0  0  0  0  0
  -29.0840  -20.0560   15.7590 C   0  0  0  0  0  2  0  0  0  0  0  0
  -29.5410  -20.6200   17.9500 C   0  0  0  0  0  2  0  0  0  0  0  0
  -28.6890  -19.3370   18.0840 C   0  0  0  0  0  3  0  0  0  0  0  0
  -29.1370  -21.1880   16.6610 N   0  0  0  0  0  0  0  0  0  0  0  0
  -30.6480  -14.8590   21.1000 C   0  0  0  0  0  0  0  0  0  0  0  0
  -30.5540  -12.5440   20.3040 C   0  0  0  0  0  2  0  0  0  0  0  0
  -29.7640  -12.4510   18.9830 C   0  0  0  0  0  2  0  0  0  0  0  0
  -28.2300  -12.4460   19.2170 C   0  0  0  0  0  2  0  0  0  0  0  0
  -27.7070  -13.3810   20.3530 C   0  0  0  0  0  3  0  0  0  0  0  0
  -28.6490  -13.3870   21.5730 C   0  0  0  0  0  2  0  0  0  0  0  0
  -30.0100  -13.6580   21.0870 N   0  0  0  0  0  0  0  0  0  0  0  0
  -31.8730  -14.9610   21.1660 O   0  0  0  0  0  0  0  0  0  0  0  0
  -29.7030  -15.8770   19.1670 C   0  0  0  0  0  2  0  0  0  0  0  0
  -30.3100  -17.2990   21.0330 C   0  0  0  0  0  2  0  0  0  0  0  0
  -28.7100  -16.9230   18.7010 C   0  0  0  0  0  2  0  0  0  0  0  0
  -29.5650  -18.4750   20.3070 C   0  0  0  0  0  2  0  0  0  0  0  0
  -29.9340  -15.9180   20.6200 N   0  0  0  0  0  0  0  0  0  0  0  0
  -29.3600  -18.2370   18.8480 N   0  0  2  0  0  4  0  0  0  0  0  0
  -30.2760  -18.1430   18.4390 H   0  0  0  0  0  0  0  0  0  0  0  0
  -25.2410  -13.9470   20.8040 C   0  0  0  0  0  0  0  0  0  0  0  0
  -24.1560  -13.1540   21.0590 C   0  0  0  0  0  0  0  0  0  0  0  0
  -24.6490  -11.8150   21.1060 C   0  0  0  0  0  0  0  0  0  0  0  0
  -26.3240  -13.0850   20.7090 N   0  0  0  0  0  0  0  0  0  0  0  0
  -25.9660  -11.8010   20.9540 N   0  0  0  0  0  0  0  0  0  0  0  0
  -23.9390  -10.5380   21.2300 C   0  0  0  0  0  0  0  0  0  0  0  0
  -24.3210   -9.5750   22.1890 C   0  0  0  0  0  3  0  0  0  0  0  0
  -23.6120   -8.3590   22.3020 C   0  0  0  0  0  3  0  0  0  0  0  0
  -22.5060   -8.1020   21.4550 C   0  0  0  0  0  0  0  0  0  0  0  0
  -22.1460   -9.0550   20.4870 C   0  0  0  0  0  3  0  0  0  0  0  0
  -22.8570  -10.2600   20.3710 C   0  0  0  0  0  3  0  0  0  0  0  0
  -21.7710   -6.9420   21.4800 O   0  0  0  0  0  0  0  0  0  0  0  0
  -21.6710   -6.1790   22.6140 C   0  0  0  0  0  0  0  0  0  0  0  0
  -21.1700   -6.7060   23.8250 C   0  0  0  0  0  3  0  0  0  0  0  0
  -21.0180   -5.8670   24.9460 C   0  0  0  0  0  3  0  0  0  0  0  0
  -21.3570   -4.5040   24.8600 C   0  0  0  0  0  0  0  0  0  0  0  0
  -21.8520   -3.9770   23.6530 C   0  0  0  0  0  3  0  0  0  0  0  0
  -22.0060   -4.8120   22.5330 C   0  0  0  0  0  0  0  0  0  0  0  0
  -22.4640   -4.2960   21.3670 F   0  0  0  0  0  0  0  0  0  0  0  0
  -21.2030   -3.6960   25.9360 F   0  0  0  0  0  0  0  0  0  0  0  0
  -22.7270  -13.6020   21.1610 C   0  0  0  0  0  0  0  0  0  0  0  0
  -21.9260  -12.9100   21.9650 N   0  0  0  0  0  0  0  0  0  0  0  0
  -22.3260  -14.6000   20.5670 O   0  0  0  0  0  0  0  0  0  0  0  0
  -22.2610  -12.1030   22.4700 H   0  0  0  0  0  0  0  0  0  0  0  0
  -20.9630  -13.1960   22.0780 H   0  0  0  0  0  0  0  0  0  0  0  0
  -25.3930  -15.3190   20.6290 N   0  0  0  0  0  0  0  0  0  0  0  0
  -24.6060  -15.9580   20.6670 H   0  0  0  0  0  0  0  0  0  0  0  0
  -26.2790  -15.7880   20.5030 H   0  0  0  0  0  0  0  0  0  0  0  0
  -29.2900  -27.2020   19.1140 C   0  0  0  0  0  2  0  0  0  0  0  0
  -28.4180  -26.8930   20.1940 O   0  0  0  0  0  0  0  0  0  0  0  0
  -24.5740  -31.9680   23.3020 C   0  0  0  0  0  0  0  0  0  0  0  0
  -27.2470  -27.5990   20.2030 C   0  0  0  0  0  0  0  0  0  0  0  0
  -23.3660  -30.5570   21.6620 C   0  0  0  0  0  3  0  0  0  0  0  0
  -24.8280  -29.0370   20.2280 C   0  0  0  0  0  0  0  0  0  0  0  0
  -25.8810  -30.9550   21.4430 C   0  0  0  0  0  2  0  0  0  0  0  0
  -25.9790  -29.5880   20.8060 C   0  0  0  0  0  0  0  0  0  0  0  0
  -27.1920  -28.8740   20.7960 C   0  0  0  0  0  3  0  0  0  0  0  0
  -26.0820  -27.0360   19.6410 C   0  0  0  0  0  3  0  0  0  0  0  0
  -24.8720  -27.7560   19.6440 C   0  0  0  0  0  3  0  0  0  0  0  0
  -23.5730  -29.8760   20.2810 C   0  0  0  0  0  2  0  0  0  0  0  0
  -24.6250  -31.1730   22.1960 N   0  0  0  0  0  0  0  0  0  0  0  0
  -23.4960  -32.2260   23.8540 O   0  0  0  0  0  0  0  0  0  0  0  0
  -22.7330  -29.5280   22.6260 C   0  0  0  0  0  0  0  0  0  0  0  0
  -21.4130  -29.3210   22.4940 N   0  0  0  0  0  0  0  0  0  0  0  0
  -23.4250  -28.9190   23.4460 O   0  0  0  0  0  0  0  0  0  0  0  0
  -20.9160  -29.8660   21.8020 H   0  0  0  0  0  0  0  0  0  0  0  0
  -18.0630  -28.0540   22.9570 C   0  0  0  0  0  0  0  0  0  0  0  0
  -20.6090  -28.3740   23.2640 C   0  0  0  0  0  3  0  0  0  0  0  0
  -20.7540  -26.9390   22.7050 C   0  0  0  0  0  2  0  0  0  0  0  0
  -19.6750  -26.5800   21.6780 C   0  0  0  0  0  2  0  0  0  0  0  0
  -18.2800  -26.7010   22.3000 C   0  0  0  0  0  2  0  0  0  0  0  0
  -19.1570  -28.8460   23.3940 C   0  0  0  0  0  0  0  0  0  0  0  0
  -18.9020  -30.1130   23.9640 C   0  0  0  0  0  3  0  0  0  0  0  0
  -17.5840  -30.5880   24.1010 C   0  0  0  0  0  3  0  0  0  0  0  0
  -16.5030  -29.7920   23.6820 C   0  0  0  0  0  3  0  0  0  0  0  0
  -16.7430  -28.5260   23.1170 C   0  0  0  0  0  3  0  0  0  0  0  0
  -25.8630  -32.6040   23.9130 C   0  0  0  0  0  3  0  0  0  0  0  0
  -26.3800  -31.8520   25.2000 C   0  0  1  0  0  0  0  0  0  0  0  0
  -25.2820  -31.6140   26.2630 C   0  0  0  0  0  1  0  0  0  0  0  0
  -26.9810  -30.4780   24.8230 C   0  0  0  0  0  1  0  0  0  0  0  0
  -27.5160  -32.6670   25.8630 C   0  0  0  0  0  1  0  0  0  0  0  0
  -25.5580  -34.0090   24.2180 N   0  0  0  0  0  0  0  0  0  0  0  0
  -25.9100  -35.0470   23.4470 C   0  0  0  0  0  0  0  0  0  0  0  0
  -26.5950  -34.9230   22.4280 O   0  0  0  0  0  0  0  0  0  0  0  0
  -24.9550  -34.1790   25.0090 H   0  0  0  0  0  0  0  0  0  0  0  0
  -24.2040  -36.8430   23.0240 C   0  0  0  0  0  1  0  0  0  0  0  0
  -25.4210  -36.4440   23.8720 C   0  0  0  0  0  3  0  0  0  0  0  0
  -27.5470  -37.3210   24.7340 C   0  0  0  0  0  1  0  0  0  0  0  0
  -26.4640  -37.4890   23.7680 N   0  0  0  0  0  0  0  0  0  0  0  0
  -26.0620  -38.4140   23.9020 H   0  0  0  0  0  0  0  0  0  0  0  0
  1  3  1  0
  3  2  2  0
  3 58  1  0
  4  6  1  0
  4  1  2  0
  5  8  1  0
  5  2  1  0
  6  5  2  0
  7  4  1  0
  9 14  1  0
  9  6  1  0
 11 10  1  0
 11 14  1  0
 12 13  1  0
 13 10  1  0
 13 28  1  0
 14 12  1  0
 15 22  2  0
 16 21  1  0
 17 18  1  0
 17 16  1  0
 19 18  1  0
 19 33  1  0
 19 20  1  0
 21 15  1  0
 21 20  1  0
 23 27  1  0
 25 28  1  0
 25 23  1  0
 26 24  1  0
 27 24  1  0
 27 15  1  0
 28 29  1  6
 28 26  1  0
 30 31  2  0
 31 32  1  0
 31 50  1  0
 32 35  1  0
 33 30  1  0
 33 34  1  0
 34 32  2  0
 35 36  1  0
 36 37  2  0
 38 41  1  0
 38 37  1  0
 39 38  2  0
 40 39  1  0
 40 35  2  0
 41 42  1  0
 42 43  1  0
 43 44  2  0
 45 44  1  0
 45 49  1  0
 46 45  2  0
 47 42  2  0
 47 46  1  0
 48 47  1  0
 50 51  1  0
 51 54  1  0
 51 53  1  0
 52 50  2  0
 55 56  1  0
 55 30  1  0
 57 55  1  0
 58 59  1  0
 59 61  1  0
 60 71  2  0
 61 66  1  0
 62 70  1  0
 62 72  1  0
 63 69  1  0
 63 65  1  0
 64 70  1  0
 65 64  1  0
 66 65  2  0
 67 68  1  0
 67 61  2  0
 68 63  2  0
 69 62  1  0
 70 60  1  0
 72 74  2  0
 73 72  1  0
 75 73  1  0
 76 85  2  0
 76 81  1  0
 77 73  1  0
 77 81  1  0
 78 77  1  0
 79 80  1  0
 79 78  1  0
 80 76  1  0
 81 82  2  0
 82 83  1  0
 84 83  2  0
 85 84  1  0
 86 60  1  0
 86 91  1  0
 86 87  1  0
 87 90  1  1
 87 88  1  0
 89 87  1  0
 91 94  1  0
 92 96  1  0
 92 91  1  0
 93 92  2  0
 96 95  1  0
 98 96  1  0
 98 99  1  0
 98 97  1  0
M  ISO  4  15 100  27 100  58 101  59 101
M  END
>  <TORSDO>  (95) 
F 19

>  <SCORE>  (95) 
-12.837

>  <name>  (95) 
94

>  <ligand_id>  (95) 
94

>  <original_smiles>  (95) 
[H]c1c([H])c([H])c2c(c1[H])C([H])([H])C([H])([H])C([H])([H])C2([H])N([H])C(=O)C1([H])N(C(=O)C([H])(N([H])C(=O)C([H])(N([H])C([H])([H])[H])C([H])([H])[H])C(C([H])([H])[H])(C([H])([H])[H])C([H])([H])[H])C([H])([H])c2c([H])c(OC([H])([H])c3c([H])c(C([H])([H])[H])c(C([H])([H])N4C([H])([H])C([H])([H])C([H])([N+]5([H])C([H])([H])C([H])([H])N(C(=O)N6C([H])([H])C([H])([H])C([H])([H])C([H])(n7nc(-c8c([H])c([H])c(Oc9c([H])c([H])c(F)c([H])c9F)c([H])c8[H])c(C(=O)N([H])[H])c7N([H])[H])C6([H])[H])C([H])([H])C5([H])[H])C4([H])[H])c(C([H])([H])[H])c3[H])c([H])c([H])c2C1([H])[H]

>  <smiles>  (95) 
[H]c1c([H])c([H])c2c(c1[H])C([H])([H])C([H])([H])C([H])([H])C2([H])N([H])C(=O)C1([H])N(C(=O)C([H])(N([H])C(=O)C([H])(N([H])C([H])([H])[H])C([H])([H])[H])C(C([H])([H])[H])(C([H])([H])[H])C([H])([H])[H])C([H])([H])c2c([H])c(OC([H])([H])c3c([H])c(C([H])([H])[H])c(C([H])([H])N4C([H])([H])C([H])([H])C([H])([N+]5([H])C([H])([H])C([H])([H])N(C(=O)N6C([H])([H])C([H])([H])C([H])([H])C([H])(n7nc(-c8c([H])c([H])c(Oc9c([H])c([H])c(F)c([H])c9F)c([H])c8[H])c(C(=O)N([H])[H])c7N([H])[H])C6([H])[H])C([H])([H])C5([H])[H])C4([H])[H])c(C([H])([H])[H])c3[H])c([H])c([H])c2C1([H])[H]

$$$$
95:0:0
     RDKit          3D

 93102  0  0  1  0  0  0  0  0999 V2000
  -27.9920  -22.9400   19.0370 C   0  0  0  0  0  3  0  0  0  0  0  0
  -28.3610  -21.6260   19.4350 C   0  0  0  0  0  3  0  0  0  0  0  0
  -29.4910  -22.5620   21.3470 C   0  0  0  0  0  3  0  0  0  0  0  0
  -28.3780  -24.0950   19.7690 C   0  0  0  0  0  0  0  0  0  0  0  0
  -29.1400  -21.4120   20.5970 C   0  0  0  0  0  0  0  0  0  0  0  0
  -29.1420  -23.8920   20.9480 C   0  0  0  0  0  0  0  0  0  0  0  0
  -30.1660  -24.8520   22.9060 C   0  0  0  0  0  1  0  0  0  0  0  0
  -29.5390  -25.0180   21.6420 O   0  0  0  0  0  0  0  0  0  0  0  0
  -28.1190  -25.5100   19.1640 C   0  0  0  0  0  2  0  0  0  0  0  0
  -27.9700  -26.6650   20.0450 O   0  0  0  0  0  0  0  0  0  0  0  0
  -24.4570  -32.0190   23.2480 C   0  0  0  0  0  0  0  0  0  0  0  0
  -26.8200  -27.4550   20.0440 C   0  0  0  0  0  0  0  0  0  0  0  0
  -23.1400  -30.6570   21.6610 C   0  0  0  0  0  3  0  0  0  0  0  0
  -24.4800  -29.0790   20.1640 C   0  0  0  0  0  0  0  0  0  0  0  0
  -25.6680  -30.9270   21.3530 C   0  0  0  0  0  2  0  0  0  0  0  0
  -25.6830  -29.5520   20.7040 C   0  0  0  0  0  0  0  0  0  0  0  0
  -26.8500  -28.7460   20.6410 C   0  0  0  0  0  3  0  0  0  0  0  0
  -25.5890  -27.0090   19.5110 C   0  0  0  0  0  3  0  0  0  0  0  0
  -24.4320  -27.8100   19.5650 C   0  0  0  0  0  3  0  0  0  0  0  0
  -23.2680  -29.9790   20.2710 C   0  0  0  0  0  2  0  0  0  0  0  0
  -24.4430  -31.2170   22.1440 N   0  0  0  0  0  0  0  0  0  0  0  0
  -23.4090  -32.3210   23.8360 O   0  0  0  0  0  0  0  0  0  0  0  0
  -22.5000  -29.6550   22.6500 C   0  0  0  0  0  0  0  0  0  0  0  0
  -21.1730  -29.4710   22.5470 N   0  0  0  0  0  0  0  0  0  0  0  0
  -23.1950  -29.0440   23.4650 O   0  0  0  0  0  0  0  0  0  0  0  0
  -20.6730  -30.0180   21.8600 H   0  0  0  0  0  0  0  0  0  0  0  0
  -17.8170  -28.2340   23.0720 C   0  0  0  0  0  0  0  0  0  0  0  0
  -20.3690  -28.5450   23.3440 C   0  0  0  0  0  3  0  0  0  0  0  0
  -20.4970  -27.0980   22.8140 C   0  0  0  0  0  2  0  0  0  0  0  0
  -19.4050  -26.7240   21.8080 C   0  0  0  0  0  2  0  0  0  0  0  0
  -18.0180  -26.8670   22.4410 C   0  0  0  0  0  2  0  0  0  0  0  0
  -18.9210  -29.0290   23.4810 C   0  0  0  0  0  0  0  0  0  0  0  0
  -18.6780  -30.3070   24.0290 C   0  0  0  0  0  3  0  0  0  0  0  0
  -17.3660  -30.7920   24.1730 C   0  0  0  0  0  3  0  0  0  0  0  0
  -16.2760  -29.9950   23.7810 C   0  0  0  0  0  3  0  0  0  0  0  0
  -16.5020  -28.7180   23.2360 C   0  0  0  0  0  3  0  0  0  0  0  0
  -25.7860  -32.6120   23.8110 C   0  0  0  0  0  3  0  0  0  0  0  0
  -26.3390  -31.8240   25.0630 C   0  0  1  0  0  0  0  0  0  0  0  0
  -25.2860  -31.6060   26.1740 C   0  0  0  0  0  1  0  0  0  0  0  0
  -26.8730  -30.4360   24.6400 C   0  0  0  0  0  1  0  0  0  0  0  0
  -27.5320  -32.5910   25.6800 C   0  0  0  0  0  1  0  0  0  0  0  0
  -25.5330  -34.0180   24.1550 N   0  0  0  0  0  0  0  0  0  0  0  0
  -25.8900  -35.0640   23.3960 C   0  0  0  0  0  0  0  0  0  0  0  0
  -26.5360  -34.9430   22.3520 O   0  0  0  0  0  0  0  0  0  0  0  0
  -24.9600  -34.1890   24.9680 H   0  0  0  0  0  0  0  0  0  0  0  0
  -24.2480  -36.9390   23.0530 C   0  0  0  0  0  1  0  0  0  0  0  0
  -25.4610  -36.4660   23.8700 C   0  0  0  0  0  3  0  0  0  0  0  0
  -27.6170  -37.2490   24.7460 C   0  0  0  0  0  1  0  0  0  0  0  0
  -26.5410  -37.4730   23.7850 N   0  0  0  0  0  0  0  0  0  0  0  0
  -26.1740  -38.4080   23.9310 H   0  0  0  0  0  0  0  0  0  0  0  0
  -29.5480  -20.1640   21.0840 O   0  0  0  0  0  0  0  0  0  0  0  0
  -30.6690  -14.7530   20.1100 C   0  0  0  0  0  0  0  0  0  0  0  0
  -30.3390  -12.5310   19.0450 C   0  0  0  0  0  2  0  0  0  0  0  0
  -29.3430  -12.6330   17.8710 C   0  0  0  0  0  2  0  0  0  0  0  0
  -27.9000  -12.4440   18.3730 C   0  0  0  0  0  2  0  0  0  0  0  0
  -27.5880  -13.3180   19.6160 C   0  0  0  0  0  3  0  0  0  0  0  0
  -28.7040  -13.2200   20.6840 C   0  0  0  0  0  2  0  0  0  0  0  0
  -29.9720  -13.5710   20.0330 N   0  0  0  0  0  0  0  0  0  0  0  0
  -31.8120  -14.8150   19.6480 O   0  0  0  0  0  0  0  0  0  0  0  0
  -30.9700  -18.2760   20.4120 C   0  0  0  0  0  2  0  0  0  0  0  0
  -28.5020  -17.9380   20.7170 C   0  0  0  0  0  2  0  0  0  0  0  0
  -30.9810  -16.9500   21.2390 C   0  0  0  0  0  2  0  0  0  0  0  0
  -28.7780  -16.4460   20.3060 C   0  0  0  0  0  2  0  0  0  0  0  0
  -29.5810  -18.9570   20.2730 C   0  0  0  0  0  3  0  0  0  0  0  0
  -30.1080  -15.8880   20.6730 N   0  0  0  0  0  0  0  0  0  0  0  0
  -25.2440  -13.9030   20.4860 C   0  0  0  0  0  0  0  0  0  0  0  0
  -24.2000  -13.1200   20.8950 C   0  0  0  0  0  0  0  0  0  0  0  0
  -24.6580  -11.7710   20.8000 C   0  0  0  0  0  0  0  0  0  0  0  0
  -26.2730  -13.0280   20.1710 N   0  0  0  0  0  0  0  0  0  0  0  0
  -25.9300  -11.7400   20.4210 N   0  0  0  0  0  0  0  0  0  0  0  0
  -23.9440  -10.5030   20.9890 C   0  0  0  0  0  0  0  0  0  0  0  0
  -24.3920   -9.5330   21.9120 C   0  0  0  0  0  3  0  0  0  0  0  0
  -23.6750   -8.3310   22.0910 C   0  0  0  0  0  3  0  0  0  0  0  0
  -22.4960   -8.0900   21.3450 C   0  0  0  0  0  0  0  0  0  0  0  0
  -22.0690   -9.0480   20.4100 C   0  0  0  0  0  3  0  0  0  0  0  0
  -22.7850  -10.2420   20.2300 C   0  0  0  0  0  3  0  0  0  0  0  0
  -21.7500   -6.9400   21.4350 O   0  0  0  0  0  0  0  0  0  0  0  0
  -21.6750   -6.2200   22.5990 C   0  0  0  0  0  0  0  0  0  0  0  0
  -21.1450   -6.7730   23.7860 C   0  0  0  0  0  3  0  0  0  0  0  0
  -21.0250   -5.9740   24.9410 C   0  0  0  0  0  3  0  0  0  0  0  0
  -21.4210   -4.6240   24.9100 C   0  0  0  0  0  0  0  0  0  0  0  0
  -21.9440   -4.0710   23.7270 C   0  0  0  0  0  3  0  0  0  0  0  0
  -22.0680   -4.8660   22.5740 C   0  0  0  0  0  0  0  0  0  0  0  0
  -22.5520   -4.3220   21.4320 F   0  0  0  0  0  0  0  0  0  0  0  0
  -21.2990   -3.8550   26.0160 F   0  0  0  0  0  0  0  0  0  0  0  0
  -22.8210  -13.5900   21.2550 C   0  0  0  0  0  0  0  0  0  0  0  0
  -22.1410  -12.8710   22.1410 N   0  0  0  0  0  0  0  0  0  0  0  0
  -22.3570  -14.6290   20.7870 O   0  0  0  0  0  0  0  0  0  0  0  0
  -22.5300  -12.0310   22.5430 H   0  0  0  0  0  0  0  0  0  0  0  0
  -21.2170  -13.1670   22.4240 H   0  0  0  0  0  0  0  0  0  0  0  0
  -25.3920  -15.2770   20.3310 N   0  0  0  0  0  0  0  0  0  0  0  0
  -24.6240  -15.9180   20.4960 H   0  0  0  0  0  0  0  0  0  0  0  0
  -26.2070  -15.7290   19.9400 H   0  0  0  0  0  0  0  0  0  0  0  0
  1  2  2  0
  1  4  1  0
  2  5  1  0
  4  6  2  0
  5 51  1  0
  5  3  2  0
  6  3  1  0
  6  8  1  0
  8  7  1  0
  9  4  1  0
  9 10  1  0
 11 22  2  0
 12 10  1  0
 12 17  1  0
 13 21  1  0
 13 23  1  0
 14 20  1  0
 14 16  1  0
 15 21  1  0
 16 15  1  0
 17 16  2  0
 18 19  1  0
 18 12  2  0
 19 14  2  0
 20 13  1  0
 21 11  1  0
 23 25  2  0
 24 23  1  0
 26 24  1  0
 27 36  2  0
 27 32  1  0
 28 24  1  0
 28 32  1  0
 29 28  1  0
 30 31  1  0
 30 29  1  0
 31 27  1  0
 32 33  2  0
 33 34  1  0
 35 34  2  0
 36 35  1  0
 37 11  1  0
 37 42  1  0
 37 38  1  0
 38 41  1  1
 38 39  1  0
 40 38  1  0
 42 45  1  0
 43 47  1  0
 43 42  1  0
 44 43  2  0
 47 46  1  0
 49 47  1  0
 49 50  1  0
 49 48  1  0
 52 65  1  0
 53 58  1  0
 54 55  1  0
 54 53  1  0
 56 55  1  0
 56 69  1  0
 56 57  1  0
 58 52  1  0
 58 57  1  0
 59 52  2  0
 60 62  1  0
 63 65  1  0
 63 61  1  0
 64 60  1  0
 64 61  1  0
 64 51  1  0
 65 62  1  0
 66 67  2  0
 67 86  1  0
 68 67  1  0
 68 71  1  0
 69 70  1  0
 69 66  1  0
 70 68  2  0
 71 72  1  0
 72 73  2  0
 74 77  1  0
 74 73  1  0
 75 74  2  0
 76 75  1  0
 76 71  2  0
 77 78  1  0
 78 79  1  0
 79 80  2  0
 81 80  1  0
 81 85  1  0
 82 81  2  0
 83 78  2  0
 83 82  1  0
 84 83  1  0
 86 87  1  0
 87 90  1  0
 87 89  1  0
 88 86  2  0
 91 66  1  0
 91 92  1  0
 93 91  1  0
M  ISO  4   9 101  10 101  52 100  65 100
M  END
>  <TORSDO>  (96) 
F 19

>  <SCORE>  (96) 
-13.854

>  <name>  (96) 
95

>  <ligand_id>  (96) 
95

>  <original_smiles>  (96) 
[H]c1c([H])c([H])c2c(c1[H])C([H])([H])C([H])([H])C([H])([H])C2([H])N([H])C(=O)C1([H])N(C(=O)C([H])(N([H])C(=O)C([H])(N([H])C([H])([H])[H])C([H])([H])[H])C(C([H])([H])[H])(C([H])([H])[H])C([H])([H])[H])C([H])([H])c2c([H])c(OC([H])([H])c3c([H])c([H])c(OC4([H])C([H])([H])C([H])([H])N(C(=O)N5C([H])([H])C([H])([H])C([H])([H])C([H])(n6nc(-c7c([H])c([H])c(Oc8c([H])c([H])c(F)c([H])c8F)c([H])c7[H])c(C(=O)N([H])[H])c6N([H])[H])C5([H])[H])C([H])([H])C4([H])[H])c([H])c3OC([H])([H])[H])c([H])c([H])c2C1([H])[H]

>  <smiles>  (96) 
[H]c1c([H])c([H])c2c(c1[H])C([H])([H])C([H])([H])C([H])([H])C2([H])N([H])C(=O)C1([H])N(C(=O)C([H])(N([H])C(=O)C([H])(N([H])C([H])([H])[H])C([H])([H])[H])C(C([H])([H])[H])(C([H])([H])[H])C([H])([H])[H])C([H])([H])c2c([H])c(OC([H])([H])c3c([H])c([H])c(OC4([H])C([H])([H])C([H])([H])N(C(=O)N5C([H])([H])C([H])([H])C([H])([H])C([H])(n6nc(-c7c([H])c([H])c(Oc8c([H])c([H])c(F)c([H])c8F)c([H])c7[H])c(C(=O)N([H])[H])c6N([H])[H])C5([H])[H])C([H])([H])C4([H])[H])c([H])c3OC([H])([H])[H])c([H])c([H])c2C1([H])[H]

$$$$
96:0:0
     RDKit          3D

 94103  0  0  1  0  0  0  0  0999 V2000
  -30.2640  -19.2650   21.9560 C   0  0  0  0  0  3  0  0  0  0  0  0
  -28.4110  -19.3840   19.8260 C   0  0  0  0  0  3  0  0  0  0  0  0
  -29.6150  -20.4700   21.6320 C   0  0  0  0  0  0  0  0  0  0  0  0
  -28.7100  -20.5250   20.5880 C   0  0  0  0  0  0  0  0  0  0  0  0
  -29.9860  -18.0860   21.2100 C   0  0  0  0  0  0  0  0  0  0  0  0
  -29.0550  -18.1460   20.1220 C   0  0  0  0  0  0  0  0  0  0  0  0
  -29.7630  -21.8200   22.3020 C   0  0  0  0  0  2  0  0  0  0  0  0
  -28.1440  -21.9140   20.4140 C   0  0  0  0  0  2  0  0  0  0  0  0
  -28.6780  -22.7140   21.6330 C   0  0  0  0  0  3  0  0  0  0  0  0
  -27.9730  -17.0970   18.2380 C   0  0  0  0  0  1  0  0  0  0  0  0
  -28.8140  -17.0050   19.3840 O   0  0  0  0  0  0  0  0  0  0  0  0
  -30.7660  -16.8190   21.6210 C   0  0  0  0  0  2  0  0  0  0  0  0
  -30.8290  -14.6300   20.3850 C   0  0  0  0  0  0  0  0  0  0  0  0
  -30.4830  -12.5690   19.0640 C   0  0  0  0  0  2  0  0  0  0  0  0
  -29.5020  -12.8440   17.9070 C   0  0  0  0  0  2  0  0  0  0  0  0
  -28.0420  -12.6790   18.3750 C   0  0  0  0  0  2  0  0  0  0  0  0
  -27.7480  -13.4350   19.6990 C   0  0  0  0  0  3  0  0  0  0  0  0
  -28.8320  -13.1280   20.7540 C   0  0  0  0  0  2  0  0  0  0  0  0
  -30.1400  -13.4760   20.1700 N   0  0  0  0  0  0  0  0  0  0  0  0
  -31.8950  -14.8870   19.8190 O   0  0  0  0  0  0  0  0  0  0  0  0
  -30.2440  -15.5040   21.2220 N   0  0  0  0  0  0  0  0  0  0  0  0
  -29.3620  -15.2260   21.6230 H   0  0  0  0  0  0  0  0  0  0  0  0
  -25.3540  -14.0100   20.4480 C   0  0  0  0  0  0  0  0  0  0  0  0
  -24.3020  -13.2220   20.8310 C   0  0  0  0  0  0  0  0  0  0  0  0
  -24.7790  -11.8770   20.7810 C   0  0  0  0  0  0  0  0  0  0  0  0
  -26.4070  -13.1440   20.1950 N   0  0  0  0  0  0  0  0  0  0  0  0
  -26.0640  -11.8560   20.4480 N   0  0  0  0  0  0  0  0  0  0  0  0
  -24.0730  -10.6040   20.9730 C   0  0  0  0  0  0  0  0  0  0  0  0
  -24.5070   -9.6550   21.9250 C   0  0  0  0  0  3  0  0  0  0  0  0
  -23.8000   -8.4470   22.1020 C   0  0  0  0  0  3  0  0  0  0  0  0
  -22.6450   -8.1790   21.3300 C   0  0  0  0  0  0  0  0  0  0  0  0
  -22.2310   -9.1180   20.3690 C   0  0  0  0  0  3  0  0  0  0  0  0
  -22.9390  -10.3180   20.1880 C   0  0  0  0  0  3  0  0  0  0  0  0
  -21.9100   -7.0210   21.4160 O   0  0  0  0  0  0  0  0  0  0  0  0
  -21.8220   -6.3120   22.5870 C   0  0  0  0  0  0  0  0  0  0  0  0
  -21.3020   -6.8850   23.7680 C   0  0  0  0  0  3  0  0  0  0  0  0
  -21.1650   -6.1000   24.9300 C   0  0  0  0  0  3  0  0  0  0  0  0
  -21.5370   -4.7420   24.9100 C   0  0  0  0  0  0  0  0  0  0  0  0
  -22.0490   -4.1680   23.7340 C   0  0  0  0  0  3  0  0  0  0  0  0
  -22.1880   -4.9500   22.5750 C   0  0  0  0  0  0  0  0  0  0  0  0
  -22.6620   -4.3880   21.4380 F   0  0  0  0  0  0  0  0  0  0  0  0
  -21.3980   -3.9850   26.0230 F   0  0  0  0  0  0  0  0  0  0  0  0
  -22.9050  -13.6800   21.1350 C   0  0  0  0  0  0  0  0  0  0  0  0
  -22.2010  -12.9660   22.0050 N   0  0  0  0  0  0  0  0  0  0  0  0
  -22.4450  -14.7090   20.6380 O   0  0  0  0  0  0  0  0  0  0  0  0
  -22.5840  -12.1320   22.4280 H   0  0  0  0  0  0  0  0  0  0  0  0
  -21.2640  -13.2530   22.2520 H   0  0  0  0  0  0  0  0  0  0  0  0
  -25.5000  -15.3830   20.2780 N   0  0  0  0  0  0  0  0  0  0  0  0
  -24.7270  -16.0280   20.3970 H   0  0  0  0  0  0  0  0  0  0  0  0
  -26.3540  -15.8340   19.9780 H   0  0  0  0  0  0  0  0  0  0  0  0
  -29.1810  -23.9920   21.2200 O   0  0  0  0  0  0  0  0  0  0  0  0
  -28.6510  -25.0960   21.9620 C   0  0  0  0  0  2  0  0  0  0  0  0
  -29.2400  -26.4420   21.4840 C   0  0  0  0  0  2  0  0  0  0  0  0
  -28.6740  -26.8600   20.2400 O   0  0  0  0  0  0  0  0  0  0  0  0
  -24.6890  -31.9590   23.3020 C   0  0  0  0  0  0  0  0  0  0  0  0
  -27.5030  -27.5790   20.2960 C   0  0  0  0  0  0  0  0  0  0  0  0
  -23.5500  -30.5280   21.6340 C   0  0  0  0  0  3  0  0  0  0  0  0
  -25.0700  -29.0180   20.2480 C   0  0  0  0  0  0  0  0  0  0  0  0
  -26.0670  -30.9460   21.4900 C   0  0  0  0  0  2  0  0  0  0  0  0
  -26.1990  -29.5720   20.8670 C   0  0  0  0  0  0  0  0  0  0  0  0
  -27.4150  -28.8560   20.9000 C   0  0  0  0  0  3  0  0  0  0  0  0
  -26.3630  -27.0420   19.6620 C   0  0  0  0  0  3  0  0  0  0  0  0
  -25.1440  -27.7480   19.6460 C   0  0  0  0  0  3  0  0  0  0  0  0
  -23.8050  -29.8490   20.2630 C   0  0  0  0  0  2  0  0  0  0  0  0
  -24.7850  -31.1590   22.2020 N   0  0  0  0  0  0  0  0  0  0  0  0
  -23.5910  -32.2080   23.8180 O   0  0  0  0  0  0  0  0  0  0  0  0
  -22.8990  -29.4940   22.5800 C   0  0  0  0  0  0  0  0  0  0  0  0
  -21.5780  -29.3000   22.4360 N   0  0  0  0  0  0  0  0  0  0  0  0
  -23.5810  -28.8690   23.3960 O   0  0  0  0  0  0  0  0  0  0  0  0
  -21.0910  -29.8550   21.7460 H   0  0  0  0  0  0  0  0  0  0  0  0
  -18.2040  -28.0980   22.9100 C   0  0  0  0  0  0  0  0  0  0  0  0
  -20.7620  -28.3480   23.1870 C   0  0  0  0  0  3  0  0  0  0  0  0
  -20.8650  -26.9280   22.5870 C   0  0  0  0  0  2  0  0  0  0  0  0
  -19.7650  -26.6240   21.5660 C   0  0  0  0  0  2  0  0  0  0  0  0
  -18.3820  -26.7590   22.2100 C   0  0  0  0  0  2  0  0  0  0  0  0
  -19.3230  -28.8500   23.3550 C   0  0  0  0  0  0  0  0  0  0  0  0
  -19.1060  -30.1040   23.9650 C   0  0  0  0  0  3  0  0  0  0  0  0
  -17.8030  -30.6060   24.1370 C   0  0  0  0  0  3  0  0  0  0  0  0
  -16.6980  -29.8480   23.7110 C   0  0  0  0  0  3  0  0  0  0  0  0
  -16.8990  -28.5960   23.1030 C   0  0  0  0  0  3  0  0  0  0  0  0
  -25.9490  -32.6180   23.9470 C   0  0  0  0  0  3  0  0  0  0  0  0
  -25.6070  -34.0110   24.2620 N   0  0  0  0  0  0  0  0  0  0  0  0
  -25.9340  -35.0640   23.5000 C   0  0  0  0  0  0  0  0  0  0  0  0
  -26.6260  -34.9630   22.4840 O   0  0  0  0  0  0  0  0  0  0  0  0
  -25.0030  -34.1600   25.0570 H   0  0  0  0  0  0  0  0  0  0  0  0
  -24.1800  -36.8170   23.0920 C   0  0  0  0  0  1  0  0  0  0  0  0
  -25.4110  -36.4460   23.9330 C   0  0  0  0  0  3  0  0  0  0  0  0
  -27.5080  -37.3810   24.8070 C   0  0  0  0  0  1  0  0  0  0  0  0
  -26.4260  -37.5190   23.8350 N   0  0  0  0  0  0  0  0  0  0  0  0
  -25.9970  -38.4320   23.9670 H   0  0  0  0  0  0  0  0  0  0  0  0
  -26.4520  -31.8600   25.2370 C   0  0  1  0  0  0  0  0  0  0  0  0
  -25.3360  -31.5870   26.2730 C   0  0  0  0  0  1  0  0  0  0  0  0
  -27.0840  -30.5010   24.8550 C   0  0  0  0  0  1  0  0  0  0  0  0
  -27.5620  -32.6850   25.9310 C   0  0  0  0  0  1  0  0  0  0  0  0
  2  6  2  0
  2  4  1  0
  3  1  1  0
  3  7  1  0
  4  3  2  0
  5 12  1  0
  5  1  2  0
  6  5  1  0
  8  4  1  0
  8  9  1  0
  9 51  1  0
  9  7  1  0
 10 11  1  0
 11  6  1  0
 13 21  1  0
 14 19  1  0
 15 16  1  0
 15 14  1  0
 17 16  1  0
 17 26  1  0
 17 18  1  0
 19 13  1  0
 19 18  1  0
 20 13  2  0
 21 12  1  0
 21 22  1  0
 23 24  2  0
 24 43  1  0
 25 24  1  0
 25 28  1  0
 26 23  1  0
 26 27  1  0
 27 25  2  0
 28 29  1  0
 29 30  2  0
 31 34  1  0
 31 30  1  0
 32 31  2  0
 33 32  1  0
 33 28  2  0
 34 35  1  0
 35 36  1  0
 36 37  2  0
 38 37  1  0
 38 42  1  0
 39 38  2  0
 40 35  2  0
 40 39  1  0
 41 40  1  0
 43 44  1  0
 44 47  1  0
 44 46  1  0
 45 43  2  0
 48 49  1  0
 48 23  1  0
 50 48  1  0
 51 52  1  0
 53 52  1  0
 54 56  1  0
 54 53  1  0
 55 66  2  0
 56 61  1  0
 57 65  1  0
 57 67  1  0
 58 64  1  0
 58 60  1  0
 59 65  1  0
 60 61  2  0
 60 59  1  0
 62 56  2  0
 63 62  1  0
 63 58  2  0
 64 57  1  0
 65 55  1  0
 67 69  2  0
 68 67  1  0
 70 68  1  0
 71 80  2  0
 71 76  1  0
 72 68  1  0
 72 76  1  0
 73 72  1  0
 74 75  1  0
 74 73  1  0
 75 71  1  0
 76 77  2  0
 77 78  1  0
 79 78  2  0
 80 79  1  0
 81 55  1  0
 81 82  1  0
 81 91  1  0
 82 85  1  0
 83 87  1  0
 83 82  1  0
 84 83  2  0
 87 86  1  0
 89 87  1  0
 89 90  1  0
 89 88  1  0
 91 94  1  1
 91 92  1  0
 93 91  1  0
M  ISO  4  13 100  21 100  53 101  54 101
M  END
>  <TORSDO>  (97) 
F 21

>  <SCORE>  (97) 
-13.395

>  <name>  (97) 
96

>  <ligand_id>  (97) 
96

>  <original_smiles>  (97) 
[H]c1c([H])c([H])c2c(c1[H])C([H])([H])C([H])([H])C([H])([H])C2([H])N([H])C(=O)C1([H])N(C(=O)C([H])(N([H])C(=O)C([H])(N([H])C([H])([H])[H])C([H])([H])[H])C(C([H])([H])[H])(C([H])([H])[H])C([H])([H])[H])C([H])([H])c2c([H])c(OC([H])([H])C([H])([H])OC3([H])C([H])([H])c4c([H])c(OC([H])([H])[H])c(C([H])([H])N([H])C(=O)N5C([H])([H])C([H])([H])C([H])([H])C([H])(n6nc(-c7c([H])c([H])c(Oc8c([H])c([H])c(F)c([H])c8F)c([H])c7[H])c(C(=O)N([H])[H])c6N([H])[H])C5([H])[H])c([H])c4C3([H])[H])c([H])c([H])c2C1([H])[H]

>  <smiles>  (97) 
[H]c1c([H])c([H])c2c(c1[H])C([H])([H])C([H])([H])C([H])([H])C2([H])N([H])C(=O)C1([H])N(C(=O)C([H])(N([H])C(=O)C([H])(N([H])C([H])([H])[H])C([H])([H])[H])C(C([H])([H])[H])(C([H])([H])[H])C([H])([H])[H])C([H])([H])c2c([H])c(OC([H])([H])C([H])([H])OC3([H])C([H])([H])c4c([H])c(OC([H])([H])[H])c(C([H])([H])N([H])C(=O)N5C([H])([H])C([H])([H])C([H])([H])C([H])(n6nc(-c7c([H])c([H])c(Oc8c([H])c([H])c(F)c([H])c8F)c([H])c7[H])c(C(=O)N([H])[H])c6N([H])[H])C5([H])[H])c([H])c4C3([H])[H])c([H])c([H])c2C1([H])[H]

$$$$
97:0:0
     RDKit          3D

 96106  0  0  1  0  0  0  0  0999 V2000
  -30.8350  -23.2040   20.8620 C   0  0  0  0  0  3  0  0  0  0  0  0
  -30.2780  -24.4730   20.6100 C   0  0  0  0  0  3  0  0  0  0  0  0
  -29.4010  -22.3310   19.1330 C   0  0  0  0  0  3  0  0  0  0  0  0
  -30.4240  -22.1030   20.0780 C   0  0  0  0  0  0  0  0  0  0  0  0
  -29.3200  -24.6110   19.5880 C   0  0  0  0  0  0  0  0  0  0  0  0
  -28.8610  -23.5480   18.8910 N   0  0  0  0  0  0  0  0  0  0  0  0
  -33.0810  -20.6190   21.6060 C   0  0  0  0  0  2  0  0  0  0  0  0
  -32.6740  -20.8840   20.1560 C   0  0  0  0  0  2  0  0  0  0  0  0
  -31.7900  -20.2140   22.3280 C   0  0  0  0  0  2  0  0  0  0  0  0
  -31.1420  -20.7400   20.1190 C   0  0  0  0  0  3  0  0  0  0  0  0
  -30.7890  -19.8730   21.2820 N   0  0  1  0  0  4  0  0  0  0  0  0
  -29.8790  -20.1350   21.6340 H   0  0  0  0  0  0  0  0  0  0  0  0
  -30.6900  -14.5510   20.1150 C   0  0  0  0  0  0  0  0  0  0  0  0
  -30.3040  -12.4380   18.9100 C   0  0  0  0  0  2  0  0  0  0  0  0
  -29.2920  -12.6910   17.7750 C   0  0  0  0  0  2  0  0  0  0  0  0
  -27.8460  -12.5350   18.2870 C   0  0  0  0  0  2  0  0  0  0  0  0
  -27.5870  -13.3200   19.6000 C   0  0  0  0  0  3  0  0  0  0  0  0
  -28.7100  -13.0730   20.6340 C   0  0  0  0  0  2  0  0  0  0  0  0
  -29.9980  -13.3870   19.9900 N   0  0  0  0  0  0  0  0  0  0  0  0
  -31.7940  -14.7360   19.5930 O   0  0  0  0  0  0  0  0  0  0  0  0
  -29.4280  -18.0580   20.1460 C   0  0  0  0  0  2  0  0  0  0  0  0
  -30.8080  -17.4260   22.1310 C   0  0  0  0  0  2  0  0  0  0  0  0
  -29.5340  -16.6290   19.5730 C   0  0  0  0  0  2  0  0  0  0  0  0
  -30.0710  -16.0670   21.9490 C   0  0  0  0  0  2  0  0  0  0  0  0
  -30.7080  -18.4090   20.9290 C   0  0  0  0  0  3  0  0  0  0  0  0
  -29.9700  -15.6110   20.5530 N   0  0  0  0  0  0  0  0  0  0  0  0
  -25.2330  -13.9010   20.4610 C   0  0  0  0  0  0  0  0  0  0  0  0
  -24.1900  -13.1140   20.8660 C   0  0  0  0  0  0  0  0  0  0  0  0
  -24.6520  -11.7660   20.7720 C   0  0  0  0  0  0  0  0  0  0  0  0
  -26.2660  -13.0300   20.1490 N   0  0  0  0  0  0  0  0  0  0  0  0
  -25.9230  -11.7400   20.3930 N   0  0  0  0  0  0  0  0  0  0  0  0
  -23.9430  -10.4960   20.9700 C   0  0  0  0  0  0  0  0  0  0  0  0
  -24.4030   -9.5290   21.8900 C   0  0  0  0  0  3  0  0  0  0  0  0
  -23.6940   -8.3220   22.0730 C   0  0  0  0  0  3  0  0  0  0  0  0
  -22.5110   -8.0750   21.3370 C   0  0  0  0  0  0  0  0  0  0  0  0
  -22.0710   -9.0310   20.4050 C   0  0  0  0  0  3  0  0  0  0  0  0
  -22.7800  -10.2290   20.2190 C   0  0  0  0  0  3  0  0  0  0  0  0
  -21.7720   -6.9210   21.4320 O   0  0  0  0  0  0  0  0  0  0  0  0
  -21.7100   -6.2000   22.5970 C   0  0  0  0  0  0  0  0  0  0  0  0
  -21.2310   -6.7660   23.7990 C   0  0  0  0  0  3  0  0  0  0  0  0
  -21.1190   -5.9690   24.9570 C   0  0  0  0  0  3  0  0  0  0  0  0
  -21.4730   -4.6080   24.9130 C   0  0  0  0  0  0  0  0  0  0  0  0
  -21.9450   -4.0410   23.7150 C   0  0  0  0  0  3  0  0  0  0  0  0
  -22.0600   -4.8340   22.5600 C   0  0  0  0  0  0  0  0  0  0  0  0
  -22.4950   -4.2790   21.4040 F   0  0  0  0  0  0  0  0  0  0  0  0
  -21.3580   -3.8400   26.0210 F   0  0  0  0  0  0  0  0  0  0  0  0
  -22.8090  -13.5760   21.2330 C   0  0  0  0  0  0  0  0  0  0  0  0
  -22.1340  -12.8510   22.1170 N   0  0  0  0  0  0  0  0  0  0  0  0
  -22.3390  -14.6150   20.7710 O   0  0  0  0  0  0  0  0  0  0  0  0
  -22.5280  -12.0090   22.5110 H   0  0  0  0  0  0  0  0  0  0  0  0
  -21.2110  -13.1430   22.4050 H   0  0  0  0  0  0  0  0  0  0  0  0
  -25.3840  -15.2770   20.3130 N   0  0  0  0  0  0  0  0  0  0  0  0
  -24.6280  -15.9300   20.4930 H   0  0  0  0  0  0  0  0  0  0  0  0
  -26.2280  -15.7270   19.9870 H   0  0  0  0  0  0  0  0  0  0  0  0
  -28.8490  -25.9920   19.1360 C   0  0  0  0  0  2  0  0  0  0  0  0
  -28.4860  -26.8560   20.2190 O   0  0  0  0  0  0  0  0  0  0  0  0
  -24.6010  -31.9510   23.2720 C   0  0  0  0  0  0  0  0  0  0  0  0
  -27.2880  -27.5400   20.1830 C   0  0  0  0  0  0  0  0  0  0  0  0
  -23.4090  -30.5470   21.6210 C   0  0  0  0  0  3  0  0  0  0  0  0
  -24.8750  -29.0210   20.2000 C   0  0  0  0  0  0  0  0  0  0  0  0
  -25.9320  -30.9210   21.4350 C   0  0  0  0  0  2  0  0  0  0  0  0
  -26.0270  -29.5520   20.7940 C   0  0  0  0  0  0  0  0  0  0  0  0
  -27.2300  -28.8140   20.7900 C   0  0  0  0  0  3  0  0  0  0  0  0
  -26.1080  -27.0080   19.6110 C   0  0  0  0  0  3  0  0  0  0  0  0
  -24.9100  -27.7460   19.6110 C   0  0  0  0  0  3  0  0  0  0  0  0
  -23.6270  -29.8720   20.2410 C   0  0  0  0  0  2  0  0  0  0  0  0
  -24.6660  -31.1540   22.1680 N   0  0  0  0  0  0  0  0  0  0  0  0
  -23.5170  -32.2170   23.8080 O   0  0  0  0  0  0  0  0  0  0  0  0
  -22.7600  -29.5210   22.5760 C   0  0  0  0  0  0  0  0  0  0  0  0
  -21.4400  -29.3180   22.4290 N   0  0  0  0  0  0  0  0  0  0  0  0
  -23.4410  -28.9070   23.4020 O   0  0  0  0  0  0  0  0  0  0  0  0
  -20.9530  -29.8650   21.7330 H   0  0  0  0  0  0  0  0  0  0  0  0
  -18.0790  -28.0700   22.8680 C   0  0  0  0  0  0  0  0  0  0  0  0
  -20.6250  -28.3730   23.1910 C   0  0  0  0  0  3  0  0  0  0  0  0
  -20.7650  -26.9400   22.6280 C   0  0  0  0  0  2  0  0  0  0  0  0
  -19.6890  -26.5900   21.5940 C   0  0  0  0  0  2  0  0  0  0  0  0
  -18.2920  -26.7180   22.2080 C   0  0  0  0  0  2  0  0  0  0  0  0
  -19.1750  -28.8540   23.3150 C   0  0  0  0  0  0  0  0  0  0  0  0
  -18.9240  -30.1190   23.8880 C   0  0  0  0  0  3  0  0  0  0  0  0
  -17.6080  -30.6000   24.0220 C   0  0  0  0  0  3  0  0  0  0  0  0
  -16.5250  -29.8130   23.5920 C   0  0  0  0  0  3  0  0  0  0  0  0
  -16.7620  -28.5500   23.0210 C   0  0  0  0  0  3  0  0  0  0  0  0
  -25.8820  -32.5870   23.8980 C   0  0  0  0  0  3  0  0  0  0  0  0
  -25.5760  -33.9900   24.2050 N   0  0  0  0  0  0  0  0  0  0  0  0
  -25.9080  -35.0280   23.4270 C   0  0  0  0  0  0  0  0  0  0  0  0
  -26.5770  -34.9070   22.3970 O   0  0  0  0  0  0  0  0  0  0  0  0
  -24.9830  -34.1580   25.0050 H   0  0  0  0  0  0  0  0  0  0  0  0
  -24.1730  -36.8090   23.0470 C   0  0  0  0  0  1  0  0  0  0  0  0
  -25.4180  -36.4240   23.8610 C   0  0  0  0  0  3  0  0  0  0  0  0
  -27.5550  -37.3290   24.6640 C   0  0  0  0  0  1  0  0  0  0  0  0
  -26.4470  -37.4790   23.7230 N   0  0  0  0  0  0  0  0  0  0  0  0
  -26.0390  -38.3980   23.8610 H   0  0  0  0  0  0  0  0  0  0  0  0
  -26.3860  -31.8290   25.1880 C   0  0  1  0  0  0  0  0  0  0  0  0
  -25.2800  -31.6030   26.2460 C   0  0  0  0  0  1  0  0  0  0  0  0
  -26.9730  -30.4480   24.8140 C   0  0  0  0  0  1  0  0  0  0  0  0
  -27.5280  -32.6310   25.8560 C   0  0  0  0  0  1  0  0  0  0  0  0
  2  1  1  0
  3  4  1  0
  4  1  2  0
  5  2  2  0
  6  3  2  0
  6  5  1  0
  7  9  1  0
  8  7  1  0
 10  4  1  0
 10  8  1  0
 10 11  1  0
 11 12  1  1
 11  9  1  0
 13 26  1  0
 14 19  1  0
 15 16  1  0
 15 14  1  0
 17 16  1  0
 17 30  1  0
 17 18  1  0
 19 13  1  0
 19 18  1  0
 20 13  2  0
 23 21  1  0
 23 26  1  0
 24 22  1  0
 25 21  1  0
 25 11  1  0
 25 22  1  0
 26 24  1  0
 27 28  2  0
 28 47  1  0
 29 28  1  0
 29 32  1  0
 30 31  1  0
 30 27  1  0
 31 29  2  0
 32 33  1  0
 33 34  2  0
 35 38  1  0
 35 34  1  0
 36 35  2  0
 37 36  1  0
 37 32  2  0
 38 39  1  0
 39 40  1  0
 40 41  2  0
 42 41  1  0
 42 46  1  0
 43 42  2  0
 44 39  2  0
 44 43  1  0
 45 44  1  0
 47 48  1  0
 48 51  1  0
 48 50  1  0
 49 47  2  0
 52 27  1  0
 52 53  1  0
 54 52  1  0
 55  5  1  0
 55 56  1  0
 57 68  2  0
 58 56  1  0
 58 63  1  0
 59 67  1  0
 59 69  1  0
 60 66  1  0
 60 62  1  0
 61 67  1  0
 62 61  1  0
 63 62  2  0
 64 58  2  0
 65 64  1  0
 65 60  2  0
 66 59  1  0
 67 57  1  0
 69 71  2  0
 70 69  1  0
 72 70  1  0
 73 82  2  0
 73 78  1  0
 74 70  1  0
 74 78  1  0
 75 74  1  0
 76 77  1  0
 76 75  1  0
 77 73  1  0
 78 79  2  0
 79 80  1  0
 81 80  2  0
 82 81  1  0
 83 57  1  0
 83 84  1  0
 83 93  1  0
 84 87  1  0
 85 89  1  0
 85 84  1  0
 86 85  2  0
 89 88  1  0
 91 89  1  0
 91 92  1  0
 91 90  1  0
 93 96  1  1
 93 94  1  0
 95 93  1  0
M  ISO  4  13 100  26 100  55 101  56 101
M  END
>  <TORSDO>  (98) 
F 18

>  <SCORE>  (98) 
-14.932

>  <name>  (98) 
97

>  <ligand_id>  (98) 
97

>  <original_smiles>  (98) 
[H]c1nc(C([H])([H])Oc2c([H])c([H])c3c(c2[H])C([H])([H])N(C(=O)C([H])(N([H])C(=O)C([H])(N([H])C([H])([H])[H])C([H])([H])[H])C(C([H])([H])[H])(C([H])([H])[H])C([H])([H])[H])C([H])(C(=O)N([H])C2([H])c4c([H])c([H])c([H])c([H])c4C([H])([H])C([H])([H])C2([H])[H])C3([H])[H])c([H])c([H])c1C1([H])C([H])([H])C([H])([H])C([H])([H])[N+]1([H])C1([H])C([H])([H])C([H])([H])N(C(=O)N2C([H])([H])C([H])([H])C([H])([H])C([H])(n3nc(-c4c([H])c([H])c(Oc5c([H])c([H])c(F)c([H])c5F)c([H])c4[H])c(C(=O)N([H])[H])c3N([H])[H])C2([H])[H])C([H])([H])C1([H])[H]

>  <smiles>  (98) 
[H]c1nc(C([H])([H])Oc2c([H])c([H])c3c(c2[H])C([H])([H])N(C(=O)C([H])(N([H])C(=O)C([H])(N([H])C([H])([H])[H])C([H])([H])[H])C(C([H])([H])[H])(C([H])([H])[H])C([H])([H])[H])C([H])(C(=O)N([H])C2([H])c4c([H])c([H])c([H])c([H])c4C([H])([H])C([H])([H])C2([H])[H])C3([H])[H])c([H])c([H])c1C1([H])C([H])([H])C([H])([H])C([H])([H])[N+]1([H])C1([H])C([H])([H])C([H])([H])N(C(=O)N2C([H])([H])C([H])([H])C([H])([H])C([H])(n3nc(-c4c([H])c([H])c(Oc5c([H])c([H])c(F)c([H])c5F)c([H])c4[H])c(C(=O)N([H])[H])c3N([H])[H])C2([H])[H])C([H])([H])C1([H])[H]

$$$$
