0:0:0
     RDKit          3D

 97106  0  0  1  0  0  0  0  0999 V2000
  -30.7120  -21.5560   17.6010 C   0  0  0  0  0  3  0  0  0  0  0  0
  -29.0410  -21.6870   19.8170 C   0  0  0  0  0  3  0  0  0  0  0  0
  -30.8120  -20.5420   18.5990 C   0  0  0  0  0  0  0  0  0  0  0  0
  -30.0010  -20.6570   19.7450 C   0  0  0  0  0  0  0  0  0  0  0  0
  -29.8100  -22.6600   17.7030 C   0  0  0  0  0  0  0  0  0  0  0  0
  -28.9240  -22.6870   18.8150 C   0  0  0  0  0  0  0  0  0  0  0  0
  -31.8590  -19.4150   18.4910 C   0  0  0  0  0  2  0  0  0  0  0  0
  -30.2070  -19.7510   20.9580 C   0  0  0  0  0  2  0  0  0  0  0  0
  -31.4030  -17.9320   18.7160 C   0  0  0  0  0  2  0  0  0  0  0  0
  -29.8840  -18.2510   20.7700 C   0  0  0  0  0  3  0  0  0  0  0  0
  -31.0980  -17.4800   20.1800 C   0  0  0  0  0  3  0  0  0  0  0  0
  -31.7500  -14.9970   20.0980 C   0  0  0  0  0  0  0  0  0  0  0  0
  -31.7280  -12.6120   19.4510 C   0  0  0  0  0  2  0  0  0  0  0  0
  -30.8030  -12.4490   18.2270 C   0  0  0  0  0  2  0  0  0  0  0  0
  -29.3370  -12.2560   18.6650 C   0  0  0  0  0  2  0  0  0  0  0  0
  -28.8800  -13.3030   19.7160 C   0  0  0  0  0  3  0  0  0  0  0  0
  -29.9210  -13.4310   20.8510 C   0  0  0  0  0  2  0  0  0  0  0  0
  -31.2210  -13.7480   20.2350 N   0  0  0  0  0  0  0  0  0  0  0  0
  -32.8830  -15.1950   19.6530 O   0  0  0  0  0  0  0  0  0  0  0  0
  -30.8860  -16.0140   20.3190 N   0  0  0  0  0  0  0  0  0  0  0  0
  -29.9820  -15.7230   20.6610 H   0  0  0  0  0  0  0  0  0  0  0  0
  -26.4800  -13.8670   20.4500 C   0  0  0  0  0  0  0  0  0  0  0  0
  -25.4420  -13.0790   20.8690 C   0  0  0  0  0  0  0  0  0  0  0  0
  -25.9410  -11.7410   20.8780 C   0  0  0  0  0  0  0  0  0  0  0  0
  -27.5460  -13.0080   20.2310 N   0  0  0  0  0  0  0  0  0  0  0  0
  -27.2270  -11.7270   20.5450 N   0  0  0  0  0  0  0  0  0  0  0  0
  -25.2530  -10.4670   21.1240 C   0  0  0  0  0  0  0  0  0  0  0  0
  -25.3510   -9.8040   22.3670 C   0  0  0  0  0  3  0  0  0  0  0  0
  -24.6660   -8.5890   22.5880 C   0  0  0  0  0  3  0  0  0  0  0  0
  -23.8710   -8.0270   21.5610 C   0  0  0  0  0  0  0  0  0  0  0  0
  -23.7960   -8.6780   20.3170 C   0  0  0  0  0  3  0  0  0  0  0  0
  -24.4830   -9.8840   20.0980 C   0  0  0  0  0  3  0  0  0  0  0  0
  -23.1920   -6.8380   21.6770 O   0  0  0  0  0  0  0  0  0  0  0  0
  -22.3190   -6.6040   22.7090 C   0  0  0  0  0  0  0  0  0  0  0  0
  -21.2110   -7.4460   22.9540 C   0  0  0  0  0  3  0  0  0  0  0  0
  -20.3000   -7.1290   23.9820 C   0  0  0  0  0  3  0  0  0  0  0  0
  -20.4900   -5.9710   24.7590 C   0  0  0  0  0  0  0  0  0  0  0  0
  -21.5900   -5.1300   24.5140 C   0  0  0  0  0  3  0  0  0  0  0  0
  -22.5000   -5.4450   23.4900 C   0  0  0  0  0  0  0  0  0  0  0  0
  -23.5450   -4.6200   23.2430 F   0  0  0  0  0  0  0  0  0  0  0  0
  -19.6120   -5.6630   25.7420 F   0  0  0  0  0  0  0  0  0  0  0  0
  -24.0350  -13.5270   21.1480 C   0  0  0  0  0  0  0  0  0  0  0  0
  -23.3690  -12.8980   22.1090 N   0  0  0  0  0  0  0  0  0  0  0  0
  -23.5360  -14.4750   20.5430 O   0  0  0  0  0  0  0  0  0  0  0  0
  -23.7850  -12.1360   22.6240 H   0  0  0  0  0  0  0  0  0  0  0  0
  -22.4270  -13.1850   22.3360 H   0  0  0  0  0  0  0  0  0  0  0  0
  -26.6000  -15.2330   20.2140 N   0  0  0  0  0  0  0  0  0  0  0  0
  -25.7920  -15.8440   20.2590 H   0  0  0  0  0  0  0  0  0  0  0  0
  -27.3920  -15.6600   19.7540 H   0  0  0  0  0  0  0  0  0  0  0  0
  -27.4240  -24.0140   20.1730 C   0  0  0  0  0  1  0  0  0  0  0  0
  -27.9840  -23.6940   18.9040 O   0  0  0  0  0  0  0  0  0  0  0  0
  -29.8450  -23.7680   16.6010 C   0  0  0  0  0  2  0  0  0  0  0  0
  -29.1300  -25.1450   16.8540 C   0  0  0  0  0  2  0  0  0  0  0  0
  -28.1780  -25.5820   15.8470 O   0  0  0  0  0  0  0  0  0  0  0  0
  -24.8630  -29.1520   21.0980 C   0  0  0  0  0  0  0  0  0  0  0  0
  -27.0160  -26.1720   16.3180 C   0  0  0  0  0  0  0  0  0  0  0  0
  -23.4090  -28.1970   19.3410 C   0  0  0  0  0  3  0  0  0  0  0  0
  -24.6070  -27.3410   17.2550 C   0  0  0  0  0  0  0  0  0  0  0  0
  -25.8210  -28.8750   18.8110 C   0  0  0  0  0  2  0  0  0  0  0  0
  -25.8390  -27.7840   17.7540 C   0  0  0  0  0  0  0  0  0  0  0  0
  -27.0470  -27.2150   17.2770 C   0  0  0  0  0  3  0  0  0  0  0  0
  -25.7660  -25.7450   15.8220 C   0  0  0  0  0  3  0  0  0  0  0  0
  -24.5670  -26.3230   16.2840 C   0  0  0  0  0  3  0  0  0  0  0  0
  -23.3600  -28.0000   17.8020 C   0  0  0  0  0  2  0  0  0  0  0  0
  -24.7270  -28.7400   19.8050 N   0  0  0  0  0  0  0  0  0  0  0  0
  -23.9070  -29.1190   21.8860 O   0  0  0  0  0  0  0  0  0  0  0  0
  -23.0200  -26.8650   20.0230 C   0  0  0  0  0  0  0  0  0  0  0  0
  -21.7110  -26.5680   20.0640 N   0  0  0  0  0  0  0  0  0  0  0  0
  -23.8880  -26.1120   20.4750 O   0  0  0  0  0  0  0  0  0  0  0  0
  -21.0610  -27.2380   19.6750 H   0  0  0  0  0  0  0  0  0  0  0  0
  -18.5790  -24.9000   20.7490 C   0  0  0  0  0  0  0  0  0  0  0  0
  -21.1220  -25.3500   20.6210 C   0  0  0  0  0  3  0  0  0  0  0  0
  -21.1730  -24.1910   19.6000 C   0  0  0  0  0  2  0  0  0  0  0  0
  -19.9000  -24.0780   18.7540 C   0  0  0  0  0  2  0  0  0  0  0  0
  -18.6780  -23.8570   19.6490 C   0  0  0  0  0  2  0  0  0  0  0  0
  -19.7250  -25.6130   21.1950 C   0  0  0  0  0  0  0  0  0  0  0  0
  -19.5730  -26.5960   22.1960 C   0  0  0  0  0  3  0  0  0  0  0  0
  -18.3080  -26.8710   22.7500 C   0  0  0  0  0  3  0  0  0  0  0  0
  -17.1810  -26.1520   22.3170 C   0  0  0  0  0  3  0  0  0  0  0  0
  -17.3180  -25.1680   21.3220 C   0  0  0  0  0  3  0  0  0  0  0  0
  -26.2160  -29.7030   21.6420 C   0  0  0  0  0  3  0  0  0  0  0  0
  -25.9200  -30.5060   22.8360 N   0  0  0  0  0  0  0  0  0  0  0  0
  -25.9140  -31.8450   22.8700 C   0  0  0  0  0  0  0  0  0  0  0  0
  -26.2310  -32.5400   21.9020 O   0  0  0  0  0  0  0  0  0  0  0  0
  -25.6010  -30.0030   23.6510 H   0  0  0  0  0  0  0  0  0  0  0  0
  -24.0240  -32.9780   24.0840 C   0  0  0  0  0  1  0  0  0  0  0  0
  -25.4880  -32.5200   24.1880 C   0  0  0  0  0  3  0  0  0  0  0  0
  -27.6860  -33.2790   24.9740 C   0  0  0  0  0  1  0  0  0  0  0  0
  -26.3400  -33.6680   24.5630 N   0  0  0  0  0  0  0  0  0  0  0  0
  -25.9180  -34.1970   25.3230 H   0  0  0  0  0  0  0  0  0  0  0  0
  -27.2570  -28.5650   21.9790 C   0  0  1  0  0  0  0  0  0  0  0  0
  -26.6950  -27.4590   22.9010 C   0  0  0  0  0  1  0  0  0  0  0  0
  -27.7650  -27.8880   20.6840 C   0  0  0  0  0  1  0  0  0  0  0  0
  -28.4970  -29.1810   22.6710 C   0  0  0  0  0  1  0  0  0  0  0  0
  -28.5570  -18.0080   20.0120 C   0  0  0  0  0  2  0  0  0  0  0  0
  -26.3670  -18.8120   19.6690 C   0  0  0  0  0  1  0  0  0  0  0  0
  -27.5970  -18.9980   20.3530 O   0  0  0  0  0  0  0  0  0  0  0  0
  1  5  2  0
  1  3  1  0
  3  4  2  0
  4  2  1  0
  4  8  1  0
  5  6  1  0
  6 51  1  0
  6  2  2  0
  7  3  1  0
  7  9  1  0
  9 11  1  0
 10 95  1  0
 10  8  1  0
 11 20  1  0
 11 10  1  0
 12 18  1  0
 12 20  1  0
 13 18  1  0
 14 15  1  0
 14 13  1  0
 16 15  1  0
 16 25  1  0
 16 17  1  0
 18 17  1  0
 19 12  2  0
 20 21  1  0
 22 23  2  0
 23 24  1  0
 23 42  1  0
 24 27  1  0
 25 22  1  0
 25 26  1  0
 26 24  2  0
 27 28  1  0
 28 29  2  0
 30 33  1  0
 30 29  1  0
 31 30  2  0
 32 31  1  0
 32 27  2  0
 33 34  1  0
 34 35  2  0
 34 39  1  0
 35 36  1  0
 36 37  2  0
 37 41  1  0
 38 37  1  0
 39 38  2  0
 40 39  1  0
 42 43  1  0
 43 46  1  0
 43 45  1  0
 44 42  2  0
 47 48  1  0
 47 22  1  0
 49 47  1  0
 51 50  1  0
 52 53  1  0
 52  5  1  0
 54 56  1  0
 54 53  1  0
 55 66  2  0
 56 61  1  0
 57 65  1  0
 57 67  1  0
 58 60  1  0
 58 64  1  0
 59 65  1  0
 60 59  1  0
 61 60  2  0
 62 63  1  0
 62 56  2  0
 63 58  2  0
 64 57  1  0
 65 55  1  0
 67 68  1  0
 67 69  2  0
 70 68  1  0
 71 76  2  0
 71 80  1  0
 72 68  1  0
 72 76  1  0
 73 72  1  0
 74 73  1  0
 74 75  1  0
 75 71  1  0
 76 77  1  0
 77 78  2  0
 79 78  1  0
 80 79  2  0
 81 55  1  0
 81 91  1  0
 81 82  1  0
 82 83  1  0
 82 85  1  0
 83 87  1  0
 84 83  2  0
 87 86  1  0
 87 89  1  0
 89 88  1  0
 89 90  1  0
 91 94  1  1
 91 92  1  0
 93 91  1  0
 95 97  1  0
 96 97  1  0
M  ISO  4  12 100  20 100  53 101  54 101
M  END
>  <TORSDO>  (1) 
F 21

>  <SCORE>  (1) 
-7.370

>  <name>  (1) 
0

>  <ligand_id>  (1) 
0

>  <original_smiles>  (1) 
[H]c1c([H])c([H])c2c(c1[H])C([H])([H])C([H])([H])C([H])([H])C2([H])N([H])C(=O)C1([H])N(C(=O)C([H])(N([H])C(=O)C([H])(N([H])C([H])([H])[H])C([H])([H])[H])C(C([H])([H])[H])(C([H])([H])[H])C([H])([H])[H])C([H])([H])c2c([H])c(OC([H])([H])C([H])([H])c3c([H])c4c(c([H])c3OC([H])([H])[H])C([H])([H])C([H])(C([H])([H])OC([H])([H])[H])C([H])(N([H])C(=O)N3C([H])([H])C([H])([H])C([H])([H])C([H])(n5nc(-c6c([H])c([H])c(Oc7c([H])c([H])c(F)c([H])c7F)c([H])c6[H])c(C(=O)N([H])[H])c5N([H])[H])C3([H])[H])C([H])([H])C4([H])[H])c([H])c([H])c2C1([H])[H]

>  <smiles>  (1) 
[H]c1c([H])c([H])c2c(c1[H])C([H])([H])C([H])([H])C([H])([H])C2([H])N([H])C(=O)C1([H])N(C(=O)C([H])(N([H])C(=O)C([H])(N([H])C([H])([H])[H])C([H])([H])[H])C(C([H])([H])[H])(C([H])([H])[H])C([H])([H])[H])C([H])([H])c2c([H])c(OC([H])([H])C([H])([H])c3c([H])c4c(c([H])c3OC([H])([H])[H])C([H])([H])C([H])(C([H])([H])OC([H])([H])[H])C([H])(N([H])C(=O)N3C([H])([H])C([H])([H])C([H])([H])C([H])(n5nc(-c6c([H])c([H])c(Oc7c([H])c([H])c(F)c([H])c7F)c([H])c6[H])c(C(=O)N([H])[H])c5N([H])[H])C3([H])[H])C([H])([H])C4([H])[H])c([H])c([H])c2C1([H])[H]

$$$$
1:0:0
     RDKit          3D

 91100  0  0  1  0  0  0  0  0999 V2000
  -28.2360  -23.6300   19.1720 C   0  0  0  0  0  3  0  0  0  0  0  0
  -28.8910  -23.8960   21.3500 C   0  0  0  0  0  3  0  0  0  0  0  0
  -28.4890  -22.1620   19.2620 C   0  0  0  0  0  0  0  0  0  0  0  0
  -29.1560  -22.4370   21.4650 C   0  0  0  0  0  0  0  0  0  0  0  0
  -28.9830  -21.4230   20.4260 C   0  0  0  0  0  0  0  0  0  0  0  0
  -28.3840  -24.6410   20.2090 C   0  0  0  0  0  0  0  0  0  0  0  0
  -28.1890  -21.3550   18.0120 C   0  0  0  0  0  1  0  0  0  0  0  0
  -29.6330  -21.9460   22.8190 C   0  0  0  0  0  1  0  0  0  0  0  0
  -28.3300  -26.1620   20.0790 O   0  0  0  0  0  0  0  0  0  0  0  0
  -24.6930  -31.9670   23.1740 C   0  0  0  0  0  0  0  0  0  0  0  0
  -27.2430  -27.1630   20.0940 C   0  0  0  0  0  0  0  0  0  0  0  0
  -23.4760  -30.5590   21.5600 C   0  0  0  0  0  3  0  0  0  0  0  0
  -24.9090  -28.9740   20.1040 C   0  0  0  0  0  0  0  0  0  0  0  0
  -26.0300  -30.8140   21.3500 C   0  0  0  0  0  2  0  0  0  0  0  0
  -26.1010  -29.4070   20.6970 C   0  0  0  0  0  0  0  0  0  0  0  0
  -27.2600  -28.5210   20.6690 C   0  0  0  0  0  3  0  0  0  0  0  0
  -26.0210  -26.8640   19.4570 C   0  0  0  0  0  3  0  0  0  0  0  0
  -24.8890  -27.7220   19.4660 C   0  0  0  0  0  3  0  0  0  0  0  0
  -23.6790  -29.8760   20.1780 C   0  0  0  0  0  2  0  0  0  0  0  0
  -24.7550  -31.1400   22.0820 N   0  0  0  0  0  0  0  0  0  0  0  0
  -23.6140  -32.2410   23.7240 O   0  0  0  0  0  0  0  0  0  0  0  0
  -22.8200  -29.5520   22.5400 C   0  0  0  0  0  0  0  0  0  0  0  0
  -21.4940  -29.3500   22.4250 N   0  0  0  0  0  0  0  0  0  0  0  0
  -23.5090  -28.9530   23.3690 O   0  0  0  0  0  0  0  0  0  0  0  0
  -20.9920  -29.8840   21.7310 H   0  0  0  0  0  0  0  0  0  0  0  0
  -18.1530  -28.0440   22.9520 C   0  0  0  0  0  0  0  0  0  0  0  0
  -20.7010  -28.3980   23.2110 C   0  0  0  0  0  3  0  0  0  0  0  0
  -20.8500  -26.9620   22.6570 C   0  0  0  0  0  2  0  0  0  0  0  0
  -19.7600  -26.5880   21.6490 C   0  0  0  0  0  2  0  0  0  0  0  0
  -18.3740  -26.6940   22.2910 C   0  0  0  0  0  2  0  0  0  0  0  0
  -19.2450  -28.8520   23.3680 C   0  0  0  0  0  0  0  0  0  0  0  0
  -18.9810  -30.1110   23.9480 C   0  0  0  0  0  3  0  0  0  0  0  0
  -17.6590  -30.5650   24.1150 C   0  0  0  0  0  3  0  0  0  0  0  0
  -16.5820  -29.7560   23.7130 C   0  0  0  0  0  3  0  0  0  0  0  0
  -16.8300  -28.4980   23.1370 C   0  0  0  0  0  3  0  0  0  0  0  0
  -25.9730  -32.6210   23.7790 C   0  0  0  0  0  3  0  0  0  0  0  0
  -25.6420  -34.0090   24.1450 N   0  0  0  0  0  0  0  0  0  0  0  0
  -25.9150  -35.0860   23.3970 C   0  0  0  0  0  0  0  0  0  0  0  0
  -26.5360  -35.0180   22.3330 O   0  0  0  0  0  0  0  0  0  0  0  0
  -25.0870  -34.1340   24.9780 H   0  0  0  0  0  0  0  0  0  0  0  0
  -24.1330  -36.8510   23.1690 C   0  0  0  0  0  1  0  0  0  0  0  0
  -25.4240  -36.4560   23.9070 C   0  0  0  0  0  3  0  0  0  0  0  0
  -27.5740  -37.3790   24.6490 C   0  0  0  0  0  1  0  0  0  0  0  0
  -26.4260  -37.5350   23.7610 N   0  0  0  0  0  0  0  0  0  0  0  0
  -26.0070  -38.4430   23.9410 H   0  0  0  0  0  0  0  0  0  0  0  0
  -26.5310  -31.8460   25.0370 C   0  0  1  0  0  0  0  0  0  0  0  0
  -25.4660  -31.5820   26.1280 C   0  0  0  0  0  1  0  0  0  0  0  0
  -27.1260  -30.4820   24.6240 C   0  0  0  0  0  1  0  0  0  0  0  0
  -27.6850  -32.6520   25.6790 C   0  0  0  0  0  1  0  0  0  0  0  0
  -29.0340  -19.6920   20.6650 C   0  0  0  0  0  2  0  0  0  0  0  0
  -30.5990  -15.4530   20.3160 C   0  0  0  0  0  0  0  0  0  0  0  0
  -30.5610  -13.0450   19.3830 C   0  0  0  0  0  2  0  0  0  0  0  0
  -29.6430  -12.8750   18.1480 C   0  0  0  0  0  2  0  0  0  0  0  0
  -28.1880  -12.6110   18.5770 C   0  0  0  0  0  2  0  0  0  0  0  0
  -27.7330  -13.5400   19.7310 C   0  0  0  0  0  3  0  0  0  0  0  0
  -28.7830  -13.6620   20.8550 C   0  0  0  0  0  2  0  0  0  0  0  0
  -30.0170  -14.1620   20.2270 N   0  0  0  0  0  0  0  0  0  0  0  0
  -31.8370  -15.4360   20.2440 O   0  0  0  0  0  0  0  0  0  0  0  0
  -29.7030  -17.8750   18.0680 C   0  0  0  0  0  2  0  0  0  0  0  0
  -30.7090  -18.6090   18.9480 C   0  0  0  0  0  2  0  0  0  0  0  0
  -29.0700  -16.7900   18.9620 C   0  0  0  0  0  2  0  0  0  0  0  0
  -30.1570  -18.3540   20.3400 C   0  0  0  0  0  3  0  0  0  0  0  0
  -29.8370  -16.7300   20.2180 N   0  0  0  0  0  0  0  0  0  0  0  0
  -25.3530  -14.0910   20.4520 C   0  0  0  0  0  0  0  0  0  0  0  0
  -24.2910  -13.3070   20.8030 C   0  0  0  0  0  0  0  0  0  0  0  0
  -24.7710  -11.9610   20.7860 C   0  0  0  0  0  0  0  0  0  0  0  0
  -26.4060  -13.2210   20.2280 N   0  0  0  0  0  0  0  0  0  0  0  0
  -26.0680  -11.9350   20.4990 N   0  0  0  0  0  0  0  0  0  0  0  0
  -24.0550  -10.6920   20.9680 C   0  0  0  0  0  0  0  0  0  0  0  0
  -24.4590   -9.7490   21.9370 C   0  0  0  0  0  3  0  0  0  0  0  0
  -23.7400   -8.5470   22.1080 C   0  0  0  0  0  3  0  0  0  0  0  0
  -22.6050   -8.2790   21.3070 C   0  0  0  0  0  0  0  0  0  0  0  0
  -22.2220   -9.2110   20.3260 C   0  0  0  0  0  3  0  0  0  0  0  0
  -22.9400  -10.4050   20.1550 C   0  0  0  0  0  3  0  0  0  0  0  0
  -21.8600   -7.1260   21.3850 O   0  0  0  0  0  0  0  0  0  0  0  0
  -21.7390   -6.4260   22.5580 C   0  0  0  0  0  0  0  0  0  0  0  0
  -21.1910   -7.0100   23.7210 C   0  0  0  0  0  3  0  0  0  0  0  0
  -21.0200   -6.2340   24.8840 C   0  0  0  0  0  3  0  0  0  0  0  0
  -21.3860   -4.8750   24.8860 C   0  0  0  0  0  0  0  0  0  0  0  0
  -21.9280   -4.2910   23.7270 C   0  0  0  0  0  3  0  0  0  0  0  0
  -22.1010   -5.0640   22.5650 C   0  0  0  0  0  0  0  0  0  0  0  0
  -22.6030   -4.4900   21.4450 F   0  0  0  0  0  0  0  0  0  0  0  0
  -21.2160   -4.1260   26.0010 F   0  0  0  0  0  0  0  0  0  0  0  0
  -22.8840  -13.7720   21.0410 C   0  0  0  0  0  0  0  0  0  0  0  0
  -22.1490  -13.0810   21.9060 N   0  0  0  0  0  0  0  0  0  0  0  0
  -22.4450  -14.7840   20.4970 O   0  0  0  0  0  0  0  0  0  0  0  0
  -22.5190  -12.2640   22.3690 H   0  0  0  0  0  0  0  0  0  0  0  0
  -21.2040  -13.3750   22.1080 H   0  0  0  0  0  0  0  0  0  0  0  0
  -25.5080  -15.4640   20.2770 N   0  0  0  0  0  0  0  0  0  0  0  0
  -24.7410  -16.1160   20.3930 H   0  0  0  0  0  0  0  0  0  0  0  0
  -26.3740  -15.9130   20.0100 H   0  0  0  0  0  0  0  0  0  0  0  0
  1  3  2  0
  1  6  1  0
  2  4  1  0
  3  5  1  0
  4  8  1  0
  5 50  1  0
  5  4  2  0
  6  2  2  0
  7  3  1  0
  9 11  1  0
  9  6  1  0
 10 21  2  0
 11 16  1  0
 12 20  1  0
 12 22  1  0
 13 19  1  0
 13 15  1  0
 14 20  1  0
 15 14  1  0
 16 15  2  0
 17 18  1  0
 17 11  2  0
 18 13  2  0
 19 12  1  0
 20 10  1  0
 22 24  2  0
 23 22  1  0
 25 23  1  0
 26 35  2  0
 26 31  1  0
 27 23  1  0
 27 31  1  0
 28 27  1  0
 29 30  1  0
 29 28  1  0
 30 26  1  0
 31 32  2  0
 32 33  1  0
 34 33  2  0
 35 34  1  0
 36 10  1  0
 36 37  1  0
 36 46  1  0
 37 40  1  0
 38 42  1  0
 38 37  1  0
 39 38  2  0
 42 41  1  0
 44 42  1  0
 44 45  1  0
 44 43  1  0
 46 49  1  1
 46 47  1  0
 48 46  1  0
 52 57  1  0
 53 54  1  0
 53 52  1  0
 55 54  1  0
 55 67  1  0
 55 56  1  0
 57 51  1  0
 57 56  1  0
 58 51  2  0
 59 60  1  0
 59 61  1  0
 60 62  1  0
 61 63  1  0
 62 50  1  0
 63 51  1  0
 63 62  1  0
 64 65  2  0
 65 84  1  0
 66 65  1  0
 66 69  1  0
 67 64  1  0
 67 68  1  0
 68 66  2  0
 69 70  1  0
 70 71  2  0
 72 75  1  0
 72 71  1  0
 73 72  2  0
 74 73  1  0
 74 69  2  0
 75 76  1  0
 76 81  2  0
 76 77  1  0
 77 78  2  0
 78 79  1  0
 79 83  1  0
 80 79  2  0
 81 80  1  0
 82 81  1  0
 84 85  1  0
 85 88  1  0
 85 87  1  0
 86 84  2  0
 89 90  1  0
 89 64  1  0
 91 89  1  0
M  ISO  4   6 101   9 101  51 100  63 100
M  END
>  <TORSDO>  (2) 
F 17

>  <SCORE>  (2) 
-16.140

>  <name>  (2) 
1

>  <ligand_id>  (2) 
1

>  <original_smiles>  (2) 
[H]c1c([H])c([H])c2c(c1[H])C([H])([H])C([H])([H])C([H])([H])C2([H])N([H])C(=O)C1([H])N(C(=O)C([H])(N([H])C(=O)C([H])(N([H])C([H])([H])[H])C([H])([H])[H])C(C([H])([H])[H])(C([H])([H])[H])C([H])([H])[H])C([H])([H])c2c([H])c(Oc3c([H])c(C([H])([H])[H])c(C([H])([H])C4([H])N(C(=O)N5C([H])([H])C([H])([H])C([H])([H])C([H])(n6nc(-c7c([H])c([H])c(Oc8c([H])c([H])c(F)c([H])c8F)c([H])c7[H])c(C(=O)N([H])[H])c6N([H])[H])C5([H])[H])C([H])([H])C([H])([H])C4([H])[H])c(C([H])([H])[H])c3[H])c([H])c([H])c2C1([H])[H]

>  <smiles>  (2) 
[H]c1c([H])c([H])c2c(c1[H])C([H])([H])C([H])([H])C([H])([H])C2([H])N([H])C(=O)C1([H])N(C(=O)C([H])(N([H])C(=O)C([H])(N([H])C([H])([H])[H])C([H])([H])[H])C(C([H])([H])[H])(C([H])([H])[H])C([H])([H])[H])C([H])([H])c2c([H])c(Oc3c([H])c(C([H])([H])[H])c(C([H])([H])C4([H])N(C(=O)N5C([H])([H])C([H])([H])C([H])([H])C([H])(n6nc(-c7c([H])c([H])c(Oc8c([H])c([H])c(F)c([H])c8F)c([H])c7[H])c(C(=O)N([H])[H])c6N([H])[H])C5([H])[H])C([H])([H])C([H])([H])C4([H])[H])c(C([H])([H])[H])c3[H])c([H])c([H])c2C1([H])[H]

$$$$
2:0:0
     RDKit          3D

 95104  0  0  1  0  0  0  0  0999 V2000
  -27.0200  -22.8220   21.0100 C   0  0  0  0  0  2  0  0  0  0  0  0
  -29.8390  -22.9070   20.4180 C   0  0  0  0  0  2  0  0  0  0  0  0
  -27.9160  -23.7920   21.7960 C   0  0  0  0  0  3  0  0  0  0  0  0
  -27.7150  -21.5070   20.5820 C   0  0  0  0  0  3  0  0  0  0  0  0
  -29.1220  -24.2510   20.9300 C   0  0  1  0  0  0  0  0  0  0  0  0
  -27.0700  -24.9290   22.4000 C   0  0  0  0  0  1  0  0  0  0  0  0
  -26.7240  -20.7530   19.6690 C   0  0  0  0  0  1  0  0  0  0  0  0
  -30.1670  -24.9460   21.8350 C   0  0  0  0  0  1  0  0  0  0  0  0
  -29.0130  -21.7500   19.8880 N   0  0  2  0  0  4  0  0  0  0  0  0
  -28.7210  -22.1100   18.9920 H   0  0  0  0  0  0  0  0  0  0  0  0
  -29.8060  -20.5010   19.4930 C   0  0  0  0  0  2  0  0  0  0  0  0
  -31.2590  -14.9410   20.4230 C   0  0  0  0  0  0  0  0  0  0  0  0
  -30.9240  -12.7090   19.3700 C   0  0  0  0  0  2  0  0  0  0  0  0
  -30.0190  -12.7970   18.1270 C   0  0  0  0  0  2  0  0  0  0  0  0
  -28.5430  -12.6340   18.5330 C   0  0  0  0  0  2  0  0  0  0  0  0
  -28.1620  -13.5370   19.7340 C   0  0  0  0  0  3  0  0  0  0  0  0
  -29.2030  -13.4490   20.8790 C   0  0  0  0  0  2  0  0  0  0  0  0
  -30.5110  -13.7880   20.3040 N   0  0  0  0  0  0  0  0  0  0  0  0
  -32.4400  -14.8980   20.0650 O   0  0  0  0  0  0  0  0  0  0  0  0
  -31.4160  -18.5930   20.2620 C   0  0  0  0  0  2  0  0  0  0  0  0
  -29.0330  -18.0490   20.2850 C   0  0  0  0  0  2  0  0  0  0  0  0
  -31.6640  -17.3170   21.1240 C   0  0  0  0  0  2  0  0  0  0  0  0
  -29.3720  -16.6980   21.0260 C   0  0  0  0  0  2  0  0  0  0  0  0
  -30.0250  -19.2480   20.4780 C   0  0  0  0  0  3  0  0  0  0  0  0
  -30.7490  -16.1850   20.8070 N   0  0  0  0  0  0  0  0  0  0  0  0
  -25.7760  -14.1730   20.4340 C   0  0  0  0  0  0  0  0  0  0  0  0
  -24.6940  -13.4130   20.7880 C   0  0  0  0  0  0  0  0  0  0  0  0
  -25.1380  -12.0560   20.7600 C   0  0  0  0  0  0  0  0  0  0  0  0
  -26.8100  -13.2770   20.2090 N   0  0  0  0  0  0  0  0  0  0  0  0
  -26.4330  -12.0000   20.4720 N   0  0  0  0  0  0  0  0  0  0  0  0
  -24.3930  -10.8040   20.9320 C   0  0  0  0  0  0  0  0  0  0  0  0
  -24.7530   -9.8600   21.9190 C   0  0  0  0  0  3  0  0  0  0  0  0
  -24.0080   -8.6720   22.0770 C   0  0  0  0  0  3  0  0  0  0  0  0
  -22.8900   -8.4190   21.2470 C   0  0  0  0  0  0  0  0  0  0  0  0
  -22.5490   -9.3520   20.2520 C   0  0  0  0  0  3  0  0  0  0  0  0
  -23.2940  -10.5320   20.0920 C   0  0  0  0  0  3  0  0  0  0  0  0
  -22.1240   -7.2810   21.3120 O   0  0  0  0  0  0  0  0  0  0  0  0
  -21.9220   -6.6160   22.4940 C   0  0  0  0  0  0  0  0  0  0  0  0
  -21.3230   -7.2420   23.6100 C   0  0  0  0  0  3  0  0  0  0  0  0
  -21.0710   -6.5010   24.7820 C   0  0  0  0  0  3  0  0  0  0  0  0
  -21.4080   -5.1360   24.8380 C   0  0  0  0  0  0  0  0  0  0  0  0
  -22.0010   -4.5100   23.7270 C   0  0  0  0  0  3  0  0  0  0  0  0
  -22.2540   -5.2470   22.5590 C   0  0  0  0  0  0  0  0  0  0  0  0
  -22.8060   -4.6350   21.4830 F   0  0  0  0  0  0  0  0  0  0  0  0
  -21.1610   -4.4220   25.9610 F   0  0  0  0  0  0  0  0  0  0  0  0
  -23.2990  -13.9100   21.0350 C   0  0  0  0  0  0  0  0  0  0  0  0
  -22.5500  -13.2310   21.8960 N   0  0  0  0  0  0  0  0  0  0  0  0
  -22.8810  -14.9350   20.4990 O   0  0  0  0  0  0  0  0  0  0  0  0
  -22.8970  -12.4010   22.3540 H   0  0  0  0  0  0  0  0  0  0  0  0
  -21.6130  -13.5490   22.1030 H   0  0  0  0  0  0  0  0  0  0  0  0
  -25.9560  -15.5420   20.2590 N   0  0  0  0  0  0  0  0  0  0  0  0
  -25.1900  -16.1980   20.3580 H   0  0  0  0  0  0  0  0  0  0  0  0
  -26.8080  -15.9740   19.9280 H   0  0  0  0  0  0  0  0  0  0  0  0
  -28.7370  -25.3340   19.8150 C   0  0  0  0  0  2  0  0  0  0  0  0
  -28.6530  -26.7580   20.2230 O   0  0  0  0  0  0  0  0  0  0  0  0
  -24.6850  -31.9390   23.2480 C   0  0  0  0  0  0  0  0  0  0  0  0
  -27.4800  -27.5220   20.1520 C   0  0  0  0  0  0  0  0  0  0  0  0
  -23.5480  -30.5330   21.5660 C   0  0  0  0  0  3  0  0  0  0  0  0
  -25.0630  -29.0530   20.1380 C   0  0  0  0  0  0  0  0  0  0  0  0
  -26.0770  -30.9310   21.4280 C   0  0  0  0  0  2  0  0  0  0  0  0
  -26.2040  -29.5670   20.7630 C   0  0  0  0  0  0  0  0  0  0  0  0
  -27.4120  -28.8110   20.7640 C   0  0  0  0  0  3  0  0  0  0  0  0
  -26.3130  -27.0620   19.4970 C   0  0  0  0  0  3  0  0  0  0  0  0
  -25.1190  -27.8060   19.4990 C   0  0  0  0  0  3  0  0  0  0  0  0
  -23.8020  -29.8900   20.1790 C   0  0  0  0  0  2  0  0  0  0  0  0
  -24.7870  -31.1500   22.1390 N   0  0  0  0  0  0  0  0  0  0  0  0
  -23.5860  -32.1760   23.7700 O   0  0  0  0  0  0  0  0  0  0  0  0
  -22.9020  -29.4810   22.4980 C   0  0  0  0  0  0  0  0  0  0  0  0
  -21.5840  -29.2650   22.3430 N   0  0  0  0  0  0  0  0  0  0  0  0
  -23.5840  -28.8630   23.3190 O   0  0  0  0  0  0  0  0  0  0  0  0
  -21.0910  -29.8190   21.6560 H   0  0  0  0  0  0  0  0  0  0  0  0
  -18.2320  -27.9760   22.7750 C   0  0  0  0  0  0  0  0  0  0  0  0
  -20.7800  -28.2930   23.0840 C   0  0  0  0  0  3  0  0  0  0  0  0
  -20.9260  -26.8760   22.4790 C   0  0  0  0  0  2  0  0  0  0  0  0
  -19.8420  -26.5440   21.4490 C   0  0  0  0  0  2  0  0  0  0  0  0
  -18.4500  -26.6430   22.0790 C   0  0  0  0  0  2  0  0  0  0  0  0
  -19.3260  -28.7570   23.2330 C   0  0  0  0  0  0  0  0  0  0  0  0
  -19.0690  -30.0030   23.8460 C   0  0  0  0  0  3  0  0  0  0  0  0
  -17.7500  -30.4700   24.0030 C   0  0  0  0  0  3  0  0  0  0  0  0
  -16.6710  -29.6860   23.5600 C   0  0  0  0  0  3  0  0  0  0  0  0
  -16.9120  -28.4410   22.9540 C   0  0  0  0  0  3  0  0  0  0  0  0
  -25.9400  -32.5970   23.9000 C   0  0  0  0  0  3  0  0  0  0  0  0
  -25.6010  -33.9940   24.2050 N   0  0  0  0  0  0  0  0  0  0  0  0
  -25.9380  -35.0440   23.4440 C   0  0  0  0  0  0  0  0  0  0  0  0
  -26.6380  -34.9390   22.4320 O   0  0  0  0  0  0  0  0  0  0  0  0
  -24.9840  -34.1480   24.9900 H   0  0  0  0  0  0  0  0  0  0  0  0
  -24.1920  -36.8040   23.0240 C   0  0  0  0  0  1  0  0  0  0  0  0
  -25.4170  -36.4290   23.8720 C   0  0  0  0  0  3  0  0  0  0  0  0
  -27.5120  -37.3610   24.7500 C   0  0  0  0  0  1  0  0  0  0  0  0
  -26.4360  -37.4980   23.7720 N   0  0  0  0  0  0  0  0  0  0  0  0
  -26.0100  -38.4130   23.8970 H   0  0  0  0  0  0  0  0  0  0  0  0
  -26.4300  -31.8480   25.2000 C   0  0  1  0  0  0  0  0  0  0  0  0
  -25.3030  -31.5830   26.2260 C   0  0  0  0  0  1  0  0  0  0  0  0
  -27.0660  -30.4860   24.8380 C   0  0  0  0  0  1  0  0  0  0  0  0
  -27.5280  -32.6790   25.9020 C   0  0  0  0  0  1  0  0  0  0  0  0
  1  3  1  0
  2  5  1  0
  3  6  1  0
  4  7  1  0
  4  1  1  0
  5  3  1  0
  5  8  1  1
  9  2  1  0
  9  4  1  0
  9 10  1  6
 11  9  1  0
 12 25  1  0
 13 18  1  0
 14 15  1  0
 14 13  1  0
 16 15  1  0
 16 29  1  0
 16 17  1  0
 18 12  1  0
 18 17  1  0
 19 12  2  0
 20 24  1  0
 20 22  1  0
 21 24  1  0
 21 23  1  0
 24 11  1  0
 25 23  1  0
 25 22  1  0
 26 27  2  0
 27 46  1  0
 28 27  1  0
 28 31  1  0
 29 26  1  0
 29 30  1  0
 30 28  2  0
 31 32  1  0
 32 33  2  0
 34 37  1  0
 34 33  1  0
 35 34  2  0
 36 35  1  0
 36 31  2  0
 37 38  1  0
 38 43  2  0
 38 39  1  0
 39 40  2  0
 40 41  1  0
 41 45  1  0
 42 41  2  0
 43 42  1  0
 44 43  1  0
 46 47  1  0
 47 50  1  0
 47 49  1  0
 48 46  2  0
 51 52  1  0
 51 26  1  0
 53 51  1  0
 54 55  1  0
 54  5  1  0
 56 67  2  0
 57 55  1  0
 57 62  1  0
 58 66  1  0
 58 68  1  0
 59 65  1  0
 59 61  1  0
 60 66  1  0
 61 62  2  0
 61 60  1  0
 63 64  1  0
 63 57  2  0
 64 59  2  0
 65 58  1  0
 66 56  1  0
 68 70  2  0
 69 68  1  0
 71 69  1  0
 72 81  2  0
 72 77  1  0
 73 69  1  0
 73 77  1  0
 74 73  1  0
 75 76  1  0
 75 74  1  0
 76 72  1  0
 77 78  2  0
 78 79  1  0
 80 79  2  0
 81 80  1  0
 82 56  1  0
 82 83  1  0
 82 92  1  0
 83 86  1  0
 84 88  1  0
 84 83  1  0
 85 84  2  0
 88 87  1  0
 90 88  1  0
 90 91  1  0
 90 89  1  0
 92 95  1  1
 92 93  1  0
 94 92  1  0
M  ISO  4  12 100  25 100  54 101  55 101
M  END
>  <TORSDO>  (3) 
F 18

>  <SCORE>  (3) 
-13.780

>  <name>  (3) 
2

>  <ligand_id>  (3) 
2

>  <original_smiles>  (3) 
[H]c1c([H])c([H])c2c(c1[H])C([H])([H])C([H])([H])C([H])([H])C2([H])N([H])C(=O)C1([H])N(C(=O)C([H])(N([H])C(=O)C([H])(N([H])C([H])([H])[H])C([H])([H])[H])C(C([H])([H])[H])(C([H])([H])[H])C([H])([H])[H])C([H])([H])c2c([H])c(OC([H])([H])C3(C([H])([H])[H])C([H])(C([H])([H])[H])C([H])([H])C([H])(C([H])([H])[H])[N+]([H])(C([H])([H])C4([H])C([H])([H])C([H])([H])N(C(=O)N5C([H])([H])C([H])([H])C([H])([H])C([H])(n6nc(-c7c([H])c([H])c(Oc8c([H])c([H])c(F)c([H])c8F)c([H])c7[H])c(C(=O)N([H])[H])c6N([H])[H])C5([H])[H])C([H])([H])C4([H])[H])C3([H])[H])c([H])c([H])c2C1([H])[H]

>  <smiles>  (3) 
[H]c1c([H])c([H])c2c(c1[H])C([H])([H])C([H])([H])C([H])([H])C2([H])N([H])C(=O)C1([H])N(C(=O)C([H])(N([H])C(=O)C([H])(N([H])C([H])([H])[H])C([H])([H])[H])C(C([H])([H])[H])(C([H])([H])[H])C([H])([H])[H])C([H])([H])c2c([H])c(OC([H])([H])C3(C([H])([H])[H])C([H])(C([H])([H])[H])C([H])([H])C([H])(C([H])([H])[H])[N+]([H])(C([H])([H])C4([H])C([H])([H])C([H])([H])N(C(=O)N5C([H])([H])C([H])([H])C([H])([H])C([H])(n6nc(-c7c([H])c([H])c(Oc8c([H])c([H])c(F)c([H])c8F)c([H])c7[H])c(C(=O)N([H])[H])c6N([H])[H])C5([H])[H])C([H])([H])C4([H])[H])C3([H])[H])c([H])c([H])c2C1([H])[H]

$$$$
3:0:0
     RDKit          3D

 98108  0  0  1  0  0  0  0  0999 V2000
  -27.8830  -22.7830   21.9380 C   0  0  0  0  0  3  0  0  0  0  0  0
  -30.2510  -23.1760   22.3950 C   0  0  0  0  0  3  0  0  0  0  0  0
  -28.2550  -21.6130   21.2490 C   0  0  0  0  0  0  0  0  0  0  0  0
  -29.5840  -21.2230   21.0940 C   0  0  0  0  0  0  0  0  0  0  0  0
  -30.6190  -22.0260   21.6540 C   0  0  0  0  0  0  0  0  0  0  0  0
  -28.9020  -23.5730   22.5140 C   0  0  0  0  0  0  0  0  0  0  0  0
  -27.3300  -20.6520   20.5550 C   0  0  0  0  0  2  0  0  0  0  0  0
  -29.6280  -19.9470   20.2390 C   0  0  0  0  0  3  0  0  0  0  0  0
  -32.1000  -21.7660   21.4560 C   0  0  0  0  0  1  0  0  0  0  0  0
  -28.2100  -19.4880   20.3080 N   0  0  0  0  0  4  0  0  0  0  0  0
  -27.9240  -18.9760   19.4890 H   0  0  0  0  0  0  0  0  0  0  0  0
  -28.1090  -18.8880   21.1070 H   0  0  0  0  0  0  0  0  0  0  0  0
  -32.2810  -14.8130   20.2290 C   0  0  0  0  0  0  0  0  0  0  0  0
  -31.7980  -12.5300   19.4260 C   0  0  0  0  0  2  0  0  0  0  0  0
  -30.9140  -12.5580   18.1630 C   0  0  0  0  0  2  0  0  0  0  0  0
  -29.4260  -12.5510   18.5570 C   0  0  0  0  0  2  0  0  0  0  0  0
  -29.0930  -13.6280   19.6190 C   0  0  0  0  0  3  0  0  0  0  0  0
  -30.1030  -13.5860   20.7820 C   0  0  0  0  0  2  0  0  0  0  0  0
  -31.4590  -13.7220   20.2270 N   0  0  0  0  0  0  0  0  0  0  0  0
  -33.4250  -14.7420   19.7680 O   0  0  0  0  0  0  0  0  0  0  0  0
  -31.3170  -18.2530   19.3240 C   0  0  0  0  0  2  0  0  0  0  0  0
  -30.1570  -17.6520   21.4600 C   0  0  0  0  0  2  0  0  0  0  0  0
  -32.3420  -17.1570   19.6330 C   0  0  0  0  0  2  0  0  0  0  0  0
  -31.2560  -16.5800   21.6890 C   0  0  0  0  0  2  0  0  0  0  0  0
  -30.6790  -18.8450   20.6110 C   0  0  0  0  0  3  0  0  0  0  0  0
  -31.7310  -16.0490   20.3970 N   0  0  0  0  0  0  0  0  0  0  0  0
  -26.7960  -14.4940   20.3940 C   0  0  0  0  0  0  0  0  0  0  0  0
  -25.6450  -13.8390   20.7470 C   0  0  0  0  0  0  0  0  0  0  0  0
  -25.9410  -12.4430   20.6590 C   0  0  0  0  0  0  0  0  0  0  0  0
  -27.7220  -13.5010   20.1090 N   0  0  0  0  0  0  0  0  0  0  0  0
  -27.2140  -12.2620   20.3320 N   0  0  0  0  0  0  0  0  0  0  0  0
  -25.0690  -11.2710   20.8070 C   0  0  0  0  0  0  0  0  0  0  0  0
  -25.3440  -10.2630   21.7580 C   0  0  0  0  0  3  0  0  0  0  0  0
  -24.4810   -9.1540   21.8950 C   0  0  0  0  0  3  0  0  0  0  0  0
  -23.3320   -9.0440   21.0770 C   0  0  0  0  0  0  0  0  0  0  0  0
  -23.0760  -10.0380   20.1160 C   0  0  0  0  0  3  0  0  0  0  0  0
  -23.9370  -11.1390   19.9780 C   0  0  0  0  0  3  0  0  0  0  0  0
  -22.4490   -7.9910   21.1240 O   0  0  0  0  0  0  0  0  0  0  0  0
  -22.1510   -7.3540   22.3010 C   0  0  0  0  0  0  0  0  0  0  0  0
  -21.6620   -8.0540   23.4260 C   0  0  0  0  0  3  0  0  0  0  0  0
  -21.3010   -7.3490   24.5910 C   0  0  0  0  0  3  0  0  0  0  0  0
  -21.4180   -5.9470   24.6320 C   0  0  0  0  0  0  0  0  0  0  0  0
  -21.8990   -5.2480   23.5110 C   0  0  0  0  0  3  0  0  0  0  0  0
  -22.2620   -5.9480   22.3480 C   0  0  0  0  0  0  0  0  0  0  0  0
  -22.7040   -5.2680   21.2630 F   0  0  0  0  0  0  0  0  0  0  0  0
  -21.0640   -5.2690   25.7480 F   0  0  0  0  0  0  0  0  0  0  0  0
  -24.3200  -14.4690   21.0510 C   0  0  0  0  0  0  0  0  0  0  0  0
  -23.5440  -13.8680   21.9500 N   0  0  0  0  0  0  0  0  0  0  0  0
  -23.9770  -15.5280   20.5250 O   0  0  0  0  0  0  0  0  0  0  0  0
  -23.8290  -13.0080   22.3900 H   0  0  0  0  0  0  0  0  0  0  0  0
  -22.6530  -14.2740   22.1960 H   0  0  0  0  0  0  0  0  0  0  0  0
  -27.1260  -15.8360   20.2630 N   0  0  0  0  0  0  0  0  0  0  0  0
  -26.4300  -16.5670   20.3440 H   0  0  0  0  0  0  0  0  0  0  0  0
  -27.9910  -16.1530   19.8440 H   0  0  0  0  0  0  0  0  0  0  0  0
  -28.5940  -24.7300   23.1850 O   0  0  0  0  0  0  0  0  0  0  0  0
  -28.1350  -25.7820   22.3350 C   0  0  0  0  0  2  0  0  0  0  0  0
  -29.2980  -26.4030   21.5200 C   0  0  0  0  0  2  0  0  0  0  0  0
  -28.9180  -26.9630   20.2650 O   0  0  0  0  0  0  0  0  0  0  0  0
  -24.6990  -31.8270   23.3320 C   0  0  0  0  0  0  0  0  0  0  0  0
  -27.7410  -27.6690   20.2590 C   0  0  0  0  0  0  0  0  0  0  0  0
  -23.6560  -30.4060   21.5960 C   0  0  0  0  0  3  0  0  0  0  0  0
  -25.2670  -29.0030   20.2050 C   0  0  0  0  0  0  0  0  0  0  0  0
  -26.1600  -30.9290   21.5280 C   0  0  0  0  0  2  0  0  0  0  0  0
  -26.3600  -29.5830   20.8650 C   0  0  0  0  0  0  0  0  0  0  0  0
  -27.6030  -28.9160   20.9020 C   0  0  0  0  0  3  0  0  0  0  0  0
  -26.6490  -27.1030   19.5770 C   0  0  0  0  0  3  0  0  0  0  0  0
  -25.4030  -27.7590   19.5670 C   0  0  0  0  0  3  0  0  0  0  0  0
  -23.9750  -29.7850   20.2100 C   0  0  0  0  0  2  0  0  0  0  0  0
  -24.8540  -31.0660   22.2130 N   0  0  0  0  0  0  0  0  0  0  0  0
  -23.5770  -32.0170   23.8260 O   0  0  0  0  0  0  0  0  0  0  0  0
  -23.0240  -29.3190   22.4940 C   0  0  0  0  0  0  0  0  0  0  0  0
  -21.7230  -29.0650   22.2940 N   0  0  0  0  0  0  0  0  0  0  0  0
  -23.7020  -28.7090   23.3250 O   0  0  0  0  0  0  0  0  0  0  0  0
  -21.2390  -29.6180   21.6020 H   0  0  0  0  0  0  0  0  0  0  0  0
  -18.3830  -27.7210   22.6340 C   0  0  0  0  0  0  0  0  0  0  0  0
  -20.9220  -28.0610   22.9950 C   0  0  0  0  0  3  0  0  0  0  0  0
  -21.1000  -26.6650   22.3590 C   0  0  0  0  0  2  0  0  0  0  0  0
  -20.0410  -26.3480   21.2990 C   0  0  0  0  0  2  0  0  0  0  0  0
  -18.6340  -26.4100   21.9040 C   0  0  0  0  0  2  0  0  0  0  0  0
  -19.4610  -28.5020   23.1290 C   0  0  0  0  0  0  0  0  0  0  0  0
  -19.1750  -29.7280   23.7700 C   0  0  0  0  0  3  0  0  0  0  0  0
  -17.8490  -30.1730   23.9190 C   0  0  0  0  0  3  0  0  0  0  0  0
  -16.7860  -29.3850   23.4430 C   0  0  0  0  0  3  0  0  0  0  0  0
  -17.0550  -28.1620   22.8030 C   0  0  0  0  0  3  0  0  0  0  0  0
  -25.9160  -32.5160   24.0300 C   0  0  0  0  0  3  0  0  0  0  0  0
  -26.3800  -31.7690   25.3390 C   0  0  1  0  0  0  0  0  0  0  0  0
  -25.2230  -31.4250   26.3090 C   0  0  0  0  0  1  0  0  0  0  0  0
  -27.1050  -30.4520   24.9760 C   0  0  0  0  0  1  0  0  0  0  0  0
  -27.4030  -32.6390   26.1030 C   0  0  0  0  0  1  0  0  0  0  0  0
  -25.5360  -33.9010   24.3320 N   0  0  0  0  0  0  0  0  0  0  0  0
  -25.8900  -34.9610   23.5930 C   0  0  0  0  0  0  0  0  0  0  0  0
  -26.6410  -34.8780   22.6170 O   0  0  0  0  0  0  0  0  0  0  0  0
  -24.8640  -34.0290   25.0760 H   0  0  0  0  0  0  0  0  0  0  0  0
  -24.1260  -36.6850   23.0890 C   0  0  0  0  0  1  0  0  0  0  0  0
  -25.3170  -36.3360   23.9960 C   0  0  0  0  0  3  0  0  0  0  0  0
  -27.3620  -37.2880   24.9640 C   0  0  0  0  0  1  0  0  0  0  0  0
  -26.3180  -37.4250   23.9520 N   0  0  0  0  0  0  0  0  0  0  0  0
  -25.8730  -38.3300   24.0800 H   0  0  0  0  0  0  0  0  0  0  0  0
  1  6  1  0
  2  6  2  0
  3  1  2  0
  4  3  1  0
  4  5  2  0
  5  2  1  0
  6 55  1  0
  7  3  1  0
  8 10  1  0
  8 25  1  0
  8  4  1  0
  9  5  1  0
 10  7  1  0
 10 12  1  0
 11 10  1  0
 13 26  1  0
 14 19  1  0
 15 16  1  0
 15 14  1  0
 17 16  1  0
 17 30  1  0
 17 18  1  0
 19 13  1  0
 19 18  1  0
 20 13  2  0
 21 23  1  0
 22 24  1  0
 23 26  1  0
 25 21  1  0
 25 22  1  0
 26 24  1  0
 27 28  2  0
 28 47  1  0
 29 28  1  0
 29 32  1  0
 30 31  1  0
 30 27  1  0
 31 29  2  0
 32 33  1  0
 33 34  2  0
 35 38  1  0
 35 34  1  0
 36 35  2  0
 37 36  1  0
 37 32  2  0
 38 39  1  0
 39 44  2  0
 39 40  1  0
 40 41  2  0
 41 42  1  0
 42 46  1  0
 43 42  2  0
 44 43  1  0
 45 44  1  0
 47 48  1  0
 48 51  1  0
 48 50  1  0
 49 47  2  0
 52 53  1  0
 52 27  1  0
 54 52  1  0
 56 55  1  0
 57 56  1  0
 58 57  1  0
 59 70  2  0
 60 58  1  0
 60 65  1  0
 61 69  1  0
 61 71  1  0
 62 68  1  0
 62 64  1  0
 63 69  1  0
 64 65  2  0
 64 63  1  0
 66 60  2  0
 67 66  1  0
 67 62  2  0
 68 61  1  0
 69 59  1  0
 71 73  2  0
 72 71  1  0
 74 72  1  0
 75 84  2  0
 75 80  1  0
 76 72  1  0
 76 80  1  0
 77 76  1  0
 78 79  1  0
 78 77  1  0
 79 75  1  0
 80 81  2  0
 81 82  1  0
 83 82  2  0
 84 83  1  0
 85 59  1  0
 85 90  1  0
 85 86  1  0
 86 89  1  1
 86 87  1  0
 88 86  1  0
 90 93  1  0
 91 95  1  0
 91 90  1  0
 92 91  2  0
 95 94  1  0
 97 95  1  0
 97 98  1  0
 97 96  1  0
M  ISO  4  13 100  26 100  57 101  58 101
M  END
>  <TORSDO>  (4) 
F 19

>  <SCORE>  (4) 
-11.919

>  <name>  (4) 
3

>  <ligand_id>  (4) 
3

>  <original_smiles>  (4) 
[H]c1c([H])c([H])c2c(c1[H])C([H])([H])C([H])([H])C([H])([H])C2([H])N([H])C(=O)C1([H])N(C(=O)C([H])(N([H])C(=O)C([H])(N([H])C([H])([H])[H])C([H])([H])[H])C(C([H])([H])[H])(C([H])([H])[H])C([H])([H])[H])C([H])([H])c2c([H])c(OC([H])([H])C([H])([H])Oc3c([H])c(C([H])([H])[H])c4c(c3[H])C([H])([H])[N+]([H])([H])C4([H])C3([H])C([H])([H])C([H])([H])N(C(=O)N4C([H])([H])C([H])([H])C([H])([H])C([H])(n5nc(-c6c([H])c([H])c(Oc7c([H])c([H])c(F)c([H])c7F)c([H])c6[H])c(C(=O)N([H])[H])c5N([H])[H])C4([H])[H])C([H])([H])C3([H])[H])c([H])c([H])c2C1([H])[H]

>  <smiles>  (4) 
[H]c1c([H])c([H])c2c(c1[H])C([H])([H])C([H])([H])C([H])([H])C2([H])N([H])C(=O)C1([H])N(C(=O)C([H])(N([H])C(=O)C([H])(N([H])C([H])([H])[H])C([H])([H])[H])C(C([H])([H])[H])(C([H])([H])[H])C([H])([H])[H])C([H])([H])c2c([H])c(OC([H])([H])C([H])([H])Oc3c([H])c(C([H])([H])[H])c4c(c3[H])C([H])([H])[N+]([H])([H])C4([H])C3([H])C([H])([H])C([H])([H])N(C(=O)N4C([H])([H])C([H])([H])C([H])([H])C([H])(n5nc(-c6c([H])c([H])c(Oc7c([H])c([H])c(F)c([H])c7F)c([H])c6[H])c(C(=O)N([H])[H])c5N([H])[H])C4([H])[H])C([H])([H])C3([H])[H])c([H])c([H])c2C1([H])[H]

$$$$
4:0:0
     RDKit          3D

 96104  0  0  1  0  0  0  0  0999 V2000
  -26.6420  -21.0840   19.6100 C   0  0  0  0  0  3  0  0  0  0  0  0
  -28.6020  -22.4540   21.0670 C   0  0  0  0  0  3  0  0  0  0  0  0
  -27.6600  -20.3590   20.2730 C   0  0  0  0  0  0  0  0  0  0  0  0
  -26.6220  -22.4950   19.6470 C   0  0  0  0  0  0  0  0  0  0  0  0
  -28.6280  -21.0520   21.0390 C   0  0  0  0  0  0  0  0  0  0  0  0
  -27.6360  -23.1870   20.3440 C   0  0  0  0  0  0  0  0  0  0  0  0
  -25.5350  -23.2510   18.9090 C   0  0  0  0  0  1  0  0  0  0  0  0
  -29.7400  -20.3480   21.8070 C   0  0  0  0  0  1  0  0  0  0  0  0
  -27.7330  -18.8550   20.1060 C   0  0  0  0  0  2  0  0  0  0  0  0
  -29.0700  -18.5140   19.5860 N   0  0  0  0  0  4  0  0  0  0  0  0
  -29.1180  -18.7590   18.6110 H   0  0  0  0  0  0  0  0  0  0  0  0
  -29.7350  -19.0890   20.0720 H   0  0  0  0  0  0  0  0  0  0  0  0
  -29.4570  -17.1070   19.7600 C   0  0  0  0  0  2  0  0  0  0  0  0
  -30.8140  -16.9340   20.4760 C   0  0  0  0  0  2  0  0  0  0  0  0
  -31.4830  -14.6170   20.0110 C   0  0  0  0  0  0  0  0  0  0  0  0
  -31.0850  -12.4210   18.9760 C   0  0  0  0  0  2  0  0  0  0  0  0
  -30.1040  -12.5700   17.7940 C   0  0  0  0  0  2  0  0  0  0  0  0
  -28.6410  -12.5050   18.2750 C   0  0  0  0  0  2  0  0  0  0  0  0
  -28.3680  -13.4420   19.4790 C   0  0  0  0  0  3  0  0  0  0  0  0
  -29.4450  -13.2430   20.5710 C   0  0  0  0  0  2  0  0  0  0  0  0
  -30.7790  -13.4600   19.9660 N   0  0  0  0  0  0  0  0  0  0  0  0
  -32.4630  -14.8660   19.3020 O   0  0  0  0  0  0  0  0  0  0  0  0
  -30.9530  -15.5260   20.8270 N   0  0  0  0  0  0  0  0  0  0  0  0
  -30.2640  -15.1630   21.4720 H   0  0  0  0  0  0  0  0  0  0  0  0
  -26.0540  -14.2070   20.3300 C   0  0  0  0  0  0  0  0  0  0  0  0
  -24.9550  -13.5040   20.7370 C   0  0  0  0  0  0  0  0  0  0  0  0
  -25.3050  -12.1220   20.6110 C   0  0  0  0  0  0  0  0  0  0  0  0
  -27.0180  -13.2610   20.0070 N   0  0  0  0  0  0  0  0  0  0  0  0
  -26.5680  -12.0000   20.2260 N   0  0  0  0  0  0  0  0  0  0  0  0
  -24.4940  -10.9110   20.7810 C   0  0  0  0  0  0  0  0  0  0  0  0
  -24.8830   -9.8810   21.6670 C   0  0  0  0  0  3  0  0  0  0  0  0
  -24.0780   -8.7330   21.8250 C   0  0  0  0  0  3  0  0  0  0  0  0
  -22.8700   -8.6060   21.0960 C   0  0  0  0  0  0  0  0  0  0  0  0
  -22.5010   -9.6220   20.1980 C   0  0  0  0  0  3  0  0  0  0  0  0
  -23.3050  -10.7620   20.0370 C   0  0  0  0  0  3  0  0  0  0  0  0
  -22.0420   -7.5130   21.1680 O   0  0  0  0  0  0  0  0  0  0  0  0
  -21.9310   -6.7670   22.3140 C   0  0  0  0  0  0  0  0  0  0  0  0
  -21.5360   -7.3420   23.5410 C   0  0  0  0  0  3  0  0  0  0  0  0
  -21.3670   -6.5260   24.6790 C   0  0  0  0  0  3  0  0  0  0  0  0
  -21.5820   -5.1390   24.5880 C   0  0  0  0  0  0  0  0  0  0  0  0
  -21.9720   -4.5630   23.3650 C   0  0  0  0  0  3  0  0  0  0  0  0
  -22.1390   -5.3760   22.2300 C   0  0  0  0  0  0  0  0  0  0  0  0
  -22.4950   -4.8140   21.0490 F   0  0  0  0  0  0  0  0  0  0  0  0
  -21.4120   -4.3530   25.6780 F   0  0  0  0  0  0  0  0  0  0  0  0
  -23.6140  -14.0670   21.1100 C   0  0  0  0  0  0  0  0  0  0  0  0
  -22.8860  -13.3920   21.9900 N   0  0  0  0  0  0  0  0  0  0  0  0
  -23.2260  -15.1440   20.6540 O   0  0  0  0  0  0  0  0  0  0  0  0
  -23.2150  -12.5200   22.3790 H   0  0  0  0  0  0  0  0  0  0  0  0
  -21.9900  -13.7530   22.2850 H   0  0  0  0  0  0  0  0  0  0  0  0
  -26.3080  -15.5690   20.1830 N   0  0  0  0  0  0  0  0  0  0  0  0
  -25.4850  -16.1600   20.2270 H   0  0  0  0  0  0  0  0  0  0  0  0
  -26.9010  -15.8180   19.4040 H   0  0  0  0  0  0  0  0  0  0  0  0
  -27.6820  -24.5580   20.2930 O   0  0  0  0  0  0  0  0  0  0  0  0
  -29.0030  -25.0810   20.1530 C   0  0  0  0  0  2  0  0  0  0  0  0
  -28.9960  -26.6110   20.1280 C   0  0  0  0  0  2  0  0  0  0  0  0
  -28.4040  -27.0820   18.9190 O   0  0  0  0  0  0  0  0  0  0  0  0
  -24.6660  -31.6260   22.9150 C   0  0  0  0  0  0  0  0  0  0  0  0
  -27.2310  -27.7580   19.1140 C   0  0  0  0  0  0  0  0  0  0  0  0
  -23.3860  -30.3750   21.2040 C   0  0  0  0  0  3  0  0  0  0  0  0
  -24.7810  -29.0920   19.4980 C   0  0  0  0  0  0  0  0  0  0  0  0
  -25.8670  -30.8840   20.8670 C   0  0  0  0  0  2  0  0  0  0  0  0
  -25.9560  -29.6050   20.0650 C   0  0  0  0  0  0  0  0  0  0  0  0
  -27.1840  -28.9380   19.8840 C   0  0  0  0  0  3  0  0  0  0  0  0
  -26.0520  -27.2570   18.5330 C   0  0  0  0  0  3  0  0  0  0  0  0
  -24.8230  -27.9090   18.7360 C   0  0  0  0  0  3  0  0  0  0  0  0
  -23.5090  -29.8690   19.7410 C   0  0  0  0  0  2  0  0  0  0  0  0
  -24.6600  -30.9700   21.7220 N   0  0  0  0  0  0  0  0  0  0  0  0
  -23.6220  -31.7820   23.5640 O   0  0  0  0  0  0  0  0  0  0  0  0
  -22.8530  -29.2210   22.0790 C   0  0  0  0  0  0  0  0  0  0  0  0
  -21.5390  -28.9580   21.9850 N   0  0  0  0  0  0  0  0  0  0  0  0
  -23.6150  -28.5660   22.7960 O   0  0  0  0  0  0  0  0  0  0  0  0
  -20.9820  -29.5430   21.3770 H   0  0  0  0  0  0  0  0  0  0  0  0
  -18.3060  -27.4040   22.3950 C   0  0  0  0  0  0  0  0  0  0  0  0
  -20.8260  -27.8910   22.6840 C   0  0  0  0  0  3  0  0  0  0  0  0
  -21.0640  -26.5240   22.0030 C   0  0  0  0  0  2  0  0  0  0  0  0
  -19.9920  -26.1710   20.9670 C   0  0  0  0  0  2  0  0  0  0  0  0
  -18.6090  -26.1330   21.6220 C   0  0  0  0  0  2  0  0  0  0  0  0
  -19.3480  -28.2380   22.8790 C   0  0  0  0  0  0  0  0  0  0  0  0
  -19.0130  -29.4270   23.5630 C   0  0  0  0  0  3  0  0  0  0  0  0
  -17.6670  -29.7860   23.7670 C   0  0  0  0  0  3  0  0  0  0  0  0
  -16.6390  -28.9490   23.2990 C   0  0  0  0  0  3  0  0  0  0  0  0
  -16.9590  -27.7600   22.6190 C   0  0  0  0  0  3  0  0  0  0  0  0
  -25.9750  -32.2350   23.5100 C   0  0  0  0  0  3  0  0  0  0  0  0
  -25.6460  -33.5620   24.0430 N   0  0  0  0  0  0  0  0  0  0  0  0
  -25.9080  -34.7180   23.4160 C   0  0  0  0  0  0  0  0  0  0  0  0
  -26.5250  -34.7780   22.3500 O   0  0  0  0  0  0  0  0  0  0  0  0
  -25.0900  -33.5880   24.8850 H   0  0  0  0  0  0  0  0  0  0  0  0
  -24.1080  -36.4730   23.3840 C   0  0  0  0  0  1  0  0  0  0  0  0
  -25.4000  -36.0130   24.0770 C   0  0  0  0  0  3  0  0  0  0  0  0
  -27.5480  -36.8550   24.9220 C   0  0  0  0  0  1  0  0  0  0  0  0
  -26.3950  -37.1080   24.0610 N   0  0  0  0  0  0  0  0  0  0  0  0
  -25.9690  -37.9850   24.3510 H   0  0  0  0  0  0  0  0  0  0  0  0
  -26.6320  -31.3310   24.6250 C   0  0  1  0  0  0  0  0  0  0  0  0
  -25.6490  -30.9100   25.7420 C   0  0  0  0  0  1  0  0  0  0  0  0
  -27.2260  -30.0420   24.0070 C   0  0  0  0  0  1  0  0  0  0  0  0
  -27.8120  -32.0870   25.2850 C   0  0  0  0  0  1  0  0  0  0  0  0
  1  4  2  0
  1  3  1  0
  3  5  2  0
  4  6  1  0
  5  2  1  0
  5  8  1  0
  6  2  2  0
  7  4  1  0
  9  3  1  0
 10 13  1  0
 10 12  1  0
 10  9  1  0
 11 10  1  0
 13 14  1  0
 14 23  1  0
 15 23  1  0
 16 21  1  0
 17 18  1  0
 17 16  1  0
 19 18  1  0
 19 28  1  0
 19 20  1  0
 21 15  1  0
 21 20  1  0
 22 15  2  0
 23 24  1  0
 25 26  2  0
 26 45  1  0
 27 26  1  0
 27 30  1  0
 28 29  1  0
 28 25  1  0
 29 27  2  0
 30 31  1  0
 31 32  2  0
 33 36  1  0
 33 32  1  0
 34 33  2  0
 35 34  1  0
 35 30  2  0
 36 37  1  0
 37 38  1  0
 38 39  2  0
 40 39  1  0
 40 44  1  0
 41 40  2  0
 42 37  2  0
 42 41  1  0
 43 42  1  0
 45 46  1  0
 46 49  1  0
 46 48  1  0
 47 45  2  0
 50 51  1  0
 50 25  1  0
 52 50  1  0
 53  6  1  0
 54 53  1  0
 55 54  1  0
 56 58  1  0
 56 55  1  0
 57 68  2  0
 58 63  1  0
 59 67  1  0
 59 69  1  0
 60 66  1  0
 60 62  1  0
 61 67  1  0
 62 61  1  0
 63 62  2  0
 64 65  1  0
 64 58  2  0
 65 60  2  0
 66 59  1  0
 67 57  1  0
 69 71  2  0
 70 69  1  0
 72 70  1  0
 73 82  2  0
 73 78  1  0
 74 70  1  0
 74 78  1  0
 75 74  1  0
 76 77  1  0
 76 75  1  0
 77 73  1  0
 78 79  2  0
 79 80  1  0
 81 80  2  0
 82 81  1  0
 83 57  1  0
 83 84  1  0
 83 93  1  0
 84 87  1  0
 85 84  1  0
 85 89  1  0
 86 85  2  0
 89 88  1  0
 91 89  1  0
 91 92  1  0
 91 90  1  0
 93 96  1  1
 93 94  1  0
 95 93  1  0
M  ISO  4  15 100  23 100  55 101  56 101
M  END
>  <TORSDO>  (5) 
F 23

>  <SCORE>  (5) 
-10.214

>  <name>  (5) 
4

>  <ligand_id>  (5) 
4

>  <original_smiles>  (5) 
[H]c1c([H])c([H])c2c(c1[H])C([H])([H])C([H])([H])C([H])([H])C2([H])N([H])C(=O)C1([H])N(C(=O)C([H])(N([H])C(=O)C([H])(N([H])C([H])([H])[H])C([H])([H])[H])C(C([H])([H])[H])(C([H])([H])[H])C([H])([H])[H])C([H])([H])c2c([H])c(OC([H])([H])C([H])([H])Oc3c([H])c(C([H])([H])[H])c(C([H])([H])[N+]([H])([H])C([H])([H])C([H])([H])N([H])C(=O)N4C([H])([H])C([H])([H])C([H])([H])C([H])(n5nc(-c6c([H])c([H])c(Oc7c([H])c([H])c(F)c([H])c7F)c([H])c6[H])c(C(=O)N([H])[H])c5N([H])[H])C4([H])[H])c([H])c3C([H])([H])[H])c([H])c([H])c2C1([H])[H]

>  <smiles>  (5) 
[H]c1c([H])c([H])c2c(c1[H])C([H])([H])C([H])([H])C([H])([H])C2([H])N([H])C(=O)C1([H])N(C(=O)C([H])(N([H])C(=O)C([H])(N([H])C([H])([H])[H])C([H])([H])[H])C(C([H])([H])[H])(C([H])([H])[H])C([H])([H])[H])C([H])([H])c2c([H])c(OC([H])([H])C([H])([H])Oc3c([H])c(C([H])([H])[H])c(C([H])([H])[N+]([H])([H])C([H])([H])C([H])([H])N([H])C(=O)N4C([H])([H])C([H])([H])C([H])([H])C([H])(n5nc(-c6c([H])c([H])c(Oc7c([H])c([H])c(F)c([H])c7F)c([H])c6[H])c(C(=O)N([H])[H])c5N([H])[H])C4([H])[H])c([H])c3C([H])([H])[H])c([H])c([H])c2C1([H])[H]

$$$$
5:0:0
     RDKit          3D

 92100  0  0  1  0  0  0  0  0999 V2000
  -28.7650  -19.6700   19.4750 C   0  0  0  0  0  3  0  0  0  0  0  0
  -30.5410  -18.6200   21.3150 C   0  0  0  0  0  3  0  0  0  0  0  0
  -29.3060  -20.6380   20.3850 C   0  0  0  0  0  0  0  0  0  0  0  0
  -29.9460  -17.6580   20.4360 C   0  0  0  0  0  0  0  0  0  0  0  0
  -29.0430  -18.2430   19.4990 C   0  0  0  0  0  0  0  0  0  0  0  0
  -30.2370  -20.0500   21.3130 C   0  0  0  0  0  0  0  0  0  0  0  0
  -30.8420  -15.0980   20.3440 C   0  0  0  0  0  0  0  0  0  0  0  0
  -30.7620  -12.7670   19.3830 C   0  0  0  0  0  2  0  0  0  0  0  0
  -29.8260  -12.8010   18.1520 C   0  0  0  0  0  2  0  0  0  0  0  0
  -28.3510  -12.6060   18.5620 C   0  0  0  0  0  2  0  0  0  0  0  0
  -27.9570  -13.4570   19.8000 C   0  0  0  0  0  3  0  0  0  0  0  0
  -29.0200  -13.4020   20.9160 C   0  0  0  0  0  2  0  0  0  0  0  0
  -30.2990  -13.8230   20.3200 N   0  0  0  0  0  0  0  0  0  0  0  0
  -32.0130  -15.2620   19.9870 O   0  0  0  0  0  0  0  0  0  0  0  0
  -29.9810  -16.1620   20.6500 N   0  0  0  0  0  0  0  0  0  0  0  0
  -29.0710  -15.7990   20.8860 H   0  0  0  0  0  0  0  0  0  0  0  0
  -25.5750  -14.0010   20.5760 C   0  0  0  0  0  0  0  0  0  0  0  0
  -24.5210  -13.2100   20.9440 C   0  0  0  0  0  0  0  0  0  0  0  0
  -24.9920  -11.8630   20.8640 C   0  0  0  0  0  0  0  0  0  0  0  0
  -26.6210  -13.1360   20.2970 N   0  0  0  0  0  0  0  0  0  0  0  0
  -26.2780  -11.8430   20.5280 N   0  0  0  0  0  0  0  0  0  0  0  0
  -24.2740  -10.5920   21.0260 C   0  0  0  0  0  0  0  0  0  0  0  0
  -24.6770   -9.6300   21.9810 C   0  0  0  0  0  3  0  0  0  0  0  0
  -23.9560   -8.4260   22.1340 C   0  0  0  0  0  3  0  0  0  0  0  0
  -22.8220   -8.1710   21.3280 C   0  0  0  0  0  0  0  0  0  0  0  0
  -22.4380   -9.1190   20.3630 C   0  0  0  0  0  3  0  0  0  0  0  0
  -23.1580  -10.3160   20.2100 C   0  0  0  0  0  3  0  0  0  0  0  0
  -22.0800   -7.0150   21.3860 O   0  0  0  0  0  0  0  0  0  0  0  0
  -21.8990   -6.3330   22.5610 C   0  0  0  0  0  0  0  0  0  0  0  0
  -21.2850   -6.9310   23.6830 C   0  0  0  0  0  3  0  0  0  0  0  0
  -21.0620   -6.1750   24.8510 C   0  0  0  0  0  3  0  0  0  0  0  0
  -21.4380   -4.8190   24.8950 C   0  0  0  0  0  0  0  0  0  0  0  0
  -22.0410   -4.2180   23.7760 C   0  0  0  0  0  3  0  0  0  0  0  0
  -22.2700   -4.9730   22.6130 C   0  0  0  0  0  0  0  0  0  0  0  0
  -22.8360   -4.3860   21.5310 F   0  0  0  0  0  0  0  0  0  0  0  0
  -21.2140   -4.0900   26.0110 F   0  0  0  0  0  0  0  0  0  0  0  0
  -23.1260  -13.6710   21.2540 C   0  0  0  0  0  0  0  0  0  0  0  0
  -22.4150  -12.9500   22.1150 N   0  0  0  0  0  0  0  0  0  0  0  0
  -22.6760  -14.7090   20.7720 O   0  0  0  0  0  0  0  0  0  0  0  0
  -22.7910  -12.1100   22.5300 H   0  0  0  0  0  0  0  0  0  0  0  0
  -21.4820  -13.2470   22.3670 H   0  0  0  0  0  0  0  0  0  0  0  0
  -25.7280  -15.3760   20.4300 N   0  0  0  0  0  0  0  0  0  0  0  0
  -24.9440  -16.0140   20.5090 H   0  0  0  0  0  0  0  0  0  0  0  0
  -26.5430  -15.8050   20.0110 H   0  0  0  0  0  0  0  0  0  0  0  0
  -27.4300  -17.8290   17.7580 C   0  0  0  0  0  1  0  0  0  0  0  0
  -28.4070  -17.3410   18.6670 O   0  0  0  0  0  0  0  0  0  0  0  0
  -31.4090  -20.3890   23.4080 C   0  0  0  0  0  1  0  0  0  0  0  0
  -30.7880  -20.9170   22.2350 O   0  0  0  0  0  0  0  0  0  0  0  0
  -28.6220  -22.1270   20.4980 C   0  0  0  0  0  3  0  0  0  0  0  0
  -29.2470  -23.6500   20.3030 C   0  0  0  0  0  3  0  0  0  0  0  0
  -28.2300  -24.9490   20.0470 C   0  0  0  0  0  2  0  0  0  0  0  0
  -28.4900  -26.4550   20.2540 O   0  0  0  0  0  0  0  0  0  0  0  0
  -24.7080  -31.9480   23.3220 C   0  0  0  0  0  0  0  0  0  0  0  0
  -27.4050  -27.3940   20.2010 C   0  0  0  0  0  0  0  0  0  0  0  0
  -23.5490  -30.5820   21.6290 C   0  0  0  0  0  3  0  0  0  0  0  0
  -25.0390  -29.0740   20.1840 C   0  0  0  0  0  0  0  0  0  0  0  0
  -26.0980  -30.9020   21.5020 C   0  0  0  0  0  2  0  0  0  0  0  0
  -26.2020  -29.5330   20.8170 C   0  0  0  0  0  0  0  0  0  0  0  0
  -27.3880  -28.7110   20.8030 C   0  0  0  0  0  3  0  0  0  0  0  0
  -26.2090  -27.0230   19.5460 C   0  0  0  0  0  3  0  0  0  0  0  0
  -25.0540  -27.8320   19.5360 C   0  0  0  0  0  3  0  0  0  0  0  0
  -23.7990  -29.9490   20.2340 C   0  0  0  0  0  2  0  0  0  0  0  0
  -24.8020  -31.1640   22.2070 N   0  0  0  0  0  0  0  0  0  0  0  0
  -23.6110  -32.2010   23.8470 O   0  0  0  0  0  0  0  0  0  0  0  0
  -22.8770  -29.5360   22.5540 C   0  0  0  0  0  0  0  0  0  0  0  0
  -21.5590  -29.3300   22.3830 N   0  0  0  0  0  0  0  0  0  0  0  0
  -23.5400  -28.9160   23.3890 O   0  0  0  0  0  0  0  0  0  0  0  0
  -21.0730  -29.8910   21.6990 H   0  0  0  0  0  0  0  0  0  0  0  0
  -18.2060  -28.0080   22.7480 C   0  0  0  0  0  0  0  0  0  0  0  0
  -20.7430  -28.3590   23.1140 C   0  0  0  0  0  3  0  0  0  0  0  0
  -20.9150  -26.9350   22.5420 C   0  0  0  0  0  2  0  0  0  0  0  0
  -19.8670  -26.5760   21.4830 C   0  0  0  0  0  2  0  0  0  0  0  0
  -18.4570  -26.6700   22.0740 C   0  0  0  0  0  2  0  0  0  0  0  0
  -19.2810  -28.8060   23.2230 C   0  0  0  0  0  0  0  0  0  0  0  0
  -18.9950  -30.0540   23.8160 C   0  0  0  0  0  3  0  0  0  0  0  0
  -17.6660  -30.5030   23.9440 C   0  0  0  0  0  3  0  0  0  0  0  0
  -16.6060  -29.7030   23.4840 C   0  0  0  0  0  3  0  0  0  0  0  0
  -16.8760  -28.4570   22.8920 C   0  0  0  0  0  3  0  0  0  0  0  0
  -25.9690  -32.5800   23.9840 C   0  0  0  0  0  3  0  0  0  0  0  0
  -25.6480  -33.9790   24.3070 N   0  0  0  0  0  0  0  0  0  0  0  0
  -25.9570  -35.0320   23.5380 C   0  0  0  0  0  0  0  0  0  0  0  0
  -26.6150  -34.9280   22.4980 O   0  0  0  0  0  0  0  0  0  0  0  0
  -25.0620  -34.1300   25.1130 H   0  0  0  0  0  0  0  0  0  0  0  0
  -24.1890  -36.7990   23.2180 C   0  0  0  0  0  1  0  0  0  0  0  0
  -25.4610  -36.4200   23.9950 C   0  0  0  0  0  3  0  0  0  0  0  0
  -27.6030  -37.3590   24.7490 C   0  0  0  0  0  1  0  0  0  0  0  0
  -26.4720  -37.4890   23.8350 N   0  0  0  0  0  0  0  0  0  0  0  0
  -26.0520  -38.4050   23.9730 H   0  0  0  0  0  0  0  0  0  0  0  0
  -26.4400  -31.8120   25.2780 C   0  0  1  0  0  0  0  0  0  0  0  0
  -25.3100  -31.5820   26.3090 C   0  0  0  0  0  1  0  0  0  0  0  0
  -27.0370  -30.4300   24.9160 C   0  0  0  0  0  1  0  0  0  0  0  0
  -27.5630  -32.6100   25.9800 C   0  0  0  0  0  1  0  0  0  0  0  0
  1  5  2  0
  1  3  1  0
  3 49  1  0
  3  6  2  0
  4 15  1  0
  4  2  2  0
  5  4  1  0
  6  2  1  0
  6 48  1  0
  7 15  1  0
  8 13  1  0
  9 10  1  0
  9  8  1  0
 11 10  1  0
 11 20  1  0
 11 12  1  0
 13  7  1  0
 13 12  1  0
 14  7  2  0
 15 16  1  0
 17 18  2  0
 18 37  1  0
 19 18  1  0
 19 22  1  0
 20 21  1  0
 20 17  1  0
 21 19  2  0
 22 23  1  0
 23 24  2  0
 25 28  1  0
 25 24  1  0
 26 25  2  0
 27 26  1  0
 27 22  2  0
 28 29  1  0
 29 34  2  0
 29 30  1  0
 30 31  2  0
 31 32  1  0
 32 36  1  0
 33 32  2  0
 34 33  1  0
 35 34  1  0
 37 38  1  0
 38 41  1  0
 38 40  1  0
 39 37  2  0
 42 43  1  0
 42 17  1  0
 44 42  1  0
 45 46  1  0
 46  5  1  0
 48 47  1  0
 50 49  2  0
 51 52  1  0
 51 50  1  0
 53 64  2  0
 54 52  1  0
 54 59  1  0
 55 63  1  0
 55 65  1  0
 56 62  1  0
 56 58  1  0
 57 63  1  0
 58 57  1  0
 59 58  2  0
 60 54  2  0
 61 60  1  0
 61 56  2  0
 62 55  1  0
 63 53  1  0
 65 67  2  0
 66 65  1  0
 68 66  1  0
 69 78  2  0
 69 74  1  0
 70 66  1  0
 70 74  1  0
 71 70  1  0
 72 73  1  0
 72 71  1  0
 73 69  1  0
 74 75  2  0
 75 76  1  0
 77 76  2  0
 78 77  1  0
 79 53  1  0
 79 80  1  0
 79 89  1  0
 80 83  1  0
 81 85  1  0
 81 80  1  0
 82 81  2  0
 85 84  1  0
 87 88  1  0
 87 85  1  0
 87 86  1  0
 89 92  1  1
 89 90  1  0
 91 89  1  0
M  ISO  4   7 100  15 100  51 101  52 101
M  END
>  <TORSDO>  (6) 
F 21

>  <SCORE>  (6) 
-13.003

>  <name>  (6) 
5

>  <ligand_id>  (6) 
5

>  <original_smiles>  (6) 
[H]c1c([H])c([H])c2c(c1[H])C([H])([H])C([H])([H])C([H])([H])C2([H])N([H])C(=O)C1([H])N(C(=O)C([H])(N([H])C(=O)C([H])(N([H])C([H])([H])[H])C([H])([H])[H])C(C([H])([H])[H])(C([H])([H])[H])C([H])([H])[H])C([H])([H])c2c([H])c(OC([H])([H])C([H])([H])C([H])([H])c3c([H])c(OC([H])([H])[H])c(N([H])C(=O)N4C([H])([H])C([H])([H])C([H])([H])C([H])(n5nc(-c6c([H])c([H])c(Oc7c([H])c([H])c(F)c([H])c7F)c([H])c6[H])c(C(=O)N([H])[H])c5N([H])[H])C4([H])[H])c([H])c3OC([H])([H])[H])c([H])c([H])c2C1([H])[H]

>  <smiles>  (6) 
[H]c1c([H])c([H])c2c(c1[H])C([H])([H])C([H])([H])C([H])([H])C2([H])N([H])C(=O)C1([H])N(C(=O)C([H])(N([H])C(=O)C([H])(N([H])C([H])([H])[H])C([H])([H])[H])C(C([H])([H])[H])(C([H])([H])[H])C([H])([H])[H])C([H])([H])c2c([H])c(OC([H])([H])C([H])([H])C([H])([H])c3c([H])c(OC([H])([H])[H])c(N([H])C(=O)N4C([H])([H])C([H])([H])C([H])([H])C([H])(n5nc(-c6c([H])c([H])c(Oc7c([H])c([H])c(F)c([H])c7F)c([H])c6[H])c(C(=O)N([H])[H])c5N([H])[H])C4([H])[H])c([H])c3OC([H])([H])[H])c([H])c([H])c2C1([H])[H]

$$$$
6:0:0
     RDKit          3D

 97106  0  0  1  0  0  0  0  0999 V2000
  -28.1830  -23.1810   20.2600 C   0  0  0  0  0  2  0  0  0  0  0  0
  -28.6030  -21.6790   20.1000 C   0  0  0  0  0  2  0  0  0  0  0  0
  -29.0360  -24.1160   19.3650 C   0  0  0  0  0  3  0  0  0  0  0  0
  -30.5310  -23.9140   19.7360 C   0  0  0  0  0  3  0  0  0  0  0  0
  -30.1270  -21.3970   20.3070 C   0  0  0  0  0  3  0  0  0  0  0  0
  -30.9560  -22.4310   19.4860 C   0  0  0  0  0  3  0  0  0  0  0  0
  -31.4850  -24.9020   19.0420 C   0  0  0  0  0  1  0  0  0  0  0  0
  -30.5780  -20.0230   19.8910 N   0  0  0  0  0  4  0  0  0  0  0  0
  -31.5780  -19.9790   20.0320 H   0  0  0  0  0  0  0  0  0  0  0  0
  -30.4370  -19.9930   18.8890 H   0  0  0  0  0  0  0  0  0  0  0  0
  -30.6980  -14.5850   20.4850 C   0  0  0  0  0  0  0  0  0  0  0  0
  -30.3770  -12.4010   19.3620 C   0  0  0  0  0  2  0  0  0  0  0  0
  -29.4540  -12.5780   18.1380 C   0  0  0  0  0  2  0  0  0  0  0  0
  -27.9710  -12.4450   18.5470 C   0  0  0  0  0  2  0  0  0  0  0  0
  -27.6130  -13.2690   19.8140 C   0  0  0  0  0  3  0  0  0  0  0  0
  -28.6740  -13.1090   20.9270 C   0  0  0  0  0  2  0  0  0  0  0  0
  -29.9930  -13.4180   20.3530 N   0  0  0  0  0  0  0  0  0  0  0  0
  -31.8810  -14.6740   20.1550 O   0  0  0  0  0  0  0  0  0  0  0  0
  -30.9970  -18.0210   21.3990 C   0  0  0  0  0  2  0  0  0  0  0  0
  -29.6880  -17.7660   19.3440 C   0  0  0  0  0  2  0  0  0  0  0  0
  -30.4700  -16.6380   21.8950 C   0  0  0  0  0  2  0  0  0  0  0  0
  -29.1460  -16.4020   19.8430 C   0  0  0  0  0  2  0  0  0  0  0  0
  -30.0060  -18.7660   20.4720 C   0  0  0  0  0  3  0  0  0  0  0  0
  -30.0090  -15.7160   20.8300 N   0  0  0  0  0  0  0  0  0  0  0  0
  -25.2170  -13.8810   20.5070 C   0  0  0  0  0  0  0  0  0  0  0  0
  -24.1430  -13.1130   20.8690 C   0  0  0  0  0  0  0  0  0  0  0  0
  -24.6020  -11.7610   20.8420 C   0  0  0  0  0  0  0  0  0  0  0  0
  -26.2610  -12.9950   20.2880 N   0  0  0  0  0  0  0  0  0  0  0  0
  -25.8950  -11.7160   20.5490 N   0  0  0  0  0  0  0  0  0  0  0  0
  -23.8730  -10.5010   21.0290 C   0  0  0  0  0  0  0  0  0  0  0  0
  -24.2930   -9.5460   21.9790 C   0  0  0  0  0  3  0  0  0  0  0  0
  -23.5710   -8.3440   22.1530 C   0  0  0  0  0  3  0  0  0  0  0  0
  -22.4140   -8.0960   21.3810 C   0  0  0  0  0  0  0  0  0  0  0  0
  -22.0130   -9.0420   20.4200 C   0  0  0  0  0  3  0  0  0  0  0  0
  -22.7340  -10.2340   20.2440 C   0  0  0  0  0  3  0  0  0  0  0  0
  -21.6580   -6.9510   21.4660 O   0  0  0  0  0  0  0  0  0  0  0  0
  -21.5770   -6.2240   22.6250 C   0  0  0  0  0  0  0  0  0  0  0  0
  -21.1000   -6.7870   23.8300 C   0  0  0  0  0  3  0  0  0  0  0  0
  -20.9740   -5.9820   24.9790 C   0  0  0  0  0  3  0  0  0  0  0  0
  -21.3130   -4.6150   24.9240 C   0  0  0  0  0  0  0  0  0  0  0  0
  -21.7800   -4.0520   23.7220 C   0  0  0  0  0  3  0  0  0  0  0  0
  -21.9100   -4.8550   22.5750 C   0  0  0  0  0  0  0  0  0  0  0  0
  -22.3410   -4.3020   21.4160 F   0  0  0  0  0  0  0  0  0  0  0  0
  -21.1860   -3.8410   26.0250 F   0  0  0  0  0  0  0  0  0  0  0  0
  -22.7420  -13.5940   21.1230 C   0  0  0  0  0  0  0  0  0  0  0  0
  -21.9980  -12.8980   21.9730 N   0  0  0  0  0  0  0  0  0  0  0  0
  -22.3130  -14.6190   20.5940 O   0  0  0  0  0  0  0  0  0  0  0  0
  -22.3620  -12.0760   22.4320 H   0  0  0  0  0  0  0  0  0  0  0  0
  -21.0500  -13.1910   22.1730 H   0  0  0  0  0  0  0  0  0  0  0  0
  -25.3850  -15.2510   20.3220 N   0  0  0  0  0  0  0  0  0  0  0  0
  -24.6200  -15.9090   20.4300 H   0  0  0  0  0  0  0  0  0  0  0  0
  -26.2450  -15.6830   20.0140 H   0  0  0  0  0  0  0  0  0  0  0  0
  -28.5180  -25.5800   19.0750 C   0  0  0  0  0  2  0  0  0  0  0  0
  -28.3380  -26.5810   20.1230 O   0  0  0  0  0  0  0  0  0  0  0  0
  -24.5410  -31.8700   23.1970 C   0  0  0  0  0  0  0  0  0  0  0  0
  -27.1880  -27.3730   20.1120 C   0  0  0  0  0  0  0  0  0  0  0  0
  -23.3510  -30.4750   21.5470 C   0  0  0  0  0  3  0  0  0  0  0  0
  -24.8100  -28.9460   20.1280 C   0  0  0  0  0  0  0  0  0  0  0  0
  -25.8910  -30.8150   21.3730 C   0  0  0  0  0  2  0  0  0  0  0  0
  -25.9760  -29.4450   20.7200 C   0  0  0  0  0  0  0  0  0  0  0  0
  -27.1690  -28.6680   20.7050 C   0  0  0  0  0  3  0  0  0  0  0  0
  -25.9700  -26.8950   19.5650 C   0  0  0  0  0  3  0  0  0  0  0  0
  -24.8040  -27.6720   19.5510 C   0  0  0  0  0  3  0  0  0  0  0  0
  -23.5740  -29.8130   20.1640 C   0  0  0  0  0  2  0  0  0  0  0  0
  -24.6140  -31.0690   22.0960 N   0  0  0  0  0  0  0  0  0  0  0  0
  -23.4540  -32.1380   23.7290 O   0  0  0  0  0  0  0  0  0  0  0  0
  -22.6960  -29.4420   22.4970 C   0  0  0  0  0  0  0  0  0  0  0  0
  -21.3680  -29.2710   22.3790 N   0  0  0  0  0  0  0  0  0  0  0  0
  -23.3800  -28.8030   23.3000 O   0  0  0  0  0  0  0  0  0  0  0  0
  -20.8820  -29.8430   21.7030 H   0  0  0  0  0  0  0  0  0  0  0  0
  -17.9800  -28.1180   22.9050 C   0  0  0  0  0  0  0  0  0  0  0  0
  -20.5470  -28.3340   23.1460 C   0  0  0  0  0  3  0  0  0  0  0  0
  -20.6180  -26.9110   22.5460 C   0  0  0  0  0  2  0  0  0  0  0  0
  -19.5000  -26.6210   21.5420 C   0  0  0  0  0  2  0  0  0  0  0  0
  -18.1280  -26.7770   22.2040 C   0  0  0  0  0  2  0  0  0  0  0  0
  -19.1160  -28.8560   23.3320 C   0  0  0  0  0  0  0  0  0  0  0  0
  -18.9240  -30.1120   23.9470 C   0  0  0  0  0  3  0  0  0  0  0  0
  -17.6290  -30.6290   24.1390 C   0  0  0  0  0  3  0  0  0  0  0  0
  -16.5080  -29.8860   23.7300 C   0  0  0  0  0  3  0  0  0  0  0  0
  -16.6850  -28.6330   23.1180 C   0  0  0  0  0  3  0  0  0  0  0  0
  -25.8190  -32.5060   23.8260 C   0  0  0  0  0  3  0  0  0  0  0  0
  -26.3330  -31.7330   25.1020 C   0  0  1  0  0  0  0  0  0  0  0  0
  -25.2360  -31.4890   26.1650 C   0  0  0  0  0  1  0  0  0  0  0  0
  -26.9220  -30.3580   24.7110 C   0  0  0  0  0  1  0  0  0  0  0  0
  -27.4790  -32.5310   25.7720 C   0  0  0  0  0  1  0  0  0  0  0  0
  -25.5030  -33.9000   24.1580 N   0  0  0  0  0  0  0  0  0  0  0  0
  -25.8300  -34.9580   23.4030 C   0  0  0  0  0  0  0  0  0  0  0  0
  -26.5050  -34.8610   22.3730 O   0  0  0  0  0  0  0  0  0  0  0  0
  -24.9080  -34.0490   24.9590 H   0  0  0  0  0  0  0  0  0  0  0  0
  -24.1000  -36.7460   23.0330 C   0  0  0  0  0  1  0  0  0  0  0  0
  -25.3310  -36.3420   23.8600 C   0  0  0  0  0  3  0  0  0  0  0  0
  -27.4520  -37.2280   24.7230 C   0  0  0  0  0  1  0  0  0  0  0  0
  -26.3600  -37.4000   23.7700 N   0  0  0  0  0  0  0  0  0  0  0  0
  -25.9480  -38.3180   23.9190 H   0  0  0  0  0  0  0  0  0  0  0  0
  -30.7260  -22.0770   18.1140 O   0  0  0  0  0  0  0  0  0  0  0  0
  -31.4060  -21.5810   15.8740 C   0  0  0  0  0  1  0  0  0  0  0  0
  -31.8720  -22.0000   17.2750 C   0  0  0  0  0  2  0  0  0  0  0  0
  2  1  1  0
  2  5  1  0
  3 53  1  0
  3  4  1  0
  3  1  1  0
  4  7  1  0
  5  8  1  0
  6 95  1  0
  6  4  1  0
  6  5  1  0
  8  9  1  0
 10  8  1  0
 11 24  1  0
 12 17  1  0
 13 14  1  0
 13 12  1  0
 15 14  1  0
 15 28  1  0
 15 16  1  0
 17 11  1  0
 17 16  1  0
 18 11  2  0
 19 21  1  0
 20 22  1  0
 20 23  1  0
 22 24  1  0
 23  8  1  0
 23 19  1  0
 24 21  1  0
 25 26  2  0
 26 45  1  0
 27 26  1  0
 27 30  1  0
 28 25  1  0
 28 29  1  0
 29 27  2  0
 30 31  1  0
 31 32  2  0
 33 36  1  0
 33 32  1  0
 34 33  2  0
 35 34  1  0
 35 30  2  0
 36 37  1  0
 37 38  1  0
 38 39  2  0
 40 39  1  0
 40 44  1  0
 41 40  2  0
 42 37  2  0
 42 41  1  0
 43 42  1  0
 45 46  1  0
 46 49  1  0
 46 48  1  0
 47 45  2  0
 50 51  1  0
 50 25  1  0
 52 50  1  0
 53 54  1  0
 55 66  2  0
 56 54  1  0
 56 61  1  0
 57 65  1  0
 57 67  1  0
 58 64  1  0
 58 60  1  0
 59 65  1  0
 60 59  1  0
 61 60  2  0
 62 56  2  0
 63 62  1  0
 63 58  2  0
 64 57  1  0
 65 55  1  0
 67 69  2  0
 68 67  1  0
 70 68  1  0
 71 80  2  0
 71 76  1  0
 72 68  1  0
 72 76  1  0
 73 72  1  0
 74 75  1  0
 74 73  1  0
 75 71  1  0
 76 77  2  0
 77 78  1  0
 79 78  2  0
 80 79  1  0
 81 55  1  0
 81 86  1  0
 81 82  1  0
 82 85  1  1
 82 83  1  0
 84 82  1  0
 86 89  1  0
 87 91  1  0
 87 86  1  0
 88 87  2  0
 91 90  1  0
 93 91  1  0
 93 94  1  0
 93 92  1  0
 96 97  1  0
 97 95  1  0
M  ISO  4  11 100  24 100  53 101  54 101
M  END
>  <TORSDO>  (7) 
F 20

>  <SCORE>  (7) 
-14.191

>  <name>  (7) 
6

>  <ligand_id>  (7) 
6

>  <original_smiles>  (7) 
[H]c1c([H])c([H])c2c(c1[H])C([H])([H])C([H])([H])C([H])([H])C2([H])N([H])C(=O)C1([H])N(C(=O)C([H])(N([H])C(=O)C([H])(N([H])C([H])([H])[H])C([H])([H])[H])C(C([H])([H])[H])(C([H])([H])[H])C([H])([H])[H])C([H])([H])c2c([H])c(OC([H])([H])C3([H])C([H])([H])C([H])([H])C([H])([N+]([H])([H])C4([H])C([H])([H])C([H])([H])N(C(=O)N5C([H])([H])C([H])([H])C([H])([H])C([H])(n6nc(-c7c([H])c([H])c(Oc8c([H])c([H])c(F)c([H])c8F)c([H])c7[H])c(C(=O)N([H])[H])c6N([H])[H])C5([H])[H])C([H])([H])C4([H])[H])C([H])(OC([H])([H])C([H])([H])[H])C3([H])C([H])([H])[H])c([H])c([H])c2C1([H])[H]

>  <smiles>  (7) 
[H]c1c([H])c([H])c2c(c1[H])C([H])([H])C([H])([H])C([H])([H])C2([H])N([H])C(=O)C1([H])N(C(=O)C([H])(N([H])C(=O)C([H])(N([H])C([H])([H])[H])C([H])([H])[H])C(C([H])([H])[H])(C([H])([H])[H])C([H])([H])[H])C([H])([H])c2c([H])c(OC([H])([H])C3([H])C([H])([H])C([H])([H])C([H])([N+]([H])([H])C4([H])C([H])([H])C([H])([H])N(C(=O)N5C([H])([H])C([H])([H])C([H])([H])C([H])(n6nc(-c7c([H])c([H])c(Oc8c([H])c([H])c(F)c([H])c8F)c([H])c7[H])c(C(=O)N([H])[H])c6N([H])[H])C5([H])[H])C([H])([H])C4([H])[H])C([H])(OC([H])([H])C([H])([H])[H])C3([H])C([H])([H])[H])c([H])c([H])c2C1([H])[H]

$$$$
7:0:0
     RDKit          3D

 91100  0  0  1  0  0  0  0  0999 V2000
  -26.6980  -22.0900   19.8110 C   0  0  0  0  0  2  0  0  0  0  0  0
  -26.8400  -21.6540   18.3640 C   0  0  0  0  0  2  0  0  0  0  0  0
  -28.0340  -21.5590   19.2740 C   0  0  2  0  0  0  0  0  0  0  0  0
  -30.7130  -14.9090   19.3270 C   0  0  0  0  0  0  0  0  0  0  0  0
  -30.3820  -12.5320   18.5000 C   0  0  0  0  0  2  0  0  0  0  0  0
  -29.3090  -12.3750   17.4020 C   0  0  0  0  0  2  0  0  0  0  0  0
  -27.9230  -12.1830   18.0340 C   0  0  0  0  0  2  0  0  0  0  0  0
  -27.6500  -13.1730   19.1980 C   0  0  0  0  0  3  0  0  0  0  0  0
  -28.8430  -13.3010   20.1670 C   0  0  0  0  0  2  0  0  0  0  0  0
  -29.9900  -13.7070   19.3420 N   0  0  0  0  0  0  0  0  0  0  0  0
  -31.9200  -14.7640   19.1070 O   0  0  0  0  0  0  0  0  0  0  0  0
  -29.3710  -18.8510   19.1850 C   0  0  0  0  0  3  0  0  0  0  0  0
  -27.6950  -17.8850   21.0200 C   0  0  0  0  0  3  0  0  0  0  0  0
  -28.3740  -19.8900   19.6530 C   0  0  0  0  0  0  0  0  0  0  0  0
  -27.3950  -19.1060   20.3920 C   0  0  0  0  0  0  0  0  0  0  0  0
  -29.4380  -17.3930   19.6150 C   0  0  0  0  0  0  0  0  0  0  0  0
  -25.8670  -19.2780   20.3730 C   0  0  0  0  0  1  0  0  0  0  0  0
  -28.6690  -17.0510   20.6520 N   0  0  0  0  0  0  0  0  0  0  0  0
  -30.2060  -16.2200   19.0000 N   0  0  0  0  0  0  0  0  0  0  0  0
  -30.8720  -16.5880   18.3390 H   0  0  0  0  0  0  0  0  0  0  0  0
  -25.4590  -13.7830   20.3600 C   0  0  0  0  0  0  0  0  0  0  0  0
  -24.4080  -13.0340   20.8050 C   0  0  0  0  0  0  0  0  0  0  0  0
  -24.7730  -11.6700   20.5830 C   0  0  0  0  0  0  0  0  0  0  0  0
  -26.3970  -12.8850   19.8860 N   0  0  0  0  0  0  0  0  0  0  0  0
  -26.0040  -11.5980   20.0850 N   0  0  0  0  0  0  0  0  0  0  0  0
  -23.9950  -10.4370   20.7610 C   0  0  0  0  0  0  0  0  0  0  0  0
  -24.4410   -9.3970   21.6070 C   0  0  0  0  0  3  0  0  0  0  0  0
  -23.6670   -8.2300   21.7770 C   0  0  0  0  0  3  0  0  0  0  0  0
  -22.4300   -8.0940   21.1020 C   0  0  0  0  0  0  0  0  0  0  0  0
  -22.0020   -9.1200   20.2420 C   0  0  0  0  0  3  0  0  0  0  0  0
  -22.7770  -10.2800   20.0690 C   0  0  0  0  0  3  0  0  0  0  0  0
  -21.6220   -6.9860   21.1890 O   0  0  0  0  0  0  0  0  0  0  0  0
  -21.5400   -6.2420   22.3390 C   0  0  0  0  0  0  0  0  0  0  0  0
  -21.1600   -6.8170   23.5710 C   0  0  0  0  0  3  0  0  0  0  0  0
  -21.0220   -6.0040   24.7150 C   0  0  0  0  0  3  0  0  0  0  0  0
  -21.2510   -4.6180   24.6280 C   0  0  0  0  0  0  0  0  0  0  0  0
  -21.6230   -4.0420   23.3990 C   0  0  0  0  0  3  0  0  0  0  0  0
  -21.7650   -4.8530   22.2590 C   0  0  0  0  0  0  0  0  0  0  0  0
  -22.1040   -4.2890   21.0740 F   0  0  0  0  0  0  0  0  0  0  0  0
  -21.1110   -3.8360   25.7230 F   0  0  0  0  0  0  0  0  0  0  0  0
  -23.0970  -13.5560   21.3170 C   0  0  0  0  0  0  0  0  0  0  0  0
  -22.4630  -12.8340   22.2310 N   0  0  0  0  0  0  0  0  0  0  0  0
  -22.6530  -14.6430   20.9430 O   0  0  0  0  0  0  0  0  0  0  0  0
  -22.8400  -11.9540   22.5530 H   0  0  0  0  0  0  0  0  0  0  0  0
  -21.5850  -13.1570   22.6150 H   0  0  0  0  0  0  0  0  0  0  0  0
  -25.6950  -15.1540   20.2890 N   0  0  0  0  0  0  0  0  0  0  0  0
  -25.0370  -15.8420   20.6330 H   0  0  0  0  0  0  0  0  0  0  0  0
  -26.5600  -15.5550   19.9480 H   0  0  0  0  0  0  0  0  0  0  0  0
  -28.9520  -22.9740   19.3930 C   0  0  0  0  0  2  0  0  0  0  0  0
  -28.3600  -24.4990   18.8120 C   0  0  0  0  0  2  0  0  0  0  0  0
  -28.3730  -25.9720   19.3650 O   0  0  0  0  0  0  0  0  0  0  0  0
  -24.4910  -31.2600   22.7520 C   0  0  0  0  0  0  0  0  0  0  0  0
  -27.2550  -26.9040   19.3450 C   0  0  0  0  0  0  0  0  0  0  0  0
  -23.3210  -29.8920   21.0580 C   0  0  0  0  0  3  0  0  0  0  0  0
  -24.8180  -28.5100   19.4950 C   0  0  0  0  0  0  0  0  0  0  0  0
  -25.8520  -30.3310   20.8380 C   0  0  0  0  0  2  0  0  0  0  0  0
  -25.9870  -28.9870   20.1000 C   0  0  0  0  0  0  0  0  0  0  0  0
  -27.1950  -28.1910   20.0270 C   0  0  0  0  0  3  0  0  0  0  0  0
  -26.0530  -26.5650   18.6740 C   0  0  0  0  0  3  0  0  0  0  0  0
  -24.8620  -27.3120   18.7730 C   0  0  0  0  0  3  0  0  0  0  0  0
  -23.5380  -29.3150   19.6320 C   0  0  0  0  0  2  0  0  0  0  0  0
  -24.5730  -30.5230   21.6020 N   0  0  0  0  0  0  0  0  0  0  0  0
  -23.4090  -31.4380   23.3300 O   0  0  0  0  0  0  0  0  0  0  0  0
  -22.7460  -28.7820   21.9760 C   0  0  0  0  0  0  0  0  0  0  0  0
  -21.4320  -28.5080   21.8560 N   0  0  0  0  0  0  0  0  0  0  0  0
  -23.4720  -28.1790   22.7670 O   0  0  0  0  0  0  0  0  0  0  0  0
  -20.9140  -29.0220   21.1610 H   0  0  0  0  0  0  0  0  0  0  0  0
  -18.1730  -27.0170   22.3930 C   0  0  0  0  0  0  0  0  0  0  0  0
  -20.7100  -27.4690   22.5930 C   0  0  0  0  0  3  0  0  0  0  0  0
  -20.9040  -26.0820   21.9330 C   0  0  0  0  0  2  0  0  0  0  0  0
  -19.7950  -25.7330   20.9290 C   0  0  0  0  0  2  0  0  0  0  0  0
  -18.4440  -25.7170   21.6540 C   0  0  0  0  0  2  0  0  0  0  0  0
  -19.2430  -27.8490   22.8200 C   0  0  0  0  0  0  0  0  0  0  0  0
  -18.9340  -29.0720   23.4620 C   0  0  0  0  0  3  0  0  0  0  0  0
  -17.6000  -29.4570   23.6950 C   0  0  0  0  0  3  0  0  0  0  0  0
  -16.5510  -28.6160   23.2860 C   0  0  0  0  0  3  0  0  0  0  0  0
  -16.8410  -27.4030   22.6390 C   0  0  0  0  0  3  0  0  0  0  0  0
  -25.7490  -31.9310   23.3850 C   0  0  0  0  0  3  0  0  0  0  0  0
  -25.3720  -33.2970   23.7890 N   0  0  0  0  0  0  0  0  0  0  0  0
  -25.5930  -34.3970   23.0580 C   0  0  0  0  0  0  0  0  0  0  0  0
  -26.2060  -34.3760   21.9860 O   0  0  0  0  0  0  0  0  0  0  0  0
  -24.8210  -33.3820   24.6310 H   0  0  0  0  0  0  0  0  0  0  0  0
  -23.7300  -36.0850   22.8920 C   0  0  0  0  0  1  0  0  0  0  0  0
  -25.0480  -35.7370   23.6010 C   0  0  0  0  0  3  0  0  0  0  0  0
  -27.1750  -36.7410   24.3190 C   0  0  0  0  0  1  0  0  0  0  0  0
  -26.0020  -36.8620   23.4550 N   0  0  0  0  0  0  0  0  0  0  0  0
  -25.5450  -37.7490   23.6590 H   0  0  0  0  0  0  0  0  0  0  0  0
  -26.3250  -31.1380   24.6230 C   0  0  1  0  0  0  0  0  0  0  0  0
  -25.2700  -30.8080   25.7040 C   0  0  0  0  0  1  0  0  0  0  0  0
  -26.9720  -29.8090   24.1740 C   0  0  0  0  0  1  0  0  0  0  0  0
  -27.4500  -31.9660   25.2890 C   0  0  0  0  0  1  0  0  0  0  0  0
  2  3  1  0
  2  1  1  0
  3 49  1  6
  3 14  1  0
  3  1  1  0
  4 10  1  0
  5 10  1  0
  6  7  1  0
  6  5  1  0
  8  7  1  0
  8 24  1  0
  8  9  1  0
 10  9  1  0
 11  4  2  0
 12 16  2  0
 12 14  1  0
 14 15  2  0
 15 13  1  0
 16 18  1  0
 17 15  1  0
 18 13  2  0
 19  4  1  0
 19 16  1  0
 20 19  1  0
 21 22  2  0
 22 41  1  0
 23 26  1  0
 23 22  1  0
 24 25  1  0
 24 21  1  0
 25 23  2  0
 26 27  1  0
 27 28  2  0
 29 32  1  0
 29 28  1  0
 30 29  2  0
 31 30  1  0
 31 26  2  0
 32 33  1  0
 33 34  1  0
 34 35  2  0
 36 35  1  0
 36 40  1  0
 37 36  2  0
 38 33  2  0
 38 37  1  0
 39 38  1  0
 41 42  1  0
 42 44  1  0
 42 45  1  0
 43 41  2  0
 46 21  1  0
 46 47  1  0
 48 46  1  0
 50 51  1  0
 50 49  1  0
 52 63  2  0
 53 51  1  0
 53 58  1  0
 54 62  1  0
 54 64  1  0
 55 61  1  0
 55 57  1  0
 56 62  1  0
 57 56  1  0
 58 57  2  0
 59 60  1  0
 59 53  2  0
 60 55  2  0
 61 54  1  0
 62 52  1  0
 64 66  2  0
 65 64  1  0
 67 65  1  0
 68 77  2  0
 68 73  1  0
 69 65  1  0
 69 73  1  0
 70 69  1  0
 71 72  1  0
 71 70  1  0
 72 68  1  0
 73 74  2  0
 74 75  1  0
 76 75  2  0
 77 76  1  0
 78 52  1  0
 78 79  1  0
 78 88  1  0
 79 82  1  0
 80 84  1  0
 80 79  1  0
 81 80  2  0
 84 83  1  0
 86 84  1  0
 86 87  1  0
 86 85  1  0
 88 91  1  1
 88 89  1  0
 90 88  1  0
M  ISO  4   4 100  19 100  50 101  51 101
M  END
>  <TORSDO>  (8) 
F 18

>  <SCORE>  (8) 
-9.381

>  <name>  (8) 
7

>  <ligand_id>  (8) 
7

>  <original_smiles>  (8) 
[H]c1nc(N([H])C(=O)N2C([H])([H])C([H])([H])C([H])([H])C([H])(n3nc(-c4c([H])c([H])c(Oc5c([H])c([H])c(F)c([H])c5F)c([H])c4[H])c(C(=O)N([H])[H])c3N([H])[H])C2([H])[H])c([H])c(C2(C([H])([H])C([H])([H])Oc3c([H])c([H])c4c(c3[H])C([H])([H])N(C(=O)C([H])(N([H])C(=O)C([H])(N([H])C([H])([H])[H])C([H])([H])[H])C(C([H])([H])[H])(C([H])([H])[H])C([H])([H])[H])C([H])(C(=O)N([H])C3([H])c5c([H])c([H])c([H])c([H])c5C([H])([H])C([H])([H])C3([H])[H])C4([H])[H])C([H])([H])C2([H])[H])c1C([H])([H])[H]

>  <smiles>  (8) 
[H]c1nc(N([H])C(=O)N2C([H])([H])C([H])([H])C([H])([H])C([H])(n3nc(-c4c([H])c([H])c(Oc5c([H])c([H])c(F)c([H])c5F)c([H])c4[H])c(C(=O)N([H])[H])c3N([H])[H])C2([H])[H])c([H])c(C2(C([H])([H])C([H])([H])Oc3c([H])c([H])c4c(c3[H])C([H])([H])N(C(=O)C([H])(N([H])C(=O)C([H])(N([H])C([H])([H])[H])C([H])([H])[H])C(C([H])([H])[H])(C([H])([H])[H])C([H])([H])[H])C([H])(C(=O)N([H])C3([H])c5c([H])c([H])c([H])c([H])c5C([H])([H])C([H])([H])C3([H])[H])C4([H])[H])C([H])([H])C2([H])[H])c1C([H])([H])[H]

$$$$
8:0:0
     RDKit          3D

 96100  0  0  1  0  0  0  0  0999 V2000
  -20.4660  -25.3750   21.1490 C   0  0  0  0  0  3  0  0  0  0  0  0
  -19.4100  -27.5360   18.6270 C   0  0  0  0  0  1  0  0  0  0  0  0
  -21.8420  -25.6140   18.0990 C   0  0  0  0  0  0  0  0  0  0  0  0
  -19.2810  -26.5970   21.0150 C   0  0  1  0  0  0  0  0  0  0  0  0
  -21.8730  -24.7290   19.4250 C   0  0  0  0  0  3  0  0  0  0  0  0
  -20.6780  -26.8020   17.6310 C   0  0  0  0  0  3  0  0  0  0  0  0
  -18.4710  -26.8050   22.3390 C   0  0  0  0  0  1  0  0  0  0  0  0
  -23.4060  -25.3060   17.5110 C   0  0  0  0  0  0  0  0  0  0  0  0
  -23.4520  -24.8490   16.3640 O   0  0  0  0  0  0  0  0  0  0  0  0
  -24.9590  -25.3880   18.3610 C   0  0  0  0  0  2  0  0  0  0  0  0
  -26.5040  -24.8880   18.0010 O   0  0  0  0  0  0  0  0  0  0  0  0
  -25.8650  -29.1760   22.5800 C   0  0  0  0  0  0  0  0  0  0  0  0
  -27.6010  -25.7100   18.0440 C   0  0  0  0  0  3  0  0  0  0  0  0
  -24.8140  -28.8460   20.4040 C   0  0  0  0  0  3  0  0  0  0  0  0
  -26.2960  -28.0280   18.4770 C   0  0  0  0  0  3  0  0  0  0  0  0
  -27.3170  -28.4830   20.6830 C   0  0  0  0  0  2  0  0  0  0  0  0
  -27.1960  -27.6180   19.4520 C   0  0  0  0  0  0  0  0  0  0  0  0
  -27.9000  -26.4180   19.2400 C   0  0  0  0  0  3  0  0  0  0  0  0
  -27.2600  -26.4280   16.9250 C   0  0  0  0  0  2  0  0  0  0  0  0
  -26.4430  -27.5380   17.1680 C   0  0  0  0  0  2  0  0  0  0  0  0
  -25.2090  -28.9750   18.8960 C   0  0  0  0  0  2  0  0  0  0  0  0
  -26.0220  -28.9110   21.2580 N   0  0  0  0  0  0  0  0  0  0  0  0
  -24.7700  -29.5280   23.0410 O   0  0  0  0  0  0  0  0  0  0  0  0
  -24.1040  -27.5190   20.7970 C   0  0  0  0  0  0  0  0  0  0  0  0
  -22.8300  -27.4230   20.9240 N   0  0  2  0  0  4  0  0  0  0  0  0
  -24.6690  -26.4610   20.9580 O   0  0  0  0  0  0  0  0  0  0  0  0
  -22.3040  -28.2830   20.8400 H   0  0  0  0  0  0  0  0  0  0  0  0
  -18.9820  -28.3020   20.8950 C   0  0  0  0  0  3  0  0  0  0  0  0
  -22.0210  -26.3280   21.5110 C   0  0  0  0  0  3  0  0  0  0  0  0
  -20.8600  -24.7060   20.8530 C   0  0  0  0  0  2  0  0  0  0  0  0
  -18.7230  -25.0640   20.2310 C   0  0  0  0  0 15  0  0  0  0  0  0
  -17.9910  -26.9630   20.2730 C   0  0  0  0  0  2  0  0  0  0  0  0
  -21.3580  -27.8320   21.6500 C   0  0  0  0  0  3  0  0  0  0  0  0
  -21.7210  -28.6620   23.2210 C   0  0  0  0  0  2  0  0  0  0  0  0
  -20.5870  -29.6290   24.0610 C   0  0  0  0  0  3  0  0  0  0  0  0
  -18.9880  -29.9510   23.6050 C   0  0  0  0  0  3  0  0  0  0  0  0
  -18.1670  -29.3760   22.1750 C   0  0  0  0  0  2  0  0  0  0  0  0
  -27.0610  -29.0330   23.5560 C   0  0  0  0  0  3  0  0  0  0  0  0
  -26.8430  -27.9300   24.6640 C   0  0  1  0  0  0  0  0  0  0  0  0
  -25.4800  -28.0320   25.3880 C   0  0  0  0  0  1  0  0  0  0  0  0
  -26.9630  -26.5030   24.0790 C   0  0  0  0  0  1  0  0  0  0  0  0
  -27.9610  -28.0480   25.7240 C   0  0  0  0  0  1  0  0  0  0  0  0
  -27.2510  -30.3530   24.1600 N   0  0  0  0  0  0  0  0  0  0  0  0
  -28.0980  -31.2740   23.6900 C   0  0  0  0  0  0  0  0  0  0  0  0
  -28.8690  -31.0590   22.7510 O   0  0  0  0  0  0  0  0  0  0  0  0
  -26.6150  -30.6120   24.9000 H   0  0  0  0  0  0  0  0  0  0  0  0
  -27.2800  -33.6440   23.5370 C   0  0  0  0  0  1  0  0  0  0  0  0
  -28.0920  -32.6490   24.3800 C   0  0  0  0  0  3  0  0  0  0  0  0
  -30.1980  -32.4210   25.6180 C   0  0  0  0  0  1  0  0  0  0  0  0
  -29.4470  -33.1840   24.6240 N   0  0  0  0  0  0  0  0  0  0  0  0
  -29.4030  -34.1520   24.9330 H   0  0  0  0  0  0  0  0  0  0  0  0
  -20.3890  -28.5740   16.0580 C   0  0  0  0  0  1  0  0  0  0  0  0
  -20.8390  -27.2580   16.3430 O   0  0  0  0  0  0  0  0  0  0  0  0
  -23.3510  -23.3140   19.2910 O   0  0  0  0  0 15  0  0  0  0  0  0
  -29.8210  -16.0190   18.8770 C   0  0  0  0  0  2  0  0  0  0  0  0
  -31.2410  -13.3800   18.2640 C   0  0  0  0  0  2  0  0  0  0  0  0
  -30.7210  -12.0460   17.5220 C   0  0  0  0  0  2  0  0  0  0  0  0
  -29.6520  -11.3170   18.3310 C   0  0  0  0  0  2  0  0  0  0  0  0
  -28.9460  -12.4220   19.1130 C   0  0  0  0  0  3  0  0  0  0  0  0
  -29.8230  -13.3670   19.9530 C   0  0  0  0  0  2  0  0  0  0  0  0
  -30.1670  -14.4290   18.9800 N   0  0  0  0  0  0  0  0  0  0  0  0
  -31.0390  -16.1030   18.3890 O   0  0  0  0  0  1  0  0  0  0  0  0
  -25.9580  -20.1680   18.3310 C   0  0  0  0  0  1  0  0  0  0  0  0
  -26.1000  -20.1430   20.1420 C   0  0  0  0  0  1  0  0  0  0  0  0
  -27.6420  -18.9040   18.3290 C   0  0  0  0  0  2  0  0  0  0  0  0
  -27.1210  -18.3070   19.9500 C   0  0  0  0  0  2  0  0  0  0  0  0
  -24.7100  -21.4020   19.3620 C   0  0  0  0  0 15  0  0  0  0  0  0
  -28.4130  -17.3650   19.0040 N   0  0  0  0  0  2  0  0  0  0  0  0
  -27.0640  -12.9940   20.5560 C   0  0  0  0  0  0  0  0  0  0  0  0
  -26.1120  -12.2500   21.1620 C   0  0  0  0  0  0  0  0  0  0  0  0
  -26.4030  -10.8870   20.8380 C   0  0  0  0  0  0  0  0  0  0  0  0
  -27.8420  -12.0740   19.8980 N   0  0  0  0  0  0  0  0  0  0  0  0
  -27.5120  -10.7900   20.1220 N   0  0  0  0  0  0  0  0  0  0  0  0
  -25.6430   -9.6760   21.0990 C   0  0  0  0  0  0  0  0  0  0  0  0
  -25.8960   -8.8730   22.2310 C   0  0  0  0  0  3  0  0  0  0  0  0
  -25.1230   -7.7180   22.4630 C   0  0  0  0  0  3  0  0  0  0  0  0
  -24.0900   -7.3660   21.5620 C   0  0  0  0  0  0  0  0  0  0  0  0
  -23.8660   -8.1560   20.4220 C   0  0  0  0  0  3  0  0  0  0  0  0
  -24.6390   -9.3010   20.1880 C   0  0  0  0  0  3  0  0  0  0  0  0
  -23.2990   -6.2530   21.6950 O   0  0  0  0  0  0  0  0  0  0  0  0
  -22.3710   -6.1540   22.6990 C   0  0  0  0  0  0  0  0  0  0  0  0
  -21.4070   -7.1600   22.9280 C   0  0  0  0  0  3  0  0  0  0  0  0
  -20.4290   -6.9810   23.9250 C   0  0  0  0  0  3  0  0  0  0  0  0
  -20.4080   -5.7960   24.6870 C   0  0  0  0  0  0  0  0  0  0  0  0
  -21.3660   -4.7930   24.4580 C   0  0  0  0  0  3  0  0  0  0  0  0
  -22.3440   -4.9710   23.4640 C   0  0  0  0  0  0  0  0  0  0  0  0
  -23.2520   -3.9940   23.2310 F   0  0  0  0  0  0  0  0  0  0  0  0
  -19.4630   -5.6190   25.6400 F   0  0  0  0  0  0  0  0  0  0  0  0
  -24.9370  -12.8020   21.8940 C   0  0  0  0  0  0  0  0  0  0  0  0
  -24.3790  -12.0320   22.8170 N   0  0  0  0  0  0  0  0  0  0  0  0
  -24.5440  -13.9500   21.6830 O   0  0  0  0  0  0  0  0  0  0  0  0
  -24.7220  -11.1000   22.9960 H   0  0  0  0  0  0  0  0  0  0  0  0
  -23.5940  -12.3790   23.3500 H   0  0  0  0  0  0  0  0  0  0  0  0
  -27.3190  -14.3650   20.4780 N   0  0  0  0  0  0  0  0  0  0  0  0
  -26.6380  -15.0230   20.8410 H   0  0  0  0  0  0  0  0  0  0  0  0
  -27.8900  -14.7580   19.7430 H   0  0  0  0  0  0  0  0  0  0  0  0
  1 30  1  0
  1 29  1  0
  3  5  2  0
  4  1  1  0
  4  7  1  1
  5 30  1  0
  6  3  1  0
  6  2  1  0
  8  3  1  0
  8 10  1  0
  9  8  2  0
 11 13  1  0
 11 10  1  0
 12 23  2  0
 13 19  1  0
 13 18  1  0
 14 21  1  0
 14 24  1  0
 14 22  1  0
 15 20  1  0
 15 21  1  0
 15 17  1  0
 16 22  1  0
 17 16  1  0
 18 17  2  0
 19 20  1  0
 22 12  1  0
 24 25  1  0
 24 26  2  0
 25 33  1  0
 25 27  1  6
 28 32  1  0
 28  4  1  0
 28 37  1  0
 29 25  1  0
 29 33  1  0
 32  4  1  0
 33 34  1  0
 34 35  1  0
 36 35  2  0
 37 36  1  0
 38 12  1  0
 38 43  1  0
 38 39  1  0
 39 40  1  1
 39 42  1  0
 41 39  1  0
 43 46  1  0
 44 43  1  0
 44 48  1  0
 45 44  2  0
 48 47  1  0
 48 50  1  0
 50 51  1  0
 50 49  1  0
 52 53  1  0
 53  6  1  0
 55 61  1  0
 56 61  1  0
 57 56  1  0
 57 58  1  0
 59 58  1  0
 59 72  1  0
 59 60  1  0
 61 60  1  0
 62 55  1  0
 63 64  1  0
 65 68  1  0
 65 66  1  0
 68 66  1  0
 69 70  2  0
 70 89  1  0
 71 74  1  0
 71 70  1  0
 72 73  1  0
 72 69  1  0
 73 71  2  0
 74 75  1  0
 75 76  2  0
 77 80  1  0
 77 76  1  0
 78 77  2  0
 79 78  1  0
 79 74  2  0
 80 81  1  0
 81 82  2  0
 81 86  1  0
 82 83  1  0
 83 84  2  0
 84 88  1  0
 85 84  1  0
 86 85  2  0
 87 86  1  0
 89 90  1  0
 90 92  1  0
 90 93  1  0
 91 89  2  0
 94 69  1  0
 94 95  1  0
 96 94  1  0
M  ISO  4  10 101  11 101  55 100  68 100
M  END
>  <TORSDO>  (9) 
F 20

>  <SCORE>  (9) 
1.552

>  <name>  (9) 
8

>  <ligand_id>  (9) 
8

>  <original_smiles>  (9) 
[H]c1c([H])c([H])c2c(c1[H])C([H])([H])C([H])([H])C([H])([H])C2([H])N([H])C(=O)C1([H])N(C(=O)C([H])(N([H])C(=O)C([H])(N([H])C([H])([H])[H])C([H])([H])[H])C(C([H])([H])[H])(C([H])([H])[H])C([H])([H])[H])C([H])([H])c2c([H])c(OC([H])([H])C(=O)c3c(OC([H])([H])[H])c([H])c(C([H])([H])[H])c([H])c3OC3([H])C([H])([H])C([H])([H])N(C(=O)N4C([H])([H])C([H])([H])C([H])([H])C([H])(n5nc(-c6c([H])c([H])c(Oc7c([H])c([H])c(F)c([H])c7F)c([H])c6[H])c(C(=O)N([H])[H])c5N([H])[H])C4([H])[H])C([H])([H])C3([H])[H])c([H])c([H])c2C1([H])[H]

>  <smiles>  (9) 
[H]c1c([H])c([H])c2c(c1[H])C([H])([H])C([H])([H])C([H])([H])C2([H])N([H])C(=O)C1([H])N(C(=O)C([H])(N([H])C(=O)C([H])(N([H])C([H])([H])[H])C([H])([H])[H])C(C([H])([H])[H])(C([H])([H])[H])C([H])([H])[H])C([H])([H])c2c([H])c(OC([H])([H])C(=O)c3c(OC([H])([H])[H])c([H])c(C([H])([H])[H])c([H])c3OC3([H])C([H])([H])C([H])([H])N(C(=O)N4C([H])([H])C([H])([H])C([H])([H])C([H])(n5nc(-c6c([H])c([H])c(Oc7c([H])c([H])c(F)c([H])c7F)c([H])c6[H])c(C(=O)N([H])[H])c5N([H])[H])C4([H])[H])C([H])([H])C3([H])[H])c([H])c([H])c2C1([H])[H]

$$$$
9:0:0
     RDKit          3D

 92101  0  0  1  0  0  0  0  0999 V2000
  -30.5200  -15.0320   20.3460 C   0  0  0  0  0  0  0  0  0  0  0  0
  -30.4390  -12.6240   19.5310 C   0  0  0  0  0  2  0  0  0  0  0  0
  -29.5410  -12.5210   18.2740 C   0  0  0  0  0  2  0  0  0  0  0  0
  -28.0640  -12.3370   18.6710 C   0  0  0  0  0  2  0  0  0  0  0  0
  -27.6300  -13.3150   19.7930 C   0  0  0  0  0  3  0  0  0  0  0  0
  -28.6510  -13.3690   20.9510 C   0  0  0  0  0  2  0  0  0  0  0  0
  -29.9420  -13.7570   20.3680 N   0  0  0  0  0  0  0  0  0  0  0  0
  -31.7220  -15.0820   20.0490 O   0  0  0  0  0  0  0  0  0  0  0  0
  -28.9010  -18.6730   20.9210 C   0  0  0  0  0  3  0  0  0  0  0  0
  -30.4640  -19.6840   18.9850 C   0  0  0  0  0  3  0  0  0  0  0  0
  -29.6260  -20.6740   19.6100 C   0  0  0  0  0  0  0  0  0  0  0  0
  -28.8330  -20.1110   20.6320 C   0  0  0  0  0  0  0  0  0  0  0  0
  -29.7670  -17.7180   20.2400 C   0  0  0  0  0  0  0  0  0  0  0  0
  -28.8400  -23.1700   20.0970 C   0  0  0  0  0  3  0  0  0  0  0  0
  -27.7000  -22.3330   20.8080 C   0  0  0  0  0  3  0  0  0  0  0  0
  -27.0850  -23.1160   21.9760 C   0  0  0  0  0  1  0  0  0  0  0  0
  -30.5370  -18.3240   19.2780 N   0  0  0  0  0  0  0  0  0  0  0  0
  -29.5620  -22.1040   19.2710 N   0  0  0  0  0  0  0  0  0  0  0  0
  -29.7160  -16.2010   20.5410 N   0  0  0  0  0  0  0  0  0  0  0  0
  -28.0330  -21.0010   21.3550 O   0  0  0  0  0  0  0  0  0  0  0  0
  -30.2010  -22.4470   18.5550 H   0  0  0  0  0  0  0  0  0  0  0  0
  -28.8280  -15.9330   20.9340 H   0  0  0  0  0  0  0  0  0  0  0  0
  -25.2440  -13.9510   20.4570 C   0  0  0  0  0  0  0  0  0  0  0  0
  -24.1550  -13.2040   20.8140 C   0  0  0  0  0  0  0  0  0  0  0  0
  -24.5950  -11.8440   20.8230 C   0  0  0  0  0  0  0  0  0  0  0  0
  -26.2750  -13.0490   20.2610 N   0  0  0  0  0  0  0  0  0  0  0  0
  -25.8930  -11.7780   20.5480 N   0  0  0  0  0  0  0  0  0  0  0  0
  -23.8390  -10.6000   21.0200 C   0  0  0  0  0  0  0  0  0  0  0  0
  -24.2480   -9.6270   21.9580 C   0  0  0  0  0  3  0  0  0  0  0  0
  -23.4930   -8.4480   22.1430 C   0  0  0  0  0  3  0  0  0  0  0  0
  -22.3140   -8.2360   21.3900 C   0  0  0  0  0  0  0  0  0  0  0  0
  -21.9230   -9.1970   20.4420 C   0  0  0  0  0  3  0  0  0  0  0  0
  -22.6780  -10.3670   20.2550 C   0  0  0  0  0  3  0  0  0  0  0  0
  -21.5310   -7.1110   21.4840 O   0  0  0  0  0  0  0  0  0  0  0  0
  -21.4880   -6.3570   22.6300 C   0  0  0  0  0  0  0  0  0  0  0  0
  -21.1300   -6.9180   23.8750 C   0  0  0  0  0  3  0  0  0  0  0  0
  -21.0300   -6.0940   25.0150 C   0  0  0  0  0  3  0  0  0  0  0  0
  -21.2780   -4.7120   24.9100 C   0  0  0  0  0  0  0  0  0  0  0  0
  -21.6290   -4.1520   23.6690 C   0  0  0  0  0  3  0  0  0  0  0  0
  -21.7300   -4.9730   22.5320 C   0  0  0  0  0  0  0  0  0  0  0  0
  -22.0480   -4.4240   21.3350 F   0  0  0  0  0  0  0  0  0  0  0  0
  -21.1750   -3.9200   26.0020 F   0  0  0  0  0  0  0  0  0  0  0  0
  -22.7610  -13.7130   21.0360 C   0  0  0  0  0  0  0  0  0  0  0  0
  -22.0000  -13.0550   21.9030 N   0  0  0  0  0  0  0  0  0  0  0  0
  -22.3570  -14.7320   20.4760 O   0  0  0  0  0  0  0  0  0  0  0  0
  -22.3410  -12.2330   22.3780 H   0  0  0  0  0  0  0  0  0  0  0  0
  -21.0620  -13.3790   22.0940 H   0  0  0  0  0  0  0  0  0  0  0  0
  -25.4360  -15.3150   20.2540 N   0  0  0  0  0  0  0  0  0  0  0  0
  -24.6700  -15.9750   20.3140 H   0  0  0  0  0  0  0  0  0  0  0  0
  -26.2830  -15.7270   19.8840 H   0  0  0  0  0  0  0  0  0  0  0  0
  -28.3180  -24.6260   19.3460 C   0  0  0  0  0  2  0  0  0  0  0  0
  -28.4010  -26.1420   19.7750 O   0  0  0  0  0  0  0  0  0  0  0  0
  -24.6190  -31.6490   22.9450 C   0  0  0  0  0  0  0  0  0  0  0  0
  -27.3160  -27.1090   19.7150 C   0  0  0  0  0  0  0  0  0  0  0  0
  -23.4480  -30.2670   21.2790 C   0  0  0  0  0  3  0  0  0  0  0  0
  -24.9300  -28.7950   19.7780 C   0  0  0  0  0  0  0  0  0  0  0  0
  -25.9900  -30.6170   21.0940 C   0  0  0  0  0  2  0  0  0  0  0  0
  -26.1020  -29.2490   20.3930 C   0  0  0  0  0  0  0  0  0  0  0  0
  -27.2890  -28.4210   20.3510 C   0  0  0  0  0  3  0  0  0  0  0  0
  -26.1160  -26.7770   19.0440 C   0  0  0  0  0  3  0  0  0  0  0  0
  -24.9520  -27.5740   19.0890 C   0  0  0  0  0  3  0  0  0  0  0  0
  -23.6720  -29.6470   19.8730 C   0  0  0  0  0  2  0  0  0  0  0  0
  -24.7060  -30.8660   21.8270 N   0  0  0  0  0  0  0  0  0  0  0  0
  -23.5320  -31.8760   23.4970 O   0  0  0  0  0  0  0  0  0  0  0  0
  -22.8200  -29.2020   22.2140 C   0  0  0  0  0  0  0  0  0  0  0  0
  -21.4920  -29.0070   22.1220 N   0  0  0  0  0  0  0  0  0  0  0  0
  -23.5310  -28.5570   22.9890 O   0  0  0  0  0  0  0  0  0  0  0  0
  -20.9730  -29.5840   21.4750 H   0  0  0  0  0  0  0  0  0  0  0  0
  -18.1530  -27.7200   22.6840 C   0  0  0  0  0  0  0  0  0  0  0  0
  -20.7160  -28.0210   22.8760 C   0  0  0  0  0  3  0  0  0  0  0  0
  -20.8230  -26.6180   22.2340 C   0  0  0  0  0  2  0  0  0  0  0  0
  -19.6920  -26.3200   21.2440 C   0  0  0  0  0  2  0  0  0  0  0  0
  -18.3310  -26.4070   21.9410 C   0  0  0  0  0  2  0  0  0  0  0  0
  -19.2720  -28.4840   23.1110 C   0  0  0  0  0  0  0  0  0  0  0  0
  -19.0500  -29.7120   23.7720 C   0  0  0  0  0  3  0  0  0  0  0  0
  -17.7430  -30.1770   24.0070 C   0  0  0  0  0  3  0  0  0  0  0  0
  -16.6390  -29.4090   23.5980 C   0  0  0  0  0  3  0  0  0  0  0  0
  -16.8460  -28.1820   22.9420 C   0  0  0  0  0  3  0  0  0  0  0  0
  -25.8810  -32.3140   23.5740 C   0  0  0  0  0  3  0  0  0  0  0  0
  -25.5050  -33.6690   24.0090 N   0  0  0  0  0  0  0  0  0  0  0  0
  -25.7630  -34.7930   23.3250 C   0  0  0  0  0  0  0  0  0  0  0  0
  -26.4090  -34.7990   22.2740 O   0  0  0  0  0  0  0  0  0  0  0  0
  -24.9260  -33.7340   24.8330 H   0  0  0  0  0  0  0  0  0  0  0  0
  -23.9320  -36.5110   23.1580 C   0  0  0  0  0  1  0  0  0  0  0  0
  -25.2210  -36.1170   23.8980 C   0  0  0  0  0  3  0  0  0  0  0  0
  -27.3370  -37.0580   24.7150 C   0  0  0  0  0  1  0  0  0  0  0  0
  -26.1910  -37.2320   23.8260 N   0  0  0  0  0  0  0  0  0  0  0  0
  -25.7440  -38.1150   24.0560 H   0  0  0  0  0  0  0  0  0  0  0  0
  -26.4720  -31.4960   24.7890 C   0  0  1  0  0  0  0  0  0  0  0  0
  -25.4240  -31.1470   25.8720 C   0  0  0  0  0  1  0  0  0  0  0  0
  -27.1040  -30.1710   24.3030 C   0  0  0  0  0  1  0  0  0  0  0  0
  -27.6050  -32.3030   25.4640 C   0  0  0  0  0  1  0  0  0  0  0  0
  1  7  1  0
  1 19  1  0
  2  7  1  0
  3  4  1  0
  3  2  1  0
  5  4  1  0
  5 26  1  0
  5  6  1  0
  7  6  1  0
  8  1  2  0
 10 17  2  0
 10 11  1  0
 11 12  2  0
 12  9  1  0
 12 20  1  0
 13 19  1  0
 13  9  2  0
 14 51  1  0
 14 15  1  0
 15 20  1  0
 15 16  1  0
 17 13  1  0
 18 11  1  0
 18 14  1  0
 19 22  1  0
 21 18  1  0
 23 24  2  0
 24 25  1  0
 24 43  1  0
 25 28  1  0
 26 23  1  0
 26 27  1  0
 27 25  2  0
 28 29  1  0
 29 30  2  0
 31 34  1  0
 31 30  1  0
 32 31  2  0
 33 32  1  0
 33 28  2  0
 34 35  1  0
 35 36  1  0
 36 37  2  0
 38 37  1  0
 38 42  1  0
 39 38  2  0
 40 35  2  0
 40 39  1  0
 41 40  1  0
 43 44  1  0
 44 47  1  0
 44 46  1  0
 45 43  2  0
 48 49  1  0
 48 23  1  0
 50 48  1  0
 51 52  1  0
 53 64  2  0
 54 52  1  0
 54 59  1  0
 55 63  1  0
 55 65  1  0
 56 62  1  0
 56 58  1  0
 57 63  1  0
 58 57  1  0
 59 58  2  0
 60 61  1  0
 60 54  2  0
 61 56  2  0
 62 55  1  0
 63 53  1  0
 65 67  2  0
 66 65  1  0
 68 66  1  0
 69 78  2  0
 69 74  1  0
 70 66  1  0
 70 74  1  0
 71 70  1  0
 72 73  1  0
 72 71  1  0
 73 69  1  0
 74 75  2  0
 75 76  1  0
 77 76  2  0
 78 77  1  0
 79 53  1  0
 79 80  1  0
 79 89  1  0
 80 83  1  0
 81 85  1  0
 81 80  1  0
 82 81  2  0
 85 84  1  0
 87 85  1  0
 87 88  1  0
 87 86  1  0
 89 92  1  1
 89 90  1  0
 91 89  1  0
M  ISO  4   1 100  19 100  51 101  52 101
M  END
>  <TORSDO>  (10) 
F 16

>  <SCORE>  (10) 
-15.193

>  <name>  (10) 
9

>  <ligand_id>  (10) 
9

>  <original_smiles>  (10) 
[H]c1nc(N([H])C(=O)N2C([H])([H])C([H])([H])C([H])([H])C([H])(n3nc(-c4c([H])c([H])c(Oc5c([H])c([H])c(F)c([H])c5F)c([H])c4[H])c(C(=O)N([H])[H])c3N([H])[H])C2([H])[H])c([H])c2c1N([H])C([H])(C([H])([H])Oc1c([H])c([H])c3c(c1[H])C([H])([H])N(C(=O)C([H])(N([H])C(=O)C([H])(N([H])C([H])([H])[H])C([H])([H])[H])C(C([H])([H])[H])(C([H])([H])[H])C([H])([H])[H])C([H])(C(=O)N([H])C1([H])c4c([H])c([H])c([H])c([H])c4C([H])([H])C([H])([H])C1([H])[H])C3([H])[H])C([H])(C([H])([H])[H])O2

>  <smiles>  (10) 
[H]c1nc(N([H])C(=O)N2C([H])([H])C([H])([H])C([H])([H])C([H])(n3nc(-c4c([H])c([H])c(Oc5c([H])c([H])c(F)c([H])c5F)c([H])c4[H])c(C(=O)N([H])[H])c3N([H])[H])C2([H])[H])c([H])c2c1N([H])C([H])(C([H])([H])Oc1c([H])c([H])c3c(c1[H])C([H])([H])N(C(=O)C([H])(N([H])C(=O)C([H])(N([H])C([H])([H])[H])C([H])([H])[H])C(C([H])([H])[H])(C([H])([H])[H])C([H])([H])[H])C([H])(C(=O)N([H])C1([H])c4c([H])c([H])c([H])c([H])c4C([H])([H])C([H])([H])C1([H])[H])C3([H])[H])C([H])(C([H])([H])[H])O2

$$$$
10:0:0
     RDKit          3D

 93102  0  0  1  0  0  0  0  0999 V2000
  -30.9010  -19.7780   19.3150 C   0  0  0  0  0  3  0  0  0  0  0  0
  -28.9750  -19.7080   20.7240 C   0  0  0  0  0  3  0  0  0  0  0  0
  -29.5260  -21.8590   19.5370 C   0  0  0  0  0  0  0  0  0  0  0  0
  -30.1170  -19.0270   20.2250 C   0  0  0  0  0  0  0  0  0  0  0  0
  -30.6380  -21.1440   18.9830 C   0  0  0  0  0  0  0  0  0  0  0  0
  -28.6800  -21.0850   20.3960 C   0  0  0  0  0  0  0  0  0  0  0  0
  -31.6430  -21.8200   18.0670 C   0  0  0  0  0  1  0  0  0  0  0  0
  -29.8880  -24.4560   18.3450 C   0  0  0  0  0  2  0  0  0  0  0  0
  -27.9540  -24.2190   19.2000 C   0  0  0  0  0  2  0  0  0  0  0  0
  -29.3010  -23.4420   19.3850 C   0  0  0  0  0  3  0  0  0  0  0  0
  -28.5670  -25.2630   18.2100 C   0  0  0  0  0  3  0  0  0  0  0  0
  -28.6150  -26.7200   18.5100 O   0  0  0  0  0  0  0  0  0  0  0  0
  -24.7460  -31.2950   22.5530 C   0  0  0  0  0  0  0  0  0  0  0  0
  -27.4320  -27.4710   18.6550 C   0  0  0  0  0  0  0  0  0  0  0  0
  -23.5280  -30.0950   20.7720 C   0  0  0  0  0  3  0  0  0  0  0  0
  -24.9750  -28.8990   19.0370 C   0  0  0  0  0  0  0  0  0  0  0  0
  -26.0270  -30.6160   20.5090 C   0  0  0  0  0  2  0  0  0  0  0  0
  -26.1490  -29.3680   19.6410 C   0  0  0  0  0  0  0  0  0  0  0  0
  -27.3770  -28.6660   19.4420 C   0  0  0  0  0  3  0  0  0  0  0  0
  -26.2250  -27.0530   18.0480 C   0  0  0  0  0  3  0  0  0  0  0  0
  -25.0160  -27.7490   18.2340 C   0  0  0  0  0  3  0  0  0  0  0  0
  -23.6950  -29.6670   19.2910 C   0  0  0  0  0  2  0  0  0  0  0  0
  -24.7890  -30.6790   21.3360 N   0  0  0  0  0  0  0  0  0  0  0  0
  -23.6840  -31.4060   23.1820 O   0  0  0  0  0  0  0  0  0  0  0  0
  -22.9920  -28.8940   21.5870 C   0  0  0  0  0  0  0  0  0  0  0  0
  -21.6750  -28.6420   21.4980 N   0  0  0  0  0  0  0  0  0  0  0  0
  -23.7570  -28.1980   22.2600 O   0  0  0  0  0  0  0  0  0  0  0  0
  -21.1110  -29.2630   20.9350 H   0  0  0  0  0  0  0  0  0  0  0  0
  -18.4150  -27.1490   21.9770 C   0  0  0  0  0  0  0  0  0  0  0  0
  -20.9660  -27.5380   22.1460 C   0  0  0  0  0  3  0  0  0  0  0  0
  -21.1150  -26.2290   21.3370 C   0  0  0  0  0  2  0  0  0  0  0  0
  -19.9710  -25.9990   20.3450 C   0  0  0  0  0  2  0  0  0  0  0  0
  -18.6260  -25.9430   21.0780 C   0  0  0  0  0  2  0  0  0  0  0  0
  -19.5120  -27.9080   22.4660 C   0  0  0  0  0  0  0  0  0  0  0  0
  -19.2580  -29.0400   23.2690 C   0  0  0  0  0  3  0  0  0  0  0  0
  -17.9380  -29.4160   23.5880 C   0  0  0  0  0  3  0  0  0  0  0  0
  -16.8580  -28.6530   23.1130 C   0  0  0  0  0  3  0  0  0  0  0  0
  -17.0960  -27.5210   22.3140 C   0  0  0  0  0  3  0  0  0  0  0  0
  -26.0240  -31.9100   23.2030 C   0  0  0  0  0  3  0  0  0  0  0  0
  -26.7250  -30.9400   24.2330 C   0  0  1  0  0  0  0  0  0  0  0  0
  -25.7650  -30.3700   25.3020 C   0  0  0  0  0  1  0  0  0  0  0  0
  -27.3800  -29.7460   23.5010 C   0  0  0  0  0  1  0  0  0  0  0  0
  -27.8650  -31.6880   24.9630 C   0  0  0  0  0  1  0  0  0  0  0  0
  -25.6300  -33.1650   23.8600 N   0  0  0  0  0  0  0  0  0  0  0  0
  -25.7990  -34.3850   23.3350 C   0  0  0  0  0  0  0  0  0  0  0  0
  -26.3750  -34.5790   22.2610 O   0  0  0  0  0  0  0  0  0  0  0  0
  -25.1040  -33.0790   24.7170 H   0  0  0  0  0  0  0  0  0  0  0  0
  -23.8960  -36.0200   23.5290 C   0  0  0  0  0  1  0  0  0  0  0  0
  -25.2420  -35.5830   24.1290 C   0  0  0  0  0  3  0  0  0  0  0  0
  -27.3630  -36.4910   24.9710 C   0  0  0  0  0  1  0  0  0  0  0  0
  -26.1640  -36.7390   24.1750 N   0  0  0  0  0  0  0  0  0  0  0  0
  -25.6970  -37.5590   24.5540 H   0  0  0  0  0  0  0  0  0  0  0  0
  -26.7340  -21.0620   21.8190 C   0  0  0  0  0  1  0  0  0  0  0  0
  -27.6070  -21.7600   20.9390 O   0  0  0  0  0  0  0  0  0  0  0  0
  -30.6910  -17.6790   20.8350 C   0  0  0  0  0  2  0  0  0  0  0  0
  -30.8460  -15.1400   20.5330 C   0  0  0  0  0  0  0  0  0  0  0  0
  -30.7110  -12.8110   19.6640 C   0  0  0  0  0  2  0  0  0  0  0  0
  -29.8530  -12.7810   18.3830 C   0  0  0  0  0  2  0  0  0  0  0  0
  -28.3640  -12.6070   18.7370 C   0  0  0  0  0  2  0  0  0  0  0  0
  -27.8990  -13.5750   19.8590 C   0  0  0  0  0  3  0  0  0  0  0  0
  -28.8870  -13.6010   21.0440 C   0  0  0  0  0  2  0  0  0  0  0  0
  -30.2110  -13.9230   20.5010 N   0  0  0  0  0  0  0  0  0  0  0  0
  -32.0470  -15.2130   20.2690 O   0  0  0  0  0  0  0  0  0  0  0  0
  -30.1020  -16.2930   20.6840 N   0  0  0  0  0  0  0  0  0  0  0  0
  -29.1090  -16.1920   20.8210 H   0  0  0  0  0  0  0  0  0  0  0  0
  -25.4710  -14.1570   20.4500 C   0  0  0  0  0  0  0  0  0  0  0  0
  -24.3960  -13.3810   20.7860 C   0  0  0  0  0  0  0  0  0  0  0  0
  -24.8750  -12.0340   20.8150 C   0  0  0  0  0  0  0  0  0  0  0  0
  -26.5340  -13.2850   20.2900 N   0  0  0  0  0  0  0  0  0  0  0  0
  -26.1800  -12.0050   20.5730 N   0  0  0  0  0  0  0  0  0  0  0  0
  -24.1540  -10.7690   21.0010 C   0  0  0  0  0  0  0  0  0  0  0  0
  -24.5460   -9.8300   21.9810 C   0  0  0  0  0  3  0  0  0  0  0  0
  -23.8240   -8.6300   22.1530 C   0  0  0  0  0  3  0  0  0  0  0  0
  -22.6950   -8.3580   21.3440 C   0  0  0  0  0  0  0  0  0  0  0  0
  -22.3220   -9.2850   20.3550 C   0  0  0  0  0  3  0  0  0  0  0  0
  -23.0450  -10.4770   20.1810 C   0  0  0  0  0  3  0  0  0  0  0  0
  -21.9490   -7.2080   21.4230 O   0  0  0  0  0  0  0  0  0  0  0  0
  -21.8500   -6.4930   22.5900 C   0  0  0  0  0  0  0  0  0  0  0  0
  -21.3480   -7.0690   23.7770 C   0  0  0  0  0  3  0  0  0  0  0  0
  -21.1990   -6.2790   24.9340 C   0  0  0  0  0  3  0  0  0  0  0  0
  -21.5410   -4.9140   24.9060 C   0  0  0  0  0  0  0  0  0  0  0  0
  -22.0350   -4.3370   23.7220 C   0  0  0  0  0  3  0  0  0  0  0  0
  -22.1860   -5.1240   22.5670 C   0  0  0  0  0  0  0  0  0  0  0  0
  -22.6430   -4.5580   21.4240 F   0  0  0  0  0  0  0  0  0  0  0  0
  -21.3900   -4.1520   26.0150 F   0  0  0  0  0  0  0  0  0  0  0  0
  -22.9820  -13.8480   20.9720 C   0  0  0  0  0  0  0  0  0  0  0  0
  -22.2180  -13.1670   21.8190 N   0  0  0  0  0  0  0  0  0  0  0  0
  -22.5600  -14.8520   20.4000 O   0  0  0  0  0  0  0  0  0  0  0  0
  -22.5700  -12.3550   22.3030 H   0  0  0  0  0  0  0  0  0  0  0  0
  -21.2660  -13.4630   21.9880 H   0  0  0  0  0  0  0  0  0  0  0  0
  -25.6280  -15.5250   20.2420 N   0  0  0  0  0  0  0  0  0  0  0  0
  -24.8460  -16.1690   20.2900 H   0  0  0  0  0  0  0  0  0  0  0  0
  -26.4820  -15.9630   19.9210 H   0  0  0  0  0  0  0  0  0  0  0  0
  1  4  1  0
  3  6  2  0
  4  2  2  0
  4 55  1  0
  5  1  2  0
  5  3  1  0
  6  2  1  0
  6 54  1  0
  7  5  1  0
  8 10  1  0
  9 10  1  0
 10  3  1  0
 11  8  1  0
 11 12  1  0
 11  9  1  0
 12 14  1  0
 13 24  2  0
 14 19  1  0
 15 23  1  0
 15 25  1  0
 16 22  1  0
 16 18  1  0
 17 23  1  0
 18 17  1  0
 19 18  2  0
 20 21  1  0
 20 14  2  0
 21 16  2  0
 22 15  1  0
 23 13  1  0
 25 27  2  0
 26 25  1  0
 28 26  1  0
 29 38  2  0
 29 34  1  0
 30 26  1  0
 30 34  1  0
 31 30  1  0
 32 33  1  0
 32 31  1  0
 33 29  1  0
 34 35  2  0
 35 36  1  0
 37 36  2  0
 38 37  1  0
 39 13  1  0
 39 44  1  0
 39 40  1  0
 40 43  1  1
 40 41  1  0
 42 40  1  0
 44 47  1  0
 45 44  1  0
 45 49  1  0
 46 45  2  0
 49 48  1  0
 49 51  1  0
 51 52  1  0
 51 50  1  0
 54 53  1  0
 56 64  1  0
 57 62  1  0
 58 59  1  0
 58 57  1  0
 60 59  1  0
 60 69  1  0
 60 61  1  0
 62 56  1  0
 62 61  1  0
 63 56  2  0
 64 65  1  0
 64 55  1  0
 66 67  2  0
 67 68  1  0
 67 86  1  0
 68 71  1  0
 69 66  1  0
 69 70  1  0
 70 68  2  0
 71 72  1  0
 72 73  2  0
 74 77  1  0
 74 73  1  0
 75 74  2  0
 76 75  1  0
 76 71  2  0
 77 78  1  0
 78 79  1  0
 79 80  2  0
 81 80  1  0
 81 85  1  0
 82 81  2  0
 83 78  2  0
 83 82  1  0
 84 83  1  0
 86 87  1  0
 87 90  1  0
 87 89  1  0
 88 86  2  0
 91 92  1  0
 91 66  1  0
 93 91  1  0
M  ISO  4  11 101  12 101  56 100  64 100
M  END
>  <TORSDO>  (11) 
F 19

>  <SCORE>  (11) 
-7.786

>  <name>  (11) 
10

>  <ligand_id>  (11) 
10

>  <original_smiles>  (11) 
[H]c1c([H])c([H])c2c(c1[H])C([H])([H])C([H])([H])C([H])([H])C2([H])N([H])C(=O)C1([H])N(C(=O)C([H])(N([H])C(=O)C([H])(N([H])C([H])([H])[H])C([H])([H])[H])C(C([H])([H])[H])(C([H])([H])[H])C([H])([H])[H])C([H])([H])c2c([H])c(OC3([H])C([H])([H])C([H])(c4c(OC([H])([H])[H])c([H])c(C([H])([H])N([H])C(=O)N5C([H])([H])C([H])([H])C([H])([H])C([H])(n6nc(-c7c([H])c([H])c(Oc8c([H])c([H])c(F)c([H])c8F)c([H])c7[H])c(C(=O)N([H])[H])c6N([H])[H])C5([H])[H])c([H])c4C([H])([H])[H])C3([H])[H])c([H])c([H])c2C1([H])[H]

>  <smiles>  (11) 
[H]c1c([H])c([H])c2c(c1[H])C([H])([H])C([H])([H])C([H])([H])C2([H])N([H])C(=O)C1([H])N(C(=O)C([H])(N([H])C(=O)C([H])(N([H])C([H])([H])[H])C([H])([H])[H])C(C([H])([H])[H])(C([H])([H])[H])C([H])([H])[H])C([H])([H])c2c([H])c(OC3([H])C([H])([H])C([H])(c4c(OC([H])([H])[H])c([H])c(C([H])([H])N([H])C(=O)N5C([H])([H])C([H])([H])C([H])([H])C([H])(n6nc(-c7c([H])c([H])c(Oc8c([H])c([H])c(F)c([H])c8F)c([H])c7[H])c(C(=O)N([H])[H])c6N([H])[H])C5([H])[H])c([H])c4C([H])([H])[H])C3([H])[H])c([H])c([H])c2C1([H])[H]

$$$$
11:0:0
     RDKit          3D

 98107  0  0  1  0  0  0  0  0999 V2000
  -28.7740  -18.9690   19.7830 C   0  0  0  0  0  3  0  0  0  0  0  0
  -27.0780  -20.8770   18.6600 C   0  0  0  0  0  0  0  0  0  0  0  0
  -28.1850  -21.3040   19.4630 C   0  0  0  0  0  0  0  0  0  0  0  0
  -28.9800  -20.3260   20.0960 C   0  0  0  0  0  0  0  0  0  0  0  0
  -26.9850  -19.5500   18.2180 C   0  0  0  0  0  0  0  0  0  0  0  0
  -27.8370  -18.5970   18.7790 C   0  0  0  0  0  0  0  0  0  0  0  0
  -25.9780  -21.8360   18.2330 C   0  0  0  0  0  2  0  0  0  0  0  0
  -28.5220  -22.8050   19.5640 C   0  0  0  0  0  2  0  0  0  0  0  0
  -26.2380  -23.2030   18.8140 C   0  0  0  0  0  2  0  0  0  0  0  0
  -30.0580  -20.6840   21.1090 C   0  0  0  0  0  1  0  0  0  0  0  0
  -26.0020  -19.1700   17.1050 C   0  0  0  0  0  1  0  0  0  0  0  0
  -27.6760  -23.4440   18.5380 N   0  0  1  0  0  4  0  0  0  0  0  0
  -27.7220  -22.5870   18.0090 H   0  0  0  0  0  0  0  0  0  0  0  0
  -29.6730  -24.3610   17.1880 C   0  0  0  0  0  1  0  0  0  0  0  0
  -28.1560  -24.2340   17.3370 C   0  0  0  0  0  3  0  0  0  0  0  0
  -27.4540  -25.5860   17.3660 C   0  0  0  0  0  2  0  0  0  0  0  0
  -27.9950  -26.8870   17.1190 O   0  0  0  0  0  0  0  0  0  0  0  0
  -25.2170  -28.8470   23.2790 C   0  0  0  0  0  0  0  0  0  0  0  0
  -27.0950  -27.7740   17.6870 C   0  0  0  0  0  0  0  0  0  0  0  0
  -23.8060  -29.2330   21.2940 C   0  0  0  0  0  3  0  0  0  0  0  0
  -24.9970  -29.0800   19.0530 C   0  0  0  0  0  0  0  0  0  0  0  0
  -26.3630  -29.2980   21.1220 C   0  0  0  0  0  2  0  0  0  0  0  0
  -26.2170  -28.8390   19.6950 C   0  0  0  0  0  0  0  0  0  0  0  0
  -27.2670  -28.1830   19.0230 C   0  0  0  0  0  3  0  0  0  0  0  0
  -25.8870  -28.1270   17.0190 C   0  0  0  0  0  3  0  0  0  0  0  0
  -24.8290  -28.7270   17.7120 C   0  0  0  0  0  3  0  0  0  0  0  0
  -23.9170  -29.7710   19.8490 C   0  0  0  0  0  2  0  0  0  0  0  0
  -25.1480  -29.0910   21.9440 N   0  0  0  0  0  0  0  0  0  0  0  0
  -24.1960  -28.7770   23.9760 O   0  0  0  0  0  0  0  0  0  0  0  0
  -22.9830  -27.9240   21.2750 C   0  0  0  0  0  0  0  0  0  0  0  0
  -21.6570  -28.0500   21.1220 N   0  0  0  0  0  0  0  0  0  0  0  0
  -23.5390  -26.8270   21.3870 O   0  0  0  0  0  0  0  0  0  0  0  0
  -21.2700  -28.9850   21.0420 H   0  0  0  0  0  0  0  0  0  0  0  0
  -18.1360  -27.2680   20.8340 C   0  0  0  0  0  0  0  0  0  0  0  0
  -20.6950  -26.9480   21.0680 C   0  0  0  0  0  3  0  0  0  0  0  0
  -20.6440  -26.3260   19.6470 C   0  0  0  0  0  2  0  0  0  0  0  0
  -19.5450  -26.9260   18.7650 C   0  0  0  0  0  2  0  0  0  0  0  0
  -18.1670  -26.7620   19.4040 C   0  0  0  0  0  2  0  0  0  0  0  0
  -19.3250  -27.3760   21.6060 C   0  0  0  0  0  0  0  0  0  0  0  0
  -19.2470  -27.8940   22.9180 C   0  0  0  0  0  3  0  0  0  0  0  0
  -18.0160  -28.3160   23.4570 C   0  0  0  0  0  3  0  0  0  0  0  0
  -16.8400  -28.2010   22.6890 C   0  0  0  0  0  3  0  0  0  0  0  0
  -16.9000  -27.6610   21.3900 C   0  0  0  0  0  3  0  0  0  0  0  0
  -26.5820  -28.6660   24.0090 C   0  0  0  0  0  3  0  0  0  0  0  0
  -26.5510  -29.5030   25.2150 N   0  0  0  0  0  0  0  0  0  0  0  0
  -27.1340  -30.7070   25.3130 C   0  0  0  0  0  0  0  0  0  0  0  0
  -27.8300  -31.1950   24.4180 O   0  0  0  0  0  0  0  0  0  0  0  0
  -25.9460  -29.1970   25.9640 H   0  0  0  0  0  0  0  0  0  0  0  0
  -25.8460  -32.5730   26.3900 C   0  0  0  0  0  1  0  0  0  0  0  0
  -26.9130  -31.4920   26.6200 C   0  0  0  0  0  3  0  0  0  0  0  0
  -29.1150  -31.1340   27.6480 C   0  0  0  0  0  1  0  0  0  0  0  0
  -28.1530  -32.1100   27.1450 N   0  0  0  0  0  0  0  0  0  0  0  0
  -27.9400  -32.7670   27.8930 H   0  0  0  0  0  0  0  0  0  0  0  0
  -26.9000  -27.1650   24.3700 C   0  0  1  0  0  0  0  0  0  0  0  0
  -25.7530  -26.4530   25.1220 C   0  0  0  0  0  1  0  0  0  0  0  0
  -27.2040  -26.3480   23.0950 C   0  0  0  0  0  1  0  0  0  0  0  0
  -28.1790  -27.1000   25.2380 C   0  0  0  0  0  1  0  0  0  0  0  0
  -27.6760  -17.3290   18.2800 O   0  0  0  0  0  0  0  0  0  0  0  0
  -28.1000  -16.2810   19.0890 C   0  0  0  0  0  2  0  0  0  0  0  0
  -29.5400  -16.4540   19.5730 C   0  0  0  0  0  2  0  0  0  0  0  0
  -30.5750  -14.4350   20.4150 C   0  0  0  0  0  0  0  0  0  0  0  0
  -30.4550  -12.1540   19.6060 C   0  0  0  0  0  2  0  0  0  0  0  0
  -29.5000  -12.1490   18.3970 C   0  0  0  0  0  2  0  0  0  0  0  0
  -28.0490  -11.9180   18.8740 C   0  0  0  0  0  2  0  0  0  0  0  0
  -27.6210  -12.8970   19.9890 C   0  0  0  0  0  3  0  0  0  0  0  0
  -28.6920  -12.9140   21.1090 C   0  0  0  0  0  2  0  0  0  0  0  0
  -30.0130  -13.2120   20.5120 N   0  0  0  0  0  0  0  0  0  0  0  0
  -31.6860  -14.6680   19.9380 O   0  0  0  0  0  0  0  0  0  0  0  0
  -29.7040  -15.4120   20.5720 N   0  0  0  0  0  0  0  0  0  0  0  0
  -28.8470  -15.0960   21.0020 H   0  0  0  0  0  0  0  0  0  0  0  0
  -25.2650  -13.5150   20.8530 C   0  0  0  0  0  0  0  0  0  0  0  0
  -24.2140  -12.7360   21.2240 C   0  0  0  0  0  0  0  0  0  0  0  0
  -24.6540  -11.3840   21.0720 C   0  0  0  0  0  0  0  0  0  0  0  0
  -26.2870  -12.6360   20.5030 N   0  0  0  0  0  0  0  0  0  0  0  0
  -25.9230  -11.3490   20.6990 N   0  0  0  0  0  0  0  0  0  0  0  0
  -23.9330  -10.1200   21.1960 C   0  0  0  0  0  0  0  0  0  0  0  0
  -24.3660   -9.1110   22.0840 C   0  0  0  0  0  3  0  0  0  0  0  0
  -23.6450   -7.9060   22.2000 C   0  0  0  0  0  3  0  0  0  0  0  0
  -22.4790   -7.7040   21.4230 C   0  0  0  0  0  0  0  0  0  0  0  0
  -22.0620   -8.7030   20.5260 C   0  0  0  0  0  3  0  0  0  0  0  0
  -22.7860   -9.9000   20.4090 C   0  0  0  0  0  3  0  0  0  0  0  0
  -21.7260   -6.5570   21.4520 O   0  0  0  0  0  0  0  0  0  0  0  0
  -21.6220   -5.8010   22.5890 C   0  0  0  0  0  0  0  0  0  0  0  0
  -21.0770   -6.3210   23.7830 C   0  0  0  0  0  3  0  0  0  0  0  0
  -20.9240   -5.4860   24.9070 C   0  0  0  0  0  3  0  0  0  0  0  0
  -21.3060   -4.1320   24.8370 C   0  0  0  0  0  0  0  0  0  0  0  0
  -21.8480   -3.6140   23.6470 C   0  0  0  0  0  3  0  0  0  0  0  0
  -22.0030   -4.4470   22.5260 C   0  0  0  0  0  0  0  0  0  0  0  0
  -22.5050   -3.9380   21.3750 F   0  0  0  0  0  0  0  0  0  0  0  0
  -21.1510   -3.3270   25.9130 F   0  0  0  0  0  0  0  0  0  0  0  0
  -22.8350  -13.2010   21.5960 C   0  0  0  0  0  0  0  0  0  0  0  0
  -22.1330  -12.4490   22.4290 N   0  0  0  0  0  0  0  0  0  0  0  0
  -22.3930  -14.2710   21.1720 O   0  0  0  0  0  0  0  0  0  0  0  0
  -22.5060  -11.5810   22.7870 H   0  0  0  0  0  0  0  0  0  0  0  0
  -21.2140  -12.7480   22.7200 H   0  0  0  0  0  0  0  0  0  0  0  0
  -25.4110  -14.9010   20.7670 N   0  0  0  0  0  0  0  0  0  0  0  0
  -24.6220  -15.5210   20.9210 H   0  0  0  0  0  0  0  0  0  0  0  0
  -26.1790  -15.3590   20.3090 H   0  0  0  0  0  0  0  0  0  0  0  0
  1  4  1  0
  2  3  1  0
  3  8  1  0
  3  4  2  0
  4 10  1  0
  5  2  2  0
  5  6  1  0
  6  1  2  0
  7  2  1  0
  7  9  1  0
 11  5  1  0
 12  9  1  0
 12  8  1  0
 12 13  1  6
 15 14  1  0
 15 16  1  0
 15 12  1  0
 17 16  1  0
 17 19  1  0
 18 29  2  0
 19 24  1  0
 20 30  1  0
 20 28  1  0
 21 23  1  0
 21 27  1  0
 22 28  1  0
 23 22  1  0
 24 23  2  0
 25 19  2  0
 25 26  1  0
 26 21  2  0
 27 20  1  0
 28 18  1  0
 30 32  2  0
 31 30  1  0
 33 31  1  0
 34 43  2  0
 34 39  1  0
 35 31  1  0
 35 39  1  0
 36 35  1  0
 37 38  1  0
 37 36  1  0
 38 34  1  0
 39 40  2  0
 40 41  1  0
 42 41  2  0
 43 42  1  0
 44 18  1  0
 44 54  1  0
 44 45  1  0
 45 46  1  0
 45 48  1  0
 46 50  1  0
 47 46  2  0
 50 49  1  0
 50 52  1  0
 52 51  1  0
 52 53  1  0
 54 55  1  1
 54 57  1  0
 56 54  1  0
 58  6  1  0
 58 59  1  0
 59 60  1  0
 60 69  1  0
 61 67  1  0
 61 69  1  0
 62 67  1  0
 63 64  1  0
 63 62  1  0
 65 64  1  0
 65 74  1  0
 65 66  1  0
 67 66  1  0
 68 61  2  0
 69 70  1  0
 71 72  2  0
 72 91  1  0
 73 76  1  0
 73 72  1  0
 74 75  1  0
 74 71  1  0
 75 73  2  0
 76 77  1  0
 77 78  2  0
 79 82  1  0
 79 78  1  0
 80 79  2  0
 81 80  1  0
 81 76  2  0
 82 83  1  0
 83 84  1  0
 84 85  2  0
 86 85  1  0
 86 90  1  0
 87 86  2  0
 88 83  2  0
 88 87  1  0
 89 88  1  0
 91 92  1  0
 92 95  1  0
 92 94  1  0
 93 91  2  0
 96 71  1  0
 96 97  1  0
 98 96  1  0
M  ISO  4  16 101  17 101  61 100  69 100
M  END
>  <TORSDO>  (12) 
F 21

>  <SCORE>  (12) 
-9.588

>  <name>  (12) 
11

>  <ligand_id>  (12) 
11

>  <original_smiles>  (12) 
[H]c1c([H])c([H])c2c(c1[H])C([H])([H])C([H])([H])C([H])([H])C2([H])N([H])C(=O)C1([H])N(C(=O)C([H])(N([H])C(=O)C([H])(N([H])C([H])([H])[H])C([H])([H])[H])C(C([H])([H])[H])(C([H])([H])[H])C([H])([H])[H])C([H])([H])c2c([H])c(OC([H])([H])C([H])(C([H])([H])[H])[N+]3([H])C([H])([H])c4c(C([H])([H])[H])c([H])c(OC([H])([H])C([H])([H])N([H])C(=O)N5C([H])([H])C([H])([H])C([H])([H])C([H])(n6nc(-c7c([H])c([H])c(Oc8c([H])c([H])c(F)c([H])c8F)c([H])c7[H])c(C(=O)N([H])[H])c6N([H])[H])C5([H])[H])c(C([H])([H])[H])c4C([H])([H])C3([H])[H])c([H])c([H])c2C1([H])[H]

>  <smiles>  (12) 
[H]c1c([H])c([H])c2c(c1[H])C([H])([H])C([H])([H])C([H])([H])C2([H])N([H])C(=O)C1([H])N(C(=O)C([H])(N([H])C(=O)C([H])(N([H])C([H])([H])[H])C([H])([H])[H])C(C([H])([H])[H])(C([H])([H])[H])C([H])([H])[H])C([H])([H])c2c([H])c(OC([H])([H])C([H])(C([H])([H])[H])[N+]3([H])C([H])([H])c4c(C([H])([H])[H])c([H])c(OC([H])([H])C([H])([H])N([H])C(=O)N5C([H])([H])C([H])([H])C([H])([H])C([H])(n6nc(-c7c([H])c([H])c(Oc8c([H])c([H])c(F)c([H])c8F)c([H])c7[H])c(C(=O)N([H])[H])c6N([H])[H])C5([H])[H])c(C([H])([H])[H])c4C([H])([H])C3([H])[H])c([H])c([H])c2C1([H])[H]

$$$$
12:0:0
     RDKit          3D

 95104  0  0  1  0  0  0  0  0999 V2000
  -30.6640  -14.5590   20.0320 C   0  0  0  0  0  0  0  0  0  0  0  0
  -30.3270  -12.3070   19.0710 C   0  0  0  0  0  2  0  0  0  0  0  0
  -29.3590  -12.3820   17.8740 C   0  0  0  0  0  2  0  0  0  0  0  0
  -27.9100  -12.2170   18.3620 C   0  0  0  0  0  2  0  0  0  0  0  0
  -27.5720  -13.1410   19.5630 C   0  0  0  0  0  3  0  0  0  0  0  0
  -28.6680  -13.1050   20.6540 C   0  0  0  0  0  2  0  0  0  0  0  0
  -29.9570  -13.3860   20.0090 N   0  0  0  0  0  0  0  0  0  0  0  0
  -31.8000  -14.6080   19.5550 O   0  0  0  0  0  0  0  0  0  0  0  0
  -30.0820  -20.1800   21.7800 C   0  0  0  0  0  3  0  0  0  0  0  0
  -29.5860  -18.9550   21.2800 C   0  0  0  0  0  0  0  0  0  0  0  0
  -28.8650  -18.9490   20.0730 C   0  0  0  0  0  0  0  0  0  0  0  0
  -28.5690  -20.1990   19.4300 C   0  0  0  0  0  0  0  0  0  0  0  0
  -29.8230  -21.4240   21.1380 C   0  0  0  0  0  0  0  0  0  0  0  0
  -28.9930  -21.4560   19.9790 C   0  0  0  0  0  0  0  0  0  0  0  0
  -29.7780  -17.6520   22.0730 C   0  0  0  0  0  2  0  0  0  0  0  0
  -28.3960  -17.5760   19.5420 C   0  0  0  0  0  2  0  0  0  0  0  0
  -29.5350  -16.5480   19.2510 C   0  0  0  0  0  2  0  0  0  0  0  0
  -30.7010  -16.5810   21.4330 C   0  0  0  0  0  3  0  0  0  0  0  0
  -27.7760  -20.1990   18.1270 C   0  0  0  0  0  1  0  0  0  0  0  0
  -32.0660  -17.2000   21.0300 C   0  0  0  0  0  1  0  0  0  0  0  0
  -30.0400  -15.7310   20.3910 N   0  0  0  0  0  0  0  0  0  0  0  0
  -25.2210  -13.7180   20.4210 C   0  0  0  0  0  0  0  0  0  0  0  0
  -24.1670  -12.9340   20.8070 C   0  0  0  0  0  0  0  0  0  0  0  0
  -24.6160  -11.5830   20.6990 C   0  0  0  0  0  0  0  0  0  0  0  0
  -26.2470  -12.8430   20.1060 N   0  0  0  0  0  0  0  0  0  0  0  0
  -25.8920  -11.5520   20.3310 N   0  0  0  0  0  0  0  0  0  0  0  0
  -23.8880  -10.3170   20.8680 C   0  0  0  0  0  0  0  0  0  0  0  0
  -24.3250   -9.3290   21.7780 C   0  0  0  0  0  3  0  0  0  0  0  0
  -23.5970   -8.1300   21.9380 C   0  0  0  0  0  3  0  0  0  0  0  0
  -22.4170   -7.9110   21.1870 C   0  0  0  0  0  0  0  0  0  0  0  0
  -21.9980   -8.8880   20.2670 C   0  0  0  0  0  3  0  0  0  0  0  0
  -22.7270  -10.0780   20.1050 C   0  0  0  0  0  3  0  0  0  0  0  0
  -21.6590   -6.7660   21.2580 O   0  0  0  0  0  0  0  0  0  0  0  0
  -21.5880   -6.0200   22.4070 C   0  0  0  0  0  0  0  0  0  0  0  0
  -21.0770   -6.5550   23.6110 C   0  0  0  0  0  3  0  0  0  0  0  0
  -20.9560   -5.7340   24.7500 C   0  0  0  0  0  3  0  0  0  0  0  0
  -21.3350   -4.3790   24.6870 C   0  0  0  0  0  0  0  0  0  0  0  0
  -21.8380   -3.8450   23.4880 C   0  0  0  0  0  3  0  0  0  0  0  0
  -21.9610   -4.6630   22.3510 C   0  0  0  0  0  0  0  0  0  0  0  0
  -22.4270   -4.1370   21.1920 F   0  0  0  0  0  0  0  0  0  0  0  0
  -21.2110   -3.5880   25.7780 F   0  0  0  0  0  0  0  0  0  0  0  0
  -22.7870  -13.4080   21.1640 C   0  0  0  0  0  0  0  0  0  0  0  0
  -22.0960  -12.6810   22.0340 N   0  0  0  0  0  0  0  0  0  0  0  0
  -22.3330  -14.4560   20.7060 O   0  0  0  0  0  0  0  0  0  0  0  0
  -22.4750  -11.8320   22.4230 H   0  0  0  0  0  0  0  0  0  0  0  0
  -21.1720  -12.9790   22.3140 H   0  0  0  0  0  0  0  0  0  0  0  0
  -25.3870  -15.0920   20.2910 N   0  0  0  0  0  0  0  0  0  0  0  0
  -24.6300  -15.7470   20.4530 H   0  0  0  0  0  0  0  0  0  0  0  0
  -26.2300  -15.5330   19.9440 H   0  0  0  0  0  0  0  0  0  0  0  0
  -31.3290  -22.5630   22.6400 C   0  0  0  0  0  1  0  0  0  0  0  0
  -30.3540  -22.6060   21.6060 O   0  0  0  0  0  0  0  0  0  0  0  0
  -28.5830  -22.6350   19.3260 O   0  0  0  0  0  0  0  0  0  0  0  0
  -28.8500  -23.9890   19.7990 C   0  0  0  0  0  2  0  0  0  0  0  0
  -27.8580  -25.0190   19.1540 C   0  0  0  0  0  2  0  0  0  0  0  0
  -28.0730  -26.4590   19.3640 O   0  0  0  0  0  0  0  0  0  0  0  0
  -24.4690  -31.5590   22.9030 C   0  0  0  0  0  0  0  0  0  0  0  0
  -26.9480  -27.2900   19.3960 C   0  0  0  0  0  0  0  0  0  0  0  0
  -23.1970  -30.2940   21.2090 C   0  0  0  0  0  3  0  0  0  0  0  0
  -24.5860  -28.8760   19.6050 C   0  0  0  0  0  0  0  0  0  0  0  0
  -25.7250  -30.6390   20.9490 C   0  0  0  0  0  2  0  0  0  0  0  0
  -25.7760  -29.3180   20.1970 C   0  0  0  0  0  0  0  0  0  0  0  0
  -26.9600  -28.5330   20.0910 C   0  0  0  0  0  3  0  0  0  0  0  0
  -25.7390  -26.9110   18.7630 C   0  0  0  0  0  3  0  0  0  0  0  0
  -24.5660  -27.6760   18.8810 C   0  0  0  0  0  3  0  0  0  0  0  0
  -23.3520  -29.7350   19.7710 C   0  0  0  0  0  2  0  0  0  0  0  0
  -24.4840  -30.8410   21.7440 N   0  0  0  0  0  0  0  0  0  0  0  0
  -23.4090  -31.7920   23.5020 O   0  0  0  0  0  0  0  0  0  0  0  0
  -22.5740  -29.1990   22.1090 C   0  0  0  0  0  0  0  0  0  0  0  0
  -21.2370  -29.0730   22.0660 N   0  0  0  0  0  0  0  0  0  0  0  0
  -23.2890  -28.4730   22.8040 O   0  0  0  0  0  0  0  0  0  0  0  0
  -20.7190  -29.7120   21.4790 H   0  0  0  0  0  0  0  0  0  0  0  0
  -17.8620  -27.9690   22.7480 C   0  0  0  0  0  0  0  0  0  0  0  0
  -20.4440  -28.0870   22.8010 C   0  0  0  0  0  3  0  0  0  0  0  0
  -20.4180  -26.7290   22.0610 C   0  0  0  0  0  2  0  0  0  0  0  0
  -19.2130  -26.5720   21.1280 C   0  0  0  0  0  2  0  0  0  0  0  0
  -17.9040  -26.7000   21.9130 C   0  0  0  0  0  2  0  0  0  0  0  0
  -19.0520  -28.6290   23.1500 C   0  0  0  0  0  0  0  0  0  0  0  0
  -18.9530  -29.8220   23.8970 C   0  0  0  0  0  3  0  0  0  0  0  0
  -17.6980  -30.3590   24.2380 C   0  0  0  0  0  3  0  0  0  0  0  0
  -16.5220  -29.6940   23.8490 C   0  0  0  0  0  3  0  0  0  0  0  0
  -16.6060  -28.5000   23.1110 C   0  0  0  0  0  3  0  0  0  0  0  0
  -25.7780  -32.1420   23.5190 C   0  0  0  0  0  3  0  0  0  0  0  0
  -26.3300  -31.2880   24.7250 C   0  0  1  0  0  0  0  0  0  0  0  0
  -25.2710  -30.9900   25.8130 C   0  0  0  0  0  1  0  0  0  0  0  0
  -26.8870  -29.9340   24.2280 C   0  0  0  0  0  1  0  0  0  0  0  0
  -27.5110  -32.0300   25.3970 C   0  0  0  0  0  1  0  0  0  0  0  0
  -25.4920  -33.5190   23.9460 N   0  0  0  0  0  0  0  0  0  0  0  0
  -25.8630  -34.6160   23.2710 C   0  0  0  0  0  0  0  0  0  0  0  0
  -26.5500  -34.5720   22.2480 O   0  0  0  0  0  0  0  0  0  0  0  0
  -24.8840  -33.6260   24.7450 H   0  0  0  0  0  0  0  0  0  0  0  0
  -24.1930  -36.4790   23.0020 C   0  0  0  0  0  1  0  0  0  0  0  0
  -25.3960  -35.9780   23.8200 C   0  0  0  0  0  3  0  0  0  0  0  0
  -27.5140  -36.7410   24.7990 C   0  0  0  0  0  1  0  0  0  0  0  0
  -26.4590  -37.0070   23.8230 N   0  0  0  0  0  0  0  0  0  0  0  0
  -26.0710  -37.9250   24.0220 H   0  0  0  0  0  0  0  0  0  0  0  0
  1 21  1  0
  2  7  1  0
  3  4  1  0
  3  2  1  0
  5  4  1  0
  5 25  1  0
  5  6  1  0
  7  1  1  0
  7  6  1  0
  8  1  2  0
 10  9  1  0
 10 15  1  0
 11 10  2  0
 12 14  2  0
 12 11  1  0
 13 51  1  0
 13  9  2  0
 14 13  1  0
 16 11  1  0
 17 16  1  0
 17 21  1  0
 18 20  1  0
 18 15  1  0
 19 12  1  0
 21 18  1  0
 22 23  2  0
 23 42  1  0
 24 23  1  0
 24 27  1  0
 25 26  1  0
 25 22  1  0
 26 24  2  0
 27 28  1  0
 28 29  2  0
 30 33  1  0
 30 29  1  0
 31 30  2  0
 32 31  1  0
 32 27  2  0
 33 34  1  0
 34 35  1  0
 35 36  2  0
 37 36  1  0
 37 41  1  0
 38 37  2  0
 39 34  2  0
 39 38  1  0
 40 39  1  0
 42 43  1  0
 43 46  1  0
 43 45  1  0
 44 42  2  0
 47 22  1  0
 47 48  1  0
 49 47  1  0
 51 50  1  0
 52 53  1  0
 52 14  1  0
 54 55  1  0
 54 53  1  0
 55 57  1  0
 56 67  2  0
 57 62  1  0
 58 66  1  0
 58 68  1  0
 59 65  1  0
 59 61  1  0
 60 66  1  0
 61 60  1  0
 62 61  2  0
 63 64  1  0
 63 57  2  0
 64 59  2  0
 65 58  1  0
 66 56  1  0
 68 70  2  0
 69 68  1  0
 71 69  1  0
 72 81  2  0
 72 77  1  0
 73 69  1  0
 73 77  1  0
 74 73  1  0
 75 76  1  0
 75 74  1  0
 76 72  1  0
 77 78  2  0
 78 79  1  0
 80 79  2  0
 81 80  1  0
 82 56  1  0
 82 87  1  0
 82 83  1  0
 83 86  1  1
 83 84  1  0
 85 83  1  0
 87 90  1  0
 88 92  1  0
 88 87  1  0
 89 88  2  0
 92 91  1  0
 92 94  1  0
 94 95  1  0
 94 93  1  0
M  ISO  4   1 100  21 100  54 101  55 101
M  END
>  <TORSDO>  (13) 
F 19

>  <SCORE>  (13) 
-12.226

>  <name>  (13) 
12

>  <ligand_id>  (13) 
12

>  <original_smiles>  (13) 
[H]c1c([H])c([H])c2c(c1[H])C([H])([H])C([H])([H])C([H])([H])C2([H])N([H])C(=O)C1([H])N(C(=O)C([H])(N([H])C(=O)C([H])(N([H])C([H])([H])[H])C([H])([H])[H])C(C([H])([H])[H])(C([H])([H])[H])C([H])([H])[H])C([H])([H])c2c([H])c(OC([H])([H])C([H])([H])Oc3c(OC([H])([H])[H])c([H])c4c(c3C([H])([H])[H])C([H])([H])C([H])([H])N(C(=O)N3C([H])([H])C([H])([H])C([H])([H])C([H])(n5nc(-c6c([H])c([H])c(Oc7c([H])c([H])c(F)c([H])c7F)c([H])c6[H])c(C(=O)N([H])[H])c5N([H])[H])C3([H])[H])C([H])(C([H])([H])[H])C4([H])[H])c([H])c([H])c2C1([H])[H]

>  <smiles>  (13) 
[H]c1c([H])c([H])c2c(c1[H])C([H])([H])C([H])([H])C([H])([H])C2([H])N([H])C(=O)C1([H])N(C(=O)C([H])(N([H])C(=O)C([H])(N([H])C([H])([H])[H])C([H])([H])[H])C(C([H])([H])[H])(C([H])([H])[H])C([H])([H])[H])C([H])([H])c2c([H])c(OC([H])([H])C([H])([H])Oc3c(OC([H])([H])[H])c([H])c4c(c3C([H])([H])[H])C([H])([H])C([H])([H])N(C(=O)N3C([H])([H])C([H])([H])C([H])([H])C([H])(n5nc(-c6c([H])c([H])c(Oc7c([H])c([H])c(F)c([H])c7F)c([H])c6[H])c(C(=O)N([H])[H])c5N([H])[H])C3([H])[H])C([H])(C([H])([H])[H])C4([H])[H])c([H])c([H])c2C1([H])[H]

$$$$
14:0:0
     RDKit          3D

 96105  0  0  1  0  0  0  0  0999 V2000
  -29.7570  -22.2210   19.8760 C   0  0  0  0  0  3  0  0  0  0  0  0
  -30.2220  -20.8820   19.9090 C   0  0  0  0  0  3  0  0  0  0  0  0
  -27.4860  -21.4220   19.6660 C   0  0  0  0  0  3  0  0  0  0  0  0
  -28.3800  -22.5120   19.7530 C   0  0  0  0  0  0  0  0  0  0  0  0
  -27.9400  -20.0760   19.7020 C   0  0  0  0  0  0  0  0  0  0  0  0
  -29.3200  -19.7870   19.8280 C   0  0  0  0  0  0  0  0  0  0  0  0
  -25.7680  -18.8420   19.3670 C   0  0  0  0  0  0  0  0  0  0  0  0
  -25.2090  -17.4280   19.2760 C   0  0  0  0  0  1  0  0  0  0  0  0
  -27.0880  -18.9410   19.5930 N   0  0  0  0  0  0  0  0  0  0  0  0
  -24.9970  -19.7960   19.2400 O   0  0  0  0  0  0  0  0  0  0  0  0
  -27.5750  -18.0620   19.7040 H   0  0  0  0  0  0  0  0  0  0  0  0
  -26.9220  -24.4390   20.7330 C   0  0  0  0  0  2  0  0  0  0  0  0
  -27.8320  -23.9280   19.6300 C   0  0  0  0  0  3  0  0  0  0  0  0
  -28.2260  -25.1620   20.4560 C   0  0  0  0  0  3  0  0  0  0  0  0
  -28.1990  -26.4710   19.8110 O   0  0  0  0  0  0  0  0  0  0  0  0
  -24.5580  -31.6760   23.1180 C   0  0  0  0  0  0  0  0  0  0  0  0
  -27.0650  -27.2600   19.8760 C   0  0  0  0  0  0  0  0  0  0  0  0
  -23.3160  -30.3820   21.4160 C   0  0  0  0  0  3  0  0  0  0  0  0
  -24.7280  -28.8590   19.9320 C   0  0  0  0  0  0  0  0  0  0  0  0
  -25.8550  -30.6620   21.2430 C   0  0  0  0  0  2  0  0  0  0  0  0
  -25.9000  -29.3130   20.5530 C   0  0  0  0  0  0  0  0  0  0  0  0
  -27.0730  -28.5200   20.5230 C   0  0  0  0  0  3  0  0  0  0  0  0
  -25.8860  -26.8440   19.2220 C   0  0  0  0  0  3  0  0  0  0  0  0
  -24.7170  -27.6240   19.2640 C   0  0  0  0  0  3  0  0  0  0  0  0
  -23.5120  -29.7560   20.0090 C   0  0  0  0  0  2  0  0  0  0  0  0
  -24.5950  -30.9190   21.9840 N   0  0  0  0  0  0  0  0  0  0  0  0
  -23.4830  -31.9590   23.6650 O   0  0  0  0  0  0  0  0  0  0  0  0
  -22.6300  -29.3410   22.3300 C   0  0  0  0  0  0  0  0  0  0  0  0
  -21.2960  -29.2360   22.2230 N   0  0  0  0  0  0  0  0  0  0  0  0
  -23.2940  -28.6360   23.0940 O   0  0  0  0  0  0  0  0  0  0  0  0
  -20.8230  -29.8560   21.5800 H   0  0  0  0  0  0  0  0  0  0  0  0
  -17.8680  -28.2230   22.7600 C   0  0  0  0  0  0  0  0  0  0  0  0
  -20.4450  -28.3000   22.9560 C   0  0  0  0  0  3  0  0  0  0  0  0
  -20.4360  -26.9090   22.2810 C   0  0  0  0  0  2  0  0  0  0  0  0
  -19.2840  -26.7290   21.2870 C   0  0  0  0  0  2  0  0  0  0  0  0
  -17.9350  -26.9150   21.9880 C   0  0  0  0  0  2  0  0  0  0  0  0
  -19.0470  -28.8800   23.2010 C   0  0  0  0  0  0  0  0  0  0  0  0
  -18.9310  -30.1110   23.8830 C   0  0  0  0  0  3  0  0  0  0  0  0
  -17.6670  -30.6810   24.1290 C   0  0  0  0  0  3  0  0  0  0  0  0
  -16.5040  -30.0180   23.7050 C   0  0  0  0  0  3  0  0  0  0  0  0
  -16.6040  -28.7900   23.0260 C   0  0  0  0  0  3  0  0  0  0  0  0
  -25.8600  -32.2410   23.7660 C   0  0  0  0  0  3  0  0  0  0  0  0
  -25.6000  -33.6390   24.1360 N   0  0  0  0  0  0  0  0  0  0  0  0
  -25.9790  -34.7000   23.4120 C   0  0  0  0  0  0  0  0  0  0  0  0
  -26.6560  -34.6040   22.3850 O   0  0  0  0  0  0  0  0  0  0  0  0
  -25.0030  -33.7910   24.9360 H   0  0  0  0  0  0  0  0  0  0  0  0
  -24.3160  -36.5600   23.1000 C   0  0  0  0  0  1  0  0  0  0  0  0
  -25.5370  -36.0910   23.9070 C   0  0  0  0  0  3  0  0  0  0  0  0
  -27.6980  -36.8730   24.7690 C   0  0  0  0  0  1  0  0  0  0  0  0
  -26.6050  -37.1110   23.8290 N   0  0  0  0  0  0  0  0  0  0  0  0
  -26.2310  -38.0380   24.0060 H   0  0  0  0  0  0  0  0  0  0  0  0
  -26.3420  -31.4120   25.0190 C   0  0  1  0  0  0  0  0  0  0  0  0
  -25.2340  -31.1760   26.0710 C   0  0  0  0  0  1  0  0  0  0  0  0
  -26.8810  -30.0290   24.5830 C   0  0  0  0  0  1  0  0  0  0  0  0
  -27.5140  -32.1430   25.7130 C   0  0  0  0  0  1  0  0  0  0  0  0
  -29.6760  -18.4390   19.8550 O   0  0  0  0  0  0  0  0  0  0  0  0
  -31.0520  -18.0370   19.8580 C   0  0  0  0  0  2  0  0  0  0  0  0
  -31.3260  -16.9410   20.9280 C   0  0  0  0  0  2  0  0  0  0  0  0
  -31.3380  -14.5490   20.1490 C   0  0  0  0  0  0  0  0  0  0  0  0
  -31.0130  -12.2510   19.2960 C   0  0  0  0  0  2  0  0  0  0  0  0
  -30.0580  -12.2680   18.0850 C   0  0  0  0  0  2  0  0  0  0  0  0
  -28.5890  -12.1940   18.5480 C   0  0  0  0  0  2  0  0  0  0  0  0
  -28.2650  -13.2120   19.6730 C   0  0  0  0  0  3  0  0  0  0  0  0
  -29.3290  -13.1580   20.7910 C   0  0  0  0  0  2  0  0  0  0  0  0
  -30.6460  -13.3770   20.1700 N   0  0  0  0  0  0  0  0  0  0  0  0
  -32.4410  -14.6640   19.6110 O   0  0  0  0  0  0  0  0  0  0  0  0
  -30.7180  -15.6170   20.6870 N   0  0  0  0  0  0  0  0  0  0  0  0
  -29.7940  -15.4620   21.0600 H   0  0  0  0  0  0  0  0  0  0  0  0
  -25.9490  -13.9600   20.5080 C   0  0  0  0  0  0  0  0  0  0  0  0
  -24.8410  -13.2530   20.8920 C   0  0  0  0  0  0  0  0  0  0  0  0
  -25.2000  -11.8730   20.7880 C   0  0  0  0  0  0  0  0  0  0  0  0
  -26.9150  -13.0150   20.1990 N   0  0  0  0  0  0  0  0  0  0  0  0
  -26.4710  -11.7530   20.4250 N   0  0  0  0  0  0  0  0  0  0  0  0
  -24.3900  -10.6600   20.9600 C   0  0  0  0  0  0  0  0  0  0  0  0
  -24.7640   -9.6440   21.8680 C   0  0  0  0  0  3  0  0  0  0  0  0
  -23.9600   -8.4960   22.0290 C   0  0  0  0  0  3  0  0  0  0  0  0
  -22.7660   -8.3550   21.2810 C   0  0  0  0  0  0  0  0  0  0  0  0
  -22.4110   -9.3570   20.3630 C   0  0  0  0  0  3  0  0  0  0  0  0
  -23.2150  -10.4980   20.2000 C   0  0  0  0  0  3  0  0  0  0  0  0
  -21.9360   -7.2630   21.3530 O   0  0  0  0  0  0  0  0  0  0  0  0
  -21.8140   -6.5250   22.5040 C   0  0  0  0  0  0  0  0  0  0  0  0
  -21.4070   -7.1080   23.7230 C   0  0  0  0  0  3  0  0  0  0  0  0
  -21.2280   -6.3010   24.8640 C   0  0  0  0  0  3  0  0  0  0  0  0
  -21.4450   -4.9120   24.7860 C   0  0  0  0  0  0  0  0  0  0  0  0
  -21.8460   -4.3290   23.5710 C   0  0  0  0  0  3  0  0  0  0  0  0
  -22.0260   -5.1330   22.4320 C   0  0  0  0  0  0  0  0  0  0  0  0
  -22.3910   -4.5630   21.2590 F   0  0  0  0  0  0  0  0  0  0  0  0
  -21.2660   -4.1350   25.8800 F   0  0  0  0  0  0  0  0  0  0  0  0
  -23.4960  -13.8180   21.2420 C   0  0  0  0  0  0  0  0  0  0  0  0
  -22.7600  -13.1480   22.1210 N   0  0  0  0  0  0  0  0  0  0  0  0
  -23.1100  -14.8870   20.7710 O   0  0  0  0  0  0  0  0  0  0  0  0
  -23.0850  -12.2810   22.5230 H   0  0  0  0  0  0  0  0  0  0  0  0
  -21.8570  -13.5070   22.3970 H   0  0  0  0  0  0  0  0  0  0  0  0
  -26.2080  -15.3210   20.3760 N   0  0  0  0  0  0  0  0  0  0  0  0
  -25.4900  -16.0210   20.5220 H   0  0  0  0  0  0  0  0  0  0  0  0
  -27.0700  -15.7050   20.0080 H   0  0  0  0  0  0  0  0  0  0  0  0
  1  2  1  0
  3  5  2  0
  3  4  1  0
  4  1  2  0
  5  6  1  0
  6 56  1  0
  6  2  2  0
  7  9  1  0
  8  7  1  0
  9  5  1  0
  9 11  1  0
 10  7  2  0
 13  4  1  0
 13 14  1  0
 13 12  1  0
 14 15  1  0
 14 12  1  0
 15 17  1  0
 16 27  2  0
 17 22  1  0
 18 26  1  0
 18 28  1  0
 19 25  1  0
 19 21  1  0
 20 26  1  0
 21 20  1  0
 22 21  2  0
 23 24  1  0
 23 17  2  0
 24 19  2  0
 25 18  1  0
 26 16  1  0
 28 30  2  0
 29 28  1  0
 31 29  1  0
 32 41  2  0
 32 37  1  0
 33 29  1  0
 33 37  1  0
 34 33  1  0
 35 36  1  0
 35 34  1  0
 36 32  1  0
 37 38  2  0
 38 39  1  0
 40 39  2  0
 41 40  1  0
 42 16  1  0
 42 43  1  0
 42 52  1  0
 43 46  1  0
 44 48  1  0
 44 43  1  0
 45 44  2  0
 48 47  1  0
 50 48  1  0
 50 51  1  0
 50 49  1  0
 52 55  1  1
 52 53  1  0
 54 52  1  0
 56 57  1  0
 57 58  1  0
 59 65  1  0
 59 67  1  0
 60 65  1  0
 61 62  1  0
 61 60  1  0
 63 62  1  0
 63 72  1  0
 63 64  1  0
 65 64  1  0
 66 59  2  0
 67 58  1  0
 67 68  1  0
 69 70  2  0
 70 89  1  0
 71 70  1  0
 71 74  1  0
 72 73  1  0
 72 69  1  0
 73 71  2  0
 74 75  1  0
 75 76  2  0
 77 80  1  0
 77 76  1  0
 78 77  2  0
 79 78  1  0
 79 74  2  0
 80 81  1  0
 81 82  1  0
 82 83  2  0
 84 83  1  0
 84 88  1  0
 85 84  2  0
 86 81  2  0
 86 85  1  0
 87 86  1  0
 89 90  1  0
 90 93  1  0
 90 92  1  0
 91 89  2  0
 94 69  1  0
 94 95  1  0
 96 94  1  0
M  ISO  4  14 101  15 101  59 100  67 100
M  END
>  <TORSDO>  (14) 
F 21

>  <SCORE>  (14) 
-11.238

>  <name>  (14) 
14

>  <ligand_id>  (14) 
14

>  <original_smiles>  (14) 
[H]c1c([H])c([H])c2c(c1[H])C([H])([H])C([H])([H])C([H])([H])C2([H])N([H])C(=O)C1([H])N(C(=O)C([H])(N([H])C(=O)C([H])(N([H])C([H])([H])[H])C([H])([H])[H])C(C([H])([H])[H])(C([H])([H])[H])C([H])([H])[H])C([H])([H])c2c([H])c(OC3([H])C([H])([H])C3([H])c3c([H])c([H])c(OC([H])([H])C([H])([H])N([H])C(=O)N4C([H])([H])C([H])([H])C([H])([H])C([H])(n5nc(-c6c([H])c([H])c(Oc7c([H])c([H])c(F)c([H])c7F)c([H])c6[H])c(C(=O)N([H])[H])c5N([H])[H])C4([H])[H])c(N([H])C(=O)C([H])([H])[H])c3[H])c([H])c([H])c2C1([H])[H]

>  <smiles>  (14) 
[H]c1c([H])c([H])c2c(c1[H])C([H])([H])C([H])([H])C([H])([H])C2([H])N([H])C(=O)C1([H])N(C(=O)C([H])(N([H])C(=O)C([H])(N([H])C([H])([H])[H])C([H])([H])[H])C(C([H])([H])[H])(C([H])([H])[H])C([H])([H])[H])C([H])([H])c2c([H])c(OC3([H])C([H])([H])C3([H])c3c([H])c([H])c(OC([H])([H])C([H])([H])N([H])C(=O)N4C([H])([H])C([H])([H])C([H])([H])C([H])(n5nc(-c6c([H])c([H])c(Oc7c([H])c([H])c(F)c([H])c7F)c([H])c6[H])c(C(=O)N([H])[H])c5N([H])[H])C4([H])[H])c(N([H])C(=O)C([H])([H])[H])c3[H])c([H])c([H])c2C1([H])[H]

$$$$
15:0:0
     RDKit          3D

 96105  0  0  1  0  0  0  0  0999 V2000
  -28.7740  -20.8760   19.5930 C   0  0  0  0  0  3  0  0  0  0  0  0
  -29.8720  -20.6810   21.7100 C   0  0  0  0  0  3  0  0  0  0  0  0
  -29.0720  -19.5020   19.3210 C   0  0  0  0  0  0  0  0  0  0  0  0
  -29.8470  -18.6930   20.2160 C   0  0  0  0  0  0  0  0  0  0  0  0
  -30.2050  -19.3170   21.4450 C   0  0  0  0  0  0  0  0  0  0  0  0
  -29.1920  -21.5170   20.7860 C   0  0  0  0  0  0  0  0  0  0  0  0
  -28.5770  -18.9370   17.9960 C   0  0  0  0  0  2  0  0  0  0  0  0
  -28.9660  -17.4710   17.7580 C   0  0  0  0  0  2  0  0  0  0  0  0
  -30.4660  -17.3010   19.7570 C   0  0  0  0  0  3  0  0  0  0  0  0
  -30.4100  -17.1640   18.2010 C   0  0  0  0  0  3  0  0  0  0  0  0
  -31.0050  -18.5520   22.4850 C   0  0  0  0  0  1  0  0  0  0  0  0
  -30.8150  -14.8340   20.3000 C   0  0  0  0  0  0  0  0  0  0  0  0
  -30.5670  -12.5940   19.2800 C   0  0  0  0  0  2  0  0  0  0  0  0
  -29.6220  -12.7170   18.0660 C   0  0  0  0  0  2  0  0  0  0  0  0
  -28.1580  -12.5450   18.5090 C   0  0  0  0  0  2  0  0  0  0  0  0
  -27.7980  -13.4100   19.7470 C   0  0  0  0  0  3  0  0  0  0  0  0
  -28.8680  -13.3050   20.8560 C   0  0  0  0  0  2  0  0  0  0  0  0
  -30.1640  -13.6310   20.2530 N   0  0  0  0  0  0  0  0  0  0  0  0
  -32.0060  -14.9100   19.9910 O   0  0  0  0  0  0  0  0  0  0  0  0
  -30.0590  -15.9820   20.3790 N   0  0  0  0  0  0  0  0  0  0  0  0
  -29.0860  -15.8760   20.6230 H   0  0  0  0  0  0  0  0  0  0  0  0
  -25.4110  -13.9740   20.5010 C   0  0  0  0  0  0  0  0  0  0  0  0
  -24.3570  -13.1860   20.8750 C   0  0  0  0  0  0  0  0  0  0  0  0
  -24.8330  -11.8400   20.8290 C   0  0  0  0  0  0  0  0  0  0  0  0
  -26.4620  -13.1070   20.2480 N   0  0  0  0  0  0  0  0  0  0  0  0
  -26.1210  -11.8190   20.5080 N   0  0  0  0  0  0  0  0  0  0  0  0
  -24.1210  -10.5690   21.0140 C   0  0  0  0  0  0  0  0  0  0  0  0
  -24.5500   -9.6110   21.9600 C   0  0  0  0  0  3  0  0  0  0  0  0
  -23.8370   -8.4060   22.1330 C   0  0  0  0  0  3  0  0  0  0  0  0
  -22.6810   -8.1470   21.3590 C   0  0  0  0  0  0  0  0  0  0  0  0
  -22.2700   -9.0930   20.4020 C   0  0  0  0  0  3  0  0  0  0  0  0
  -22.9840  -10.2910   20.2280 C   0  0  0  0  0  3  0  0  0  0  0  0
  -21.9400   -6.9930   21.4390 O   0  0  0  0  0  0  0  0  0  0  0  0
  -21.8460   -6.2790   22.6070 C   0  0  0  0  0  0  0  0  0  0  0  0
  -21.3210   -6.8480   23.7880 C   0  0  0  0  0  3  0  0  0  0  0  0
  -21.1780   -6.0580   24.9460 C   0  0  0  0  0  3  0  0  0  0  0  0
  -21.5480   -4.7000   24.9240 C   0  0  0  0  0  0  0  0  0  0  0  0
  -22.0660   -4.1310   23.7470 C   0  0  0  0  0  3  0  0  0  0  0  0
  -22.2110   -4.9180   22.5910 C   0  0  0  0  0  0  0  0  0  0  0  0
  -22.6900   -4.3590   21.4530 F   0  0  0  0  0  0  0  0  0  0  0  0
  -21.4040   -3.9390   26.0340 F   0  0  0  0  0  0  0  0  0  0  0  0
  -22.9570  -13.6470   21.1640 C   0  0  0  0  0  0  0  0  0  0  0  0
  -22.2440  -12.9360   22.0300 N   0  0  0  0  0  0  0  0  0  0  0  0
  -22.5040  -14.6720   20.6560 O   0  0  0  0  0  0  0  0  0  0  0  0
  -22.6240  -12.1070   22.4620 H   0  0  0  0  0  0  0  0  0  0  0  0
  -21.3060  -13.2260   22.2660 H   0  0  0  0  0  0  0  0  0  0  0  0
  -25.5590  -15.3480   20.3340 N   0  0  0  0  0  0  0  0  0  0  0  0
  -24.7830  -15.9890   20.4580 H   0  0  0  0  0  0  0  0  0  0  0  0
  -26.3920  -15.8010   19.9850 H   0  0  0  0  0  0  0  0  0  0  0  0
  -32.9260  -17.6410   17.8070 C   0  0  0  0  0  1  0  0  0  0  0  0
  -31.3280  -17.8970   15.9050 C   0  0  0  0  0  1  0  0  0  0  0  0
  -31.4770  -18.0130   17.4350 C   0  0  0  0  0  3  0  0  0  0  0  0
  -28.9500  -22.8600   21.1480 O   0  0  0  0  0  0  0  0  0  0  0  0
  -28.7210  -23.9610   20.2020 C   0  0  0  0  0  2  0  0  0  0  0  0
  -28.2640  -25.3150   20.9190 C   0  0  0  0  0  2  0  0  0  0  0  0
  -28.4280  -26.6450   20.2880 O   0  0  0  0  0  0  0  0  0  0  0  0
  -24.6130  -31.9860   23.2890 C   0  0  0  0  0  0  0  0  0  0  0  0
  -27.3040  -27.4750   20.2640 C   0  0  0  0  0  0  0  0  0  0  0  0
  -23.4340  -30.5590   21.6550 C   0  0  0  0  0  3  0  0  0  0  0  0
  -24.9120  -29.0290   20.2360 C   0  0  0  0  0  0  0  0  0  0  0  0
  -25.9630  -30.9310   21.4620 C   0  0  0  0  0  2  0  0  0  0  0  0
  -26.0700  -29.5500   20.8270 C   0  0  0  0  0  0  0  0  0  0  0  0
  -27.2730  -28.7850   20.8280 C   0  0  0  0  0  3  0  0  0  0  0  0
  -26.1280  -26.9970   19.6500 C   0  0  0  0  0  3  0  0  0  0  0  0
  -24.9430  -27.7580   19.6350 C   0  0  0  0  0  3  0  0  0  0  0  0
  -23.6590  -29.8780   20.2770 C   0  0  0  0  0  2  0  0  0  0  0  0
  -24.6890  -31.1760   22.1930 N   0  0  0  0  0  0  0  0  0  0  0  0
  -23.5260  -32.2460   23.8240 O   0  0  0  0  0  0  0  0  0  0  0  0
  -22.7910  -29.5360   22.6210 C   0  0  0  0  0  0  0  0  0  0  0  0
  -21.4720  -29.3190   22.4800 N   0  0  0  0  0  0  0  0  0  0  0  0
  -23.4780  -28.9400   23.4550 O   0  0  0  0  0  0  0  0  0  0  0  0
  -20.9770  -29.8530   21.7790 H   0  0  0  0  0  0  0  0  0  0  0  0
  -18.1260  -28.0270   22.9440 C   0  0  0  0  0  0  0  0  0  0  0  0
  -20.6700  -28.3690   23.2520 C   0  0  0  0  0  3  0  0  0  0  0  0
  -20.8250  -26.9320   22.6990 C   0  0  0  0  0  2  0  0  0  0  0  0
  -19.7490  -26.5610   21.6730 C   0  0  0  0  0  2  0  0  0  0  0  0
  -18.3530  -26.6750   22.2930 C   0  0  0  0  0  2  0  0  0  0  0  0
  -19.2140  -28.8300   23.3800 C   0  0  0  0  0  0  0  0  0  0  0  0
  -18.9470  -30.0940   23.9480 C   0  0  0  0  0  3  0  0  0  0  0  0
  -17.6250  -30.5570   24.0870 C   0  0  0  0  0  3  0  0  0  0  0  0
  -16.5510  -29.7530   23.6680 C   0  0  0  0  0  3  0  0  0  0  0  0
  -16.8020  -28.4910   23.1020 C   0  0  0  0  0  3  0  0  0  0  0  0
  -25.8860  -32.6430   23.9070 C   0  0  0  0  0  3  0  0  0  0  0  0
  -26.4040  -31.8990   25.1990 C   0  0  1  0  0  0  0  0  0  0  0  0
  -25.3030  -31.6530   26.2580 C   0  0  0  0  0  1  0  0  0  0  0  0
  -27.0180  -30.5290   24.8300 C   0  0  0  0  0  1  0  0  0  0  0  0
  -27.5310  -32.7240   25.8650 C   0  0  0  0  0  1  0  0  0  0  0  0
  -25.5600  -34.0430   24.2130 N   0  0  0  0  0  0  0  0  0  0  0  0
  -25.8860  -35.0880   23.4400 C   0  0  0  0  0  0  0  0  0  0  0  0
  -26.5640  -34.9750   22.4150 O   0  0  0  0  0  0  0  0  0  0  0  0
  -24.9600  -34.2040   25.0090 H   0  0  0  0  0  0  0  0  0  0  0  0
  -24.1440  -36.8590   23.0420 C   0  0  0  0  0  1  0  0  0  0  0  0
  -25.3810  -36.4790   23.8710 C   0  0  0  0  0  3  0  0  0  0  0  0
  -27.4960  -37.3990   24.7120 C   0  0  0  0  0  1  0  0  0  0  0  0
  -26.4040  -37.5390   23.7530 N   0  0  0  0  0  0  0  0  0  0  0  0
  -25.9870  -38.4580   23.8790 H   0  0  0  0  0  0  0  0  0  0  0  0
  1  6  1  0
  3  1  2  0
  3  4  1  0
  4  5  2  0
  5  2  1  0
  5 11  1  0
  6 53  1  0
  6  2  2  0
  7  3  1  0
  8  7  1  0
  8 10  1  0
  9  4  1  0
  9 20  1  0
 10 52  1  0
 10  9  1  0
 12 20  1  0
 13 18  1  0
 14 15  1  0
 14 13  1  0
 16 15  1  0
 16 25  1  0
 16 17  1  0
 18 12  1  0
 18 17  1  0
 19 12  2  0
 20 21  1  0
 22 23  2  0
 23 42  1  0
 24 23  1  0
 24 27  1  0
 25 22  1  0
 25 26  1  0
 26 24  2  0
 27 28  1  0
 28 29  2  0
 30 33  1  0
 30 29  1  0
 31 30  2  0
 32 31  1  0
 32 27  2  0
 33 34  1  0
 34 35  1  0
 35 36  2  0
 37 36  1  0
 37 41  1  0
 38 37  2  0
 39 34  2  0
 39 38  1  0
 40 39  1  0
 42 43  1  0
 43 46  1  0
 43 45  1  0
 44 42  2  0
 47 48  1  0
 47 22  1  0
 49 47  1  0
 51 52  1  0
 52 50  1  0
 54 55  1  0
 54 53  1  0
 56 55  1  0
 57 68  2  0
 58 56  1  0
 58 63  1  0
 59 67  1  0
 59 69  1  0
 60 66  1  0
 60 62  1  0
 61 67  1  0
 62 63  2  0
 62 61  1  0
 64 58  2  0
 65 64  1  0
 65 60  2  0
 66 59  1  0
 67 57  1  0
 69 71  2  0
 70 69  1  0
 72 70  1  0
 73 82  2  0
 73 78  1  0
 74 70  1  0
 74 78  1  0
 75 74  1  0
 76 77  1  0
 76 75  1  0
 77 73  1  0
 78 79  2  0
 79 80  1  0
 81 80  2  0
 82 81  1  0
 83 57  1  0
 83 88  1  0
 83 84  1  0
 84 87  1  1
 84 85  1  0
 86 84  1  0
 88 91  1  0
 89 93  1  0
 89 88  1  0
 90 89  2  0
 93 92  1  0
 95 93  1  0
 95 96  1  0
 95 94  1  0
M  ISO  4  12 100  20 100  55 101  56 101
M  END
>  <TORSDO>  (15) 
F 20

>  <SCORE>  (15) 
-13.405

>  <name>  (15) 
15

>  <ligand_id>  (15) 
15

>  <original_smiles>  (15) 
[H]c1c([H])c([H])c2c(c1[H])C([H])([H])C([H])([H])C([H])([H])C2([H])N([H])C(=O)C1([H])N(C(=O)C([H])(N([H])C(=O)C([H])(N([H])C([H])([H])[H])C([H])([H])[H])C(C([H])([H])[H])(C([H])([H])[H])C([H])([H])[H])C([H])([H])c2c([H])c(OC([H])([H])C([H])([H])Oc3c([H])c(C([H])([H])[H])c4c(c3[H])C([H])([H])C([H])([H])C([H])(C([H])(C([H])([H])[H])C([H])([H])[H])C4([H])N([H])C(=O)N3C([H])([H])C([H])([H])C([H])([H])C([H])(n4nc(-c5c([H])c([H])c(Oc6c([H])c([H])c(F)c([H])c6F)c([H])c5[H])c(C(=O)N([H])[H])c4N([H])[H])C3([H])[H])c([H])c([H])c2C1([H])[H]

>  <smiles>  (15) 
[H]c1c([H])c([H])c2c(c1[H])C([H])([H])C([H])([H])C([H])([H])C2([H])N([H])C(=O)C1([H])N(C(=O)C([H])(N([H])C(=O)C([H])(N([H])C([H])([H])[H])C([H])([H])[H])C(C([H])([H])[H])(C([H])([H])[H])C([H])([H])[H])C([H])([H])c2c([H])c(OC([H])([H])C([H])([H])Oc3c([H])c(C([H])([H])[H])c4c(c3[H])C([H])([H])C([H])([H])C([H])(C([H])(C([H])([H])[H])C([H])([H])[H])C4([H])N([H])C(=O)N3C([H])([H])C([H])([H])C([H])([H])C([H])(n4nc(-c5c([H])c([H])c(Oc6c([H])c([H])c(F)c([H])c6F)c([H])c5[H])c(C(=O)N([H])[H])c4N([H])[H])C3([H])[H])c([H])c([H])c2C1([H])[H]

$$$$
16:0:0
     RDKit          3D

 97106  0  0  1  0  0  0  0  0999 V2000
  -31.4050  -20.9070   19.8520 C   0  0  0  0  0  3  0  0  0  0  0  0
  -30.3350  -20.4190   20.6310 C   0  0  0  0  0  0  0  0  0  0  0  0
  -31.4580  -22.2820   19.5020 C   0  0  0  0  0  0  0  0  0  0  0  0
  -30.4250  -23.1180   19.9850 C   0  0  0  0  0  0  0  0  0  0  0  0
  -29.3860  -21.3520   21.1010 C   0  0  0  0  0  0  0  0  0  0  0  0
  -29.4260  -22.6600   20.7680 N   0  0  0  0  0  0  0  0  0  0  0  0
  -31.1230  -14.8950   20.1950 C   0  0  0  0  0  0  0  0  0  0  0  0
  -30.8000  -12.6850   19.1380 C   0  0  0  0  0  2  0  0  0  0  0  0
  -29.8580  -12.8090   17.9250 C   0  0  0  0  0  2  0  0  0  0  0  0
  -28.3850  -12.6720   18.3610 C   0  0  0  0  0  2  0  0  0  0  0  0
  -28.0360  -13.5810   19.5670 C   0  0  0  0  0  3  0  0  0  0  0  0
  -29.0950  -13.4580   20.6860 C   0  0  0  0  0  2  0  0  0  0  0  0
  -30.4210  -13.7290   20.1010 N   0  0  0  0  0  0  0  0  0  0  0  0
  -32.2710  -15.0190   19.7620 O   0  0  0  0  0  0  0  0  0  0  0  0
  -31.3140  -18.2040   21.5640 C   0  0  0  0  0  2  0  0  0  0  0  0
  -30.9700  -16.7210   21.8660 C   0  0  0  0  0  2  0  0  0  0  0  0
  -29.4770  -16.6790   19.8660 C   0  0  0  0  0  2  0  0  0  0  0  0
  -30.1460  -18.9100   20.8570 C   0  0  0  0  0  3  0  0  0  0  0  0
  -29.8490  -18.1420   19.5540 C   0  0  0  0  0  3  0  0  0  0  0  0
  -28.7560  -18.8090   18.6990 C   0  0  0  0  0  1  0  0  0  0  0  0
  -30.4610  -15.9650   20.7050 N   0  0  0  0  0  0  0  0  0  0  0  0
  -25.6760  -14.2590   20.3330 C   0  0  0  0  0  0  0  0  0  0  0  0
  -24.5850  -13.5130   20.6910 C   0  0  0  0  0  0  0  0  0  0  0  0
  -24.9980  -12.1480   20.6090 C   0  0  0  0  0  0  0  0  0  0  0  0
  -26.6850  -13.3450   20.0600 N   0  0  0  0  0  0  0  0  0  0  0  0
  -26.2820  -12.0710   20.2840 N   0  0  0  0  0  0  0  0  0  0  0  0
  -24.2320  -10.9070   20.7600 C   0  0  0  0  0  0  0  0  0  0  0  0
  -24.6440   -9.8910   21.6500 C   0  0  0  0  0  3  0  0  0  0  0  0
  -23.8800   -8.7130   21.7950 C   0  0  0  0  0  3  0  0  0  0  0  0
  -22.6910   -8.5440   21.0480 C   0  0  0  0  0  0  0  0  0  0  0  0
  -22.2980   -9.5490   20.1460 C   0  0  0  0  0  3  0  0  0  0  0  0
  -23.0620  -10.7180   19.9990 C   0  0  0  0  0  3  0  0  0  0  0  0
  -21.8990   -7.4230   21.1040 O   0  0  0  0  0  0  0  0  0  0  0  0
  -21.8530   -6.6290   22.2210 C   0  0  0  0  0  0  0  0  0  0  0  0
  -21.4660   -7.1380   23.4810 C   0  0  0  0  0  3  0  0  0  0  0  0
  -21.3630   -6.2730   24.5880 C   0  0  0  0  0  3  0  0  0  0  0  0
  -21.6390   -4.9000   24.4390 C   0  0  0  0  0  0  0  0  0  0  0  0
  -22.0180   -4.3910   23.1850 C   0  0  0  0  0  3  0  0  0  0  0  0
  -22.1220   -5.2520   22.0780 C   0  0  0  0  0  0  0  0  0  0  0  0
  -22.4680   -4.7530   20.8680 F   0  0  0  0  0  0  0  0  0  0  0  0
  -21.5310   -4.0680   25.5000 F   0  0  0  0  0  0  0  0  0  0  0  0
  -23.2090  -14.0310   20.9940 C   0  0  0  0  0  0  0  0  0  0  0  0
  -22.4660  -13.3360   21.8470 N   0  0  0  0  0  0  0  0  0  0  0  0
  -22.8020  -15.0850   20.5090 O   0  0  0  0  0  0  0  0  0  0  0  0
  -22.8080  -12.4810   22.2640 H   0  0  0  0  0  0  0  0  0  0  0  0
  -21.5430  -13.6640   22.0920 H   0  0  0  0  0  0  0  0  0  0  0  0
  -25.8810  -15.6280   20.1960 N   0  0  0  0  0  0  0  0  0  0  0  0
  -25.1310  -16.2960   20.3350 H   0  0  0  0  0  0  0  0  0  0  0  0
  -26.7320  -16.0550   19.8570 H   0  0  0  0  0  0  0  0  0  0  0  0
  -33.2530  -21.9450   17.9400 C   0  0  0  0  0  1  0  0  0  0  0  0
  -32.4260  -22.8300   18.6850 O   0  0  0  0  0  0  0  0  0  0  0  0
  -27.4340  -21.9090   22.3980 C   0  0  0  0  0  1  0  0  0  0  0  0
  -28.3500  -20.9330   21.9090 O   0  0  0  0  0  0  0  0  0  0  0  0
  -30.2750  -24.5610   19.5020 C   0  0  0  0  0  2  0  0  0  0  0  0
  -29.9020  -25.5870   20.5960 C   0  0  0  0  0  2  0  0  0  0  0  0
  -29.6750  -27.0160   20.0610 C   0  0  0  0  0  2  0  0  0  0  0  0
  -28.6580  -26.9830   19.0610 O   0  0  0  0  0  0  0  0  0  0  0  0
  -24.7490  -31.6060   22.8890 C   0  0  0  0  0  0  0  0  0  0  0  0
  -27.4850  -27.6690   19.2750 C   0  0  0  0  0  0  0  0  0  0  0  0
  -23.5390  -30.3060   21.1650 C   0  0  0  0  0  3  0  0  0  0  0  0
  -25.0070  -29.0010   19.5380 C   0  0  0  0  0  0  0  0  0  0  0  0
  -26.0270  -30.8350   20.8940 C   0  0  0  0  0  2  0  0  0  0  0  0
  -26.1570  -29.5360   20.1310 C   0  0  0  0  0  0  0  0  0  0  0  0
  -27.4010  -28.8770   20.0060 C   0  0  0  0  0  3  0  0  0  0  0  0
  -26.3220  -27.1480   18.6750 C   0  0  0  0  0  3  0  0  0  0  0  0
  -25.0820  -27.8000   18.8100 C   0  0  0  0  0  3  0  0  0  0  0  0
  -23.7210  -29.7760   19.7170 C   0  0  0  0  0  2  0  0  0  0  0  0
  -24.7910  -30.9260   21.7080 N   0  0  0  0  0  0  0  0  0  0  0  0
  -23.6840  -31.7590   23.5000 O   0  0  0  0  0  0  0  0  0  0  0  0
  -22.9940  -29.1600   22.0430 C   0  0  0  0  0  0  0  0  0  0  0  0
  -21.6690  -28.9430   21.9870 N   0  0  0  0  0  0  0  0  0  0  0  0
  -23.7530  -28.4730   22.7310 O   0  0  0  0  0  0  0  0  0  0  0  0
  -21.1140  -29.5540   21.4040 H   0  0  0  0  0  0  0  0  0  0  0  0
  -18.3730  -27.5960   22.5930 C   0  0  0  0  0  0  0  0  0  0  0  0
  -20.9380  -27.8950   22.6970 C   0  0  0  0  0  3  0  0  0  0  0  0
  -21.0250  -26.5470   21.9450 C   0  0  0  0  0  2  0  0  0  0  0  0
  -19.8520  -26.3160   20.9870 C   0  0  0  0  0  2  0  0  0  0  0  0
  -18.5230  -26.3420   21.7480 C   0  0  0  0  0  2  0  0  0  0  0  0
  -19.5070  -28.3330   23.0260 C   0  0  0  0  0  0  0  0  0  0  0  0
  -19.3120  -29.5100   23.7810 C   0  0  0  0  0  3  0  0  0  0  0  0
  -18.0150  -29.9500   24.1060 C   0  0  0  0  0  3  0  0  0  0  0  0
  -16.8960  -29.2080   23.6880 C   0  0  0  0  0  3  0  0  0  0  0  0
  -17.0770  -28.0320   22.9370 C   0  0  0  0  0  3  0  0  0  0  0  0
  -26.0290  -32.2440   23.5120 C   0  0  0  0  0  3  0  0  0  0  0  0
  -25.6630  -33.5800   24.0000 N   0  0  0  0  0  0  0  0  0  0  0  0
  -25.9340  -34.7240   23.3570 C   0  0  0  0  0  0  0  0  0  0  0  0
  -26.5890  -34.7660   22.3120 O   0  0  0  0  0  0  0  0  0  0  0  0
  -25.0750  -33.6170   24.8190 H   0  0  0  0  0  0  0  0  0  0  0  0
  -24.1180  -36.4590   23.2250 C   0  0  0  0  0  1  0  0  0  0  0  0
  -25.3910  -36.0290   23.9700 C   0  0  0  0  0  3  0  0  0  0  0  0
  -27.4970  -36.9230   24.8630 C   0  0  0  0  0  1  0  0  0  0  0  0
  -26.3710  -37.1370   23.9570 N   0  0  0  0  0  0  0  0  0  0  0  0
  -25.9250  -38.0150   24.2100 H   0  0  0  0  0  0  0  0  0  0  0  0
  -26.6550  -31.3770   24.6740 C   0  0  1  0  0  0  0  0  0  0  0  0
  -25.6380  -30.9720   25.7660 C   0  0  0  0  0  1  0  0  0  0  0  0
  -27.2820  -30.0810   24.1080 C   0  0  0  0  0  1  0  0  0  0  0  0
  -27.7990  -32.1620   25.3560 C   0  0  0  0  0  1  0  0  0  0  0  0
  1  2  2  0
  2  5  1  0
  3  1  1  0
  3  4  2  0
  4  6  1  0
  5 53  1  0
  6  5  2  0
  7 21  1  0
  8 13  1  0
  9 10  1  0
  9  8  1  0
 11 10  1  0
 11 25  1  0
 11 12  1  0
 13  7  1  0
 13 12  1  0
 14  7  2  0
 15 16  1  0
 17 21  1  0
 18  2  1  0
 18 15  1  0
 19 20  1  0
 19 17  1  0
 19 18  1  0
 21 16  1  0
 22 23  2  0
 23 42  1  0
 24 23  1  0
 24 27  1  0
 25 26  1  0
 25 22  1  0
 26 24  2  0
 27 28  1  0
 28 29  2  0
 30 33  1  0
 30 29  1  0
 31 30  2  0
 32 31  1  0
 32 27  2  0
 33 34  1  0
 34 35  1  0
 35 36  2  0
 37 36  1  0
 37 41  1  0
 38 37  2  0
 39 34  2  0
 39 38  1  0
 40 39  1  0
 42 43  1  0
 43 46  1  0
 43 45  1  0
 44 42  2  0
 47 22  1  0
 47 48  1  0
 49 47  1  0
 50 51  1  0
 51  3  1  0
 53 52  1  0
 54  4  1  0
 54 55  1  0
 56 55  1  0
 57 59  1  0
 57 56  1  0
 58 69  2  0
 59 64  1  0
 60 68  1  0
 60 70  1  0
 61 67  1  0
 61 63  1  0
 62 68  1  0
 63 62  1  0
 64 63  2  0
 65 66  1  0
 65 59  2  0
 66 61  2  0
 67 60  1  0
 68 58  1  0
 70 72  2  0
 71 70  1  0
 73 71  1  0
 74 83  2  0
 74 79  1  0
 75 71  1  0
 75 79  1  0
 76 75  1  0
 77 78  1  0
 77 76  1  0
 78 74  1  0
 79 80  2  0
 80 81  1  0
 82 81  2  0
 83 82  1  0
 84 58  1  0
 84 85  1  0
 84 94  1  0
 85 88  1  0
 86 90  1  0
 86 85  1  0
 87 86  2  0
 90 89  1  0
 92 90  1  0
 92 93  1  0
 92 91  1  0
 94 97  1  1
 94 95  1  0
 96 94  1  0
M  ISO  4   7 100  21 100  56 101  57 101
M  END
>  <TORSDO>  (16) 
F 21

>  <SCORE>  (16) 
-10.252

>  <name>  (16) 
16

>  <ligand_id>  (16) 
16

>  <original_smiles>  (16) 
[H]c1c([H])c([H])c2c(c1[H])C([H])([H])C([H])([H])C([H])([H])C2([H])N([H])C(=O)C1([H])N(C(=O)C([H])(N([H])C(=O)C([H])(N([H])C([H])([H])[H])C([H])([H])[H])C(C([H])([H])[H])(C([H])([H])[H])C([H])([H])[H])C([H])([H])c2c([H])c(OC([H])([H])C([H])([H])C([H])([H])c3nc(OC([H])([H])[H])c(C4([H])C([H])([H])C([H])([H])N(C(=O)N5C([H])([H])C([H])([H])C([H])([H])C([H])(n6nc(-c7c([H])c([H])c(Oc8c([H])c([H])c(F)c([H])c8F)c([H])c7[H])c(C(=O)N([H])[H])c6N([H])[H])C5([H])[H])C([H])([H])C4([H])C([H])([H])[H])c([H])c3OC([H])([H])[H])c([H])c([H])c2C1([H])[H]

>  <smiles>  (16) 
[H]c1c([H])c([H])c2c(c1[H])C([H])([H])C([H])([H])C([H])([H])C2([H])N([H])C(=O)C1([H])N(C(=O)C([H])(N([H])C(=O)C([H])(N([H])C([H])([H])[H])C([H])([H])[H])C(C([H])([H])[H])(C([H])([H])[H])C([H])([H])[H])C([H])([H])c2c([H])c(OC([H])([H])C([H])([H])C([H])([H])c3nc(OC([H])([H])[H])c(C4([H])C([H])([H])C([H])([H])N(C(=O)N5C([H])([H])C([H])([H])C([H])([H])C([H])(n6nc(-c7c([H])c([H])c(Oc8c([H])c([H])c(F)c([H])c8F)c([H])c7[H])c(C(=O)N([H])[H])c6N([H])[H])C5([H])[H])C([H])([H])C4([H])C([H])([H])[H])c([H])c3OC([H])([H])[H])c([H])c([H])c2C1([H])[H]

$$$$
17:0:0
     RDKit          3D

102111  0  0  1  0  0  0  0  0999 V2000
  -29.8370  -19.5120   21.6330 C   0  0  0  0  0  3  0  0  0  0  0  0
  -32.1550  -18.5280   22.8720 C   0  0  0  0  0  3  0  0  0  0  0  0
  -30.8160  -20.4200   22.0980 C   0  0  0  0  0  0  0  0  0  0  0  0
  -31.9650  -19.9220   22.7660 C   0  0  0  0  0  0  0  0  0  0  0  0
  -30.0260  -18.1220   21.7430 C   0  0  0  0  0  0  0  0  0  0  0  0
  -31.2130  -17.6340   22.3260 C   0  0  0  0  0  0  0  0  0  0  0  0
  -33.0290  -20.8420   23.3430 C   0  0  0  0  0  1  0  0  0  0  0  0
  -31.0440  -22.1280   20.2810 C   0  0  0  0  0  2  0  0  0  0  0  0
  -29.2220  -22.4260   21.9940 C   0  0  0  0  0  2  0  0  0  0  0  0
  -30.8460  -23.5860   19.8500 C   0  0  0  0  0  2  0  0  0  0  0  0
  -29.1010  -23.8920   21.5470 C   0  0  0  0  0  2  0  0  0  0  0  0
  -30.6480  -21.8960   21.7510 C   0  0  0  0  0  3  0  0  0  0  0  0
  -29.4630  -24.0650   20.1080 N   0  0  1  0  0  4  0  0  0  0  0  0
  -28.8470  -23.4560   19.5860 H   0  0  0  0  0  0  0  0  0  0  0  0
  -29.2660  -25.4250   19.5170 C   0  0  0  0  0  2  0  0  0  0  0  0
  -28.0430  -26.8670   21.2180 C   0  0  0  0  0  1  0  0  0  0  0  0
  -27.9380  -26.1420   19.8500 C   0  0  0  0  0  3  0  0  0  0  0  0
  -27.6560  -27.0640   18.7830 O   0  0  0  0  0  0  0  0  0  0  0  0
  -24.4550  -31.7170   23.0130 C   0  0  0  0  0  0  0  0  0  0  0  0
  -26.5170  -27.8020   18.9850 C   0  0  0  0  0  0  0  0  0  0  0  0
  -22.9850  -30.5700   21.3840 C   0  0  0  0  0  3  0  0  0  0  0  0
  -24.1730  -29.2540   19.5510 C   0  0  0  0  0  0  0  0  0  0  0  0
  -25.4510  -30.9690   20.8580 C   0  0  0  0  0  2  0  0  0  0  0  0
  -25.4080  -29.7090   20.0240 C   0  0  0  0  0  0  0  0  0  0  0  0
  -26.5840  -29.0010   19.7230 C   0  0  0  0  0  3  0  0  0  0  0  0
  -25.2730  -27.3500   18.5000 C   0  0  0  0  0  3  0  0  0  0  0  0
  -24.0980  -28.0770   18.7800 C   0  0  0  0  0  3  0  0  0  0  0  0
  -22.9660  -30.0890   19.9070 C   0  0  0  0  0  2  0  0  0  0  0  0
  -24.3240  -31.0900   21.8100 N   0  0  0  0  0  0  0  0  0  0  0  0
  -23.4740  -31.9100   23.7430 O   0  0  0  0  0  0  0  0  0  0  0  0
  -22.4570  -29.4250   22.2780 C   0  0  0  0  0  0  0  0  0  0  0  0
  -21.1340  -29.1990   22.2380 N   0  0  0  0  0  0  0  0  0  0  0  0
  -23.2320  -28.7460   22.9590 O   0  0  0  0  0  0  0  0  0  0  0  0
  -20.5650  -29.8070   21.6660 H   0  0  0  0  0  0  0  0  0  0  0  0
  -17.8770  -27.7280   22.7600 C   0  0  0  0  0  0  0  0  0  0  0  0
  -20.4210  -28.1480   22.9630 C   0  0  0  0  0  3  0  0  0  0  0  0
  -20.5970  -26.7750   22.2730 C   0  0  0  0  0  2  0  0  0  0  0  0
  -19.4800  -26.4520   21.2770 C   0  0  0  0  0  2  0  0  0  0  0  0
  -18.1190  -26.4500   21.9770 C   0  0  0  0  0  2  0  0  0  0  0  0
  -18.9570  -28.5330   23.2100 C   0  0  0  0  0  0  0  0  0  0  0  0
  -18.6730  -29.7330   23.9000 C   0  0  0  0  0  3  0  0  0  0  0  0
  -17.3430  -30.1260   24.1460 C   0  0  0  0  0  3  0  0  0  0  0  0
  -16.2800  -29.3160   23.7130 C   0  0  0  0  0  3  0  0  0  0  0  0
  -16.5470  -28.1190   23.0250 C   0  0  0  0  0  3  0  0  0  0  0  0
  -25.8350  -32.2440   23.5180 C   0  0  0  0  0  3  0  0  0  0  0  0
  -25.6290  -33.6030   24.0380 N   0  0  0  0  0  0  0  0  0  0  0  0
  -25.9450  -34.7250   23.3770 C   0  0  0  0  0  0  0  0  0  0  0  0
  -26.5140  -34.7210   22.2830 O   0  0  0  0  0  0  0  0  0  0  0  0
  -25.1100  -33.6840   24.9010 H   0  0  0  0  0  0  0  0  0  0  0  0
  -24.2860  -36.6120   23.3890 C   0  0  0  0  0  1  0  0  0  0  0  0
  -25.5690  -36.0680   24.0350 C   0  0  0  0  0  3  0  0  0  0  0  0
  -27.8070  -36.7540   24.7700 C   0  0  0  0  0  1  0  0  0  0  0  0
  -26.6420  -37.0820   23.9530 N   0  0  0  0  0  0  0  0  0  0  0  0
  -26.3010  -37.9960   24.2370 H   0  0  0  0  0  0  0  0  0  0  0  0
  -26.4910  -31.3170   24.6130 C   0  0  1  0  0  0  0  0  0  0  0  0
  -25.5440  -30.9820   25.7900 C   0  0  0  0  0  1  0  0  0  0  0  0
  -26.9580  -29.9840   23.9840 C   0  0  0  0  0  1  0  0  0  0  0  0
  -27.7570  -31.9970   25.1840 C   0  0  0  0  0  1  0  0  0  0  0  0
  -28.2060  -17.5640   20.1690 C   0  0  0  0  0  1  0  0  0  0  0  0
  -29.1080  -17.1890   21.2500 N   0  0  0  0  0  0  0  0  0  0  0  0
  -29.4690  -16.2350   21.2660 H   0  0  0  0  0  0  0  0  0  0  0  0
  -31.4840  -16.2940   22.2760 O   0  0  0  0  0  0  0  0  0  0  0  0
  -32.2560  -15.9620   21.1260 C   0  0  0  0  0  2  0  0  0  0  0  0
  -32.0910  -14.4800   20.7870 C   0  0  0  0  0  2  0  0  0  0  0  0
  -30.3370  -14.0370   19.0620 C   0  0  0  0  0  0  0  0  0  0  0  0
  -29.6560  -12.0150   17.8630 C   0  0  0  0  0  2  0  0  0  0  0  0
  -28.4290  -12.0740   16.9500 C   0  0  0  0  0  2  0  0  0  0  0  0
  -27.1450  -11.8410   17.7600 C   0  0  0  0  0  2  0  0  0  0  0  0
  -27.0530  -12.7710   18.9940 C   0  0  0  0  0  3  0  0  0  0  0  0
  -28.3490  -12.7260   19.8300 C   0  0  0  0  0  2  0  0  0  0  0  0
  -29.5000  -12.9900   18.9470 N   0  0  0  0  0  0  0  0  0  0  0  0
  -30.9360  -14.5650   18.1210 O   0  0  0  0  0  0  0  0  0  0  0  0
  -30.7410  -14.1510   20.3360 N   0  0  0  0  0  0  0  0  0  0  0  0
  -30.1980  -13.6100   20.9940 H   0  0  0  0  0  0  0  0  0  0  0  0
  -24.9490  -13.3140   20.3760 C   0  0  0  0  0  0  0  0  0  0  0  0
  -24.0060  -12.5110   20.9610 C   0  0  0  0  0  0  0  0  0  0  0  0
  -24.4150  -11.1680   20.7000 C   0  0  0  0  0  0  0  0  0  0  0  0
  -25.8760  -12.4580   19.8050 N   0  0  0  0  0  0  0  0  0  0  0  0
  -25.5710  -11.1570   20.0500 N   0  0  0  0  0  0  0  0  0  0  0  0
  -23.7430   -9.8930   20.9800 C   0  0  0  0  0  0  0  0  0  0  0  0
  -24.3140   -8.9340   21.8460 C   0  0  0  0  0  3  0  0  0  0  0  0
  -23.6420   -7.7240   22.1180 C   0  0  0  0  0  3  0  0  0  0  0  0
  -22.3840   -7.4630   21.5240 C   0  0  0  0  0  0  0  0  0  0  0  0
  -21.8320   -8.4090   20.6440 C   0  0  0  0  0  3  0  0  0  0  0  0
  -22.5030   -9.6120   20.3710 C   0  0  0  0  0  3  0  0  0  0  0  0
  -21.6710   -6.3030   21.7080 O   0  0  0  0  0  0  0  0  0  0  0  0
  -21.6590   -5.6480   22.9130 C   0  0  0  0  0  0  0  0  0  0  0  0
  -21.2070   -6.2740   24.0960 C   0  0  0  0  0  3  0  0  0  0  0  0
  -21.1460   -5.5420   25.2990 C   0  0  0  0  0  3  0  0  0  0  0  0
  -21.5240   -4.1860   25.3190 C   0  0  0  0  0  0  0  0  0  0  0  0
  -21.9670   -3.5600   24.1410 C   0  0  0  0  0  3  0  0  0  0  0  0
  -22.0300   -4.2890   22.9400 C   0  0  0  0  0  0  0  0  0  0  0  0
  -22.4380   -3.6750   21.8030 F   0  0  0  0  0  0  0  0  0  0  0  0
  -21.4560   -3.4810   26.4720 F   0  0  0  0  0  0  0  0  0  0  0  0
  -22.7470  -12.9620   21.6430 C   0  0  0  0  0  0  0  0  0  0  0  0
  -22.2770  -12.2000   22.6260 N   0  0  0  0  0  0  0  0  0  0  0  0
  -22.1990  -14.0210   21.3400 O   0  0  0  0  0  0  0  0  0  0  0  0
  -22.7400  -11.3410   22.8850 H   0  0  0  0  0  0  0  0  0  0  0  0
  -21.4430  -12.4810   23.1220 H   0  0  0  0  0  0  0  0  0  0  0  0
  -25.0870  -14.6940   20.2650 N   0  0  0  0  0  0  0  0  0  0  0  0
  -24.3980  -15.3420   20.6310 H   0  0  0  0  0  0  0  0  0  0  0  0
  -25.8400  -15.1530   19.7690 H   0  0  0  0  0  0  0  0  0  0  0  0
  1  5  2  0
  1  3  1  0
  3  4  2  0
  4  2  1  0
  4  7  1  0
  5  6  1  0
  6  2  2  0
  8 12  1  0
 10 13  1  0
 10  8  1  0
 11  9  1  0
 12  9  1  0
 12  3  1  0
 13 11  1  0
 13 14  1  6
 15 17  1  0
 15 13  1  0
 17 16  1  0
 18 20  1  0
 18 17  1  0
 19 30  2  0
 20 25  1  0
 21 29  1  0
 21 31  1  0
 22 28  1  0
 22 24  1  0
 23 29  1  0
 24 23  1  0
 25 24  2  0
 26 27  1  0
 26 20  2  0
 27 22  2  0
 28 21  1  0
 29 19  1  0
 31 33  2  0
 32 31  1  0
 34 32  1  0
 35 44  2  0
 35 40  1  0
 36 32  1  0
 36 40  1  0
 37 36  1  0
 38 39  1  0
 38 37  1  0
 39 35  1  0
 40 41  2  0
 41 42  1  0
 43 42  2  0
 44 43  1  0
 45 19  1  0
 45 46  1  0
 45 55  1  0
 46 49  1  0
 47 51  1  0
 47 46  1  0
 48 47  2  0
 51 50  1  0
 53 51  1  0
 53 54  1  0
 53 52  1  0
 55 58  1  1
 55 56  1  0
 57 55  1  0
 59 60  1  0
 60 61  1  0
 60  5  1  0
 62  6  1  0
 63 62  1  0
 64 63  1  0
 65 73  1  0
 66 71  1  0
 67 68  1  0
 67 66  1  0
 69 68  1  0
 69 78  1  0
 69 70  1  0
 71 65  1  0
 71 70  1  0
 72 65  2  0
 73 64  1  0
 73 74  1  0
 75 76  2  0
 76 95  1  0
 77 76  1  0
 77 80  1  0
 78 79  1  0
 78 75  1  0
 79 77  2  0
 80 81  1  0
 81 82  2  0
 83 86  1  0
 83 82  1  0
 84 83  2  0
 85 84  1  0
 85 80  2  0
 86 87  1  0
 87 92  2  0
 87 88  1  0
 88 89  2  0
 89 90  1  0
 90 94  1  0
 91 90  2  0
 92 91  1  0
 93 92  1  0
 95 96  1  0
 96 98  1  0
 96 99  1  0
 97 95  2  0
100 75  1  0
100101  1  0
102100  1  0
M  ISO  4  17 101  18 101  65 100  73 100
M  END
>  <TORSDO>  (17) 
F 23

>  <SCORE>  (17) 
-7.217

>  <name>  (17) 
17

>  <ligand_id>  (17) 
17

>  <original_smiles>  (17) 
[H]c1c([H])c([H])c2c(c1[H])C([H])([H])C([H])([H])C([H])([H])C2([H])N([H])C(=O)C1([H])N(C(=O)C([H])(N([H])C(=O)C([H])(N([H])C([H])([H])[H])C([H])([H])[H])C(C([H])([H])[H])(C([H])([H])[H])C([H])([H])[H])C([H])([H])c2c([H])c(OC([H])(C([H])([H])[H])C([H])([H])[N+]3([H])C([H])([H])C([H])([H])C([H])(c4c([H])c(N([H])C([H])([H])[H])c(OC([H])([H])C([H])([H])N([H])C(=O)N5C([H])([H])C([H])([H])C([H])([H])C([H])(n6nc(-c7c([H])c([H])c(Oc8c([H])c([H])c(F)c([H])c8F)c([H])c7[H])c(C(=O)N([H])[H])c6N([H])[H])C5([H])[H])c([H])c4C([H])([H])[H])C([H])([H])C3([H])[H])c([H])c([H])c2C1([H])[H]

>  <smiles>  (17) 
[H]c1c([H])c([H])c2c(c1[H])C([H])([H])C([H])([H])C([H])([H])C2([H])N([H])C(=O)C1([H])N(C(=O)C([H])(N([H])C(=O)C([H])(N([H])C([H])([H])[H])C([H])([H])[H])C(C([H])([H])[H])(C([H])([H])[H])C([H])([H])[H])C([H])([H])c2c([H])c(OC([H])(C([H])([H])[H])C([H])([H])[N+]3([H])C([H])([H])C([H])([H])C([H])(c4c([H])c(N([H])C([H])([H])[H])c(OC([H])([H])C([H])([H])N([H])C(=O)N5C([H])([H])C([H])([H])C([H])([H])C([H])(n6nc(-c7c([H])c([H])c(Oc8c([H])c([H])c(F)c([H])c8F)c([H])c7[H])c(C(=O)N([H])[H])c6N([H])[H])C5([H])[H])c([H])c4C([H])([H])[H])C([H])([H])C3([H])[H])c([H])c([H])c2C1([H])[H]

$$$$
18:0:0
     RDKit          3D

 98107  0  0  1  0  0  0  0  0999 V2000
  -33.4530  -18.9170   19.0590 C   0  0  0  0  0  1  0  0  0  0  0  0
  -33.0340  -18.8130   17.5830 C   0  0  0  0  0  3  0  0  0  0  0  0
  -31.6700  -20.1050   15.7630 C   0  0  0  0  0  3  0  0  0  0  0  0
  -31.6850  -20.8770   18.0770 C   0  0  0  0  0  3  0  0  0  0  0  0
  -32.1280  -19.9580   17.1010 C   0  0  0  0  0  0  0  0  0  0  0  0
  -30.7750  -21.1530   15.4290 C   0  0  0  0  0  0  0  0  0  0  0  0
  -30.8210  -21.9500   17.7560 C   0  0  0  0  0  0  0  0  0  0  0  0
  -30.3660  -22.0820   16.4170 C   0  0  0  0  0  0  0  0  0  0  0  0
  -30.2470  -20.6190   13.0320 C   0  0  0  0  0  0  0  0  0  0  0  0
  -30.6480  -20.6900   10.5880 C   0  0  0  0  0  2  0  0  0  0  0  0
  -32.0930  -20.2550   10.2760 C   0  0  0  0  0  2  0  0  0  0  0  0
  -33.0740  -21.4410   10.3880 C   0  0  0  0  0  2  0  0  0  0  0  0
  -32.8910  -22.2310   11.7070 C   0  0  0  0  0  3  0  0  0  0  0  0
  -31.4030  -22.5690   11.9330 C   0  0  0  0  0  2  0  0  0  0  0  0
  -30.6260  -21.3100   11.9210 N   0  0  0  0  0  0  0  0  0  0  0  0
  -29.8490  -19.4500   13.0050 O   0  0  0  0  0  0  0  0  0  0  0  0
  -30.2090  -21.3760   14.1390 N   0  0  0  0  0  0  0  0  0  0  0  0
  -30.2060  -22.3620   13.9180 H   0  0  0  0  0  0  0  0  0  0  0  0
  -34.7000  -23.8060   12.6580 C   0  0  0  0  0  0  0  0  0  0  0  0
  -35.2180  -24.9870   12.1980 C   0  0  0  0  0  0  0  0  0  0  0  0
  -34.5170  -25.2800   10.9870 C   0  0  0  0  0  0  0  0  0  0  0  0
  -33.7270  -23.4310   11.7410 N   0  0  0  0  0  0  0  0  0  0  0  0
  -33.5870  -24.3590   10.7580 N   0  0  0  0  0  0  0  0  0  0  0  0
  -34.7150  -26.3550   10.0040 C   0  0  0  0  0  0  0  0  0  0  0  0
  -33.9700  -27.5530   10.0640 C   0  0  0  0  0  3  0  0  0  0  0  0
  -34.1880  -28.5780    9.1180 C   0  0  0  0  0  3  0  0  0  0  0  0
  -35.1590  -28.4140    8.1020 C   0  0  0  0  0  0  0  0  0  0  0  0
  -35.8830  -27.2100    8.0370 C   0  0  0  0  0  3  0  0  0  0  0  0
  -35.6620  -26.1890    8.9750 C   0  0  0  0  0  3  0  0  0  0  0  0
  -35.4230  -29.3450    7.1260 O   0  0  0  0  0  0  0  0  0  0  0  0
  -35.8070  -30.6240    7.4370 C   0  0  0  0  0  0  0  0  0  0  0  0
  -36.9950  -30.8940    8.1520 C   0  0  0  0  0  3  0  0  0  0  0  0
  -37.3860  -32.2280    8.3850 C   0  0  0  0  0  3  0  0  0  0  0  0
  -36.6010  -33.2910    7.9020 C   0  0  0  0  0  0  0  0  0  0  0  0
  -35.4230  -33.0240    7.1830 C   0  0  0  0  0  3  0  0  0  0  0  0
  -35.0290  -31.6950    6.9520 C   0  0  0  0  0  0  0  0  0  0  0  0
  -33.9040  -31.4420    6.2390 F   0  0  0  0  0  0  0  0  0  0  0  0
  -36.9810  -34.5730    8.1210 F   0  0  0  0  0  0  0  0  0  0  0  0
  -36.3650  -25.7540   12.7940 C   0  0  0  0  0  0  0  0  0  0  0  0
  -36.2040  -27.0600   12.9750 N   0  0  0  0  0  0  0  0  0  0  0  0
  -37.3990  -25.1900   13.1540 O   0  0  0  0  0  0  0  0  0  0  0  0
  -35.3540  -27.5310   12.7030 H   0  0  0  0  0  0  0  0  0  0  0  0
  -36.9420  -27.5980   13.4060 H   0  0  0  0  0  0  0  0  0  0  0  0
  -34.9920  -23.0140   13.7610 N   0  0  0  0  0  0  0  0  0  0  0  0
  -35.7550  -23.2380   14.3910 H   0  0  0  0  0  0  0  0  0  0  0  0
  -34.5630  -22.1180   13.9610 H   0  0  0  0  0  0  0  0  0  0  0  0
  -30.6150  -22.5300   20.0900 C   0  0  0  0  0  1  0  0  0  0  0  0
  -30.3790  -22.8340   18.7190 O   0  0  0  0  0  0  0  0  0  0  0  0
  -30.0260  -24.3700   15.7340 C   0  0  0  0  0  1  0  0  0  0  0  0
  -29.5010  -23.0740   15.9890 O   0  0  0  0  0  0  0  0  0  0  0  0
  -32.4480  -17.4080   17.2480 C   0  0  0  0  0  2  0  0  0  0  0  0
  -32.7950  -15.0120   16.3580 C   0  0  0  0  0  2  0  0  0  0  0  0
  -33.8180  -16.9770   15.1330 C   0  0  0  0  0  2  0  0  0  0  0  0
  -33.6850  -14.0590   15.5280 C   0  0  0  0  0  2  0  0  0  0  0  0
  -34.6640  -15.9990   14.2890 C   0  0  0  0  0  2  0  0  0  0  0  0
  -33.4100  -16.4200   16.5190 C   0  0  0  0  0  3  0  0  0  0  0  0
  -33.9700  -14.6310   14.1270 C   0  0  0  0  0  3  0  0  0  0  0  0
  -34.8030  -13.7080   13.4030 O   0  0  0  0  0  0  0  0  0  0  0  0
  -38.9660  -13.9050    7.6300 C   0  0  0  0  0  0  0  0  0  0  0  0
  -34.8390  -13.7290   12.0180 C   0  0  0  0  0  0  0  0  0  0  0  0
  -36.5470  -14.2150    7.2160 C   0  0  0  0  0  3  0  0  0  0  0  0
  -35.0130  -13.7100    9.1880 C   0  0  0  0  0  0  0  0  0  0  0  0
  -37.3590  -12.8570    9.2260 C   0  0  0  0  0  2  0  0  0  0  0  0
  -36.1060  -13.2980    9.9570 C   0  0  0  0  0  0  0  0  0  0  0  0
  -36.0210  -13.3010   11.3680 C   0  0  0  0  0  3  0  0  0  0  0  0
  -33.7480  -14.1490   11.2190 C   0  0  0  0  0  3  0  0  0  0  0  0
  -33.8310  -14.1360    9.8140 C   0  0  0  0  0  3  0  0  0  0  0  0
  -35.1720  -13.6700    7.6840 C   0  0  0  0  0  2  0  0  0  0  0  0
  -37.6840  -13.6800    8.0340 N   0  0  0  0  0  0  0  0  0  0  0  0
  -39.2090  -14.5060    6.5760 O   0  0  0  0  0  0  0  0  0  0  0  0
  -36.4860  -15.7590    7.1890 C   0  0  0  0  0  0  0  0  0  0  0  0
  -36.0700  -16.3200    6.0420 N   0  0  0  0  0  0  0  0  0  0  0  0
  -36.7800  -16.4210    8.1870 O   0  0  0  0  0  0  0  0  0  0  0  0
  -35.8550  -15.7090    5.2670 H   0  0  0  0  0  0  0  0  0  0  0  0
  -35.8440  -18.8260    3.4460 C   0  0  0  0  0  0  0  0  0  0  0  0
  -35.8950  -17.7520    5.7970 C   0  0  0  0  0  3  0  0  0  0  0  0
  -34.4060  -18.1570    5.9000 C   0  0  0  0  0  2  0  0  0  0  0  0
  -33.6770  -18.1320    4.5530 C   0  0  0  0  0  2  0  0  0  0  0  0
  -34.3510  -19.0830    3.5610 C   0  0  0  0  0  2  0  0  0  0  0  0
  -36.5650  -18.1870    4.4900 C   0  0  0  0  0  0  0  0  0  0  0  0
  -37.9440  -17.9400    4.3180 C   0  0  0  0  0  3  0  0  0  0  0  0
  -38.6020  -18.3200    3.1320 C   0  0  0  0  0  3  0  0  0  0  0  0
  -37.8870  -18.9660    2.1090 C   0  0  0  0  0  3  0  0  0  0  0  0
  -36.5140  -19.2230    2.2700 C   0  0  0  0  0  3  0  0  0  0  0  0
  -40.1870  -13.3970    8.4610 C   0  0  0  0  0  3  0  0  0  0  0  0
  -41.0820  -12.6810    7.5420 N   0  0  0  0  0  0  0  0  0  0  0  0
  -41.0390  -11.3610    7.3140 C   0  0  0  0  0  0  0  0  0  0  0  0
  -40.2790  -10.6000    7.9190 O   0  0  0  0  0  0  0  0  0  0  0  0
  -41.6940  -13.2470    6.9740 H   0  0  0  0  0  0  0  0  0  0  0  0
  -41.1780  -10.3320    5.0260 C   0  0  0  0  0  1  0  0  0  0  0  0
  -41.9920  -10.7970    6.2430 C   0  0  0  0  0  3  0  0  0  0  0  0
  -43.8140  -10.1020    7.7340 C   0  0  0  0  0  1  0  0  0  0  0  0
  -42.8350   -9.6860    6.7340 N   0  0  0  0  0  0  0  0  0  0  0  0
  -43.3340   -9.2440    5.9650 H   0  0  0  0  0  0  0  0  0  0  0  0
  -40.9600  -14.5550    9.2060 C   0  0  1  0  0  0  0  0  0  0  0  0
  -41.8950  -15.3700    8.2820 C   0  0  0  0  0  1  0  0  0  0  0  0
  -39.9630  -15.5390    9.8590 C   0  0  0  0  0  1  0  0  0  0  0  0
  -41.8140  -13.9620   10.3520 C   0  0  0  0  0  1  0  0  0  0  0  0
  2  1  1  0
  3  5  1  0
  5  2  1  0
  5  4  2  0
  6  3  2  0
  6  8  1  0
  7  4  1  0
  7 48  1  0
  8  7  2  0
  9 17  1  0
 10 15  1  0
 11 12  1  0
 11 10  1  0
 13 12  1  0
 13 22  1  0
 13 14  1  0
 15 14  1  0
 15  9  1  0
 16  9  2  0
 17  6  1  0
 18 17  1  0
 19 44  1  0
 20 19  2  0
 20 39  1  0
 21 20  1  0
 22 19  1  0
 23 21  2  0
 23 22  1  0
 24 25  1  0
 24 21  1  0
 26 25  2  0
 27 26  1  0
 28 27  2  0
 28 29  1  0
 29 24  2  0
 30 31  1  0
 30 27  1  0
 31 32  1  0
 32 33  2  0
 34 38  1  0
 34 33  1  0
 35 34  2  0
 36 35  1  0
 36 31  2  0
 37 36  1  0
 39 40  1  0
 39 41  2  0
 40 43  1  0
 42 40  1  0
 44 46  1  0
 44 45  1  0
 48 47  1  0
 49 50  1  0
 50  8  1  0
 51  2  1  0
 52 56  1  0
 53 56  1  0
 54 52  1  0
 55 53  1  0
 56 51  1  0
 57 58  1  0
 57 55  1  0
 57 54  1  0
 59 69  1  0
 60 58  1  0
 61 71  1  0
 61 68  1  0
 61 69  1  0
 62 67  2  0
 62 64  1  0
 63 64  1  0
 64 65  2  0
 65 60  1  0
 66 60  2  0
 67 66  1  0
 68 62  1  0
 69 63  1  0
 70 59  2  0
 71 73  2  0
 72 71  1  0
 74 72  1  0
 75 79  1  0
 75 80  1  0
 76 77  1  0
 76 72  1  0
 78 77  1  0
 79 78  1  0
 80 76  1  0
 81 80  2  0
 82 81  1  0
 83 84  1  0
 83 82  2  0
 84 75  2  0
 85 59  1  0
 85 95  1  0
 86 85  1  0
 87 86  1  0
 87 88  2  0
 89 86  1  0
 91 90  1  0
 91 93  1  0
 91 87  1  0
 93 92  1  0
 94 93  1  0
 95 97  1  1
 95 98  1  0
 96 95  1  0
M  ISO  4   9 100  17 100  57 101  58 101
M  END
>  <TORSDO>  (18) 
F 21

>  <SCORE>  (18) 
-1.726

>  <name>  (18) 
18

>  <ligand_id>  (18) 
18

>  <original_smiles>  (18) 
[H]c1c([H])c([H])c2c(c1[H])C([H])([H])C([H])([H])C([H])([H])C2([H])N([H])C(=O)C1([H])N(C(=O)C([H])(N([H])C(=O)C([H])(N([H])C([H])([H])[H])C([H])([H])[H])C(C([H])([H])[H])(C([H])([H])[H])C([H])([H])[H])C([H])([H])c2c([H])c(OC3([H])C([H])([H])C([H])([H])C([H])(C([H])([H])C([H])(c4c([H])c(OC([H])([H])[H])c(OC([H])([H])[H])c(N([H])C(=O)N5C([H])([H])C([H])([H])C([H])([H])C([H])(n6nc(-c7c([H])c([H])c(Oc8c([H])c([H])c(F)c([H])c8F)c([H])c7[H])c(C(=O)N([H])[H])c6N([H])[H])C5([H])[H])c4[H])C([H])([H])[H])C([H])([H])C3([H])[H])c([H])c([H])c2C1([H])[H]

>  <smiles>  (18) 
[H]c1c([H])c([H])c2c(c1[H])C([H])([H])C([H])([H])C([H])([H])C2([H])N([H])C(=O)C1([H])N(C(=O)C([H])(N([H])C(=O)C([H])(N([H])C([H])([H])[H])C([H])([H])[H])C(C([H])([H])[H])(C([H])([H])[H])C([H])([H])[H])C([H])([H])c2c([H])c(OC3([H])C([H])([H])C([H])([H])C([H])(C([H])([H])C([H])(c4c([H])c(OC([H])([H])[H])c(OC([H])([H])[H])c(N([H])C(=O)N5C([H])([H])C([H])([H])C([H])([H])C([H])(n6nc(-c7c([H])c([H])c(Oc8c([H])c([H])c(F)c([H])c8F)c([H])c7[H])c(C(=O)N([H])[H])c6N([H])[H])C5([H])[H])c4[H])C([H])([H])[H])C([H])([H])C3([H])[H])c([H])c([H])c2C1([H])[H]

$$$$
19:0:0
     RDKit          3D

 93102  0  0  1  0  0  0  0  0999 V2000
  -30.7670  -18.0220   21.2560 C   0  0  0  0  0  3  0  0  0  0  0  0
  -28.9910  -17.9080   19.6440 C   0  0  0  0  0  3  0  0  0  0  0  0
  -30.7770  -19.4490   21.1410 C   0  0  0  0  0  0  0  0  0  0  0  0
  -29.0080  -19.3280   19.4970 C   0  0  0  0  0  0  0  0  0  0  0  0
  -29.8710  -17.2140   20.5160 C   0  0  0  0  0  0  0  0  0  0  0  0
  -29.8810  -20.1460   20.2770 C   0  0  0  0  0  0  0  0  0  0  0  0
  -28.1050  -19.9300   18.4370 C   0  0  0  0  0  1  0  0  0  0  0  0
  -30.5560  -14.7170   20.4240 C   0  0  0  0  0  0  0  0  0  0  0  0
  -30.3580  -12.4800   19.3610 C   0  0  0  0  0  2  0  0  0  0  0  0
  -29.4030  -12.6080   18.1520 C   0  0  0  0  0  2  0  0  0  0  0  0
  -27.9310  -12.4450   18.5860 C   0  0  0  0  0  2  0  0  0  0  0  0
  -27.5770  -13.2970   19.8350 C   0  0  0  0  0  3  0  0  0  0  0  0
  -28.6470  -13.1330   20.9380 C   0  0  0  0  0  2  0  0  0  0  0  0
  -29.9500  -13.4900   20.3550 N   0  0  0  0  0  0  0  0  0  0  0  0
  -31.7260  -14.8780   20.0680 O   0  0  0  0  0  0  0  0  0  0  0  0
  -29.7230  -15.7720   20.7050 N   0  0  0  0  0  0  0  0  0  0  0  0
  -28.7750  -15.4690   20.8650 H   0  0  0  0  0  0  0  0  0  0  0  0
  -25.1880  -13.8910   20.5710 C   0  0  0  0  0  0  0  0  0  0  0  0
  -24.1210  -13.1170   20.9350 C   0  0  0  0  0  0  0  0  0  0  0  0
  -24.5770  -11.7650   20.8860 C   0  0  0  0  0  0  0  0  0  0  0  0
  -26.2310  -13.0110   20.3240 N   0  0  0  0  0  0  0  0  0  0  0  0
  -25.8670  -11.7270   20.5720 N   0  0  0  0  0  0  0  0  0  0  0  0
  -23.8480  -10.5030   21.0650 C   0  0  0  0  0  0  0  0  0  0  0  0
  -24.2760   -9.5310   21.9960 C   0  0  0  0  0  3  0  0  0  0  0  0
  -23.5490   -8.3330   22.1640 C   0  0  0  0  0  3  0  0  0  0  0  0
  -22.3810   -8.0980   21.4030 C   0  0  0  0  0  0  0  0  0  0  0  0
  -21.9710   -9.0600   20.4630 C   0  0  0  0  0  3  0  0  0  0  0  0
  -22.6980  -10.2500   20.2920 C   0  0  0  0  0  3  0  0  0  0  0  0
  -21.6260   -6.9520   21.4810 O   0  0  0  0  0  0  0  0  0  0  0  0
  -21.5550   -6.2140   22.6350 C   0  0  0  0  0  0  0  0  0  0  0  0
  -21.0950   -6.7700   23.8480 C   0  0  0  0  0  3  0  0  0  0  0  0
  -20.9730   -5.9580   24.9930 C   0  0  0  0  0  3  0  0  0  0  0  0
  -21.2980   -4.5900   24.9260 C   0  0  0  0  0  0  0  0  0  0  0  0
  -21.7540   -4.0330   23.7170 C   0  0  0  0  0  3  0  0  0  0  0  0
  -21.8780   -4.8420   22.5740 C   0  0  0  0  0  0  0  0  0  0  0  0
  -22.2940   -4.2960   21.4060 F   0  0  0  0  0  0  0  0  0  0  0  0
  -21.1760   -3.8090   26.0240 F   0  0  0  0  0  0  0  0  0  0  0  0
  -22.7240  -13.5930   21.2160 C   0  0  0  0  0  0  0  0  0  0  0  0
  -21.9990  -12.8910   22.0800 N   0  0  0  0  0  0  0  0  0  0  0  0
  -22.2840  -14.6220   20.7050 O   0  0  0  0  0  0  0  0  0  0  0  0
  -22.3640  -12.0560   22.5120 H   0  0  0  0  0  0  0  0  0  0  0  0
  -21.0620  -13.1920   22.3070 H   0  0  0  0  0  0  0  0  0  0  0  0
  -25.3540  -15.2640   20.4040 N   0  0  0  0  0  0  0  0  0  0  0  0
  -24.5860  -15.9150   20.5250 H   0  0  0  0  0  0  0  0  0  0  0  0
  -26.1950  -15.7040   20.0540 H   0  0  0  0  0  0  0  0  0  0  0  0
  -32.0120  -20.0220   23.4110 C   0  0  0  0  0  2  0  0  0  0  0  0
  -31.3100  -21.2730   22.9320 C   0  0  0  0  0  2  0  0  0  0  0  0
  -31.7760  -20.2420   21.9320 C   0  0  0  0  0  3  0  0  0  0  0  0
  -30.0150  -21.5500   20.1550 O   0  0  0  0  0  0  0  0  0  0  0  0
  -28.9070  -22.4940   20.3330 C   0  0  0  0  0  3  0  0  0  0  0  0
  -29.2850  -24.0490   20.2770 C   0  0  0  0  0  3  0  0  0  0  0  0
  -28.0780  -25.0820   20.1940 C   0  0  0  0  0  2  0  0  0  0  0  0
  -28.3040  -26.5470   20.2090 O   0  0  0  0  0  0  0  0  0  0  0  0
  -24.5860  -31.9410   23.2580 C   0  0  0  0  0  0  0  0  0  0  0  0
  -27.1740  -27.3870   20.1750 C   0  0  0  0  0  0  0  0  0  0  0  0
  -23.3700  -30.5540   21.6150 C   0  0  0  0  0  3  0  0  0  0  0  0
  -24.8090  -29.0050   20.1820 C   0  0  0  0  0  0  0  0  0  0  0  0
  -25.9100  -30.8660   21.4240 C   0  0  0  0  0  2  0  0  0  0  0  0
  -25.9820  -29.4900   20.7720 C   0  0  0  0  0  0  0  0  0  0  0  0
  -27.1670  -28.6940   20.7540 C   0  0  0  0  0  3  0  0  0  0  0  0
  -25.9670  -26.9540   19.5720 C   0  0  0  0  0  3  0  0  0  0  0  0
  -24.8030  -27.7420   19.5710 C   0  0  0  0  0  3  0  0  0  0  0  0
  -23.5810  -29.8890   20.2300 C   0  0  0  0  0  2  0  0  0  0  0  0
  -24.6400  -31.1400   22.1550 N   0  0  0  0  0  0  0  0  0  0  0  0
  -23.5050  -32.2230   23.7970 O   0  0  0  0  0  0  0  0  0  0  0  0
  -22.7050  -29.5380   22.5750 C   0  0  0  0  0  0  0  0  0  0  0  0
  -21.3790  -29.3640   22.4500 N   0  0  0  0  0  0  0  0  0  0  0  0
  -23.3830  -28.9100   23.3930 O   0  0  0  0  0  0  0  0  0  0  0  0
  -20.8890  -29.9300   21.7700 H   0  0  0  0  0  0  0  0  0  0  0  0
  -17.9990  -28.1750   22.9580 C   0  0  0  0  0  0  0  0  0  0  0  0
  -20.5600  -28.4270   23.2230 C   0  0  0  0  0  3  0  0  0  0  0  0
  -20.6550  -26.9950   22.6490 C   0  0  0  0  0  2  0  0  0  0  0  0
  -19.5500  -26.6750   21.6380 C   0  0  0  0  0  2  0  0  0  0  0  0
  -18.1680  -26.8250   22.2830 C   0  0  0  0  0  2  0  0  0  0  0  0
  -19.1210  -28.9330   23.3860 C   0  0  0  0  0  0  0  0  0  0  0  0
  -18.9080  -30.1960   23.9770 C   0  0  0  0  0  3  0  0  0  0  0  0
  -17.6040  -30.7010   24.1470 C   0  0  0  0  0  3  0  0  0  0  0  0
  -16.4970  -29.9410   23.7320 C   0  0  0  0  0  3  0  0  0  0  0  0
  -16.6950  -28.6800   23.1420 C   0  0  0  0  0  3  0  0  0  0  0  0
  -25.8740  -32.5650   23.8760 C   0  0  0  0  0  3  0  0  0  0  0  0
  -25.5760  -33.9630   24.2060 N   0  0  0  0  0  0  0  0  0  0  0  0
  -25.9010  -35.0150   23.4410 C   0  0  0  0  0  0  0  0  0  0  0  0
  -26.5560  -34.9080   22.4020 O   0  0  0  0  0  0  0  0  0  0  0  0
  -24.9870  -34.1200   25.0100 H   0  0  0  0  0  0  0  0  0  0  0  0
  -24.1740  -36.8180   23.1130 C   0  0  0  0  0  1  0  0  0  0  0  0
  -25.4260  -36.4050   23.9040 C   0  0  0  0  0  3  0  0  0  0  0  0
  -27.5750  -37.2890   24.7010 C   0  0  0  0  0  1  0  0  0  0  0  0
  -26.4600  -37.4560   23.7730 N   0  0  0  0  0  0  0  0  0  0  0  0
  -26.0570  -38.3780   23.9230 H   0  0  0  0  0  0  0  0  0  0  0  0
  -26.3880  -31.7910   25.1500 C   0  0  1  0  0  0  0  0  0  0  0  0
  -25.2950  -31.5640   26.2200 C   0  0  0  0  0  1  0  0  0  0  0  0
  -26.9620  -30.4080   24.7570 C   0  0  0  0  0  1  0  0  0  0  0  0
  -27.5420  -32.5800   25.8120 C   0  0  0  0  0  1  0  0  0  0  0  0
  2  5  1  0
  3  1  1  0
  3 48  1  0
  4  2  2  0
  4  6  1  0
  5 16  1  0
  5  1  2  0
  6  3  2  0
  7  4  1  0
  8 16  1  0
  9 14  1  0
 10 11  1  0
 10  9  1  0
 12 11  1  0
 12 21  1  0
 12 13  1  0
 14  8  1  0
 14 13  1  0
 15  8  2  0
 16 17  1  0
 18 19  2  0
 19 38  1  0
 20 19  1  0
 20 23  1  0
 21 18  1  0
 21 22  1  0
 22 20  2  0
 23 24  1  0
 24 25  2  0
 26 29  1  0
 26 25  1  0
 27 26  2  0
 28 27  1  0
 28 23  2  0
 29 30  1  0
 30 31  1  0
 31 32  2  0
 33 32  1  0
 33 37  1  0
 34 33  2  0
 35 30  2  0
 35 34  1  0
 36 35  1  0
 38 39  1  0
 39 42  1  0
 39 41  1  0
 40 38  2  0
 43 44  1  0
 43 18  1  0
 45 43  1  0
 47 46  1  0
 48 47  1  0
 48 46  1  0
 49  6  1  0
 49 50  1  0
 51 50  2  0
 52 53  1  0
 52 51  1  0
 54 65  2  0
 55 53  1  0
 55 60  1  0
 56 64  1  0
 56 66  1  0
 57 63  1  0
 57 59  1  0
 58 64  1  0
 59 58  1  0
 60 59  2  0
 61 55  2  0
 62 61  1  0
 62 57  2  0
 63 56  1  0
 64 54  1  0
 66 68  2  0
 67 66  1  0
 69 67  1  0
 70 79  2  0
 70 75  1  0
 71 67  1  0
 71 75  1  0
 72 71  1  0
 73 74  1  0
 73 72  1  0
 74 70  1  0
 75 76  2  0
 76 77  1  0
 78 77  2  0
 79 78  1  0
 80 54  1  0
 80 81  1  0
 80 90  1  0
 81 84  1  0
 82 86  1  0
 82 81  1  0
 83 82  2  0
 86 85  1  0
 88 86  1  0
 88 89  1  0
 88 87  1  0
 90 93  1  1
 90 91  1  0
 92 90  1  0
M  ISO  4   8 100  16 100  52 101  53 101
M  END
>  <TORSDO>  (19) 
F 21

>  <SCORE>  (19) 
-13.969

>  <name>  (19) 
19

>  <ligand_id>  (19) 
19

>  <original_smiles>  (19) 
[H]c1c([H])c([H])c2c(c1[H])C([H])([H])C([H])([H])C([H])([H])C2([H])N([H])C(=O)C1([H])N(C(=O)C([H])(N([H])C(=O)C([H])(N([H])C([H])([H])[H])C([H])([H])[H])C(C([H])([H])[H])(C([H])([H])[H])C([H])([H])[H])C([H])([H])c2c([H])c(OC([H])([H])C([H])([H])C([H])([H])Oc3c(C([H])([H])[H])c([H])c(N([H])C(=O)N4C([H])([H])C([H])([H])C([H])([H])C([H])(n5nc(-c6c([H])c([H])c(Oc7c([H])c([H])c(F)c([H])c7F)c([H])c6[H])c(C(=O)N([H])[H])c5N([H])[H])C4([H])[H])c([H])c3C3([H])C([H])([H])C3([H])[H])c([H])c([H])c2C1([H])[H]

>  <smiles>  (19) 
[H]c1c([H])c([H])c2c(c1[H])C([H])([H])C([H])([H])C([H])([H])C2([H])N([H])C(=O)C1([H])N(C(=O)C([H])(N([H])C(=O)C([H])(N([H])C([H])([H])[H])C([H])([H])[H])C(C([H])([H])[H])(C([H])([H])[H])C([H])([H])[H])C([H])([H])c2c([H])c(OC([H])([H])C([H])([H])C([H])([H])Oc3c(C([H])([H])[H])c([H])c(N([H])C(=O)N4C([H])([H])C([H])([H])C([H])([H])C([H])(n5nc(-c6c([H])c([H])c(Oc7c([H])c([H])c(F)c([H])c7F)c([H])c6[H])c(C(=O)N([H])[H])c5N([H])[H])C4([H])[H])c([H])c3C3([H])C([H])([H])C3([H])[H])c([H])c([H])c2C1([H])[H]

$$$$
20:0:0
     RDKit          3D

 93102  0  0  1  0  0  0  0  0999 V2000
  -28.9690  -19.0630   20.6290 C   0  0  0  0  0  3  0  0  0  0  0  0
  -30.2730  -18.7050   20.2100 C   0  0  0  0  0  0  0  0  0  0  0  0
  -31.0650  -19.8190   19.7620 C   0  0  0  0  0  0  0  0  0  0  0  0
  -30.5850  -21.1720   19.8690 C   0  0  0  0  0  0  0  0  0  0  0  0
  -29.2420  -21.4090   20.2840 C   0  0  0  0  0  0  0  0  0  0  0  0
  -32.4510  -19.5980   19.1490 C   0  0  0  0  0  1  0  0  0  0  0  0
  -31.5380  -22.3270   19.5540 C   0  0  0  0  0  1  0  0  0  0  0  0
  -28.4790  -20.3410   20.6360 N   0  0  0  0  0  0  0  0  0  0  0  0
  -30.6130  -14.7380   19.9600 C   0  0  0  0  0  0  0  0  0  0  0  0
  -30.1720  -12.5340   18.8840 C   0  0  0  0  0  2  0  0  0  0  0  0
  -29.1550  -12.6550   17.7320 C   0  0  0  0  0  2  0  0  0  0  0  0
  -27.7260  -12.4790   18.2710 C   0  0  0  0  0  2  0  0  0  0  0  0
  -27.4580  -13.3460   19.5290 C   0  0  0  0  0  3  0  0  0  0  0  0
  -28.5980  -13.2410   20.5650 C   0  0  0  0  0  2  0  0  0  0  0  0
  -29.8590  -13.5830   19.8890 N   0  0  0  0  0  0  0  0  0  0  0  0
  -31.6840  -14.7640   19.3460 O   0  0  0  0  0  0  0  0  0  0  0  0
  -31.2990  -16.5940   22.5570 C   0  0  0  0  0  2  0  0  0  0  0  0
  -31.9850  -17.1910   21.3330 C   0  0  0  0  0  2  0  0  0  0  0  0
  -30.0200  -15.9360   22.0070 C   0  0  0  0  0  2  0  0  0  0  0  0
  -30.8870  -17.2300   20.2520 C   0  0  0  0  0  3  0  0  0  0  0  0
  -30.1480  -15.9210   20.5410 N   0  0  0  0  0  0  0  0  0  0  0  0
  -25.1440  -13.9130   20.4810 C   0  0  0  0  0  0  0  0  0  0  0  0
  -24.1050  -13.1270   20.9040 C   0  0  0  0  0  0  0  0  0  0  0  0
  -24.5530  -11.7770   20.7740 C   0  0  0  0  0  0  0  0  0  0  0  0
  -26.1570  -13.0410   20.1190 N   0  0  0  0  0  0  0  0  0  0  0  0
  -25.8130  -11.7480   20.3560 N   0  0  0  0  0  0  0  0  0  0  0  0
  -23.8340  -10.5110   20.9670 C   0  0  0  0  0  0  0  0  0  0  0  0
  -24.2920   -9.5300   21.8750 C   0  0  0  0  0  3  0  0  0  0  0  0
  -23.5710   -8.3300   22.0570 C   0  0  0  0  0  3  0  0  0  0  0  0
  -22.3780   -8.1020   21.3290 C   0  0  0  0  0  0  0  0  0  0  0  0
  -21.9400   -9.0710   20.4100 C   0  0  0  0  0  3  0  0  0  0  0  0
  -22.6620  -10.2610   20.2270 C   0  0  0  0  0  3  0  0  0  0  0  0
  -21.6260   -6.9550   21.4220 O   0  0  0  0  0  0  0  0  0  0  0  0
  -21.5510   -6.2350   22.5870 C   0  0  0  0  0  0  0  0  0  0  0  0
  -21.0820   -6.8090   23.7890 C   0  0  0  0  0  3  0  0  0  0  0  0
  -20.9560   -6.0130   24.9460 C   0  0  0  0  0  3  0  0  0  0  0  0
  -21.2910   -4.6470   24.9020 C   0  0  0  0  0  0  0  0  0  0  0  0
  -21.7550   -4.0730   23.7050 C   0  0  0  0  0  3  0  0  0  0  0  0
  -21.8820   -4.8650   22.5500 C   0  0  0  0  0  0  0  0  0  0  0  0
  -22.3070   -4.3020   21.3930 F   0  0  0  0  0  0  0  0  0  0  0  0
  -21.1640   -3.8810   26.0110 F   0  0  0  0  0  0  0  0  0  0  0  0
  -22.7410  -13.5990   21.3130 C   0  0  0  0  0  0  0  0  0  0  0  0
  -22.0800  -12.8640   22.2020 N   0  0  0  0  0  0  0  0  0  0  0  0
  -22.2730  -14.6520   20.8830 O   0  0  0  0  0  0  0  0  0  0  0  0
  -22.4750  -12.0120   22.5700 H   0  0  0  0  0  0  0  0  0  0  0  0
  -21.1680  -13.1600   22.5180 H   0  0  0  0  0  0  0  0  0  0  0  0
  -25.3030  -15.2890   20.3530 N   0  0  0  0  0  0  0  0  0  0  0  0
  -24.5530  -15.9410   20.5610 H   0  0  0  0  0  0  0  0  0  0  0  0
  -26.1230  -15.7400   19.9700 H   0  0  0  0  0  0  0  0  0  0  0  0
  -28.5310  -22.6320   20.3870 O   0  0  0  0  0  0  0  0  0  0  0  0
  -29.0170  -23.9910   20.0910 C   0  0  0  0  0  2  0  0  0  0  0  0
  -27.8610  -25.0680   19.9010 C   0  0  0  0  0  2  0  0  0  0  0  0
  -28.1260  -26.5310   19.9450 O   0  0  0  0  0  0  0  0  0  0  0  0
  -24.4920  -31.8750   23.1610 C   0  0  0  0  0  0  0  0  0  0  0  0
  -27.0100  -27.3870   19.9320 C   0  0  0  0  0  0  0  0  0  0  0  0
  -23.2350  -30.5040   21.5420 C   0  0  0  0  0  3  0  0  0  0  0  0
  -24.6390  -28.9940   20.0310 C   0  0  0  0  0  0  0  0  0  0  0  0
  -25.7660  -30.8380   21.2710 C   0  0  0  0  0  2  0  0  0  0  0  0
  -25.8300  -29.4750   20.5930 C   0  0  0  0  0  0  0  0  0  0  0  0
  -27.0170  -28.6840   20.5320 C   0  0  0  0  0  3  0  0  0  0  0  0
  -25.7920  -26.9670   19.3440 C   0  0  0  0  0  3  0  0  0  0  0  0
  -24.6230  -27.7470   19.3960 C   0  0  0  0  0  3  0  0  0  0  0  0
  -23.3990  -29.8600   20.1430 C   0  0  0  0  0  2  0  0  0  0  0  0
  -24.5190  -31.0880   22.0490 N   0  0  0  0  0  0  0  0  0  0  0  0
  -23.4270  -32.1420   23.7380 O   0  0  0  0  0  0  0  0  0  0  0  0
  -22.6160  -29.4620   22.5040 C   0  0  0  0  0  0  0  0  0  0  0  0
  -21.2950  -29.2470   22.3910 N   0  0  0  0  0  0  0  0  0  0  0  0
  -23.3210  -28.8510   23.3100 O   0  0  0  0  0  0  0  0  0  0  0  0
  -20.7850  -29.7910   21.7100 H   0  0  0  0  0  0  0  0  0  0  0  0
  -17.9610  -27.9460   22.9150 C   0  0  0  0  0  0  0  0  0  0  0  0
  -20.5120  -28.2880   23.1710 C   0  0  0  0  0  3  0  0  0  0  0  0
  -20.6580  -26.8590   22.6010 C   0  0  0  0  0  2  0  0  0  0  0  0
  -19.5610  -26.4960   21.5950 C   0  0  0  0  0  2  0  0  0  0  0  0
  -18.1760  -26.5990   22.2430 C   0  0  0  0  0  2  0  0  0  0  0  0
  -19.0560  -28.7450   23.3360 C   0  0  0  0  0  0  0  0  0  0  0  0
  -18.7990  -30.0020   23.9230 C   0  0  0  0  0  3  0  0  0  0  0  0
  -17.4790  -30.4610   24.0940 C   0  0  0  0  0  3  0  0  0  0  0  0
  -16.3990  -29.6590   23.6890 C   0  0  0  0  0  3  0  0  0  0  0  0
  -16.6410  -28.4040   23.1030 C   0  0  0  0  0  3  0  0  0  0  0  0
  -25.7930  -32.5020   23.7480 C   0  0  0  0  0  3  0  0  0  0  0  0
  -26.3650  -31.7040   24.9820 C   0  0  1  0  0  0  0  0  0  0  0  0
  -25.3130  -31.4150   26.0810 C   0  0  0  0  0  1  0  0  0  0  0  0
  -26.9570  -30.3480   24.5330 C   0  0  0  0  0  1  0  0  0  0  0  0
  -27.5280  -32.4980   25.6220 C   0  0  0  0  0  1  0  0  0  0  0  0
  -25.4810  -33.8890   24.1250 N   0  0  0  0  0  0  0  0  0  0  0  0
  -25.7740  -34.9660   23.3860 C   0  0  0  0  0  0  0  0  0  0  0  0
  -26.4040  -34.8980   22.3270 O   0  0  0  0  0  0  0  0  0  0  0  0
  -24.9070  -34.0130   24.9470 H   0  0  0  0  0  0  0  0  0  0  0  0
  -24.0190  -36.7560   23.1450 C   0  0  0  0  0  1  0  0  0  0  0  0
  -25.2920  -36.3370   23.8980 C   0  0  0  0  0  3  0  0  0  0  0  0
  -27.4460  -37.2180   24.6770 C   0  0  0  0  0  1  0  0  0  0  0  0
  -26.3120  -37.4010   23.7770 N   0  0  0  0  0  0  0  0  0  0  0  0
  -25.9050  -38.3150   23.9600 H   0  0  0  0  0  0  0  0  0  0  0  0
  1  8  1  0
  2  1  2  0
  3  4  2  0
  3  2  1  0
  4  5  1  0
  5 50  1  0
  5  8  2  0
  6  3  1  0
  7  4  1  0
  9 21  1  0
 10 15  1  0
 11 12  1  0
 11 10  1  0
 13 12  1  0
 13 25  1  0
 13 14  1  0
 15  9  1  0
 15 14  1  0
 16  9  2  0
 18 17  1  0
 19 17  1  0
 20  2  1  0
 20 21  1  0
 20 18  1  0
 21 19  1  0
 22 23  2  0
 23 42  1  0
 24 23  1  0
 24 27  1  0
 25 26  1  0
 25 22  1  0
 26 24  2  0
 27 28  1  0
 28 29  2  0
 30 33  1  0
 30 29  1  0
 31 30  2  0
 32 31  1  0
 32 27  2  0
 33 34  1  0
 34 35  1  0
 35 36  2  0
 37 36  1  0
 37 41  1  0
 38 37  2  0
 39 34  2  0
 39 38  1  0
 40 39  1  0
 42 43  1  0
 43 46  1  0
 43 45  1  0
 44 42  2  0
 47 22  1  0
 47 48  1  0
 49 47  1  0
 51 50  1  0
 52 53  1  0
 52 51  1  0
 54 65  2  0
 55 53  1  0
 55 60  1  0
 56 64  1  0
 56 66  1  0
 57 63  1  0
 57 59  1  0
 58 64  1  0
 59 58  1  0
 60 59  2  0
 61 62  1  0
 61 55  2  0
 62 57  2  0
 63 56  1  0
 64 54  1  0
 66 68  2  0
 67 66  1  0
 69 67  1  0
 70 79  2  0
 70 75  1  0
 71 67  1  0
 71 75  1  0
 72 71  1  0
 73 74  1  0
 73 72  1  0
 74 70  1  0
 75 76  2  0
 76 77  1  0
 78 77  2  0
 79 78  1  0
 80 54  1  0
 80 85  1  0
 80 81  1  0
 81 84  1  1
 81 82  1  0
 83 81  1  0
 85 88  1  0
 86 90  1  0
 86 85  1  0
 87 86  2  0
 90 89  1  0
 92 90  1  0
 92 93  1  0
 92 91  1  0
M  ISO  4   9 100  21 100  52 101  53 101
M  END
>  <TORSDO>  (20) 
F 19

>  <SCORE>  (20) 
-13.057

>  <name>  (20) 
20

>  <ligand_id>  (20) 
20

>  <original_smiles>  (20) 
[H]c1nc(OC([H])([H])C([H])([H])Oc2c([H])c([H])c3c(c2[H])C([H])([H])N(C(=O)C([H])(N([H])C(=O)C([H])(N([H])C([H])([H])[H])C([H])([H])[H])C(C([H])([H])[H])(C([H])([H])[H])C([H])([H])[H])C([H])(C(=O)N([H])C2([H])c4c([H])c([H])c([H])c([H])c4C([H])([H])C([H])([H])C2([H])[H])C3([H])[H])c(C([H])([H])[H])c(C([H])([H])[H])c1C1([H])N(C(=O)N2C([H])([H])C([H])([H])C([H])([H])C([H])(n3nc(-c4c([H])c([H])c(Oc5c([H])c([H])c(F)c([H])c5F)c([H])c4[H])c(C(=O)N([H])[H])c3N([H])[H])C2([H])[H])C([H])([H])C([H])([H])C1([H])[H]

>  <smiles>  (20) 
[H]c1nc(OC([H])([H])C([H])([H])Oc2c([H])c([H])c3c(c2[H])C([H])([H])N(C(=O)C([H])(N([H])C(=O)C([H])(N([H])C([H])([H])[H])C([H])([H])[H])C(C([H])([H])[H])(C([H])([H])[H])C([H])([H])[H])C([H])(C(=O)N([H])C2([H])c4c([H])c([H])c([H])c([H])c4C([H])([H])C([H])([H])C2([H])[H])C3([H])[H])c(C([H])([H])[H])c(C([H])([H])[H])c1C1([H])N(C(=O)N2C([H])([H])C([H])([H])C([H])([H])C([H])(n3nc(-c4c([H])c([H])c(Oc5c([H])c([H])c(F)c([H])c5F)c([H])c4[H])c(C(=O)N([H])[H])c3N([H])[H])C2([H])[H])C([H])([H])C([H])([H])C1([H])[H]

$$$$
21:0:0
     RDKit          3D

 96106  0  0  1  0  0  0  0  0999 V2000
  -31.0370  -14.7910   20.0240 C   0  0  0  0  0  0  0  0  0  0  0  0
  -30.6970  -12.5370   19.1110 C   0  0  0  0  0  2  0  0  0  0  0  0
  -29.7120  -12.6540   17.9300 C   0  0  0  0  0  2  0  0  0  0  0  0
  -28.2550  -12.5580   18.4250 C   0  0  0  0  0  2  0  0  0  0  0  0
  -27.9610  -13.4880   19.6370 C   0  0  0  0  0  3  0  0  0  0  0  0
  -29.0670  -13.3830   20.7140 C   0  0  0  0  0  2  0  0  0  0  0  0
  -30.3580  -13.6130   20.0530 N   0  0  0  0  0  0  0  0  0  0  0  0
  -32.2270  -14.8540   19.6960 O   0  0  0  0  0  0  0  0  0  0  0  0
  -30.4730  -18.9810   17.7390 C   0  0  0  0  0  3  0  0  0  0  0  0
  -30.2700  -19.6400   20.4870 C   0  0  0  0  0  3  0  0  0  0  0  0
  -30.3160  -17.9850   18.7170 C   0  0  0  0  0  0  0  0  0  0  0  0
  -30.2330  -18.2900   20.0570 C   0  0  0  0  0  0  0  0  0  0  0  0
  -30.5510  -20.3370   18.1440 C   0  0  0  0  0  0  0  0  0  0  0  0
  -30.4320  -20.6860   19.5260 C   0  0  0  0  0  0  0  0  0  0  0  0
  -30.2290  -16.4990   18.5120 C   0  0  0  0  0  2  0  0  0  0  0  0
  -30.0960  -16.9950   20.8580 C   0  0  0  0  0  3  0  0  0  0  0  0
  -30.7900  -21.3900   17.0700 C   0  0  0  0  0  1  0  0  0  0  0  0
  -30.2480  -15.8900   19.8640 N   0  0  0  0  0  0  0  0  0  0  0  0
  -25.6740  -14.1660   20.6000 C   0  0  0  0  0  0  0  0  0  0  0  0
  -24.5790  -13.4300   20.9620 C   0  0  0  0  0  0  0  0  0  0  0  0
  -24.9340  -12.0630   20.7500 C   0  0  0  0  0  0  0  0  0  0  0  0
  -26.6310  -13.2490   20.1930 N   0  0  0  0  0  0  0  0  0  0  0  0
  -26.1930  -11.9720   20.3390 N   0  0  0  0  0  0  0  0  0  0  0  0
  -24.1290  -10.8390   20.8550 C   0  0  0  0  0  0  0  0  0  0  0  0
  -24.5550   -9.7390   21.6300 C   0  0  0  0  0  3  0  0  0  0  0  0
  -23.7530   -8.5820   21.7300 C   0  0  0  0  0  3  0  0  0  0  0  0
  -22.5110   -8.5170   21.0540 C   0  0  0  0  0  0  0  0  0  0  0  0
  -22.1030   -9.6060   20.2640 C   0  0  0  0  0  3  0  0  0  0  0  0
  -22.9050  -10.7550   20.1610 C   0  0  0  0  0  3  0  0  0  0  0  0
  -21.6800   -7.4230   21.0720 O   0  0  0  0  0  0  0  0  0  0  0  0
  -21.6830   -6.5340   22.1170 C   0  0  0  0  0  0  0  0  0  0  0  0
  -21.4120   -6.9390   23.4420 C   0  0  0  0  0  3  0  0  0  0  0  0
  -21.3550   -5.9810   24.4750 C   0  0  0  0  0  3  0  0  0  0  0  0
  -21.5620   -4.6200   24.1860 C   0  0  0  0  0  0  0  0  0  0  0  0
  -21.8290   -4.2120   22.8670 C   0  0  0  0  0  3  0  0  0  0  0  0
  -21.8870   -5.1670   21.8350 C   0  0  0  0  0  0  0  0  0  0  0  0
  -22.1200   -4.7660   20.5630 F   0  0  0  0  0  0  0  0  0  0  0  0
  -21.5040   -3.6980   25.1760 F   0  0  0  0  0  0  0  0  0  0  0  0
  -23.2440  -13.9670   21.3910 C   0  0  0  0  0  0  0  0  0  0  0  0
  -22.5340  -13.2350   22.2430 N   0  0  0  0  0  0  0  0  0  0  0  0
  -22.8420  -15.0660   21.0100 O   0  0  0  0  0  0  0  0  0  0  0  0
  -22.8720  -12.3450   22.5750 H   0  0  0  0  0  0  0  0  0  0  0  0
  -21.6360  -13.5690   22.5630 H   0  0  0  0  0  0  0  0  0  0  0  0
  -25.9270  -15.5340   20.5640 N   0  0  0  0  0  0  0  0  0  0  0  0
  -25.2230  -16.2190   20.8200 H   0  0  0  0  0  0  0  0  0  0  0  0
  -26.7940  -15.9510   20.2510 H   0  0  0  0  0  0  0  0  0  0  0  0
  -30.7290  -17.8070   23.2990 C   0  0  0  0  0  2  0  0  0  0  0  0
  -30.5370  -16.3120   23.3630 C   0  0  0  0  0  2  0  0  0  0  0  0
  -31.0090  -16.9580   22.0770 C   0  0  0  0  0  3  0  0  0  0  0  0
  -30.5710  -22.1560   19.9930 C   0  0  0  0  0  2  0  0  0  0  0  0
  -29.4330  -23.0410   19.6160 N   0  0  0  0  0  4  0  0  0  0  0  0
  -28.6150  -22.7020   20.1000 H   0  0  0  0  0  0  0  0  0  0  0  0
  -29.2720  -22.9080   18.6310 H   0  0  0  0  0  0  0  0  0  0  0  0
  -29.6180  -24.5080   19.8900 C   0  0  0  0  0  2  0  0  0  0  0  0
  -28.3690  -25.3620   19.5180 C   0  0  0  0  0  2  0  0  0  0  0  0
  -28.4790  -26.7950   19.7430 O   0  0  0  0  0  0  0  0  0  0  0  0
  -24.5240  -31.7290   23.0720 C   0  0  0  0  0  0  0  0  0  0  0  0
  -27.2960  -27.5270   19.7400 C   0  0  0  0  0  0  0  0  0  0  0  0
  -23.3550  -30.3700   21.3710 C   0  0  0  0  0  3  0  0  0  0  0  0
  -24.8500  -28.9710   19.8510 C   0  0  0  0  0  0  0  0  0  0  0  0
  -25.8680  -30.8280   21.1740 C   0  0  0  0  0  2  0  0  0  0  0  0
  -25.9990  -29.4980   20.4530 C   0  0  0  0  0  0  0  0  0  0  0  0
  -27.2240  -28.7860   20.3920 C   0  0  0  0  0  3  0  0  0  0  0  0
  -26.1230  -27.0390   19.1130 C   0  0  0  0  0  3  0  0  0  0  0  0
  -24.9100  -27.7430   19.1760 C   0  0  0  0  0  3  0  0  0  0  0  0
  -23.5760  -29.7780   19.9550 C   0  0  0  0  0  2  0  0  0  0  0  0
  -24.6000  -30.9890   21.9300 N   0  0  0  0  0  0  0  0  0  0  0  0
  -23.4390  -31.9290   23.6360 O   0  0  0  0  0  0  0  0  0  0  0  0
  -22.7540  -29.2740   22.2830 C   0  0  0  0  0  0  0  0  0  0  0  0
  -21.4300  -29.0660   22.1830 N   0  0  0  0  0  0  0  0  0  0  0  0
  -23.4750  -28.6180   23.0380 O   0  0  0  0  0  0  0  0  0  0  0  0
  -20.9050  -29.6500   21.5450 H   0  0  0  0  0  0  0  0  0  0  0  0
  -18.1080  -27.7370   22.6840 C   0  0  0  0  0  0  0  0  0  0  0  0
  -20.6610  -28.0610   22.9170 C   0  0  0  0  0  3  0  0  0  0  0  0
  -20.7950  -26.6680   22.2610 C   0  0  0  0  0  2  0  0  0  0  0  0
  -19.6810  -26.3660   21.2530 C   0  0  0  0  0  2  0  0  0  0  0  0
  -18.3100  -26.4330   21.9320 C   0  0  0  0  0  2  0  0  0  0  0  0
  -19.2110  -28.5100   23.1350 C   0  0  0  0  0  0  0  0  0  0  0  0
  -18.9680  -29.7310   23.7980 C   0  0  0  0  0  3  0  0  0  0  0  0
  -17.6530  -30.1820   24.0180 C   0  0  0  0  0  3  0  0  0  0  0  0
  -16.5640  -29.4060   23.5840 C   0  0  0  0  0  3  0  0  0  0  0  0
  -16.7930  -28.1850   22.9240 C   0  0  0  0  0  3  0  0  0  0  0  0
  -25.7910  -32.3800   23.7080 C   0  0  0  0  0  3  0  0  0  0  0  0
  -26.3470  -31.5760   24.9470 C   0  0  1  0  0  0  0  0  0  0  0  0
  -25.2770  -31.2700   26.0190 C   0  0  0  0  0  1  0  0  0  0  0  0
  -26.9610  -30.2300   24.4970 C   0  0  0  0  0  1  0  0  0  0  0  0
  -27.4860  -32.3750   25.6230 C   0  0  0  0  0  1  0  0  0  0  0  0
  -25.4360  -33.7520   24.0960 N   0  0  0  0  0  0  0  0  0  0  0  0
  -25.7590  -34.8480   23.3970 C   0  0  0  0  0  0  0  0  0  0  0  0
  -26.4570  -34.8120   22.3790 O   0  0  0  0  0  0  0  0  0  0  0  0
  -24.8170  -33.8500   24.8870 H   0  0  0  0  0  0  0  0  0  0  0  0
  -23.9900  -36.6090   23.0830 C   0  0  0  0  0  1  0  0  0  0  0  0
  -25.2220  -36.1990   23.9070 C   0  0  0  0  0  3  0  0  0  0  0  0
  -27.3060  -37.1030   24.8390 C   0  0  0  0  0  1  0  0  0  0  0  0
  -26.2270  -37.2840   23.8720 N   0  0  0  0  0  0  0  0  0  0  0  0
  -25.7900  -38.1850   24.0480 H   0  0  0  0  0  0  0  0  0  0  0  0
  1  7  1  0
  2  7  1  0
  3  4  1  0
  3  2  1  0
  5  4  1  0
  5 22  1  0
  5  6  1  0
  7  6  1  0
  8  1  2  0
  9 13  2  0
  9 11  1  0
 11 12  2  0
 12 10  1  0
 12 16  1  0
 13 14  1  0
 14 50  1  0
 14 10  2  0
 15 11  1  0
 15 18  1  0
 16 49  1  0
 17 13  1  0
 18  1  1  0
 18 16  1  0
 19 20  2  0
 20 39  1  0
 21 24  1  0
 21 20  1  0
 22 23  1  0
 22 19  1  0
 23 21  2  0
 24 25  1  0
 25 26  2  0
 27 30  1  0
 27 26  1  0
 28 27  2  0
 29 28  1  0
 29 24  2  0
 30 31  1  0
 31 32  1  0
 32 33  2  0
 34 33  1  0
 34 38  1  0
 35 34  2  0
 36 31  2  0
 36 35  1  0
 37 36  1  0
 39 40  1  0
 40 43  1  0
 40 42  1  0
 41 39  2  0
 44 19  1  0
 44 45  1  0
 46 44  1  0
 47 48  1  0
 49 47  1  0
 49 48  1  0
 51 54  1  0
 51 50  1  0
 51 52  1  0
 53 51  1  0
 55 56  1  0
 55 54  1  0
 57 68  2  0
 58 56  1  0
 58 63  1  0
 59 67  1  0
 59 69  1  0
 60 66  1  0
 60 62  1  0
 61 67  1  0
 62 61  1  0
 63 62  2  0
 64 65  1  0
 64 58  2  0
 65 60  2  0
 66 59  1  0
 67 57  1  0
 69 71  2  0
 70 69  1  0
 72 70  1  0
 73 82  2  0
 73 78  1  0
 74 70  1  0
 74 78  1  0
 75 74  1  0
 76 77  1  0
 76 75  1  0
 77 73  1  0
 78 79  2  0
 79 80  1  0
 81 80  2  0
 82 81  1  0
 83 57  1  0
 83 88  1  0
 83 84  1  0
 84 87  1  1
 84 85  1  0
 86 84  1  0
 88 91  1  0
 89 93  1  0
 89 88  1  0
 90 89  2  0
 93 92  1  0
 95 93  1  0
 95 96  1  0
 95 94  1  0
M  ISO  4   1 100  18 100  55 101  56 101
M  END
>  <TORSDO>  (21) 
F 20

>  <SCORE>  (21) 
-10.619

>  <name>  (21) 
21

>  <ligand_id>  (21) 
21

>  <original_smiles>  (21) 
[H]c1c([H])c([H])c2c(c1[H])C([H])([H])C([H])([H])C([H])([H])C2([H])N([H])C(=O)C1([H])N(C(=O)C([H])(N([H])C(=O)C([H])(N([H])C([H])([H])[H])C([H])([H])[H])C(C([H])([H])[H])(C([H])([H])[H])C([H])([H])[H])C([H])([H])c2c([H])c(OC([H])([H])C([H])([H])[N+]([H])([H])C([H])([H])c3c([H])c4c(c([H])c3C([H])([H])[H])C([H])([H])N(C(=O)N3C([H])([H])C([H])([H])C([H])([H])C([H])(n5nc(-c6c([H])c([H])c(Oc7c([H])c([H])c(F)c([H])c7F)c([H])c6[H])c(C(=O)N([H])[H])c5N([H])[H])C3([H])[H])C4([H])C3([H])C([H])([H])C3([H])[H])c([H])c([H])c2C1([H])[H]

>  <smiles>  (21) 
[H]c1c([H])c([H])c2c(c1[H])C([H])([H])C([H])([H])C([H])([H])C2([H])N([H])C(=O)C1([H])N(C(=O)C([H])(N([H])C(=O)C([H])(N([H])C([H])([H])[H])C([H])([H])[H])C(C([H])([H])[H])(C([H])([H])[H])C([H])([H])[H])C([H])([H])c2c([H])c(OC([H])([H])C([H])([H])[N+]([H])([H])C([H])([H])c3c([H])c4c(c([H])c3C([H])([H])[H])C([H])([H])N(C(=O)N3C([H])([H])C([H])([H])C([H])([H])C([H])(n5nc(-c6c([H])c([H])c(Oc7c([H])c([H])c(F)c([H])c7F)c([H])c6[H])c(C(=O)N([H])[H])c5N([H])[H])C3([H])[H])C4([H])C3([H])C([H])([H])C3([H])[H])c([H])c([H])c2C1([H])[H]

$$$$
22:0:0
     RDKit          3D

 99109  0  0  1  0  0  0  0  0999 V2000
  -28.9080  -20.3300   19.5440 C   0  0  0  0  0  3  0  0  0  0  0  0
  -29.4980  -20.0060   20.7810 C   0  0  0  0  0  0  0  0  0  0  0  0
  -29.6390  -22.4330   21.1800 C   0  0  0  0  0  0  0  0  0  0  0  0
  -29.8690  -21.0900   21.6330 C   0  0  0  0  0  0  0  0  0  0  0  0
  -28.9700  -22.6100   19.9430 C   0  0  0  0  0  0  0  0  0  0  0  0
  -28.6290  -21.5820   19.1440 N   0  0  0  0  0  0  0  0  0  0  0  0
  -30.6980  -14.6140   20.1360 C   0  0  0  0  0  0  0  0  0  0  0  0
  -30.4980  -12.3560   19.1260 C   0  0  0  0  0  2  0  0  0  0  0  0
  -29.5300  -12.3680   17.9270 C   0  0  0  0  0  2  0  0  0  0  0  0
  -28.0780  -12.1450   18.3960 C   0  0  0  0  0  2  0  0  0  0  0  0
  -27.7000  -13.0730   19.5760 C   0  0  0  0  0  3  0  0  0  0  0  0
  -28.7820  -13.0120   20.6840 C   0  0  0  0  0  2  0  0  0  0  0  0
  -30.0670  -13.3990   20.0820 N   0  0  0  0  0  0  0  0  0  0  0  0
  -31.7540  -14.7980   19.5190 O   0  0  0  0  0  0  0  0  0  0  0  0
  -28.7110  -17.5240   20.5010 C   0  0  0  0  0  2  0  0  0  0  0  0
  -31.0900  -17.9610   21.0380 C   0  0  0  0  0  2  0  0  0  0  0  0
  -28.8620  -16.1060   21.0910 C   0  0  0  0  0  2  0  0  0  0  0  0
  -31.1910  -16.5280   21.6240 C   0  0  0  0  0  2  0  0  0  0  0  0
  -29.6590  -18.5200   21.1940 C   0  0  0  0  0  3  0  0  0  0  0  0
  -30.2440  -15.5850   20.9910 N   0  0  0  0  0  0  0  0  0  0  0  0
  -25.3190  -13.6360   20.3820 C   0  0  0  0  0  0  0  0  0  0  0  0
  -24.2810  -12.8390   20.7830 C   0  0  0  0  0  0  0  0  0  0  0  0
  -24.7670  -11.4970   20.7170 C   0  0  0  0  0  0  0  0  0  0  0  0
  -26.3710  -12.7750   20.1000 N   0  0  0  0  0  0  0  0  0  0  0  0
  -26.0440  -11.4850   20.3590 N   0  0  0  0  0  0  0  0  0  0  0  0
  -24.0760  -10.2180   20.9140 C   0  0  0  0  0  0  0  0  0  0  0  0
  -24.4110   -9.3560   21.9820 C   0  0  0  0  0  3  0  0  0  0  0  0
  -23.7200   -8.1390   22.1610 C   0  0  0  0  0  3  0  0  0  0  0  0
  -22.6820   -7.7750   21.2710 C   0  0  0  0  0  0  0  0  0  0  0  0
  -22.3690   -8.6260   20.1960 C   0  0  0  0  0  3  0  0  0  0  0  0
  -23.0600   -9.8350   20.0170 C   0  0  0  0  0  3  0  0  0  0  0  0
  -21.9730   -6.6010   21.3530 O   0  0  0  0  0  0  0  0  0  0  0  0
  -21.5640   -6.0900   22.5580 C   0  0  0  0  0  0  0  0  0  0  0  0
  -20.6830   -6.7960   23.4060 C   0  0  0  0  0  3  0  0  0  0  0  0
  -20.2350   -6.2040   24.6050 C   0  0  0  0  0  3  0  0  0  0  0  0
  -20.6560   -4.9060   24.9500 C   0  0  0  0  0  0  0  0  0  0  0  0
  -21.5290   -4.2010   24.1040 C   0  0  0  0  0  3  0  0  0  0  0  0
  -21.9800   -4.7900   22.9100 C   0  0  0  0  0  0  0  0  0  0  0  0
  -22.8040   -4.0970   22.0880 F   0  0  0  0  0  0  0  0  0  0  0  0
  -20.2180   -4.3340   26.0960 F   0  0  0  0  0  0  0  0  0  0  0  0
  -22.8850  -13.2840   21.1140 C   0  0  0  0  0  0  0  0  0  0  0  0
  -22.2030  -12.5580   21.9920 N   0  0  0  0  0  0  0  0  0  0  0  0
  -22.4080  -14.3080   20.6280 O   0  0  0  0  0  0  0  0  0  0  0  0
  -22.6010  -11.7280   22.4060 H   0  0  0  0  0  0  0  0  0  0  0  0
  -21.2680  -12.8360   22.2550 H   0  0  0  0  0  0  0  0  0  0  0  0
  -25.4480  -15.0110   20.2140 N   0  0  0  0  0  0  0  0  0  0  0  0
  -24.6690  -15.6450   20.3590 H   0  0  0  0  0  0  0  0  0  0  0  0
  -26.2680  -15.4710   19.8390 H   0  0  0  0  0  0  0  0  0  0  0  0
  -30.0370  -25.0680   21.3960 C   0  0  0  0  0  2  0  0  0  0  0  0
  -31.2940  -24.4100   21.8820 C   0  0  0  0  0  2  0  0  0  0  0  0
  -29.9720  -23.6710   21.9980 C   0  0  0  0  0  3  0  0  0  0  0  0
  -29.6310  -21.4850   24.1490 C   0  0  0  0  0  1  0  0  0  0  0  0
  -30.4390  -20.8070   23.0350 C   0  0  0  0  0  3  0  0  0  0  0  0
  -31.8030  -21.1300   23.1600 O   0  0  0  0  0  0  0  0  0  0  0  0
  -31.9020  -22.0030   22.7930 H   0  0  0  0  0  0  0  0  0  0  0  0
  -28.6460  -23.8900   19.5200 O   0  0  0  0  0  0  0  0  0  0  0  0
  -27.6580  -24.1110   18.5050 C   0  0  0  0  0  2  0  0  0  0  0  0
  -27.9230  -25.4570   17.7930 C   0  0  0  0  0  2  0  0  0  0  0  0
  -27.9800  -26.5980   18.6610 O   0  0  0  0  0  0  0  0  0  0  0  0
  -25.0190  -31.5020   22.8660 C   0  0  0  0  0  0  0  0  0  0  0  0
  -26.8460  -27.3490   18.9030 C   0  0  0  0  0  0  0  0  0  0  0  0
  -23.4840  -30.4040   21.2650 C   0  0  0  0  0  3  0  0  0  0  0  0
  -24.5950  -28.9760   19.4650 C   0  0  0  0  0  0  0  0  0  0  0  0
  -25.9770  -30.6290   20.7370 C   0  0  0  0  0  2  0  0  0  0  0  0
  -25.8610  -29.3490   19.9340 C   0  0  0  0  0  0  0  0  0  0  0  0
  -26.9840  -28.5370   19.6580 C   0  0  0  0  0  3  0  0  0  0  0  0
  -25.5580  -26.9850   18.4450 C   0  0  0  0  0  3  0  0  0  0  0  0
  -24.4380  -27.7930   18.7240 C   0  0  0  0  0  3  0  0  0  0  0  0
  -23.4410  -29.8960   19.7990 C   0  0  0  0  0  2  0  0  0  0  0  0
  -24.8540  -30.8510   21.6790 N   0  0  0  0  0  0  0  0  0  0  0  0
  -24.0490  -31.7670   23.5900 O   0  0  0  0  0  0  0  0  0  0  0  0
  -22.8960  -29.3090   22.1830 C   0  0  0  0  0  0  0  0  0  0  0  0
  -21.5660  -29.1340   22.1280 N   0  0  0  0  0  0  0  0  0  0  0  0
  -23.6300  -28.6210   22.8980 O   0  0  0  0  0  0  0  0  0  0  0  0
  -21.0340  -29.7420   21.5200 H   0  0  0  0  0  0  0  0  0  0  0  0
  -18.2420  -27.8190   22.6530 C   0  0  0  0  0  0  0  0  0  0  0  0
  -20.7980  -28.1360   22.8720 C   0  0  0  0  0  3  0  0  0  0  0  0
  -20.9240  -26.7390   22.2220 C   0  0  0  0  0  2  0  0  0  0  0  0
  -19.8060  -26.4340   21.2230 C   0  0  0  0  0  2  0  0  0  0  0  0
  -18.4380  -26.5090   21.9080 C   0  0  0  0  0  2  0  0  0  0  0  0
  -19.3500  -28.5910   23.0910 C   0  0  0  0  0  0  0  0  0  0  0  0
  -19.1130  -29.8180   23.7480 C   0  0  0  0  0  3  0  0  0  0  0  0
  -17.8000  -30.2740   23.9710 C   0  0  0  0  0  3  0  0  0  0  0  0
  -16.7070  -29.4980   23.5490 C   0  0  0  0  0  3  0  0  0  0  0  0
  -16.9280  -28.2720   22.8960 C   0  0  0  0  0  3  0  0  0  0  0  0
  -26.4270  -31.9650   23.3580 C   0  0  0  0  0  3  0  0  0  0  0  0
  -26.2750  -33.3080   23.9320 N   0  0  0  0  0  0  0  0  0  0  0  0
  -26.6070  -34.4450   23.3050 C   0  0  0  0  0  0  0  0  0  0  0  0
  -27.1460  -34.4650   22.1950 O   0  0  0  0  0  0  0  0  0  0  0  0
  -25.7910  -33.3710   24.8170 H   0  0  0  0  0  0  0  0  0  0  0  0
  -25.0130  -36.3860   23.4280 C   0  0  0  0  0  1  0  0  0  0  0  0
  -26.2890  -35.7700   24.0240 C   0  0  0  0  0  3  0  0  0  0  0  0
  -28.5580  -36.3630   24.7510 C   0  0  0  0  0  1  0  0  0  0  0  0
  -27.3930  -36.7530   23.9620 N   0  0  0  0  0  0  0  0  0  0  0  0
  -27.0800  -37.6640   24.2880 H   0  0  0  0  0  0  0  0  0  0  0  0
  -27.0740  -30.9800   24.4070 C   0  0  1  0  0  0  0  0  0  0  0  0
  -26.1390  -30.6280   25.5880 C   0  0  0  0  0  1  0  0  0  0  0  0
  -27.4940  -29.6580   23.7250 C   0  0  0  0  0  1  0  0  0  0  0  0
  -28.3630  -31.6070   24.9880 C   0  0  0  0  0  1  0  0  0  0  0  0
  1  2  2  0
  2  4  1  0
  3  4  2  0
  3 51  1  0
  4 53  1  0
  5  3  1  0
  6  1  1  0
  6  5  2  0
  7 20  1  0
  8 13  1  0
  9 10  1  0
  9  8  1  0
 11 10  1  0
 11 24  1  0
 11 12  1  0
 13  7  1  0
 13 12  1  0
 14  7  2  0
 15 17  1  0
 15 19  1  0
 16 19  1  0
 16 18  1  0
 19  2  1  0
 20 17  1  0
 20 18  1  0
 21 22  2  0
 22 41  1  0
 23 22  1  0
 23 26  1  0
 24 25  1  0
 24 21  1  0
 25 23  2  0
 26 27  1  0
 27 28  2  0
 29 32  1  0
 29 28  1  0
 30 29  2  0
 31 30  1  0
 31 26  2  0
 32 33  1  0
 33 38  2  0
 33 34  1  0
 34 35  2  0
 35 36  1  0
 36 40  1  0
 37 36  2  0
 38 37  1  0
 39 38  1  0
 41 42  1  0
 42 45  1  0
 42 44  1  0
 43 41  2  0
 46 47  1  0
 46 21  1  0
 48 46  1  0
 49 50  1  0
 49 51  1  0
 50 51  1  0
 53 54  1  0
 53 52  1  0
 55 54  1  0
 56  5  1  0
 57 56  1  0
 58 57  1  0
 58 59  1  0
 59 61  1  0
 60 71  2  0
 61 66  1  0
 62 70  1  0
 62 72  1  0
 63 69  1  0
 63 65  1  0
 64 70  1  0
 65 64  1  0
 66 65  2  0
 67 68  1  0
 67 61  2  0
 68 63  2  0
 69 62  1  0
 70 60  1  0
 72 74  2  0
 73 72  1  0
 75 73  1  0
 76 85  2  0
 76 81  1  0
 77 73  1  0
 77 81  1  0
 78 77  1  0
 79 80  1  0
 79 78  1  0
 80 76  1  0
 81 82  2  0
 82 83  1  0
 84 83  2  0
 85 84  1  0
 86 60  1  0
 86 87  1  0
 86 96  1  0
 87 90  1  0
 88 87  1  0
 88 92  1  0
 89 88  2  0
 92 91  1  0
 94 92  1  0
 94 95  1  0
 94 93  1  0
 96 99  1  1
 96 97  1  0
 98 96  1  0
M  ISO  4   7 100  20 100  58 101  59 101
M  END
>  <TORSDO>  (22) 
F 22

>  <SCORE>  (22) 
-10.153

>  <name>  (22) 
22

>  <ligand_id>  (22) 
22

>  <original_smiles>  (22) 
[H]OC([H])(c1c(C2([H])C([H])([H])C([H])([H])N(C(=O)N3C([H])([H])C([H])([H])C([H])([H])C([H])(n4nc(-c5c([H])c([H])c(Oc6c([H])c([H])c(F)c([H])c6F)c([H])c5[H])c(C(=O)N([H])[H])c4N([H])[H])C3([H])[H])C([H])([H])C2([H])[H])c([H])nc(OC([H])([H])C([H])([H])Oc2c([H])c([H])c3c(c2[H])C([H])([H])N(C(=O)C([H])(N([H])C(=O)C([H])(N([H])C([H])([H])[H])C([H])([H])[H])C(C([H])([H])[H])(C([H])([H])[H])C([H])([H])[H])C([H])(C(=O)N([H])C2([H])c4c([H])c([H])c([H])c([H])c4C([H])([H])C([H])([H])C2([H])[H])C3([H])[H])c1C1([H])C([H])([H])C1([H])[H])C([H])([H])[H]

>  <smiles>  (22) 
[H]OC([H])(c1c(C2([H])C([H])([H])C([H])([H])N(C(=O)N3C([H])([H])C([H])([H])C([H])([H])C([H])(n4nc(-c5c([H])c([H])c(Oc6c([H])c([H])c(F)c([H])c6F)c([H])c5[H])c(C(=O)N([H])[H])c4N([H])[H])C3([H])[H])C([H])([H])C2([H])[H])c([H])nc(OC([H])([H])C([H])([H])Oc2c([H])c([H])c3c(c2[H])C([H])([H])N(C(=O)C([H])(N([H])C(=O)C([H])(N([H])C([H])([H])[H])C([H])([H])[H])C(C([H])([H])[H])(C([H])([H])[H])C([H])([H])[H])C([H])(C(=O)N([H])C2([H])c4c([H])c([H])c([H])c([H])c4C([H])([H])C([H])([H])C2([H])[H])C3([H])[H])c1C1([H])C([H])([H])C1([H])[H])C([H])([H])[H]

$$$$
23:0:0
     RDKit          3D

 95105  0  0  1  0  0  0  0  0999 V2000
  -28.5110  -22.9050   19.6150 C   0  0  0  0  0  3  0  0  0  0  0  0
  -29.2470  -23.0430   21.8640 C   0  0  0  0  0  3  0  0  0  0  0  0
  -28.8140  -21.4910   19.5760 C   0  0  0  0  0  0  0  0  0  0  0  0
  -29.2940  -20.7880   20.7430 C   0  0  0  0  0  0  0  0  0  0  0  0
  -28.6620  -23.7260   20.7650 C   0  0  0  0  0  0  0  0  0  0  0  0
  -29.5370  -21.6420   21.8700 C   0  0  0  0  0  0  0  0  0  0  0  0
  -30.0550  -21.0700   23.1840 C   0  0  0  0  0  1  0  0  0  0  0  0
  -30.7480  -14.8370   20.4040 C   0  0  0  0  0  0  0  0  0  0  0  0
  -30.4350  -12.5660   19.4050 C   0  0  0  0  0  2  0  0  0  0  0  0
  -29.5040  -12.6000   18.1770 C   0  0  0  0  0  2  0  0  0  0  0  0
  -28.0440  -12.4000   18.6190 C   0  0  0  0  0  2  0  0  0  0  0  0
  -27.6570  -13.3180   19.8050 C   0  0  0  0  0  3  0  0  0  0  0  0
  -28.7240  -13.3320   20.9260 C   0  0  0  0  0  2  0  0  0  0  0  0
  -30.0140  -13.6660   20.3100 N   0  0  0  0  0  0  0  0  0  0  0  0
  -31.9420  -14.7910   20.0970 O   0  0  0  0  0  0  0  0  0  0  0  0
  -28.7240  -18.1650   20.0150 C   0  0  0  0  0  2  0  0  0  0  0  0
  -30.9390  -18.6230   20.8400 C   0  0  0  0  0  2  0  0  0  0  0  0
  -28.8600  -16.6270   20.3900 C   0  0  0  0  0  2  0  0  0  0  0  0
  -31.0590  -17.1440   21.3800 C   0  0  0  0  0  2  0  0  0  0  0  0
  -29.4990  -19.1880   20.8970 C   0  0  0  0  0  3  0  0  0  0  0  0
  -30.2020  -16.0820   20.7540 N   0  0  0  0  0  0  0  0  0  0  0  0
  -25.2860  -13.9230   20.5610 C   0  0  0  0  0  0  0  0  0  0  0  0
  -24.2170  -13.1520   20.9220 C   0  0  0  0  0  0  0  0  0  0  0  0
  -24.6730  -11.7990   20.8780 C   0  0  0  0  0  0  0  0  0  0  0  0
  -26.3220  -13.0370   20.3110 N   0  0  0  0  0  0  0  0  0  0  0  0
  -25.9630  -11.7550   20.5680 N   0  0  0  0  0  0  0  0  0  0  0  0
  -23.9430  -10.5390   21.0530 C   0  0  0  0  0  0  0  0  0  0  0  0
  -24.3620   -9.5670   21.9880 C   0  0  0  0  0  3  0  0  0  0  0  0
  -23.6320   -8.3700   22.1510 C   0  0  0  0  0  3  0  0  0  0  0  0
  -22.4690   -8.1380   21.3780 C   0  0  0  0  0  0  0  0  0  0  0  0
  -22.0700   -9.0980   20.4320 C   0  0  0  0  0  3  0  0  0  0  0  0
  -22.8010  -10.2860   20.2660 C   0  0  0  0  0  3  0  0  0  0  0  0
  -21.7110   -6.9950   21.4520 O   0  0  0  0  0  0  0  0  0  0  0  0
  -21.6240   -6.2630   22.6090 C   0  0  0  0  0  0  0  0  0  0  0  0
  -21.1340   -6.8220   23.8090 C   0  0  0  0  0  3  0  0  0  0  0  0
  -20.9970   -6.0160   24.9570 C   0  0  0  0  0  3  0  0  0  0  0  0
  -21.3400   -4.6510   24.9040 C   0  0  0  0  0  0  0  0  0  0  0  0
  -21.8230   -4.0920   23.7070 C   0  0  0  0  0  3  0  0  0  0  0  0
  -21.9620   -4.8950   22.5620 C   0  0  0  0  0  0  0  0  0  0  0  0
  -22.4080   -4.3470   21.4070 F   0  0  0  0  0  0  0  0  0  0  0  0
  -21.2000   -3.8740   26.0020 F   0  0  0  0  0  0  0  0  0  0  0  0
  -22.8220  -13.6350   21.1980 C   0  0  0  0  0  0  0  0  0  0  0  0
  -22.0920  -12.9330   22.0570 N   0  0  0  0  0  0  0  0  0  0  0  0
  -22.3900  -14.6670   20.6860 O   0  0  0  0  0  0  0  0  0  0  0  0
  -22.4540  -12.0980   22.4920 H   0  0  0  0  0  0  0  0  0  0  0  0
  -21.1560  -13.2380   22.2840 H   0  0  0  0  0  0  0  0  0  0  0  0
  -25.4570  -15.2950   20.3970 N   0  0  0  0  0  0  0  0  0  0  0  0
  -24.6940  -15.9510   20.5240 H   0  0  0  0  0  0  0  0  0  0  0  0
  -26.3100  -15.7360   20.0780 H   0  0  0  0  0  0  0  0  0  0  0  0
  -27.8080  -21.3120   17.1000 C   0  0  0  0  0  2  0  0  0  0  0  0
  -27.2530  -20.1740   17.9160 C   0  0  0  0  0  2  0  0  0  0  0  0
  -28.6020  -20.7590   18.2740 C   0  0  0  0  0  3  0  0  0  0  0  0
  -27.7340  -25.4910   22.4380 C   0  0  0  0  0  1  0  0  0  0  0  0
  -27.9240  -25.1410   20.9430 C   0  0  0  0  0  3  0  0  0  0  0  0
  -28.3180  -26.4230   20.2600 O   0  0  0  0  0  0  0  0  0  0  0  0
  -24.6300  -31.9090   23.2290 C   0  0  0  0  0  0  0  0  0  0  0  0
  -27.2690  -27.3650   20.1520 C   0  0  0  0  0  0  0  0  0  0  0  0
  -23.4380  -30.5070   21.5850 C   0  0  0  0  0  3  0  0  0  0  0  0
  -24.9030  -28.9840   20.1400 C   0  0  0  0  0  0  0  0  0  0  0  0
  -25.9760  -30.8430   21.4040 C   0  0  0  0  0  2  0  0  0  0  0  0
  -26.0710  -29.4690   20.7460 C   0  0  0  0  0  0  0  0  0  0  0  0
  -27.2590  -28.6710   20.7460 C   0  0  0  0  0  3  0  0  0  0  0  0
  -26.0920  -26.9650   19.4840 C   0  0  0  0  0  3  0  0  0  0  0  0
  -24.9180  -27.7390   19.4950 C   0  0  0  0  0  3  0  0  0  0  0  0
  -23.6570  -29.8440   20.2000 C   0  0  0  0  0  2  0  0  0  0  0  0
  -24.7000  -31.1040   22.1290 N   0  0  0  0  0  0  0  0  0  0  0  0
  -23.5440  -32.1740   23.7670 O   0  0  0  0  0  0  0  0  0  0  0  0
  -22.7860  -29.4780   22.5420 C   0  0  0  0  0  0  0  0  0  0  0  0
  -21.4600  -29.2920   22.4180 N   0  0  0  0  0  0  0  0  0  0  0  0
  -23.4700  -28.8550   23.3550 O   0  0  0  0  0  0  0  0  0  0  0  0
  -20.9650  -29.8480   21.7370 H   0  0  0  0  0  0  0  0  0  0  0  0
  -18.0920  -28.0700   22.9320 C   0  0  0  0  0  0  0  0  0  0  0  0
  -20.6510  -28.3430   23.1880 C   0  0  0  0  0  3  0  0  0  0  0  0
  -20.7580  -26.9160   22.6020 C   0  0  0  0  0  2  0  0  0  0  0  0
  -19.6520  -26.5940   21.5920 C   0  0  0  0  0  2  0  0  0  0  0  0
  -18.2730  -26.7270   22.2450 C   0  0  0  0  0  2  0  0  0  0  0  0
  -19.2090  -28.8370   23.3590 C   0  0  0  0  0  0  0  0  0  0  0  0
  -18.9850  -30.0940   23.9620 C   0  0  0  0  0  3  0  0  0  0  0  0
  -17.6780  -30.5850   24.1390 C   0  0  0  0  0  3  0  0  0  0  0  0
  -16.5760  -29.8160   23.7260 C   0  0  0  0  0  3  0  0  0  0  0  0
  -16.7840  -28.5600   23.1290 C   0  0  0  0  0  3  0  0  0  0  0  0
  -25.9070  -32.5510   23.8510 C   0  0  0  0  0  3  0  0  0  0  0  0
  -25.5860  -33.9460   24.1850 N   0  0  0  0  0  0  0  0  0  0  0  0
  -25.9000  -35.0040   23.4250 C   0  0  0  0  0  0  0  0  0  0  0  0
  -26.5610  -34.9080   22.3870 O   0  0  0  0  0  0  0  0  0  0  0  0
  -24.9970  -34.0940   24.9920 H   0  0  0  0  0  0  0  0  0  0  0  0
  -24.1530  -36.7830   23.0860 C   0  0  0  0  0  1  0  0  0  0  0  0
  -25.4040  -36.3870   23.8880 C   0  0  0  0  0  3  0  0  0  0  0  0
  -27.5330  -37.2940   24.7080 C   0  0  0  0  0  1  0  0  0  0  0  0
  -26.4250  -37.4500   23.7690 N   0  0  0  0  0  0  0  0  0  0  0  0
  -26.0110  -38.3670   23.9160 H   0  0  0  0  0  0  0  0  0  0  0  0
  -26.4290  -31.7830   25.1270 C   0  0  1  0  0  0  0  0  0  0  0  0
  -25.3380  -31.5340   26.1940 C   0  0  0  0  0  1  0  0  0  0  0  0
  -27.0250  -30.4100   24.7350 C   0  0  0  0  0  1  0  0  0  0  0  0
  -27.5730  -32.5860   25.7900 C   0  0  0  0  0  1  0  0  0  0  0  0
  1  5  1  0
  2  6  1  0
  3  1  2  0
  3  4  1  0
  4  6  2  0
  5 54  1  0
  5  2  2  0
  6  7  1  0
  8 21  1  0
  9 14  1  0
 10 11  1  0
 10  9  1  0
 12 11  1  0
 12 25  1  0
 12 13  1  0
 14  8  1  0
 14 13  1  0
 15  8  2  0
 16 18  1  0
 16 20  1  0
 17 20  1  0
 17 19  1  0
 18 21  1  0
 20  4  1  0
 21 19  1  0
 22 23  2  0
 23 42  1  0
 24 23  1  0
 24 27  1  0
 25 22  1  0
 25 26  1  0
 26 24  2  0
 27 28  1  0
 28 29  2  0
 30 33  1  0
 30 29  1  0
 31 30  2  0
 32 31  1  0
 32 27  2  0
 33 34  1  0
 34 35  1  0
 35 36  2  0
 37 36  1  0
 37 41  1  0
 38 37  2  0
 39 34  2  0
 39 38  1  0
 40 39  1  0
 42 43  1  0
 43 46  1  0
 43 45  1  0
 44 42  2  0
 47 48  1  0
 47 22  1  0
 49 47  1  0
 50 51  1  0
 50 52  1  0
 51 52  1  0
 52  3  1  0
 54 53  1  0
 55 54  1  0
 56 67  2  0
 57 55  1  0
 57 62  1  0
 58 66  1  0
 58 68  1  0
 59 65  1  0
 59 61  1  0
 60 66  1  0
 61 60  1  0
 62 61  2  0
 63 64  1  0
 63 57  2  0
 64 59  2  0
 65 58  1  0
 66 56  1  0
 68 70  2  0
 69 68  1  0
 71 69  1  0
 72 81  2  0
 72 77  1  0
 73 69  1  0
 73 77  1  0
 74 73  1  0
 75 76  1  0
 75 74  1  0
 76 72  1  0
 77 78  2  0
 78 79  1  0
 80 79  2  0
 81 80  1  0
 82 56  1  0
 82 83  1  0
 82 92  1  0
 83 86  1  0
 84 88  1  0
 84 83  1  0
 85 84  2  0
 88 87  1  0
 90 88  1  0
 90 91  1  0
 90 89  1  0
 92 95  1  1
 92 93  1  0
 94 92  1  0
M  ISO  4   8 100  21 100  54 101  55 101
M  END
>  <TORSDO>  (23) 
F 18

>  <SCORE>  (23) 
-14.974

>  <name>  (23) 
23

>  <ligand_id>  (23) 
23

>  <original_smiles>  (23) 
[H]c1c([H])c([H])c2c(c1[H])C([H])([H])C([H])([H])C([H])([H])C2([H])N([H])C(=O)C1([H])N(C(=O)C([H])(N([H])C(=O)C([H])(N([H])C([H])([H])[H])C([H])([H])[H])C(C([H])([H])[H])(C([H])([H])[H])C([H])([H])[H])C([H])([H])c2c([H])c(OC([H])(c3c([H])c(C([H])([H])[H])c(C4([H])C([H])([H])C([H])([H])N(C(=O)N5C([H])([H])C([H])([H])C([H])([H])C([H])(n6nc(-c7c([H])c([H])c(Oc8c([H])c([H])c(F)c([H])c8F)c([H])c7[H])c(C(=O)N([H])[H])c6N([H])[H])C5([H])[H])C([H])([H])C4([H])[H])c(C4([H])C([H])([H])C4([H])[H])c3[H])C([H])([H])[H])c([H])c([H])c2C1([H])[H]

>  <smiles>  (23) 
[H]c1c([H])c([H])c2c(c1[H])C([H])([H])C([H])([H])C([H])([H])C2([H])N([H])C(=O)C1([H])N(C(=O)C([H])(N([H])C(=O)C([H])(N([H])C([H])([H])[H])C([H])([H])[H])C(C([H])([H])[H])(C([H])([H])[H])C([H])([H])[H])C([H])([H])c2c([H])c(OC([H])(c3c([H])c(C([H])([H])[H])c(C4([H])C([H])([H])C([H])([H])N(C(=O)N5C([H])([H])C([H])([H])C([H])([H])C([H])(n6nc(-c7c([H])c([H])c(Oc8c([H])c([H])c(F)c([H])c8F)c([H])c7[H])c(C(=O)N([H])[H])c6N([H])[H])C5([H])[H])C([H])([H])C4([H])[H])c(C4([H])C([H])([H])C4([H])[H])c3[H])C([H])([H])[H])c([H])c([H])c2C1([H])[H]

$$$$
24:0:0
     RDKit          3D

 95104  0  0  1  0  0  0  0  0999 V2000
  -26.8970  -21.1240   18.5630 C   0  0  0  0  0  2  0  0  0  0  0  0
  -28.1620  -20.9630   17.7150 C   0  0  0  0  0  2  0  0  0  0  0  0
  -27.3400  -21.0880   20.0290 C   0  0  0  0  0  2  0  0  0  0  0  0
  -29.3290  -21.4450   18.5850 C   0  0  0  0  0  2  0  0  0  0  0  0
  -28.8430  -21.4700   20.0650 C   0  0  2  0  0  0  0  0  0  0  0  0
  -30.6340  -14.7070   20.3360 C   0  0  0  0  0  0  0  0  0  0  0  0
  -30.3700  -12.4390   19.3500 C   0  0  0  0  0  2  0  0  0  0  0  0
  -29.4460  -12.5540   18.1220 C   0  0  0  0  0  2  0  0  0  0  0  0
  -27.9870  -12.3500   18.5660 C   0  0  0  0  0  2  0  0  0  0  0  0
  -27.6130  -13.2630   19.7670 C   0  0  0  0  0  3  0  0  0  0  0  0
  -28.6660  -13.2090   20.8930 C   0  0  0  0  0  2  0  0  0  0  0  0
  -29.9700  -13.5070   20.2900 N   0  0  0  0  0  0  0  0  0  0  0  0
  -31.8160  -14.7790   19.9870 O   0  0  0  0  0  0  0  0  0  0  0  0
  -29.6980  -20.4130   20.9100 C   0  0  0  0  0  0  0  0  0  0  0  0
  -30.8510  -18.2070   21.2640 C   0  0  0  0  0  3  0  0  0  0  0  0
  -28.7480  -18.1230   20.0790 C   0  0  0  0  0  3  0  0  0  0  0  0
  -30.4740  -16.7460   21.7110 C   0  0  0  0  0  3  0  0  0  0  0  0
  -29.3260  -16.7280   19.5830 C   0  0  0  0  0  3  0  0  0  0  0  0
  -29.7370  -19.0260   20.7230 N   0  0  0  0  0  0  0  0  0  0  0  0
  -29.9340  -15.8660   20.6460 N   0  0  0  0  0  0  0  0  0  0  0  0
  -30.4390  -20.9250   21.7590 O   0  0  0  0  0  0  0  0  0  0  0  0
  -25.2460  -13.8760   20.5170 C   0  0  0  0  0  0  0  0  0  0  0  0
  -24.1730  -13.1080   20.8820 C   0  0  0  0  0  0  0  0  0  0  0  0
  -24.6300  -11.7550   20.8470 C   0  0  0  0  0  0  0  0  0  0  0  0
  -26.2750  -12.9860   20.2650 N   0  0  0  0  0  0  0  0  0  0  0  0
  -25.9170  -11.7060   20.5340 N   0  0  0  0  0  0  0  0  0  0  0  0
  -23.9010  -10.4970   21.0340 C   0  0  0  0  0  0  0  0  0  0  0  0
  -24.3240   -9.5330   21.9740 C   0  0  0  0  0  3  0  0  0  0  0  0
  -23.5970   -8.3360   22.1480 C   0  0  0  0  0  3  0  0  0  0  0  0
  -22.4360   -8.0930   21.3770 C   0  0  0  0  0  0  0  0  0  0  0  0
  -22.0340   -9.0440   20.4240 C   0  0  0  0  0  3  0  0  0  0  0  0
  -22.7580  -10.2330   20.2500 C   0  0  0  0  0  3  0  0  0  0  0  0
  -21.6800   -6.9500   21.4580 O   0  0  0  0  0  0  0  0  0  0  0  0
  -21.5990   -6.2230   22.6180 C   0  0  0  0  0  0  0  0  0  0  0  0
  -21.1100   -6.7850   23.8170 C   0  0  0  0  0  3  0  0  0  0  0  0
  -20.9800   -5.9830   24.9670 C   0  0  0  0  0  3  0  0  0  0  0  0
  -21.3260   -4.6200   24.9190 C   0  0  0  0  0  0  0  0  0  0  0  0
  -21.8060   -4.0570   23.7240 C   0  0  0  0  0  3  0  0  0  0  0  0
  -21.9390   -4.8560   22.5750 C   0  0  0  0  0  0  0  0  0  0  0  0
  -22.3840   -4.3040   21.4210 F   0  0  0  0  0  0  0  0  0  0  0  0
  -21.1920   -3.8440   26.0230 F   0  0  0  0  0  0  0  0  0  0  0  0
  -22.7810  -13.5910   21.1610 C   0  0  0  0  0  0  0  0  0  0  0  0
  -22.0490  -12.8870   22.0210 N   0  0  0  0  0  0  0  0  0  0  0  0
  -22.3480  -14.6230   20.6520 O   0  0  0  0  0  0  0  0  0  0  0  0
  -22.4100  -12.0490   22.4530 H   0  0  0  0  0  0  0  0  0  0  0  0
  -21.1150  -13.1930   22.2480 H   0  0  0  0  0  0  0  0  0  0  0  0
  -25.4340  -15.2450   20.3570 N   0  0  0  0  0  0  0  0  0  0  0  0
  -24.7080  -15.9320   20.5280 H   0  0  0  0  0  0  0  0  0  0  0  0
  -26.3160  -15.6630   20.0860 H   0  0  0  0  0  0  0  0  0  0  0  0
  -28.4360  -24.0760   20.1310 C   0  0  0  0  0  0  0  0  0  0  0  0
  -28.9400  -22.8880   20.6190 N   0  0  0  0  0  0  0  0  0  0  0  0
  -27.9230  -24.1390   19.0130 O   0  0  0  0  0  0  0  0  0  0  0  0
  -29.4030  -22.9280   21.5210 H   0  0  0  0  0  0  0  0  0  0  0  0
  -28.4440  -25.4000   20.9830 C   0  0  0  0  0  2  0  0  0  0  0  0
  -28.4210  -26.6420   20.1950 O   0  0  0  0  0  0  0  0  0  0  0  0
  -24.6010  -31.9100   23.2400 C   0  0  0  0  0  0  0  0  0  0  0  0
  -27.2620  -27.4140   20.2080 C   0  0  0  0  0  0  0  0  0  0  0  0
  -23.4050  -30.5100   21.5900 C   0  0  0  0  0  3  0  0  0  0  0  0
  -24.8700  -28.9610   20.1770 C   0  0  0  0  0  0  0  0  0  0  0  0
  -25.9350  -30.8540   21.4100 C   0  0  0  0  0  2  0  0  0  0  0  0
  -26.0260  -29.4770   20.7740 C   0  0  0  0  0  0  0  0  0  0  0  0
  -27.2250  -28.7140   20.7810 C   0  0  0  0  0  3  0  0  0  0  0  0
  -26.0880  -26.9300   19.5930 C   0  0  0  0  0  3  0  0  0  0  0  0
  -24.8990  -27.6890   19.5770 C   0  0  0  0  0  3  0  0  0  0  0  0
  -23.6240  -29.8230   20.2140 C   0  0  0  0  0  2  0  0  0  0  0  0
  -24.6650  -31.1080   22.1380 N   0  0  0  0  0  0  0  0  0  0  0  0
  -23.5160  -32.1840   23.7720 O   0  0  0  0  0  0  0  0  0  0  0  0
  -22.7410  -29.4930   22.5490 C   0  0  0  0  0  0  0  0  0  0  0  0
  -21.4140  -29.3250   22.4210 N   0  0  0  0  0  0  0  0  0  0  0  0
  -23.4180  -28.8560   23.3610 O   0  0  0  0  0  0  0  0  0  0  0  0
  -20.9300  -29.8910   21.7380 H   0  0  0  0  0  0  0  0  0  0  0  0
  -18.0270  -28.1700   22.9240 C   0  0  0  0  0  0  0  0  0  0  0  0
  -20.5880  -28.3890   23.1850 C   0  0  0  0  0  3  0  0  0  0  0  0
  -20.6690  -26.9650   22.5880 C   0  0  0  0  0  2  0  0  0  0  0  0
  -19.5560  -26.6700   21.5770 C   0  0  0  0  0  2  0  0  0  0  0  0
  -18.1800  -26.8280   22.2310 C   0  0  0  0  0  2  0  0  0  0  0  0
  -19.1580  -28.9110   23.3570 C   0  0  0  0  0  0  0  0  0  0  0  0
  -18.9600  -30.1710   23.9630 C   0  0  0  0  0  3  0  0  0  0  0  0
  -17.6620  -30.6890   24.1420 C   0  0  0  0  0  3  0  0  0  0  0  0
  -16.5460  -29.9430   23.7260 C   0  0  0  0  0  3  0  0  0  0  0  0
  -16.7290  -28.6860   23.1220 C   0  0  0  0  0  3  0  0  0  0  0  0
  -25.8820  -32.5390   23.8720 C   0  0  0  0  0  3  0  0  0  0  0  0
  -25.5750  -33.9370   24.2030 N   0  0  0  0  0  0  0  0  0  0  0  0
  -25.9060  -34.9890   23.4440 C   0  0  0  0  0  0  0  0  0  0  0  0
  -26.5720  -34.8850   22.4090 O   0  0  0  0  0  0  0  0  0  0  0  0
  -24.9880  -34.0920   25.0090 H   0  0  0  0  0  0  0  0  0  0  0  0
  -24.1790  -36.7820   23.0870 C   0  0  0  0  0  1  0  0  0  0  0  0
  -25.4180  -36.3760   23.9010 C   0  0  0  0  0  3  0  0  0  0  0  0
  -27.5470  -37.2600   24.7430 C   0  0  0  0  0  1  0  0  0  0  0  0
  -26.4500  -37.4290   23.7950 N   0  0  0  0  0  0  0  0  0  0  0  0
  -26.0420  -38.3480   23.9420 H   0  0  0  0  0  0  0  0  0  0  0  0
  -26.3930  -31.7620   25.1470 C   0  0  1  0  0  0  0  0  0  0  0  0
  -25.2950  -31.5180   26.2090 C   0  0  0  0  0  1  0  0  0  0  0  0
  -26.9760  -30.3870   24.7490 C   0  0  0  0  0  1  0  0  0  0  0  0
  -27.5430  -32.5520   25.8180 C   0  0  0  0  0  1  0  0  0  0  0  0
  1  3  1  0
  2  1  1  0
  2  4  1  0
  3  5  1  0
  4  5  1  0
  5 51  1  1
  5 14  1  0
  6 20  1  0
  7 12  1  0
  8  9  1  0
  8  7  1  0
 10  9  1  0
 10 25  1  0
 10 11  1  0
 12  6  1  0
 12 11  1  0
 13  6  2  0
 14 21  2  0
 15 17  2  0
 16 19  1  0
 18 16  2  0
 18 20  1  0
 19 14  1  0
 19 15  1  0
 20 17  1  0
 22 23  2  0
 23 42  1  0
 24 23  1  0
 24 27  1  0
 25 22  1  0
 25 26  1  0
 26 24  2  0
 27 28  1  0
 28 29  2  0
 30 33  1  0
 30 29  1  0
 31 30  2  0
 32 31  1  0
 32 27  2  0
 33 34  1  0
 34 35  1  0
 35 36  2  0
 37 36  1  0
 37 41  1  0
 38 37  2  0
 39 34  2  0
 39 38  1  0
 40 39  1  0
 42 43  1  0
 43 46  1  0
 43 45  1  0
 44 42  2  0
 47 22  1  0
 47 48  1  0
 49 47  1  0
 50 51  1  0
 50 54  1  0
 51 53  1  0
 52 50  2  0
 55 57  1  0
 55 54  1  0
 56 67  2  0
 57 62  1  0
 58 66  1  0
 58 68  1  0
 59 65  1  0
 59 61  1  0
 60 66  1  0
 61 62  2  0
 61 60  1  0
 63 57  2  0
 64 63  1  0
 64 59  2  0
 65 58  1  0
 66 56  1  0
 68 70  2  0
 69 68  1  0
 71 69  1  0
 72 81  2  0
 72 77  1  0
 73 69  1  0
 73 77  1  0
 74 73  1  0
 75 76  1  0
 75 74  1  0
 76 72  1  0
 77 78  2  0
 78 79  1  0
 80 79  2  0
 81 80  1  0
 82 56  1  0
 82 83  1  0
 82 92  1  0
 83 86  1  0
 84 88  1  0
 84 83  1  0
 85 84  2  0
 88 87  1  0
 90 88  1  0
 90 91  1  0
 90 89  1  0
 92 95  1  1
 92 93  1  0
 94 92  1  0
M  ISO  4   6 100  20 100  54 101  55 101
M  END
>  <TORSDO>  (24) 
F 18

>  <SCORE>  (24) 
-15.043

>  <name>  (24) 
24

>  <ligand_id>  (24) 
24

>  <original_smiles>  (24) 
[H]c1c([H])c([H])c2c(c1[H])C([H])([H])C([H])([H])C([H])([H])C2([H])N([H])C(=O)C1([H])N(C(=O)C([H])(N([H])C(=O)C([H])(N([H])C([H])([H])[H])C([H])([H])[H])C(C([H])([H])[H])(C([H])([H])[H])C([H])([H])[H])C([H])([H])c2c([H])c(OC([H])([H])C(=O)N([H])C3(C(=O)N4C([H])([H])C([H])([H])N(C(=O)N5C([H])([H])C([H])([H])C([H])([H])C([H])(n6nc(-c7c([H])c([H])c(Oc8c([H])c([H])c(F)c([H])c8F)c([H])c7[H])c(C(=O)N([H])[H])c6N([H])[H])C5([H])[H])C([H])([H])C4([H])[H])C([H])([H])C([H])([H])C([H])([H])C3([H])[H])c([H])c([H])c2C1([H])[H]

>  <smiles>  (24) 
[H]c1c([H])c([H])c2c(c1[H])C([H])([H])C([H])([H])C([H])([H])C2([H])N([H])C(=O)C1([H])N(C(=O)C([H])(N([H])C(=O)C([H])(N([H])C([H])([H])[H])C([H])([H])[H])C(C([H])([H])[H])(C([H])([H])[H])C([H])([H])[H])C([H])([H])c2c([H])c(OC([H])([H])C(=O)N([H])C3(C(=O)N4C([H])([H])C([H])([H])N(C(=O)N5C([H])([H])C([H])([H])C([H])([H])C([H])(n6nc(-c7c([H])c([H])c(Oc8c([H])c([H])c(F)c([H])c8F)c([H])c7[H])c(C(=O)N([H])[H])c6N([H])[H])C5([H])[H])C([H])([H])C4([H])[H])C([H])([H])C([H])([H])C([H])([H])C3([H])[H])c([H])c([H])c2C1([H])[H]

$$$$
25:0:0
     RDKit          3D

 98107  0  0  1  0  0  0  0  0999 V2000
  -29.2550  -21.0020   21.2260 C   0  0  0  0  0  3  0  0  0  0  0  0
  -29.6090  -20.3130   20.0460 C   0  0  0  0  0  0  0  0  0  0  0  0
  -28.7960  -22.3370   21.2070 C   0  0  0  0  0  0  0  0  0  0  0  0
  -29.5540  -21.0360   18.8190 C   0  0  0  0  0  0  0  0  0  0  0  0
  -28.9660  -22.3370   18.7690 C   0  0  0  0  0  0  0  0  0  0  0  0
  -28.5760  -23.0090   19.9710 C   0  0  0  0  0  0  0  0  0  0  0  0
  -28.5000  -22.9920   22.5490 C   0  0  0  0  0  1  0  0  0  0  0  0
  -30.1250  -20.4270   17.5360 C   0  0  0  0  0  1  0  0  0  0  0  0
  -28.7150  -22.9980   17.4070 C   0  0  0  0  0  1  0  0  0  0  0  0
  -30.9410  -14.6750   20.1950 C   0  0  0  0  0  0  0  0  0  0  0  0
  -30.5560  -12.5000   19.1150 C   0  0  0  0  0  2  0  0  0  0  0  0
  -29.6060  -12.6950   17.9160 C   0  0  0  0  0  2  0  0  0  0  0  0
  -28.1390  -12.5800   18.3700 C   0  0  0  0  0  2  0  0  0  0  0  0
  -27.8220  -13.4370   19.6260 C   0  0  0  0  0  3  0  0  0  0  0  0
  -28.9010  -13.2760   20.7200 C   0  0  0  0  0  2  0  0  0  0  0  0
  -30.2120  -13.5300   20.1080 N   0  0  0  0  0  0  0  0  0  0  0  0
  -32.1200  -14.7350   19.8290 O   0  0  0  0  0  0  0  0  0  0  0  0
  -30.2340  -18.1840   21.4970 C   0  0  0  0  0  2  0  0  0  0  0  0
  -29.1610  -17.8560   19.3430 C   0  0  0  0  0  2  0  0  0  0  0  0
  -30.8650  -16.7650   21.4100 C   0  0  0  0  0  2  0  0  0  0  0  0
  -29.8840  -16.5120   19.1530 C   0  0  0  0  0  2  0  0  0  0  0  0
  -30.0750  -18.8340   20.1060 C   0  0  0  0  0  3  0  0  0  0  0  0
  -30.2660  -15.8360   20.4140 N   0  0  0  0  0  0  0  0  0  0  0  0
  -25.4490  -14.0670   20.3800 C   0  0  0  0  0  0  0  0  0  0  0  0
  -24.3780  -13.3030   20.7600 C   0  0  0  0  0  0  0  0  0  0  0  0
  -24.8230  -11.9480   20.7190 C   0  0  0  0  0  0  0  0  0  0  0  0
  -26.4800  -13.1720   20.1320 N   0  0  0  0  0  0  0  0  0  0  0  0
  -26.1090  -11.8930   20.3950 N   0  0  0  0  0  0  0  0  0  0  0  0
  -24.0860  -10.6930   20.9120 C   0  0  0  0  0  0  0  0  0  0  0  0
  -24.4890   -9.7420   21.8770 C   0  0  0  0  0  3  0  0  0  0  0  0
  -23.7530   -8.5520   22.0580 C   0  0  0  0  0  3  0  0  0  0  0  0
  -22.6000   -8.3040   21.2750 C   0  0  0  0  0  0  0  0  0  0  0  0
  -22.2180   -9.2430   20.3000 C   0  0  0  0  0  3  0  0  0  0  0  0
  -22.9550  -10.4230   20.1170 C   0  0  0  0  0  3  0  0  0  0  0  0
  -21.8390   -7.1640   21.3660 O   0  0  0  0  0  0  0  0  0  0  0  0
  -21.7320   -6.4600   22.5380 C   0  0  0  0  0  0  0  0  0  0  0  0
  -21.1870   -7.0360   23.7070 C   0  0  0  0  0  3  0  0  0  0  0  0
  -21.0330   -6.2550   24.8700 C   0  0  0  0  0  3  0  0  0  0  0  0
  -21.4130   -4.8990   24.8650 C   0  0  0  0  0  0  0  0  0  0  0  0
  -21.9510   -4.3240   23.7000 C   0  0  0  0  0  3  0  0  0  0  0  0
  -22.1070   -5.1020   22.5400 C   0  0  0  0  0  0  0  0  0  0  0  0
  -22.6060   -4.5360   21.4150 F   0  0  0  0  0  0  0  0  0  0  0  0
  -21.2570   -4.1480   25.9790 F   0  0  0  0  0  0  0  0  0  0  0  0
  -22.9890  -13.7950   21.0530 C   0  0  0  0  0  0  0  0  0  0  0  0
  -22.2670  -13.1040   21.9280 N   0  0  0  0  0  0  0  0  0  0  0  0
  -22.5550  -14.8290   20.5450 O   0  0  0  0  0  0  0  0  0  0  0  0
  -22.6300  -12.2660   22.3580 H   0  0  0  0  0  0  0  0  0  0  0  0
  -21.3370  -13.4160   22.1700 H   0  0  0  0  0  0  0  0  0  0  0  0
  -25.6270  -15.4360   20.2050 N   0  0  0  0  0  0  0  0  0  0  0  0
  -24.8770  -16.1040   20.3360 H   0  0  0  0  0  0  0  0  0  0  0  0
  -26.4920  -15.8640   19.9020 H   0  0  0  0  0  0  0  0  0  0  0  0
  -27.8310  -24.3810   19.9180 C   0  0  0  0  0  3  0  0  0  0  0  0
  -25.6800  -22.8160   19.8090 C   0  0  0  0  0  1  0  0  0  0  0  0
  -26.2690  -24.2100   20.1010 C   0  0  0  0  0  3  0  0  0  0  0  0
  -25.7900  -24.6000   21.3780 O   0  0  0  0  0  0  0  0  0  0  0  0
  -25.8440  -25.5510   21.4290 H   0  0  0  0  0  0  0  0  0  0  0  0
  -28.5360  -25.5640   20.6870 C   0  0  0  0  0  2  0  0  0  0  0  0
  -28.5940  -26.8710   20.0590 O   0  0  0  0  0  0  0  0  0  0  0  0
  -24.6460  -31.8650   23.3210 C   0  0  0  0  0  0  0  0  0  0  0  0
  -27.4420  -27.6250   20.0810 C   0  0  0  0  0  0  0  0  0  0  0  0
  -23.5050  -30.5190   21.5860 C   0  0  0  0  0  3  0  0  0  0  0  0
  -25.0250  -29.0930   20.1150 C   0  0  0  0  0  0  0  0  0  0  0  0
  -26.0280  -30.9330   21.4680 C   0  0  0  0  0  2  0  0  0  0  0  0
  -26.1570  -29.5930   20.7730 C   0  0  0  0  0  0  0  0  0  0  0  0
  -27.3680  -28.8580   20.7720 C   0  0  0  0  0  3  0  0  0  0  0  0
  -26.3230  -27.1990   19.3440 C   0  0  0  0  0  3  0  0  0  0  0  0
  -25.1020  -27.8920   19.3960 C   0  0  0  0  0  3  0  0  0  0  0  0
  -23.7600  -29.9190   20.1780 C   0  0  0  0  0  2  0  0  0  0  0  0
  -24.7430  -31.1180   22.1850 N   0  0  0  0  0  0  0  0  0  0  0  0
  -23.5470  -32.0860   23.8490 O   0  0  0  0  0  0  0  0  0  0  0  0
  -22.8630  -29.4330   22.4810 C   0  0  0  0  0  0  0  0  0  0  0  0
  -21.5430  -29.2360   22.3280 N   0  0  0  0  0  0  0  0  0  0  0  0
  -23.5490  -28.7710   23.2640 O   0  0  0  0  0  0  0  0  0  0  0  0
  -21.0490  -29.8240   21.6720 H   0  0  0  0  0  0  0  0  0  0  0  0
  -18.1710  -28.0170   22.7760 C   0  0  0  0  0  0  0  0  0  0  0  0
  -20.7340  -28.2450   23.0360 C   0  0  0  0  0  3  0  0  0  0  0  0
  -20.8240  -26.8600   22.3550 C   0  0  0  0  0  2  0  0  0  0  0  0
  -19.7080  -26.6170   21.3340 C   0  0  0  0  0  2  0  0  0  0  0  0
  -18.3330  -26.7200   22.0020 C   0  0  0  0  0  2  0  0  0  0  0  0
  -19.2980  -28.7420   23.2470 C   0  0  0  0  0  0  0  0  0  0  0  0
  -19.0910  -29.9600   23.9310 C   0  0  0  0  0  3  0  0  0  0  0  0
  -17.7900  -30.4520   24.1500 C   0  0  0  0  0  3  0  0  0  0  0  0
  -16.6790  -29.7220   23.6940 C   0  0  0  0  0  3  0  0  0  0  0  0
  -16.8690  -28.5070   23.0130 C   0  0  0  0  0  3  0  0  0  0  0  0
  -25.9050  -32.4950   23.9940 C   0  0  0  0  0  3  0  0  0  0  0  0
  -26.3600  -31.7310   25.2970 C   0  0  1  0  0  0  0  0  0  0  0  0
  -25.2130  -31.4890   26.3040 C   0  0  0  0  0  1  0  0  0  0  0  0
  -26.9720  -30.3560   24.9390 C   0  0  0  0  0  1  0  0  0  0  0  0
  -27.4690  -32.5340   26.0160 C   0  0  0  0  0  1  0  0  0  0  0  0
  -25.5910  -33.8970   24.2950 N   0  0  0  0  0  0  0  0  0  0  0  0
  -25.9310  -34.9360   23.5200 C   0  0  0  0  0  0  0  0  0  0  0  0
  -26.6140  -34.8150   22.4990 O   0  0  0  0  0  0  0  0  0  0  0  0
  -24.9970  -34.0680   25.0930 H   0  0  0  0  0  0  0  0  0  0  0  0
  -24.1910  -36.7050   23.1160 C   0  0  0  0  0  1  0  0  0  0  0  0
  -25.4340  -36.3310   23.9420 C   0  0  0  0  0  3  0  0  0  0  0  0
  -27.5490  -37.2570   24.7760 C   0  0  0  0  0  1  0  0  0  0  0  0
  -26.4590  -37.3890   23.8110 N   0  0  0  0  0  0  0  0  0  0  0  0
  -26.0430  -38.3100   23.9270 H   0  0  0  0  0  0  0  0  0  0  0  0
  2  1  2  0
  3  1  1  0
  3  7  1  0
  4  2  1  0
  5  4  2  0
  5  6  1  0
  6  3  2  0
  8  4  1  0
  9  5  1  0
 10 23  1  0
 11 16  1  0
 12 13  1  0
 12 11  1  0
 14 13  1  0
 14 27  1  0
 14 15  1  0
 16 10  1  0
 16 15  1  0
 17 10  2  0
 19 22  1  0
 20 18  1  0
 21 19  1  0
 21 23  1  0
 22  2  1  0
 22 18  1  0
 23 20  1  0
 24 25  2  0
 25 44  1  0
 26 25  1  0
 26 29  1  0
 27 24  1  0
 27 28  1  0
 28 26  2  0
 29 30  1  0
 30 31  2  0
 32 35  1  0
 32 31  1  0
 33 32  2  0
 34 33  1  0
 34 29  2  0
 35 36  1  0
 36 41  2  0
 36 37  1  0
 37 38  2  0
 39 38  1  0
 39 43  1  0
 40 39  2  0
 41 40  1  0
 42 41  1  0
 44 45  1  0
 45 48  1  0
 45 47  1  0
 46 44  2  0
 49 50  1  0
 49 24  1  0
 51 49  1  0
 52  6  1  0
 52 54  1  0
 52 57  1  0
 54 53  1  0
 54 55  1  0
 55 56  1  0
 58 60  1  0
 58 57  1  0
 59 70  2  0
 60 65  1  0
 61 69  1  0
 61 71  1  0
 62 68  1  0
 62 64  1  0
 63 69  1  0
 64 63  1  0
 65 64  2  0
 66 67  1  0
 66 60  2  0
 67 62  2  0
 68 61  1  0
 69 59  1  0
 71 73  2  0
 72 71  1  0
 74 72  1  0
 75 84  2  0
 75 80  1  0
 76 72  1  0
 76 80  1  0
 77 76  1  0
 78 79  1  0
 78 77  1  0
 79 75  1  0
 80 81  2  0
 81 82  1  0
 83 82  2  0
 84 83  1  0
 85 59  1  0
 85 90  1  0
 85 86  1  0
 86 89  1  1
 86 87  1  0
 88 86  1  0
 90 93  1  0
 91 95  1  0
 91 90  1  0
 92 91  2  0
 95 94  1  0
 97 98  1  0
 97 95  1  0
 97 96  1  0
M  ISO  4  10 100  23 100  57 101  58 101
M  END
>  <TORSDO>  (25) 
F 20

>  <SCORE>  (25) 
-14.025

>  <name>  (25) 
25

>  <ligand_id>  (25) 
25

>  <original_smiles>  (25) 
[H]OC([H])(C([H])([H])[H])C([H])(c1c(C([H])([H])[H])c([H])c(C2([H])C([H])([H])C([H])([H])N(C(=O)N3C([H])([H])C([H])([H])C([H])([H])C([H])(n4nc(-c5c([H])c([H])c(Oc6c([H])c([H])c(F)c([H])c6F)c([H])c5[H])c(C(=O)N([H])[H])c4N([H])[H])C3([H])[H])C([H])([H])C2([H])[H])c(C([H])([H])[H])c1C([H])([H])[H])C([H])([H])Oc1c([H])c([H])c2c(c1[H])C([H])([H])N(C(=O)C([H])(N([H])C(=O)C([H])(N([H])C([H])([H])[H])C([H])([H])[H])C(C([H])([H])[H])(C([H])([H])[H])C([H])([H])[H])C([H])(C(=O)N([H])C1([H])c3c([H])c([H])c([H])c([H])c3C([H])([H])C([H])([H])C1([H])[H])C2([H])[H]

>  <smiles>  (25) 
[H]OC([H])(C([H])([H])[H])C([H])(c1c(C([H])([H])[H])c([H])c(C2([H])C([H])([H])C([H])([H])N(C(=O)N3C([H])([H])C([H])([H])C([H])([H])C([H])(n4nc(-c5c([H])c([H])c(Oc6c([H])c([H])c(F)c([H])c6F)c([H])c5[H])c(C(=O)N([H])[H])c4N([H])[H])C3([H])[H])C([H])([H])C2([H])[H])c(C([H])([H])[H])c1C([H])([H])[H])C([H])([H])Oc1c([H])c([H])c2c(c1[H])C([H])([H])N(C(=O)C([H])(N([H])C(=O)C([H])(N([H])C([H])([H])[H])C([H])([H])[H])C(C([H])([H])[H])(C([H])([H])[H])C([H])([H])[H])C([H])(C(=O)N([H])C1([H])c3c([H])c([H])c([H])c([H])c3C([H])([H])C([H])([H])C1([H])[H])C2([H])[H]

$$$$
26:0:0
     RDKit          3D

 99109  0  0  1  0  0  0  0  0999 V2000
  -30.6030  -14.7840   20.3970 C   0  0  0  0  0  0  0  0  0  0  0  0
  -30.4070  -12.4930   19.4360 C   0  0  0  0  0  2  0  0  0  0  0  0
  -29.4960  -12.5310   18.1920 C   0  0  0  0  0  2  0  0  0  0  0  0
  -28.0190  -12.3610   18.5980 C   0  0  0  0  0  2  0  0  0  0  0  0
  -27.6150  -13.2670   19.7920 C   0  0  0  0  0  3  0  0  0  0  0  0
  -28.6540  -13.2280   20.9290 C   0  0  0  0  0  2  0  0  0  0  0  0
  -29.9440  -13.5770   20.3310 N   0  0  0  0  0  0  0  0  0  0  0  0
  -31.8270  -14.7810   20.2220 O   0  0  0  0  0  0  0  0  0  0  0  0
  -31.7080  -18.9080   18.6070 C   0  0  0  0  0  2  0  0  0  0  0  0
  -30.5660  -18.3100   19.1600 C   0  0  0  0  0  0  0  0  0  0  0  0
  -29.5920  -19.1180   19.8080 C   0  0  0  0  0  0  0  0  0  0  0  0
  -29.6920  -20.5920   19.7690 C   0  0  0  0  0  0  0  0  0  0  0  0
  -31.9000  -20.2960   18.6850 C   0  0  0  0  0  0  0  0  0  0  0  0
  -30.9150  -21.1250   19.2720 C   0  0  0  0  0  0  0  0  0  0  0  0
  -28.5230  -18.2310   20.4820 C   0  0  0  0  0  3  0  0  0  0  0  0
  -30.3700  -16.7860   18.9470 C   0  0  0  0  0  3  0  0  0  0  0  0
  -29.0280  -16.7850   20.9940 C   0  0  0  0  0  3  0  0  0  0  0  0
  -29.9000  -15.9580   20.0870 N   0  0  0  0  0  0  0  0  0  0  0  0
  -28.0280  -22.5560   18.9340 C   0  0  0  0  0  2  0  0  0  0  0  0
  -28.8090  -22.6210   21.3760 C   0  0  0  0  0  2  0  0  0  0  0  0
  -28.3380  -24.1110   18.8650 C   0  0  0  0  0  2  0  0  0  0  0  0
  -28.9580  -24.1950   21.2060 C   0  0  0  0  0  2  0  0  0  0  0  0
  -28.5800  -21.6800   20.1310 C   0  0  0  0  0  3  0  0  0  0  0  0
  -28.0440  -24.9120   20.1700 C   0  0  0  0  0  3  0  0  0  0  0  0
  -28.2590  -26.4040   20.1230 O   0  0  0  0  0  0  0  0  0  0  0  0
  -24.6280  -31.8780   23.2380 C   0  0  0  0  0  0  0  0  0  0  0  0
  -27.1590  -27.2890   20.1080 C   0  0  0  0  0  0  0  0  0  0  0  0
  -23.3970  -30.4990   21.6060 C   0  0  0  0  0  3  0  0  0  0  0  0
  -24.8160  -28.9470   20.1470 C   0  0  0  0  0  0  0  0  0  0  0  0
  -25.9390  -30.7910   21.3940 C   0  0  0  0  0  2  0  0  0  0  0  0
  -25.9990  -29.4150   20.7320 C   0  0  0  0  0  0  0  0  0  0  0  0
  -27.1750  -28.5990   20.6990 C   0  0  0  0  0  3  0  0  0  0  0  0
  -25.9520  -26.8880   19.4970 C   0  0  0  0  0  3  0  0  0  0  0  0
  -24.7960  -27.6910   19.5220 C   0  0  0  0  0  3  0  0  0  0  0  0
  -23.5890  -29.8340   20.2180 C   0  0  0  0  0  2  0  0  0  0  0  0
  -24.6740  -31.0750   22.1350 N   0  0  0  0  0  0  0  0  0  0  0  0
  -23.5520  -32.1610   23.7870 O   0  0  0  0  0  0  0  0  0  0  0  0
  -22.7390  -29.4790   22.5680 C   0  0  0  0  0  0  0  0  0  0  0  0
  -21.4120  -29.3020   22.4490 N   0  0  0  0  0  0  0  0  0  0  0  0
  -23.4230  -28.8500   23.3790 O   0  0  0  0  0  0  0  0  0  0  0  0
  -20.9210  -29.8570   21.7610 H   0  0  0  0  0  0  0  0  0  0  0  0
  -18.0380  -28.0980   22.9580 C   0  0  0  0  0  0  0  0  0  0  0  0
  -20.5970  -28.3630   23.2220 C   0  0  0  0  0  3  0  0  0  0  0  0
  -20.7010  -26.9330   22.6460 C   0  0  0  0  0  2  0  0  0  0  0  0
  -19.5980  -26.6080   21.6350 C   0  0  0  0  0  2  0  0  0  0  0  0
  -18.2160  -26.7480   22.2810 C   0  0  0  0  0  2  0  0  0  0  0  0
  -19.1560  -28.8630   23.3840 C   0  0  0  0  0  0  0  0  0  0  0  0
  -18.9340  -30.1260   23.9760 C   0  0  0  0  0  3  0  0  0  0  0  0
  -17.6270  -30.6220   24.1450 C   0  0  0  0  0  3  0  0  0  0  0  0
  -16.5240  -29.8530   23.7370 C   0  0  0  0  0  3  0  0  0  0  0  0
  -16.7310  -28.5930   23.1470 C   0  0  0  0  0  3  0  0  0  0  0  0
  -25.9210  -32.5000   23.8490 C   0  0  0  0  0  3  0  0  0  0  0  0
  -26.4520  -31.7150   25.1120 C   0  0  1  0  0  0  0  0  0  0  0  0
  -25.3720  -31.4690   26.1920 C   0  0  0  0  0  1  0  0  0  0  0  0
  -27.0250  -30.3380   24.7010 C   0  0  0  0  0  1  0  0  0  0  0  0
  -27.6150  -32.4980   25.7650 C   0  0  0  0  0  1  0  0  0  0  0  0
  -25.6230  -33.8970   24.1980 N   0  0  0  0  0  0  0  0  0  0  0  0
  -25.9310  -34.9550   23.4370 C   0  0  0  0  0  0  0  0  0  0  0  0
  -26.5710  -34.8600   22.3860 O   0  0  0  0  0  0  0  0  0  0  0  0
  -25.0550  -34.0460   25.0190 H   0  0  0  0  0  0  0  0  0  0  0  0
  -24.1880  -36.7470   23.1580 C   0  0  0  0  0  1  0  0  0  0  0  0
  -25.4600  -36.3410   23.9200 C   0  0  0  0  0  3  0  0  0  0  0  0
  -27.6220  -37.2280   24.6750 C   0  0  0  0  0  1  0  0  0  0  0  0
  -26.4850  -37.3980   23.7730 N   0  0  0  0  0  0  0  0  0  0  0  0
  -26.0820  -38.3160   23.9390 H   0  0  0  0  0  0  0  0  0  0  0  0
  -25.2170  -13.8390   20.4900 C   0  0  0  0  0  0  0  0  0  0  0  0
  -24.1530  -13.0580   20.8460 C   0  0  0  0  0  0  0  0  0  0  0  0
  -24.6280  -11.7100   20.8300 C   0  0  0  0  0  0  0  0  0  0  0  0
  -26.2700  -12.9680   20.2720 N   0  0  0  0  0  0  0  0  0  0  0  0
  -25.9240  -11.6830   20.5430 N   0  0  0  0  0  0  0  0  0  0  0  0
  -23.9080  -10.4440   21.0150 C   0  0  0  0  0  0  0  0  0  0  0  0
  -24.3270   -9.4860   21.9640 C   0  0  0  0  0  3  0  0  0  0  0  0
  -23.6070   -8.2840   22.1350 C   0  0  0  0  0  3  0  0  0  0  0  0
  -22.4520   -8.0320   21.3550 C   0  0  0  0  0  0  0  0  0  0  0  0
  -22.0520   -8.9780   20.3960 C   0  0  0  0  0  3  0  0  0  0  0  0
  -22.7740  -10.1720   20.2240 C   0  0  0  0  0  3  0  0  0  0  0  0
  -21.7010   -6.8830   21.4370 O   0  0  0  0  0  0  0  0  0  0  0  0
  -21.6190   -6.1570   22.5980 C   0  0  0  0  0  0  0  0  0  0  0  0
  -21.1500   -6.7290   23.8010 C   0  0  0  0  0  3  0  0  0  0  0  0
  -21.0160   -5.9290   24.9540 C   0  0  0  0  0  3  0  0  0  0  0  0
  -21.3420   -4.5610   24.9040 C   0  0  0  0  0  0  0  0  0  0  0  0
  -21.8050   -3.9900   23.7060 C   0  0  0  0  0  3  0  0  0  0  0  0
  -21.9400   -4.7860   22.5550 C   0  0  0  0  0  0  0  0  0  0  0  0
  -22.3670   -4.2270   21.3970 F   0  0  0  0  0  0  0  0  0  0  0  0
  -21.2060   -3.7900   26.0090 F   0  0  0  0  0  0  0  0  0  0  0  0
  -22.7470  -13.5240   21.0900 C   0  0  0  0  0  0  0  0  0  0  0  0
  -22.0110  -12.8320   21.9530 N   0  0  0  0  0  0  0  0  0  0  0  0
  -22.3090  -14.5390   20.5490 O   0  0  0  0  0  0  0  0  0  0  0  0
  -22.3770  -12.0110   22.4130 H   0  0  0  0  0  0  0  0  0  0  0  0
  -21.0680  -13.1280   22.1590 H   0  0  0  0  0  0  0  0  0  0  0  0
  -25.3750  -15.2100   20.3070 N   0  0  0  0  0  0  0  0  0  0  0  0
  -24.5980  -15.8560   20.3900 H   0  0  0  0  0  0  0  0  0  0  0  0
  -26.2210  -15.6450   19.9640 H   0  0  0  0  0  0  0  0  0  0  0  0
  -33.0530  -20.8520   18.1860 O   0  0  0  0  0  0  0  0  0  0  0  0
  -32.6250  -21.9830   16.1120 C   0  0  0  0  0  1  0  0  0  0  0  0
  -33.2320  -20.7480   16.7790 C   0  0  0  0  0  2  0  0  0  0  0  0
  -31.1200  -22.4830   19.2990 O   0  0  0  0  0  0  0  0  0  0  0  0
  -32.6740  -24.2820   19.6390 C   0  0  0  0  0  1  0  0  0  0  0  0
  -32.1860  -22.9190   20.1380 C   0  0  0  0  0  2  0  0  0  0  0  0
  2  7  1  0
  3  4  1  0
  3  2  1  0
  5  4  1  0
  5 69  1  0
  5  6  1  0
  7  1  1  0
  7  6  1  0
  8  1  2  0
  9 13  1  0
  9 10  1  0
 10 11  1  0
 11 15  1  0
 12 11  2  0
 13 14  2  0
 14 97  1  0
 14 12  1  0
 15 17  2  0
 16 10  2  0
 16 18  1  0
 18  1  1  0
 18 17  1  0
 19 23  1  0
 21 19  1  0
 21 24  1  0
 22 20  1  0
 23 12  1  0
 23 20  1  0
 24 25  1  0
 24 22  1  0
 26 37  2  0
 27 25  1  0
 27 32  1  0
 28 36  1  0
 28 38  1  0
 29 35  1  0
 29 31  1  0
 30 36  1  0
 31 30  1  0
 32 31  2  0
 33 34  1  0
 33 27  2  0
 34 29  2  0
 35 28  1  0
 36 26  1  0
 38 40  2  0
 39 38  1  0
 41 39  1  0
 42 51  2  0
 42 47  1  0
 43 39  1  0
 43 47  1  0
 44 43  1  0
 45 46  1  0
 45 44  1  0
 46 42  1  0
 47 48  2  0
 48 49  1  0
 50 49  2  0
 51 50  1  0
 52 26  1  0
 52 57  1  0
 52 53  1  0
 53 56  1  1
 53 54  1  0
 55 53  1  0
 57 60  1  0
 58 62  1  0
 58 57  1  0
 59 58  2  0
 62 61  1  0
 64 62  1  0
 64 65  1  0
 64 63  1  0
 66 67  2  0
 67 86  1  0
 68 67  1  0
 68 71  1  0
 69 66  1  0
 69 70  1  0
 70 68  2  0
 71 72  1  0
 72 73  2  0
 74 77  1  0
 74 73  1  0
 75 74  2  0
 76 75  1  0
 76 71  2  0
 77 78  1  0
 78 79  1  0
 79 80  2  0
 81 80  1  0
 81 85  1  0
 82 81  2  0
 83 78  2  0
 83 82  1  0
 84 83  1  0
 86 87  1  0
 87 90  1  0
 87 89  1  0
 88 86  2  0
 91 92  1  0
 91 66  1  0
 93 91  1  0
 94 13  1  0
 95 96  1  0
 96 94  1  0
 97 99  1  0
 98 99  1  0
M  ISO  4   1 100  18 100  24 101  25 101
M  END
>  <TORSDO>  (26) 
F 20

>  <SCORE>  (26) 
-14.152

>  <name>  (26) 
26

>  <ligand_id>  (26) 
26

>  <original_smiles>  (26) 
[H]c1c([H])c([H])c2c(c1[H])C([H])([H])C([H])([H])C([H])([H])C2([H])N([H])C(=O)C1([H])N(C(=O)C([H])(N([H])C(=O)C([H])(N([H])C([H])([H])[H])C([H])([H])[H])C(C([H])([H])[H])(C([H])([H])[H])C([H])([H])[H])C([H])([H])c2c([H])c(OC3([H])C([H])([H])C([H])([H])C([H])(c4c(OC([H])([H])C([H])([H])[H])c(OC([H])([H])C([H])([H])[H])c([H])c5c4C([H])([H])C([H])([H])N(C(=O)N4C([H])([H])C([H])([H])C([H])([H])C([H])(n6nc(-c7c([H])c([H])c(Oc8c([H])c([H])c(F)c([H])c8F)c([H])c7[H])c(C(=O)N([H])[H])c6N([H])[H])C4([H])[H])C5([H])[H])C([H])([H])C3([H])[H])c([H])c([H])c2C1([H])[H]

>  <smiles>  (26) 
[H]c1c([H])c([H])c2c(c1[H])C([H])([H])C([H])([H])C([H])([H])C2([H])N([H])C(=O)C1([H])N(C(=O)C([H])(N([H])C(=O)C([H])(N([H])C([H])([H])[H])C([H])([H])[H])C(C([H])([H])[H])(C([H])([H])[H])C([H])([H])[H])C([H])([H])c2c([H])c(OC3([H])C([H])([H])C([H])([H])C([H])(c4c(OC([H])([H])C([H])([H])[H])c(OC([H])([H])C([H])([H])[H])c([H])c5c4C([H])([H])C([H])([H])N(C(=O)N4C([H])([H])C([H])([H])C([H])([H])C([H])(n6nc(-c7c([H])c([H])c(Oc8c([H])c([H])c(F)c([H])c8F)c([H])c7[H])c(C(=O)N([H])[H])c6N([H])[H])C4([H])[H])C5([H])[H])C([H])([H])C3([H])[H])c([H])c([H])c2C1([H])[H]

$$$$
27:0:0
     RDKit          3D

 95104  0  0  1  0  0  0  0  0999 V2000
  -29.9720  -21.8440   19.9420 C   0  0  0  0  0  3  0  0  0  0  0  0
  -30.4870  -21.6590   22.2940 C   0  0  0  0  0  3  0  0  0  0  0  0
  -30.1960  -22.4760   21.1810 C   0  0  0  0  0  0  0  0  0  0  0  0
  -29.9940  -20.4330   19.8280 C   0  0  0  0  0  0  0  0  0  0  0  0
  -30.5090  -20.2430   22.2110 C   0  0  0  0  0  0  0  0  0  0  0  0
  -30.2340  -19.6040   20.9610 C   0  0  0  0  0  0  0  0  0  0  0  0
  -29.6970  -19.8330   18.4650 C   0  0  0  0  0  1  0  0  0  0  0  0
  -30.9060  -25.0070   20.4380 C   0  0  0  0  0  2  0  0  0  0  0  0
  -28.9020  -24.8560   21.0310 C   0  0  0  0  0  2  0  0  0  0  0  0
  -30.1550  -24.0070   21.3440 C   0  0  0  0  0  3  0  0  0  0  0  0
  -29.8440  -26.0620   20.8130 C   0  0  0  0  0  3  0  0  0  0  0  0
  -29.5170  -26.9910   19.7660 O   0  0  0  0  0  0  0  0  0  0  0  0
  -25.1770  -31.3920   23.3600 C   0  0  0  0  0  0  0  0  0  0  0  0
  -28.2810  -27.5860   19.8850 C   0  0  0  0  0  0  0  0  0  0  0  0
  -24.1180  -30.0050   21.6080 C   0  0  0  0  0  3  0  0  0  0  0  0
  -25.7230  -28.7860   20.0410 C   0  0  0  0  0  0  0  0  0  0  0  0
  -26.5810  -30.6820   21.4240 C   0  0  0  0  0  2  0  0  0  0  0  0
  -26.8180  -29.3900   20.6700 C   0  0  0  0  0  0  0  0  0  0  0  0
  -28.1030  -28.7990   20.5940 C   0  0  0  0  0  3  0  0  0  0  0  0
  -27.1710  -27.0010   19.2450 C   0  0  0  0  0  3  0  0  0  0  0  0
  -25.8930  -27.5900   19.3220 C   0  0  0  0  0  3  0  0  0  0  0  0
  -24.3840  -29.4770   20.1730 C   0  0  0  0  0  2  0  0  0  0  0  0
  -25.3080  -30.7090   22.1880 N   0  0  0  0  0  0  0  0  0  0  0  0
  -24.0820  -31.4790   23.9340 O   0  0  0  0  0  0  0  0  0  0  0  0
  -23.6110  -28.8340   22.4790 C   0  0  0  0  0  0  0  0  0  0  0  0
  -22.3620  -28.4010   22.2380 N   0  0  0  0  0  0  0  0  0  0  0  0
  -24.3440  -28.3130   23.3250 O   0  0  0  0  0  0  0  0  0  0  0  0
  -21.8220  -28.8820   21.5300 H   0  0  0  0  0  0  0  0  0  0  0  0
  -19.3380  -26.4260   22.2790 C   0  0  0  0  0  0  0  0  0  0  0  0
  -21.6930  -27.2880   22.9080 C   0  0  0  0  0  3  0  0  0  0  0  0
  -22.2200  -25.9310   22.3900 C   0  0  0  0  0  2  0  0  0  0  0  0
  -21.3870  -25.3630   21.2360 C   0  0  0  0  0  2  0  0  0  0  0  0
  -19.9300  -25.1660   21.6690 C   0  0  0  0  0  2  0  0  0  0  0  0
  -20.1670  -27.4290   22.8460 C   0  0  0  0  0  0  0  0  0  0  0  0
  -19.5680  -28.5980   23.3640 C   0  0  0  0  0  3  0  0  0  0  0  0
  -18.1710  -28.7690   23.3270 C   0  0  0  0  0  3  0  0  0  0  0  0
  -17.3550  -27.7640   22.7800 C   0  0  0  0  0  3  0  0  0  0  0  0
  -17.9380  -26.5940   22.2590 C   0  0  0  0  0  3  0  0  0  0  0  0
  -26.3880  -32.1190   24.0250 C   0  0  0  0  0  3  0  0  0  0  0  0
  -26.9540  -31.3560   25.2850 C   0  0  1  0  0  0  0  0  0  0  0  0
  -25.8710  -30.9940   26.3280 C   0  0  0  0  0  1  0  0  0  0  0  0
  -27.6550  -30.0460   24.8590 C   0  0  0  0  0  1  0  0  0  0  0  0
  -28.0240  -32.2250   25.9870 C   0  0  0  0  0  1  0  0  0  0  0  0
  -25.9490  -33.4710   24.3900 N   0  0  0  0  0  0  0  0  0  0  0  0
  -26.2010  -34.5740   23.6710 C   0  0  0  0  0  0  0  0  0  0  0  0
  -26.9010  -34.5650   22.6560 O   0  0  0  0  0  0  0  0  0  0  0  0
  -25.3250  -33.5450   25.1810 H   0  0  0  0  0  0  0  0  0  0  0  0
  -24.3270  -36.2160   23.3300 C   0  0  0  0  0  1  0  0  0  0  0  0
  -25.5790  -35.8960   24.1610 C   0  0  0  0  0  3  0  0  0  0  0  0
  -27.6060  -36.9370   25.0790 C   0  0  0  0  0  1  0  0  0  0  0  0
  -26.5150  -37.0400   24.1140 N   0  0  0  0  0  0  0  0  0  0  0  0
  -26.0230  -37.9140   24.2820 H   0  0  0  0  0  0  0  0  0  0  0  0
  -30.2220  -20.0880   24.7520 C   0  0  0  0  0  1  0  0  0  0  0  0
  -32.3480  -19.2710   23.6630 C   0  0  0  0  0  1  0  0  0  0  0  0
  -30.8330  -19.4540   23.4880 C   0  0  0  0  0  3  0  0  0  0  0  0
  -30.0760  -18.0680   20.8390 C   0  0  0  0  0  2  0  0  0  0  0  0
  -31.3230  -17.1910   21.1420 C   0  0  0  0  0  2  0  0  0  0  0  0
  -31.7230  -14.7520   20.5110 C   0  0  0  0  0  0  0  0  0  0  0  0
  -31.4480  -12.5430   19.4250 C   0  0  0  0  0  2  0  0  0  0  0  0
  -30.5240  -12.6860   18.1970 C   0  0  0  0  0  2  0  0  0  0  0  0
  -29.0340  -12.6070   18.5990 C   0  0  0  0  0  2  0  0  0  0  0  0
  -28.6880  -13.5030   19.8200 C   0  0  0  0  0  3  0  0  0  0  0  0
  -29.7170  -13.2880   20.9530 C   0  0  0  0  0  2  0  0  0  0  0  0
  -31.0550  -13.5690   20.4040 N   0  0  0  0  0  0  0  0  0  0  0  0
  -32.8460  -14.9360   20.0350 O   0  0  0  0  0  0  0  0  0  0  0  0
  -31.0050  -15.7520   21.0560 N   0  0  0  0  0  0  0  0  0  0  0  0
  -30.0860  -15.4840   21.3780 H   0  0  0  0  0  0  0  0  0  0  0  0
  -26.3110  -14.2040   20.5240 C   0  0  0  0  0  0  0  0  0  0  0  0
  -25.2040  -13.4720   20.8600 C   0  0  0  0  0  0  0  0  0  0  0  0
  -25.5970  -12.1010   20.7760 C   0  0  0  0  0  0  0  0  0  0  0  0
  -27.3160  -13.2810   20.2710 N   0  0  0  0  0  0  0  0  0  0  0  0
  -26.8860  -12.0090   20.4740 N   0  0  0  0  0  0  0  0  0  0  0  0
  -24.8050  -10.8720   20.9060 C   0  0  0  0  0  0  0  0  0  0  0  0
  -25.1660   -9.8580   21.8210 C   0  0  0  0  0  3  0  0  0  0  0  0
  -24.3820   -8.6900   21.9400 C   0  0  0  0  0  3  0  0  0  0  0  0
  -23.2190   -8.5330   21.1480 C   0  0  0  0  0  0  0  0  0  0  0  0
  -22.8800   -9.5310   20.2190 C   0  0  0  0  0  3  0  0  0  0  0  0
  -23.6640  -10.6900   20.0970 C   0  0  0  0  0  3  0  0  0  0  0  0
  -22.4080   -7.4260   21.1830 O   0  0  0  0  0  0  0  0  0  0  0  0
  -22.2220   -6.7050   22.3340 C   0  0  0  0  0  0  0  0  0  0  0  0
  -21.7190   -7.2960   23.5140 C   0  0  0  0  0  3  0  0  0  0  0  0
  -21.4790   -6.5020   24.6520 C   0  0  0  0  0  3  0  0  0  0  0  0
  -21.7320   -5.1180   24.6110 C   0  0  0  0  0  0  0  0  0  0  0  0
  -22.2300   -4.5270   23.4380 C   0  0  0  0  0  3  0  0  0  0  0  0
  -22.4700   -5.3180   22.3010 C   0  0  0  0  0  0  0  0  0  0  0  0
  -22.9310   -4.7400   21.1650 F   0  0  0  0  0  0  0  0  0  0  0  0
  -21.4930   -4.3540   25.7020 F   0  0  0  0  0  0  0  0  0  0  0  0
  -23.8300  -14.0090   21.1390 C   0  0  0  0  0  0  0  0  0  0  0  0
  -23.0690  -13.3310   21.9940 N   0  0  0  0  0  0  0  0  0  0  0  0
  -23.4370  -15.0580   20.6340 O   0  0  0  0  0  0  0  0  0  0  0  0
  -23.3970  -12.4850   22.4330 H   0  0  0  0  0  0  0  0  0  0  0  0
  -22.1410  -13.6700   22.2120 H   0  0  0  0  0  0  0  0  0  0  0  0
  -26.5430  -15.5690   20.3890 N   0  0  0  0  0  0  0  0  0  0  0  0
  -25.8050  -16.2510   20.5170 H   0  0  0  0  0  0  0  0  0  0  0  0
  -27.3740  -15.9600   19.9640 H   0  0  0  0  0  0  0  0  0  0  0  0
  1  3  1  0
  3  2  2  0
  4  1  2  0
  4  6  1  0
  5  2  1  0
  5 55  1  0
  6  5  2  0
  7  4  1  0
  8 11  1  0
  8 10  1  0
  9 10  1  0
 10  3  1  0
 11 12  1  0
 11  9  1  0
 12 14  1  0
 13 24  2  0
 14 19  1  0
 15 23  1  0
 15 25  1  0
 16 22  1  0
 16 18  1  0
 17 23  1  0
 18 17  1  0
 19 18  2  0
 20 21  1  0
 20 14  2  0
 21 16  2  0
 22 15  1  0
 23 13  1  0
 25 27  2  0
 26 25  1  0
 28 26  1  0
 29 34  1  0
 30 26  1  0
 31 30  1  0
 32 33  1  0
 32 31  1  0
 33 29  1  0
 34 30  1  0
 34 35  2  0
 36 35  1  0
 37 36  2  0
 38 29  2  0
 38 37  1  0
 39 13  1  0
 39 44  1  0
 39 40  1  0
 40 43  1  1
 40 41  1  0
 42 40  1  0
 44 47  1  0
 45 49  1  0
 45 44  1  0
 46 45  2  0
 49 48  1  0
 51 49  1  0
 51 52  1  0
 51 50  1  0
 55 54  1  0
 55 53  1  0
 56  6  1  0
 56 57  1  0
 58 66  1  0
 59 64  1  0
 60 61  1  0
 60 59  1  0
 62 61  1  0
 62 71  1  0
 62 63  1  0
 64 58  1  0
 64 63  1  0
 65 58  2  0
 66 57  1  0
 66 67  1  0
 68 69  2  0
 69 88  1  0
 70 69  1  0
 70 73  1  0
 71 72  1  0
 71 68  1  0
 72 70  2  0
 73 74  1  0
 74 75  2  0
 76 79  1  0
 76 75  1  0
 77 76  2  0
 78 77  1  0
 78 73  2  0
 79 80  1  0
 80 81  1  0
 81 82  2  0
 83 82  1  0
 83 87  1  0
 84 83  2  0
 85 80  2  0
 85 84  1  0
 86 85  1  0
 88 89  1  0
 89 92  1  0
 89 91  1  0
 90 88  2  0
 93 94  1  0
 93 68  1  0
 95 93  1  0
M  ISO  4  11 101  12 101  58 100  66 100
M  END
>  <TORSDO>  (27) 
F 20

>  <SCORE>  (27) 
-9.163

>  <name>  (27) 
27

>  <ligand_id>  (27) 
27

>  <original_smiles>  (27) 
[H]c1c([H])c([H])c2c(c1[H])C([H])([H])C([H])([H])C([H])([H])C2([H])N([H])C(=O)C1([H])N(C(=O)C([H])(N([H])C(=O)C([H])(N([H])C([H])([H])[H])C([H])([H])[H])C(C([H])([H])[H])(C([H])([H])[H])C([H])([H])[H])C([H])([H])c2c([H])c(OC3([H])C([H])([H])C([H])(c4c([H])c(C([H])([H])[H])c(C([H])([H])C([H])([H])N([H])C(=O)N5C([H])([H])C([H])([H])C([H])([H])C([H])(n6nc(-c7c([H])c([H])c(Oc8c([H])c([H])c(F)c([H])c8F)c([H])c7[H])c(C(=O)N([H])[H])c6N([H])[H])C5([H])[H])c(C([H])(C([H])([H])[H])C([H])([H])[H])c4[H])C3([H])[H])c([H])c([H])c2C1([H])[H]

>  <smiles>  (27) 
[H]c1c([H])c([H])c2c(c1[H])C([H])([H])C([H])([H])C([H])([H])C2([H])N([H])C(=O)C1([H])N(C(=O)C([H])(N([H])C(=O)C([H])(N([H])C([H])([H])[H])C([H])([H])[H])C(C([H])([H])[H])(C([H])([H])[H])C([H])([H])[H])C([H])([H])c2c([H])c(OC3([H])C([H])([H])C([H])(c4c([H])c(C([H])([H])[H])c(C([H])([H])C([H])([H])N([H])C(=O)N5C([H])([H])C([H])([H])C([H])([H])C([H])(n6nc(-c7c([H])c([H])c(Oc8c([H])c([H])c(F)c([H])c8F)c([H])c7[H])c(C(=O)N([H])[H])c6N([H])[H])C5([H])[H])c(C([H])(C([H])([H])[H])C([H])([H])[H])c4[H])C3([H])[H])c([H])c([H])c2C1([H])[H]

$$$$
28:0:0
     RDKit          3D

 93101  0  0  1  0  0  0  0  0999 V2000
  -28.5540  -20.8940   20.7010 C   0  0  0  0  0  0  0  0  0  0  0  0
  -29.1860  -21.8560   19.8480 C   0  0  0  0  0  0  0  0  0  0  0  0
  -29.1180  -19.6650   20.4840 C   0  0  0  0  0  0  0  0  0  0  0  0
  -30.1810  -21.1630   19.1800 C   0  0  0  0  0  0  0  0  0  0  0  0
  -27.3870  -21.1610   21.6230 C   0  0  0  0  0  1  0  0  0  0  0  0
  -28.7130  -18.3420   21.0720 C   0  0  0  0  0  1  0  0  0  0  0  0
  -31.1500  -21.6420   18.1450 C   0  0  0  0  0  1  0  0  0  0  0  0
  -30.1230  -19.8000   19.5330 N   0  0  0  0  0  0  0  0  0  0  0  0
  -27.6340  -23.2950   18.5130 C   0  0  0  0  0  1  0  0  0  0  0  0
  -28.6240  -23.2980   19.6850 C   0  0  0  0  0  3  0  0  0  0  0  0
  -29.5460  -24.5700   19.6200 C   0  0  0  0  0  2  0  0  0  0  0  0
  -28.8840  -25.8210   20.3160 C   0  0  0  0  0  2  0  0  0  0  0  0
  -28.9740  -27.1290   19.6730 O   0  0  0  0  0  0  0  0  0  0  0  0
  -24.7110  -31.6600   23.2080 C   0  0  0  0  0  0  0  0  0  0  0  0
  -27.7810  -27.8350   19.6990 C   0  0  0  0  0  0  0  0  0  0  0  0
  -23.6500  -30.3180   21.4250 C   0  0  0  0  0  3  0  0  0  0  0  0
  -25.2510  -29.1050   19.8440 C   0  0  0  0  0  0  0  0  0  0  0  0
  -26.1290  -30.9520   21.2790 C   0  0  0  0  0  2  0  0  0  0  0  0
  -26.3550  -29.6740   20.4900 C   0  0  0  0  0  0  0  0  0  0  0  0
  -27.6280  -29.0520   20.4120 C   0  0  0  0  0  3  0  0  0  0  0  0
  -26.6630  -27.3010   19.0250 C   0  0  0  0  0  3  0  0  0  0  0  0
  -25.4020  -27.9210   19.1030 C   0  0  0  0  0  3  0  0  0  0  0  0
  -23.9220  -29.8150   19.9820 C   0  0  0  0  0  2  0  0  0  0  0  0
  -24.8470  -30.9890   22.0290 N   0  0  0  0  0  0  0  0  0  0  0  0
  -23.6110  -31.7580   23.7690 O   0  0  0  0  0  0  0  0  0  0  0  0
  -23.1170  -29.1390   22.2690 C   0  0  0  0  0  0  0  0  0  0  0  0
  -21.8250  -28.8110   22.0960 N   0  0  0  0  0  0  0  0  0  0  0  0
  -23.8620  -28.5210   23.0340 O   0  0  0  0  0  0  0  0  0  0  0  0
  -21.2780  -29.3750   21.4610 H   0  0  0  0  0  0  0  0  0  0  0  0
  -18.6210  -27.1680   22.3960 C   0  0  0  0  0  0  0  0  0  0  0  0
  -21.1230  -27.7110   22.7550 C   0  0  0  0  0  3  0  0  0  0  0  0
  -21.4120  -26.3640   22.0540 C   0  0  0  0  0  2  0  0  0  0  0  0
  -20.3730  -26.0040   20.9860 C   0  0  0  0  0  2  0  0  0  0  0  0
  -18.9730  -25.9220   21.6010 C   0  0  0  0  0  2  0  0  0  0  0  0
  -19.6310  -28.0160   22.9240 C   0  0  0  0  0  0  0  0  0  0  0  0
  -19.2490  -29.1840   23.6220 C   0  0  0  0  0  3  0  0  0  0  0  0
  -17.8900  -29.5040   23.7980 C   0  0  0  0  0  3  0  0  0  0  0  0
  -16.8960  -28.6510   23.2920 C   0  0  0  0  0  3  0  0  0  0  0  0
  -17.2610  -27.4850   22.5960 C   0  0  0  0  0  3  0  0  0  0  0  0
  -25.9260  -32.3550   23.8960 C   0  0  0  0  0  3  0  0  0  0  0  0
  -25.5310  -33.7380   24.2000 N   0  0  0  0  0  0  0  0  0  0  0  0
  -25.8590  -34.8030   23.4570 C   0  0  0  0  0  0  0  0  0  0  0  0
  -26.5930  -34.7280   22.4670 O   0  0  0  0  0  0  0  0  0  0  0  0
  -24.8850  -33.8660   24.9650 H   0  0  0  0  0  0  0  0  0  0  0  0
  -24.0720  -36.5070   22.9860 C   0  0  0  0  0  1  0  0  0  0  0  0
  -25.2780  -36.1660   23.8770 C   0  0  0  0  0  3  0  0  0  0  0  0
  -27.3100  -37.1550   24.8330 C   0  0  0  0  0  1  0  0  0  0  0  0
  -26.2640  -37.2670   23.8220 N   0  0  0  0  0  0  0  0  0  0  0  0
  -25.8070  -38.1690   23.9330 H   0  0  0  0  0  0  0  0  0  0  0  0
  -26.4090  -31.6140   25.2020 C   0  0  1  0  0  0  0  0  0  0  0  0
  -25.2670  -31.3060   26.1980 C   0  0  0  0  0  1  0  0  0  0  0  0
  -27.1020  -30.2780   24.8490 C   0  0  0  0  0  1  0  0  0  0  0  0
  -27.4660  -32.4750   25.9340 C   0  0  0  0  0  1  0  0  0  0  0  0
  -30.8600  -18.6640   18.9070 C   0  0  0  0  0  2  0  0  0  0  0  0
  -31.8560  -17.8630   19.8150 C   0  0  0  0  0  2  0  0  0  0  0  0
  -32.2200  -15.3320   19.7780 C   0  0  0  0  0  0  0  0  0  0  0  0
  -31.9370  -12.9800   19.0760 C   0  0  0  0  0  2  0  0  0  0  0  0
  -30.9990  -12.9440   17.8510 C   0  0  0  0  0  2  0  0  0  0  0  0
  -29.5230  -12.8910   18.2960 C   0  0  0  0  0  2  0  0  0  0  0  0
  -29.1820  -13.9560   19.3740 C   0  0  0  0  0  3  0  0  0  0  0  0
  -30.2350  -13.9530   20.5050 C   0  0  0  0  0  2  0  0  0  0  0  0
  -31.5570  -14.1460   19.8900 N   0  0  0  0  0  0  0  0  0  0  0  0
  -33.3650  -15.4110   19.3280 O   0  0  0  0  0  0  0  0  0  0  0  0
  -31.4830  -16.4380   20.0200 N   0  0  0  0  0  0  0  0  0  0  0  0
  -30.5500  -16.2640   20.3620 H   0  0  0  0  0  0  0  0  0  0  0  0
  -26.8660  -14.7420   20.1730 C   0  0  0  0  0  0  0  0  0  0  0  0
  -25.7470  -14.0540   20.5610 C   0  0  0  0  0  0  0  0  0  0  0  0
  -26.0930  -12.6700   20.4900 C   0  0  0  0  0  0  0  0  0  0  0  0
  -27.8260  -13.7820   19.8920 N   0  0  0  0  0  0  0  0  0  0  0  0
  -27.3670  -12.5300   20.1420 N   0  0  0  0  0  0  0  0  0  0  0  0
  -25.2700  -11.4700   20.6820 C   0  0  0  0  0  0  0  0  0  0  0  0
  -25.5690  -10.5230   21.6860 C   0  0  0  0  0  3  0  0  0  0  0  0
  -24.7530   -9.3850   21.8610 C   0  0  0  0  0  3  0  0  0  0  0  0
  -23.6240   -9.1850   21.0300 C   0  0  0  0  0  0  0  0  0  0  0  0
  -23.3450  -10.1210   20.0180 C   0  0  0  0  0  3  0  0  0  0  0  0
  -24.1610  -11.2510   19.8420 C   0  0  0  0  0  3  0  0  0  0  0  0
  -22.7910   -8.0960   21.1100 O   0  0  0  0  0  0  0  0  0  0  0  0
  -22.4630   -7.5270   22.3150 C   0  0  0  0  0  0  0  0  0  0  0  0
  -21.8210   -8.2600   23.3350 C   0  0  0  0  0  3  0  0  0  0  0  0
  -21.4390   -7.6180   24.5300 C   0  0  0  0  0  3  0  0  0  0  0  0
  -21.6890   -6.2440   24.7040 C   0  0  0  0  0  0  0  0  0  0  0  0
  -22.3220   -5.5100   23.6850 C   0  0  0  0  0  3  0  0  0  0  0  0
  -22.7060   -6.1490   22.4940 C   0  0  0  0  0  0  0  0  0  0  0  0
  -23.2970   -5.4330   21.5080 F   0  0  0  0  0  0  0  0  0  0  0  0
  -21.3160   -5.6270   25.8470 F   0  0  0  0  0  0  0  0  0  0  0  0
  -24.4040  -14.6410   20.8840 C   0  0  0  0  0  0  0  0  0  0  0  0
  -23.6530  -14.0000   21.7720 N   0  0  0  0  0  0  0  0  0  0  0  0
  -24.0360  -15.7040   20.3860 O   0  0  0  0  0  0  0  0  0  0  0  0
  -23.9670  -13.1410   22.1970 H   0  0  0  0  0  0  0  0  0  0  0  0
  -22.7520  -14.3770   22.0320 H   0  0  0  0  0  0  0  0  0  0  0  0
  -27.1380  -16.0960   20.0160 N   0  0  0  0  0  0  0  0  0  0  0  0
  -26.4240  -16.8030   20.1670 H   0  0  0  0  0  0  0  0  0  0  0  0
  -27.9950  -16.4750   19.6370 H   0  0  0  0  0  0  0  0  0  0  0  0
  1  5  1  0
  2  1  1  0
  3  1  2  0
  3  6  1  0
  4  8  1  0
  4  2  2  0
  7  4  1  0
  8  3  1  0
 10  9  1  0
 10  2  1  0
 11 10  1  0
 11 12  1  0
 13 15  1  0
 13 12  1  0
 14 25  2  0
 15 20  1  0
 16 24  1  0
 16 26  1  0
 17 23  1  0
 17 19  1  0
 18 24  1  0
 19 18  1  0
 20 19  2  0
 21 22  1  0
 21 15  2  0
 22 17  2  0
 23 16  1  0
 24 14  1  0
 26 28  2  0
 27 26  1  0
 29 27  1  0
 30 39  2  0
 30 35  1  0
 31 27  1  0
 31 35  1  0
 32 31  1  0
 33 34  1  0
 33 32  1  0
 34 30  1  0
 35 36  2  0
 36 37  1  0
 38 37  2  0
 39 38  1  0
 40 14  1  0
 40 41  1  0
 40 50  1  0
 41 44  1  0
 42 46  1  0
 42 41  1  0
 43 42  2  0
 46 45  1  0
 48 46  1  0
 48 49  1  0
 48 47  1  0
 50 53  1  1
 50 51  1  0
 52 50  1  0
 54  8  1  0
 54 55  1  0
 55 64  1  0
 56 62  1  0
 56 64  1  0
 57 62  1  0
 58 59  1  0
 58 57  1  0
 60 59  1  0
 60 69  1  0
 60 61  1  0
 62 61  1  0
 63 56  2  0
 64 65  1  0
 66 67  2  0
 67 86  1  0
 68 67  1  0
 68 71  1  0
 69 70  1  0
 69 66  1  0
 70 68  2  0
 71 72  1  0
 72 73  2  0
 74 77  1  0
 74 73  1  0
 75 74  2  0
 76 75  1  0
 76 71  2  0
 77 78  1  0
 78 83  2  0
 78 79  1  0
 79 80  2  0
 80 81  1  0
 81 85  1  0
 82 81  2  0
 83 82  1  0
 84 83  1  0
 86 87  1  0
 87 90  1  0
 87 89  1  0
 88 86  2  0
 91 92  1  0
 91 66  1  0
 93 91  1  0
M  ISO  4  12 101  13 101  56 100  64 100
M  END
>  <TORSDO>  (28) 
F 21

>  <SCORE>  (28) 
-8.399

>  <name>  (28) 
28

>  <ligand_id>  (28) 
28

>  <original_smiles>  (28) 
[H]c1c([H])c([H])c2c(c1[H])C([H])([H])C([H])([H])C([H])([H])C2([H])N([H])C(=O)C1([H])N(C(=O)C([H])(N([H])C(=O)C([H])(N([H])C([H])([H])[H])C([H])([H])[H])C(C([H])([H])[H])(C([H])([H])[H])C([H])([H])[H])C([H])([H])c2c([H])c(OC([H])([H])C([H])([H])C([H])(c3c(C([H])([H])[H])c(C([H])([H])[H])n(C([H])([H])C([H])([H])N([H])C(=O)N4C([H])([H])C([H])([H])C([H])([H])C([H])(n5nc(-c6c([H])c([H])c(Oc7c([H])c([H])c(F)c([H])c7F)c([H])c6[H])c(C(=O)N([H])[H])c5N([H])[H])C4([H])[H])c3C([H])([H])[H])C([H])([H])[H])c([H])c([H])c2C1([H])[H]

>  <smiles>  (28) 
[H]c1c([H])c([H])c2c(c1[H])C([H])([H])C([H])([H])C([H])([H])C2([H])N([H])C(=O)C1([H])N(C(=O)C([H])(N([H])C(=O)C([H])(N([H])C([H])([H])[H])C([H])([H])[H])C(C([H])([H])[H])(C([H])([H])[H])C([H])([H])[H])C([H])([H])c2c([H])c(OC([H])([H])C([H])([H])C([H])(c3c(C([H])([H])[H])c(C([H])([H])[H])n(C([H])([H])C([H])([H])N([H])C(=O)N4C([H])([H])C([H])([H])C([H])([H])C([H])(n5nc(-c6c([H])c([H])c(Oc7c([H])c([H])c(F)c([H])c7F)c([H])c6[H])c(C(=O)N([H])[H])c5N([H])[H])C4([H])[H])c3C([H])([H])[H])C([H])([H])[H])c([H])c([H])c2C1([H])[H]

$$$$
29:0:0
     RDKit          3D

 95104  0  0  1  0  0  0  0  0999 V2000
  -29.0270  -18.9670   20.3020 C   0  0  0  0  0  3  0  0  0  0  0  0
  -31.6030  -19.8040   19.9390 C   0  0  0  0  0  3  0  0  0  0  0  0
  -29.2750  -20.4380   20.1810 C   0  0  0  0  0  0  0  0  0  0  0  0
  -30.6050  -20.8120   19.9410 C   0  0  0  0  0  0  0  0  0  0  0  0
  -30.0420  -17.8710   20.2370 C   0  0  0  0  0  0  0  0  0  0  0  0
  -31.3660  -18.3990   20.0870 C   0  0  0  0  0  0  0  0  0  0  0  0
  -28.2300  -21.6920   20.2440 C   0  0  0  0  0  3  0  0  0  0  0  0
  -28.7880  -23.2750   20.3230 C   0  0  0  0  0  3  0  0  0  0  0  0
  -30.9940  -22.3030   19.7220 C   0  0  1  0  0  0  0  0  0  0  0  0
  -27.2420  -21.5530   19.0770 C   0  0  0  0  0  1  0  0  0  0  0  0
  -31.7850  -22.8330   20.9320 C   0  0  0  0  0  1  0  0  0  0  0  0
  -31.8440  -22.4570   18.4470 C   0  0  0  0  0  1  0  0  0  0  0  0
  -29.9060  -23.2160   19.4340 O   0  0  0  0  0  0  0  0  0  0  0  0
  -30.4970  -15.1030   20.1460 C   0  0  0  0  0  0  0  0  0  0  0  0
  -30.3170  -12.7390   19.2250 C   0  0  0  0  0  2  0  0  0  0  0  0
  -29.3510  -12.6790   18.0200 C   0  0  0  0  0  2  0  0  0  0  0  0
  -27.9060  -12.4560   18.5010 C   0  0  0  0  0  2  0  0  0  0  0  0
  -27.5310  -13.3780   19.6910 C   0  0  0  0  0  3  0  0  0  0  0  0
  -28.6270  -13.4270   20.7800 C   0  0  0  0  0  2  0  0  0  0  0  0
  -29.8700  -13.8520   20.1200 N   0  0  0  0  0  0  0  0  0  0  0  0
  -31.6840  -15.0790   19.8150 O   0  0  0  0  0  0  0  0  0  0  0  0
  -29.7660  -16.3320   20.3380 N   0  0  0  0  0  0  0  0  0  0  0  0
  -28.8030  -16.1300   20.5540 H   0  0  0  0  0  0  0  0  0  0  0  0
  -25.1830  -13.9250   20.5400 C   0  0  0  0  0  0  0  0  0  0  0  0
  -24.1350  -13.1380   20.9280 C   0  0  0  0  0  0  0  0  0  0  0  0
  -24.5990  -11.7890   20.8430 C   0  0  0  0  0  0  0  0  0  0  0  0
  -26.2170  -13.0570   20.2360 N   0  0  0  0  0  0  0  0  0  0  0  0
  -25.8780  -11.7640   20.4840 N   0  0  0  0  0  0  0  0  0  0  0  0
  -23.8790  -10.5200   21.0250 C   0  0  0  0  0  0  0  0  0  0  0  0
  -24.3210   -9.5450   21.9450 C   0  0  0  0  0  3  0  0  0  0  0  0
  -23.5980   -8.3450   22.1190 C   0  0  0  0  0  3  0  0  0  0  0  0
  -22.4200   -8.1090   21.3710 C   0  0  0  0  0  0  0  0  0  0  0  0
  -21.9970   -9.0720   20.4380 C   0  0  0  0  0  3  0  0  0  0  0  0
  -22.7200  -10.2650   20.2640 C   0  0  0  0  0  3  0  0  0  0  0  0
  -21.6700   -6.9600   21.4540 O   0  0  0  0  0  0  0  0  0  0  0  0
  -21.6000   -6.2300   22.6130 C   0  0  0  0  0  0  0  0  0  0  0  0
  -21.0550   -6.7660   23.8000 C   0  0  0  0  0  3  0  0  0  0  0  0
  -20.9370   -5.9590   24.9490 C   0  0  0  0  0  3  0  0  0  0  0  0
  -21.3540   -4.6140   24.9100 C   0  0  0  0  0  0  0  0  0  0  0  0
  -21.8920   -4.0760   23.7270 C   0  0  0  0  0  3  0  0  0  0  0  0
  -22.0120   -4.8820   22.5800 C   0  0  0  0  0  0  0  0  0  0  0  0
  -22.5100   -4.3540   21.4370 F   0  0  0  0  0  0  0  0  0  0  0  0
  -21.2340   -3.8340   26.0090 F   0  0  0  0  0  0  0  0  0  0  0  0
  -22.7490  -13.6060   21.2590 C   0  0  0  0  0  0  0  0  0  0  0  0
  -22.0490  -12.8820   22.1240 N   0  0  0  0  0  0  0  0  0  0  0  0
  -22.2970  -14.6490   20.7870 O   0  0  0  0  0  0  0  0  0  0  0  0
  -22.4260  -12.0360   22.5270 H   0  0  0  0  0  0  0  0  0  0  0  0
  -21.1200  -13.1790   22.3920 H   0  0  0  0  0  0  0  0  0  0  0  0
  -25.3390  -15.3000   20.3960 N   0  0  0  0  0  0  0  0  0  0  0  0
  -24.5790  -15.9500   20.5590 H   0  0  0  0  0  0  0  0  0  0  0  0
  -26.1720  -15.7490   20.0380 H   0  0  0  0  0  0  0  0  0  0  0  0
  -33.7030  -17.9350   19.6330 C   0  0  0  0  0  1  0  0  0  0  0  0
  -32.4280  -17.5250   20.1220 O   0  0  0  0  0  0  0  0  0  0  0  0
  -27.8540  -24.6730   20.0030 C   0  0  0  0  0  2  0  0  0  0  0  0
  -28.1390  -26.2010   20.2520 O   0  0  0  0  0  0  0  0  0  0  0  0
  -24.5780  -31.9580   23.2280 C   0  0  0  0  0  0  0  0  0  0  0  0
  -27.1010  -27.2110   20.1800 C   0  0  0  0  0  0  0  0  0  0  0  0
  -23.3570  -30.5690   21.5990 C   0  0  0  0  0  3  0  0  0  0  0  0
  -24.7860  -28.9860   20.1610 C   0  0  0  0  0  0  0  0  0  0  0  0
  -25.9140  -30.8150   21.4160 C   0  0  0  0  0  2  0  0  0  0  0  0
  -25.9740  -29.4210   20.7640 C   0  0  0  0  0  0  0  0  0  0  0  0
  -27.1310  -28.5490   20.7560 C   0  0  0  0  0  3  0  0  0  0  0  0
  -25.8890  -26.8880   19.5310 C   0  0  0  0  0  3  0  0  0  0  0  0
  -24.7580  -27.7340   19.5290 C   0  0  0  0  0  3  0  0  0  0  0  0
  -23.5650  -29.8910   20.2190 C   0  0  0  0  0  2  0  0  0  0  0  0
  -24.6370  -31.1370   22.1350 N   0  0  0  0  0  0  0  0  0  0  0  0
  -23.4970  -32.2490   23.7660 O   0  0  0  0  0  0  0  0  0  0  0  0
  -22.6810  -29.5660   22.5680 C   0  0  0  0  0  0  0  0  0  0  0  0
  -21.3540  -29.3870   22.4390 N   0  0  0  0  0  0  0  0  0  0  0  0
  -23.3540  -28.9510   23.3990 O   0  0  0  0  0  0  0  0  0  0  0  0
  -20.8670  -29.9360   21.7440 H   0  0  0  0  0  0  0  0  0  0  0  0
  -17.9730  -28.1960   22.9700 C   0  0  0  0  0  0  0  0  0  0  0  0
  -20.5350  -28.4520   23.2150 C   0  0  0  0  0  3  0  0  0  0  0  0
  -20.6270  -27.0190   22.6390 C   0  0  0  0  0  2  0  0  0  0  0  0
  -19.5160  -26.7010   21.6340 C   0  0  0  0  0  2  0  0  0  0  0  0
  -18.1400  -26.8480   22.2900 C   0  0  0  0  0  2  0  0  0  0  0  0
  -19.0970  -28.9560   23.3900 C   0  0  0  0  0  0  0  0  0  0  0  0
  -18.8840  -30.2160   23.9890 C   0  0  0  0  0  3  0  0  0  0  0  0
  -17.5820  -30.7180   24.1690 C   0  0  0  0  0  3  0  0  0  0  0  0
  -16.4730  -29.9560   23.7630 C   0  0  0  0  0  3  0  0  0  0  0  0
  -16.6690  -28.6970   23.1690 C   0  0  0  0  0  3  0  0  0  0  0  0
  -25.8630  -32.5900   23.8440 C   0  0  0  0  0  3  0  0  0  0  0  0
  -25.5660  -33.9960   24.1620 N   0  0  0  0  0  0  0  0  0  0  0  0
  -25.8990  -35.0400   23.3920 C   0  0  0  0  0  0  0  0  0  0  0  0
  -26.5570  -34.9210   22.3550 O   0  0  0  0  0  0  0  0  0  0  0  0
  -24.9820  -34.1620   24.9680 H   0  0  0  0  0  0  0  0  0  0  0  0
  -24.1980  -36.8600   23.0280 C   0  0  0  0  0  1  0  0  0  0  0  0
  -25.4320  -36.4390   23.8440 C   0  0  0  0  0  3  0  0  0  0  0  0
  -27.5680  -37.3100   24.6880 C   0  0  0  0  0  1  0  0  0  0  0  0
  -26.4800  -37.4770   23.7280 N   0  0  0  0  0  0  0  0  0  0  0  0
  -26.0820  -38.4040   23.8570 H   0  0  0  0  0  0  0  0  0  0  0  0
  -26.3670  -31.8310   25.1350 C   0  0  1  0  0  0  0  0  0  0  0  0
  -25.2670  -31.6110   26.2000 C   0  0  0  0  0  1  0  0  0  0  0  0
  -26.9470  -30.4460   24.7680 C   0  0  0  0  0  1  0  0  0  0  0  0
  -27.5170  -32.6290   25.7950 C   0  0  0  0  0  1  0  0  0  0  0  0
  2  4  2  0
  2  6  1  0
  3  7  1  0
  3  1  2  0
  4  3  1  0
  5  1  1  0
  5 22  1  0
  6 53  1  0
  6  5  2  0
  7 10  1  0
  7  8  1  0
  8 54  1  0
  9  4  1  0
  9 11  1  1
 12  9  1  0
 13  9  1  0
 13  8  1  0
 14 22  1  0
 15 20  1  0
 16 17  1  0
 16 15  1  0
 18 17  1  0
 18 27  1  0
 18 19  1  0
 20 14  1  0
 20 19  1  0
 21 14  2  0
 22 23  1  0
 24 25  2  0
 25 44  1  0
 26 25  1  0
 26 29  1  0
 27 28  1  0
 27 24  1  0
 28 26  2  0
 29 30  1  0
 30 31  2  0
 32 35  1  0
 32 31  1  0
 33 32  2  0
 34 33  1  0
 34 29  2  0
 35 36  1  0
 36 37  1  0
 37 38  2  0
 39 38  1  0
 39 43  1  0
 40 39  2  0
 41 36  2  0
 41 40  1  0
 42 41  1  0
 44 45  1  0
 45 48  1  0
 45 47  1  0
 46 44  2  0
 49 24  1  0
 49 50  1  0
 51 49  1  0
 52 53  1  0
 54 55  1  0
 56 67  2  0
 57 55  1  0
 57 62  1  0
 58 66  1  0
 58 68  1  0
 59 65  1  0
 59 61  1  0
 60 66  1  0
 61 60  1  0
 62 61  2  0
 63 57  2  0
 64 63  1  0
 64 59  2  0
 65 58  1  0
 66 56  1  0
 68 70  2  0
 69 68  1  0
 71 69  1  0
 72 81  2  0
 72 77  1  0
 73 69  1  0
 73 77  1  0
 74 73  1  0
 75 76  1  0
 75 74  1  0
 76 72  1  0
 77 78  2  0
 78 79  1  0
 80 79  2  0
 81 80  1  0
 82 56  1  0
 82 83  1  0
 82 92  1  0
 83 86  1  0
 84 88  1  0
 84 83  1  0
 85 84  2  0
 88 87  1  0
 90 88  1  0
 90 91  1  0
 90 89  1  0
 92 95  1  1
 92 93  1  0
 94 92  1  0
M  ISO  4  14 100  22 100  54 101  55 101
M  END
>  <TORSDO>  (29) 
F 18

>  <SCORE>  (29) 
-15.450

>  <name>  (29) 
29

>  <ligand_id>  (29) 
29

>  <original_smiles>  (29) 
[H]c1c([H])c([H])c2c(c1[H])C([H])([H])C([H])([H])C([H])([H])C2([H])N([H])C(=O)C1([H])N(C(=O)C([H])(N([H])C(=O)C([H])(N([H])C([H])([H])[H])C([H])([H])[H])C(C([H])([H])[H])(C([H])([H])[H])C([H])([H])[H])C([H])([H])c2c([H])c(OC([H])([H])C3([H])OC(C([H])([H])[H])(C([H])([H])[H])c4c([H])c(OC([H])([H])[H])c(N([H])C(=O)N5C([H])([H])C([H])([H])C([H])([H])C([H])(n6nc(-c7c([H])c([H])c(Oc8c([H])c([H])c(F)c([H])c8F)c([H])c7[H])c(C(=O)N([H])[H])c6N([H])[H])C5([H])[H])c([H])c4C3([H])C([H])([H])[H])c([H])c([H])c2C1([H])[H]

>  <smiles>  (29) 
[H]c1c([H])c([H])c2c(c1[H])C([H])([H])C([H])([H])C([H])([H])C2([H])N([H])C(=O)C1([H])N(C(=O)C([H])(N([H])C(=O)C([H])(N([H])C([H])([H])[H])C([H])([H])[H])C(C([H])([H])[H])(C([H])([H])[H])C([H])([H])[H])C([H])([H])c2c([H])c(OC([H])([H])C3([H])OC(C([H])([H])[H])(C([H])([H])[H])c4c([H])c(OC([H])([H])[H])c(N([H])C(=O)N5C([H])([H])C([H])([H])C([H])([H])C([H])(n6nc(-c7c([H])c([H])c(Oc8c([H])c([H])c(F)c([H])c8F)c([H])c7[H])c(C(=O)N([H])[H])c6N([H])[H])C5([H])[H])c([H])c4C3([H])C([H])([H])[H])c([H])c([H])c2C1([H])[H]

$$$$
30:0:0
     RDKit          3D

 94103  0  0  1  0  0  0  0  0999 V2000
  -29.1150  -21.3270   19.7170 C   0  0  0  0  0  0  0  0  0  0  0  0
  -29.6140  -20.0150   20.3590 C   0  0  0  0  0  0  0  0  0  0  0  0
  -29.0670  -22.7810   20.2890 C   0  0  0  0  0  0  0  0  0  0  0  0
  -30.0730  -20.2630   21.6770 C   0  0  0  0  0  0  0  0  0  0  0  0
  -29.5820  -22.7680   21.6150 C   0  0  0  0  0  0  0  0  0  0  0  0
  -30.1160  -21.5850   22.2460 C   0  0  0  0  0  0  0  0  0  0  0  0
  -28.5880  -21.0900   18.3100 C   0  0  0  0  0  2  0  0  0  0  0  0
  -29.2330  -18.5370   18.2230 C   0  0  0  0  0  2  0  0  0  0  0  0
  -29.8410  -18.4160   19.6450 C   0  0  0  0  0  3  0  0  0  0  0  0
  -28.1230  -19.6210   18.0460 C   0  0  0  0  0  3  0  0  0  0  0  0
  -30.5520  -19.0620   22.4920 C   0  0  0  0  0  1  0  0  0  0  0  0
  -29.5220  -24.0770   22.4060 C   0  0  0  0  0  1  0  0  0  0  0  0
  -30.8020  -21.7500   23.6070 C   0  0  0  0  0  1  0  0  0  0  0  0
  -27.4940  -19.5090   16.6480 C   0  0  0  0  0  1  0  0  0  0  0  0
  -30.5630  -15.5310   20.1240 C   0  0  0  0  0  0  0  0  0  0  0  0
  -30.6720  -13.0020   19.4730 C   0  0  0  0  0  2  0  0  0  0  0  0
  -29.7780  -12.6290   18.2610 C   0  0  0  0  0  2  0  0  0  0  0  0
  -28.3440  -12.3160   18.7180 C   0  0  0  0  0  2  0  0  0  0  0  0
  -27.8340  -13.3490   19.7520 C   0  0  0  0  0  3  0  0  0  0  0  0
  -28.8620  -13.6620   20.8640 C   0  0  0  0  0  2  0  0  0  0  0  0
  -30.0650  -14.1880   20.1960 N   0  0  0  0  0  0  0  0  0  0  0  0
  -31.7750  -15.5470   19.8590 O   0  0  0  0  0  0  0  0  0  0  0  0
  -29.7510  -16.7940   20.1500 N   0  0  0  0  0  0  0  0  0  0  0  0
  -28.8080  -16.5730   20.4350 H   0  0  0  0  0  0  0  0  0  0  0  0
  -25.4870  -13.8760   20.5850 C   0  0  0  0  0  0  0  0  0  0  0  0
  -24.4320  -13.0870   20.9480 C   0  0  0  0  0  0  0  0  0  0  0  0
  -24.8950  -11.7380   20.8520 C   0  0  0  0  0  0  0  0  0  0  0  0
  -26.5210  -13.0110   20.2810 N   0  0  0  0  0  0  0  0  0  0  0  0
  -26.1790  -11.7150   20.5090 N   0  0  0  0  0  0  0  0  0  0  0  0
  -24.1660  -10.4720   21.0070 C   0  0  0  0  0  0  0  0  0  0  0  0
  -24.5700   -9.4960   21.9460 C   0  0  0  0  0  3  0  0  0  0  0  0
  -23.8390   -8.2970   22.0920 C   0  0  0  0  0  3  0  0  0  0  0  0
  -22.6900   -8.0650   21.3000 C   0  0  0  0  0  0  0  0  0  0  0  0
  -22.3050   -9.0300   20.3520 C   0  0  0  0  0  3  0  0  0  0  0  0
  -23.0370  -10.2190   20.2030 C   0  0  0  0  0  3  0  0  0  0  0  0
  -21.9340   -6.9190   21.3550 O   0  0  0  0  0  0  0  0  0  0  0  0
  -21.7720   -6.2190   22.5240 C   0  0  0  0  0  0  0  0  0  0  0  0
  -21.1950   -6.8070   23.6700 C   0  0  0  0  0  3  0  0  0  0  0  0
  -20.9830   -6.0310   24.8280 C   0  0  0  0  0  3  0  0  0  0  0  0
  -21.3370   -4.6700   24.8390 C   0  0  0  0  0  0  0  0  0  0  0  0
  -21.9060   -4.0810   23.6960 C   0  0  0  0  0  3  0  0  0  0  0  0
  -22.1190   -4.8530   22.5400 C   0  0  0  0  0  0  0  0  0  0  0  0
  -22.6480   -4.2750   21.4350 F   0  0  0  0  0  0  0  0  0  0  0  0
  -21.1270   -3.9220   25.9480 F   0  0  0  0  0  0  0  0  0  0  0  0
  -23.0430  -13.5580   21.2650 C   0  0  0  0  0  0  0  0  0  0  0  0
  -22.3400  -12.8470   22.1380 N   0  0  0  0  0  0  0  0  0  0  0  0
  -22.5920  -14.5920   20.7740 O   0  0  0  0  0  0  0  0  0  0  0  0
  -22.7190  -12.0100   22.5560 H   0  0  0  0  0  0  0  0  0  0  0  0
  -21.4090  -13.1440   22.3940 H   0  0  0  0  0  0  0  0  0  0  0  0
  -25.6470  -15.2530   20.4570 N   0  0  0  0  0  0  0  0  0  0  0  0
  -24.8790  -15.8980   20.6060 H   0  0  0  0  0  0  0  0  0  0  0  0
  -26.4720  -15.7020   20.0820 H   0  0  0  0  0  0  0  0  0  0  0  0
  -28.3970  -24.3250   19.7000 C   0  0  0  0  0  2  0  0  0  0  0  0
  -28.4630  -25.9230   20.2130 O   0  0  0  0  0  0  0  0  0  0  0  0
  -24.7180  -31.8000   23.2150 C   0  0  0  0  0  0  0  0  0  0  0  0
  -27.4540  -27.0380   20.1050 C   0  0  0  0  0  0  0  0  0  0  0  0
  -23.6000  -30.4350   21.4990 C   0  0  0  0  0  3  0  0  0  0  0  0
  -25.1210  -28.9070   20.0560 C   0  0  0  0  0  0  0  0  0  0  0  0
  -26.1660  -30.6910   21.4330 C   0  0  0  0  0  2  0  0  0  0  0  0
  -26.2830  -29.3020   20.7300 C   0  0  0  0  0  0  0  0  0  0  0  0
  -27.4380  -28.3890   20.7340 C   0  0  0  0  0  3  0  0  0  0  0  0
  -26.2650  -26.8170   19.3720 C   0  0  0  0  0  3  0  0  0  0  0  0
  -25.1410  -27.6890   19.3560 C   0  0  0  0  0  3  0  0  0  0  0  0
  -23.8820  -29.8030   20.1070 C   0  0  0  0  0  2  0  0  0  0  0  0
  -24.8480  -31.0030   22.1030 N   0  0  0  0  0  0  0  0  0  0  0  0
  -23.6090  -32.0480   23.7160 O   0  0  0  0  0  0  0  0  0  0  0  0
  -22.8990  -29.3950   22.4140 C   0  0  0  0  0  0  0  0  0  0  0  0
  -21.5740  -29.2200   22.2600 N   0  0  0  0  0  0  0  0  0  0  0  0
  -23.5580  -28.7480   23.2310 O   0  0  0  0  0  0  0  0  0  0  0  0
  -21.0930  -29.7950   21.5820 H   0  0  0  0  0  0  0  0  0  0  0  0
  -18.1980  -27.9520   22.6780 C   0  0  0  0  0  0  0  0  0  0  0  0
  -20.7520  -28.2400   22.9810 C   0  0  0  0  0  3  0  0  0  0  0  0
  -20.8770  -26.8350   22.3460 C   0  0  0  0  0  2  0  0  0  0  0  0
  -19.7900  -26.5450   21.3050 C   0  0  0  0  0  2  0  0  0  0  0  0
  -18.4000  -26.6390   21.9400 C   0  0  0  0  0  2  0  0  0  0  0  0
  -19.3010  -28.7110   23.1520 C   0  0  0  0  0  0  0  0  0  0  0  0
  -19.0550  -29.9380   23.8060 C   0  0  0  0  0  3  0  0  0  0  0  0
  -17.7410  -30.4090   23.9860 C   0  0  0  0  0  3  0  0  0  0  0  0
  -16.6520  -29.6470   23.5250 C   0  0  0  0  0  3  0  0  0  0  0  0
  -16.8820  -28.4200   22.8780 C   0  0  0  0  0  3  0  0  0  0  0  0
  -25.9560  -32.4520   23.9030 C   0  0  0  0  0  3  0  0  0  0  0  0
  -25.6130  -33.8480   24.2280 N   0  0  0  0  0  0  0  0  0  0  0  0
  -25.9290  -34.9120   23.4770 C   0  0  0  0  0  0  0  0  0  0  0  0
  -26.6000  -34.8230   22.4460 O   0  0  0  0  0  0  0  0  0  0  0  0
  -25.0150  -33.9900   25.0280 H   0  0  0  0  0  0  0  0  0  0  0  0
  -24.1580  -36.6760   23.1570 C   0  0  0  0  0  1  0  0  0  0  0  0
  -25.4240  -36.2940   23.9420 C   0  0  0  0  0  3  0  0  0  0  0  0
  -27.5510  -37.2360   24.7310 C   0  0  0  0  0  1  0  0  0  0  0  0
  -26.4320  -37.3690   23.8020 N   0  0  0  0  0  0  0  0  0  0  0  0
  -26.0090  -38.2820   23.9470 H   0  0  0  0  0  0  0  0  0  0  0  0
  -26.4080  -31.6900   25.2110 C   0  0  1  0  0  0  0  0  0  0  0  0
  -25.2610  -31.4500   26.2220 C   0  0  0  0  0  1  0  0  0  0  0  0
  -27.0180  -30.3120   24.8640 C   0  0  0  0  0  1  0  0  0  0  0  0
  -27.5190  -32.4930   25.9270 C   0  0  0  0  0  1  0  0  0  0  0  0
  1  3  2  0
  1  2  1  0
  2  4  2  0
  3  5  1  0
  4  6  1  0
  4 11  1  0
  5  6  2  0
  5 12  1  0
  6 13  1  0
  7  1  1  0
  8  9  1  0
  9 23  1  0
  9  2  1  0
 10 14  1  0
 10  8  1  0
 10  7  1  0
 15 23  1  0
 15 21  1  0
 16 21  1  0
 17 18  1  0
 17 16  1  0
 19 18  1  0
 19 28  1  0
 19 20  1  0
 21 20  1  0
 22 15  2  0
 23 24  1  0
 25 26  2  0
 26 45  1  0
 27 26  1  0
 27 30  1  0
 28 29  1  0
 28 25  1  0
 29 27  2  0
 30 31  1  0
 31 32  2  0
 33 36  1  0
 33 32  1  0
 34 33  2  0
 35 34  1  0
 35 30  2  0
 36 37  1  0
 37 42  2  0
 37 38  1  0
 38 39  2  0
 39 40  1  0
 40 44  1  0
 41 40  2  0
 42 41  1  0
 43 42  1  0
 45 46  1  0
 46 49  1  0
 46 48  1  0
 47 45  2  0
 50 25  1  0
 50 51  1  0
 52 50  1  0
 53 54  1  0
 53  3  1  0
 55 66  2  0
 56 54  1  0
 56 61  1  0
 57 65  1  0
 57 67  1  0
 58 64  1  0
 58 60  1  0
 59 65  1  0
 60 61  2  0
 60 59  1  0
 62 56  2  0
 63 62  1  0
 63 58  2  0
 64 57  1  0
 65 55  1  0
 67 69  2  0
 68 67  1  0
 70 68  1  0
 71 80  2  0
 71 76  1  0
 72 68  1  0
 72 76  1  0
 73 72  1  0
 74 75  1  0
 74 73  1  0
 75 71  1  0
 76 77  2  0
 77 78  1  0
 79 78  2  0
 80 79  1  0
 81 55  1  0
 81 82  1  0
 81 91  1  0
 82 85  1  0
 83 87  1  0
 83 82  1  0
 84 83  2  0
 87 86  1  0
 89 87  1  0
 89 90  1  0
 89 88  1  0
 91 94  1  1
 91 92  1  0
 93 91  1  0
M  ISO  4  15 100  23 100  53 101  54 101
M  END
>  <TORSDO>  (30) 
F 17

>  <SCORE>  (30) 
-16.649

>  <name>  (30) 
30

>  <ligand_id>  (30) 
30

>  <original_smiles>  (30) 
[H]c1c([H])c([H])c2c(c1[H])C([H])([H])C([H])([H])C([H])([H])C2([H])N([H])C(=O)C1([H])N(C(=O)C([H])(N([H])C(=O)C([H])(N([H])C([H])([H])[H])C([H])([H])[H])C(C([H])([H])[H])(C([H])([H])[H])C([H])([H])[H])C([H])([H])c2c([H])c(OC([H])([H])c3c(C([H])([H])[H])c(C([H])([H])[H])c(C([H])([H])[H])c4c3C([H])([H])C([H])(C([H])([H])[H])C([H])([H])C4([H])N([H])C(=O)N3C([H])([H])C([H])([H])C([H])([H])C([H])(n4nc(-c5c([H])c([H])c(Oc6c([H])c([H])c(F)c([H])c6F)c([H])c5[H])c(C(=O)N([H])[H])c4N([H])[H])C3([H])[H])c([H])c([H])c2C1([H])[H]

>  <smiles>  (30) 
[H]c1c([H])c([H])c2c(c1[H])C([H])([H])C([H])([H])C([H])([H])C2([H])N([H])C(=O)C1([H])N(C(=O)C([H])(N([H])C(=O)C([H])(N([H])C([H])([H])[H])C([H])([H])[H])C(C([H])([H])[H])(C([H])([H])[H])C([H])([H])[H])C([H])([H])c2c([H])c(OC([H])([H])c3c(C([H])([H])[H])c(C([H])([H])[H])c(C([H])([H])[H])c4c3C([H])([H])C([H])(C([H])([H])[H])C([H])([H])C4([H])N([H])C(=O)N3C([H])([H])C([H])([H])C([H])([H])C([H])(n4nc(-c5c([H])c([H])c(Oc6c([H])c([H])c(F)c([H])c6F)c([H])c5[H])c(C(=O)N([H])[H])c4N([H])[H])C3([H])[H])c([H])c([H])c2C1([H])[H]

$$$$
31:0:0
     RDKit          3D

 93102  0  0  1  0  0  0  0  0999 V2000
  -29.0160  -21.6230   19.7030 C   0  0  0  0  0  3  0  0  0  0  0  0
  -29.3760  -23.1430   21.9790 C   0  0  0  0  0  3  0  0  0  0  0  0
  -29.4210  -20.8990   20.8710 C   0  0  0  0  0  0  0  0  0  0  0  0
  -28.7750  -23.0530   19.6750 C   0  0  0  0  0  0  0  0  0  0  0  0
  -29.6200  -21.7370   22.0150 C   0  0  0  0  0  0  0  0  0  0  0  0
  -28.9160  -23.8650   20.8450 C   0  0  0  0  0  0  0  0  0  0  0  0
  -28.3500  -23.6990   18.3690 C   0  0  0  0  0  1  0  0  0  0  0  0
  -30.0520  -21.1600   23.3540 C   0  0  0  0  0  1  0  0  0  0  0  0
  -30.9980  -14.9480   20.3880 C   0  0  0  0  0  0  0  0  0  0  0  0
  -30.7130  -12.6530   19.4240 C   0  0  0  0  0  2  0  0  0  0  0  0
  -29.7990  -12.6370   18.1840 C   0  0  0  0  0  2  0  0  0  0  0  0
  -28.3360  -12.4370   18.6080 C   0  0  0  0  0  2  0  0  0  0  0  0
  -27.9270  -13.3880   19.7630 C   0  0  0  0  0  3  0  0  0  0  0  0
  -28.9740  -13.4310   20.9010 C   0  0  0  0  0  2  0  0  0  0  0  0
  -30.2670  -13.7730   20.2980 N   0  0  0  0  0  0  0  0  0  0  0  0
  -32.1990  -14.8820   20.1160 O   0  0  0  0  0  0  0  0  0  0  0  0
  -28.8720  -18.3010   20.0610 C   0  0  0  0  0  2  0  0  0  0  0  0
  -31.1040  -18.7980   20.8130 C   0  0  0  0  0  2  0  0  0  0  0  0
  -29.0850  -16.7430   20.3690 C   0  0  0  0  0  2  0  0  0  0  0  0
  -31.3350  -17.2960   21.2550 C   0  0  0  0  0  2  0  0  0  0  0  0
  -29.6550  -19.3030   20.9650 C   0  0  0  0  0  3  0  0  0  0  0  0
  -30.4500  -16.2140   20.6910 N   0  0  0  0  0  0  0  0  0  0  0  0
  -25.5430  -13.9940   20.4720 C   0  0  0  0  0  0  0  0  0  0  0  0
  -24.4750  -13.2250   20.8370 C   0  0  0  0  0  0  0  0  0  0  0  0
  -24.9380  -11.8730   20.8230 C   0  0  0  0  0  0  0  0  0  0  0  0
  -26.5870  -13.1080   20.2550 N   0  0  0  0  0  0  0  0  0  0  0  0
  -26.2330  -11.8300   20.5360 N   0  0  0  0  0  0  0  0  0  0  0  0
  -24.2110  -10.6120   21.0040 C   0  0  0  0  0  0  0  0  0  0  0  0
  -24.6210   -9.6510   21.9550 C   0  0  0  0  0  3  0  0  0  0  0  0
  -23.8880   -8.4580   22.1290 C   0  0  0  0  0  3  0  0  0  0  0  0
  -22.7350   -8.2140   21.3460 C   0  0  0  0  0  0  0  0  0  0  0  0
  -22.3460   -9.1610   20.3830 C   0  0  0  0  0  3  0  0  0  0  0  0
  -23.0800  -10.3460   20.2070 C   0  0  0  0  0  3  0  0  0  0  0  0
  -21.9790   -7.0700   21.4240 O   0  0  0  0  0  0  0  0  0  0  0  0
  -21.8740   -6.3580   22.5900 C   0  0  0  0  0  0  0  0  0  0  0  0
  -21.3690   -6.9360   23.7740 C   0  0  0  0  0  3  0  0  0  0  0  0
  -21.2110   -6.1490   24.9320 C   0  0  0  0  0  3  0  0  0  0  0  0
  -21.5470   -4.7830   24.9070 C   0  0  0  0  0  0  0  0  0  0  0  0
  -22.0470   -4.2020   23.7270 C   0  0  0  0  0  3  0  0  0  0  0  0
  -22.2050   -4.9870   22.5710 C   0  0  0  0  0  0  0  0  0  0  0  0
  -22.6640   -4.4170   21.4310 F   0  0  0  0  0  0  0  0  0  0  0  0
  -21.3900   -4.0250   26.0160 F   0  0  0  0  0  0  0  0  0  0  0  0
  -23.0740  -13.7050   21.0840 C   0  0  0  0  0  0  0  0  0  0  0  0
  -22.3400  -13.0220   21.9560 N   0  0  0  0  0  0  0  0  0  0  0  0
  -22.6410  -14.7200   20.5410 O   0  0  0  0  0  0  0  0  0  0  0  0
  -22.7130  -12.2040   22.4170 H   0  0  0  0  0  0  0  0  0  0  0  0
  -21.3990  -13.3200   22.1710 H   0  0  0  0  0  0  0  0  0  0  0  0
  -25.7050  -15.3640   20.2740 N   0  0  0  0  0  0  0  0  0  0  0  0
  -24.9120  -15.9960   20.3040 H   0  0  0  0  0  0  0  0  0  0  0  0
  -26.5300  -15.7860   19.8710 H   0  0  0  0  0  0  0  0  0  0  0  0
  -27.0930  -25.3250   21.8380 C   0  0  0  0  0  1  0  0  0  0  0  0
  -28.4560  -25.3870   21.0970 C   0  0  0  0  0  3  0  0  0  0  0  0
  -28.5700  -26.5050   20.0940 O   0  0  0  0  0  0  0  0  0  0  0  0
  -24.6360  -31.7880   23.1350 C   0  0  0  0  0  0  0  0  0  0  0  0
  -27.5020  -27.4210   20.0130 C   0  0  0  0  0  0  0  0  0  0  0  0
  -23.5350  -30.3940   21.4210 C   0  0  0  0  0  3  0  0  0  0  0  0
  -25.0870  -28.9590   19.9700 C   0  0  0  0  0  0  0  0  0  0  0  0
  -26.0630  -30.8130   21.3200 C   0  0  0  0  0  2  0  0  0  0  0  0
  -26.2190  -29.4620   20.6290 C   0  0  0  0  0  0  0  0  0  0  0  0
  -27.4330  -28.7050   20.6450 C   0  0  0  0  0  3  0  0  0  0  0  0
  -26.3680  -27.0010   19.2880 C   0  0  0  0  0  3  0  0  0  0  0  0
  -25.1680  -27.7390   19.2820 C   0  0  0  0  0  3  0  0  0  0  0  0
  -23.8050  -29.7690   20.0270 C   0  0  0  0  0  2  0  0  0  0  0  0
  -24.7620  -31.0130   22.0160 N   0  0  0  0  0  0  0  0  0  0  0  0
  -23.5290  -32.0050   23.6520 O   0  0  0  0  0  0  0  0  0  0  0  0
  -22.8870  -29.3220   22.3330 C   0  0  0  0  0  0  0  0  0  0  0  0
  -21.5680  -29.1170   22.1860 N   0  0  0  0  0  0  0  0  0  0  0  0
  -23.5740  -28.6810   23.1330 O   0  0  0  0  0  0  0  0  0  0  0  0
  -21.0700  -29.6720   21.5020 H   0  0  0  0  0  0  0  0  0  0  0  0
  -18.2140  -27.8520   22.6730 C   0  0  0  0  0  0  0  0  0  0  0  0
  -20.7710  -28.1340   22.9200 C   0  0  0  0  0  3  0  0  0  0  0  0
  -20.8870  -26.7310   22.2740 C   0  0  0  0  0  2  0  0  0  0  0  0
  -19.7720  -26.4340   21.2670 C   0  0  0  0  0  2  0  0  0  0  0  0
  -18.4040  -26.5330   21.9420 C   0  0  0  0  0  2  0  0  0  0  0  0
  -19.3290  -28.6090   23.1200 C   0  0  0  0  0  0  0  0  0  0  0  0
  -19.1020  -29.8420   23.7710 C   0  0  0  0  0  3  0  0  0  0  0  0
  -17.7930  -30.3140   23.9800 C   0  0  0  0  0  3  0  0  0  0  0  0
  -16.6920  -29.5570   23.5420 C   0  0  0  0  0  3  0  0  0  0  0  0
  -16.9060  -28.3260   22.8940 C   0  0  0  0  0  3  0  0  0  0  0  0
  -25.8740  -32.4540   23.8100 C   0  0  0  0  0  3  0  0  0  0  0  0
  -25.5110  -33.8390   24.1410 N   0  0  0  0  0  0  0  0  0  0  0  0
  -25.8320  -34.9090   23.4030 C   0  0  0  0  0  0  0  0  0  0  0  0
  -26.5330  -34.8350   22.3880 O   0  0  0  0  0  0  0  0  0  0  0  0
  -24.8860  -33.9670   24.9250 H   0  0  0  0  0  0  0  0  0  0  0  0
  -24.0560  -36.6480   23.0100 C   0  0  0  0  0  1  0  0  0  0  0  0
  -25.2870  -36.2780   23.8540 C   0  0  0  0  0  3  0  0  0  0  0  0
  -27.3660  -37.2240   24.7520 C   0  0  0  0  0  1  0  0  0  0  0  0
  -26.2890  -37.3630   23.7780 N   0  0  0  0  0  0  0  0  0  0  0  0
  -25.8520  -38.2710   23.9100 H   0  0  0  0  0  0  0  0  0  0  0  0
  -26.3680  -31.6880   25.0990 C   0  0  1  0  0  0  0  0  0  0  0  0
  -25.2430  -31.4080   26.1240 C   0  0  0  0  0  1  0  0  0  0  0  0
  -27.0050  -30.3310   24.7200 C   0  0  0  0  0  1  0  0  0  0  0  0
  -27.4710  -32.5090   25.8070 C   0  0  0  0  0  1  0  0  0  0  0  0
  1  3  1  0
  2  5  1  0
  3  5  2  0
  4  1  2  0
  4  6  1  0
  5  8  1  0
  6 52  1  0
  6  2  2  0
  7  4  1  0
  9 22  1  0
 10 15  1  0
 11 12  1  0
 11 10  1  0
 13 12  1  0
 13 26  1  0
 13 14  1  0
 15  9  1  0
 15 14  1  0
 16  9  2  0
 17 19  1  0
 17 21  1  0
 18 21  1  0
 18 20  1  0
 19 22  1  0
 21  3  1  0
 22 20  1  0
 23 24  2  0
 24 43  1  0
 25 24  1  0
 25 28  1  0
 26 23  1  0
 26 27  1  0
 27 25  2  0
 28 29  1  0
 29 30  2  0
 31 34  1  0
 31 30  1  0
 32 31  2  0
 33 32  1  0
 33 28  2  0
 34 35  1  0
 35 36  1  0
 36 37  2  0
 38 37  1  0
 38 42  1  0
 39 38  2  0
 40 35  2  0
 40 39  1  0
 41 40  1  0
 43 44  1  0
 44 47  1  0
 44 46  1  0
 45 43  2  0
 48 49  1  0
 48 23  1  0
 50 48  1  0
 52 51  1  0
 53 52  1  0
 54 65  2  0
 55 53  1  0
 55 60  1  0
 56 64  1  0
 56 66  1  0
 57 63  1  0
 57 59  1  0
 58 64  1  0
 59 60  2  0
 59 58  1  0
 61 55  2  0
 62 61  1  0
 62 57  2  0
 63 56  1  0
 64 54  1  0
 66 68  2  0
 67 66  1  0
 69 67  1  0
 70 79  2  0
 70 75  1  0
 71 67  1  0
 71 75  1  0
 72 71  1  0
 73 74  1  0
 73 72  1  0
 74 70  1  0
 75 76  2  0
 76 77  1  0
 78 77  2  0
 79 78  1  0
 80 54  1  0
 80 81  1  0
 80 90  1  0
 81 84  1  0
 82 86  1  0
 82 81  1  0
 83 82  2  0
 86 85  1  0
 88 86  1  0
 88 89  1  0
 88 87  1  0
 90 93  1  1
 90 91  1  0
 92 90  1  0
M  ISO  4   9 100  22 100  52 101  53 101
M  END
>  <TORSDO>  (31) 
F 17

>  <SCORE>  (31) 
-15.227

>  <name>  (31) 
31

>  <ligand_id>  (31) 
31

>  <original_smiles>  (31) 
[H]c1c([H])c([H])c2c(c1[H])C([H])([H])C([H])([H])C([H])([H])C2([H])N([H])C(=O)C1([H])N(C(=O)C([H])(N([H])C(=O)C([H])(N([H])C([H])([H])[H])C([H])([H])[H])C(C([H])([H])[H])(C([H])([H])[H])C([H])([H])[H])C([H])([H])c2c([H])c(OC([H])(c3c([H])c(C([H])([H])[H])c(C4([H])C([H])([H])C([H])([H])N(C(=O)N5C([H])([H])C([H])([H])C([H])([H])C([H])(n6nc(-c7c([H])c([H])c(Oc8c([H])c([H])c(F)c([H])c8F)c([H])c7[H])c(C(=O)N([H])[H])c6N([H])[H])C5([H])[H])C([H])([H])C4([H])[H])c([H])c3C([H])([H])[H])C([H])([H])[H])c([H])c([H])c2C1([H])[H]

>  <smiles>  (31) 
[H]c1c([H])c([H])c2c(c1[H])C([H])([H])C([H])([H])C([H])([H])C2([H])N([H])C(=O)C1([H])N(C(=O)C([H])(N([H])C(=O)C([H])(N([H])C([H])([H])[H])C([H])([H])[H])C(C([H])([H])[H])(C([H])([H])[H])C([H])([H])[H])C([H])([H])c2c([H])c(OC([H])(c3c([H])c(C([H])([H])[H])c(C4([H])C([H])([H])C([H])([H])N(C(=O)N5C([H])([H])C([H])([H])C([H])([H])C([H])(n6nc(-c7c([H])c([H])c(Oc8c([H])c([H])c(F)c([H])c8F)c([H])c7[H])c(C(=O)N([H])[H])c6N([H])[H])C5([H])[H])C([H])([H])C4([H])[H])c([H])c3C([H])([H])[H])C([H])([H])[H])c([H])c([H])c2C1([H])[H]

$$$$
32:0:0
     RDKit          3D

 94103  0  0  1  0  0  0  0  0999 V2000
  -28.9010  -22.7310   19.0860 C   0  0  0  0  0  3  0  0  0  0  0  0
  -29.6240  -23.4380   21.2530 C   0  0  0  0  0  3  0  0  0  0  0  0
  -29.3760  -21.3990   19.3020 C   0  0  0  0  0  0  0  0  0  0  0  0
  -28.9740  -23.7740   20.0450 C   0  0  0  0  0  0  0  0  0  0  0  0
  -30.1400  -22.1250   21.4850 C   0  0  0  0  0  0  0  0  0  0  0  0
  -30.0030  -21.0540   20.5420 C   0  0  0  0  0  0  0  0  0  0  0  0
  -28.1400  -20.5330   17.1110 C   0  0  0  0  0  2  0  0  0  0  0  0
  -28.0830  -19.4240   18.1270 C   0  0  0  0  0  2  0  0  0  0  0  0
  -29.2250  -20.4180   18.1680 C   0  0  0  0  0  3  0  0  0  0  0  0
  -29.8150  -21.4860   23.9140 C   0  0  0  0  0  1  0  0  0  0  0  0
  -30.8200  -21.8690   22.8220 C   0  0  0  0  0  2  0  0  0  0  0  0
  -28.0820  -25.0490   19.8300 C   0  0  0  0  0  2  0  0  0  0  0  0
  -28.4140  -26.4500   20.1930 O   0  0  0  0  0  0  0  0  0  0  0  0
  -24.6740  -31.8470   23.2590 C   0  0  0  0  0  0  0  0  0  0  0  0
  -27.3240  -27.3520   20.1240 C   0  0  0  0  0  0  0  0  0  0  0  0
  -23.4930  -30.4860   21.5770 C   0  0  0  0  0  3  0  0  0  0  0  0
  -24.9630  -28.9860   20.1300 C   0  0  0  0  0  0  0  0  0  0  0  0
  -26.0380  -30.8060   21.4370 C   0  0  0  0  0  2  0  0  0  0  0  0
  -26.1280  -29.4450   20.7570 C   0  0  0  0  0  0  0  0  0  0  0  0
  -27.3100  -28.6390   20.7520 C   0  0  0  0  0  3  0  0  0  0  0  0
  -26.1310  -26.9780   19.4490 C   0  0  0  0  0  3  0  0  0  0  0  0
  -24.9680  -27.7570   19.4680 C   0  0  0  0  0  3  0  0  0  0  0  0
  -23.7250  -29.8550   20.1830 C   0  0  0  0  0  2  0  0  0  0  0  0
  -24.7530  -31.0610   22.1470 N   0  0  0  0  0  0  0  0  0  0  0  0
  -23.5830  -32.1120   23.7860 O   0  0  0  0  0  0  0  0  0  0  0  0
  -22.8220  -29.4420   22.5010 C   0  0  0  0  0  0  0  0  0  0  0  0
  -21.5010  -29.2510   22.3400 N   0  0  0  0  0  0  0  0  0  0  0  0
  -23.4880  -28.8080   23.3240 O   0  0  0  0  0  0  0  0  0  0  0  0
  -21.0220  -29.8190   21.6550 H   0  0  0  0  0  0  0  0  0  0  0  0
  -18.1330  -27.9830   22.7140 C   0  0  0  0  0  0  0  0  0  0  0  0
  -20.6740  -28.2930   23.0770 C   0  0  0  0  0  3  0  0  0  0  0  0
  -20.8260  -26.8670   22.5020 C   0  0  0  0  0  2  0  0  0  0  0  0
  -19.7680  -26.5240   21.4480 C   0  0  0  0  0  2  0  0  0  0  0  0
  -18.3610  -26.6400   22.0420 C   0  0  0  0  0  2  0  0  0  0  0  0
  -19.2190  -28.7660   23.1860 C   0  0  0  0  0  0  0  0  0  0  0  0
  -18.9540  -30.0220   23.7730 C   0  0  0  0  0  3  0  0  0  0  0  0
  -17.6340  -30.4970   23.8920 C   0  0  0  0  0  3  0  0  0  0  0  0
  -16.5610  -29.7100   23.4380 C   0  0  0  0  0  3  0  0  0  0  0  0
  -16.8110  -28.4560   22.8550 C   0  0  0  0  0  3  0  0  0  0  0  0
  -25.9480  -32.4670   23.9100 C   0  0  0  0  0  3  0  0  0  0  0  0
  -25.6280  -33.8530   24.2800 N   0  0  0  0  0  0  0  0  0  0  0  0
  -25.9460  -34.9280   23.5480 C   0  0  0  0  0  0  0  0  0  0  0  0
  -26.6110  -34.8600   22.5110 O   0  0  0  0  0  0  0  0  0  0  0  0
  -25.0390  -33.9800   25.0900 H   0  0  0  0  0  0  0  0  0  0  0  0
  -24.1910  -36.7090   23.2610 C   0  0  0  0  0  1  0  0  0  0  0  0
  -25.4490  -36.3000   24.0450 C   0  0  0  0  0  3  0  0  0  0  0  0
  -27.5840  -37.1890   24.8660 C   0  0  0  0  0  1  0  0  0  0  0  0
  -26.4660  -37.3680   23.9440 N   0  0  0  0  0  0  0  0  0  0  0  0
  -26.0520  -38.2780   24.1210 H   0  0  0  0  0  0  0  0  0  0  0  0
  -26.4590  -31.6600   25.1670 C   0  0  1  0  0  0  0  0  0  0  0  0
  -25.3580  -31.3870   26.2190 C   0  0  0  0  0  1  0  0  0  0  0  0
  -27.0520  -30.2970   24.7410 C   0  0  0  0  0  1  0  0  0  0  0  0
  -27.6000  -32.4410   25.8600 C   0  0  0  0  0  1  0  0  0  0  0  0
  -30.5500  -19.7950   20.9030 O   0  0  0  0  0  0  0  0  0  0  0  0
  -30.1460  -18.4800   20.3880 C   0  0  0  0  0  2  0  0  0  0  0  0
  -30.7850  -17.2610   21.1890 C   0  0  0  0  0  2  0  0  0  0  0  0
  -31.0140  -14.7290   20.6920 C   0  0  0  0  0  0  0  0  0  0  0  0
  -30.7990  -12.4370   19.7480 C   0  0  0  0  0  2  0  0  0  0  0  0
  -29.9340  -12.4750   18.4690 C   0  0  0  0  0  2  0  0  0  0  0  0
  -28.4420  -12.3450   18.8240 C   0  0  0  0  0  2  0  0  0  0  0  0
  -28.0110  -13.3090   19.9630 C   0  0  0  0  0  3  0  0  0  0  0  0
  -28.9990  -13.2560   21.1500 C   0  0  0  0  0  2  0  0  0  0  0  0
  -30.3430  -13.5360   20.6230 N   0  0  0  0  0  0  0  0  0  0  0  0
  -32.2050  -14.8120   20.3890 O   0  0  0  0  0  0  0  0  0  0  0  0
  -30.2850  -15.8590   20.9430 N   0  0  0  0  0  0  0  0  0  0  0  0
  -29.2990  -15.7080   21.0940 H   0  0  0  0  0  0  0  0  0  0  0  0
  -25.5970  -13.9720   20.5400 C   0  0  0  0  0  0  0  0  0  0  0  0
  -24.4960  -13.2290   20.8650 C   0  0  0  0  0  0  0  0  0  0  0  0
  -24.9290  -11.8680   20.8880 C   0  0  0  0  0  0  0  0  0  0  0  0
  -26.6340  -13.0650   20.3820 N   0  0  0  0  0  0  0  0  0  0  0  0
  -26.2340  -11.7960   20.6530 N   0  0  0  0  0  0  0  0  0  0  0  0
  -24.1650  -10.6250   21.0610 C   0  0  0  0  0  0  0  0  0  0  0  0
  -24.5330   -9.6600   22.0230 C   0  0  0  0  0  3  0  0  0  0  0  0
  -23.7710   -8.4830   22.1840 C   0  0  0  0  0  3  0  0  0  0  0  0
  -22.6270   -8.2620   21.3800 C   0  0  0  0  0  0  0  0  0  0  0  0
  -22.2780   -9.2160   20.4070 C   0  0  0  0  0  3  0  0  0  0  0  0
  -23.0420  -10.3840   20.2450 C   0  0  0  0  0  3  0  0  0  0  0  0
  -21.8400   -7.1370   21.4480 O   0  0  0  0  0  0  0  0  0  0  0  0
  -21.7250   -6.4090   22.6050 C   0  0  0  0  0  0  0  0  0  0  0  0
  -21.2730   -6.9900   23.8100 C   0  0  0  0  0  3  0  0  0  0  0  0
  -21.1020   -6.1910   24.9580 C   0  0  0  0  0  3  0  0  0  0  0  0
  -21.3730   -4.8110   24.9020 C   0  0  0  0  0  0  0  0  0  0  0  0
  -21.8200   -4.2290   23.7030 C   0  0  0  0  0  3  0  0  0  0  0  0
  -21.9920   -5.0260   22.5570 C   0  0  0  0  0  0  0  0  0  0  0  0
  -22.4010   -4.4560   21.3980 F   0  0  0  0  0  0  0  0  0  0  0  0
  -21.2020   -4.0410   26.0020 F   0  0  0  0  0  0  0  0  0  0  0  0
  -23.0960  -13.7410   21.0480 C   0  0  0  0  0  0  0  0  0  0  0  0
  -22.3080  -13.0840   21.8920 N   0  0  0  0  0  0  0  0  0  0  0  0
  -22.7080  -14.7600   20.4780 O   0  0  0  0  0  0  0  0  0  0  0  0
  -22.6320  -12.2590   22.3740 H   0  0  0  0  0  0  0  0  0  0  0  0
  -21.3680  -13.4120   22.0610 H   0  0  0  0  0  0  0  0  0  0  0  0
  -25.8010  -15.3350   20.3430 N   0  0  0  0  0  0  0  0  0  0  0  0
  -25.0410  -16.0040   20.3920 H   0  0  0  0  0  0  0  0  0  0  0  0
  -26.6720  -15.7480   20.0340 H   0  0  0  0  0  0  0  0  0  0  0  0
  1  3  2  0
  1  4  1  0
  2  5  1  0
  3  6  1  0
  4  2  2  0
  5 11  1  0
  6 54  1  0
  6  5  2  0
  7  8  1  0
  7  9  1  0
  8  9  1  0
  9  3  1  0
 11 10  1  0
 12  4  1  0
 12 13  1  0
 14 25  2  0
 15 13  1  0
 15 20  1  0
 16 24  1  0
 16 26  1  0
 17 23  1  0
 17 19  1  0
 18 24  1  0
 19 18  1  0
 20 19  2  0
 21 22  1  0
 21 15  2  0
 22 17  2  0
 23 16  1  0
 24 14  1  0
 26 28  2  0
 27 26  1  0
 29 27  1  0
 30 39  2  0
 30 35  1  0
 31 27  1  0
 31 35  1  0
 32 31  1  0
 33 34  1  0
 33 32  1  0
 34 30  1  0
 35 36  2  0
 36 37  1  0
 38 37  2  0
 39 38  1  0
 40 14  1  0
 40 41  1  0
 40 50  1  0
 41 44  1  0
 42 46  1  0
 42 41  1  0
 43 42  2  0
 46 45  1  0
 48 46  1  0
 48 49  1  0
 48 47  1  0
 50 53  1  1
 50 51  1  0
 52 50  1  0
 55 54  1  0
 55 56  1  0
 57 65  1  0
 58 63  1  0
 59 60  1  0
 59 58  1  0
 61 60  1  0
 61 70  1  0
 61 62  1  0
 63 57  1  0
 63 62  1  0
 64 57  2  0
 65 66  1  0
 65 56  1  0
 67 68  2  0
 68 69  1  0
 68 87  1  0
 69 72  1  0
 70 67  1  0
 70 71  1  0
 71 69  2  0
 72 73  1  0
 73 74  2  0
 75 78  1  0
 75 74  1  0
 76 75  2  0
 77 76  1  0
 77 72  2  0
 78 79  1  0
 79 80  1  0
 80 81  2  0
 82 81  1  0
 82 86  1  0
 83 82  2  0
 84 79  2  0
 84 83  1  0
 85 84  1  0
 87 88  1  0
 88 91  1  0
 88 90  1  0
 89 87  2  0
 92 93  1  0
 92 67  1  0
 94 92  1  0
M  ISO  4  12 101  13 101  57 100  65 100
M  END
>  <TORSDO>  (32) 
F 22

>  <SCORE>  (32) 
-13.239

>  <name>  (32) 
32

>  <ligand_id>  (32) 
32

>  <original_smiles>  (32) 
[H]c1c([H])c([H])c2c(c1[H])C([H])([H])C([H])([H])C([H])([H])C2([H])N([H])C(=O)C1([H])N(C(=O)C([H])(N([H])C(=O)C([H])(N([H])C([H])([H])[H])C([H])([H])[H])C(C([H])([H])[H])(C([H])([H])[H])C([H])([H])[H])C([H])([H])c2c([H])c(OC([H])([H])c3c([H])c(C([H])([H])C([H])([H])[H])c(OC([H])([H])C([H])([H])N([H])C(=O)N4C([H])([H])C([H])([H])C([H])([H])C([H])(n5nc(-c6c([H])c([H])c(Oc7c([H])c([H])c(F)c([H])c7F)c([H])c6[H])c(C(=O)N([H])[H])c5N([H])[H])C4([H])[H])c(C4([H])C([H])([H])C4([H])[H])c3[H])c([H])c([H])c2C1([H])[H]

>  <smiles>  (32) 
[H]c1c([H])c([H])c2c(c1[H])C([H])([H])C([H])([H])C([H])([H])C2([H])N([H])C(=O)C1([H])N(C(=O)C([H])(N([H])C(=O)C([H])(N([H])C([H])([H])[H])C([H])([H])[H])C(C([H])([H])[H])(C([H])([H])[H])C([H])([H])[H])C([H])([H])c2c([H])c(OC([H])([H])c3c([H])c(C([H])([H])C([H])([H])[H])c(OC([H])([H])C([H])([H])N([H])C(=O)N4C([H])([H])C([H])([H])C([H])([H])C([H])(n5nc(-c6c([H])c([H])c(Oc7c([H])c([H])c(F)c([H])c7F)c([H])c6[H])c(C(=O)N([H])[H])c5N([H])[H])C4([H])[H])c(C4([H])C([H])([H])C4([H])[H])c3[H])c([H])c([H])c2C1([H])[H]

$$$$
33:0:0
     RDKit          3D

100109  0  0  1  0  0  0  0  0999 V2000
  -29.2730  -22.0080   20.6220 C   0  0  0  0  0  3  0  0  0  0  0  0
  -30.0000  -24.6330   19.9430 C   0  0  0  0  0  3  0  0  0  0  0  0
  -30.6260  -22.2960   20.3480 C   0  0  0  0  0  0  0  0  0  0  0  0
  -28.2790  -22.9970   20.5190 C   0  0  0  0  0  0  0  0  0  0  0  0
  -30.9840  -23.6220   19.9810 C   0  0  0  0  0  0  0  0  0  0  0  0
  -28.6510  -24.3280   20.2000 C   0  0  0  0  0  0  0  0  0  0  0  0
  -26.8280  -22.5740   20.7410 C   0  0  0  0  0  1  0  0  0  0  0  0
  -32.4030  -23.9890   19.5760 C   0  0  0  0  0  1  0  0  0  0  0  0
  -31.6520  -21.1620   20.4490 C   0  0  0  0  0  3  0  0  0  0  0  0
  -32.0680  -19.2230   21.8160 C   0  0  0  0  0  3  0  0  0  0  0  0
  -31.9880  -20.7440   21.8980 C   0  0  0  0  0  3  0  0  0  0  0  0
  -30.9890  -18.9230   20.7740 C   0  0  0  0  0  3  0  0  0  0  0  0
  -31.8650  -18.5120   23.1640 C   0  0  0  0  0  1  0  0  0  0  0  0
  -31.1950  -19.9620   19.8120 O   0  0  0  0  0  0  0  0  0  0  0  0
  -33.2200  -21.2700   22.3680 O   0  0  0  0  0  0  0  0  0  0  0  0
  -33.8970  -21.0310   21.7400 H   0  0  0  0  0  0  0  0  0  0  0  0
  -31.0380  -17.4970   20.1450 C   0  0  0  0  0  3  0  0  0  0  0  0
  -32.7070  -17.7010   18.4300 C   0  0  0  0  0  1  0  0  0  0  0  0
  -31.3250  -17.6180   18.7520 O   0  0  0  0  0  0  0  0  0  0  0  0
  -29.6860  -16.7610   20.2830 C   0  0  0  0  0  2  0  0  0  0  0  0
  -30.4180  -14.3590   19.8140 C   0  0  0  0  0  0  0  0  0  0  0  0
  -30.1650  -12.0820   18.9070 C   0  0  0  0  0  2  0  0  0  0  0  0
  -29.1220  -12.1120   17.7700 C   0  0  0  0  0  2  0  0  0  0  0  0
  -27.6880  -11.9890   18.3220 C   0  0  0  0  0  2  0  0  0  0  0  0
  -27.4160  -12.9390   19.5200 C   0  0  0  0  0  3  0  0  0  0  0  0
  -28.5560  -12.8400   20.5570 C   0  0  0  0  0  2  0  0  0  0  0  0
  -29.8240  -13.1390   19.8680 N   0  0  0  0  0  0  0  0  0  0  0  0
  -31.4180  -14.5840   19.1350 O   0  0  0  0  0  0  0  0  0  0  0  0
  -29.7500  -15.3080   20.4880 N   0  0  0  0  0  0  0  0  0  0  0  0
  -29.0250  -14.9380   21.0850 H   0  0  0  0  0  0  0  0  0  0  0  0
  -25.1170  -13.5640   20.5000 C   0  0  0  0  0  0  0  0  0  0  0  0
  -24.0800  -12.7960   20.9540 C   0  0  0  0  0  0  0  0  0  0  0  0
  -24.5050  -11.4390   20.8210 C   0  0  0  0  0  0  0  0  0  0  0  0
  -26.1140  -12.6750   20.1260 N   0  0  0  0  0  0  0  0  0  0  0  0
  -25.7520  -11.3920   20.3710 N   0  0  0  0  0  0  0  0  0  0  0  0
  -23.7780  -10.1820   21.0420 C   0  0  0  0  0  0  0  0  0  0  0  0
  -24.2380   -9.2180   21.9670 C   0  0  0  0  0  3  0  0  0  0  0  0
  -23.5150   -8.0240   22.1750 C   0  0  0  0  0  3  0  0  0  0  0  0
  -22.3170   -7.7860   21.4610 C   0  0  0  0  0  0  0  0  0  0  0  0
  -21.8750   -8.7390   20.5240 C   0  0  0  0  0  3  0  0  0  0  0  0
  -22.5990   -9.9250   20.3130 C   0  0  0  0  0  3  0  0  0  0  0  0
  -21.5600   -6.6460   21.5800 O   0  0  0  0  0  0  0  0  0  0  0  0
  -21.5010   -5.9430   22.7570 C   0  0  0  0  0  0  0  0  0  0  0  0
  -21.0170   -6.5240   23.9510 C   0  0  0  0  0  3  0  0  0  0  0  0
  -20.9080   -5.7430   25.1180 C   0  0  0  0  0  3  0  0  0  0  0  0
  -21.2730   -4.3850   25.0940 C   0  0  0  0  0  0  0  0  0  0  0  0
  -21.7510   -3.8040   23.9060 C   0  0  0  0  0  3  0  0  0  0  0  0
  -21.8610   -4.5810   22.7410 C   0  0  0  0  0  0  0  0  0  0  0  0
  -22.3020   -4.0110   21.5920 F   0  0  0  0  0  0  0  0  0  0  0  0
  -21.1590   -3.6340   26.2130 F   0  0  0  0  0  0  0  0  0  0  0  0
  -22.7320  -13.2830   21.4030 C   0  0  0  0  0  0  0  0  0  0  0  0
  -22.0880  -12.5540   22.3070 N   0  0  0  0  0  0  0  0  0  0  0  0
  -22.2650  -14.3440   20.9880 O   0  0  0  0  0  0  0  0  0  0  0  0
  -22.4810  -11.6940   22.6600 H   0  0  0  0  0  0  0  0  0  0  0  0
  -21.1920  -12.8620   22.6580 H   0  0  0  0  0  0  0  0  0  0  0  0
  -25.2870  -14.9390   20.3600 N   0  0  0  0  0  0  0  0  0  0  0  0
  -24.5430  -15.5930   20.5790 H   0  0  0  0  0  0  0  0  0  0  0  0
  -26.1030  -15.3860   19.9640 H   0  0  0  0  0  0  0  0  0  0  0  0
  -27.5780  -25.3890   20.1030 C   0  0  0  0  0  2  0  0  0  0  0  0
  -27.9620  -26.7540   19.8720 O   0  0  0  0  0  0  0  0  0  0  0  0
  -24.4970  -31.9480   23.2460 C   0  0  0  0  0  0  0  0  0  0  0  0
  -26.8550  -27.5820   19.8660 C   0  0  0  0  0  0  0  0  0  0  0  0
  -23.1760  -30.6430   21.6190 C   0  0  0  0  0  3  0  0  0  0  0  0
  -24.5140  -29.1580   20.0530 C   0  0  0  0  0  0  0  0  0  0  0  0
  -25.6980  -30.9610   21.3000 C   0  0  0  0  0  2  0  0  0  0  0  0
  -25.7170  -29.6200   20.6000 C   0  0  0  0  0  0  0  0  0  0  0  0
  -26.8950  -28.8420   20.5040 C   0  0  0  0  0  3  0  0  0  0  0  0
  -25.6280  -27.1630   19.2810 C   0  0  0  0  0  3  0  0  0  0  0  0
  -24.4650  -27.9300   19.3890 C   0  0  0  0  0  3  0  0  0  0  0  0
  -23.2980  -30.0350   20.1980 C   0  0  0  0  0  2  0  0  0  0  0  0
  -24.4780  -31.1950   22.1120 N   0  0  0  0  0  0  0  0  0  0  0  0
  -23.4500  -32.2140   23.8540 O   0  0  0  0  0  0  0  0  0  0  0  0
  -22.5590  -29.5850   22.5620 C   0  0  0  0  0  0  0  0  0  0  0  0
  -21.2410  -29.3640   22.4300 N   0  0  0  0  0  0  0  0  0  0  0  0
  -23.2590  -28.9680   23.3690 O   0  0  0  0  0  0  0  0  0  0  0  0
  -20.7350  -29.9190   21.7510 H   0  0  0  0  0  0  0  0  0  0  0  0
  -17.9080  -28.0320   22.8670 C   0  0  0  0  0  0  0  0  0  0  0  0
  -20.4470  -28.4000   23.1900 C   0  0  0  0  0  3  0  0  0  0  0  0
  -20.6220  -26.9690   22.6350 C   0  0  0  0  0  2  0  0  0  0  0  0
  -19.5570  -26.5890   21.6010 C   0  0  0  0  0  2  0  0  0  0  0  0
  -18.1550  -26.6840   22.2120 C   0  0  0  0  0  2  0  0  0  0  0  0
  -18.9840  -28.8450   23.3110 C   0  0  0  0  0  0  0  0  0  0  0  0
  -18.6990  -30.1070   23.8770 C   0  0  0  0  0  3  0  0  0  0  0  0
  -17.3720  -30.5550   24.0080 C   0  0  0  0  0  3  0  0  0  0  0  0
  -16.3110  -29.7400   23.5800 C   0  0  0  0  0  3  0  0  0  0  0  0
  -16.5790  -28.4800   23.0140 C   0  0  0  0  0  3  0  0  0  0  0  0
  -25.8270  -32.5290   23.8180 C   0  0  0  0  0  3  0  0  0  0  0  0
  -25.5760  -33.9300   24.1800 N   0  0  0  0  0  0  0  0  0  0  0  0
  -25.8720  -34.9810   23.4020 C   0  0  0  0  0  0  0  0  0  0  0  0
  -26.4650  -34.8710   22.3250 O   0  0  0  0  0  0  0  0  0  0  0  0
  -25.0590  -34.0910   25.0310 H   0  0  0  0  0  0  0  0  0  0  0  0
  -24.1510  -36.7980   23.1840 C   0  0  0  0  0  1  0  0  0  0  0  0
  -25.4420  -36.3750   23.9000 C   0  0  0  0  0  3  0  0  0  0  0  0
  -27.6420  -37.2240   24.5770 C   0  0  0  0  0  1  0  0  0  0  0  0
  -26.4800  -37.4120   23.7130 N   0  0  0  0  0  0  0  0  0  0  0  0
  -26.0990  -38.3380   23.8920 H   0  0  0  0  0  0  0  0  0  0  0  0
  -26.3720  -31.7220   25.0580 C   0  0  1  0  0  0  0  0  0  0  0  0
  -25.3190  -31.4940   26.1650 C   0  0  0  0  0  1  0  0  0  0  0  0
  -26.8990  -30.3380   24.6130 C   0  0  0  0  0  1  0  0  0  0  0  0
  -27.5680  -32.4730   25.6880 C   0  0  0  0  0  1  0  0  0  0  0  0
  2  5  2  0
  2  6  1  0
  3  1  2  0
  4  1  1  0
  4  7  1  0
  5  3  1  0
  6  4  2  0
  8  5  1  0
  9  3  1  0
  9 11  1  0
 10 11  1  0
 10 13  1  0
 11 15  1  0
 12 17  1  0
 12 10  1  0
 14  9  1  0
 14 12  1  0
 16 15  1  0
 17 20  1  0
 18 19  1  0
 19 17  1  0
 20 29  1  0
 21 27  1  0
 21 29  1  0
 22 27  1  0
 23 24  1  0
 23 22  1  0
 25 24  1  0
 25 34  1  0
 25 26  1  0
 27 26  1  0
 28 21  2  0
 29 30  1  0
 31 32  2  0
 32 51  1  0
 33 32  1  0
 33 36  1  0
 34 35  1  0
 34 31  1  0
 35 33  2  0
 36 37  1  0
 37 38  2  0
 39 42  1  0
 39 38  1  0
 40 39  2  0
 41 40  1  0
 41 36  2  0
 42 43  1  0
 43 44  1  0
 44 45  2  0
 46 45  1  0
 46 50  1  0
 47 46  2  0
 48 43  2  0
 48 47  1  0
 49 48  1  0
 51 52  1  0
 52 55  1  0
 52 54  1  0
 53 51  2  0
 56 31  1  0
 56 57  1  0
 58 56  1  0
 59  6  1  0
 60 59  1  0
 61 72  2  0
 62 60  1  0
 62 67  1  0
 63 71  1  0
 63 73  1  0
 64 70  1  0
 64 66  1  0
 65 71  1  0
 66 65  1  0
 67 66  2  0
 68 69  1  0
 68 62  2  0
 69 64  2  0
 70 63  1  0
 71 61  1  0
 73 75  2  0
 74 73  1  0
 76 74  1  0
 77 86  2  0
 77 82  1  0
 78 74  1  0
 78 82  1  0
 79 78  1  0
 80 81  1  0
 80 79  1  0
 81 77  1  0
 82 83  2  0
 83 84  1  0
 85 84  2  0
 86 85  1  0
 87 61  1  0
 87 88  1  0
 87 97  1  0
 88 91  1  0
 89 93  1  0
 89 88  1  0
 90 89  2  0
 93 92  1  0
 95 96  1  0
 95 93  1  0
 95 94  1  0
 97100  1  1
 97 98  1  0
 99 97  1  0
M  ISO  4  21 100  29 100  59 101  60 101
M  END
>  <TORSDO>  (33) 
F 22

>  <SCORE>  (33) 
-12.334

>  <name>  (33) 
33

>  <ligand_id>  (33) 
33

>  <original_smiles>  (33) 
[H]OC1([H])C([H])(c2c([H])c(C([H])([H])[H])c(C([H])([H])Oc3c([H])c([H])c4c(c3[H])C([H])([H])N(C(=O)C([H])(N([H])C(=O)C([H])(N([H])C([H])([H])[H])C([H])([H])[H])C(C([H])([H])[H])(C([H])([H])[H])C([H])([H])[H])C([H])(C(=O)N([H])C3([H])c5c([H])c([H])c([H])c([H])c5C([H])([H])C([H])([H])C3([H])[H])C4([H])[H])c([H])c2C([H])([H])[H])OC([H])(C([H])(OC([H])([H])[H])C([H])([H])N([H])C(=O)N2C([H])([H])C([H])([H])C([H])([H])C([H])(n3nc(-c4c([H])c([H])c(Oc5c([H])c([H])c(F)c([H])c5F)c([H])c4[H])c(C(=O)N([H])[H])c3N([H])[H])C2([H])[H])C1([H])C([H])([H])[H]

>  <smiles>  (33) 
[H]OC1([H])C([H])(c2c([H])c(C([H])([H])[H])c(C([H])([H])Oc3c([H])c([H])c4c(c3[H])C([H])([H])N(C(=O)C([H])(N([H])C(=O)C([H])(N([H])C([H])([H])[H])C([H])([H])[H])C(C([H])([H])[H])(C([H])([H])[H])C([H])([H])[H])C([H])(C(=O)N([H])C3([H])c5c([H])c([H])c([H])c([H])c5C([H])([H])C([H])([H])C3([H])[H])C4([H])[H])c([H])c2C([H])([H])[H])OC([H])(C([H])(OC([H])([H])[H])C([H])([H])N([H])C(=O)N2C([H])([H])C([H])([H])C([H])([H])C([H])(n3nc(-c4c([H])c([H])c(Oc5c([H])c([H])c(F)c([H])c5F)c([H])c4[H])c(C(=O)N([H])[H])c3N([H])[H])C2([H])[H])C1([H])C([H])([H])[H]

$$$$
34:0:0
     RDKit          3D

101110  0  0  1  0  0  0  0  0999 V2000
  -31.3230  -21.0720   22.7250 C   0  0  0  0  0  3  0  0  0  0  0  0
  -29.6600  -22.8220   22.3460 C   0  0  0  0  0  3  0  0  0  0  0  0
  -30.8390  -21.8310   20.4640 C   0  0  0  0  0  3  0  0  0  0  0  0
  -30.3570  -21.9700   23.2280 C   0  0  0  0  0  0  0  0  0  0  0  0
  -31.5610  -20.9890   21.3340 C   0  0  0  0  0  0  0  0  0  0  0  0
  -29.9190  -22.7710   20.9590 C   0  0  0  0  0  0  0  0  0  0  0  0
  -30.0700  -22.0160   24.7160 C   0  0  0  0  0  1  0  0  0  0  0  0
  -33.9980  -20.7890   20.7910 C   0  0  0  0  0  1  0  0  0  0  0  0
  -32.6360  -20.0800   20.7380 C   0  0  0  0  0  3  0  0  0  0  0  0
  -32.7280  -18.7380   21.3610 N   0  0  0  0  0  4  0  0  0  0  0  0
  -33.5070  -18.2690   20.9300 H   0  0  0  0  0  0  0  0  0  0  0  0
  -32.9730  -18.8690   22.3280 H   0  0  0  0  0  0  0  0  0  0  0  0
  -31.4960  -14.4920   19.8010 C   0  0  0  0  0  0  0  0  0  0  0  0
  -31.0850  -12.1960   18.9900 C   0  0  0  0  0  2  0  0  0  0  0  0
  -30.1290  -12.1860   17.7800 C   0  0  0  0  0  2  0  0  0  0  0  0
  -28.6630  -12.1270   18.2470 C   0  0  0  0  0  2  0  0  0  0  0  0
  -28.3490  -13.1880   19.3310 C   0  0  0  0  0  3  0  0  0  0  0  0
  -29.4130  -13.1650   20.4460 C   0  0  0  0  0  2  0  0  0  0  0  0
  -30.7450  -13.3530   19.8400 N   0  0  0  0  0  0  0  0  0  0  0  0
  -32.5130  -14.5630   19.1020 O   0  0  0  0  0  0  0  0  0  0  0  0
  -30.7980  -15.6300   21.8830 C   0  0  0  0  0  2  0  0  0  0  0  0
  -31.6060  -16.7980   22.4320 C   0  0  0  0  0  3  0  0  0  0  0  0
  -31.5590  -17.8210   21.3000 C   0  0  0  0  0  3  0  0  0  0  0  0
  -31.4630  -16.9610   20.0110 C   0  0  0  0  0  3  0  0  0  0  0  0
  -31.0730  -17.3150   23.7780 C   0  0  0  0  0  1  0  0  0  0  0  0
  -31.0330  -15.6030   20.4350 N   0  0  0  0  0  0  0  0  0  0  0  0
  -26.0300  -13.9730   20.1310 C   0  0  0  0  0  0  0  0  0  0  0  0
  -24.9340  -13.2810   20.5720 C   0  0  0  0  0  0  0  0  0  0  0  0
  -25.3050  -11.9030   20.5590 C   0  0  0  0  0  0  0  0  0  0  0  0
  -27.0030  -13.0190   19.8760 N   0  0  0  0  0  0  0  0  0  0  0  0
  -26.5730  -11.7700   20.1920 N   0  0  0  0  0  0  0  0  0  0  0  0
  -24.5090  -10.6960   20.8190 C   0  0  0  0  0  0  0  0  0  0  0  0
  -24.8830   -9.7620   21.8100 C   0  0  0  0  0  3  0  0  0  0  0  0
  -24.0910   -8.6190   22.0500 C   0  0  0  0  0  3  0  0  0  0  0  0
  -22.9090   -8.4030   21.3010 C   0  0  0  0  0  0  0  0  0  0  0  0
  -22.5560   -9.3240   20.3000 C   0  0  0  0  0  3  0  0  0  0  0  0
  -23.3470  -10.4580   20.0580 C   0  0  0  0  0  3  0  0  0  0  0  0
  -22.0920   -7.3080   21.4480 O   0  0  0  0  0  0  0  0  0  0  0  0
  -21.9460   -6.6780   22.6570 C   0  0  0  0  0  0  0  0  0  0  0  0
  -21.5140   -7.3680   23.8110 C   0  0  0  0  0  3  0  0  0  0  0  0
  -21.3100   -6.6670   25.0160 C   0  0  0  0  0  3  0  0  0  0  0  0
  -21.5270   -5.2770   25.0680 C   0  0  0  0  0  0  0  0  0  0  0  0
  -21.9510   -4.5870   23.9190 C   0  0  0  0  0  3  0  0  0  0  0  0
  -22.1560   -5.2860   22.7160 C   0  0  0  0  0  0  0  0  0  0  0  0
  -22.5440   -4.6130   21.6070 F   0  0  0  0  0  0  0  0  0  0  0  0
  -21.3230   -4.6010   26.2230 F   0  0  0  0  0  0  0  0  0  0  0  0
  -23.5840  -13.8570   20.8950 C   0  0  0  0  0  0  0  0  0  0  0  0
  -22.8750  -13.2590   21.8450 N   0  0  0  0  0  0  0  0  0  0  0  0
  -23.1720  -14.8730   20.3370 O   0  0  0  0  0  0  0  0  0  0  0  0
  -23.2210  -12.4360   22.3160 H   0  0  0  0  0  0  0  0  0  0  0  0
  -21.9720  -13.6290   22.1050 H   0  0  0  0  0  0  0  0  0  0  0  0
  -26.2700  -15.3240   19.9040 N   0  0  0  0  0  0  0  0  0  0  0  0
  -25.5510  -16.0280   20.0310 H   0  0  0  0  0  0  0  0  0  0  0  0
  -27.1280  -15.6980   19.5210 H   0  0  0  0  0  0  0  0  0  0  0  0
  -30.8010  -17.0480   17.5200 C   0  0  0  0  0  1  0  0  0  0  0  0
  -29.0060  -17.3430   19.2660 C   0  0  0  0  0  1  0  0  0  0  0  0
  -30.4960  -17.5550   18.9400 C   0  0  0  0  0  3  0  0  0  0  0  0
  -29.2920  -23.5910   20.0530 O   0  0  0  0  0  0  0  0  0  0  0  0
  -29.3240  -24.9920   20.3250 C   0  0  0  0  0  2  0  0  0  0  0  0
  -28.0450  -25.6470   19.7910 C   0  0  0  0  0  2  0  0  0  0  0  0
  -28.1870  -27.0700   19.7920 O   0  0  0  0  0  0  0  0  0  0  0  0
  -24.8280  -32.0380   23.5760 C   0  0  0  0  0  0  0  0  0  0  0  0
  -27.0330  -27.8100   19.9210 C   0  0  0  0  0  0  0  0  0  0  0  0
  -23.4340  -30.8040   21.9510 C   0  0  0  0  0  3  0  0  0  0  0  0
  -24.6970  -29.3600   20.2750 C   0  0  0  0  0  0  0  0  0  0  0  0
  -25.9380  -31.1230   21.5410 C   0  0  0  0  0  2  0  0  0  0  0  0
  -25.9200  -29.8090   20.7900 C   0  0  0  0  0  0  0  0  0  0  0  0
  -27.0900  -29.0390   20.6110 C   0  0  0  0  0  3  0  0  0  0  0  0
  -25.7920  -27.3800   19.3910 C   0  0  0  0  0  3  0  0  0  0  0  0
  -24.6270  -28.1440   19.5760 C   0  0  0  0  0  3  0  0  0  0  0  0
  -23.4910  -30.2380   20.5080 C   0  0  0  0  0  2  0  0  0  0  0  0
  -24.7570  -31.3290   22.4150 N   0  0  0  0  0  0  0  0  0  0  0  0
  -23.8100  -32.2920   24.2350 O   0  0  0  0  0  0  0  0  0  0  0  0
  -22.8440  -29.7210   22.8830 C   0  0  0  0  0  0  0  0  0  0  0  0
  -21.5740  -29.3560   22.6480 N   0  0  0  0  0  0  0  0  0  0  0  0
  -23.5290  -29.2090   23.7720 O   0  0  0  0  0  0  0  0  0  0  0  0
  -21.0780  -29.8290   21.9050 H   0  0  0  0  0  0  0  0  0  0  0  0
  -18.4580  -27.5270   22.7070 C   0  0  0  0  0  0  0  0  0  0  0  0
  -20.8220  -28.3340   23.3740 C   0  0  0  0  0  3  0  0  0  0  0  0
  -21.3020  -26.9150   22.9920 C   0  0  0  0  0  2  0  0  0  0  0  0
  -20.4930  -26.2900   21.8520 C   0  0  0  0  0  2  0  0  0  0  0  0
  -19.0120  -26.1940   22.2320 C   0  0  0  0  0  2  0  0  0  0  0  0
  -19.3100  -28.5370   23.2270 C   0  0  0  0  0  0  0  0  0  0  0  0
  -18.7480  -29.7700   23.6210 C   0  0  0  0  0  3  0  0  0  0  0  0
  -17.3640  -30.0020   23.5050 C   0  0  0  0  0  3  0  0  0  0  0  0
  -16.5240  -28.9920   23.0040 C   0  0  0  0  0  3  0  0  0  0  0  0
  -17.0700  -27.7580   22.6110 C   0  0  0  0  0  3  0  0  0  0  0  0
  -26.1860  -32.5840   24.1180 C   0  0  0  0  0  3  0  0  0  0  0  0
  -25.9850  -33.9970   24.4670 N   0  0  0  0  0  0  0  0  0  0  0  0
  -26.3650  -35.0300   23.7020 C   0  0  0  0  0  0  0  0  0  0  0  0
  -26.9900  -34.8880   22.6490 O   0  0  0  0  0  0  0  0  0  0  0  0
  -25.4260  -34.1870   25.2860 H   0  0  0  0  0  0  0  0  0  0  0  0
  -24.7660  -36.9470   23.3930 C   0  0  0  0  0  1  0  0  0  0  0  0
  -25.9880  -36.4460   24.1800 C   0  0  0  0  0  3  0  0  0  0  0  0
  -28.1960  -37.1570   24.9810 C   0  0  0  0  0  1  0  0  0  0  0  0
  -27.0930  -37.4210   24.0600 N   0  0  0  0  0  0  0  0  0  0  0  0
  -26.7610  -38.3670   24.2250 H   0  0  0  0  0  0  0  0  0  0  0  0
  -26.7310  -31.7750   25.3580 C   0  0  1  0  0  0  0  0  0  0  0  0
  -25.6720  -31.5370   26.4590 C   0  0  0  0  0  1  0  0  0  0  0  0
  -27.2690  -30.3950   24.9120 C   0  0  0  0  0  1  0  0  0  0  0  0
  -27.9240  -32.5290   25.9910 C   0  0  0  0  0  1  0  0  0  0  0  0
  1  4  1  0
  2  4  2  0
  3  6  2  0
  3  5  1  0
  4  7  1  0
  5  1  2  0
  6  2  1  0
  9  8  1  0
  9  5  1  0
  9 10  1  0
 10 12  1  0
 11 10  1  0
 13 19  1  0
 13 26  1  0
 14 19  1  0
 15 16  1  0
 15 14  1  0
 17 16  1  0
 17 30  1  0
 17 18  1  0
 19 18  1  0
 20 13  2  0
 21 22  1  0
 22 25  1  0
 23 10  1  0
 23 22  1  0
 24 57  1  0
 24 26  1  0
 24 23  1  0
 26 21  1  0
 27 28  2  0
 28 47  1  0
 29 28  1  0
 29 32  1  0
 30 27  1  0
 30 31  1  0
 31 29  2  0
 32 33  1  0
 33 34  2  0
 35 38  1  0
 35 34  1  0
 36 35  2  0
 37 36  1  0
 37 32  2  0
 38 39  1  0
 39 44  2  0
 39 40  1  0
 40 41  2  0
 41 42  1  0
 42 46  1  0
 43 42  2  0
 44 43  1  0
 45 44  1  0
 47 48  1  0
 48 51  1  0
 48 50  1  0
 49 47  2  0
 52 53  1  0
 52 27  1  0
 54 52  1  0
 55 57  1  0
 57 56  1  0
 58 59  1  0
 58  6  1  0
 60 61  1  0
 60 59  1  0
 61 63  1  0
 62 73  2  0
 63 68  1  0
 64 72  1  0
 64 74  1  0
 65 71  1  0
 65 67  1  0
 66 72  1  0
 67 66  1  0
 68 67  2  0
 69 70  1  0
 69 63  2  0
 70 65  2  0
 71 64  1  0
 72 62  1  0
 74 76  2  0
 75 74  1  0
 77 75  1  0
 78 83  1  0
 79 75  1  0
 80 79  1  0
 81 82  1  0
 81 80  1  0
 82 78  1  0
 83 79  1  0
 83 84  2  0
 85 84  1  0
 86 85  2  0
 87 78  2  0
 87 86  1  0
 88 62  1  0
 88 89  1  0
 88 98  1  0
 89 92  1  0
 90 94  1  0
 90 89  1  0
 91 90  2  0
 94 93  1  0
 96 94  1  0
 96 97  1  0
 96 95  1  0
 98101  1  1
 98 99  1  0
100 98  1  0
M  ISO  4  13 100  26 100  60 101  61 101
M  END
>  <TORSDO>  (34) 
F 22

>  <SCORE>  (34) 
-10.501

>  <name>  (34) 
34

>  <ligand_id>  (34) 
34

>  <original_smiles>  (34) 
[H]c1c([H])c([H])c2c(c1[H])C([H])([H])C([H])([H])C([H])([H])C2([H])N([H])C(=O)C1([H])N(C(=O)C([H])(N([H])C(=O)C([H])(N([H])C([H])([H])[H])C([H])([H])[H])C(C([H])([H])[H])(C([H])([H])[H])C([H])([H])[H])C([H])([H])c2c([H])c(OC([H])([H])C([H])([H])Oc3c([H])c(C([H])([H])[H])c([H])c(C([H])(C([H])([H])[H])[N+]([H])([H])C4([H])C([H])(C([H])(C([H])([H])[H])C([H])([H])[H])N(C(=O)N5C([H])([H])C([H])([H])C([H])([H])C([H])(n6nc(-c7c([H])c([H])c(Oc8c([H])c([H])c(F)c([H])c8F)c([H])c7[H])c(C(=O)N([H])[H])c6N([H])[H])C5([H])[H])C([H])([H])C4([H])C([H])([H])[H])c3[H])c([H])c([H])c2C1([H])[H]

>  <smiles>  (34) 
[H]c1c([H])c([H])c2c(c1[H])C([H])([H])C([H])([H])C([H])([H])C2([H])N([H])C(=O)C1([H])N(C(=O)C([H])(N([H])C(=O)C([H])(N([H])C([H])([H])[H])C([H])([H])[H])C(C([H])([H])[H])(C([H])([H])[H])C([H])([H])[H])C([H])([H])c2c([H])c(OC([H])([H])C([H])([H])Oc3c([H])c(C([H])([H])[H])c([H])c(C([H])(C([H])([H])[H])[N+]([H])([H])C4([H])C([H])(C([H])(C([H])([H])[H])C([H])([H])[H])N(C(=O)N5C([H])([H])C([H])([H])C([H])([H])C([H])(n6nc(-c7c([H])c([H])c(Oc8c([H])c([H])c(F)c([H])c8F)c([H])c7[H])c(C(=O)N([H])[H])c6N([H])[H])C5([H])[H])C([H])([H])C4([H])C([H])([H])[H])c3[H])c([H])c([H])c2C1([H])[H]

$$$$
35:0:0
     RDKit          3D

 95104  0  0  1  0  0  0  0  0999 V2000
  -31.0580  -15.1280   20.0290 C   0  0  0  0  0  0  0  0  0  0  0  0
  -30.8020  -12.8900   18.8530 C   0  0  0  0  0  2  0  0  0  0  0  0
  -29.7680  -13.0010   17.7070 C   0  0  0  0  0  2  0  0  0  0  0  0
  -28.3360  -12.7860   18.2350 C   0  0  0  0  0  2  0  0  0  0  0  0
  -28.0580  -13.5910   19.5310 C   0  0  0  0  0  3  0  0  0  0  0  0
  -29.2000  -13.4450   20.5590 C   0  0  0  0  0  2  0  0  0  0  0  0
  -30.4320  -13.8880   19.8920 N   0  0  0  0  0  0  0  0  0  0  0  0
  -32.2490  -15.1980   19.7020 O   0  0  0  0  0  0  0  0  0  0  0  0
  -29.9880  -20.2760   20.0470 C   0  0  0  0  0  0  0  0  0  0  0  0
  -30.1070  -20.6270   21.4010 C   0  0  0  0  0  0  0  0  0  0  0  0
  -30.1120  -18.8630   19.6390 C   0  0  0  0  0  0  0  0  0  0  0  0
  -30.4110  -19.5210   22.2560 C   0  0  0  0  0  0  0  0  0  0  0  0
  -30.4020  -17.7720   20.5710 C   0  0  0  0  0  0  0  0  0  0  0  0
  -29.7250  -21.4640   19.1570 C   0  0  0  0  0  3  0  0  0  0  0  0
  -29.6600  -22.8070   19.4800 C   0  0  0  0  0  0  0  0  0  0  0  0
  -29.8440  -22.1340   21.9110 C   0  0  0  0  0  3  0  0  0  0  0  0
  -29.8460  -23.4160   20.9080 C   0  0  0  0  0  0  0  0  0  0  0  0
  -29.9040  -18.5280   18.1700 C   0  0  0  0  0  1  0  0  0  0  0  0
  -30.5750  -19.7490   23.7440 C   0  0  0  0  0  1  0  0  0  0  0  0
  -30.5500  -18.2040   21.8590 N   0  0  0  0  0  0  0  0  0  0  0  0
  -30.2500  -16.2780   20.2540 N   0  0  0  0  0  0  0  0  0  0  0  0
  -29.2870  -15.9940   20.3230 H   0  0  0  0  0  0  0  0  0  0  0  0
  -25.7410  -14.1570   20.4630 C   0  0  0  0  0  0  0  0  0  0  0  0
  -24.6930  -13.3760   20.8670 C   0  0  0  0  0  0  0  0  0  0  0  0
  -25.1350  -12.0240   20.7350 C   0  0  0  0  0  0  0  0  0  0  0  0
  -26.7530  -13.2820   20.1060 N   0  0  0  0  0  0  0  0  0  0  0  0
  -26.4030  -11.9890   20.3360 N   0  0  0  0  0  0  0  0  0  0  0  0
  -24.4050  -10.7610   20.9090 C   0  0  0  0  0  0  0  0  0  0  0  0
  -24.8100   -9.7980   21.8590 C   0  0  0  0  0  3  0  0  0  0  0  0
  -24.0790   -8.6020   22.0210 C   0  0  0  0  0  3  0  0  0  0  0  0
  -22.9290   -8.3610   21.2330 C   0  0  0  0  0  0  0  0  0  0  0  0
  -22.5420   -9.3130   20.2730 C   0  0  0  0  0  3  0  0  0  0  0  0
  -23.2740  -10.5010   20.1090 C   0  0  0  0  0  3  0  0  0  0  0  0
  -22.1710   -7.2170   21.3040 O   0  0  0  0  0  0  0  0  0  0  0  0
  -21.9760   -6.5540   22.4900 C   0  0  0  0  0  0  0  0  0  0  0  0
  -21.2950   -7.1510   23.5730 C   0  0  0  0  0  3  0  0  0  0  0  0
  -21.0540   -6.4100   24.7480 C   0  0  0  0  0  3  0  0  0  0  0  0
  -21.4860   -5.0740   24.8390 C   0  0  0  0  0  0  0  0  0  0  0  0
  -22.1590   -4.4760   23.7580 C   0  0  0  0  0  3  0  0  0  0  0  0
  -22.4010   -5.2140   22.5870 C   0  0  0  0  0  0  0  0  0  0  0  0
  -23.0320   -4.6260   21.5420 F   0  0  0  0  0  0  0  0  0  0  0  0
  -21.2490   -4.3590   25.9640 F   0  0  0  0  0  0  0  0  0  0  0  0
  -23.3240  -13.8540   21.2540 C   0  0  0  0  0  0  0  0  0  0  0  0
  -22.6630  -13.1510   22.1670 N   0  0  0  0  0  0  0  0  0  0  0  0
  -22.8510  -14.8870   20.7820 O   0  0  0  0  0  0  0  0  0  0  0  0
  -23.0620  -12.3170   22.5730 H   0  0  0  0  0  0  0  0  0  0  0  0
  -21.7470  -13.4520   22.4660 H   0  0  0  0  0  0  0  0  0  0  0  0
  -25.9050  -15.5350   20.3430 N   0  0  0  0  0  0  0  0  0  0  0  0
  -25.1430  -16.1760   20.5310 H   0  0  0  0  0  0  0  0  0  0  0  0
  -26.7060  -15.9900   19.9260 H   0  0  0  0  0  0  0  0  0  0  0  0
  -30.4560  -23.6160   17.2050 C   0  0  0  0  0  1  0  0  0  0  0  0
  -28.0230  -23.9020   17.8880 C   0  0  0  0  0  1  0  0  0  0  0  0
  -29.4800  -23.8440   18.3710 C   0  0  0  0  0  3  0  0  0  0  0  0
  -28.9450  -24.8040   21.3150 C   0  0  0  0  0  2  0  0  0  0  0  0
  -29.1460  -26.3150   20.9570 O   0  0  0  0  0  0  0  0  0  0  0  0
  -24.8820  -31.8900   23.2960 C   0  0  0  0  0  0  0  0  0  0  0  0
  -28.0260  -27.2130   20.7790 C   0  0  0  0  0  0  0  0  0  0  0  0
  -23.9210  -30.3150   21.6630 C   0  0  0  0  0  3  0  0  0  0  0  0
  -25.5900  -28.7750   20.4580 C   0  0  0  0  0  0  0  0  0  0  0  0
  -26.4560  -30.7620   21.6780 C   0  0  0  0  0  2  0  0  0  0  0  0
  -26.6830  -29.3440   21.1250 C   0  0  0  0  0  0  0  0  0  0  0  0
  -27.9020  -28.5780   21.2660 C   0  0  0  0  0  3  0  0  0  0  0  0
  -26.9050  -26.7500   20.0560 C   0  0  0  0  0  3  0  0  0  0  0  0
  -25.7150  -27.4920   19.9070 C   0  0  0  0  0  3  0  0  0  0  0  0
  -24.3020  -29.5780   20.3520 C   0  0  0  0  0  2  0  0  0  0  0  0
  -25.1010  -31.0150   22.2680 N   0  0  0  0  0  0  0  0  0  0  0  0
  -23.7400  -32.1200   23.7210 O   0  0  0  0  0  0  0  0  0  0  0  0
  -23.2410  -29.3160   22.6320 C   0  0  0  0  0  0  0  0  0  0  0  0
  -21.9390  -29.0480   22.4240 N   0  0  0  0  0  0  0  0  0  0  0  0
  -23.8890  -28.7820   23.5360 O   0  0  0  0  0  0  0  0  0  0  0  0
  -21.4700  -29.5310   21.6710 H   0  0  0  0  0  0  0  0  0  0  0  0
  -18.5840  -27.7500   22.8540 C   0  0  0  0  0  0  0  0  0  0  0  0
  -21.1250  -28.1010   23.1900 C   0  0  0  0  0  3  0  0  0  0  0  0
  -21.2890  -26.6610   22.6510 C   0  0  0  0  0  2  0  0  0  0  0  0
  -20.2290  -26.2820   21.6110 C   0  0  0  0  0  2  0  0  0  0  0  0
  -18.8250  -26.3940   22.2110 C   0  0  0  0  0  2  0  0  0  0  0  0
  -19.6640  -28.5580   23.3000 C   0  0  0  0  0  0  0  0  0  0  0  0
  -19.3860  -29.8230   23.8620 C   0  0  0  0  0  3  0  0  0  0  0  0
  -18.0600  -30.2820   23.9800 C   0  0  0  0  0  3  0  0  0  0  0  0
  -16.9940  -29.4720   23.5490 C   0  0  0  0  0  3  0  0  0  0  0  0
  -17.2570  -28.2070   22.9930 C   0  0  0  0  0  3  0  0  0  0  0  0
  -26.0570  -32.6570   23.9760 C   0  0  0  0  0  3  0  0  0  0  0  0
  -25.5930  -34.0230   24.2620 N   0  0  0  0  0  0  0  0  0  0  0  0
  -25.8010  -35.0840   23.4700 C   0  0  0  0  0  0  0  0  0  0  0  0
  -26.4700  -35.0210   22.4340 O   0  0  0  0  0  0  0  0  0  0  0  0
  -24.9900  -34.1360   25.0640 H   0  0  0  0  0  0  0  0  0  0  0  0
  -23.8660  -36.6530   23.1080 C   0  0  0  0  0  1  0  0  0  0  0  0
  -25.1690  -36.4260   23.8910 C   0  0  0  0  0  3  0  0  0  0  0  0
  -27.1920  -37.6030   24.6360 C   0  0  0  0  0  1  0  0  0  0  0  0
  -26.0690  -37.5850   23.7040 N   0  0  0  0  0  0  0  0  0  0  0  0
  -25.5580  -38.4570   23.8070 H   0  0  0  0  0  0  0  0  0  0  0  0
  -26.5670  -31.9610   25.2980 C   0  0  1  0  0  0  0  0  0  0  0  0
  -25.4320  -31.5770   26.2770 C   0  0  0  0  0  1  0  0  0  0  0  0
  -27.3610  -30.6760   24.9740 C   0  0  0  0  0  1  0  0  0  0  0  0
  -27.5410  -32.9040   26.0440 C   0  0  0  0  0  1  0  0  0  0  0  0
  1 21  1  0
  2  7  1  0
  3  4  1  0
  3  2  1  0
  5  4  1  0
  5 26  1  0
  5  6  1  0
  7  1  1  0
  7  6  1  0
  8  1  2  0
  9 10  1  0
 10 16  1  0
 10 12  2  0
 11  9  2  0
 11 13  1  0
 12 19  1  0
 13 20  2  0
 14 15  2  0
 14  9  1  0
 15 17  1  0
 17 54  1  0
 17 16  2  0
 18 11  1  0
 20 12  1  0
 21 22  1  0
 21 13  1  0
 23 24  2  0
 24 43  1  0
 25 24  1  0
 25 28  1  0
 26 27  1  0
 26 23  1  0
 27 25  2  0
 28 29  1  0
 29 30  2  0
 31 34  1  0
 31 30  1  0
 32 31  2  0
 33 32  1  0
 33 28  2  0
 34 35  1  0
 35 40  2  0
 35 36  1  0
 36 37  2  0
 37 38  1  0
 38 42  1  0
 39 38  2  0
 40 39  1  0
 41 40  1  0
 43 44  1  0
 44 47  1  0
 44 46  1  0
 45 43  2  0
 48 23  1  0
 48 49  1  0
 50 48  1  0
 51 53  1  0
 52 53  1  0
 53 15  1  0
 55 54  1  0
 56 67  2  0
 57 55  1  0
 57 62  1  0
 58 66  1  0
 58 68  1  0
 59 61  1  0
 60 66  1  0
 61 62  2  0
 61 60  1  0
 63 57  2  0
 64 63  1  0
 64 59  2  0
 65 59  1  0
 65 58  1  0
 66 56  1  0
 68 70  2  0
 69 68  1  0
 71 69  1  0
 72 81  2  0
 72 77  1  0
 73 69  1  0
 73 77  1  0
 74 73  1  0
 75 76  1  0
 75 74  1  0
 76 72  1  0
 77 78  2  0
 78 79  1  0
 80 79  2  0
 81 80  1  0
 82 56  1  0
 82 83  1  0
 82 92  1  0
 83 86  1  0
 84 88  1  0
 84 83  1  0
 85 84  2  0
 88 87  1  0
 90 91  1  0
 90 88  1  0
 90 89  1  0
 92 95  1  1
 92 93  1  0
 94 92  1  0
M  ISO  4   1 100  21 100  54 101  55 101
M  END
>  <TORSDO>  (35) 
F 17

>  <SCORE>  (35) 
-14.040

>  <name>  (35) 
35

>  <ligand_id>  (35) 
35

>  <original_smiles>  (35) 
[H]C1=C(C([H])(C([H])([H])[H])C([H])([H])[H])C([H])(C([H])([H])Oc2c([H])c([H])c3c(c2[H])C([H])([H])N(C(=O)C([H])(N([H])C(=O)C([H])(N([H])C([H])([H])[H])C([H])([H])[H])C(C([H])([H])[H])(C([H])([H])[H])C([H])([H])[H])C([H])(C(=O)N([H])C2([H])c4c([H])c([H])c([H])c([H])c4C([H])([H])C([H])([H])C2([H])[H])C3([H])[H])C([H])([H])c2c(C([H])([H])[H])nc(N([H])C(=O)N3C([H])([H])C([H])([H])C([H])([H])C([H])(n4nc(-c5c([H])c([H])c(Oc6c([H])c([H])c(F)c([H])c6F)c([H])c5[H])c(C(=O)N([H])[H])c4N([H])[H])C3([H])[H])c(C([H])([H])[H])c21

>  <smiles>  (35) 
[H]C1=C(C([H])(C([H])([H])[H])C([H])([H])[H])C([H])(C([H])([H])Oc2c([H])c([H])c3c(c2[H])C([H])([H])N(C(=O)C([H])(N([H])C(=O)C([H])(N([H])C([H])([H])[H])C([H])([H])[H])C(C([H])([H])[H])(C([H])([H])[H])C([H])([H])[H])C([H])(C(=O)N([H])C2([H])c4c([H])c([H])c([H])c([H])c4C([H])([H])C([H])([H])C2([H])[H])C3([H])[H])C([H])([H])c2c(C([H])([H])[H])nc(N([H])C(=O)N3C([H])([H])C([H])([H])C([H])([H])C([H])(n4nc(-c5c([H])c([H])c(Oc6c([H])c([H])c(F)c([H])c6F)c([H])c5[H])c(C(=O)N([H])[H])c4N([H])[H])C3([H])[H])c(C([H])([H])[H])c21

$$$$
36:0:0
     RDKit          3D

 97106  0  0  1  0  0  0  0  0999 V2000
  -31.7020  -22.1720   15.1580 C   0  0  0  0  0  3  0  0  0  0  0  0
  -30.1650  -22.1290   17.4460 C   0  0  0  0  0  0  0  0  0  0  0  0
  -31.0000  -21.0090   17.1620 C   0  0  0  0  0  0  0  0  0  0  0  0
  -31.8090  -21.0330   15.9910 C   0  0  0  0  0  0  0  0  0  0  0  0
  -30.1380  -23.2000   16.5250 C   0  0  0  0  0  0  0  0  0  0  0  0
  -30.8950  -23.2230   15.4110 N   0  0  0  0  0  0  0  0  0  0  0  0
  -32.3340  -19.7000   18.9040 C   0  0  0  0  0  1  0  0  0  0  0  0
  -30.7030  -18.4760   17.3660 C   0  0  0  0  0  1  0  0  0  0  0  0
  -31.0280  -19.7880   18.0960 C   0  0  0  0  0  3  0  0  0  0  0  0
  -28.2590  -23.2960   18.8810 C   0  0  0  0  0  2  0  0  0  0  0  0
  -29.4950  -23.2610   19.7390 C   0  0  0  0  0  2  0  0  0  0  0  0
  -29.2890  -22.1990   18.6760 C   0  0  0  0  0  3  0  0  0  0  0  0
  -32.6500  -19.9610   15.7190 O   0  0  0  0  0  0  0  0  0  0  0  0
  -33.7890  -20.1470   14.8750 C   0  0  0  0  0  2  0  0  0  0  0  0
  -33.6190  -19.3700   13.5490 C   0  0  0  0  0  2  0  0  0  0  0  0
  -31.7820  -18.7840   11.9560 C   0  0  0  0  0  0  0  0  0  0  0  0
  -29.8730  -18.4490   10.4230 C   0  0  0  0  0  2  0  0  0  0  0  0
  -29.9980  -19.3680    9.1920 C   0  0  0  0  0  2  0  0  0  0  0  0
  -29.3880  -20.7540    9.4820 C   0  0  0  0  0  2  0  0  0  0  0  0
  -29.8880  -21.3580   10.8210 C   0  0  0  0  0  3  0  0  0  0  0  0
  -29.7810  -20.3250   11.9630 C   0  0  0  0  0  2  0  0  0  0  0  0
  -30.5240  -19.1190   11.5580 N   0  0  0  0  0  0  0  0  0  0  0  0
  -32.3900  -17.8050   11.5170 O   0  0  0  0  0  0  0  0  0  0  0  0
  -32.3470  -19.6040   12.8530 N   0  0  0  0  0  0  0  0  0  0  0  0
  -31.8080  -20.4080   13.1410 H   0  0  0  0  0  0  0  0  0  0  0  0
  -29.6680  -23.7640   11.7090 C   0  0  0  0  0  0  0  0  0  0  0  0
  -28.6160  -24.6380   11.7350 C   0  0  0  0  0  0  0  0  0  0  0  0
  -27.5110  -23.9410   11.1570 C   0  0  0  0  0  0  0  0  0  0  0  0
  -29.1800  -22.5960   11.1440 N   0  0  0  0  0  0  0  0  0  0  0  0
  -27.8570  -22.6950   10.8590 N   0  0  0  0  0  0  0  0  0  0  0  0
  -26.1610  -24.4060   10.8160 C   0  0  0  0  0  0  0  0  0  0  0  0
  -25.0970  -24.3280   11.7420 C   0  0  0  0  0  3  0  0  0  0  0  0
  -23.8120  -24.7980   11.3960 C   0  0  0  0  0  3  0  0  0  0  0  0
  -23.5810  -25.3570   10.1170 C   0  0  0  0  0  0  0  0  0  0  0  0
  -24.6380  -25.4100    9.1910 C   0  0  0  0  0  3  0  0  0  0  0  0
  -25.9150  -24.9370    9.5340 C   0  0  0  0  0  3  0  0  0  0  0  0
  -22.3610  -25.8150    9.6840 O   0  0  0  0  0  0  0  0  0  0  0  0
  -21.7370  -26.8790   10.2860 C   0  0  0  0  0  0  0  0  0  0  0  0
  -22.2930  -28.1770   10.2650 C   0  0  0  0  0  3  0  0  0  0  0  0
  -21.5860  -29.2550   10.8350 C   0  0  0  0  0  3  0  0  0  0  0  0
  -20.3230  -29.0400   11.4170 C   0  0  0  0  0  0  0  0  0  0  0  0
  -19.7660  -27.7490   11.4340 C   0  0  0  0  0  3  0  0  0  0  0  0
  -20.4700  -26.6720   10.8670 C   0  0  0  0  0  0  0  0  0  0  0  0
  -19.9200  -25.4350   10.8670 F   0  0  0  0  0  0  0  0  0  0  0  0
  -19.6400  -30.0760   11.9570 F   0  0  0  0  0  0  0  0  0  0  0  0
  -28.6540  -26.0710   12.1810 C   0  0  0  0  0  0  0  0  0  0  0  0
  -27.6070  -26.5300   12.8590 N   0  0  0  0  0  0  0  0  0  0  0  0
  -29.6380  -26.7810   11.9720 O   0  0  0  0  0  0  0  0  0  0  0  0
  -26.8100  -25.9420   13.0490 H   0  0  0  0  0  0  0  0  0  0  0  0
  -27.6050  -27.4820   13.1950 H   0  0  0  0  0  0  0  0  0  0  0  0
  -30.9980  -23.8680   12.0990 N   0  0  0  0  0  0  0  0  0  0  0  0
  -31.3890  -24.7290   12.4660 H   0  0  0  0  0  0  0  0  0  0  0  0
  -31.6860  -23.1340   11.9920 H   0  0  0  0  0  0  0  0  0  0  0  0
  -29.2760  -24.2590   16.7490 O   0  0  0  0  0  0  0  0  0  0  0  0
  -29.0180  -25.1930   15.6990 C   0  0  0  0  0  2  0  0  0  0  0  0
  -28.8180  -26.6140   16.2630 C   0  0  0  0  0  2  0  0  0  0  0  0
  -29.9840  -27.4350   16.1070 O   0  0  0  0  0  0  0  0  0  0  0  0
  -35.4870  -31.2010   18.5980 C   0  0  0  0  0  0  0  0  0  0  0  0
  -30.7910  -27.6900   17.2000 C   0  0  0  0  0  0  0  0  0  0  0  0
  -34.6970  -29.3670   20.0570 C   0  0  0  0  0  3  0  0  0  0  0  0
  -32.4760  -28.3010   19.3950 C   0  0  0  0  0  0  0  0  0  0  0  0
  -33.0910  -30.5280   18.4380 C   0  0  0  0  0  2  0  0  0  0  0  0
  -32.3300  -29.2210   18.3500 C   0  0  0  0  0  0  0  0  0  0  0  0
  -31.4930  -28.9170   17.2520 C   0  0  0  0  0  3  0  0  0  0  0  0
  -30.9780  -26.7620   18.2520 C   0  0  0  0  0  3  0  0  0  0  0  0
  -31.8070  -27.0670   19.3480 C   0  0  0  0  0  3  0  0  0  0  0  0
  -33.3810  -28.7000   20.5390 C   0  0  0  0  0  2  0  0  0  0  0  0
  -34.4620  -30.3890   18.9860 N   0  0  0  0  0  0  0  0  0  0  0  0
  -36.5970  -31.1360   19.1430 O   0  0  0  0  0  0  0  0  0  0  0  0
  -35.6870  -28.2570   19.6380 C   0  0  0  0  0  0  0  0  0  0  0  0
  -36.4110  -27.6990   20.6220 N   0  0  0  0  0  0  0  0  0  0  0  0
  -35.7730  -27.8980   18.4600 O   0  0  0  0  0  0  0  0  0  0  0  0
  -36.2880  -28.0540   21.5580 H   0  0  0  0  0  0  0  0  0  0  0  0
  -38.8660  -25.7160   22.3800 C   0  0  0  0  0  0  0  0  0  0  0  0
  -37.3770  -26.6120   20.4670 C   0  0  0  0  0  3  0  0  0  0  0  0
  -36.6750  -25.2340   20.5060 C   0  0  0  0  0  2  0  0  0  0  0  0
  -36.6370  -24.6160   21.9070 C   0  0  0  0  0  2  0  0  0  0  0  0
  -38.0570  -24.4330   22.4520 C   0  0  0  0  0  2  0  0  0  0  0  0
  -38.5380  -26.7460   21.4590 C   0  0  0  0  0  0  0  0  0  0  0  0
  -39.3010  -27.9340   21.4570 C   0  0  0  0  0  3  0  0  0  0  0  0
  -40.3760  -28.1000   22.3510 C   0  0  0  0  0  3  0  0  0  0  0  0
  -40.7070  -27.0710   23.2500 C   0  0  0  0  0  3  0  0  0  0  0  0
  -39.9560  -25.8820   23.2600 C   0  0  0  0  0  3  0  0  0  0  0  0
  -35.3060  -32.2640   17.4690 C   0  0  0  0  0  3  0  0  0  0  0  0
  -35.8360  -33.5380   17.9730 N   0  0  0  0  0  0  0  0  0  0  0  0
  -35.1020  -34.4790   18.5820 C   0  0  0  0  0  0  0  0  0  0  0  0
  -33.8770  -34.3920   18.7140 O   0  0  0  0  0  0  0  0  0  0  0  0
  -36.8380  -33.6520   17.9490 H   0  0  0  0  0  0  0  0  0  0  0  0
  -36.0240  -35.5710   20.6510 C   0  0  0  0  0  1  0  0  0  0  0  0
  -35.8430  -35.7130   19.1320 C   0  0  0  0  0  3  0  0  0  0  0  0
  -35.2990  -37.4000   17.4310 C   0  0  0  0  0  1  0  0  0  0  0  0
  -35.1640  -36.9920   18.8280 N   0  0  0  0  0  0  0  0  0  0  0  0
  -35.5260  -37.7390   19.4130 H   0  0  0  0  0  0  0  0  0  0  0  0
  -36.0120  -31.8620   16.1160 C   0  0  1  0  0  0  0  0  0  0  0  0
  -37.5500  -32.0170   16.1490 C   0  0  0  0  0  1  0  0  0  0  0  0
  -35.6940  -30.3940   15.7510 C   0  0  0  0  0  1  0  0  0  0  0  0
  -35.4670  -32.7340   14.9610 C   0  0  0  0  0  1  0  0  0  0  0  0
  1  6  1  0
  1  4  2  0
  2 12  1  0
  3  2  2  0
  3  9  1  0
  4  3  1  0
  5 54  1  0
  5  2  1  0
  6  5  2  0
  8  9  1  0
  9  7  1  0
 10 11  1  0
 12 10  1  0
 12 11  1  0
 13  4  1  0
 14 13  1  0
 15 14  1  0
 16 24  1  0
 17 22  1  0
 18 19  1  0
 18 17  1  0
 20 19  1  0
 20 29  1  0
 20 21  1  0
 22 16  1  0
 22 21  1  0
 23 16  2  0
 24 25  1  0
 24 15  1  0
 26 27  2  0
 26 51  1  0
 27 46  1  0
 28 27  1  0
 29 26  1  0
 30 29  1  0
 30 28  2  0
 31 28  1  0
 31 32  1  0
 33 32  2  0
 34 33  1  0
 35 36  1  0
 35 34  2  0
 36 31  2  0
 37 34  1  0
 37 38  1  0
 38 43  1  0
 39 38  2  0
 39 40  1  0
 40 41  2  0
 41 42  1  0
 41 45  1  0
 43 42  2  0
 44 43  1  0
 46 47  1  0
 47 49  1  0
 47 50  1  0
 48 46  2  0
 51 52  1  0
 53 51  1  0
 55 56  1  0
 55 54  1  0
 57 56  1  0
 57 59  1  0
 58 68  1  0
 58 69  2  0
 59 64  2  0
 59 65  1  0
 60 70  1  0
 60 67  1  0
 61 67  1  0
 62 68  1  0
 63 62  1  0
 63 61  2  0
 64 63  1  0
 65 66  2  0
 66 61  1  0
 68 60  1  0
 70 71  1  0
 71 73  1  0
 72 70  2  0
 74 78  1  0
 74 83  1  0
 75 76  1  0
 75 71  1  0
 75 79  1  0
 76 77  1  0
 77 78  1  0
 79 74  2  0
 80 79  1  0
 80 81  2  0
 81 82  1  0
 82 83  2  0
 84 85  1  0
 84 58  1  0
 85 86  1  0
 86 87  2  0
 86 90  1  0
 88 85  1  0
 90 89  1  0
 91 92  1  0
 92 90  1  0
 92 93  1  0
 94 95  1  1
 94 84  1  0
 96 94  1  0
 97 94  1  0
M  ISO  4  16 100  24 100  56 101  57 101
M  END
>  <TORSDO>  (36) 
F 24

>  <SCORE>  (36) 
-4.058

>  <name>  (36) 
36

>  <ligand_id>  (36) 
36

>  <original_smiles>  (36) 
[H]c1nc(OC([H])([H])C([H])([H])Oc2c([H])c([H])c3c(c2[H])C([H])([H])N(C(=O)C([H])(N([H])C(=O)C([H])(N([H])C([H])([H])[H])C([H])([H])[H])C(C([H])([H])[H])(C([H])([H])[H])C([H])([H])[H])C([H])(C(=O)N([H])C2([H])c4c([H])c([H])c([H])c([H])c4C([H])([H])C([H])([H])C2([H])[H])C3([H])[H])c(C2([H])C([H])([H])C2([H])[H])c(C([H])(C([H])([H])[H])C([H])([H])[H])c1OC([H])([H])C([H])([H])N([H])C(=O)N1C([H])([H])C([H])([H])C([H])([H])C([H])(n2nc(-c3c([H])c([H])c(Oc4c([H])c([H])c(F)c([H])c4F)c([H])c3[H])c(C(=O)N([H])[H])c2N([H])[H])C1([H])[H]

>  <smiles>  (36) 
[H]c1nc(OC([H])([H])C([H])([H])Oc2c([H])c([H])c3c(c2[H])C([H])([H])N(C(=O)C([H])(N([H])C(=O)C([H])(N([H])C([H])([H])[H])C([H])([H])[H])C(C([H])([H])[H])(C([H])([H])[H])C([H])([H])[H])C([H])(C(=O)N([H])C2([H])c4c([H])c([H])c([H])c([H])c4C([H])([H])C([H])([H])C2([H])[H])C3([H])[H])c(C2([H])C([H])([H])C2([H])[H])c(C([H])(C([H])([H])[H])C([H])([H])[H])c1OC([H])([H])C([H])([H])N([H])C(=O)N1C([H])([H])C([H])([H])C([H])([H])C([H])(n2nc(-c3c([H])c([H])c(Oc4c([H])c([H])c(F)c([H])c4F)c([H])c3[H])c(C(=O)N([H])[H])c2N([H])[H])C1([H])[H]

$$$$
37:0:0
     RDKit          3D

 96106  0  0  1  0  0  0  0  0999 V2000
  -31.1920  -17.7930   20.6360 C   0  0  0  0  0  3  0  0  0  0  0  0
  -28.8710  -17.7700   20.0220 C   0  0  0  0  0  3  0  0  0  0  0  0
  -31.2390  -19.2050   20.4330 C   0  0  0  0  0  0  0  0  0  0  0  0
  -30.0840  -19.9340   19.9930 C   0  0  0  0  0  0  0  0  0  0  0  0
  -30.0190  -17.0380   20.4070 C   0  0  0  0  0  0  0  0  0  0  0  0
  -28.8870  -19.1840   19.8000 C   0  0  0  0  0  0  0  0  0  0  0  0
  -30.6530  -14.5630   20.1060 C   0  0  0  0  0  0  0  0  0  0  0  0
  -30.3190  -12.3850   18.9650 C   0  0  0  0  0  2  0  0  0  0  0  0
  -29.3100  -12.5960   17.8140 C   0  0  0  0  0  2  0  0  0  0  0  0
  -27.8590  -12.4570   18.3210 C   0  0  0  0  0  2  0  0  0  0  0  0
  -27.5960  -13.2770   19.6120 C   0  0  0  0  0  3  0  0  0  0  0  0
  -28.7120  -13.0400   20.6570 C   0  0  0  0  0  2  0  0  0  0  0  0
  -30.0000  -13.3640   20.0210 N   0  0  0  0  0  0  0  0  0  0  0  0
  -31.7840  -14.7210   19.6380 O   0  0  0  0  0  0  0  0  0  0  0  0
  -29.9060  -15.5980   20.5870 N   0  0  0  0  0  0  0  0  0  0  0  0
  -29.0080  -15.2860   20.9210 H   0  0  0  0  0  0  0  0  0  0  0  0
  -25.2560  -13.9060   20.4740 C   0  0  0  0  0  0  0  0  0  0  0  0
  -24.1950  -13.1460   20.8850 C   0  0  0  0  0  0  0  0  0  0  0  0
  -24.6250  -11.7860   20.7910 C   0  0  0  0  0  0  0  0  0  0  0  0
  -26.2670  -13.0110   20.1600 N   0  0  0  0  0  0  0  0  0  0  0  0
  -25.8950  -11.7300   20.4090 N   0  0  0  0  0  0  0  0  0  0  0  0
  -23.8820  -10.5340   20.9880 C   0  0  0  0  0  0  0  0  0  0  0  0
  -24.3390   -9.5390   21.8810 C   0  0  0  0  0  3  0  0  0  0  0  0
  -23.6000   -8.3510   22.0670 C   0  0  0  0  0  3  0  0  0  0  0  0
  -22.3900   -8.1500   21.3610 C   0  0  0  0  0  0  0  0  0  0  0  0
  -21.9520   -9.1330   20.4570 C   0  0  0  0  0  3  0  0  0  0  0  0
  -22.6910  -10.3130   20.2680 C   0  0  0  0  0  3  0  0  0  0  0  0
  -21.6190   -7.0160   21.4590 O   0  0  0  0  0  0  0  0  0  0  0  0
  -21.5930   -6.2600   22.6030 C   0  0  0  0  0  0  0  0  0  0  0  0
  -21.1940   -6.8010   23.8450 C   0  0  0  0  0  3  0  0  0  0  0  0
  -21.1150   -5.9710   24.9810 C   0  0  0  0  0  3  0  0  0  0  0  0
  -21.4250   -4.6020   24.8760 C   0  0  0  0  0  0  0  0  0  0  0  0
  -21.8180   -4.0610   23.6400 C   0  0  0  0  0  3  0  0  0  0  0  0
  -21.8980   -4.8880   22.5060 C   0  0  0  0  0  0  0  0  0  0  0  0
  -22.2570   -4.3560   21.3120 F   0  0  0  0  0  0  0  0  0  0  0  0
  -21.3420   -3.8020   25.9660 F   0  0  0  0  0  0  0  0  0  0  0  0
  -22.8250  -13.6430   21.2460 C   0  0  0  0  0  0  0  0  0  0  0  0
  -22.1350  -12.9460   22.1420 N   0  0  0  0  0  0  0  0  0  0  0  0
  -22.3770  -14.6840   20.7690 O   0  0  0  0  0  0  0  0  0  0  0  0
  -22.5120  -12.1030   22.5510 H   0  0  0  0  0  0  0  0  0  0  0  0
  -21.2180  -13.2610   22.4240 H   0  0  0  0  0  0  0  0  0  0  0  0
  -25.4390  -15.2770   20.3190 N   0  0  0  0  0  0  0  0  0  0  0  0
  -24.6770  -15.9320   20.4580 H   0  0  0  0  0  0  0  0  0  0  0  0
  -26.2450  -15.6900   19.8720 H   0  0  0  0  0  0  0  0  0  0  0  0
  -33.4560  -20.3280   19.5670 C   0  0  0  0  0  2  0  0  0  0  0  0
  -33.8950  -19.2360   20.5100 C   0  0  0  0  0  2  0  0  0  0  0  0
  -32.5470  -19.9050   20.7010 C   0  0  0  0  0  3  0  0  0  0  0  0
  -30.2340  -21.5740   18.0620 C   0  0  0  0  0  1  0  0  0  0  0  0
  -30.1930  -21.4620   19.5940 C   0  0  0  0  0  3  0  0  0  0  0  0
  -29.4440  -23.3360   21.3790 C   0  0  0  0  0  2  0  0  0  0  0  0
  -29.4170  -24.0550   20.0480 C   0  0  0  0  0  3  0  0  0  0  0  0
  -29.1710  -22.5100   20.1450 C   0  0  0  0  0  3  0  0  0  0  0  0
  -28.2860  -25.0520   19.6670 C   0  0  0  0  0  2  0  0  0  0  0  0
  -28.4600  -26.4940   19.8990 O   0  0  0  0  0  0  0  0  0  0  0  0
  -24.5440  -31.6290   23.0770 C   0  0  0  0  0  0  0  0  0  0  0  0
  -27.3050  -27.2870   19.8690 C   0  0  0  0  0  0  0  0  0  0  0  0
  -23.3880  -30.2610   21.3770 C   0  0  0  0  0  3  0  0  0  0  0  0
  -24.8890  -28.8110   19.9060 C   0  0  0  0  0  0  0  0  0  0  0  0
  -25.9170  -30.6630   21.2220 C   0  0  0  0  0  2  0  0  0  0  0  0
  -26.0380  -29.3150   20.5260 C   0  0  0  0  0  0  0  0  0  0  0  0
  -27.2500  -28.5660   20.4990 C   0  0  0  0  0  3  0  0  0  0  0  0
  -26.1260  -26.8310   19.2300 C   0  0  0  0  0  3  0  0  0  0  0  0
  -24.9320  -27.5730   19.2510 C   0  0  0  0  0  3  0  0  0  0  0  0
  -23.6270  -29.6440   19.9750 C   0  0  0  0  0  2  0  0  0  0  0  0
  -24.6340  -30.8650   21.9500 N   0  0  0  0  0  0  0  0  0  0  0  0
  -23.4500  -31.8580   23.6130 O   0  0  0  0  0  0  0  0  0  0  0  0
  -22.7490  -29.1900   22.2920 C   0  0  0  0  0  0  0  0  0  0  0  0
  -21.4260  -28.9970   22.1630 N   0  0  0  0  0  0  0  0  0  0  0  0
  -23.4420  -28.5370   23.0770 O   0  0  0  0  0  0  0  0  0  0  0  0
  -20.9250  -29.5780   21.5040 H   0  0  0  0  0  0  0  0  0  0  0  0
  -18.0610  -27.7660   22.6550 C   0  0  0  0  0  0  0  0  0  0  0  0
  -20.6230  -28.0160   22.8950 C   0  0  0  0  0  3  0  0  0  0  0  0
  -20.7180  -26.6190   22.2380 C   0  0  0  0  0  2  0  0  0  0  0  0
  -19.5990  -26.3510   21.2270 C   0  0  0  0  0  2  0  0  0  0  0  0
  -18.2280  -26.4560   21.9030 C   0  0  0  0  0  2  0  0  0  0  0  0
  -19.1860  -28.5060   23.1070 C   0  0  0  0  0  0  0  0  0  0  0  0
  -18.9750  -29.7330   23.7700 C   0  0  0  0  0  3  0  0  0  0  0  0
  -17.6730  -30.2220   23.9860 C   0  0  0  0  0  3  0  0  0  0  0  0
  -16.5630  -29.4770   23.5520 C   0  0  0  0  0  3  0  0  0  0  0  0
  -16.7580  -28.2520   22.8910 C   0  0  0  0  0  3  0  0  0  0  0  0
  -25.8060  -32.2690   23.7310 C   0  0  0  0  0  3  0  0  0  0  0  0
  -25.4630  -33.6500   24.0960 N   0  0  0  0  0  0  0  0  0  0  0  0
  -25.7700  -34.7300   23.3640 C   0  0  0  0  0  0  0  0  0  0  0  0
  -26.4440  -34.6690   22.3320 O   0  0  0  0  0  0  0  0  0  0  0  0
  -24.8630  -33.7700   24.8990 H   0  0  0  0  0  0  0  0  0  0  0  0
  -23.9970  -36.4870   23.0580 C   0  0  0  0  0  1  0  0  0  0  0  0
  -25.2500  -36.0940   23.8570 C   0  0  0  0  0  3  0  0  0  0  0  0
  -27.3590  -37.0160   24.7110 C   0  0  0  0  0  1  0  0  0  0  0  0
  -26.2550  -37.1750   23.7690 N   0  0  0  0  0  0  0  0  0  0  0  0
  -25.8250  -38.0810   23.9340 H   0  0  0  0  0  0  0  0  0  0  0  0
  -26.3240  -31.4730   24.9910 C   0  0  1  0  0  0  0  0  0  0  0  0
  -25.2250  -31.1880   26.0410 C   0  0  0  0  0  1  0  0  0  0  0  0
  -26.9350  -30.1170   24.5680 C   0  0  0  0  0  1  0  0  0  0  0  0
  -27.4560  -32.2680   25.6850 C   0  0  0  0  0  1  0  0  0  0  0  0
  -26.5690  -19.1520   19.1290 C   0  0  0  0  0  1  0  0  0  0  0  0
  -27.7750  -19.8710   19.3590 O   0  0  0  0  0  0  0  0  0  0  0  0
  2  5  1  0
  3  1  1  0
  3 47  1  0
  4  3  2  0
  5 15  1  0
  5  1  2  0
  6  4  1  0
  6  2  2  0
  7 15  1  0
  8 13  1  0
  9 10  1  0
  9  8  1  0
 11 10  1  0
 11 20  1  0
 11 12  1  0
 13  7  1  0
 13 12  1  0
 14  7  2  0
 15 16  1  0
 17 18  2  0
 18 37  1  0
 19 18  1  0
 19 22  1  0
 20 21  1  0
 20 17  1  0
 21 19  2  0
 22 23  1  0
 23 24  2  0
 25 28  1  0
 25 24  1  0
 26 25  2  0
 27 26  1  0
 27 22  2  0
 28 29  1  0
 29 30  1  0
 30 31  2  0
 32 31  1  0
 32 36  1  0
 33 32  2  0
 34 29  2  0
 34 33  1  0
 35 34  1  0
 37 38  1  0
 38 41  1  0
 38 40  1  0
 39 37  2  0
 42 43  1  0
 42 17  1  0
 44 42  1  0
 45 46  1  0
 45 47  1  0
 46 47  1  0
 49 48  1  0
 49  4  1  0
 51 53  1  0
 51 52  1  0
 51 50  1  0
 52 49  1  0
 52 50  1  0
 53 54  1  0
 55 66  2  0
 56 54  1  0
 56 61  1  0
 57 65  1  0
 57 67  1  0
 58 64  1  0
 58 60  1  0
 59 65  1  0
 60 59  1  0
 61 60  2  0
 62 63  1  0
 62 56  2  0
 63 58  2  0
 64 57  1  0
 65 55  1  0
 67 69  2  0
 68 67  1  0
 70 68  1  0
 71 80  2  0
 71 76  1  0
 72 68  1  0
 72 76  1  0
 73 72  1  0
 74 75  1  0
 74 73  1  0
 75 71  1  0
 76 77  2  0
 77 78  1  0
 79 78  2  0
 80 79  1  0
 81 55  1  0
 81 82  1  0
 81 91  1  0
 82 85  1  0
 83 87  1  0
 83 82  1  0
 84 83  2  0
 87 86  1  0
 89 87  1  0
 89 90  1  0
 89 88  1  0
 91 94  1  1
 91 92  1  0
 93 91  1  0
 95 96  1  0
 96  6  1  0
M  ISO  4   7 100  15 100  53 101  54 101
M  END
>  <TORSDO>  (37) 
F 21

>  <SCORE>  (37) 
-13.262

>  <name>  (37) 
37

>  <ligand_id>  (37) 
37

>  <original_smiles>  (37) 
[H]c1c([H])c([H])c2c(c1[H])C([H])([H])C([H])([H])C([H])([H])C2([H])N([H])C(=O)C1([H])N(C(=O)C([H])(N([H])C(=O)C([H])(N([H])C([H])([H])[H])C([H])([H])[H])C(C([H])([H])[H])(C([H])([H])[H])C([H])([H])[H])C([H])([H])c2c([H])c(OC([H])([H])C3([H])C([H])([H])C3([H])C([H])(c3c(OC([H])([H])[H])c([H])c(N([H])C(=O)N4C([H])([H])C([H])([H])C([H])([H])C([H])(n5nc(-c6c([H])c([H])c(Oc7c([H])c([H])c(F)c([H])c7F)c([H])c6[H])c(C(=O)N([H])[H])c5N([H])[H])C4([H])[H])c([H])c3C3([H])C([H])([H])C3([H])[H])C([H])([H])[H])c([H])c([H])c2C1([H])[H]

>  <smiles>  (37) 
[H]c1c([H])c([H])c2c(c1[H])C([H])([H])C([H])([H])C([H])([H])C2([H])N([H])C(=O)C1([H])N(C(=O)C([H])(N([H])C(=O)C([H])(N([H])C([H])([H])[H])C([H])([H])[H])C(C([H])([H])[H])(C([H])([H])[H])C([H])([H])[H])C([H])([H])c2c([H])c(OC([H])([H])C3([H])C([H])([H])C3([H])C([H])(c3c(OC([H])([H])[H])c([H])c(N([H])C(=O)N4C([H])([H])C([H])([H])C([H])([H])C([H])(n5nc(-c6c([H])c([H])c(Oc7c([H])c([H])c(F)c([H])c7F)c([H])c6[H])c(C(=O)N([H])[H])c5N([H])[H])C4([H])[H])c([H])c3C3([H])C([H])([H])C3([H])[H])C([H])([H])[H])c([H])c([H])c2C1([H])[H]

$$$$
38:0:0
     RDKit          3D

 97107  0  0  1  0  0  0  0  0999 V2000
  -32.4380  -21.3640   21.4730 C   0  0  0  0  0  1  0  0  0  0  0  0
  -31.3840  -21.8350   20.4500 C   0  0  0  0  0  3  0  0  0  0  0  0
  -33.4100  -20.4020   17.6260 C   0  0  0  0  0  3  0  0  0  0  0  0
  -30.8070  -20.1610   18.5300 C   0  0  0  0  0  0  0  0  0  0  0  0
  -31.3100  -19.2270   17.5740 C   0  0  0  0  0  0  0  0  0  0  0  0
  -32.6450  -19.3300   17.1080 C   0  0  0  0  0  0  0  0  0  0  0  0
  -31.6860  -21.1510   19.0630 C   0  0  0  0  0  0  0  0  0  0  0  0
  -30.4340  -18.0730   17.0830 C   0  0  0  0  0  1  0  0  0  0  0  0
  -32.9490  -21.2770   18.5690 N   0  0  0  0  0  0  0  0  0  0  0  0
  -34.2750  -17.8550   15.7250 C   0  0  0  0  0  0  0  0  0  0  0  0
  -35.4940  -17.0990   13.6920 C   0  0  0  0  0  2  0  0  0  0  0  0
  -35.6230  -18.2990   12.7240 C   0  0  0  0  0  2  0  0  0  0  0  0
  -34.3600  -18.4590   11.8510 C   0  0  0  0  0  2  0  0  0  0  0  0
  -33.0510  -18.3910   12.6790 C   0  0  0  0  0  3  0  0  0  0  0  0
  -33.0750  -17.1620   13.6160 C   0  0  0  0  0  2  0  0  0  0  0  0
  -34.2640  -17.2850   14.4820 N   0  0  0  0  0  0  0  0  0  0  0  0
  -35.2960  -17.9290   16.4160 O   0  0  0  0  0  0  0  0  0  0  0  0
  -33.0840  -18.4040   16.0790 N   0  0  0  0  0  0  0  0  0  0  0  0
  -32.3530  -18.1280   15.4430 H   0  0  0  0  0  0  0  0  0  0  0  0
  -30.6750  -19.0920   11.9830 C   0  0  0  0  0  0  0  0  0  0  0  0
  -29.9260  -18.8090   10.8720 C   0  0  0  0  0  0  0  0  0  0  0  0
  -30.7260  -17.9400   10.0690 C   0  0  0  0  0  0  0  0  0  0  0  0
  -31.8660  -18.4000   11.8250 N   0  0  0  0  0  0  0  0  0  0  0  0
  -31.8670  -17.6610   10.6860 N   0  0  0  0  0  0  0  0  0  0  0  0
  -30.4960  -17.4010    8.7230 C   0  0  0  0  0  0  0  0  0  0  0  0
  -30.2420  -16.0280    8.5110 C   0  0  0  0  0  3  0  0  0  0  0  0
  -30.0070  -15.5370    7.2070 C   0  0  0  0  0  3  0  0  0  0  0  0
  -30.0210  -16.4210    6.1030 C   0  0  0  0  0  0  0  0  0  0  0  0
  -30.2960  -17.7820    6.3180 C   0  0  0  0  0  3  0  0  0  0  0  0
  -30.5350  -18.2690    7.6130 C   0  0  0  0  0  3  0  0  0  0  0  0
  -29.8290  -16.0280    4.8000 O   0  0  0  0  0  0  0  0  0  0  0  0
  -28.8770  -15.1020    4.4600 C   0  0  0  0  0  0  0  0  0  0  0  0
  -27.4960  -15.3720    4.5850 C   0  0  0  0  0  3  0  0  0  0  0  0
  -26.5510  -14.4170    4.1580 C   0  0  0  0  0  3  0  0  0  0  0  0
  -26.9820  -13.1990    3.5990 C   0  0  0  0  0  0  0  0  0  0  0  0
  -28.3560  -12.9310    3.4690 C   0  0  0  0  0  3  0  0  0  0  0  0
  -29.3010  -13.8820    3.8950 C   0  0  0  0  0  0  0  0  0  0  0  0
  -30.6230  -13.6280    3.7490 F   0  0  0  0  0  0  0  0  0  0  0  0
  -26.0750  -12.2860    3.1820 F   0  0  0  0  0  0  0  0  0  0  0  0
  -28.5840  -19.3880   10.5250 C   0  0  0  0  0  0  0  0  0  0  0  0
  -27.6830  -18.5690    9.9940 N   0  0  0  0  0  0  0  0  0  0  0  0
  -28.3120  -20.5630   10.7680 O   0  0  0  0  0  0  0  0  0  0  0  0
  -27.8990  -17.6000    9.8130 H   0  0  0  0  0  0  0  0  0  0  0  0
  -26.7620  -18.9160    9.7630 H   0  0  0  0  0  0  0  0  0  0  0  0
  -30.4510  -19.8900   13.1010 N   0  0  0  0  0  0  0  0  0  0  0  0
  -29.6130  -20.4500   13.2060 H   0  0  0  0  0  0  0  0  0  0  0  0
  -31.1310  -20.0540   13.8340 H   0  0  0  0  0  0  0  0  0  0  0  0
  -28.1690  -20.2110   18.1540 C   0  0  0  0  0  2  0  0  0  0  0  0
  -28.5030  -21.2510   19.1880 C   0  0  0  0  0  2  0  0  0  0  0  0
  -29.3880  -20.0320   19.0390 C   0  0  0  0  0  3  0  0  0  0  0  0
  -30.5890  -24.3480   19.5830 C   0  0  0  0  0  2  0  0  0  0  0  0
  -29.9670  -23.4900   21.8730 C   0  0  0  0  0  2  0  0  0  0  0  0
  -30.4180  -25.8460   20.0610 C   0  0  0  0  0  2  0  0  0  0  0  0
  -29.2330  -24.8520   22.0470 C   0  0  0  0  0  2  0  0  0  0  0  0
  -31.0240  -23.3760   20.7120 C   0  0  0  0  0  3  0  0  0  0  0  0
  -30.0970  -26.0220   21.5820 C   0  0  0  0  0  3  0  0  0  0  0  0
  -29.7680  -27.3090   22.2020 O   0  0  0  0  0  0  0  0  0  0  0  0
  -24.6510  -28.1360   27.1880 C   0  0  0  0  0  0  0  0  0  0  0  0
  -28.4930  -27.7610   22.5280 C   0  0  0  0  0  0  0  0  0  0  0  0
  -24.0560  -28.8300   24.8930 C   0  0  0  0  0  3  0  0  0  0  0  0
  -25.9880  -28.9280   23.2220 C   0  0  0  0  0  0  0  0  0  0  0  0
  -26.4960  -28.8710   25.6690 C   0  0  0  0  0  2  0  0  0  0  0  0
  -26.9020  -28.5960   24.2290 C   0  0  0  0  0  0  0  0  0  0  0  0
  -28.1560  -28.0280   23.8840 C   0  0  0  0  0  3  0  0  0  0  0  0
  -27.5580  -28.1230   21.5360 C   0  0  0  0  0  3  0  0  0  0  0  0
  -26.3150  -28.6950   21.8750 C   0  0  0  0  0  3  0  0  0  0  0  0
  -24.6720  -29.5400   23.6570 C   0  0  0  0  0  2  0  0  0  0  0  0
  -25.0700  -28.5730   25.9660 N   0  0  0  0  0  0  0  0  0  0  0  0
  -23.4480  -27.9840   27.4380 O   0  0  0  0  0  0  0  0  0  0  0  0
  -23.3310  -27.5510   24.4150 C   0  0  0  0  0  0  0  0  0  0  0  0
  -22.4000  -27.7080   23.4590 N   0  0  0  0  0  0  0  0  0  0  0  0
  -23.6290  -26.4480   24.8810 O   0  0  0  0  0  0  0  0  0  0  0  0
  -22.2080  -28.6450   23.1350 H   0  0  0  0  0  0  0  0  0  0  0  0
  -19.7930  -27.0280   21.0510 C   0  0  0  0  0  0  0  0  0  0  0  0
  -21.6250  -26.6380   22.8320 C   0  0  0  0  0  3  0  0  0  0  0  0
  -22.4340  -25.9550   21.7040 C   0  0  0  0  0  2  0  0  0  0  0  0
  -22.1720  -26.5630   20.3220 C   0  0  0  0  0  2  0  0  0  0  0  0
  -20.6870  -26.4590   19.9620 C   0  0  0  0  0  2  0  0  0  0  0  0
  -20.2400  -27.1260   22.3960 C   0  0  0  0  0  0  0  0  0  0  0  0
  -19.3830  -27.6960   23.3620 C   0  0  0  0  0  3  0  0  0  0  0  0
  -18.1020  -28.1590   23.0050 C   0  0  0  0  0  3  0  0  0  0  0  0
  -17.6590  -28.0450   21.6760 C   0  0  0  0  0  3  0  0  0  0  0  0
  -18.5020  -27.4780   20.7040 C   0  0  0  0  0  3  0  0  0  0  0  0
  -25.6620  -27.8290   28.3370 C   0  0  0  0  0  3  0  0  0  0  0  0
  -26.1970  -26.3440   28.3150 C   0  0  1  0  0  0  0  0  0  0  0  0
  -25.1370  -25.2960   28.7290 C   0  0  0  0  0  1  0  0  0  0  0  0
  -26.7060  -25.9690   26.9040 C   0  0  0  0  0  1  0  0  0  0  0  0
  -27.4030  -26.2060   29.2720 C   0  0  0  0  0  1  0  0  0  0  0  0
  -24.9880  -28.1170   29.6110 N   0  0  0  0  0  0  0  0  0  0  0  0
  -25.2040  -29.2110   30.3550 C   0  0  0  0  0  0  0  0  0  0  0  0
  -26.0550  -30.0590   30.0680 O   0  0  0  0  0  0  0  0  0  0  0  0
  -24.2410  -27.4940   29.8790 H   0  0  0  0  0  0  0  0  0  0  0  0
  -23.0240  -30.0940   31.2400 C   0  0  0  0  0  1  0  0  0  0  0  0
  -24.3400  -29.3940   31.6160 C   0  0  0  0  0  3  0  0  0  0  0  0
  -26.1400  -29.4310   33.2850 C   0  0  0  0  0  1  0  0  0  0  0  0
  -25.0180  -30.1520   32.6900 N   0  0  0  0  0  0  0  0  0  0  0  0
  -24.3640  -30.3900   33.4300 H   0  0  0  0  0  0  0  0  0  0  0  0
  2  1  1  0
  3  9  1  0
  4 50  1  0
  4  7  1  0
  5  4  2  0
  6  5  1  0
  6  3  2  0
  7  2  1  0
  8  5  1  0
  9  7  2  0
 10 18  1  0
 10 17  2  0
 11 16  1  0
 12 11  1  0
 13 14  1  0
 13 12  1  0
 14 23  1  0
 14 15  1  0
 15 16  1  0
 16 10  1  0
 18  6  1  0
 19 18  1  0
 20 45  1  0
 21 20  2  0
 22 24  2  0
 22 21  1  0
 23 20  1  0
 24 23  1  0
 25 22  1  0
 26 25  1  0
 27 26  2  0
 28 29  2  0
 28 27  1  0
 29 30  1  0
 30 25  2  0
 31 28  1  0
 32 33  1  0
 32 31  1  0
 34 33  2  0
 35 34  1  0
 36 35  2  0
 36 37  1  0
 37 32  2  0
 38 37  1  0
 39 35  1  0
 40 42  2  0
 40 21  1  0
 41 40  1  0
 43 41  1  0
 44 41  1  0
 45 46  1  0
 45 47  1  0
 48 50  1  0
 48 49  1  0
 50 49  1  0
 51 53  1  0
 51 55  1  0
 52 54  1  0
 53 56  1  0
 55  2  1  0
 55 52  1  0
 56 54  1  0
 56 57  1  0
 57 59  1  0
 58 69  2  0
 59 64  1  0
 60 70  1  0
 60 68  1  0
 61 67  1  0
 61 63  1  0
 62 68  1  0
 63 62  1  0
 64 63  2  0
 65 66  1  0
 65 59  2  0
 66 61  2  0
 67 60  1  0
 68 58  1  0
 70 72  2  0
 71 70  1  0
 73 71  1  0
 74 79  1  0
 75 71  1  0
 76 75  1  0
 77 76  1  0
 78 77  1  0
 78 74  1  0
 79 75  1  0
 79 80  2  0
 81 80  1  0
 82 81  2  0
 83 74  2  0
 83 82  1  0
 84 58  1  0
 84 89  1  0
 85 84  1  0
 85 86  1  1
 85 88  1  0
 87 85  1  0
 89 92  1  0
 89 90  1  0
 90 94  1  0
 91 90  2  0
 94 93  1  0
 94 96  1  0
 96 95  1  0
 96 97  1  0
M  ISO  4  10 100  18 100  56 101  57 101
M  END
>  <TORSDO>  (38) 
F 19

>  <SCORE>  (38) 
-5.752

>  <name>  (38) 
38

>  <ligand_id>  (38) 
38

>  <original_smiles>  (38) 
[H]c1nc(C([H])(C([H])([H])[H])C2([H])C([H])([H])C([H])([H])C([H])(Oc3c([H])c([H])c4c(c3[H])C([H])([H])N(C(=O)C([H])(N([H])C(=O)C([H])(N([H])C([H])([H])[H])C([H])([H])[H])C(C([H])([H])[H])(C([H])([H])[H])C([H])([H])[H])C([H])(C(=O)N([H])C3([H])c5c([H])c([H])c([H])c([H])c5C([H])([H])C([H])([H])C3([H])[H])C4([H])[H])C([H])([H])C2([H])[H])c(C2([H])C([H])([H])C2([H])[H])c(C([H])([H])[H])c1N([H])C(=O)N1C([H])([H])C([H])([H])C([H])([H])C([H])(n2nc(-c3c([H])c([H])c(Oc4c([H])c([H])c(F)c([H])c4F)c([H])c3[H])c(C(=O)N([H])[H])c2N([H])[H])C1([H])[H]

>  <smiles>  (38) 
[H]c1nc(C([H])(C([H])([H])[H])C2([H])C([H])([H])C([H])([H])C([H])(Oc3c([H])c([H])c4c(c3[H])C([H])([H])N(C(=O)C([H])(N([H])C(=O)C([H])(N([H])C([H])([H])[H])C([H])([H])[H])C(C([H])([H])[H])(C([H])([H])[H])C([H])([H])[H])C([H])(C(=O)N([H])C3([H])c5c([H])c([H])c([H])c([H])c5C([H])([H])C([H])([H])C3([H])[H])C4([H])[H])C([H])([H])C2([H])[H])c(C2([H])C([H])([H])C2([H])[H])c(C([H])([H])[H])c1N([H])C(=O)N1C([H])([H])C([H])([H])C([H])([H])C([H])(n2nc(-c3c([H])c([H])c(Oc4c([H])c([H])c(F)c([H])c4F)c([H])c3[H])c(C(=O)N([H])[H])c2N([H])[H])C1([H])[H]

$$$$
39:0:0
     RDKit          3D

 93102  0  0  1  0  0  0  0  0999 V2000
  -29.9850  -23.5240   21.1580 C   0  0  0  0  0  3  0  0  0  0  0  0
  -28.7420  -23.9440   20.6360 C   0  0  0  0  0  0  0  0  0  0  0  0
  -30.3870  -22.1640   21.0660 C   0  0  0  0  0  0  0  0  0  0  0  0
  -27.9880  -22.9270   19.9790 C   0  0  0  0  0  0  0  0  0  0  0  0
  -29.5420  -21.2110   20.4520 C   0  0  0  0  0  0  0  0  0  0  0  0
  -31.7020  -21.7210   21.6800 C   0  0  0  0  0  1  0  0  0  0  0  0
  -26.6440  -23.2270   19.3440 C   0  0  0  0  0  1  0  0  0  0  0  0
  -28.3750  -21.6160   19.8920 N   0  0  0  0  0  0  0  0  0  0  0  0
  -28.1600  -25.3500   21.0230 C   0  0  0  0  0  2  0  0  0  0  0  0
  -28.4400  -26.5560   20.2350 O   0  0  0  0  0  0  0  0  0  0  0  0
  -24.6310  -31.8800   23.2300 C   0  0  0  0  0  0  0  0  0  0  0  0
  -27.3500  -27.4220   20.1710 C   0  0  0  0  0  0  0  0  0  0  0  0
  -23.4720  -30.4880   21.5510 C   0  0  0  0  0  3  0  0  0  0  0  0
  -24.9680  -28.9770   20.1340 C   0  0  0  0  0  0  0  0  0  0  0  0
  -26.0080  -30.8490   21.4160 C   0  0  0  0  0  2  0  0  0  0  0  0
  -26.1180  -29.4820   20.7580 C   0  0  0  0  0  0  0  0  0  0  0  0
  -27.3170  -28.7140   20.7710 C   0  0  0  0  0  3  0  0  0  0  0  0
  -26.1890  -26.9660   19.5180 C   0  0  0  0  0  3  0  0  0  0  0  0
  -25.0030  -27.7220   19.5050 C   0  0  0  0  0  3  0  0  0  0  0  0
  -23.7190  -29.8310   20.1680 C   0  0  0  0  0  2  0  0  0  0  0  0
  -24.7210  -31.0880   22.1240 N   0  0  0  0  0  0  0  0  0  0  0  0
  -23.5350  -32.1390   23.7490 O   0  0  0  0  0  0  0  0  0  0  0  0
  -22.8050  -29.4520   22.4860 C   0  0  0  0  0  0  0  0  0  0  0  0
  -21.4830  -29.2640   22.3330 N   0  0  0  0  0  0  0  0  0  0  0  0
  -23.4760  -28.8210   23.3080 O   0  0  0  0  0  0  0  0  0  0  0  0
  -21.0020  -29.8260   21.6440 H   0  0  0  0  0  0  0  0  0  0  0  0
  -18.1100  -28.0320   22.7550 C   0  0  0  0  0  0  0  0  0  0  0  0
  -20.6590  -28.3120   23.0790 C   0  0  0  0  0  3  0  0  0  0  0  0
  -20.7850  -26.8870   22.4910 C   0  0  0  0  0  2  0  0  0  0  0  0
  -19.7070  -26.5650   21.4530 C   0  0  0  0  0  2  0  0  0  0  0  0
  -18.3120  -26.6920   22.0700 C   0  0  0  0  0  2  0  0  0  0  0  0
  -19.2120  -28.8000   23.2140 C   0  0  0  0  0  0  0  0  0  0  0  0
  -18.9700  -30.0560   23.8130 C   0  0  0  0  0  3  0  0  0  0  0  0
  -17.6570  -30.5440   23.9570 C   0  0  0  0  0  3  0  0  0  0  0  0
  -16.5680  -29.7730   23.5130 C   0  0  0  0  0  3  0  0  0  0  0  0
  -16.7960  -28.5190   22.9190 C   0  0  0  0  0  3  0  0  0  0  0  0
  -25.8960  -32.5170   23.8830 C   0  0  0  0  0  3  0  0  0  0  0  0
  -25.5740  -33.9140   24.2050 N   0  0  0  0  0  0  0  0  0  0  0  0
  -25.9170  -34.9680   23.4510 C   0  0  0  0  0  0  0  0  0  0  0  0
  -26.6100  -34.8660   22.4350 O   0  0  0  0  0  0  0  0  0  0  0  0
  -24.9630  -34.0680   24.9940 H   0  0  0  0  0  0  0  0  0  0  0  0
  -24.1860  -36.7510   23.0610 C   0  0  0  0  0  1  0  0  0  0  0  0
  -25.4130  -36.3540   23.8970 C   0  0  0  0  0  3  0  0  0  0  0  0
  -27.5250  -37.2540   24.7690 C   0  0  0  0  0  1  0  0  0  0  0  0
  -26.4420  -37.4140   23.8020 N   0  0  0  0  0  0  0  0  0  0  0  0
  -26.0270  -38.3320   23.9390 H   0  0  0  0  0  0  0  0  0  0  0  0
  -26.3850  -31.7480   25.1720 C   0  0  1  0  0  0  0  0  0  0  0  0
  -25.2660  -31.5020   26.2110 C   0  0  0  0  0  1  0  0  0  0  0  0
  -26.9870  -30.3750   24.7930 C   0  0  0  0  0  1  0  0  0  0  0  0
  -27.5120  -32.5500   25.8640 C   0  0  0  0  0  1  0  0  0  0  0  0
  -29.9180  -19.8520   20.4350 O   0  0  0  0  0  0  0  0  0  0  0  0
  -30.7970  -14.6640   19.9760 C   0  0  0  0  0  0  0  0  0  0  0  0
  -30.4630  -12.4370   18.9420 C   0  0  0  0  0  2  0  0  0  0  0  0
  -29.4650  -12.5690   17.7740 C   0  0  0  0  0  2  0  0  0  0  0  0
  -28.0190  -12.4210   18.2820 C   0  0  0  0  0  2  0  0  0  0  0  0
  -27.7260  -13.2950   19.5320 C   0  0  0  0  0  3  0  0  0  0  0  0
  -28.8420  -13.1740   20.5910 C   0  0  0  0  0  2  0  0  0  0  0  0
  -30.1130  -13.4800   19.9270 N   0  0  0  0  0  0  0  0  0  0  0  0
  -31.9640  -14.7330   19.5740 O   0  0  0  0  0  0  0  0  0  0  0  0
  -29.1350  -17.9420   18.9870 C   0  0  0  0  0  2  0  0  0  0  0  0
  -29.0390  -17.7220   21.4740 C   0  0  0  0  0  2  0  0  0  0  0  0
  -30.2260  -16.8290   19.0130 C   0  0  0  0  0  2  0  0  0  0  0  0
  -30.1080  -16.5830   21.3700 C   0  0  0  0  0  2  0  0  0  0  0  0
  -28.9740  -18.7460   20.3000 C   0  0  0  0  0  3  0  0  0  0  0  0
  -30.0660  -15.8270   20.0990 N   0  0  0  0  0  0  0  0  0  0  0  0
  -25.3830  -13.8880   20.3990 C   0  0  0  0  0  0  0  0  0  0  0  0
  -24.3340  -13.1130   20.8120 C   0  0  0  0  0  0  0  0  0  0  0  0
  -24.7870  -11.7600   20.7320 C   0  0  0  0  0  0  0  0  0  0  0  0
  -26.4080  -13.0080   20.0900 N   0  0  0  0  0  0  0  0  0  0  0  0
  -26.0580  -11.7230   20.3530 N   0  0  0  0  0  0  0  0  0  0  0  0
  -24.0640  -10.4980   20.9380 C   0  0  0  0  0  0  0  0  0  0  0  0
  -24.5070   -9.5370   21.8740 C   0  0  0  0  0  3  0  0  0  0  0  0
  -23.7840   -8.3410   22.0680 C   0  0  0  0  0  3  0  0  0  0  0  0
  -22.6040   -8.0950   21.3260 C   0  0  0  0  0  0  0  0  0  0  0  0
  -22.1820   -9.0430   20.3780 C   0  0  0  0  0  3  0  0  0  0  0  0
  -22.9050  -10.2310   20.1820 C   0  0  0  0  0  3  0  0  0  0  0  0
  -21.8520   -6.9500   21.4290 O   0  0  0  0  0  0  0  0  0  0  0  0
  -21.7630   -6.2510   22.6060 C   0  0  0  0  0  0  0  0  0  0  0  0
  -21.2850   -6.8460   23.7930 C   0  0  0  0  0  3  0  0  0  0  0  0
  -21.1440   -6.0730   24.9630 C   0  0  0  0  0  3  0  0  0  0  0  0
  -21.4740   -4.7050   24.9460 C   0  0  0  0  0  0  0  0  0  0  0  0
  -21.9470   -4.1090   23.7630 C   0  0  0  0  0  3  0  0  0  0  0  0
  -22.0880   -4.8800   22.5960 C   0  0  0  0  0  0  0  0  0  0  0  0
  -22.5230   -4.2960   21.4540 F   0  0  0  0  0  0  0  0  0  0  0  0
  -21.3330   -3.9600   26.0660 F   0  0  0  0  0  0  0  0  0  0  0  0
  -22.9570  -13.5910   21.1700 C   0  0  0  0  0  0  0  0  0  0  0  0
  -22.2740  -12.8830   22.0630 N   0  0  0  0  0  0  0  0  0  0  0  0
  -22.4960  -14.6270   20.6930 O   0  0  0  0  0  0  0  0  0  0  0  0
  -22.6620  -12.0440   22.4690 H   0  0  0  0  0  0  0  0  0  0  0  0
  -21.3540  -13.1850   22.3450 H   0  0  0  0  0  0  0  0  0  0  0  0
  -25.5460  -15.2610   20.2360 N   0  0  0  0  0  0  0  0  0  0  0  0
  -24.7930  -15.9220   20.3940 H   0  0  0  0  0  0  0  0  0  0  0  0
  -26.3880  -15.6960   19.8810 H   0  0  0  0  0  0  0  0  0  0  0  0
  2  9  1  0
  2  1  1  0
  3  1  2  0
  3  6  1  0
  4  2  2  0
  5  3  1  0
  7  4  1  0
  8  4  1  0
  8  5  2  0
 10  9  1  0
 11 22  2  0
 12 10  1  0
 12 17  1  0
 13 21  1  0
 13 23  1  0
 14 20  1  0
 14 16  1  0
 15 21  1  0
 16 17  2  0
 16 15  1  0
 18 12  2  0
 19 18  1  0
 19 14  2  0
 20 13  1  0
 21 11  1  0
 23 25  2  0
 24 23  1  0
 26 24  1  0
 27 36  2  0
 27 32  1  0
 28 24  1  0
 28 32  1  0
 29 28  1  0
 30 31  1  0
 30 29  1  0
 31 27  1  0
 32 33  2  0
 33 34  1  0
 35 34  2  0
 36 35  1  0
 37 11  1  0
 37 38  1  0
 37 47  1  0
 38 41  1  0
 39 43  1  0
 39 38  1  0
 40 39  2  0
 43 42  1  0
 45 43  1  0
 45 46  1  0
 45 44  1  0
 47 50  1  1
 47 48  1  0
 49 47  1  0
 51  5  1  0
 52 65  1  0
 53 58  1  0
 54 55  1  0
 54 53  1  0
 56 55  1  0
 56 69  1  0
 56 57  1  0
 58 52  1  0
 58 57  1  0
 59 52  2  0
 60 62  1  0
 60 64  1  0
 62 65  1  0
 63 61  1  0
 64 51  1  0
 64 61  1  0
 65 63  1  0
 66 67  2  0
 67 86  1  0
 68 67  1  0
 68 71  1  0
 69 70  1  0
 69 66  1  0
 70 68  2  0
 71 72  1  0
 72 73  2  0
 74 77  1  0
 74 73  1  0
 75 74  2  0
 76 75  1  0
 76 71  2  0
 77 78  1  0
 78 79  1  0
 79 80  2  0
 81 80  1  0
 81 85  1  0
 82 81  2  0
 83 78  2  0
 83 82  1  0
 84 83  1  0
 86 87  1  0
 87 90  1  0
 87 89  1  0
 88 86  2  0
 91 92  1  0
 91 66  1  0
 93 91  1  0
M  ISO  4   9 101  10 101  52 100  65 100
M  END
>  <TORSDO>  (39) 
F 18

>  <SCORE>  (39) 
-14.353

>  <name>  (39) 
39

>  <ligand_id>  (39) 
39

>  <original_smiles>  (39) 
[H]c1c([H])c([H])c2c(c1[H])C([H])([H])C([H])([H])C([H])([H])C2([H])N([H])C(=O)C1([H])N(C(=O)C([H])(N([H])C(=O)C([H])(N([H])C([H])([H])[H])C([H])([H])[H])C(C([H])([H])[H])(C([H])([H])[H])C([H])([H])[H])C([H])([H])c2c([H])c(OC([H])([H])c3c(C([H])([H])[H])nc(OC4([H])C([H])([H])C([H])([H])N(C(=O)N5C([H])([H])C([H])([H])C([H])([H])C([H])(n6nc(-c7c([H])c([H])c(Oc8c([H])c([H])c(F)c([H])c8F)c([H])c7[H])c(C(=O)N([H])[H])c6N([H])[H])C5([H])[H])C([H])([H])C4([H])[H])c(C([H])([H])[H])c3[H])c([H])c([H])c2C1([H])[H]

>  <smiles>  (39) 
[H]c1c([H])c([H])c2c(c1[H])C([H])([H])C([H])([H])C([H])([H])C2([H])N([H])C(=O)C1([H])N(C(=O)C([H])(N([H])C(=O)C([H])(N([H])C([H])([H])[H])C([H])([H])[H])C(C([H])([H])[H])(C([H])([H])[H])C([H])([H])[H])C([H])([H])c2c([H])c(OC([H])([H])c3c(C([H])([H])[H])nc(OC4([H])C([H])([H])C([H])([H])N(C(=O)N5C([H])([H])C([H])([H])C([H])([H])C([H])(n6nc(-c7c([H])c([H])c(Oc8c([H])c([H])c(F)c([H])c8F)c([H])c7[H])c(C(=O)N([H])[H])c6N([H])[H])C5([H])[H])C([H])([H])C4([H])[H])c(C([H])([H])[H])c3[H])c([H])c([H])c2C1([H])[H]

$$$$
40:0:0
     RDKit          3D

 95104  0  0  1  0  0  0  0  0999 V2000
  -28.5870  -20.6920   20.8260 O   0  0  0  0  0  0  0  0  0  0  0  0
  -29.6100  -19.6570   18.8630 C   0  0  0  0  0  3  0  0  0  0  0  0
  -29.3890  -18.3460   20.9030 C   0  0  0  0  0  3  0  0  0  0  0  0
  -30.0560  -18.5060   18.1870 C   0  0  0  0  0  0  0  0  0  0  0  0
  -30.2600  -17.2820   18.8940 C   0  0  0  0  0  0  0  0  0  0  0  0
  -29.9760  -17.1780   20.3000 C   0  0  0  0  0  0  0  0  0  0  0  0
  -29.2090  -19.5950   20.2120 C   0  0  0  0  0  0  0  0  0  0  0  0
  -30.2360  -18.6150   16.6650 C   0  0  0  0  0  1  0  0  0  0  0  0
  -30.9160  -14.8290   21.0010 C   0  0  0  0  0  0  0  0  0  0  0  0
  -30.8350  -12.4790   20.1730 C   0  0  0  0  0  2  0  0  0  0  0  0
  -30.0360  -12.4220   18.8500 C   0  0  0  0  0  2  0  0  0  0  0  0
  -28.5140  -12.4130   19.1000 C   0  0  0  0  0  2  0  0  0  0  0  0
  -28.0380  -13.3810   20.2150 C   0  0  0  0  0  3  0  0  0  0  0  0
  -28.9570  -13.3080   21.4540 C   0  0  0  0  0  2  0  0  0  0  0  0
  -30.3190  -13.5950   20.9920 N   0  0  0  0  0  0  0  0  0  0  0  0
  -32.1290  -14.9470   20.8070 O   0  0  0  0  0  0  0  0  0  0  0  0
  -30.0650  -15.9150   21.0660 N   0  0  0  0  0  0  0  0  0  0  0  0
  -29.2120  -15.6810   21.5520 H   0  0  0  0  0  0  0  0  0  0  0  0
  -25.5970  -14.0590   20.6410 C   0  0  0  0  0  0  0  0  0  0  0  0
  -24.4780  -13.3130   20.9110 C   0  0  0  0  0  0  0  0  0  0  0  0
  -24.9150  -11.9560   20.9780 C   0  0  0  0  0  0  0  0  0  0  0  0
  -26.6400  -13.1500   20.5580 N   0  0  0  0  0  0  0  0  0  0  0  0
  -26.2290  -11.8850   20.8300 N   0  0  0  0  0  0  0  0  0  0  0  0
  -24.1490  -10.7100   21.1200 C   0  0  0  0  0  0  0  0  0  0  0  0
  -24.5050   -9.7280   22.0710 C   0  0  0  0  0  3  0  0  0  0  0  0
  -23.7380   -8.5500   22.2060 C   0  0  0  0  0  3  0  0  0  0  0  0
  -22.6070   -8.3440   21.3830 C   0  0  0  0  0  0  0  0  0  0  0  0
  -22.2720   -9.3130   20.4220 C   0  0  0  0  0  3  0  0  0  0  0  0
  -23.0370  -10.4830   20.2870 C   0  0  0  0  0  3  0  0  0  0  0  0
  -21.8240   -7.2150   21.4200 O   0  0  0  0  0  0  0  0  0  0  0  0
  -21.7230   -6.4470   22.5520 C   0  0  0  0  0  0  0  0  0  0  0  0
  -21.2720   -6.9840   23.7770 C   0  0  0  0  0  3  0  0  0  0  0  0
  -21.1180   -6.1470   24.9000 C   0  0  0  0  0  3  0  0  0  0  0  0
  -21.4000   -4.7710   24.7970 C   0  0  0  0  0  0  0  0  0  0  0  0
  -21.8400   -4.2340   23.5760 C   0  0  0  0  0  3  0  0  0  0  0  0
  -21.9970   -5.0690   22.4550 C   0  0  0  0  0  0  0  0  0  0  0  0
  -22.4030   -4.5420   21.2750 F   0  0  0  0  0  0  0  0  0  0  0  0
  -21.2430   -3.9640   25.8720 F   0  0  0  0  0  0  0  0  0  0  0  0
  -23.0720  -13.8200   21.0030 C   0  0  0  0  0  0  0  0  0  0  0  0
  -22.2450  -13.1760   21.8220 N   0  0  0  0  0  0  0  0  0  0  0  0
  -22.7050  -14.8170   20.3870 O   0  0  0  0  0  0  0  0  0  0  0  0
  -22.5520  -12.3670   22.3420 H   0  0  0  0  0  0  0  0  0  0  0  0
  -21.2920  -13.4990   21.9260 H   0  0  0  0  0  0  0  0  0  0  0  0
  -25.8010  -15.4210   20.4380 N   0  0  0  0  0  0  0  0  0  0  0  0
  -25.0260  -16.0740   20.4180 H   0  0  0  0  0  0  0  0  0  0  0  0
  -26.6790  -15.8400   20.1540 H   0  0  0  0  0  0  0  0  0  0  0  0
  -32.2700  -16.0930   17.9000 C   0  0  0  0  0  1  0  0  0  0  0  0
  -30.7420  -16.0910   18.0860 C   0  0  0  0  0  2  0  0  0  0  0  0
  -28.1590  -24.1910   19.0730 C   0  0  0  0  0  2  0  0  0  0  0  0
  -29.0600  -24.4860   21.3730 C   0  0  0  0  0  2  0  0  0  0  0  0
  -27.7590  -22.7160   19.4200 C   0  0  0  0  0  2  0  0  0  0  0  0
  -28.7680  -22.9800   21.6470 C   0  0  0  0  0  2  0  0  0  0  0  0
  -28.0930  -25.1120   20.3350 C   0  0  0  0  0  3  0  0  0  0  0  0
  -28.8010  -22.0740   20.3890 C   0  0  0  0  0  3  0  0  0  0  0  0
  -28.3250  -26.5630   20.1670 O   0  0  0  0  0  0  0  0  0  0  0  0
  -24.5800  -31.9090   23.2680 C   0  0  0  0  0  0  0  0  0  0  0  0
  -27.2020  -27.3990   20.1620 C   0  0  0  0  0  0  0  0  0  0  0  0
  -23.3800  -30.5050   21.6310 C   0  0  0  0  0  3  0  0  0  0  0  0
  -24.8290  -28.9790   20.1910 C   0  0  0  0  0  0  0  0  0  0  0  0
  -25.9120  -30.8500   21.4300 C   0  0  0  0  0  2  0  0  0  0  0  0
  -26.0000  -29.4780   20.7790 C   0  0  0  0  0  0  0  0  0  0  0  0
  -27.1960  -28.7000   20.7520 C   0  0  0  0  0  3  0  0  0  0  0  0
  -26.0030  -26.9500   19.5660 C   0  0  0  0  0  3  0  0  0  0  0  0
  -24.8320  -27.7210   19.5750 C   0  0  0  0  0  3  0  0  0  0  0  0
  -23.5890  -29.8410   20.2470 C   0  0  0  0  0  2  0  0  0  0  0  0
  -24.6450  -31.1020   22.1690 N   0  0  0  0  0  0  0  0  0  0  0  0
  -23.4960  -32.1770   23.8080 O   0  0  0  0  0  0  0  0  0  0  0  0
  -22.7300  -29.4810   22.5900 C   0  0  0  0  0  0  0  0  0  0  0  0
  -21.4050  -29.2960   22.4680 N   0  0  0  0  0  0  0  0  0  0  0  0
  -23.4150  -28.8590   23.4060 O   0  0  0  0  0  0  0  0  0  0  0  0
  -20.9100  -29.8510   21.7850 H   0  0  0  0  0  0  0  0  0  0  0  0
  -18.0380  -28.0670   22.9660 C   0  0  0  0  0  0  0  0  0  0  0  0
  -20.5930  -28.3530   23.2410 C   0  0  0  0  0  3  0  0  0  0  0  0
  -20.7120  -26.9190   22.6700 C   0  0  0  0  0  2  0  0  0  0  0  0
  -19.6130  -26.5830   21.6580 C   0  0  0  0  0  2  0  0  0  0  0  0
  -18.2280  -26.7150   22.3000 C   0  0  0  0  0  2  0  0  0  0  0  0
  -19.1470  -28.8440   23.3940 C   0  0  0  0  0  0  0  0  0  0  0  0
  -18.9120  -30.1070   23.9780 C   0  0  0  0  0  3  0  0  0  0  0  0
  -17.6010  -30.5910   24.1450 C   0  0  0  0  0  3  0  0  0  0  0  0
  -16.5080  -29.8120   23.7290 C   0  0  0  0  0  3  0  0  0  0  0  0
  -16.7270  -28.5540   23.1440 C   0  0  0  0  0  3  0  0  0  0  0  0
  -25.8560  -32.5530   23.8860 C   0  0  0  0  0  3  0  0  0  0  0  0
  -26.3690  -31.8020   25.1760 C   0  0  1  0  0  0  0  0  0  0  0  0
  -25.2750  -31.5660   26.2440 C   0  0  0  0  0  1  0  0  0  0  0  0
  -26.9580  -30.4240   24.8020 C   0  0  0  0  0  1  0  0  0  0  0  0
  -27.5200  -32.6050   25.8260 C   0  0  0  0  0  1  0  0  0  0  0  0
  -25.5390  -33.9570   24.1940 N   0  0  0  0  0  0  0  0  0  0  0  0
  -25.8880  -35.0030   23.4320 C   0  0  0  0  0  0  0  0  0  0  0  0
  -26.5770  -34.8890   22.4130 O   0  0  0  0  0  0  0  0  0  0  0  0
  -24.9300  -34.1190   24.9840 H   0  0  0  0  0  0  0  0  0  0  0  0
  -24.1740  -36.8010   23.0270 C   0  0  0  0  0  1  0  0  0  0  0  0
  -25.3970  -36.3970   23.8660 C   0  0  0  0  0  3  0  0  0  0  0  0
  -27.5150  -37.2840   24.7340 C   0  0  0  0  0  1  0  0  0  0  0  0
  -26.4350  -37.4470   23.7650 N   0  0  0  0  0  0  0  0  0  0  0  0
  -26.0280  -38.3670   23.9020 H   0  0  0  0  0  0  0  0  0  0  0  0
  2  7  1  0
  4  2  2  0
  4  5  1  0
  5  6  2  0
  6  3  1  0
  6 17  1  0
  7  1  1  0
  7  3  2  0
  8  4  1  0
  9 17  1  0
 10 15  1  0
 11 12  1  0
 11 10  1  0
 13 12  1  0
 13 22  1  0
 13 14  1  0
 15  9  1  0
 15 14  1  0
 16  9  2  0
 17 18  1  0
 19 20  2  0
 20 21  1  0
 20 39  1  0
 21 24  1  0
 22 19  1  0
 22 23  1  0
 23 21  2  0
 24 25  1  0
 25 26  2  0
 27 30  1  0
 27 26  1  0
 28 27  2  0
 29 28  1  0
 29 24  2  0
 30 31  1  0
 31 32  1  0
 32 33  2  0
 34 33  1  0
 34 38  1  0
 35 34  2  0
 36 31  2  0
 36 35  1  0
 37 36  1  0
 39 40  1  0
 40 43  1  0
 40 42  1  0
 41 39  2  0
 44 19  1  0
 45 44  1  0
 46 44  1  0
 47 48  1  0
 48  5  1  0
 49 51  1  0
 49 53  1  0
 50 52  1  0
 51 54  1  0
 53 55  1  0
 53 50  1  0
 54  1  1  0
 54 52  1  0
 56 67  2  0
 57 55  1  0
 57 62  1  0
 58 66  1  0
 58 68  1  0
 59 65  1  0
 59 61  1  0
 60 66  1  0
 61 60  1  0
 62 61  2  0
 63 64  1  0
 63 57  2  0
 64 59  2  0
 65 58  1  0
 66 56  1  0
 68 70  2  0
 69 68  1  0
 71 69  1  0
 72 81  2  0
 72 77  1  0
 73 69  1  0
 73 77  1  0
 74 73  1  0
 75 76  1  0
 75 74  1  0
 76 72  1  0
 77 78  2  0
 78 79  1  0
 80 79  2  0
 81 80  1  0
 82 56  1  0
 82 87  1  0
 82 83  1  0
 83 86  1  1
 83 84  1  0
 85 83  1  0
 87 90  1  0
 88 92  1  0
 88 87  1  0
 89 88  2  0
 92 91  1  0
 94 92  1  0
 94 95  1  0
 94 93  1  0
M  ISO  4   9 100  17 100  53 101  55 101
M  END
>  <TORSDO>  (40) 
F 19

>  <SCORE>  (40) 
-13.860

>  <name>  (40) 
40

>  <ligand_id>  (40) 
40

>  <original_smiles>  (40) 
[H]c1c([H])c([H])c2c(c1[H])C([H])([H])C([H])([H])C([H])([H])C2([H])N([H])C(=O)C1([H])N(C(=O)C([H])(N([H])C(=O)C([H])(N([H])C([H])([H])[H])C([H])([H])[H])C(C([H])([H])[H])(C([H])([H])[H])C([H])([H])[H])C([H])([H])c2c([H])c(OC3([H])C([H])([H])C([H])([H])C([H])(Oc4c([H])c(N([H])C(=O)N5C([H])([H])C([H])([H])C([H])([H])C([H])(n6nc(-c7c([H])c([H])c(Oc8c([H])c([H])c(F)c([H])c8F)c([H])c7[H])c(C(=O)N([H])[H])c6N([H])[H])C5([H])[H])c(C([H])([H])C([H])([H])[H])c(C([H])([H])[H])c4[H])C([H])([H])C3([H])[H])c([H])c([H])c2C1([H])[H]

>  <smiles>  (40) 
[H]c1c([H])c([H])c2c(c1[H])C([H])([H])C([H])([H])C([H])([H])C2([H])N([H])C(=O)C1([H])N(C(=O)C([H])(N([H])C(=O)C([H])(N([H])C([H])([H])[H])C([H])([H])[H])C(C([H])([H])[H])(C([H])([H])[H])C([H])([H])[H])C([H])([H])c2c([H])c(OC3([H])C([H])([H])C([H])([H])C([H])(Oc4c([H])c(N([H])C(=O)N5C([H])([H])C([H])([H])C([H])([H])C([H])(n6nc(-c7c([H])c([H])c(Oc8c([H])c([H])c(F)c([H])c8F)c([H])c7[H])c(C(=O)N([H])[H])c6N([H])[H])C5([H])[H])c(C([H])([H])C([H])([H])[H])c(C([H])([H])[H])c4[H])C([H])([H])C3([H])[H])c([H])c([H])c2C1([H])[H]

$$$$
41:0:0
     RDKit          3D

 96105  0  0  1  0  0  0  0  0999 V2000
  -29.0690  -19.3240   19.9330 C   0  0  0  0  0  3  0  0  0  0  0  0
  -30.0160  -20.1680   19.3050 C   0  0  0  0  0  0  0  0  0  0  0  0
  -29.2540  -17.9070   20.0920 C   0  0  0  0  0  0  0  0  0  0  0  0
  -30.3800  -17.2280   19.5120 C   0  0  0  0  0  0  0  0  0  0  0  0
  -31.1630  -19.4340   18.8740 C   0  0  0  0  0  0  0  0  0  0  0  0
  -31.2990  -18.0520   18.9250 N   0  0  0  0  0  0  0  0  0  0  0  0
  -31.1650  -14.6950   19.0080 C   0  0  0  0  0  0  0  0  0  0  0  0
  -30.7960  -12.4320   17.9820 C   0  0  0  0  0  2  0  0  0  0  0  0
  -29.5950  -12.5260   17.0110 C   0  0  0  0  0  2  0  0  0  0  0  0
  -28.2650  -12.3130   17.7620 C   0  0  0  0  0  2  0  0  0  0  0  0
  -28.1760  -13.1550   19.0620 C   0  0  0  0  0  3  0  0  0  0  0  0
  -29.4650  -13.0310   19.9070 C   0  0  0  0  0  2  0  0  0  0  0  0
  -30.5940  -13.4390   19.0540 N   0  0  0  0  0  0  0  0  0  0  0  0
  -32.2150  -14.8590   18.3710 O   0  0  0  0  0  0  0  0  0  0  0  0
  -30.4470  -15.7350   19.5940 N   0  0  0  0  0  0  0  0  0  0  0  0
  -29.7040  -15.3570   20.1560 H   0  0  0  0  0  0  0  0  0  0  0  0
  -26.1220  -13.6970   20.4970 C   0  0  0  0  0  0  0  0  0  0  0  0
  -25.1180  -12.9150   20.9990 C   0  0  0  0  0  0  0  0  0  0  0  0
  -25.4220  -11.5770   20.6020 C   0  0  0  0  0  0  0  0  0  0  0  0
  -26.9800  -12.8360   19.8350 N   0  0  0  0  0  0  0  0  0  0  0  0
  -26.5810  -11.5440   19.9550 N   0  0  0  0  0  0  0  0  0  0  0  0
  -24.6500  -10.3380   20.7530 C   0  0  0  0  0  0  0  0  0  0  0  0
  -25.0990   -9.2890   21.5830 C   0  0  0  0  0  3  0  0  0  0  0  0
  -24.3270   -8.1150   21.7270 C   0  0  0  0  0  3  0  0  0  0  0  0
  -23.0980   -7.9840   21.0390 C   0  0  0  0  0  0  0  0  0  0  0  0
  -22.6680   -9.0240   20.1980 C   0  0  0  0  0  3  0  0  0  0  0  0
  -23.4380  -10.1890   20.0510 C   0  0  0  0  0  3  0  0  0  0  0  0
  -22.2950   -6.8690   21.0980 O   0  0  0  0  0  0  0  0  0  0  0  0
  -22.0610   -6.2110   22.2780 C   0  0  0  0  0  0  0  0  0  0  0  0
  -21.4920   -6.8620   23.3950 C   0  0  0  0  0  3  0  0  0  0  0  0
  -21.2030   -6.1300   24.5640 C   0  0  0  0  0  3  0  0  0  0  0  0
  -21.4790   -4.7500   24.6180 C   0  0  0  0  0  0  0  0  0  0  0  0
  -22.0410   -4.1010   23.5070 C   0  0  0  0  0  3  0  0  0  0  0  0
  -22.3310   -4.8290   22.3400 C   0  0  0  0  0  0  0  0  0  0  0  0
  -22.8540   -4.1930   21.2630 F   0  0  0  0  0  0  0  0  0  0  0  0
  -21.1970   -4.0450   25.7390 F   0  0  0  0  0  0  0  0  0  0  0  0
  -23.8920  -13.3940   21.7210 C   0  0  0  0  0  0  0  0  0  0  0  0
  -23.3690  -12.5910   22.6380 N   0  0  0  0  0  0  0  0  0  0  0  0
  -23.4200  -14.5120   21.5080 O   0  0  0  0  0  0  0  0  0  0  0  0
  -23.7710  -11.6850   22.8290 H   0  0  0  0  0  0  0  0  0  0  0  0
  -22.5540  -12.8830   23.1580 H   0  0  0  0  0  0  0  0  0  0  0  0
  -26.3600  -15.0670   20.5210 N   0  0  0  0  0  0  0  0  0  0  0  0
  -25.7010  -15.7060   20.9520 H   0  0  0  0  0  0  0  0  0  0  0  0
  -27.0610  -15.5410   19.9680 H   0  0  0  0  0  0  0  0  0  0  0  0
  -28.9200  -22.4060   20.3740 C   0  0  0  0  0  2  0  0  0  0  0  0
  -29.5130  -22.5100   17.9380 C   0  0  0  0  0  2  0  0  0  0  0  0
  -28.8330  -23.9880   20.5060 C   0  0  0  0  0  2  0  0  0  0  0  0
  -28.8260  -23.9640   17.9890 C   0  0  0  0  0  2  0  0  0  0  0  0
  -29.8710  -21.7830   19.2940 C   0  0  0  0  0  3  0  0  0  0  0  0
  -29.1330  -24.8520   19.2400 C   0  0  0  0  0  3  0  0  0  0  0  0
  -28.9010  -26.3490   19.3190 O   0  0  0  0  0  0  0  0  0  0  0  0
  -24.9810  -31.4020   22.7910 C   0  0  0  0  0  0  0  0  0  0  0  0
  -27.7000  -27.0930   19.4010 C   0  0  0  0  0  0  0  0  0  0  0  0
  -23.8040  -30.0970   21.0550 C   0  0  0  0  0  3  0  0  0  0  0  0
  -25.2820  -28.6630   19.5240 C   0  0  0  0  0  0  0  0  0  0  0  0
  -26.3360  -30.4690   20.8900 C   0  0  0  0  0  2  0  0  0  0  0  0
  -26.4440  -29.1340   20.1490 C   0  0  0  0  0  0  0  0  0  0  0  0
  -27.6470  -28.3640   20.0720 C   0  0  0  0  0  3  0  0  0  0  0  0
  -26.5090  -26.6690   18.7760 C   0  0  0  0  0  3  0  0  0  0  0  0
  -25.3190  -27.4350   18.8310 C   0  0  0  0  0  3  0  0  0  0  0  0
  -24.0300  -29.5120   19.6330 C   0  0  0  0  0  2  0  0  0  0  0  0
  -25.0600  -30.6720   21.6370 N   0  0  0  0  0  0  0  0  0  0  0  0
  -23.8920  -31.6180   23.3440 O   0  0  0  0  0  0  0  0  0  0  0  0
  -23.1590  -29.0070   21.9470 C   0  0  0  0  0  0  0  0  0  0  0  0
  -21.8330  -28.8310   21.8310 N   0  0  0  0  0  0  0  0  0  0  0  0
  -23.8560  -28.3250   22.7010 O   0  0  0  0  0  0  0  0  0  0  0  0
  -21.3210  -29.4430   21.2110 H   0  0  0  0  0  0  0  0  0  0  0  0
  -18.4650  -27.6250   22.3700 C   0  0  0  0  0  0  0  0  0  0  0  0
  -21.0380  -27.8230   22.5360 C   0  0  0  0  0  3  0  0  0  0  0  0
  -21.0860  -26.4610   21.8030 C   0  0  0  0  0  2  0  0  0  0  0  0
  -19.9310  -26.2650   20.8160 C   0  0  0  0  0  2  0  0  0  0  0  0
  -18.5840  -26.3580   21.5390 C   0  0  0  0  0  2  0  0  0  0  0  0
  -19.6170  -28.3220   22.8240 C   0  0  0  0  0  0  0  0  0  0  0  0
  -19.4510  -29.5160   23.5580 C   0  0  0  0  0  3  0  0  0  0  0  0
  -18.1640  -30.0110   23.8460 C   0  0  0  0  0  3  0  0  0  0  0  0
  -17.0270  -29.3100   23.4060 C   0  0  0  0  0  3  0  0  0  0  0  0
  -17.1780  -28.1200   22.6720 C   0  0  0  0  0  3  0  0  0  0  0  0
  -26.2500  -32.0190   23.4580 C   0  0  0  0  0  3  0  0  0  0  0  0
  -26.8500  -31.1160   24.6040 C   0  0  1  0  0  0  0  0  0  0  0  0
  -25.8040  -30.6530   25.6440 C   0  0  0  0  0  1  0  0  0  0  0  0
  -27.5180  -29.8580   24.0050 C   0  0  0  0  0  1  0  0  0  0  0  0
  -27.9580  -31.8890   25.3570 C   0  0  0  0  0  1  0  0  0  0  0  0
  -25.8830  -33.3420   23.9900 N   0  0  0  0  0  0  0  0  0  0  0  0
  -26.0970  -34.5030   23.3570 C   0  0  0  0  0  0  0  0  0  0  0  0
  -26.6880  -34.5800   22.2770 O   0  0  0  0  0  0  0  0  0  0  0  0
  -25.3610  -33.3560   24.8520 H   0  0  0  0  0  0  0  0  0  0  0  0
  -24.2290  -36.1880   23.3830 C   0  0  0  0  0  1  0  0  0  0  0  0
  -25.5640  -35.7830   24.0300 C   0  0  0  0  0  3  0  0  0  0  0  0
  -27.7010  -36.7280   24.7910 C   0  0  0  0  0  1  0  0  0  0  0  0
  -26.5080  -36.9210   23.9690 N   0  0  0  0  0  0  0  0  0  0  0  0
  -26.0550  -37.7770   24.2720 H   0  0  0  0  0  0  0  0  0  0  0  0
  -26.7940  -17.5120   20.7640 C   0  0  0  0  0  1  0  0  0  0  0  0
  -28.6520  -17.4870   22.4800 C   0  0  0  0  0  1  0  0  0  0  0  0
  -28.2760  -17.1710   21.0190 C   0  0  0  0  0  3  0  0  0  0  0  0
  -33.5330  -19.5100   18.5940 C   0  0  0  0  0  1  0  0  0  0  0  0
  -32.2620  -20.1420   18.4370 O   0  0  0  0  0  0  0  0  0  0  0  0
  1  3  1  0
  2  1  2  0
  3 94  1  0
  4 15  1  0
  4  3  2  0
  5  6  2  0
  5  2  1  0
  6  4  1  0
  7 13  1  0
  7 15  1  0
  8 13  1  0
  9 10  1  0
  9  8  1  0
 11 10  1  0
 11 20  1  0
 11 12  1  0
 13 12  1  0
 14  7  2  0
 15 16  1  0
 17 42  1  0
 17 18  2  0
 18 37  1  0
 19 22  1  0
 19 18  1  0
 20 21  1  0
 20 17  1  0
 21 19  2  0
 22 23  1  0
 23 24  2  0
 25 28  1  0
 25 24  1  0
 26 25  2  0
 27 26  1  0
 27 22  2  0
 28 29  1  0
 29 34  2  0
 29 30  1  0
 30 31  2  0
 31 32  1  0
 32 36  1  0
 33 32  2  0
 34 33  1  0
 35 34  1  0
 37 38  1  0
 38 40  1  0
 38 41  1  0
 39 37  2  0
 42 43  1  0
 44 42  1  0
 45 47  1  0
 46 48  1  0
 46 49  1  0
 48 50  1  0
 49  2  1  0
 49 45  1  0
 50 51  1  0
 50 47  1  0
 51 53  1  0
 52 63  2  0
 53 58  1  0
 54 62  1  0
 54 64  1  0
 55 61  1  0
 55 57  1  0
 56 62  1  0
 57 56  1  0
 58 57  2  0
 59 60  1  0
 59 53  2  0
 60 55  2  0
 61 54  1  0
 62 52  1  0
 64 66  2  0
 65 64  1  0
 67 65  1  0
 68 77  2  0
 68 73  1  0
 69 65  1  0
 69 73  1  0
 70 69  1  0
 71 72  1  0
 71 70  1  0
 72 68  1  0
 73 74  2  0
 74 75  1  0
 76 75  2  0
 77 76  1  0
 78 52  1  0
 78 83  1  0
 78 79  1  0
 79 82  1  1
 79 80  1  0
 81 79  1  0
 83 86  1  0
 84 83  1  0
 84 88  1  0
 85 84  2  0
 88 87  1  0
 90 88  1  0
 90 91  1  0
 90 89  1  0
 92 94  1  0
 94 93  1  0
 96 95  1  0
 96  5  1  0
M  ISO  4   7 100  15 100  50 101  51 101
M  END
>  <TORSDO>  (41) 
F 19

>  <SCORE>  (41) 
-4.545

>  <name>  (41) 
41

>  <ligand_id>  (41) 
41

>  <original_smiles>  (41) 
[H]c1c([H])c([H])c2c(c1[H])C([H])([H])C([H])([H])C([H])([H])C2([H])N([H])C(=O)C1([H])N(C(=O)C([H])(N([H])C(=O)C([H])(N([H])C([H])([H])[H])C([H])([H])[H])C(C([H])([H])[H])(C([H])([H])[H])C([H])([H])[H])C([H])([H])c2c([H])c(OC3([H])C([H])([H])C([H])([H])C([H])(c4c(OC([H])([H])[H])nc(N([H])C(=O)N5C([H])([H])C([H])([H])C([H])([H])C([H])(n6nc(-c7c([H])c([H])c(Oc8c([H])c([H])c(F)c([H])c8F)c([H])c7[H])c(C(=O)N([H])[H])c6N([H])[H])C5([H])[H])c(C([H])(C([H])([H])[H])C([H])([H])[H])c4[H])C([H])([H])C3([H])[H])c([H])c([H])c2C1([H])[H]

>  <smiles>  (41) 
[H]c1c([H])c([H])c2c(c1[H])C([H])([H])C([H])([H])C([H])([H])C2([H])N([H])C(=O)C1([H])N(C(=O)C([H])(N([H])C(=O)C([H])(N([H])C([H])([H])[H])C([H])([H])[H])C(C([H])([H])[H])(C([H])([H])[H])C([H])([H])[H])C([H])([H])c2c([H])c(OC3([H])C([H])([H])C([H])([H])C([H])(c4c(OC([H])([H])[H])nc(N([H])C(=O)N5C([H])([H])C([H])([H])C([H])([H])C([H])(n6nc(-c7c([H])c([H])c(Oc8c([H])c([H])c(F)c([H])c8F)c([H])c7[H])c(C(=O)N([H])[H])c6N([H])[H])C5([H])[H])c(C([H])(C([H])([H])[H])C([H])([H])[H])c4[H])C([H])([H])C3([H])[H])c([H])c([H])c2C1([H])[H]

$$$$
42:0:0
     RDKit          3D

 96105  0  0  1  0  0  0  0  0999 V2000
  -28.8650  -22.1140   17.4230 C   0  0  0  0  0  3  0  0  0  0  0  0
  -30.5130  -20.9260   18.7190 C   0  0  0  0  0  3  0  0  0  0  0  0
  -28.8360  -22.2900   19.8370 C   0  0  0  0  0  0  0  0  0  0  0  0
  -28.1350  -22.3790   18.6030 C   0  0  0  0  0  0  0  0  0  0  0  0
  -30.1430  -21.5120   17.4970 C   0  0  0  0  0  0  0  0  0  0  0  0
  -29.7570  -21.1430   19.8890 C   0  0  0  0  0  0  0  0  0  0  0  0
  -25.6730  -21.5790   18.7470 C   0  0  0  0  0  2  0  0  0  0  0  0
  -25.7650  -22.2200   17.3870 C   0  0  0  0  0  2  0  0  0  0  0  0
  -26.6580  -22.6980   18.5140 C   0  0  0  0  0  3  0  0  0  0  0  0
  -30.7660  -22.1450   15.2810 C   0  0  0  0  0  1  0  0  0  0  0  0
  -30.9810  -21.3270   16.4230 O   0  0  0  0  0  0  0  0  0  0  0  0
  -29.0270  -23.6930   20.5450 C   0  0  0  0  0  0  0  0  0  0  0  0
  -29.8540  -23.8590   21.4460 O   0  0  0  0  0  0  0  0  0  0  0  0
  -28.1360  -24.9590   20.0840 C   0  0  0  0  0  2  0  0  0  0  0  0
  -28.4140  -26.3870   20.4680 O   0  0  0  0  0  0  0  0  0  0  0  0
  -24.6190  -31.8890   23.2900 C   0  0  0  0  0  0  0  0  0  0  0  0
  -27.3390  -27.3050   20.3240 C   0  0  0  0  0  0  0  0  0  0  0  0
  -23.4750  -30.4880   21.6160 C   0  0  0  0  0  3  0  0  0  0  0  0
  -24.9750  -28.9540   20.2260 C   0  0  0  0  0  0  0  0  0  0  0  0
  -26.0200  -30.8100   21.5120 C   0  0  0  0  0  2  0  0  0  0  0  0
  -26.1270  -29.4320   20.8630 C   0  0  0  0  0  0  0  0  0  0  0  0
  -27.3080  -28.6200   20.9050 C   0  0  0  0  0  3  0  0  0  0  0  0
  -26.1640  -26.9180   19.6290 C   0  0  0  0  0  3  0  0  0  0  0  0
  -25.0010  -27.7040   19.5970 C   0  0  0  0  0  3  0  0  0  0  0  0
  -23.7330  -29.8240   20.2420 C   0  0  0  0  0  2  0  0  0  0  0  0
  -24.7220  -31.0820   22.1960 N   0  0  0  0  0  0  0  0  0  0  0  0
  -23.5170  -32.1660   23.7860 O   0  0  0  0  0  0  0  0  0  0  0  0
  -22.7830  -29.4660   22.5510 C   0  0  0  0  0  0  0  0  0  0  0  0
  -21.4660  -29.2730   22.3740 N   0  0  0  0  0  0  0  0  0  0  0  0
  -23.4350  -28.8490   23.3980 O   0  0  0  0  0  0  0  0  0  0  0  0
  -20.9930  -29.8160   21.6650 H   0  0  0  0  0  0  0  0  0  0  0  0
  -18.0880  -28.0310   22.7610 C   0  0  0  0  0  0  0  0  0  0  0  0
  -20.6320  -28.3260   23.1180 C   0  0  0  0  0  3  0  0  0  0  0  0
  -20.7720  -26.8930   22.5530 C   0  0  0  0  0  2  0  0  0  0  0  0
  -19.7140  -26.5550   21.5000 C   0  0  0  0  0  2  0  0  0  0  0  0
  -18.3080  -26.6840   22.0940 C   0  0  0  0  0  2  0  0  0  0  0  0
  -19.1810  -28.8080   23.2260 C   0  0  0  0  0  0  0  0  0  0  0  0
  -18.9250  -30.0700   23.8070 C   0  0  0  0  0  3  0  0  0  0  0  0
  -17.6090  -30.5560   23.9230 C   0  0  0  0  0  3  0  0  0  0  0  0
  -16.5310  -29.7770   23.4700 C   0  0  0  0  0  3  0  0  0  0  0  0
  -16.7710  -28.5150   22.8990 C   0  0  0  0  0  3  0  0  0  0  0  0
  -25.8790  -32.5230   23.9540 C   0  0  0  0  0  3  0  0  0  0  0  0
  -25.5620  -33.9310   24.2490 N   0  0  0  0  0  0  0  0  0  0  0  0
  -25.9040  -34.9700   23.4720 C   0  0  0  0  0  0  0  0  0  0  0  0
  -26.5900  -34.8450   22.4550 O   0  0  0  0  0  0  0  0  0  0  0  0
  -24.9520  -34.1040   25.0350 H   0  0  0  0  0  0  0  0  0  0  0  0
  -24.1720  -36.7470   23.0700 C   0  0  0  0  0  1  0  0  0  0  0  0
  -25.4090  -36.3660   23.8980 C   0  0  0  0  0  3  0  0  0  0  0  0
  -27.5310  -37.2830   24.7230 C   0  0  0  0  0  1  0  0  0  0  0  0
  -26.4390  -37.4180   23.7640 N   0  0  0  0  0  0  0  0  0  0  0  0
  -26.0290  -38.3420   23.8800 H   0  0  0  0  0  0  0  0  0  0  0  0
  -26.3430  -31.7720   25.2630 C   0  0  1  0  0  0  0  0  0  0  0  0
  -25.2100  -31.5570   26.2900 C   0  0  0  0  0  1  0  0  0  0  0  0
  -26.9400  -30.3870   24.9200 C   0  0  0  0  0  1  0  0  0  0  0  0
  -27.4670  -32.5770   25.9580 C   0  0  0  0  0  1  0  0  0  0  0  0
  -29.8490  -20.1170   20.8720 O   0  0  0  0  0  0  0  0  0  0  0  0
  -29.5590  -18.6800   20.4940 C   0  0  0  0  0  3  0  0  0  0  0  0
  -30.5200  -17.4310   20.9120 C   0  0  0  0  0  3  0  0  0  0  0  0
  -30.8250  -14.8340   20.4360 C   0  0  0  0  0  0  0  0  0  0  0  0
  -30.6150  -12.5910   19.3440 C   0  0  0  0  0  2  0  0  0  0  0  0
  -29.6730  -12.6820   18.1260 C   0  0  0  0  0  2  0  0  0  0  0  0
  -28.2060  -12.4920   18.5510 C   0  0  0  0  0  2  0  0  0  0  0  0
  -27.8310  -13.3590   19.7850 C   0  0  0  0  0  3  0  0  0  0  0  0
  -28.8890  -13.2490   20.9040 C   0  0  0  0  0  2  0  0  0  0  0  0
  -30.1830  -13.6200   20.3180 N   0  0  0  0  0  0  0  0  0  0  0  0
  -32.0170  -14.9300   20.1360 O   0  0  0  0  0  0  0  0  0  0  0  0
  -30.0770  -15.9740   20.6920 N   0  0  0  0  0  0  0  0  0  0  0  0
  -29.0870  -15.8090   20.7960 H   0  0  0  0  0  0  0  0  0  0  0  0
  -25.4380  -13.9480   20.4930 C   0  0  0  0  0  0  0  0  0  0  0  0
  -24.3680  -13.1710   20.8490 C   0  0  0  0  0  0  0  0  0  0  0  0
  -24.8330  -11.8190   20.8170 C   0  0  0  0  0  0  0  0  0  0  0  0
  -26.4830  -13.0670   20.2620 N   0  0  0  0  0  0  0  0  0  0  0  0
  -26.1270  -11.7830   20.5210 N   0  0  0  0  0  0  0  0  0  0  0  0
  -24.1070  -10.5540   20.9940 C   0  0  0  0  0  0  0  0  0  0  0  0
  -24.5200   -9.5930   21.9430 C   0  0  0  0  0  3  0  0  0  0  0  0
  -23.7930   -8.3940   22.1070 C   0  0  0  0  0  3  0  0  0  0  0  0
  -22.6400   -8.1480   21.3250 C   0  0  0  0  0  0  0  0  0  0  0  0
  -22.2470   -9.1000   20.3680 C   0  0  0  0  0  3  0  0  0  0  0  0
  -22.9740  -10.2900   20.1990 C   0  0  0  0  0  3  0  0  0  0  0  0
  -21.8860   -7.0020   21.3960 O   0  0  0  0  0  0  0  0  0  0  0  0
  -21.7980   -6.2740   22.5560 C   0  0  0  0  0  0  0  0  0  0  0  0
  -21.2920   -6.8320   23.7510 C   0  0  0  0  0  3  0  0  0  0  0  0
  -21.1520   -6.0280   24.9000 C   0  0  0  0  0  3  0  0  0  0  0  0
  -21.5080   -4.6660   24.8540 C   0  0  0  0  0  0  0  0  0  0  0  0
  -22.0080   -4.1070   23.6640 C   0  0  0  0  0  3  0  0  0  0  0  0
  -22.1480   -4.9100   22.5180 C   0  0  0  0  0  0  0  0  0  0  0  0
  -22.6090   -4.3620   21.3670 F   0  0  0  0  0  0  0  0  0  0  0  0
  -21.3690   -3.8890   25.9550 F   0  0  0  0  0  0  0  0  0  0  0  0
  -22.9690  -13.6450   21.1050 C   0  0  0  0  0  0  0  0  0  0  0  0
  -22.2300  -12.9410   21.9570 N   0  0  0  0  0  0  0  0  0  0  0  0
  -22.5380  -14.6740   20.5900 O   0  0  0  0  0  0  0  0  0  0  0  0
  -22.5920  -12.1050   22.3900 H   0  0  0  0  0  0  0  0  0  0  0  0
  -21.2900  -13.2430   22.1730 H   0  0  0  0  0  0  0  0  0  0  0  0
  -25.6040  -15.3190   20.3200 N   0  0  0  0  0  0  0  0  0  0  0  0
  -24.8370  -15.9750   20.4280 H   0  0  0  0  0  0  0  0  0  0  0  0
  -26.4510  -15.7490   19.9690 H   0  0  0  0  0  0  0  0  0  0  0  0
  1  5  2  0
  1  4  1  0
  2  6  2  0
  3  6  1  0
  3 12  1  0
  4  3  2  0
  5  2  1  0
  6 56  1  0
  8  9  1  0
  8  7  1  0
  9  4  1  0
  9  7  1  0
 10 11  1  0
 11  5  1  0
 12 13  2  0
 14 15  1  0
 14 12  1  0
 16 27  2  0
 17 15  1  0
 17 22  1  0
 18 26  1  0
 18 28  1  0
 19 25  1  0
 19 21  1  0
 20 26  1  0
 21 22  2  0
 21 20  1  0
 23 17  2  0
 24 23  1  0
 24 19  2  0
 25 18  1  0
 26 16  1  0
 28 30  2  0
 29 28  1  0
 31 29  1  0
 32 41  2  0
 32 37  1  0
 33 29  1  0
 33 37  1  0
 34 33  1  0
 35 36  1  0
 35 34  1  0
 36 32  1  0
 37 38  2  0
 38 39  1  0
 40 39  2  0
 41 40  1  0
 42 16  1  0
 42 43  1  0
 42 52  1  0
 43 46  1  0
 44 48  1  0
 44 43  1  0
 45 44  2  0
 48 47  1  0
 50 51  1  0
 50 48  1  0
 50 49  1  0
 52 55  1  1
 52 53  1  0
 54 52  1  0
 57 56  1  0
 57 58  2  0
 59 67  1  0
 60 65  1  0
 61 62  1  0
 61 60  1  0
 63 62  1  0
 63 72  1  0
 63 64  1  0
 65 59  1  0
 65 64  1  0
 66 59  2  0
 67 68  1  0
 67 58  1  0
 69 70  2  0
 70 89  1  0
 71 70  1  0
 71 74  1  0
 72 69  1  0
 72 73  1  0
 73 71  2  0
 74 75  1  0
 75 76  2  0
 77 80  1  0
 77 76  1  0
 78 77  2  0
 79 78  1  0
 79 74  2  0
 80 81  1  0
 81 82  1  0
 82 83  2  0
 84 83  1  0
 84 88  1  0
 85 84  2  0
 86 81  2  0
 86 85  1  0
 87 86  1  0
 89 90  1  0
 90 93  1  0
 90 92  1  0
 91 89  2  0
 94 95  1  0
 94 69  1  0
 96 94  1  0
M  ISO  4  14 101  15 101  59 100  67 100
M  END
>  <TORSDO>  (42) 
F 23

>  <SCORE>  (42) 
-12.744

>  <name>  (42) 
42

>  <ligand_id>  (42) 
42

>  <original_smiles>  (42) 
[H]c1c([H])c([H])c2c(c1[H])C([H])([H])C([H])([H])C([H])([H])C2([H])N([H])C(=O)C1([H])N(C(=O)C([H])(N([H])C(=O)C([H])(N([H])C([H])([H])[H])C([H])([H])[H])C(C([H])([H])[H])(C([H])([H])[H])C([H])([H])[H])C([H])([H])c2c([H])c(OC([H])([H])C(=O)c3c(OC([H])([H])C([H])([H])N([H])C(=O)N4C([H])([H])C([H])([H])C([H])([H])C([H])(n5nc(-c6c([H])c([H])c(Oc7c([H])c([H])c(F)c([H])c7F)c([H])c6[H])c(C(=O)N([H])[H])c5N([H])[H])C4([H])[H])c([H])c(OC([H])([H])[H])c([H])c3C3([H])C([H])([H])C3([H])[H])c([H])c([H])c2C1([H])[H]

>  <smiles>  (42) 
[H]c1c([H])c([H])c2c(c1[H])C([H])([H])C([H])([H])C([H])([H])C2([H])N([H])C(=O)C1([H])N(C(=O)C([H])(N([H])C(=O)C([H])(N([H])C([H])([H])[H])C([H])([H])[H])C(C([H])([H])[H])(C([H])([H])[H])C([H])([H])[H])C([H])([H])c2c([H])c(OC([H])([H])C(=O)c3c(OC([H])([H])C([H])([H])N([H])C(=O)N4C([H])([H])C([H])([H])C([H])([H])C([H])(n5nc(-c6c([H])c([H])c(Oc7c([H])c([H])c(F)c([H])c7F)c([H])c6[H])c(C(=O)N([H])[H])c5N([H])[H])C4([H])[H])c([H])c(OC([H])([H])[H])c([H])c3C3([H])C([H])([H])C3([H])[H])c([H])c([H])c2C1([H])[H]

$$$$
43:0:0
     RDKit          3D

102111  0  0  1  0  0  0  0  0999 V2000
  -31.3810  -21.3850   20.4730 C   0  0  0  0  0  2  0  0  0  0  0  0
  -29.0720  -21.5010   19.3670 C   0  0  0  0  0  2  0  0  0  0  0  0
  -31.9420  -21.7730   19.0890 C   0  0  0  0  0  2  0  0  0  0  0  0
  -29.6820  -22.8370   18.8990 C   0  0  0  0  0  2  0  0  0  0  0  0
  -29.9500  -20.8090   20.4330 C   0  0  0  0  0  3  0  0  0  0  0  0
  -31.0040  -22.5960   18.2640 N   0  0  1  0  0  4  0  0  0  0  0  0
  -30.7730  -22.0140   17.4710 H   0  0  0  0  0  0  0  0  0  0  0  0
  -28.9620  -18.6080   19.5910 C   0  0  0  0  0  3  0  0  0  0  0  0
  -29.9570  -19.2690   20.3530 C   0  0  0  0  0  0  0  0  0  0  0  0
  -30.9680  -18.4980   20.9850 C   0  0  0  0  0  0  0  0  0  0  0  0
  -31.0360  -17.1000   20.7420 C   0  0  0  0  0  0  0  0  0  0  0  0
  -30.0370  -16.4580   19.9640 C   0  0  0  0  0  0  0  0  0  0  0  0
  -28.9700  -17.2020   19.4140 C   0  0  0  0  0  0  0  0  0  0  0  0
  -31.9420  -19.1640   21.9600 C   0  0  0  0  0  1  0  0  0  0  0  0
  -32.1870  -16.2810   21.3290 C   0  0  0  0  0  1  0  0  0  0  0  0
  -30.3010  -14.1320   19.0050 C   0  0  0  0  0  0  0  0  0  0  0  0
  -30.3540  -11.6600   18.8310 C   0  0  0  0  0  2  0  0  0  0  0  0
  -29.3310  -11.0630   17.8480 C   0  0  0  0  0  2  0  0  0  0  0  0
  -27.9530  -10.8960   18.5130 C   0  0  0  0  0  2  0  0  0  0  0  0
  -27.4840  -12.1920   19.2200 C   0  0  0  0  0  3  0  0  0  0  0  0
  -28.5900  -12.7090   20.1570 C   0  0  0  0  0  2  0  0  0  0  0  0
  -29.8230  -12.9160   19.3680 N   0  0  0  0  0  0  0  0  0  0  0  0
  -31.0850  -14.3190   18.0670 O   0  0  0  0  0  0  0  0  0  0  0  0
  -30.0260  -15.0400   19.9540 N   0  0  0  0  0  0  0  0  0  0  0  0
  -29.6170  -14.6270   20.7760 H   0  0  0  0  0  0  0  0  0  0  0  0
  -25.3470  -12.9260   20.4580 C   0  0  0  0  0  0  0  0  0  0  0  0
  -24.3010  -12.2120   20.9760 C   0  0  0  0  0  0  0  0  0  0  0  0
  -24.6070  -10.8360   20.7370 C   0  0  0  0  0  0  0  0  0  0  0  0
  -26.2300  -11.9890   19.9410 N   0  0  0  0  0  0  0  0  0  0  0  0
  -25.7960  -10.7220   20.1610 N   0  0  0  0  0  0  0  0  0  0  0  0
  -23.8110   -9.6250   20.9680 C   0  0  0  0  0  0  0  0  0  0  0  0
  -24.0920   -8.7510   22.0420 C   0  0  0  0  0  3  0  0  0  0  0  0
  -23.3020   -7.6010   22.2530 C   0  0  0  0  0  3  0  0  0  0  0  0
  -22.2190   -7.3160   21.3890 C   0  0  0  0  0  0  0  0  0  0  0  0
  -21.9570   -8.1770   20.3090 C   0  0  0  0  0  3  0  0  0  0  0  0
  -22.7470   -9.3180   20.0970 C   0  0  0  0  0  3  0  0  0  0  0  0
  -21.4120   -6.2080   21.5020 O   0  0  0  0  0  0  0  0  0  0  0  0
  -20.7740   -5.8990   22.6770 C   0  0  0  0  0  0  0  0  0  0  0  0
  -19.8600   -6.7880   23.2830 C   0  0  0  0  0  3  0  0  0  0  0  0
  -19.1730   -6.4040   24.4520 C   0  0  0  0  0  3  0  0  0  0  0  0
  -19.3900   -5.1290   25.0090 C   0  0  0  0  0  0  0  0  0  0  0  0
  -20.2970   -4.2400   24.4030 C   0  0  0  0  0  3  0  0  0  0  0  0
  -20.9830   -4.6250   23.2380 C   0  0  0  0  0  0  0  0  0  0  0  0
  -21.8390   -3.7570   22.6470 F   0  0  0  0  0  0  0  0  0  0  0  0
  -18.7260   -4.7550   26.1270 F   0  0  0  0  0  0  0  0  0  0  0  0
  -23.0420  -12.7690   21.5710 C   0  0  0  0  0  0  0  0  0  0  0  0
  -22.4480  -12.0590   22.5260 N   0  0  0  0  0  0  0  0  0  0  0  0
  -22.6010  -13.8660   21.2290 O   0  0  0  0  0  0  0  0  0  0  0  0
  -22.8200  -11.1690   22.8220 H   0  0  0  0  0  0  0  0  0  0  0  0
  -21.6110  -12.4120   22.9680 H   0  0  0  0  0  0  0  0  0  0  0  0
  -25.6160  -14.2900   20.3690 N   0  0  0  0  0  0  0  0  0  0  0  0
  -24.9690  -14.9960   20.7020 H   0  0  0  0  0  0  0  0  0  0  0  0
  -26.4410  -14.6810   19.9300 H   0  0  0  0  0  0  0  0  0  0  0  0
  -26.7730  -17.1930   18.4170 C   0  0  0  0  0  1  0  0  0  0  0  0
  -27.9690  -16.5080   18.7630 O   0  0  0  0  0  0  0  0  0  0  0  0
  -31.6250  -23.8130   17.6700 C   0  0  0  0  0  2  0  0  0  0  0  0
  -32.0170  -24.2620   15.1710 C   0  0  0  0  0  1  0  0  0  0  0  0
  -30.9880  -24.1920   16.3110 C   0  0  0  0  0  3  0  0  0  0  0  0
  -30.3560  -25.4650   16.4440 O   0  0  0  0  0  0  0  0  0  0  0  0
  -29.2700  -25.6700   15.5400 C   0  0  0  0  0  2  0  0  0  0  0  0
  -28.5640  -27.0000   15.8410 C   0  0  0  0  0  2  0  0  0  0  0  0
  -27.2470  -26.9830   15.2840 O   0  0  0  0  0  0  0  0  0  0  0  0
  -25.0400  -28.2910   21.9350 C   0  0  0  0  0  0  0  0  0  0  0  0
  -26.2210  -27.3070   16.1410 C   0  0  0  0  0  0  0  0  0  0  0  0
  -23.2580  -27.9200   20.2530 C   0  0  0  0  0  3  0  0  0  0  0  0
  -24.0270  -27.9040   17.8190 C   0  0  0  0  0  0  0  0  0  0  0  0
  -25.5180  -28.8930   19.5670 C   0  0  0  0  0  2  0  0  0  0  0  0
  -25.3290  -28.2200   18.2250 C   0  0  0  0  0  0  0  0  0  0  0  0
  -26.4290  -27.9160   17.3990 C   0  0  0  0  0  3  0  0  0  0  0  0
  -24.9060  -27.0090   15.7320 C   0  0  0  0  0  3  0  0  0  0  0  0
  -23.8090  -27.2860   16.5720 C   0  0  0  0  0  3  0  0  0  0  0  0
  -22.9110  -28.2590   18.7760 C   0  0  0  0  0  2  0  0  0  0  0  0
  -24.6440  -28.3520   20.6320 N   0  0  0  0  0  0  0  0  0  0  0  0
  -24.2600  -27.9310   22.8270 O   0  0  0  0  0  0  0  0  0  0  0  0
  -23.0000  -26.4150   20.4860 C   0  0  0  0  0  0  0  0  0  0  0  0
  -21.7740  -25.9610   20.1750 N   0  0  0  0  0  0  0  0  0  0  0  0
  -23.8940  -25.6740   20.9060 O   0  0  0  0  0  0  0  0  0  0  0  0
  -21.0860  -26.6280   19.8530 H   0  0  0  0  0  0  0  0  0  0  0  0
  -19.1860  -23.6730   19.1430 C   0  0  0  0  0  0  0  0  0  0  0  0
  -21.3250  -24.5750   20.2780 C   0  0  0  0  0  3  0  0  0  0  0  0
  -22.1030  -23.6630   19.3020 C   0  0  0  0  0  2  0  0  0  0  0  0
  -21.4070  -23.4960   17.9470 C   0  0  0  0  0  2  0  0  0  0  0  0
  -20.0110  -22.8950   18.1320 C   0  0  0  0  0  2  0  0  0  0  0  0
  -19.8010  -24.4720   20.1420 C   0  0  0  0  0  0  0  0  0  0  0  0
  -18.9850  -25.2040   21.0300 C   0  0  0  0  0  3  0  0  0  0  0  0
  -17.5820  -25.1370   20.9410 C   0  0  0  0  0  3  0  0  0  0  0  0
  -16.9780  -24.3320   19.9610 C   0  0  0  0  0  3  0  0  0  0  0  0
  -17.7790  -23.6000   19.0660 C   0  0  0  0  0  3  0  0  0  0  0  0
  -26.4810  -28.6960   22.3730 C   0  0  0  0  0  3  0  0  0  0  0  0
  -26.3670  -29.8350   23.2930 N   0  0  0  0  0  0  0  0  0  0  0  0
  -26.6740  -31.0980   22.9710 C   0  0  0  0  0  0  0  0  0  0  0  0
  -27.1600  -31.4140   21.8810 O   0  0  0  0  0  0  0  0  0  0  0  0
  -25.9280  -29.6580   24.1840 H   0  0  0  0  0  0  0  0  0  0  0  0
  -25.0990  -32.9240   23.6770 C   0  0  0  0  0  1  0  0  0  0  0  0
  -26.3980  -32.1820   24.0270 C   0  0  0  0  0  3  0  0  0  0  0  0
  -28.7020  -32.5810   24.7810 C   0  0  0  0  0  1  0  0  0  0  0  0
  -27.5030  -33.1540   24.1770 N   0  0  0  0  0  0  0  0  0  0  0  0
  -27.2110  -33.9470   24.7420 H   0  0  0  0  0  0  0  0  0  0  0  0
  -27.2850  -27.5140   23.0440 C   0  0  1  0  0  0  0  0  0  0  0  0
  -26.5190  -26.8020   24.1810 C   0  0  0  0  0  1  0  0  0  0  0  0
  -27.6640  -26.4470   21.9870 C   0  0  0  0  0  1  0  0  0  0  0  0
  -28.6100  -28.0540   23.6360 C   0  0  0  0  0  1  0  0  0  0  0  0
  2  5  1  0
  3  1  1  0
  4  2  1  0
  5  9  1  0
  5  1  1  0
  6  4  1  0
  6  3  1  0
  6  7  1  6
  8  9  1  0
  9 10  2  0
 10 14  1  0
 11 10  1  0
 11 15  1  0
 12 11  2  0
 13  8  2  0
 13 12  1  0
 16 22  1  0
 16 24  1  0
 17 22  1  0
 18 19  1  0
 18 17  1  0
 20 19  1  0
 20 29  1  0
 20 21  1  0
 22 21  1  0
 23 16  2  0
 24 12  1  0
 24 25  1  0
 26 27  2  0
 27 46  1  0
 28 31  1  0
 28 27  1  0
 29 30  1  0
 29 26  1  0
 30 28  2  0
 31 32  1  0
 32 33  2  0
 34 37  1  0
 34 33  1  0
 35 34  2  0
 36 35  1  0
 36 31  2  0
 37 38  1  0
 38 43  2  0
 38 39  1  0
 39 40  2  0
 40 41  1  0
 41 45  1  0
 42 41  2  0
 43 42  1  0
 44 43  1  0
 46 47  1  0
 47 49  1  0
 47 50  1  0
 48 46  2  0
 51 26  1  0
 51 52  1  0
 53 51  1  0
 54 55  1  0
 55 13  1  0
 56  6  1  0
 58 57  1  0
 58 59  1  0
 58 56  1  0
 60 61  1  0
 60 59  1  0
 62 61  1  0
 62 64  1  0
 63 74  2  0
 64 69  1  0
 65 75  1  0
 65 73  1  0
 66 68  1  0
 66 72  1  0
 67 73  1  0
 68 67  1  0
 69 68  2  0
 70 64  2  0
 70 71  1  0
 71 66  2  0
 72 65  1  0
 73 63  1  0
 75 77  2  0
 76 75  1  0
 78 76  1  0
 79 84  1  0
 80 76  1  0
 81 80  1  0
 82 83  1  0
 82 81  1  0
 83 79  1  0
 84 80  1  0
 84 85  2  0
 86 85  1  0
 87 86  2  0
 88 79  2  0
 88 87  1  0
 89 63  1  0
 89 99  1  0
 89 90  1  0
 90 93  1  0
 91 90  1  0
 91 95  1  0
 92 91  2  0
 95 94  1  0
 95 97  1  0
 97 98  1  0
 97 96  1  0
 99102  1  1
 99100  1  0
101 99  1  0
M  ISO  4  16 100  24 100  61 101  62 101
M  END
>  <TORSDO>  (43) 
F 23

>  <SCORE>  (43) 
-6.182

>  <name>  (43) 
43

>  <ligand_id>  (43) 
43

>  <original_smiles>  (43) 
[H]c1c([H])c([H])c2c(c1[H])C([H])([H])C([H])([H])C([H])([H])C2([H])N([H])C(=O)C1([H])N(C(=O)C([H])(N([H])C(=O)C([H])(N([H])C([H])([H])[H])C([H])([H])[H])C(C([H])([H])[H])(C([H])([H])[H])C([H])([H])[H])C([H])([H])c2c([H])c(OC([H])([H])C([H])([H])OC([H])(C([H])([H])[H])C([H])([H])[N+]3([H])C([H])([H])C([H])([H])C([H])(c4c([H])c(OC([H])([H])[H])c(N([H])C(=O)N5C([H])([H])C([H])([H])C([H])([H])C([H])(n6nc(-c7c([H])c([H])c(Oc8c([H])c([H])c(F)c([H])c8F)c([H])c7[H])c(C(=O)N([H])[H])c6N([H])[H])C5([H])[H])c(C([H])([H])[H])c4C([H])([H])[H])C([H])([H])C3([H])[H])c([H])c([H])c2C1([H])[H]

>  <smiles>  (43) 
[H]c1c([H])c([H])c2c(c1[H])C([H])([H])C([H])([H])C([H])([H])C2([H])N([H])C(=O)C1([H])N(C(=O)C([H])(N([H])C(=O)C([H])(N([H])C([H])([H])[H])C([H])([H])[H])C(C([H])([H])[H])(C([H])([H])[H])C([H])([H])[H])C([H])([H])c2c([H])c(OC([H])([H])C([H])([H])OC([H])(C([H])([H])[H])C([H])([H])[N+]3([H])C([H])([H])C([H])([H])C([H])(c4c([H])c(OC([H])([H])[H])c(N([H])C(=O)N5C([H])([H])C([H])([H])C([H])([H])C([H])(n6nc(-c7c([H])c([H])c(Oc8c([H])c([H])c(F)c([H])c8F)c([H])c7[H])c(C(=O)N([H])[H])c6N([H])[H])C5([H])[H])c(C([H])([H])[H])c4C([H])([H])[H])C([H])([H])C3([H])[H])c([H])c([H])c2C1([H])[H]

$$$$
44:0:0
     RDKit          3D

 99108  0  0  1  0  0  0  0  0999 V2000
  -28.6130  -20.6070   21.4690 C   0  0  0  0  0  3  0  0  0  0  0  0
  -27.9770  -21.4600   19.2820 C   0  0  0  0  0  3  0  0  0  0  0  0
  -28.7560  -23.0000   21.0240 C   0  0  0  0  0  0  0  0  0  0  0  0
  -28.2550  -20.3760   20.1330 C   0  0  0  0  0  0  0  0  0  0  0  0
  -28.8840  -21.9070   21.9190 C   0  0  0  0  0  0  0  0  0  0  0  0
  -28.1720  -22.7760   19.7470 C   0  0  0  0  0  0  0  0  0  0  0  0
  -29.3080  -22.0630   23.3710 C   0  0  0  0  0  1  0  0  0  0  0  0
  -28.1910  -25.2320   22.1590 C   0  0  0  0  0  2  0  0  0  0  0  0
  -28.9190  -26.5660   22.2680 C   0  0  0  0  0  2  0  0  0  0  0  0
  -29.7830  -25.2980   20.3450 C   0  0  0  0  0  2  0  0  0  0  0  0
  -29.2330  -24.3850   21.4460 C   0  0  0  0  0  3  0  0  0  0  0  0
  -29.7340  -26.7090   20.9510 C   0  0  0  0  0  3  0  0  0  0  0  0
  -29.2910  -27.5860   19.9130 O   0  0  0  0  0  0  0  0  0  0  0  0
  -24.7110  -31.6530   23.4860 C   0  0  0  0  0  0  0  0  0  0  0  0
  -28.0200  -28.0900   19.9960 C   0  0  0  0  0  0  0  0  0  0  0  0
  -23.7390  -30.3010   21.6490 C   0  0  0  0  0  3  0  0  0  0  0  0
  -25.4250  -29.1690   20.1030 C   0  0  0  0  0  0  0  0  0  0  0  0
  -26.1750  -31.0560   21.5670 C   0  0  0  0  0  2  0  0  0  0  0  0
  -26.4730  -29.8010   20.7810 C   0  0  0  0  0  0  0  0  0  0  0  0
  -27.7730  -29.2670   20.7290 C   0  0  0  0  0  3  0  0  0  0  0  0
  -26.9640  -27.4590   19.3100 C   0  0  0  0  0  3  0  0  0  0  0  0
  -25.6590  -27.9910   19.3690 C   0  0  0  0  0  3  0  0  0  0  0  0
  -24.0650  -29.8190   20.2070 C   0  0  0  0  0  2  0  0  0  0  0  0
  -24.8880  -31.0160   22.2930 N   0  0  0  0  0  0  0  0  0  0  0  0
  -23.5970  -31.6950   24.0260 O   0  0  0  0  0  0  0  0  0  0  0  0
  -23.2380  -29.0870   22.4630 C   0  0  0  0  0  0  0  0  0  0  0  0
  -21.9790  -28.6910   22.2240 N   0  0  0  0  0  0  0  0  0  0  0  0
  -23.9790  -28.5090   23.2620 O   0  0  0  0  0  0  0  0  0  0  0  0
  -21.4290  -29.2310   21.5700 H   0  0  0  0  0  0  0  0  0  0  0  0
  -18.9280  -26.7580   22.2210 C   0  0  0  0  0  0  0  0  0  0  0  0
  -21.3090  -27.5450   22.8410 C   0  0  0  0  0  3  0  0  0  0  0  0
  -21.8000  -26.2160   22.2260 C   0  0  0  0  0  2  0  0  0  0  0  0
  -20.9290  -25.7210   21.0660 C   0  0  0  0  0  2  0  0  0  0  0  0
  -19.4860  -25.5190   21.5350 C   0  0  0  0  0  2  0  0  0  0  0  0
  -19.7880  -27.7130   22.8230 C   0  0  0  0  0  0  0  0  0  0  0  0
  -19.2220  -28.8600   23.4210 C   0  0  0  0  0  3  0  0  0  0  0  0
  -17.8300  -29.0580   23.4280 C   0  0  0  0  0  3  0  0  0  0  0  0
  -16.9830  -28.1000   22.8460 C   0  0  0  0  0  3  0  0  0  0  0  0
  -17.5310  -26.9520   22.2490 C   0  0  0  0  0  3  0  0  0  0  0  0
  -25.8860  -32.3780   24.2140 C   0  0  0  0  0  3  0  0  0  0  0  0
  -25.4750  -33.7670   24.4400 N   0  0  0  0  0  0  0  0  0  0  0  0
  -25.8380  -34.8040   23.6720 C   0  0  0  0  0  0  0  0  0  0  0  0
  -26.6260  -34.6950   22.7280 O   0  0  0  0  0  0  0  0  0  0  0  0
  -24.7860  -33.9250   25.1610 H   0  0  0  0  0  0  0  0  0  0  0  0
  -24.0790  -36.4810   23.0330 C   0  0  0  0  0  1  0  0  0  0  0  0
  -25.2330  -36.1800   24.0030 C   0  0  0  0  0  3  0  0  0  0  0  0
  -27.2160  -37.2050   25.0240 C   0  0  0  0  0  1  0  0  0  0  0  0
  -26.2170  -37.2840   23.9600 N   0  0  0  0  0  0  0  0  0  0  0  0
  -25.7520  -38.1850   24.0280 H   0  0  0  0  0  0  0  0  0  0  0  0
  -26.3070  -31.6850   25.5680 C   0  0  1  0  0  0  0  0  0  0  0  0
  -25.1190  -31.4190   26.5220 C   0  0  0  0  0  1  0  0  0  0  0  0
  -27.0040  -30.3310   25.2930 C   0  0  0  0  0  1  0  0  0  0  0  0
  -27.3320  -32.5690   26.3150 C   0  0  0  0  0  1  0  0  0  0  0  0
  -26.3620  -23.8200   18.7470 C   0  0  0  0  0  1  0  0  0  0  0  0
  -27.7710  -23.8230   18.9620 O   0  0  0  0  0  0  0  0  0  0  0  0
  -28.3370  -18.9630   19.6180 C   0  0  0  0  0  2  0  0  0  0  0  0
  -29.7850  -18.6750   19.6230 N   0  0  0  0  0  4  0  0  0  0  0  0
  -30.1880  -18.9840   18.7520 H   0  0  0  0  0  0  0  0  0  0  0  0
  -30.1660  -19.2550   20.3480 H   0  0  0  0  0  0  0  0  0  0  0  0
  -30.1700  -17.2860   19.9010 C   0  0  0  0  0  2  0  0  0  0  0  0
  -31.4350  -17.1710   20.7800 C   0  0  0  0  0  2  0  0  0  0  0  0
  -32.2080  -14.8550   20.3390 C   0  0  0  0  0  0  0  0  0  0  0  0
  -31.8430  -12.6410   19.3240 C   0  0  0  0  0  2  0  0  0  0  0  0
  -30.9300  -12.7850   18.0900 C   0  0  0  0  0  2  0  0  0  0  0  0
  -29.4370  -12.7800   18.4820 C   0  0  0  0  0  2  0  0  0  0  0  0
  -29.1240  -13.7370   19.6590 C   0  0  0  0  0  3  0  0  0  0  0  0
  -30.1310  -13.5130   20.8100 C   0  0  0  0  0  2  0  0  0  0  0  0
  -31.5020  -13.6970   20.2810 N   0  0  0  0  0  0  0  0  0  0  0  0
  -33.2280  -15.0860   19.6830 O   0  0  0  0  0  0  0  0  0  0  0  0
  -31.6400  -15.7690   21.1300 N   0  0  0  0  0  0  0  0  0  0  0  0
  -30.9650  -15.3760   21.7700 H   0  0  0  0  0  0  0  0  0  0  0  0
  -26.7910  -14.5980   20.3610 C   0  0  0  0  0  0  0  0  0  0  0  0
  -25.6500  -13.9350   20.7250 C   0  0  0  0  0  0  0  0  0  0  0  0
  -25.9620  -12.5440   20.6520 C   0  0  0  0  0  0  0  0  0  0  0  0
  -27.7400  -13.6140   20.1130 N   0  0  0  0  0  0  0  0  0  0  0  0
  -27.2390  -12.3750   20.3350 N   0  0  0  0  0  0  0  0  0  0  0  0
  -25.1090  -11.3620   20.8040 C   0  0  0  0  0  0  0  0  0  0  0  0
  -25.4510  -10.3130   21.6880 C   0  0  0  0  0  3  0  0  0  0  0  0
  -24.6050   -9.1930   21.8330 C   0  0  0  0  0  3  0  0  0  0  0  0
  -23.4020   -9.1130   21.0920 C   0  0  0  0  0  0  0  0  0  0  0  0
  -23.0780  -10.1460   20.1970 C   0  0  0  0  0  3  0  0  0  0  0  0
  -23.9240  -11.2580   20.0480 C   0  0  0  0  0  3  0  0  0  0  0  0
  -22.5310   -8.0500   21.1460 O   0  0  0  0  0  0  0  0  0  0  0  0
  -22.3180   -7.3560   22.3060 C   0  0  0  0  0  0  0  0  0  0  0  0
  -21.8370   -7.9870   23.4770 C   0  0  0  0  0  3  0  0  0  0  0  0
  -21.5680   -7.2230   24.6270 C   0  0  0  0  0  3  0  0  0  0  0  0
  -21.7650   -5.8290   24.6110 C   0  0  0  0  0  0  0  0  0  0  0  0
  -22.2380   -5.1990   23.4450 C   0  0  0  0  0  3  0  0  0  0  0  0
  -22.5100   -5.9600   22.2970 C   0  0  0  0  0  0  0  0  0  0  0  0
  -22.9480   -5.3450   21.1700 F   0  0  0  0  0  0  0  0  0  0  0  0
  -21.4950   -5.0920   25.7130 F   0  0  0  0  0  0  0  0  0  0  0  0
  -24.3090  -14.5490   21.0170 C   0  0  0  0  0  0  0  0  0  0  0  0
  -23.5420  -13.9460   21.9170 N   0  0  0  0  0  0  0  0  0  0  0  0
  -23.9590  -15.5990   20.4800 O   0  0  0  0  0  0  0  0  0  0  0  0
  -23.8450  -13.0960   22.3710 H   0  0  0  0  0  0  0  0  0  0  0  0
  -22.6410  -14.3350   22.1600 H   0  0  0  0  0  0  0  0  0  0  0  0
  -27.0880  -15.9470   20.1880 N   0  0  0  0  0  0  0  0  0  0  0  0
  -26.2610  -16.5330   20.1380 H   0  0  0  0  0  0  0  0  0  0  0  0
  -27.7170  -16.1420   19.4210 H   0  0  0  0  0  0  0  0  0  0  0  0
  1  5  1  0
  2  6  2  0
  2  4  1  0
  3  5  2  0
  4  1  2  0
  5  7  1  0
  6  3  1  0
  8  9  1  0
 10 12  1  0
 10 11  1  0
 11  3  1  0
 11  8  1  0
 12 13  1  0
 12  9  1  0
 13 15  1  0
 14 25  2  0
 15 20  1  0
 16 24  1  0
 16 26  1  0
 17 23  1  0
 17 19  1  0
 18 24  1  0
 19 18  1  0
 20 19  2  0
 21 22  1  0
 21 15  2  0
 22 17  2  0
 23 16  1  0
 24 14  1  0
 26 28  2  0
 27 26  1  0
 29 27  1  0
 30 39  2  0
 30 35  1  0
 31 27  1  0
 32 31  1  0
 33 34  1  0
 33 32  1  0
 34 30  1  0
 35 31  1  0
 35 36  2  0
 36 37  1  0
 38 37  2  0
 39 38  1  0
 40 14  1  0
 40 41  1  0
 40 50  1  0
 41 44  1  0
 42 46  1  0
 42 41  1  0
 43 42  2  0
 46 45  1  0
 48 46  1  0
 48 49  1  0
 48 47  1  0
 50 53  1  1
 50 51  1  0
 52 50  1  0
 54 55  1  0
 55  6  1  0
 56 57  1  0
 56  4  1  0
 57 60  1  0
 57 59  1  0
 58 57  1  0
 60 61  1  0
 61 70  1  0
 62 70  1  0
 63 68  1  0
 64 65  1  0
 64 63  1  0
 66 65  1  0
 66 75  1  0
 66 67  1  0
 68 62  1  0
 68 67  1  0
 69 62  2  0
 70 71  1  0
 72 73  2  0
 73 92  1  0
 74 73  1  0
 74 77  1  0
 75 76  1  0
 75 72  1  0
 76 74  2  0
 77 78  1  0
 78 79  2  0
 80 83  1  0
 80 79  1  0
 81 80  2  0
 82 81  1  0
 82 77  2  0
 83 84  1  0
 84 85  1  0
 85 86  2  0
 87 86  1  0
 87 91  1  0
 88 87  2  0
 89 84  2  0
 89 88  1  0
 90 89  1  0
 92 93  1  0
 93 96  1  0
 93 95  1  0
 94 92  2  0
 97 72  1  0
 98 97  1  0
 99 97  1  0
M  ISO  4  12 101  13 101  62 100  70 100
M  END
>  <TORSDO>  (44) 
F 22

>  <SCORE>  (44) 
-9.949

>  <name>  (44) 
44

>  <ligand_id>  (44) 
44

>  <original_smiles>  (44) 
[H]c1c([H])c([H])c2c(c1[H])C([H])([H])C([H])([H])C([H])([H])C2([H])N([H])C(=O)C1([H])N(C(=O)C([H])(N([H])C(=O)C([H])(N([H])C([H])([H])[H])C([H])([H])[H])C(C([H])([H])[H])(C([H])([H])[H])C([H])([H])[H])C([H])([H])c2c([H])c(OC3([H])C([H])([H])C([H])([H])C([H])(c4c(OC([H])([H])[H])c([H])c(C([H])([H])[N+]([H])([H])C([H])([H])C([H])([H])N([H])C(=O)N5C([H])([H])C([H])([H])C([H])([H])C([H])(n6nc(-c7c([H])c([H])c(Oc8c([H])c([H])c(F)c([H])c8F)c([H])c7[H])c(C(=O)N([H])[H])c6N([H])[H])C5([H])[H])c([H])c4C([H])([H])[H])C3([H])[H])c([H])c([H])c2C1([H])[H]

>  <smiles>  (44) 
[H]c1c([H])c([H])c2c(c1[H])C([H])([H])C([H])([H])C([H])([H])C2([H])N([H])C(=O)C1([H])N(C(=O)C([H])(N([H])C(=O)C([H])(N([H])C([H])([H])[H])C([H])([H])[H])C(C([H])([H])[H])(C([H])([H])[H])C([H])([H])[H])C([H])([H])c2c([H])c(OC3([H])C([H])([H])C([H])([H])C([H])(c4c(OC([H])([H])[H])c([H])c(C([H])([H])[N+]([H])([H])C([H])([H])C([H])([H])N([H])C(=O)N5C([H])([H])C([H])([H])C([H])([H])C([H])(n6nc(-c7c([H])c([H])c(Oc8c([H])c([H])c(F)c([H])c8F)c([H])c7[H])c(C(=O)N([H])[H])c6N([H])[H])C5([H])[H])c([H])c4C([H])([H])[H])C3([H])[H])c([H])c([H])c2C1([H])[H]

$$$$
45:0:0
     RDKit          3D

 91 99  0  0  1  0  0  0  0  0999 V2000
  -30.4160  -15.2660   20.3760 C   0  0  0  0  0  0  0  0  0  0  0  0
  -30.4360  -12.8390   19.4740 C   0  0  0  0  0  2  0  0  0  0  0  0
  -29.5230  -12.6630   18.2330 C   0  0  0  0  0  2  0  0  0  0  0  0
  -28.0660  -12.3950   18.6520 C   0  0  0  0  0  2  0  0  0  0  0  0
  -27.6030  -13.3390   19.7890 C   0  0  0  0  0  3  0  0  0  0  0  0
  -28.6410  -13.4490   20.9270 C   0  0  0  0  0  2  0  0  0  0  0  0
  -29.8820  -13.9530   20.3170 N   0  0  0  0  0  0  0  0  0  0  0  0
  -31.6390  -15.3140   20.1770 O   0  0  0  0  0  0  0  0  0  0  0  0
  -30.4960  -19.0080   20.8690 C   0  0  0  0  0  3  0  0  0  0  0  0
  -30.3480  -20.4840   20.8890 C   0  0  0  0  0  0  0  0  0  0  0  0
  -29.1970  -21.2610   20.4060 C   0  0  0  0  0  0  0  0  0  0  0  0
  -29.5160  -18.0610   20.3970 C   0  0  0  0  0  0  0  0  0  0  0  0
  -28.2630  -20.2370   19.9590 C   0  0  0  0  0  0  0  0  0  0  0  0
  -31.5200  -21.2480   21.4850 C   0  0  0  0  0  1  0  0  0  0  0  0
  -28.4120  -18.8200   19.9830 N   0  0  0  0  0  0  0  0  0  0  0  0
  -29.5530  -16.4560   20.4380 N   0  0  0  0  0  0  0  0  0  0  0  0
  -28.6080  -16.1120   20.4570 H   0  0  0  0  0  0  0  0  0  0  0  0
  -25.2100  -13.8810   20.4970 C   0  0  0  0  0  0  0  0  0  0  0  0
  -24.1520  -13.0940   20.8570 C   0  0  0  0  0  0  0  0  0  0  0  0
  -24.6360  -11.7500   20.8460 C   0  0  0  0  0  0  0  0  0  0  0  0
  -26.2680  -13.0160   20.2780 N   0  0  0  0  0  0  0  0  0  0  0  0
  -25.9320  -11.7290   20.5560 N   0  0  0  0  0  0  0  0  0  0  0  0
  -23.9200  -10.4800   21.0330 C   0  0  0  0  0  0  0  0  0  0  0  0
  -24.3470   -9.5240   21.9790 C   0  0  0  0  0  3  0  0  0  0  0  0
  -23.6280   -8.3210   22.1550 C   0  0  0  0  0  3  0  0  0  0  0  0
  -22.4710   -8.0660   21.3830 C   0  0  0  0  0  0  0  0  0  0  0  0
  -22.0640   -9.0120   20.4250 C   0  0  0  0  0  3  0  0  0  0  0  0
  -22.7820  -10.2050   20.2470 C   0  0  0  0  0  3  0  0  0  0  0  0
  -21.7240   -6.9150   21.4670 O   0  0  0  0  0  0  0  0  0  0  0  0
  -21.6620   -6.1810   22.6250 C   0  0  0  0  0  0  0  0  0  0  0  0
  -21.1900   -6.7360   23.8340 C   0  0  0  0  0  3  0  0  0  0  0  0
  -21.0760   -5.9270   24.9830 C   0  0  0  0  0  3  0  0  0  0  0  0
  -21.4250   -4.5640   24.9230 C   0  0  0  0  0  0  0  0  0  0  0  0
  -21.8900   -4.0090   23.7170 C   0  0  0  0  0  3  0  0  0  0  0  0
  -22.0050   -4.8140   22.5710 C   0  0  0  0  0  0  0  0  0  0  0  0
  -22.4330   -4.2700   21.4080 F   0  0  0  0  0  0  0  0  0  0  0  0
  -21.3090   -3.7860   26.0240 F   0  0  0  0  0  0  0  0  0  0  0  0
  -22.7450  -13.5570   21.0950 C   0  0  0  0  0  0  0  0  0  0  0  0
  -22.0110  -12.8670   21.9610 N   0  0  0  0  0  0  0  0  0  0  0  0
  -22.3040  -14.5670   20.5480 O   0  0  0  0  0  0  0  0  0  0  0  0
  -22.3810  -12.0510   22.4260 H   0  0  0  0  0  0  0  0  0  0  0  0
  -21.0650  -13.1590   22.1620 H   0  0  0  0  0  0  0  0  0  0  0  0
  -25.3540  -15.2530   20.3080 N   0  0  0  0  0  0  0  0  0  0  0  0
  -24.5660  -15.8850   20.3930 H   0  0  0  0  0  0  0  0  0  0  0  0
  -26.1750  -15.7020   19.9250 H   0  0  0  0  0  0  0  0  0  0  0  0
  -30.0130  -23.3450   19.0310 C   0  0  0  0  0  1  0  0  0  0  0  0
  -29.1870  -23.0120   20.2860 C   0  0  0  0  0  3  0  0  0  0  0  0
  -28.0150  -24.3450   20.3690 C   0  0  0  0  0  2  0  0  0  0  0  0
  -28.2420  -25.9660   20.3740 O   0  0  0  0  0  0  0  0  0  0  0  0
  -24.6550  -31.9160   23.2690 C   0  0  0  0  0  0  0  0  0  0  0  0
  -27.2120  -27.0330   20.3140 C   0  0  0  0  0  0  0  0  0  0  0  0
  -23.4650  -30.5130   21.6330 C   0  0  0  0  0  3  0  0  0  0  0  0
  -24.9150  -28.8950   20.2370 C   0  0  0  0  0  0  0  0  0  0  0  0
  -26.0300  -30.7220   21.4990 C   0  0  0  0  0  2  0  0  0  0  0  0
  -26.0990  -29.3090   20.8570 C   0  0  0  0  0  0  0  0  0  0  0  0
  -27.2440  -28.4000   20.8690 C   0  0  0  0  0  3  0  0  0  0  0  0
  -25.9970  -26.7570   19.6490 C   0  0  0  0  0  3  0  0  0  0  0  0
  -24.8860  -27.6370   19.6130 C   0  0  0  0  0  3  0  0  0  0  0  0
  -23.6990  -29.8170   20.2650 C   0  0  0  0  0  2  0  0  0  0  0  0
  -24.7380  -31.0770   22.1880 N   0  0  0  0  0  0  0  0  0  0  0  0
  -23.5650  -32.2160   23.7810 O   0  0  0  0  0  0  0  0  0  0  0  0
  -22.7600  -29.5290   22.6020 C   0  0  0  0  0  0  0  0  0  0  0  0
  -21.4300  -29.3690   22.4670 N   0  0  0  0  0  0  0  0  0  0  0  0
  -23.4160  -28.9070   23.4410 O   0  0  0  0  0  0  0  0  0  0  0  0
  -20.9540  -29.9200   21.7670 H   0  0  0  0  0  0  0  0  0  0  0  0
  -18.0370  -28.1840   22.9570 C   0  0  0  0  0  0  0  0  0  0  0  0
  -20.5960  -28.4420   23.2400 C   0  0  0  0  0  3  0  0  0  0  0  0
  -20.6960  -27.0030   22.6790 C   0  0  0  0  0  2  0  0  0  0  0  0
  -19.6010  -26.6760   21.6590 C   0  0  0  0  0  2  0  0  0  0  0  0
  -18.2150  -26.8300   22.2910 C   0  0  0  0  0  2  0  0  0  0  0  0
  -19.1550  -28.9480   23.3880 C   0  0  0  0  0  0  0  0  0  0  0  0
  -18.9330  -30.2130   23.9730 C   0  0  0  0  0  3  0  0  0  0  0  0
  -17.6270  -30.7150   24.1300 C   0  0  0  0  0  3  0  0  0  0  0  0
  -16.5240  -29.9500   23.7140 C   0  0  0  0  0  3  0  0  0  0  0  0
  -16.7300  -28.6860   23.1330 C   0  0  0  0  0  3  0  0  0  0  0  0
  -25.9270  -32.5560   23.9070 C   0  0  0  0  0  3  0  0  0  0  0  0
  -25.6150  -33.9600   24.2270 N   0  0  0  0  0  0  0  0  0  0  0  0
  -25.9410  -35.0120   23.4640 C   0  0  0  0  0  0  0  0  0  0  0  0
  -26.5960  -34.9020   22.4250 O   0  0  0  0  0  0  0  0  0  0  0  0
  -25.0310  -34.1180   25.0350 H   0  0  0  0  0  0  0  0  0  0  0  0
  -24.2000  -36.8040   23.1440 C   0  0  0  0  0  1  0  0  0  0  0  0
  -25.4640  -36.4060   23.9230 C   0  0  0  0  0  3  0  0  0  0  0  0
  -27.6170  -37.3060   24.6900 C   0  0  0  0  0  1  0  0  0  0  0  0
  -26.4920  -37.4590   23.7720 N   0  0  0  0  0  0  0  0  0  0  0  0
  -26.0880  -38.3810   23.9180 H   0  0  0  0  0  0  0  0  0  0  0  0
  -26.4180  -31.7980   25.2010 C   0  0  1  0  0  0  0  0  0  0  0  0
  -25.3080  -31.5840   26.2580 C   0  0  0  0  0  1  0  0  0  0  0  0
  -26.9950  -30.4100   24.8440 C   0  0  0  0  0  1  0  0  0  0  0  0
  -27.5650  -32.5930   25.8700 C   0  0  0  0  0  1  0  0  0  0  0  0
  -27.1300  -21.1500   18.1250 C   0  0  0  0  0  1  0  0  0  0  0  0
  -27.0550  -20.6160   19.4380 O   0  0  0  0  0  0  0  0  0  0  0  0
  1 16  1  0
  2  7  1  0
  3  4  1  0
  3  2  1  0
  5  4  1  0
  5 21  1  0
  5  6  1  0
  7  1  1  0
  7  6  1  0
  8  1  2  0
  9 10  1  0
 10 14  1  0
 11 10  2  0
 12 16  1  0
 12  9  2  0
 13 15  2  0
 13 11  1  0
 15 12  1  0
 16 17  1  0
 18 19  2  0
 19 38  1  0
 20 19  1  0
 20 23  1  0
 21 18  1  0
 21 22  1  0
 22 20  2  0
 23 24  1  0
 24 25  2  0
 26 29  1  0
 26 25  1  0
 27 26  2  0
 28 27  1  0
 28 23  2  0
 29 30  1  0
 30 31  1  0
 31 32  2  0
 33 32  1  0
 33 37  1  0
 34 33  2  0
 35 30  2  0
 35 34  1  0
 36 35  1  0
 38 39  1  0
 39 42  1  0
 39 41  1  0
 40 38  2  0
 43 44  1  0
 43 18  1  0
 45 43  1  0
 47 46  1  0
 47 48  1  0
 47 11  1  0
 48 49  1  0
 50 61  2  0
 51 49  1  0
 51 56  1  0
 52 60  1  0
 52 62  1  0
 53 59  1  0
 53 55  1  0
 54 60  1  0
 55 56  2  0
 55 54  1  0
 57 51  2  0
 58 57  1  0
 58 53  2  0
 59 52  1  0
 60 50  1  0
 62 64  2  0
 63 62  1  0
 65 63  1  0
 66 75  2  0
 66 71  1  0
 67 63  1  0
 67 71  1  0
 68 67  1  0
 69 70  1  0
 69 68  1  0
 70 66  1  0
 71 72  2  0
 72 73  1  0
 74 73  2  0
 75 74  1  0
 76 50  1  0
 76 77  1  0
 76 86  1  0
 77 80  1  0
 78 82  1  0
 78 77  1  0
 79 78  2  0
 82 81  1  0
 84 85  1  0
 84 82  1  0
 84 83  1  0
 86 89  1  1
 86 87  1  0
 88 86  1  0
 90 91  1  0
 91 13  1  0
M  ISO  4   1 100  16 100  48 101  49 101
M  END
>  <TORSDO>  (45) 
F 18

>  <SCORE>  (45) 
-15.876

>  <name>  (45) 
45

>  <ligand_id>  (45) 
45

>  <original_smiles>  (45) 
[H]c1c([H])c([H])c2c(c1[H])C([H])([H])C([H])([H])C([H])([H])C2([H])N([H])C(=O)C1([H])N(C(=O)C([H])(N([H])C(=O)C([H])(N([H])C([H])([H])[H])C([H])([H])[H])C(C([H])([H])[H])(C([H])([H])[H])C([H])([H])[H])C([H])([H])c2c([H])c(OC([H])([H])C([H])(c3c(OC([H])([H])[H])nc(N([H])C(=O)N4C([H])([H])C([H])([H])C([H])([H])C([H])(n5nc(-c6c([H])c([H])c(Oc7c([H])c([H])c(F)c([H])c7F)c([H])c6[H])c(C(=O)N([H])[H])c5N([H])[H])C4([H])[H])c([H])c3C([H])([H])[H])C([H])([H])[H])c([H])c([H])c2C1([H])[H]

>  <smiles>  (45) 
[H]c1c([H])c([H])c2c(c1[H])C([H])([H])C([H])([H])C([H])([H])C2([H])N([H])C(=O)C1([H])N(C(=O)C([H])(N([H])C(=O)C([H])(N([H])C([H])([H])[H])C([H])([H])[H])C(C([H])([H])[H])(C([H])([H])[H])C([H])([H])[H])C([H])([H])c2c([H])c(OC([H])([H])C([H])(c3c(OC([H])([H])[H])nc(N([H])C(=O)N4C([H])([H])C([H])([H])C([H])([H])C([H])(n5nc(-c6c([H])c([H])c(Oc7c([H])c([H])c(F)c([H])c7F)c([H])c6[H])c(C(=O)N([H])[H])c5N([H])[H])C4([H])[H])c([H])c3C([H])([H])[H])C([H])([H])[H])c([H])c([H])c2C1([H])[H]

$$$$
46:0:0
     RDKit          3D

 95104  0  0  1  0  0  0  0  0999 V2000
  -28.5480  -21.0230   20.2630 C   0  0  0  0  0  3  0  0  0  0  0  0
  -29.5210  -20.9610   18.0570 C   0  0  0  0  0  0  0  0  0  0  0  0
  -29.1530  -22.2870   17.8630 C   0  0  0  0  0  0  0  0  0  0  0  0
  -29.2570  -20.2850   19.2620 C   0  0  0  0  0  0  0  0  0  0  0  0
  -28.1240  -22.3800   20.0690 C   0  0  0  0  0  0  0  0  0  0  0  0
  -28.4780  -23.0290   18.8500 C   0  0  0  0  0  0  0  0  0  0  0  0
  -30.2230  -20.4070   16.8460 C   0  0  0  0  0  2  0  0  0  0  0  0
  -29.5980  -22.7910   16.5140 C   0  0  0  0  0  2  0  0  0  0  0  0
  -30.1080  -21.5270   15.7890 C   0  0  0  0  0  2  0  0  0  0  0  0
  -29.1700  -25.2300   19.1960 C   0  0  0  0  0  1  0  0  0  0  0  0
  -28.2280  -24.3530   18.5990 O   0  0  0  0  0  0  0  0  0  0  0  0
  -29.6720  -18.7970   19.3990 C   0  0  0  0  0  2  0  0  0  0  0  0
  -31.0590  -18.5250   20.0740 C   0  0  0  0  0  2  0  0  0  0  0  0
  -33.5150  -18.3990   19.4250 C   0  0  0  0  0  0  0  0  0  0  0  0
  -35.7590  -19.1210   20.1590 C   0  0  0  0  0  2  0  0  0  0  0  0
  -35.5910  -19.9190   21.4710 C   0  0  0  0  0  2  0  0  0  0  0  0
  -35.3010  -21.4050   21.1790 C   0  0  0  0  0  2  0  0  0  0  0  0
  -34.1830  -21.6010   20.1210 C   0  0  0  0  0  3  0  0  0  0  0  0
  -34.4160  -20.6930   18.8900 C   0  0  0  0  0  2  0  0  0  0  0  0
  -34.5340  -19.3050   19.3620 N   0  0  0  0  0  0  0  0  0  0  0  0
  -33.6890  -17.2330   19.7920 O   0  0  0  0  0  0  0  0  0  0  0  0
  -32.2700  -18.9190   19.3010 N   0  0  0  0  0  0  0  0  0  0  0  0
  -32.2500  -19.8560   18.9260 H   0  0  0  0  0  0  0  0  0  0  0  0
  -32.9690  -23.8600   19.9450 C   0  0  0  0  0  0  0  0  0  0  0  0
  -33.3620  -25.0790   19.4620 C   0  0  0  0  0  0  0  0  0  0  0  0
  -34.7000  -24.9000   18.9950 C   0  0  0  0  0  0  0  0  0  0  0  0
  -34.0390  -23.0050   19.7430 N   0  0  0  0  0  0  0  0  0  0  0  0
  -35.0680  -23.6310   19.1190 N   0  0  0  0  0  0  0  0  0  0  0  0
  -35.6710  -25.8780   18.4930 C   0  0  0  0  0  0  0  0  0  0  0  0
  -35.8020  -26.1470   17.1120 C   0  0  0  0  0  3  0  0  0  0  0  0
  -36.7320  -27.1050   16.6560 C   0  0  0  0  0  3  0  0  0  0  0  0
  -37.5400  -27.8070   17.5810 C   0  0  0  0  0  0  0  0  0  0  0  0
  -37.4210  -27.5200   18.9520 C   0  0  0  0  0  3  0  0  0  0  0  0
  -36.4990  -26.5620   19.4060 C   0  0  0  0  0  3  0  0  0  0  0  0
  -38.4870  -28.7370   17.2260 O   0  0  0  0  0  0  0  0  0  0  0  0
  -38.1840  -29.7960   16.4080 C   0  0  0  0  0  0  0  0  0  0  0  0
  -37.5040  -30.9370   16.8880 C   0  0  0  0  0  3  0  0  0  0  0  0
  -37.2750  -32.0320   16.0310 C   0  0  0  0  0  3  0  0  0  0  0  0
  -37.7320  -31.9930   14.7000 C   0  0  0  0  0  0  0  0  0  0  0  0
  -38.4130  -30.8600   14.2220 C   0  0  0  0  0  3  0  0  0  0  0  0
  -38.6410  -29.7650   15.0750 C   0  0  0  0  0  0  0  0  0  0  0  0
  -39.3160  -28.6850   14.6160 F   0  0  0  0  0  0  0  0  0  0  0  0
  -37.5190  -33.0470   13.8770 F   0  0  0  0  0  0  0  0  0  0  0  0
  -32.5810  -26.3590   19.5270 C   0  0  0  0  0  0  0  0  0  0  0  0
  -32.3000  -26.9640   18.3770 N   0  0  0  0  0  0  0  0  0  0  0  0
  -32.1680  -26.8040   20.5970 O   0  0  0  0  0  0  0  0  0  0  0  0
  -32.6220  -26.5880   17.4980 H   0  0  0  0  0  0  0  0  0  0  0  0
  -31.7600  -27.8170   18.3770 H   0  0  0  0  0  0  0  0  0  0  0  0
  -31.8080  -23.4210   20.5650 N   0  0  0  0  0  0  0  0  0  0  0  0
  -31.0600  -24.0630   20.8040 H   0  0  0  0  0  0  0  0  0  0  0  0
  -31.7130  -22.5150   21.0040 H   0  0  0  0  0  0  0  0  0  0  0  0
  -27.4570  -23.0300   21.1070 O   0  0  0  0  0  0  0  0  0  0  0  0
  -26.0430  -23.3420   21.0100 C   0  0  0  0  0  2  0  0  0  0  0  0
  -25.6550  -24.5420   21.9320 C   0  0  0  0  0  2  0  0  0  0  0  0
  -24.2460  -24.6690   22.2560 O   0  0  0  0  0  0  0  0  0  0  0  0
  -17.3510  -25.8130   20.8180 C   0  0  0  0  0  0  0  0  0  0  0  0
  -23.3430  -25.2990   21.4100 C   0  0  0  0  0  0  0  0  0  0  0  0
  -18.9460  -26.5610   19.0830 C   0  0  0  0  0  3  0  0  0  0  0  0
  -21.4090  -26.5770   19.7630 C   0  0  0  0  0  0  0  0  0  0  0  0
  -19.6510  -26.4660   21.5410 C   0  0  0  0  0  2  0  0  0  0  0  0
  -21.0680  -26.1900   21.0630 C   0  0  0  0  0  0  0  0  0  0  0  0
  -22.0310  -25.5570   21.8870 C   0  0  0  0  0  3  0  0  0  0  0  0
  -23.6590  -25.6950   20.0900 C   0  0  0  0  0  3  0  0  0  0  0  0
  -22.7030  -26.3300   19.2720 C   0  0  0  0  0  3  0  0  0  0  0  0
  -20.3310  -27.2460   18.9380 C   0  0  0  0  0  2  0  0  0  0  0  0
  -18.6090  -26.2400   20.5080 N   0  0  0  0  0  0  0  0  0  0  0  0
  -16.4720  -25.7220   19.9510 O   0  0  0  0  0  0  0  0  0  0  0  0
  -18.9090  -25.3270   18.1520 C   0  0  0  0  0  0  0  0  0  0  0  0
  -18.7720  -25.5670   16.8380 N   0  0  0  0  0  0  0  0  0  0  0  0
  -19.0310  -24.1880   18.6110 O   0  0  0  0  0  0  0  0  0  0  0  0
  -18.6690  -26.5280   16.5400 H   0  0  0  0  0  0  0  0  0  0  0  0
  -18.0250  -25.0220   13.3440 C   0  0  0  0  0  0  0  0  0  0  0  0
  -18.7560  -24.5580   15.7790 C   0  0  0  0  0  3  0  0  0  0  0  0
  -20.1730  -24.3310   15.2020 C   0  0  0  0  0  2  0  0  0  0  0  0
  -20.4700  -25.1990   13.9750 C   0  0  0  0  0  2  0  0  0  0  0  0
  -19.4610  -24.9130   12.8590 C   0  0  0  0  0  2  0  0  0  0  0  0
  -17.6970  -24.8700   14.7170 C   0  0  0  0  0  0  0  0  0  0  0  0
  -16.3510  -25.0150   15.1200 C   0  0  0  0  0  3  0  0  0  0  0  0
  -15.3470  -25.3030   14.1790 C   0  0  0  0  0  3  0  0  0  0  0  0
  -15.6730  -25.4400   12.8190 C   0  0  0  0  0  3  0  0  0  0  0  0
  -17.0100  -25.2970   12.4040 C   0  0  0  0  0  3  0  0  0  0  0  0
  -16.9490  -25.4420   22.2800 C   0  0  0  0  0  3  0  0  0  0  0  0
  -16.0500  -26.4950   22.7730 N   0  0  0  0  0  0  0  0  0  0  0  0
  -16.4500  -27.5970   23.4200 C   0  0  0  0  0  0  0  0  0  0  0  0
  -17.6280  -27.8010   23.7280 O   0  0  0  0  0  0  0  0  0  0  0  0
  -15.0780  -26.4150   22.5110 H   0  0  0  0  0  0  0  0  0  0  0  0
  -15.8970  -30.0500   23.4640 C   0  0  0  0  0  1  0  0  0  0  0  0
  -15.3750  -28.6400   23.7830 C   0  0  0  0  0  3  0  0  0  0  0  0
  -14.0420  -27.4680   25.4800 C   0  0  0  0  0  1  0  0  0  0  0  0
  -14.9500  -28.5770   25.1990 N   0  0  0  0  0  0  0  0  0  0  0  0
  -14.4930  -29.4410   25.4780 H   0  0  0  0  0  0  0  0  0  0  0  0
  -16.2640  -24.0250   22.3960 C   0  0  1  0  0  0  0  0  0  0  0  0
  -15.0790  -23.8210   21.4230 C   0  0  0  0  0  1  0  0  0  0  0  0
  -17.2910  -22.9010   22.1330 C   0  0  0  0  0  1  0  0  0  0  0  0
  -15.7420  -23.8140   23.8370 C   0  0  0  0  0  1  0  0  0  0  0  0
  2  4  1  0
  3  2  2  0
  3  6  1  0
  4 12  1  0
  4  1  2  0
  5  1  1  0
  5 52  1  0
  6  5  2  0
  7  2  1  0
  8  3  1  0
  9  8  1  0
  9  7  1  0
 11  6  1  0
 11 10  1  0
 12 13  1  0
 14 21  2  0
 15 16  1  0
 17 16  1  0
 18 19  1  0
 18 17  1  0
 19 20  1  0
 20 14  1  0
 20 15  1  0
 22 14  1  0
 22 13  1  0
 23 22  1  0
 24 49  1  0
 25 44  1  0
 25 24  2  0
 26 28  2  0
 26 25  1  0
 27 24  1  0
 27 18  1  0
 28 27  1  0
 29 26  1  0
 29 34  1  0
 30 29  2  0
 31 30  1  0
 31 32  2  0
 32 33  1  0
 33 34  2  0
 35 32  1  0
 36 37  1  0
 36 35  1  0
 38 37  2  0
 39 38  1  0
 40 39  2  0
 40 41  1  0
 41 36  2  0
 42 41  1  0
 43 39  1  0
 44 46  2  0
 45 48  1  0
 45 44  1  0
 47 45  1  0
 49 50  1  0
 49 51  1  0
 53 52  1  0
 53 54  1  0
 54 55  1  0
 57 62  1  0
 57 55  1  0
 58 68  1  0
 58 66  1  0
 59 61  1  0
 61 60  1  0
 61 62  2  0
 63 57  2  0
 64 59  2  0
 64 63  1  0
 65 58  1  0
 65 59  1  0
 66 56  1  0
 66 60  1  0
 67 56  2  0
 68 70  2  0
 69 68  1  0
 71 69  1  0
 72 77  1  0
 73 69  1  0
 74 73  1  0
 75 74  1  0
 76 72  1  0
 76 75  1  0
 77 78  2  0
 77 73  1  0
 79 78  1  0
 80 79  2  0
 81 80  1  0
 81 72  2  0
 82 56  1  0
 82 92  1  0
 82 83  1  0
 83 84  1  0
 84 85  2  0
 84 88  1  0
 86 83  1  0
 88 87  1  0
 88 90  1  0
 90 91  1  0
 90 89  1  0
 92 95  1  1
 93 92  1  0
 94 92  1  0
M  ISO  4  14 100  22 100  54 101  55 101
M  END
>  <TORSDO>  (46) 
F 22

>  <SCORE>  (46) 
-6.611

>  <name>  (46) 
46

>  <ligand_id>  (46) 
46

>  <original_smiles>  (46) 
[H]c1c([H])c([H])c2c(c1[H])C([H])([H])C([H])([H])C([H])([H])C2([H])N([H])C(=O)C1([H])N(C(=O)C([H])(N([H])C(=O)C([H])(N([H])C([H])([H])[H])C([H])([H])[H])C(C([H])([H])[H])(C([H])([H])[H])C([H])([H])[H])C([H])([H])c2c([H])c(OC([H])([H])C([H])([H])Oc3c([H])c(C([H])([H])C([H])([H])N([H])C(=O)N4C([H])([H])C([H])([H])C([H])([H])C([H])(n5nc(-c6c([H])c([H])c(Oc7c([H])c([H])c(F)c([H])c7F)c([H])c6[H])c(C(=O)N([H])[H])c5N([H])[H])C4([H])[H])c4c(c3OC([H])([H])[H])C([H])([H])C([H])([H])C4([H])[H])c([H])c([H])c2C1([H])[H]

>  <smiles>  (46) 
[H]c1c([H])c([H])c2c(c1[H])C([H])([H])C([H])([H])C([H])([H])C2([H])N([H])C(=O)C1([H])N(C(=O)C([H])(N([H])C(=O)C([H])(N([H])C([H])([H])[H])C([H])([H])[H])C(C([H])([H])[H])(C([H])([H])[H])C([H])([H])[H])C([H])([H])c2c([H])c(OC([H])([H])C([H])([H])Oc3c([H])c(C([H])([H])C([H])([H])N([H])C(=O)N4C([H])([H])C([H])([H])C([H])([H])C([H])(n5nc(-c6c([H])c([H])c(Oc7c([H])c([H])c(F)c([H])c7F)c([H])c6[H])c(C(=O)N([H])[H])c5N([H])[H])C4([H])[H])c4c(c3OC([H])([H])[H])C([H])([H])C([H])([H])C4([H])[H])c([H])c([H])c2C1([H])[H]

$$$$
47:0:0
     RDKit          3D

 95103  0  0  1  0  0  0  0  0999 V2000
  -29.7020  -21.6360   22.4580 C   0  0  0  0  0  1  0  0  0  0  0  0
  -29.5400  -21.2380   20.9790 C   0  0  0  0  0  3  0  0  0  0  0  0
  -31.0380  -14.5830   20.1270 C   0  0  0  0  0  0  0  0  0  0  0  0
  -30.7570  -12.4180   18.9540 C   0  0  0  0  0  2  0  0  0  0  0  0
  -29.7870  -12.6170   17.7690 C   0  0  0  0  0  2  0  0  0  0  0  0
  -28.3170  -12.4870   18.2200 C   0  0  0  0  0  2  0  0  0  0  0  0
  -28.0070  -13.3230   19.4890 C   0  0  0  0  0  3  0  0  0  0  0  0
  -29.0750  -13.0600   20.5750 C   0  0  0  0  0  2  0  0  0  0  0  0
  -30.3960  -13.3840   20.0030 N   0  0  0  0  0  0  0  0  0  0  0  0
  -32.1260  -14.8130   19.5860 O   0  0  0  0  0  0  0  0  0  0  0  0
  -28.9710  -17.4120   21.0950 C   0  0  0  0  0  3  0  0  0  0  0  0
  -28.7250  -18.7980   21.1210 C   0  0  0  0  0  0  0  0  0  0  0  0
  -29.7840  -19.7020   20.8290 C   0  0  0  0  0  0  0  0  0  0  0  0
  -31.0400  -19.1040   20.5080 C   0  0  0  0  0  0  0  0  0  0  0  0
  -30.2380  -16.9030   20.7640 C   0  0  0  0  0  0  0  0  0  0  0  0
  -27.3260  -19.2590   21.5030 C   0  0  0  0  0  1  0  0  0  0  0  0
  -32.2910  -19.9130   20.2230 C   0  0  0  0  0  1  0  0  0  0  0  0
  -31.2430  -17.7600   20.4650 N   0  0  0  0  0  0  0  0  0  0  0  0
  -30.3410  -15.4840   20.8510 N   0  0  0  0  0  0  0  0  0  0  0  0
  -29.5500  -15.0550   21.3000 H   0  0  0  0  0  0  0  0  0  0  0  0
  -25.6280  -13.9690   20.2370 C   0  0  0  0  0  0  0  0  0  0  0  0
  -24.5560  -13.2120   20.6270 C   0  0  0  0  0  0  0  0  0  0  0  0
  -24.9960  -11.8550   20.5850 C   0  0  0  0  0  0  0  0  0  0  0  0
  -26.6550  -13.0720   19.9860 N   0  0  0  0  0  0  0  0  0  0  0  0
  -26.2790  -11.7950   20.2520 N   0  0  0  0  0  0  0  0  0  0  0  0
  -24.2550  -10.6020   20.7900 C   0  0  0  0  0  0  0  0  0  0  0  0
  -24.6780   -9.6410   21.7350 C   0  0  0  0  0  3  0  0  0  0  0  0
  -23.9410   -8.4530   21.9230 C   0  0  0  0  0  3  0  0  0  0  0  0
  -22.7660   -8.2180   21.1690 C   0  0  0  0  0  0  0  0  0  0  0  0
  -22.3630   -9.1680   20.2140 C   0  0  0  0  0  3  0  0  0  0  0  0
  -23.1010  -10.3480   20.0230 C   0  0  0  0  0  3  0  0  0  0  0  0
  -22.0010   -7.0800   21.2680 O   0  0  0  0  0  0  0  0  0  0  0  0
  -21.8810   -6.3940   22.4480 C   0  0  0  0  0  0  0  0  0  0  0  0
  -21.3990   -7.0110   23.6240 C   0  0  0  0  0  3  0  0  0  0  0  0
  -21.2260   -6.2510   24.7980 C   0  0  0  0  0  3  0  0  0  0  0  0
  -21.5230   -4.8760   24.7980 C   0  0  0  0  0  0  0  0  0  0  0  0
  -21.9970   -4.2580   23.6280 C   0  0  0  0  0  3  0  0  0  0  0  0
  -22.1730   -5.0140   22.4560 C   0  0  0  0  0  0  0  0  0  0  0  0
  -22.6110   -4.4100   21.3250 F   0  0  0  0  0  0  0  0  0  0  0  0
  -21.3490   -4.1430   25.9230 F   0  0  0  0  0  0  0  0  0  0  0  0
  -23.1700  -13.7100   20.9270 C   0  0  0  0  0  0  0  0  0  0  0  0
  -22.4560  -13.0340   21.8210 N   0  0  0  0  0  0  0  0  0  0  0  0
  -22.7300  -14.7320   20.4020 O   0  0  0  0  0  0  0  0  0  0  0  0
  -22.8230  -12.2070   22.2680 H   0  0  0  0  0  0  0  0  0  0  0  0
  -21.5270  -13.3510   22.0630 H   0  0  0  0  0  0  0  0  0  0  0  0
  -25.8100  -15.3370   20.0590 N   0  0  0  0  0  0  0  0  0  0  0  0
  -25.0510  -15.9990   20.1770 H   0  0  0  0  0  0  0  0  0  0  0  0
  -26.6470  -15.7610   19.6790 H   0  0  0  0  0  0  0  0  0  0  0  0
  -30.2850  -22.2240   20.0250 C   0  0  0  0  0  2  0  0  0  0  0  0
  -29.6700  -23.5850   20.0300 N   0  0  0  0  0  4  0  0  0  0  0  0
  -28.7460  -23.4950   19.6370 H   0  0  0  0  0  0  0  0  0  0  0  0
  -29.5560  -23.8950   20.9830 H   0  0  0  0  0  0  0  0  0  0  0  0
  -30.4060  -24.6460   19.2810 C   0  0  0  0  0  2  0  0  0  0  0  0
  -29.4910  -25.7840   18.7530 C   0  0  0  0  0  2  0  0  0  0  0  0
  -29.1510  -26.7750   19.7460 O   0  0  0  0  0  0  0  0  0  0  0  0
  -24.7620  -31.4120   22.9500 C   0  0  0  0  0  0  0  0  0  0  0  0
  -27.9180  -27.4140   19.6970 C   0  0  0  0  0  0  0  0  0  0  0  0
  -23.7630  -30.0510   21.1470 C   0  0  0  0  0  3  0  0  0  0  0  0
  -25.4060  -28.7480   19.7010 C   0  0  0  0  0  0  0  0  0  0  0  0
  -26.2640  -30.6080   21.1270 C   0  0  0  0  0  2  0  0  0  0  0  0
  -26.4910  -29.3000   20.3920 C   0  0  0  0  0  0  0  0  0  0  0  0
  -27.7430  -28.6370   20.3960 C   0  0  0  0  0  3  0  0  0  0  0  0
  -26.7970  -26.8800   19.0130 C   0  0  0  0  0  3  0  0  0  0  0  0
  -25.5550  -27.5350   19.0150 C   0  0  0  0  0  3  0  0  0  0  0  0
  -24.1000  -29.5060   19.7360 C   0  0  0  0  0  2  0  0  0  0  0  0
  -24.9430  -30.7020   21.8010 N   0  0  0  0  0  0  0  0  0  0  0  0
  -23.6340  -31.5600   23.4420 O   0  0  0  0  0  0  0  0  0  0  0  0
  -23.1480  -28.9090   21.9890 C   0  0  0  0  0  0  0  0  0  0  0  0
  -21.8380  -28.6720   21.8110 N   0  0  0  0  0  0  0  0  0  0  0  0
  -23.8470  -28.2460   22.7590 O   0  0  0  0  0  0  0  0  0  0  0  0
  -21.3330  -29.2650   21.1660 H   0  0  0  0  0  0  0  0  0  0  0  0
  -18.5090  -27.3120   22.1650 C   0  0  0  0  0  0  0  0  0  0  0  0
  -21.0560  -27.6260   22.4690 C   0  0  0  0  0  3  0  0  0  0  0  0
  -21.2080  -26.2740   21.7360 C   0  0  0  0  0  2  0  0  0  0  0  0
  -20.1160  -26.0280   20.6910 C   0  0  0  0  0  2  0  0  0  0  0  0
  -18.7300  -26.0520   21.3450 C   0  0  0  0  0  2  0  0  0  0  0  0
  -19.6010  -28.0590   22.6800 C   0  0  0  0  0  0  0  0  0  0  0  0
  -19.3400  -29.2400   23.4080 C   0  0  0  0  0  3  0  0  0  0  0  0
  -18.0200  -29.6750   23.6250 C   0  0  0  0  0  3  0  0  0  0  0  0
  -16.9410  -28.9240   23.1260 C   0  0  0  0  0  3  0  0  0  0  0  0
  -17.1870  -27.7430   22.4020 C   0  0  0  0  0  3  0  0  0  0  0  0
  -25.9570  -32.0930   23.6880 C   0  0  0  0  0  3  0  0  0  0  0  0
  -26.4510  -31.2830   24.9480 C   0  0  1  0  0  0  0  0  0  0  0  0
  -25.3160  -30.9080   25.9310 C   0  0  0  0  0  1  0  0  0  0  0  0
  -27.1530  -29.9740   24.5160 C   0  0  0  0  0  1  0  0  0  0  0  0
  -27.5010  -32.1110   25.7250 C   0  0  0  0  0  1  0  0  0  0  0  0
  -25.5270  -33.4420   24.0730 N   0  0  0  0  0  0  0  0  0  0  0  0
  -25.8360  -34.5600   23.4010 C   0  0  0  0  0  0  0  0  0  0  0  0
  -26.5840  -34.5660   22.4200 O   0  0  0  0  0  0  0  0  0  0  0  0
  -24.8670  -33.5070   24.8350 H   0  0  0  0  0  0  0  0  0  0  0  0
  -24.0170  -36.2530   23.0120 C   0  0  0  0  0  1  0  0  0  0  0  0
  -25.2180  -35.8800   23.8980 C   0  0  0  0  0  3  0  0  0  0  0  0
  -27.2120  -36.8490   24.9530 C   0  0  0  0  0  1  0  0  0  0  0  0
  -26.1790  -37.0040   23.9320 N   0  0  0  0  0  0  0  0  0  0  0  0
  -25.6990  -37.8830   24.0980 H   0  0  0  0  0  0  0  0  0  0  0  0
  2  1  1  0
  3 19  1  0
  4  9  1  0
  5  6  1  0
  5  4  1  0
  7  6  1  0
  7 24  1  0
  7  8  1  0
  9  3  1  0
  9  8  1  0
 10  3  2  0
 11 12  1  0
 12 16  1  0
 13  2  1  0
 13 12  2  0
 14 13  1  0
 15 19  1  0
 15 11  2  0
 17 14  1  0
 18 14  2  0
 18 15  1  0
 19 20  1  0
 21 22  2  0
 22 41  1  0
 23 22  1  0
 23 26  1  0
 24 21  1  0
 24 25  1  0
 25 23  2  0
 26 27  1  0
 27 28  2  0
 29 32  1  0
 29 28  1  0
 30 29  2  0
 31 30  1  0
 31 26  2  0
 32 33  1  0
 33 38  2  0
 33 34  1  0
 34 35  2  0
 35 36  1  0
 36 40  1  0
 37 36  2  0
 38 37  1  0
 39 38  1  0
 41 42  1  0
 42 45  1  0
 42 44  1  0
 43 41  2  0
 46 47  1  0
 46 21  1  0
 48 46  1  0
 49 50  1  0
 49  2  1  0
 50 52  1  0
 51 50  1  0
 53 50  1  0
 54 53  1  0
 54 55  1  0
 56 67  2  0
 57 55  1  0
 57 62  1  0
 58 66  1  0
 58 68  1  0
 59 65  1  0
 59 61  1  0
 60 66  1  0
 61 62  2  0
 61 60  1  0
 63 64  1  0
 63 57  2  0
 64 59  2  0
 65 58  1  0
 66 56  1  0
 68 70  2  0
 69 68  1  0
 71 69  1  0
 72 81  2  0
 72 77  1  0
 73 69  1  0
 73 77  1  0
 74 73  1  0
 75 76  1  0
 75 74  1  0
 76 72  1  0
 77 78  2  0
 78 79  1  0
 80 79  2  0
 81 80  1  0
 82 56  1  0
 82 87  1  0
 82 83  1  0
 83 86  1  1
 83 84  1  0
 85 83  1  0
 87 90  1  0
 88 92  1  0
 88 87  1  0
 89 88  2  0
 92 91  1  0
 92 94  1  0
 94 95  1  0
 94 93  1  0
M  ISO  4   3 100  19 100  54 101  55 101
M  END
>  <TORSDO>  (47) 
F 20

>  <SCORE>  (47) 
-8.894

>  <name>  (47) 
47

>  <ligand_id>  (47) 
47

>  <original_smiles>  (47) 
[H]c1c([H])c([H])c2c(c1[H])C([H])([H])C([H])([H])C([H])([H])C2([H])N([H])C(=O)C1([H])N(C(=O)C([H])(N([H])C(=O)C([H])(N([H])C([H])([H])[H])C([H])([H])[H])C(C([H])([H])[H])(C([H])([H])[H])C([H])([H])[H])C([H])([H])c2c([H])c(OC([H])([H])C([H])([H])[N+]([H])([H])C([H])([H])C([H])(c3c(C([H])([H])[H])nc(N([H])C(=O)N4C([H])([H])C([H])([H])C([H])([H])C([H])(n5nc(-c6c([H])c([H])c(Oc7c([H])c([H])c(F)c([H])c7F)c([H])c6[H])c(C(=O)N([H])[H])c5N([H])[H])C4([H])[H])c([H])c3C([H])([H])[H])C([H])([H])[H])c([H])c([H])c2C1([H])[H]

>  <smiles>  (47) 
[H]c1c([H])c([H])c2c(c1[H])C([H])([H])C([H])([H])C([H])([H])C2([H])N([H])C(=O)C1([H])N(C(=O)C([H])(N([H])C(=O)C([H])(N([H])C([H])([H])[H])C([H])([H])[H])C(C([H])([H])[H])(C([H])([H])[H])C([H])([H])[H])C([H])([H])c2c([H])c(OC([H])([H])C([H])([H])[N+]([H])([H])C([H])([H])C([H])(c3c(C([H])([H])[H])nc(N([H])C(=O)N4C([H])([H])C([H])([H])C([H])([H])C([H])(n5nc(-c6c([H])c([H])c(Oc7c([H])c([H])c(F)c([H])c7F)c([H])c6[H])c(C(=O)N([H])[H])c5N([H])[H])C4([H])[H])c([H])c3C([H])([H])[H])C([H])([H])[H])c([H])c([H])c2C1([H])[H]

$$$$
48:0:0
     RDKit          3D

 97106  0  0  1  0  0  0  0  0999 V2000
  -27.0810  -24.5800   21.3150 C   0  0  0  0  0  2  0  0  0  0  0  0
  -28.0750  -22.7300   20.1670 C   0  0  0  0  0  3  0  0  0  0  0  0
  -28.9080  -24.0210   19.7890 C   0  0  0  0  0  3  0  0  0  0  0  0
  -28.3380  -25.2000   20.6680 C   0  0  0  0  0  3  0  0  0  0  0  0
  -28.8600  -24.3500   18.2870 C   0  0  0  0  0  1  0  0  0  0  0  0
  -27.3290  -23.1170   21.3800 N   0  0  0  0  0  4  0  0  0  0  0  0
  -26.4690  -22.5940   21.4500 H   0  0  0  0  0  0  0  0  0  0  0  0
  -27.8980  -22.8980   22.1810 H   0  0  0  0  0  0  0  0  0  0  0  0
  -30.0700  -19.5520   21.4370 C   0  0  0  0  0  3  0  0  0  0  0  0
  -28.7400  -21.2830   20.2480 C   0  0  0  0  0  0  0  0  0  0  0  0
  -29.5750  -20.8830   21.3340 C   0  0  0  0  0  0  0  0  0  0  0  0
  -29.8040  -18.5410   20.4830 C   0  0  0  0  0  0  0  0  0  0  0  0
  -28.4640  -20.2650   19.2690 C   0  0  0  0  0  0  0  0  0  0  0  0
  -28.9830  -18.9220   19.3830 C   0  0  0  0  0  0  0  0  0  0  0  0
  -29.9830  -21.8540   22.4350 C   0  0  0  0  0  1  0  0  0  0  0  0
  -27.5990  -20.6220   18.0570 C   0  0  0  0  0  1  0  0  0  0  0  0
  -28.6990  -17.9010   18.2840 C   0  0  0  0  0  1  0  0  0  0  0  0
  -30.6080  -17.1890   20.5880 C   0  0  0  0  0  2  0  0  0  0  0  0
  -30.6740  -14.6750   20.3490 C   0  0  0  0  0  0  0  0  0  0  0  0
  -30.4010  -12.4230   19.3500 C   0  0  0  0  0  2  0  0  0  0  0  0
  -29.4680  -12.5190   18.1260 C   0  0  0  0  0  2  0  0  0  0  0  0
  -27.9970  -12.3740   18.5580 C   0  0  0  0  0  2  0  0  0  0  0  0
  -27.6350  -13.2790   19.7670 C   0  0  0  0  0  3  0  0  0  0  0  0
  -28.6910  -13.1870   20.8900 C   0  0  0  0  0  2  0  0  0  0  0  0
  -29.9970  -13.4870   20.2920 N   0  0  0  0  0  0  0  0  0  0  0  0
  -31.8520  -14.7450   19.9920 O   0  0  0  0  0  0  0  0  0  0  0  0
  -29.9780  -15.8240   20.6150 N   0  0  0  0  0  0  0  0  0  0  0  0
  -29.0010  -15.7540   20.8520 H   0  0  0  0  0  0  0  0  0  0  0  0
  -25.2520  -13.8870   20.5010 C   0  0  0  0  0  0  0  0  0  0  0  0
  -24.1810  -13.1170   20.8720 C   0  0  0  0  0  0  0  0  0  0  0  0
  -24.6360  -11.7640   20.8350 C   0  0  0  0  0  0  0  0  0  0  0  0
  -26.2890  -13.0010   20.2600 N   0  0  0  0  0  0  0  0  0  0  0  0
  -25.9250  -11.7200   20.5230 N   0  0  0  0  0  0  0  0  0  0  0  0
  -23.9020  -10.5060   21.0210 C   0  0  0  0  0  0  0  0  0  0  0  0
  -24.3200   -9.5380   21.9630 C   0  0  0  0  0  3  0  0  0  0  0  0
  -23.5850   -8.3460   22.1370 C   0  0  0  0  0  3  0  0  0  0  0  0
  -22.4200   -8.1110   21.3710 C   0  0  0  0  0  0  0  0  0  0  0  0
  -22.0210   -9.0670   20.4190 C   0  0  0  0  0  3  0  0  0  0  0  0
  -22.7550  -10.2500   20.2430 C   0  0  0  0  0  3  0  0  0  0  0  0
  -21.6580   -6.9700   21.4530 O   0  0  0  0  0  0  0  0  0  0  0  0
  -21.5770   -6.2420   22.6130 C   0  0  0  0  0  0  0  0  0  0  0  0
  -21.1150   -6.8100   23.8200 C   0  0  0  0  0  3  0  0  0  0  0  0
  -20.9830   -6.0080   24.9720 C   0  0  0  0  0  3  0  0  0  0  0  0
  -21.3030   -4.6390   24.9160 C   0  0  0  0  0  0  0  0  0  0  0  0
  -21.7570   -4.0690   23.7140 C   0  0  0  0  0  3  0  0  0  0  0  0
  -21.8910   -4.8680   22.5650 C   0  0  0  0  0  0  0  0  0  0  0  0
  -22.3100   -4.3100   21.4030 F   0  0  0  0  0  0  0  0  0  0  0  0
  -21.1680   -3.8650   26.0190 F   0  0  0  0  0  0  0  0  0  0  0  0
  -22.7890  -13.6030   21.1490 C   0  0  0  0  0  0  0  0  0  0  0  0
  -22.0570  -12.9060   22.0120 N   0  0  0  0  0  0  0  0  0  0  0  0
  -22.3570  -14.6350   20.6360 O   0  0  0  0  0  0  0  0  0  0  0  0
  -22.4210  -12.0700   22.4480 H   0  0  0  0  0  0  0  0  0  0  0  0
  -21.1230  -13.2130   22.2420 H   0  0  0  0  0  0  0  0  0  0  0  0
  -25.4240  -15.2570   20.3280 N   0  0  0  0  0  0  0  0  0  0  0  0
  -24.6620  -15.9150   20.4440 H   0  0  0  0  0  0  0  0  0  0  0  0
  -26.2730  -15.6920   19.9870 H   0  0  0  0  0  0  0  0  0  0  0  0
  -28.3420  -26.5880   20.1340 O   0  0  0  0  0  0  0  0  0  0  0  0
  -24.5830  -31.9020   23.2280 C   0  0  0  0  0  0  0  0  0  0  0  0
  -27.1990  -27.3870   20.1480 C   0  0  0  0  0  0  0  0  0  0  0  0
  -23.3760  -30.5040   21.5860 C   0  0  0  0  0  3  0  0  0  0  0  0
  -24.8260  -28.9670   20.1480 C   0  0  0  0  0  0  0  0  0  0  0  0
  -25.9080  -30.8420   21.3890 C   0  0  0  0  0  2  0  0  0  0  0  0
  -25.9900  -29.4650   20.7460 C   0  0  0  0  0  0  0  0  0  0  0  0
  -27.1800  -28.6840   20.7400 C   0  0  0  0  0  3  0  0  0  0  0  0
  -26.0270  -26.9490   19.4970 C   0  0  0  0  0  3  0  0  0  0  0  0
  -24.8440  -27.7110   19.5160 C   0  0  0  0  0  3  0  0  0  0  0  0
  -23.5840  -29.8310   20.2040 C   0  0  0  0  0  2  0  0  0  0  0  0
  -24.6420  -31.1010   22.1250 N   0  0  0  0  0  0  0  0  0  0  0  0
  -23.5020  -32.1730   23.7690 O   0  0  0  0  0  0  0  0  0  0  0  0
  -22.7240  -29.4820   22.5460 C   0  0  0  0  0  0  0  0  0  0  0  0
  -21.3980  -29.3040   22.4280 N   0  0  0  0  0  0  0  0  0  0  0  0
  -23.4100  -28.8500   23.3540 O   0  0  0  0  0  0  0  0  0  0  0  0
  -20.9060  -29.8670   21.7480 H   0  0  0  0  0  0  0  0  0  0  0  0
  -18.0230  -28.1080   22.9400 C   0  0  0  0  0  0  0  0  0  0  0  0
  -20.5840  -28.3630   23.1970 C   0  0  0  0  0  3  0  0  0  0  0  0
  -20.6810  -26.9370   22.6100 C   0  0  0  0  0  2  0  0  0  0  0  0
  -19.5720  -26.6200   21.6020 C   0  0  0  0  0  2  0  0  0  0  0  0
  -18.1940  -26.7620   22.2550 C   0  0  0  0  0  2  0  0  0  0  0  0
  -19.1450  -28.8660   23.3680 C   0  0  0  0  0  0  0  0  0  0  0  0
  -18.9300  -30.1260   23.9680 C   0  0  0  0  0  3  0  0  0  0  0  0
  -17.6270  -30.6270   24.1460 C   0  0  0  0  0  3  0  0  0  0  0  0
  -16.5210  -29.8650   23.7350 C   0  0  0  0  0  3  0  0  0  0  0  0
  -16.7190  -28.6070   23.1380 C   0  0  0  0  0  3  0  0  0  0  0  0
  -25.8680  -32.5350   23.8470 C   0  0  0  0  0  3  0  0  0  0  0  0
  -25.5570  -33.9320   24.1810 N   0  0  0  0  0  0  0  0  0  0  0  0
  -25.8880  -34.9860   23.4220 C   0  0  0  0  0  0  0  0  0  0  0  0
  -26.5560  -34.8860   22.3900 O   0  0  0  0  0  0  0  0  0  0  0  0
  -24.9610  -34.0840   24.9810 H   0  0  0  0  0  0  0  0  0  0  0  0
  -24.1610  -36.7820   23.0720 C   0  0  0  0  0  1  0  0  0  0  0  0
  -25.4010  -36.3740   23.8830 C   0  0  0  0  0  3  0  0  0  0  0  0
  -27.5340  -37.2570   24.7190 C   0  0  0  0  0  1  0  0  0  0  0  0
  -26.4340  -37.4270   23.7740 N   0  0  0  0  0  0  0  0  0  0  0  0
  -26.0290  -38.3470   23.9200 H   0  0  0  0  0  0  0  0  0  0  0  0
  -26.3900  -31.7620   25.1200 C   0  0  1  0  0  0  0  0  0  0  0  0
  -25.3010  -31.5180   26.1910 C   0  0  0  0  0  1  0  0  0  0  0  0
  -26.9750  -30.3860   24.7220 C   0  0  0  0  0  1  0  0  0  0  0  0
  -27.5410  -32.5570   25.7810 C   0  0  0  0  0  1  0  0  0  0  0  0
  1  6  1  0
  2 10  1  0
  2  6  1  0
  3  5  1  0
  3  2  1  0
  3  4  1  0
  4 57  1  0
  4  1  1  0
  6  7  1  0
  6  8  1  0
 10 11  2  0
 11  9  1  0
 11 15  1  0
 12 18  1  0
 12  9  2  0
 13 14  2  0
 13 10  1  0
 14 12  1  0
 16 13  1  0
 17 14  1  0
 18 27  1  0
 19 27  1  0
 20 25  1  0
 21 22  1  0
 21 20  1  0
 23 22  1  0
 23 32  1  0
 23 24  1  0
 25 19  1  0
 25 24  1  0
 26 19  2  0
 27 28  1  0
 29 30  2  0
 30 49  1  0
 31 30  1  0
 31 34  1  0
 32 29  1  0
 32 33  1  0
 33 31  2  0
 34 35  1  0
 35 36  2  0
 37 40  1  0
 37 36  1  0
 38 37  2  0
 39 38  1  0
 39 34  2  0
 40 41  1  0
 41 42  1  0
 42 43  2  0
 44 43  1  0
 44 48  1  0
 45 44  2  0
 46 41  2  0
 46 45  1  0
 47 46  1  0
 49 50  1  0
 50 53  1  0
 50 52  1  0
 51 49  2  0
 54 55  1  0
 54 29  1  0
 56 54  1  0
 57 59  1  0
 58 69  2  0
 59 64  1  0
 60 68  1  0
 60 70  1  0
 61 67  1  0
 61 63  1  0
 62 68  1  0
 63 62  1  0
 64 63  2  0
 65 66  1  0
 65 59  2  0
 66 61  2  0
 67 60  1  0
 68 58  1  0
 70 72  2  0
 71 70  1  0
 73 71  1  0
 74 83  2  0
 74 79  1  0
 75 71  1  0
 75 79  1  0
 76 75  1  0
 77 78  1  0
 77 76  1  0
 78 74  1  0
 79 80  2  0
 80 81  1  0
 82 81  2  0
 83 82  1  0
 84 58  1  0
 84 85  1  0
 84 94  1  0
 85 88  1  0
 86 90  1  0
 86 85  1  0
 87 86  2  0
 90 89  1  0
 92 90  1  0
 92 93  1  0
 92 91  1  0
 94 97  1  1
 94 95  1  0
 96 94  1  0
M  ISO  4   4 101  19 100  27 100  57 101
M  END
>  <TORSDO>  (48) 
F 18

>  <SCORE>  (48) 
-15.193

>  <name>  (48) 
48

>  <ligand_id>  (48) 
48

>  <original_smiles>  (48) 
[H]c1c([H])c([H])c2c(c1[H])C([H])([H])C([H])([H])C([H])([H])C2([H])N([H])C(=O)C1([H])N(C(=O)C([H])(N([H])C(=O)C([H])(N([H])C([H])([H])[H])C([H])([H])[H])C(C([H])([H])[H])(C([H])([H])[H])C([H])([H])[H])C([H])([H])c2c([H])c(OC3([H])C([H])(C([H])([H])[H])C([H])(c4c(C([H])([H])[H])c([H])c(C([H])([H])N([H])C(=O)N5C([H])([H])C([H])([H])C([H])([H])C([H])(n6nc(-c7c([H])c([H])c(Oc8c([H])c([H])c(F)c([H])c8F)c([H])c7[H])c(C(=O)N([H])[H])c6N([H])[H])C5([H])[H])c(C([H])([H])[H])c4C([H])([H])[H])[N+]([H])([H])C3([H])[H])c([H])c([H])c2C1([H])[H]

>  <smiles>  (48) 
[H]c1c([H])c([H])c2c(c1[H])C([H])([H])C([H])([H])C([H])([H])C2([H])N([H])C(=O)C1([H])N(C(=O)C([H])(N([H])C(=O)C([H])(N([H])C([H])([H])[H])C([H])([H])[H])C(C([H])([H])[H])(C([H])([H])[H])C([H])([H])[H])C([H])([H])c2c([H])c(OC3([H])C([H])(C([H])([H])[H])C([H])(c4c(C([H])([H])[H])c([H])c(C([H])([H])N([H])C(=O)N5C([H])([H])C([H])([H])C([H])([H])C([H])(n6nc(-c7c([H])c([H])c(Oc8c([H])c([H])c(F)c([H])c8F)c([H])c7[H])c(C(=O)N([H])[H])c6N([H])[H])C5([H])[H])c(C([H])([H])[H])c4C([H])([H])[H])[N+]([H])([H])C3([H])[H])c([H])c([H])c2C1([H])[H]

$$$$
49:0:0
     RDKit          3D

 95104  0  0  1  0  0  0  0  0999 V2000
  -29.9890  -24.0570   19.2700 C   0  0  0  0  0  3  0  0  0  0  0  0
  -27.7100  -23.2680   19.1960 C   0  0  0  0  0  0  0  0  0  0  0  0
  -28.1760  -21.9040   19.0320 C   0  0  0  0  0  0  0  0  0  0  0  0
  -28.6170  -24.3790   19.3340 C   0  0  0  0  0  0  0  0  0  0  0  0
  -30.4540  -22.7190   19.1090 C   0  0  0  0  0  0  0  0  0  0  0  0
  -29.5800  -21.5960   19.0040 C   0  0  0  0  0  0  0  0  0  0  0  0
  -27.1670  -20.7530   18.9590 C   0  0  0  0  0  2  0  0  0  0  0  0
  -25.6910  -21.1280   18.8340 C   0  0  0  0  0  2  0  0  0  0  0  0
  -25.3660  -22.3450   19.6830 C   0  0  0  0  0  2  0  0  0  0  0  0
  -26.1980  -23.5520   19.2380 C   0  0  0  0  0  3  0  0  0  0  0  0
  -31.9530  -22.4800   19.0760 C   0  0  0  0  0  1  0  0  0  0  0  0
  -25.7040  -24.1150   17.8890 C   0  0  0  0  0  1  0  0  0  0  0  0
  -28.1240  -25.8400   19.7190 C   0  0  0  0  0  2  0  0  0  0  0  0
  -28.0710  -26.9570   18.7590 O   0  0  0  0  0  0  0  0  0  0  0  0
  -24.4620  -31.6600   22.8790 C   0  0  0  0  0  0  0  0  0  0  0  0
  -26.9670  -27.7960   18.9350 C   0  0  0  0  0  0  0  0  0  0  0  0
  -23.1770  -30.4960   21.1190 C   0  0  0  0  0  3  0  0  0  0  0  0
  -24.5610  -29.2660   19.3530 C   0  0  0  0  0  0  0  0  0  0  0  0
  -25.6810  -30.9570   20.8090 C   0  0  0  0  0  2  0  0  0  0  0  0
  -25.7560  -29.7080   19.9400 C   0  0  0  0  0  0  0  0  0  0  0  0
  -26.9650  -28.9840   19.7270 C   0  0  0  0  0  3  0  0  0  0  0  0
  -25.7540  -27.4030   18.3340 C   0  0  0  0  0  3  0  0  0  0  0  0
  -24.5600  -28.1210   18.5410 C   0  0  0  0  0  3  0  0  0  0  0  0
  -23.3030  -30.0630   19.6340 C   0  0  0  0  0  2  0  0  0  0  0  0
  -24.4630  -31.0460   21.6600 N   0  0  0  0  0  0  0  0  0  0  0  0
  -23.4160  -31.8010   23.5290 O   0  0  0  0  0  0  0  0  0  0  0  0
  -22.6220  -29.3100   21.9430 C   0  0  0  0  0  0  0  0  0  0  0  0
  -21.2960  -29.1000   21.8790 N   0  0  0  0  0  0  0  0  0  0  0  0
  -23.3800  -28.5910   22.5980 O   0  0  0  0  0  0  0  0  0  0  0  0
  -20.7420  -29.7400   21.3290 H   0  0  0  0  0  0  0  0  0  0  0  0
  -17.9950  -27.7460   22.4740 C   0  0  0  0  0  0  0  0  0  0  0  0
  -20.5650  -28.0160   22.5390 C   0  0  0  0  0  3  0  0  0  0  0  0
  -20.6210  -26.7180   21.7020 C   0  0  0  0  0  2  0  0  0  0  0  0
  -19.4250  -26.5570   20.7580 C   0  0  0  0  0  2  0  0  0  0  0  0
  -18.1140  -26.5470   21.5480 C   0  0  0  0  0  2  0  0  0  0  0  0
  -19.1460  -28.4450   22.9270 C   0  0  0  0  0  0  0  0  0  0  0  0
  -18.9770  -29.5730   23.7590 C   0  0  0  0  0  3  0  0  0  0  0  0
  -17.6910  -30.0010   24.1400 C   0  0  0  0  0  3  0  0  0  0  0  0
  -16.5570  -29.2960   23.7030 C   0  0  0  0  0  3  0  0  0  0  0  0
  -16.7100  -28.1700   22.8750 C   0  0  0  0  0  3  0  0  0  0  0  0
  -25.7710  -32.2340   23.5050 C   0  0  0  0  0  3  0  0  0  0  0  0
  -26.3830  -31.3070   24.6270 C   0  0  1  0  0  0  0  0  0  0  0  0
  -25.3670  -30.9000   25.7200 C   0  0  0  0  0  1  0  0  0  0  0  0
  -26.9590  -30.0110   24.0110 C   0  0  0  0  0  1  0  0  0  0  0  0
  -27.5630  -32.0310   25.3180 C   0  0  0  0  0  1  0  0  0  0  0  0
  -25.4580  -33.5640   24.0480 N   0  0  0  0  0  0  0  0  0  0  0  0
  -25.7290  -34.7220   23.4300 C   0  0  0  0  0  0  0  0  0  0  0  0
  -26.3410  -34.7820   22.3600 O   0  0  0  0  0  0  0  0  0  0  0  0
  -24.9100  -33.5890   24.8950 H   0  0  0  0  0  0  0  0  0  0  0  0
  -23.9510  -36.5010   23.4360 C   0  0  0  0  0  1  0  0  0  0  0  0
  -25.2470  -36.0200   24.1070 C   0  0  0  0  0  3  0  0  0  0  0  0
  -27.4100  -36.8380   24.9320 C   0  0  0  0  0  1  0  0  0  0  0  0
  -26.2510  -37.1040   24.0820 N   0  0  0  0  0  0  0  0  0  0  0  0
  -25.8390  -37.9850   24.3790 H   0  0  0  0  0  0  0  0  0  0  0  0
  -30.2280  -20.3290   18.9320 O   0  0  0  0  0  0  0  0  0  0  0  0
  -29.6790  -18.9830   19.1660 C   0  0  0  0  0  2  0  0  0  0  0  0
  -30.7790  -17.8320   19.2420 C   0  0  0  0  0  2  0  0  0  0  0  0
  -31.2210  -15.3820   19.8490 C   0  0  0  0  0  0  0  0  0  0  0  0
  -31.1250  -12.9520   19.3510 C   0  0  0  0  0  2  0  0  0  0  0  0
  -30.2270  -12.7330   18.1150 C   0  0  0  0  0  2  0  0  0  0  0  0
  -28.7510  -12.5950   18.5360 C   0  0  0  0  0  2  0  0  0  0  0  0
  -28.3020  -13.7100   19.5180 C   0  0  0  0  0  3  0  0  0  0  0  0
  -29.3240  -13.9080   20.6610 C   0  0  0  0  0  2  0  0  0  0  0  0
  -30.6330  -14.1600   20.0480 N   0  0  0  0  0  0  0  0  0  0  0  0
  -32.3940  -15.4710   19.4830 O   0  0  0  0  0  0  0  0  0  0  0  0
  -30.4140  -16.4900   19.8320 N   0  0  0  0  0  0  0  0  0  0  0  0
  -29.4560  -16.3560   20.1190 H   0  0  0  0  0  0  0  0  0  0  0  0
  -25.9610  -14.3890   20.3240 C   0  0  0  0  0  0  0  0  0  0  0  0
  -24.8670  -13.6520   20.6890 C   0  0  0  0  0  0  0  0  0  0  0  0
  -25.2620  -12.2830   20.5920 C   0  0  0  0  0  0  0  0  0  0  0  0
  -26.9540  -13.4710   20.0270 N   0  0  0  0  0  0  0  0  0  0  0  0
  -26.5410  -12.1960   20.2510 N   0  0  0  0  0  0  0  0  0  0  0  0
  -24.4780  -11.0500   20.7480 C   0  0  0  0  0  0  0  0  0  0  0  0
  -24.8060  -10.0860   21.7260 C   0  0  0  0  0  3  0  0  0  0  0  0
  -24.0260   -8.9180   21.8700 C   0  0  0  0  0  3  0  0  0  0  0  0
  -22.9040   -8.7060   21.0330 C   0  0  0  0  0  0  0  0  0  0  0  0
  -22.5960   -9.6580   20.0450 C   0  0  0  0  0  3  0  0  0  0  0  0
  -23.3770  -10.8180   19.9000 C   0  0  0  0  0  3  0  0  0  0  0  0
  -22.1050   -7.5900   21.0830 O   0  0  0  0  0  0  0  0  0  0  0  0
  -21.8450   -6.9430   22.2650 C   0  0  0  0  0  0  0  0  0  0  0  0
  -21.2240   -7.5960   23.3510 C   0  0  0  0  0  3  0  0  0  0  0  0
  -20.9140   -6.8740   24.5210 C   0  0  0  0  0  3  0  0  0  0  0  0
  -21.2140   -5.5010   24.6030 C   0  0  0  0  0  0  0  0  0  0  0  0
  -21.8270   -4.8480   23.5210 C   0  0  0  0  0  3  0  0  0  0  0  0
  -22.1390   -5.5670   22.3530 C   0  0  0  0  0  0  0  0  0  0  0  0
  -22.7110   -4.9280   21.3040 F   0  0  0  0  0  0  0  0  0  0  0  0
  -20.9080   -4.8060   25.7240 F   0  0  0  0  0  0  0  0  0  0  0  0
  -23.5010  -14.1840   21.0130 C   0  0  0  0  0  0  0  0  0  0  0  0
  -22.7630  -13.4930   21.8750 N   0  0  0  0  0  0  0  0  0  0  0  0
  -23.0990  -15.2460   20.5380 O   0  0  0  0  0  0  0  0  0  0  0  0
  -23.1010  -12.6330   22.2810 H   0  0  0  0  0  0  0  0  0  0  0  0
  -21.8460  -13.8290   22.1330 H   0  0  0  0  0  0  0  0  0  0  0  0
  -26.1880  -15.7560   20.1950 N   0  0  0  0  0  0  0  0  0  0  0  0
  -25.4520  -16.4390   20.3320 H   0  0  0  0  0  0  0  0  0  0  0  0
  -27.0430  -16.1630   19.8380 H   0  0  0  0  0  0  0  0  0  0  0  0
  1  4  1  0
  2 10  1  0
  2  4  2  0
  3  2  1  0
  4 13  1  0
  5  1  2  0
  6  3  2  0
  6  5  1  0
  7  3  1  0
  8  7  1  0
  8  9  1  0
 10 12  1  0
 10  9  1  0
 11  5  1  0
 14 16  1  0
 14 13  1  0
 15 26  2  0
 16 21  1  0
 17 25  1  0
 17 27  1  0
 18 24  1  0
 18 20  1  0
 19 25  1  0
 20 19  1  0
 21 20  2  0
 22 23  1  0
 22 16  2  0
 23 18  2  0
 24 17  1  0
 25 15  1  0
 27 29  2  0
 28 27  1  0
 30 28  1  0
 31 40  2  0
 31 36  1  0
 32 28  1  0
 32 36  1  0
 33 32  1  0
 34 35  1  0
 34 33  1  0
 35 31  1  0
 36 37  2  0
 37 38  1  0
 39 38  2  0
 40 39  1  0
 41 15  1  0
 41 46  1  0
 41 42  1  0
 42 45  1  1
 42 43  1  0
 44 42  1  0
 46 49  1  0
 47 46  1  0
 47 51  1  0
 48 47  2  0
 51 50  1  0
 53 51  1  0
 53 54  1  0
 53 52  1  0
 55  6  1  0
 55 56  1  0
 56 57  1  0
 57 66  1  0
 58 64  1  0
 59 64  1  0
 60 61  1  0
 60 59  1  0
 62 61  1  0
 62 71  1  0
 62 63  1  0
 64 63  1  0
 65 58  2  0
 66 58  1  0
 66 67  1  0
 68 69  2  0
 69 88  1  0
 70 69  1  0
 70 73  1  0
 71 72  1  0
 71 68  1  0
 72 70  2  0
 73 74  1  0
 74 75  2  0
 76 79  1  0
 76 75  1  0
 77 76  2  0
 78 77  1  0
 78 73  2  0
 79 80  1  0
 80 85  2  0
 80 81  1  0
 81 82  2  0
 82 83  1  0
 83 87  1  0
 84 83  2  0
 85 84  1  0
 86 85  1  0
 88 89  1  0
 89 92  1  0
 89 91  1  0
 90 88  2  0
 93 68  1  0
 93 94  1  0
 95 93  1  0
M  ISO  4  13 101  14 101  58 100  66 100
M  END
>  <TORSDO>  (49) 
F 20

>  <SCORE>  (49) 
-10.830

>  <name>  (49) 
49

>  <ligand_id>  (49) 
49

>  <original_smiles>  (49) 
[H]c1c([H])c([H])c2c(c1[H])C([H])([H])C([H])([H])C([H])([H])C2([H])N([H])C(=O)C1([H])N(C(=O)C([H])(N([H])C(=O)C([H])(N([H])C([H])([H])[H])C([H])([H])[H])C(C([H])([H])[H])(C([H])([H])[H])C([H])([H])[H])C([H])([H])c2c([H])c(OC([H])([H])c3c([H])c(C([H])([H])[H])c(OC([H])([H])C([H])([H])N([H])C(=O)N4C([H])([H])C([H])([H])C([H])([H])C([H])(n5nc(-c6c([H])c([H])c(Oc7c([H])c([H])c(F)c([H])c7F)c([H])c6[H])c(C(=O)N([H])[H])c5N([H])[H])C4([H])[H])c4c3C([H])(C([H])([H])[H])C([H])([H])C([H])([H])C4([H])[H])c([H])c([H])c2C1([H])[H]

>  <smiles>  (49) 
[H]c1c([H])c([H])c2c(c1[H])C([H])([H])C([H])([H])C([H])([H])C2([H])N([H])C(=O)C1([H])N(C(=O)C([H])(N([H])C(=O)C([H])(N([H])C([H])([H])[H])C([H])([H])[H])C(C([H])([H])[H])(C([H])([H])[H])C([H])([H])[H])C([H])([H])c2c([H])c(OC([H])([H])c3c([H])c(C([H])([H])[H])c(OC([H])([H])C([H])([H])N([H])C(=O)N4C([H])([H])C([H])([H])C([H])([H])C([H])(n5nc(-c6c([H])c([H])c(Oc7c([H])c([H])c(F)c([H])c7F)c([H])c6[H])c(C(=O)N([H])[H])c5N([H])[H])C4([H])[H])c4c3C([H])(C([H])([H])[H])C([H])([H])C([H])([H])C4([H])[H])c([H])c([H])c2C1([H])[H]

$$$$
50:0:0
     RDKit          3D

101111  0  0  1  0  0  0  0  0999 V2000
  -30.6380  -22.0310   21.1230 C   0  0  0  0  0  0  0  0  0  0  0  0
  -29.7370  -22.8720   21.6550 N   0  0  0  0  0  0  0  0  0  0  0  0
  -31.7410  -22.4180   20.7320 O   0  0  0  0  0  0  0  0  0  0  0  0
  -28.8530  -22.4830   21.9450 H   0  0  0  0  0  0  0  0  0  0  0  0
  -28.9670  -20.1930   20.6490 C   0  0  0  0  0  3  0  0  0  0  0  0
  -28.6410  -18.8420   20.4220 C   0  0  0  0  0  3  0  0  0  0  0  0
  -30.8630  -18.1800   21.1180 C   0  0  0  0  0  3  0  0  0  0  0  0
  -30.2650  -20.5660   21.0730 C   0  0  0  0  0  0  0  0  0  0  0  0
  -29.6020  -17.8260   20.5860 C   0  0  0  0  0  0  0  0  0  0  0  0
  -31.2050  -19.5290   21.3530 C   0  0  0  0  0  0  0  0  0  0  0  0
  -32.6160  -19.8020   21.8590 C   0  0  0  0  0  1  0  0  0  0  0  0
  -30.8770  -14.6000   20.9820 C   0  0  0  0  0  0  0  0  0  0  0  0
  -30.6390  -12.3010   20.1870 C   0  0  0  0  0  2  0  0  0  0  0  0
  -29.8480  -12.3120   18.8630 C   0  0  0  0  0  2  0  0  0  0  0  0
  -28.3350  -12.2320   19.1370 C   0  0  0  0  0  2  0  0  0  0  0  0
  -27.8500  -13.2280   20.2220 C   0  0  0  0  0  3  0  0  0  0  0  0
  -28.7870  -13.2560   21.4530 C   0  0  0  0  0  2  0  0  0  0  0  0
  -30.1610  -13.4430   20.9730 N   0  0  0  0  0  0  0  0  0  0  0  0
  -32.0980  -14.5970   21.1200 O   0  0  0  0  0  0  0  0  0  0  0  0
  -30.3170  -16.5070   17.8850 C   0  0  0  0  0  2  0  0  0  0  0  0
  -28.9500  -16.4780   18.5720 C   0  0  0  0  0  2  0  0  0  0  0  0
  -31.2400  -15.7700   18.8570 C   0  0  0  0  0  2  0  0  0  0  0  0
  -29.2890  -16.4070   20.0790 C   0  0  0  0  0  3  0  0  0  0  0  0
  -30.4310  -15.4810   20.0520 N   0  0  0  0  0  0  0  0  0  0  0  0
  -25.4180  -13.9180   20.6950 C   0  0  0  0  0  0  0  0  0  0  0  0
  -24.2990  -13.1760   20.9640 C   0  0  0  0  0  0  0  0  0  0  0  0
  -24.7320  -11.8160   21.0140 C   0  0  0  0  0  0  0  0  0  0  0  0
  -26.4580  -13.0060   20.5890 N   0  0  0  0  0  0  0  0  0  0  0  0
  -26.0440  -11.7410   20.8460 N   0  0  0  0  0  0  0  0  0  0  0  0
  -23.9660  -10.5740   21.1470 C   0  0  0  0  0  0  0  0  0  0  0  0
  -24.3220   -9.5910   22.0970 C   0  0  0  0  0  3  0  0  0  0  0  0
  -23.5600   -8.4090   22.2210 C   0  0  0  0  0  3  0  0  0  0  0  0
  -22.4320   -8.2030   21.3910 C   0  0  0  0  0  0  0  0  0  0  0  0
  -22.0970   -9.1740   20.4290 C   0  0  0  0  0  3  0  0  0  0  0  0
  -22.8590  -10.3470   20.3050 C   0  0  0  0  0  3  0  0  0  0  0  0
  -21.6530   -7.0720   21.4190 O   0  0  0  0  0  0  0  0  0  0  0  0
  -21.5560   -6.2930   22.5450 C   0  0  0  0  0  0  0  0  0  0  0  0
  -21.1040   -6.8150   23.7770 C   0  0  0  0  0  3  0  0  0  0  0  0
  -20.9530   -5.9650   24.8890 C   0  0  0  0  0  3  0  0  0  0  0  0
  -21.2460   -4.5930   24.7720 C   0  0  0  0  0  0  0  0  0  0  0  0
  -21.6930   -4.0690   23.5450 C   0  0  0  0  0  3  0  0  0  0  0  0
  -21.8430   -4.9170   22.4340 C   0  0  0  0  0  0  0  0  0  0  0  0
  -22.2540   -4.4050   21.2490 F   0  0  0  0  0  0  0  0  0  0  0  0
  -21.0950   -3.7730   25.8390 F   0  0  0  0  0  0  0  0  0  0  0  0
  -22.8920  -13.6890   21.0690 C   0  0  0  0  0  0  0  0  0  0  0  0
  -22.0620  -13.0400   21.8780 N   0  0  0  0  0  0  0  0  0  0  0  0
  -22.5330  -14.7000   20.4680 O   0  0  0  0  0  0  0  0  0  0  0  0
  -22.3610  -12.2260   22.3950 H   0  0  0  0  0  0  0  0  0  0  0  0
  -21.1110  -13.3650   21.9840 H   0  0  0  0  0  0  0  0  0  0  0  0
  -25.6280  -15.2810   20.5060 N   0  0  0  0  0  0  0  0  0  0  0  0
  -24.8610  -15.9440   20.5200 H   0  0  0  0  0  0  0  0  0  0  0  0
  -26.5140  -15.7070   20.2750 H   0  0  0  0  0  0  0  0  0  0  0  0
  -30.0470  -24.2450   22.0720 C   0  0  0  0  0  3  0  0  0  0  0  0
  -29.6270  -23.5870   24.5320 C   0  0  0  0  0  1  0  0  0  0  0  0
  -29.3250  -24.5790   23.3990 C   0  0  0  0  0  2  0  0  0  0  0  0
  -29.8590  -25.3030   20.9420 C   0  0  0  0  0  3  0  0  0  0  0  0
  -32.1130  -26.6800   21.0910 C   0  0  0  0  0  2  0  0  0  0  0  0
  -31.1900  -27.4860   20.2050 C   0  0  0  0  0  2  0  0  0  0  0  0
  -30.6170  -26.5880   21.2770 C   0  0  0  0  0  3  0  0  0  0  0  0
  -28.3910  -25.5930   20.5270 C   0  0  0  0  0  2  0  0  0  0  0  0
  -28.3340  -26.8640   19.8770 O   0  0  0  0  0  0  0  0  0  0  0  0
  -24.5890  -31.9260   23.1780 C   0  0  0  0  0  0  0  0  0  0  0  0
  -27.1470  -27.5460   19.9680 C   0  0  0  0  0  0  0  0  0  0  0  0
  -23.3350  -30.5390   21.5580 C   0  0  0  0  0  3  0  0  0  0  0  0
  -24.7470  -29.0200   20.0740 C   0  0  0  0  0  0  0  0  0  0  0  0
  -25.8470  -30.9160   21.2790 C   0  0  0  0  0  2  0  0  0  0  0  0
  -25.9190  -29.5520   20.6280 C   0  0  0  0  0  0  0  0  0  0  0  0
  -27.1250  -28.8220   20.5670 C   0  0  0  0  0  3  0  0  0  0  0  0
  -25.9620  -27.0110   19.4230 C   0  0  0  0  0  3  0  0  0  0  0  0
  -24.7620  -27.7480   19.4710 C   0  0  0  0  0  3  0  0  0  0  0  0
  -23.5010  -29.8700   20.1660 C   0  0  0  0  0  2  0  0  0  0  0  0
  -24.6110  -31.1410   22.0650 N   0  0  0  0  0  0  0  0  0  0  0  0
  -23.5260  -32.1880   23.7570 O   0  0  0  0  0  0  0  0  0  0  0  0
  -22.7170  -29.5060   22.5260 C   0  0  0  0  0  0  0  0  0  0  0  0
  -21.3920  -29.3120   22.4230 N   0  0  0  0  0  0  0  0  0  0  0  0
  -23.4240  -28.8810   23.3200 O   0  0  0  0  0  0  0  0  0  0  0  0
  -20.8840  -29.8660   21.7500 H   0  0  0  0  0  0  0  0  0  0  0  0
  -18.0460  -28.0580   22.9490 C   0  0  0  0  0  0  0  0  0  0  0  0
  -20.6010  -28.3620   23.2030 C   0  0  0  0  0  3  0  0  0  0  0  0
  -20.7270  -26.9320   22.6270 C   0  0  0  0  0  2  0  0  0  0  0  0
  -19.6220  -26.5880   21.6230 C   0  0  0  0  0  2  0  0  0  0  0  0
  -18.2430  -26.7100   22.2760 C   0  0  0  0  0  2  0  0  0  0  0  0
  -19.1550  -28.8410   23.3700 C   0  0  0  0  0  0  0  0  0  0  0  0
  -18.9180  -30.1020   23.9570 C   0  0  0  0  0  3  0  0  0  0  0  0
  -17.6060  -30.5820   24.1290 C   0  0  0  0  0  3  0  0  0  0  0  0
  -16.5120  -29.7950   23.7270 C   0  0  0  0  0  3  0  0  0  0  0  0
  -16.7330  -28.5350   23.1420 C   0  0  0  0  0  3  0  0  0  0  0  0
  -25.8930  -32.5500   23.7670 C   0  0  0  0  0  3  0  0  0  0  0  0
  -25.5940  -33.9420   24.1260 N   0  0  0  0  0  0  0  0  0  0  0  0
  -25.9240  -35.0070   23.3820 C   0  0  0  0  0  0  0  0  0  0  0  0
  -26.5850  -34.9180   22.3440 O   0  0  0  0  0  0  0  0  0  0  0  0
  -25.0070  -34.0850   24.9350 H   0  0  0  0  0  0  0  0  0  0  0  0
  -24.2100  -36.8150   23.0590 C   0  0  0  0  0  1  0  0  0  0  0  0
  -25.4450  -36.3880   23.8660 C   0  0  0  0  0  3  0  0  0  0  0  0
  -27.5830  -37.2410   24.7200 C   0  0  0  0  0  1  0  0  0  0  0  0
  -26.4850  -37.4350   23.7780 N   0  0  0  0  0  0  0  0  0  0  0  0
  -26.0860  -38.3550   23.9440 H   0  0  0  0  0  0  0  0  0  0  0  0
  -26.4530  -31.7610   25.0130 C   0  0  1  0  0  0  0  0  0  0  0  0
  -25.3970  -31.5100   26.1160 C   0  0  0  0  0  1  0  0  0  0  0  0
  -27.0180  -30.3890   24.5780 C   0  0  0  0  0  1  0  0  0  0  0  0
  -27.6290  -32.5430   25.6450 C   0  0  0  0  0  1  0  0  0  0  0  0
  1  2  1  0
  2  4  1  0
  2 53  1  0
  3  1  2  0
  5  8  1  0
  6  9  1  0
  6  5  2  0
  7 10  1  0
  8  1  1  0
  8 10  2  0
  9  7  2  0
 10 11  1  0
 12 19  2  0
 13 18  1  0
 14 15  1  0
 14 13  1  0
 16 15  1  0
 16 28  1  0
 16 17  1  0
 18 12  1  0
 18 17  1  0
 20 21  1  0
 20 22  1  0
 21 23  1  0
 22 24  1  0
 23  9  1  0
 24 23  1  0
 24 12  1  0
 25 26  2  0
 26 27  1  0
 26 45  1  0
 27 30  1  0
 28 25  1  0
 28 29  1  0
 29 27  2  0
 30 31  1  0
 31 32  2  0
 33 36  1  0
 33 32  1  0
 34 33  2  0
 35 34  1  0
 35 30  2  0
 36 37  1  0
 37 38  1  0
 38 39  2  0
 40 39  1  0
 40 44  1  0
 41 40  2  0
 42 37  2  0
 42 41  1  0
 43 42  1  0
 45 46  1  0
 46 49  1  0
 46 48  1  0
 47 45  2  0
 50 51  1  0
 50 25  1  0
 52 50  1  0
 53 55  1  0
 55 54  1  0
 56 60  1  0
 56 59  1  0
 56 53  1  0
 57 59  1  0
 58 57  1  0
 58 59  1  0
 61 63  1  0
 61 60  1  0
 62 73  2  0
 63 68  1  0
 64 72  1  0
 64 74  1  0
 65 71  1  0
 65 67  1  0
 66 72  1  0
 67 66  1  0
 68 67  2  0
 69 70  1  0
 69 63  2  0
 70 65  2  0
 71 64  1  0
 72 62  1  0
 74 76  2  0
 75 74  1  0
 77 75  1  0
 78 87  2  0
 78 83  1  0
 79 75  1  0
 79 83  1  0
 80 79  1  0
 81 82  1  0
 81 80  1  0
 82 78  1  0
 83 84  2  0
 84 85  1  0
 86 85  2  0
 87 86  1  0
 88 62  1  0
 88 89  1  0
 88 98  1  0
 89 92  1  0
 90 94  1  0
 90 89  1  0
 91 90  2  0
 94 93  1  0
 96 94  1  0
 96 97  1  0
 96 95  1  0
 98101  1  1
 98 99  1  0
100 98  1  0
M  ISO  4  12 100  24 100  60 101  61 101
M  END
>  <TORSDO>  (50) 
F 22

>  <SCORE>  (50) 
-12.175

>  <name>  (50) 
50

>  <ligand_id>  (50) 
50

>  <original_smiles>  (50) 
[H]c1c([H])c([H])c2c(c1[H])C([H])([H])C([H])([H])C([H])([H])C2([H])N([H])C(=O)C1([H])N(C(=O)C([H])(N([H])C(=O)C([H])(N([H])C([H])([H])[H])C([H])([H])[H])C(C([H])([H])[H])(C([H])([H])[H])C([H])([H])[H])C([H])([H])c2c([H])c(OC([H])([H])C([H])(C([H])(N([H])C(=O)c3c([H])c([H])c(C4([H])N(C(=O)N5C([H])([H])C([H])([H])C([H])([H])C([H])(n6nc(-c7c([H])c([H])c(Oc8c([H])c([H])c(F)c([H])c8F)c([H])c7[H])c(C(=O)N([H])[H])c6N([H])[H])C5([H])[H])C([H])([H])C([H])([H])C4([H])[H])c([H])c3C([H])([H])[H])C([H])([H])C([H])([H])[H])C3([H])C([H])([H])C3([H])[H])c([H])c([H])c2C1([H])[H]

>  <smiles>  (50) 
[H]c1c([H])c([H])c2c(c1[H])C([H])([H])C([H])([H])C([H])([H])C2([H])N([H])C(=O)C1([H])N(C(=O)C([H])(N([H])C(=O)C([H])(N([H])C([H])([H])[H])C([H])([H])[H])C(C([H])([H])[H])(C([H])([H])[H])C([H])([H])[H])C([H])([H])c2c([H])c(OC([H])([H])C([H])(C([H])(N([H])C(=O)c3c([H])c([H])c(C4([H])N(C(=O)N5C([H])([H])C([H])([H])C([H])([H])C([H])(n6nc(-c7c([H])c([H])c(Oc8c([H])c([H])c(F)c([H])c8F)c([H])c7[H])c(C(=O)N([H])[H])c6N([H])[H])C5([H])[H])C([H])([H])C([H])([H])C4([H])[H])c([H])c3C([H])([H])[H])C([H])([H])C([H])([H])[H])C3([H])C([H])([H])C3([H])[H])c([H])c([H])c2C1([H])[H]

$$$$
51:0:0
     RDKit          3D

 95104  0  0  1  0  0  0  0  0999 V2000
  -27.0770  -19.2860   19.0350 C   0  0  0  0  0  3  0  0  0  0  0  0
  -26.5820  -22.0080   19.0890 C   0  0  0  0  0  3  0  0  0  0  0  0
  -28.1450  -20.1360   19.4290 C   0  0  0  0  0  0  0  0  0  0  0  0
  -25.8080  -19.7440   18.6690 C   0  0  0  0  0  0  0  0  0  0  0  0
  -25.5340  -21.1170   18.7650 C   0  0  0  0  0  0  0  0  0  0  0  0
  -27.9180  -21.5910   19.3650 C   0  0  0  0  0  0  0  0  0  0  0  0
  -24.7780  -18.7370   18.1780 C   0  0  0  0  0  1  0  0  0  0  0  0
  -24.1190  -21.6330   18.5450 C   0  0  0  0  0  1  0  0  0  0  0  0
  -31.1220  -15.0610   20.2050 C   0  0  0  0  0  0  0  0  0  0  0  0
  -30.8320  -12.7770   19.2760 C   0  0  0  0  0  2  0  0  0  0  0  0
  -29.9290  -12.8580   18.0310 C   0  0  0  0  0  2  0  0  0  0  0  0
  -28.4500  -12.7220   18.4390 C   0  0  0  0  0  2  0  0  0  0  0  0
  -28.0690  -13.6570   19.6200 C   0  0  0  0  0  3  0  0  0  0  0  0
  -29.1070  -13.6040   20.7600 C   0  0  0  0  0  2  0  0  0  0  0  0
  -30.4170  -13.8830   20.1640 N   0  0  0  0  0  0  0  0  0  0  0  0
  -32.3300  -15.0500   19.9490 O   0  0  0  0  0  0  0  0  0  0  0  0
  -29.0500  -18.2360   21.0020 C   0  0  0  0  0  2  0  0  0  0  0  0
  -30.0210  -18.4440   18.7070 C   0  0  0  0  0  2  0  0  0  0  0  0
  -30.0800  -17.0770   21.2740 C   0  0  0  0  0  2  0  0  0  0  0  0
  -30.9640  -17.2540   19.0980 C   0  0  0  0  0  2  0  0  0  0  0  0
  -29.4030  -19.2880   19.8790 C   0  0  0  0  0  3  0  0  0  0  0  0
  -30.4330  -16.2660   20.0840 N   0  0  0  0  0  0  0  0  0  0  0  0
  -25.6930  -14.3090   20.3320 C   0  0  0  0  0  0  0  0  0  0  0  0
  -24.6030  -13.5590   20.6860 C   0  0  0  0  0  0  0  0  0  0  0  0
  -25.0320  -12.1980   20.6590 C   0  0  0  0  0  0  0  0  0  0  0  0
  -26.7150  -13.4020   20.1030 N   0  0  0  0  0  0  0  0  0  0  0  0
  -26.3240  -12.1270   20.3630 N   0  0  0  0  0  0  0  0  0  0  0  0
  -24.2720  -10.9530   20.8450 C   0  0  0  0  0  0  0  0  0  0  0  0
  -24.6320  -10.0070   21.8300 C   0  0  0  0  0  3  0  0  0  0  0  0
  -23.8730   -8.8280   22.0030 C   0  0  0  0  0  3  0  0  0  0  0  0
  -22.7400   -8.5890   21.1870 C   0  0  0  0  0  0  0  0  0  0  0  0
  -22.3990   -9.5240   20.1940 C   0  0  0  0  0  3  0  0  0  0  0  0
  -23.1590  -10.6930   20.0200 C   0  0  0  0  0  3  0  0  0  0  0  0
  -21.9600   -7.4600   21.2640 O   0  0  0  0  0  0  0  0  0  0  0  0
  -21.8030   -6.7700   22.4400 C   0  0  0  0  0  0  0  0  0  0  0  0
  -21.2550   -7.3750   23.5920 C   0  0  0  0  0  3  0  0  0  0  0  0
  -21.0470   -6.6120   24.7570 C   0  0  0  0  0  3  0  0  0  0  0  0
  -21.3790   -5.2420   24.7720 C   0  0  0  0  0  0  0  0  0  0  0  0
  -21.9200   -4.6370   23.6230 C   0  0  0  0  0  3  0  0  0  0  0  0
  -22.1300   -5.3990   22.4600 C   0  0  0  0  0  0  0  0  0  0  0  0
  -22.6290   -4.8060   21.3500 F   0  0  0  0  0  0  0  0  0  0  0  0
  -21.1740   -4.5060   25.8880 F   0  0  0  0  0  0  0  0  0  0  0  0
  -23.2150  -14.0690   20.9470 C   0  0  0  0  0  0  0  0  0  0  0  0
  -22.4760  -13.4000   21.8250 N   0  0  0  0  0  0  0  0  0  0  0  0
  -22.7970  -15.0950   20.4100 O   0  0  0  0  0  0  0  0  0  0  0  0
  -22.8270  -12.5630   22.2660 H   0  0  0  0  0  0  0  0  0  0  0  0
  -21.5460  -13.7250   22.0540 H   0  0  0  0  0  0  0  0  0  0  0  0
  -25.9000  -15.6730   20.1670 N   0  0  0  0  0  0  0  0  0  0  0  0
  -25.1670  -16.3600   20.3020 H   0  0  0  0  0  0  0  0  0  0  0  0
  -26.7980  -16.0840   19.9520 H   0  0  0  0  0  0  0  0  0  0  0  0
  -28.8510  -22.6320   19.6120 O   0  0  0  0  0  0  0  0  0  0  0  0
  -29.9170  -24.2350   18.2330 C   0  0  0  0  0  1  0  0  0  0  0  0
  -28.6540  -24.0250   19.0750 C   0  0  0  0  0  3  0  0  0  0  0  0
  -28.4040  -25.2700   20.0900 C   0  0  0  0  0  2  0  0  0  0  0  0
  -28.6260  -26.7210   19.7340 O   0  0  0  0  0  0  0  0  0  0  0  0
  -24.6200  -31.7810   23.0860 C   0  0  0  0  0  0  0  0  0  0  0  0
  -27.5140  -27.5820   19.7460 C   0  0  0  0  0  0  0  0  0  0  0  0
  -23.5340  -30.4450   21.3220 C   0  0  0  0  0  3  0  0  0  0  0  0
  -25.0910  -29.0980   19.8060 C   0  0  0  0  0  0  0  0  0  0  0  0
  -26.0560  -30.9090   21.2230 C   0  0  0  0  0  2  0  0  0  0  0  0
  -26.2250  -29.5900   20.4680 C   0  0  0  0  0  0  0  0  0  0  0  0
  -27.4490  -28.8460   20.4240 C   0  0  0  0  0  3  0  0  0  0  0  0
  -26.3650  -27.1640   19.0500 C   0  0  0  0  0  3  0  0  0  0  0  0
  -25.1680  -27.9010   19.0780 C   0  0  0  0  0  3  0  0  0  0  0  0
  -23.8070  -29.8950   19.8980 C   0  0  0  0  0  2  0  0  0  0  0  0
  -24.7540  -31.0610   21.9330 N   0  0  0  0  0  0  0  0  0  0  0  0
  -23.5120  -31.9500   23.6160 O   0  0  0  0  0  0  0  0  0  0  0  0
  -22.9180  -29.3150   22.1880 C   0  0  0  0  0  0  0  0  0  0  0  0
  -21.5940  -29.1190   22.0720 N   0  0  0  0  0  0  0  0  0  0  0  0
  -23.6300  -28.6270   22.9230 O   0  0  0  0  0  0  0  0  0  0  0  0
  -21.0760  -29.7290   21.4580 H   0  0  0  0  0  0  0  0  0  0  0  0
  -18.2560  -27.8060   22.5550 C   0  0  0  0  0  0  0  0  0  0  0  0
  -20.8190  -28.0840   22.7590 C   0  0  0  0  0  3  0  0  0  0  0  0
  -20.9190  -26.7280   22.0230 C   0  0  0  0  0  2  0  0  0  0  0  0
  -19.7860  -26.5000   21.0180 C   0  0  0  0  0  2  0  0  0  0  0  0
  -18.4290  -26.5440   21.7240 C   0  0  0  0  0  2  0  0  0  0  0  0
  -19.3790  -28.5370   23.0280 C   0  0  0  0  0  0  0  0  0  0  0  0
  -19.1650  -29.7210   23.7670 C   0  0  0  0  0  3  0  0  0  0  0  0
  -17.8620  -30.1760   24.0390 C   0  0  0  0  0  3  0  0  0  0  0  0
  -16.7530  -29.4400   23.5840 C   0  0  0  0  0  3  0  0  0  0  0  0
  -16.9510  -28.2570   22.8480 C   0  0  0  0  0  3  0  0  0  0  0  0
  -25.8480  -32.4450   23.7820 C   0  0  0  0  0  3  0  0  0  0  0  0
  -26.3440  -31.6480   25.0520 C   0  0  1  0  0  0  0  0  0  0  0  0
  -25.2200  -31.3380   26.0700 C   0  0  0  0  0  1  0  0  0  0  0  0
  -26.9870  -30.3040   24.6380 C   0  0  0  0  0  1  0  0  0  0  0  0
  -27.4460  -32.4530   25.7790 C   0  0  0  0  0  1  0  0  0  0  0  0
  -25.4660  -33.8140   24.1560 N   0  0  0  0  0  0  0  0  0  0  0  0
  -25.7910  -34.9150   23.4660 C   0  0  0  0  0  0  0  0  0  0  0  0
  -26.5220  -34.8870   22.4710 O   0  0  0  0  0  0  0  0  0  0  0  0
  -24.8320  -33.9100   24.9370 H   0  0  0  0  0  0  0  0  0  0  0  0
  -24.0140  -36.6560   23.0980 C   0  0  0  0  0  1  0  0  0  0  0  0
  -25.2220  -36.2590   23.9600 C   0  0  0  0  0  3  0  0  0  0  0  0
  -27.2570  -37.1870   24.9700 C   0  0  0  0  0  1  0  0  0  0  0  0
  -26.2140  -37.3560   23.9620 N   0  0  0  0  0  0  0  0  0  0  0  0
  -25.7620  -38.2540   24.1180 H   0  0  0  0  0  0  0  0  0  0  0  0
  1  3  1  0
  2  6  1  0
  4  5  1  0
  4  1  2  0
  5  2  2  0
  6  3  2  0
  6 51  1  0
  7  4  1  0
  8  5  1  0
 10 15  1  0
 11 12  1  0
 11 10  1  0
 13 12  1  0
 13 26  1  0
 13 14  1  0
 15  9  1  0
 15 14  1  0
 16  9  2  0
 17 19  1  0
 18 20  1  0
 18 21  1  0
 20 22  1  0
 21  3  1  0
 21 17  1  0
 22  9  1  0
 22 19  1  0
 23 24  2  0
 24 43  1  0
 25 24  1  0
 25 28  1  0
 26 23  1  0
 26 27  1  0
 27 25  2  0
 28 29  1  0
 29 30  2  0
 31 34  1  0
 31 30  1  0
 32 31  2  0
 33 32  1  0
 33 28  2  0
 34 35  1  0
 35 40  2  0
 35 36  1  0
 36 37  2  0
 37 38  1  0
 38 42  1  0
 39 38  2  0
 40 39  1  0
 41 40  1  0
 43 44  1  0
 44 47  1  0
 44 46  1  0
 45 43  2  0
 48 49  1  0
 48 23  1  0
 50 48  1  0
 53 52  1  0
 53 51  1  0
 53 54  1  0
 55 57  1  0
 55 54  1  0
 56 67  2  0
 57 62  1  0
 58 66  1  0
 58 68  1  0
 59 65  1  0
 59 61  1  0
 60 66  1  0
 61 60  1  0
 62 61  2  0
 63 64  1  0
 63 57  2  0
 64 59  2  0
 65 58  1  0
 66 56  1  0
 68 70  2  0
 69 68  1  0
 71 69  1  0
 72 81  2  0
 72 77  1  0
 73 69  1  0
 73 77  1  0
 74 73  1  0
 75 76  1  0
 75 74  1  0
 76 72  1  0
 77 78  2  0
 78 79  1  0
 80 79  2  0
 81 80  1  0
 82 56  1  0
 82 87  1  0
 82 83  1  0
 83 86  1  1
 83 84  1  0
 85 83  1  0
 87 90  1  0
 88 92  1  0
 88 87  1  0
 89 88  2  0
 92 91  1  0
 92 94  1  0
 94 95  1  0
 94 93  1  0
M  ISO  4   9 100  22 100  54 101  55 101
M  END
>  <TORSDO>  (51) 
F 19

>  <SCORE>  (51) 
-11.057

>  <name>  (51) 
51

>  <ligand_id>  (51) 
51

>  <original_smiles>  (51) 
[H]c1c([H])c([H])c2c(c1[H])C([H])([H])C([H])([H])C([H])([H])C2([H])N([H])C(=O)C1([H])N(C(=O)C([H])(N([H])C(=O)C([H])(N([H])C([H])([H])[H])C([H])([H])[H])C(C([H])([H])[H])(C([H])([H])[H])C([H])([H])[H])C([H])([H])c2c([H])c(OC([H])([H])C([H])(Oc3c([H])c(C([H])([H])[H])c(C([H])([H])[H])c([H])c3C3([H])C([H])([H])C([H])([H])N(C(=O)N4C([H])([H])C([H])([H])C([H])([H])C([H])(n5nc(-c6c([H])c([H])c(Oc7c([H])c([H])c(F)c([H])c7F)c([H])c6[H])c(C(=O)N([H])[H])c5N([H])[H])C4([H])[H])C([H])([H])C3([H])[H])C([H])([H])[H])c([H])c([H])c2C1([H])[H]

>  <smiles>  (51) 
[H]c1c([H])c([H])c2c(c1[H])C([H])([H])C([H])([H])C([H])([H])C2([H])N([H])C(=O)C1([H])N(C(=O)C([H])(N([H])C(=O)C([H])(N([H])C([H])([H])[H])C([H])([H])[H])C(C([H])([H])[H])(C([H])([H])[H])C([H])([H])[H])C([H])([H])c2c([H])c(OC([H])([H])C([H])(Oc3c([H])c(C([H])([H])[H])c(C([H])([H])[H])c([H])c3C3([H])C([H])([H])C([H])([H])N(C(=O)N4C([H])([H])C([H])([H])C([H])([H])C([H])(n5nc(-c6c([H])c([H])c(Oc7c([H])c([H])c(F)c([H])c7F)c([H])c6[H])c(C(=O)N([H])[H])c5N([H])[H])C4([H])[H])C([H])([H])C3([H])[H])C([H])([H])[H])c([H])c([H])c2C1([H])[H]

$$$$
52:0:0
     RDKit          3D

 96105  0  0  1  0  0  0  0  0999 V2000
  -31.3800  -19.2110   17.6570 C   0  0  0  0  0  0  0  0  0  0  0  0
  -30.7750  -18.1240   18.3190 C   0  0  0  0  0  0  0  0  0  0  0  0
  -31.0000  -20.3490   18.3410 C   0  0  0  0  0  0  0  0  0  0  0  0
  -30.2450  -18.5200   19.5270 C   0  0  0  0  0  0  0  0  0  0  0  0
  -31.3310  -21.7250   18.1120 C   0  0  0  0  0  0  0  0  0  0  0  0
  -30.7990  -22.7380   18.8920 C   0  0  0  0  0  0  0  0  0  0  0  0
  -29.7460  -22.4660   19.8210 C   0  0  0  0  0  0  0  0  0  0  0  0
  -29.5030  -21.0740   20.1110 C   0  0  0  0  0  0  0  0  0  0  0  0
  -32.2650  -19.0530   16.4380 C   0  0  0  0  0  1  0  0  0  0  0  0
  -30.8270  -16.7270   17.7650 C   0  0  0  0  0  1  0  0  0  0  0  0
  -32.3120  -22.0680   16.9890 C   0  0  0  0  0  1  0  0  0  0  0  0
  -31.3930  -24.1480   18.7660 C   0  0  0  0  0  1  0  0  0  0  0  0
  -28.4780  -20.6550   21.1500 C   0  0  0  0  0  1  0  0  0  0  0  0
  -30.1520  -19.9930   19.4430 N   0  0  0  0  0  0  0  0  0  0  0  0
  -29.9520  -17.4990   20.7120 C   0  0  0  0  0  2  0  0  0  0  0  0
  -30.6020  -14.8430   20.5470 C   0  0  0  0  0  0  0  0  0  0  0  0
  -30.4600  -12.5270   19.5970 C   0  0  0  0  0  2  0  0  0  0  0  0
  -29.5740  -12.5520   18.3330 C   0  0  0  0  0  2  0  0  0  0  0  0
  -28.0840  -12.3910   18.7050 C   0  0  0  0  0  2  0  0  0  0  0  0
  -27.6550  -13.3150   19.8770 C   0  0  0  0  0  3  0  0  0  0  0  0
  -28.6710  -13.2630   21.0380 C   0  0  0  0  0  2  0  0  0  0  0  0
  -29.9840  -13.6120   20.4820 N   0  0  0  0  0  0  0  0  0  0  0  0
  -31.8200  -14.9280   20.3880 O   0  0  0  0  0  0  0  0  0  0  0  0
  -29.7770  -15.9680   20.5510 N   0  0  0  0  0  0  0  0  0  0  0  0
  -28.8070  -15.6960   20.5650 H   0  0  0  0  0  0  0  0  0  0  0  0
  -25.2440  -13.9290   20.5060 C   0  0  0  0  0  0  0  0  0  0  0  0
  -24.1620  -13.1650   20.8500 C   0  0  0  0  0  0  0  0  0  0  0  0
  -24.6220  -11.8120   20.8630 C   0  0  0  0  0  0  0  0  0  0  0  0
  -26.2920  -13.0410   20.3240 N   0  0  0  0  0  0  0  0  0  0  0  0
  -25.9240  -11.7640   20.6070 N   0  0  0  0  0  0  0  0  0  0  0  0
  -23.8820  -10.5570   21.0510 C   0  0  0  0  0  0  0  0  0  0  0  0
  -24.2900   -9.5900   21.9960 C   0  0  0  0  0  3  0  0  0  0  0  0
  -23.5510   -8.4000   22.1690 C   0  0  0  0  0  3  0  0  0  0  0  0
  -22.3890   -8.1670   21.3970 C   0  0  0  0  0  0  0  0  0  0  0  0
  -22.0020   -9.1200   20.4380 C   0  0  0  0  0  3  0  0  0  0  0  0
  -22.7420  -10.3020   20.2640 C   0  0  0  0  0  3  0  0  0  0  0  0
  -21.6220   -7.0300   21.4810 O   0  0  0  0  0  0  0  0  0  0  0  0
  -21.5680   -6.2830   22.6300 C   0  0  0  0  0  0  0  0  0  0  0  0
  -21.1700   -6.8400   23.8650 C   0  0  0  0  0  3  0  0  0  0  0  0
  -21.0600   -6.0180   25.0060 C   0  0  0  0  0  3  0  0  0  0  0  0
  -21.3360   -4.6420   24.9110 C   0  0  0  0  0  0  0  0  0  0  0  0
  -21.7240   -4.0840   23.6820 C   0  0  0  0  0  3  0  0  0  0  0  0
  -21.8380   -4.9020   22.5430 C   0  0  0  0  0  0  0  0  0  0  0  0
  -22.1920   -4.3550   21.3560 F   0  0  0  0  0  0  0  0  0  0  0  0
  -21.2210   -3.8510   26.0050 F   0  0  0  0  0  0  0  0  0  0  0  0
  -22.7550  -13.6520   21.0510 C   0  0  0  0  0  0  0  0  0  0  0  0
  -21.9870  -12.9790   21.9020 N   0  0  0  0  0  0  0  0  0  0  0  0
  -22.3430  -14.6650   20.4870 O   0  0  0  0  0  0  0  0  0  0  0  0
  -22.3300  -12.1610   22.3840 H   0  0  0  0  0  0  0  0  0  0  0  0
  -21.0430  -13.2900   22.0780 H   0  0  0  0  0  0  0  0  0  0  0  0
  -25.4120  -15.2960   20.3060 N   0  0  0  0  0  0  0  0  0  0  0  0
  -24.6250  -15.9360   20.3640 H   0  0  0  0  0  0  0  0  0  0  0  0
  -26.2490  -15.7380   19.9510 H   0  0  0  0  0  0  0  0  0  0  0  0
  -29.0630  -23.7570   20.5200 C   0  0  0  0  0  2  0  0  0  0  0  0
  -28.3900  -24.9820   19.6650 C   0  0  0  0  0  2  0  0  0  0  0  0
  -28.3930  -26.4260   20.1340 O   0  0  0  0  0  0  0  0  0  0  0  0
  -24.6600  -31.8950   23.1750 C   0  0  0  0  0  0  0  0  0  0  0  0
  -27.2680  -27.2960   20.0670 C   0  0  0  0  0  0  0  0  0  0  0  0
  -23.4540  -30.4950   21.5420 C   0  0  0  0  0  3  0  0  0  0  0  0
  -24.8990  -28.9460   20.0980 C   0  0  0  0  0  0  0  0  0  0  0  0
  -25.9950  -30.8020   21.3440 C   0  0  0  0  0  2  0  0  0  0  0  0
  -26.0730  -29.4190   20.6930 C   0  0  0  0  0  0  0  0  0  0  0  0
  -27.2540  -28.6030   20.6730 C   0  0  0  0  0  3  0  0  0  0  0  0
  -26.0650  -26.9060   19.4290 C   0  0  0  0  0  3  0  0  0  0  0  0
  -24.9000  -27.6980   19.4600 C   0  0  0  0  0  3  0  0  0  0  0  0
  -23.6610  -29.8230   20.1590 C   0  0  0  0  0  2  0  0  0  0  0  0
  -24.7230  -31.0840   22.0750 N   0  0  0  0  0  0  0  0  0  0  0  0
  -23.5790  -32.1680   23.7160 O   0  0  0  0  0  0  0  0  0  0  0  0
  -22.8000  -29.4750   22.5080 C   0  0  0  0  0  0  0  0  0  0  0  0
  -21.4730  -29.2930   22.3940 N   0  0  0  0  0  0  0  0  0  0  0  0
  -23.4890  -28.8470   23.3180 O   0  0  0  0  0  0  0  0  0  0  0  0
  -20.9760  -29.8510   21.7120 H   0  0  0  0  0  0  0  0  0  0  0  0
  -18.1060  -28.0730   22.9240 C   0  0  0  0  0  0  0  0  0  0  0  0
  -20.6660  -28.3490   23.1710 C   0  0  0  0  0  3  0  0  0  0  0  0
  -20.7710  -26.9190   22.5920 C   0  0  0  0  0  2  0  0  0  0  0  0
  -19.6640  -26.5910   21.5880 C   0  0  0  0  0  2  0  0  0  0  0  0
  -18.2860  -26.7270   22.2430 C   0  0  0  0  0  2  0  0  0  0  0  0
  -19.2250  -28.8420   23.3450 C   0  0  0  0  0  0  0  0  0  0  0  0
  -19.0030  -30.1020   23.9420 C   0  0  0  0  0  3  0  0  0  0  0  0
  -17.6960  -30.5960   24.1200 C   0  0  0  0  0  3  0  0  0  0  0  0
  -16.5930  -29.8250   23.7120 C   0  0  0  0  0  3  0  0  0  0  0  0
  -16.7990  -28.5640   23.1220 C   0  0  0  0  0  3  0  0  0  0  0  0
  -25.9430  -32.5370   23.7900 C   0  0  0  0  0  3  0  0  0  0  0  0
  -26.4920  -31.7500   25.0430 C   0  0  1  0  0  0  0  0  0  0  0  0
  -25.4210  -31.4800   26.1270 C   0  0  0  0  0  1  0  0  0  0  0  0
  -27.0870  -30.3890   24.6150 C   0  0  0  0  0  1  0  0  0  0  0  0
  -27.6470  -32.5440   25.6950 C   0  0  0  0  0  1  0  0  0  0  0  0
  -25.6160  -33.9240   24.1540 N   0  0  0  0  0  0  0  0  0  0  0  0
  -25.9220  -34.9980   23.4150 C   0  0  0  0  0  0  0  0  0  0  0  0
  -26.5790  -34.9250   22.3720 O   0  0  0  0  0  0  0  0  0  0  0  0
  -25.0230  -34.0530   24.9620 H   0  0  0  0  0  0  0  0  0  0  0  0
  -24.1640  -36.7750   23.1260 C   0  0  0  0  0  1  0  0  0  0  0  0
  -25.4240  -36.3700   23.9080 C   0  0  0  0  0  3  0  0  0  0  0  0
  -27.5640  -37.2600   24.7180 C   0  0  0  0  0  1  0  0  0  0  0  0
  -26.4420  -37.4400   23.8010 N   0  0  0  0  0  0  0  0  0  0  0  0
  -26.0280  -38.3500   23.9820 H   0  0  0  0  0  0  0  0  0  0  0  0
  1  2  1  0
  1  3  2  0
  2  4  2  0
  3 14  1  0
  4 15  1  0
  5  3  1  0
  5  6  2  0
  6  7  1  0
  7  8  2  0
  7 54  1  0
  8 13  1  0
  9  1  1  0
 10  2  1  0
 11  5  1  0
 12  6  1  0
 14  4  1  0
 14  8  1  0
 16 24  1  0
 17 22  1  0
 18 19  1  0
 18 17  1  0
 20 19  1  0
 20 29  1  0
 20 21  1  0
 22 16  1  0
 22 21  1  0
 23 16  2  0
 24 25  1  0
 24 15  1  0
 26 27  2  0
 27 28  1  0
 27 46  1  0
 28 31  1  0
 29 26  1  0
 29 30  1  0
 30 28  2  0
 31 32  1  0
 32 33  2  0
 34 37  1  0
 34 33  1  0
 35 34  2  0
 36 35  1  0
 36 31  2  0
 37 38  1  0
 38 39  1  0
 39 40  2  0
 41 40  1  0
 41 45  1  0
 42 41  2  0
 43 38  2  0
 43 42  1  0
 44 43  1  0
 46 47  1  0
 47 50  1  0
 47 49  1  0
 48 46  2  0
 51 52  1  0
 51 26  1  0
 53 51  1  0
 55 56  1  0
 55 54  1  0
 57 68  2  0
 58 56  1  0
 58 63  1  0
 59 67  1  0
 59 69  1  0
 60 66  1  0
 60 62  1  0
 61 67  1  0
 62 61  1  0
 63 62  2  0
 64 65  1  0
 64 58  2  0
 65 60  2  0
 66 59  1  0
 67 57  1  0
 69 71  2  0
 70 69  1  0
 72 70  1  0
 73 82  2  0
 73 78  1  0
 74 70  1  0
 74 78  1  0
 75 74  1  0
 76 77  1  0
 76 75  1  0
 77 73  1  0
 78 79  2  0
 79 80  1  0
 81 80  2  0
 82 81  1  0
 83 57  1  0
 83 88  1  0
 83 84  1  0
 84 87  1  1
 84 85  1  0
 86 84  1  0
 88 91  1  0
 89 93  1  0
 89 88  1  0
 90 89  2  0
 93 92  1  0
 95 93  1  0
 95 96  1  0
 95 94  1  0
M  ISO  4  16 100  24 100  55 101  56 101
M  END
>  <TORSDO>  (52) 
F 19

>  <SCORE>  (52) 
-13.861

>  <name>  (52) 
52

>  <ligand_id>  (52) 
52

>  <original_smiles>  (52) 
[H]c1c([H])c([H])c2c(c1[H])C([H])([H])C([H])([H])C([H])([H])C2([H])N([H])C(=O)C1([H])N(C(=O)C([H])(N([H])C(=O)C([H])(N([H])C([H])([H])[H])C([H])([H])[H])C(C([H])([H])[H])(C([H])([H])[H])C([H])([H])[H])C([H])([H])c2c([H])c(OC([H])([H])C([H])([H])c3c(C([H])([H])[H])c(C([H])([H])[H])c4c(C([H])([H])[H])c(C([H])([H])[H])c(C([H])([H])N([H])C(=O)N5C([H])([H])C([H])([H])C([H])([H])C([H])(n6nc(-c7c([H])c([H])c(Oc8c([H])c([H])c(F)c([H])c8F)c([H])c7[H])c(C(=O)N([H])[H])c6N([H])[H])C5([H])[H])n4c3C([H])([H])[H])c([H])c([H])c2C1([H])[H]

>  <smiles>  (52) 
[H]c1c([H])c([H])c2c(c1[H])C([H])([H])C([H])([H])C([H])([H])C2([H])N([H])C(=O)C1([H])N(C(=O)C([H])(N([H])C(=O)C([H])(N([H])C([H])([H])[H])C([H])([H])[H])C(C([H])([H])[H])(C([H])([H])[H])C([H])([H])[H])C([H])([H])c2c([H])c(OC([H])([H])C([H])([H])c3c(C([H])([H])[H])c(C([H])([H])[H])c4c(C([H])([H])[H])c(C([H])([H])[H])c(C([H])([H])N([H])C(=O)N5C([H])([H])C([H])([H])C([H])([H])C([H])(n6nc(-c7c([H])c([H])c(Oc8c([H])c([H])c(F)c([H])c8F)c([H])c7[H])c(C(=O)N([H])[H])c6N([H])[H])C5([H])[H])n4c3C([H])([H])[H])c([H])c([H])c2C1([H])[H]

$$$$
53:0:0
     RDKit          3D

 95105  0  0  1  0  0  0  0  0999 V2000
  -28.8670  -19.7860   18.6460 C   0  0  0  0  0  3  0  0  0  0  0  0
  -29.3550  -18.8240   21.1570 C   0  0  0  0  0  3  0  0  0  0  0  0
  -28.7820  -20.8110   19.6560 C   0  0  0  0  0  0  0  0  0  0  0  0
  -29.2380  -18.3910   18.8440 C   0  0  0  0  0  0  0  0  0  0  0  0
  -28.9580  -20.2140   20.9610 C   0  0  0  0  0  0  0  0  0  0  0  0
  -29.6500  -17.8620   20.1200 C   0  0  0  0  0  0  0  0  0  0  0  0
  -29.1430  -17.4840   17.6290 C   0  0  0  0  0  1  0  0  0  0  0  0
  -28.7310  -21.0480   22.2170 C   0  0  0  0  0  1  0  0  0  0  0  0
  -30.8970  -15.3700   19.8240 C   0  0  0  0  0  0  0  0  0  0  0  0
  -30.5400  -13.0130   18.9720 C   0  0  0  0  0  2  0  0  0  0  0  0
  -29.5750  -13.0270   17.7710 C   0  0  0  0  0  2  0  0  0  0  0  0
  -28.1450  -12.8100   18.2770 C   0  0  0  0  0  2  0  0  0  0  0  0
  -27.8100  -13.7230   19.4880 C   0  0  0  0  0  3  0  0  0  0  0  0
  -28.9310  -13.7930   20.5550 C   0  0  0  0  0  2  0  0  0  0  0  0
  -30.1680  -14.1690   19.8640 N   0  0  0  0  0  0  0  0  0  0  0  0
  -31.9820  -15.2220   19.2460 O   0  0  0  0  0  0  0  0  0  0  0  0
  -30.6150  -16.6870   20.3750 N   0  0  0  0  0  0  0  0  0  0  0  0
  -25.4850  -14.2430   20.4050 C   0  0  0  0  0  0  0  0  0  0  0  0
  -24.4490  -13.4480   20.8060 C   0  0  0  0  0  0  0  0  0  0  0  0
  -24.9140  -12.1010   20.6860 C   0  0  0  0  0  0  0  0  0  0  0  0
  -26.5130  -13.3850   20.0620 N   0  0  0  0  0  0  0  0  0  0  0  0
  -26.1850  -12.0890   20.2960 N   0  0  0  0  0  0  0  0  0  0  0  0
  -24.2010  -10.8290   20.8700 C   0  0  0  0  0  0  0  0  0  0  0  0
  -24.6170   -9.8770   21.8250 C   0  0  0  0  0  3  0  0  0  0  0  0
  -23.8990   -8.6750   22.0010 C   0  0  0  0  0  3  0  0  0  0  0  0
  -22.7500   -8.4090   21.2180 C   0  0  0  0  0  0  0  0  0  0  0  0
  -22.3540   -9.3500   20.2530 C   0  0  0  0  0  3  0  0  0  0  0  0
  -23.0720  -10.5450   20.0750 C   0  0  0  0  0  3  0  0  0  0  0  0
  -22.0070   -7.2590   21.3020 O   0  0  0  0  0  0  0  0  0  0  0  0
  -21.8060   -6.6180   22.4990 C   0  0  0  0  0  0  0  0  0  0  0  0
  -21.1850   -7.2580   23.5930 C   0  0  0  0  0  3  0  0  0  0  0  0
  -20.9350   -6.5360   24.7790 C   0  0  0  0  0  3  0  0  0  0  0  0
  -21.2940   -5.1790   24.8680 C   0  0  0  0  0  0  0  0  0  0  0  0
  -21.9070   -4.5380   23.7780 C   0  0  0  0  0  3  0  0  0  0  0  0
  -22.1590   -5.2560   22.5930 C   0  0  0  0  0  0  0  0  0  0  0  0
  -22.7310   -4.6290   21.5390 F   0  0  0  0  0  0  0  0  0  0  0  0
  -21.0420   -4.4880   26.0050 F   0  0  0  0  0  0  0  0  0  0  0  0
  -23.0700  -13.9100   21.1800 C   0  0  0  0  0  0  0  0  0  0  0  0
  -22.4180  -13.2110   22.1000 N   0  0  0  0  0  0  0  0  0  0  0  0
  -22.5850  -14.9300   20.6910 O   0  0  0  0  0  0  0  0  0  0  0  0
  -22.8270  -12.3890   22.5170 H   0  0  0  0  0  0  0  0  0  0  0  0
  -21.4940  -13.4980   22.3940 H   0  0  0  0  0  0  0  0  0  0  0  0
  -25.6320  -15.6220   20.2750 N   0  0  0  0  0  0  0  0  0  0  0  0
  -24.8690  -16.2600   20.4680 H   0  0  0  0  0  0  0  0  0  0  0  0
  -26.4690  -16.0880   19.9540 H   0  0  0  0  0  0  0  0  0  0  0  0
  -33.4730  -18.7460   20.7140 C   0  0  0  0  0  2  0  0  0  0  0  0
  -32.1620  -18.6120   21.5070 C   0  0  0  0  0  2  0  0  0  0  0  0
  -32.7680  -17.9270   19.6280 C   0  0  0  0  0  2  0  0  0  0  0  0
  -31.9690  -17.2430   20.7840 C   0  0  0  0  0  3  0  0  0  0  0  0
  -28.9410  -23.0250   18.0170 C   0  0  0  0  0  2  0  0  0  0  0  0
  -28.4280  -24.5100   17.8890 C   0  0  0  0  0  2  0  0  0  0  0  0
  -28.3840  -23.7240   20.2040 C   0  0  0  0  0  2  0  0  0  0  0  0
  -28.3180  -22.3680   19.2920 C   0  0  0  0  0  3  0  0  0  0  0  0
  -27.9620  -25.0170   19.2930 C   0  0  0  0  0  3  0  0  0  0  0  0
  -28.1990  -26.5410   19.5250 O   0  0  0  0  0  0  0  0  0  0  0  0
  -24.5120  -31.8140   23.0790 C   0  0  0  0  0  0  0  0  0  0  0  0
  -27.1230  -27.4940   19.5560 C   0  0  0  0  0  0  0  0  0  0  0  0
  -23.3000  -30.5020   21.3870 C   0  0  0  0  0  3  0  0  0  0  0  0
  -24.7370  -29.1220   19.7850 C   0  0  0  0  0  0  0  0  0  0  0  0
  -25.8310  -30.9120   21.1220 C   0  0  0  0  0  2  0  0  0  0  0  0
  -25.9320  -29.5850   20.3500 C   0  0  0  0  0  0  0  0  0  0  0  0
  -27.1300  -28.7920   20.2120 C   0  0  0  0  0  3  0  0  0  0  0  0
  -25.8960  -27.1450   18.9550 C   0  0  0  0  0  3  0  0  0  0  0  0
  -24.7240  -27.9080   19.0880 C   0  0  0  0  0  3  0  0  0  0  0  0
  -23.4850  -29.9600   19.9510 C   0  0  0  0  0  2  0  0  0  0  0  0
  -24.5720  -31.0930   21.9180 N   0  0  0  0  0  0  0  0  0  0  0  0
  -23.4400  -31.9910   23.6770 O   0  0  0  0  0  0  0  0  0  0  0  0
  -22.7170  -29.3810   22.2850 C   0  0  0  0  0  0  0  0  0  0  0  0
  -21.3980  -29.1310   22.1750 N   0  0  0  0  0  0  0  0  0  0  0  0
  -23.4520  -28.7380   23.0400 O   0  0  0  0  0  0  0  0  0  0  0  0
  -20.8610  -29.7070   21.5410 H   0  0  0  0  0  0  0  0  0  0  0  0
  -18.1200  -27.6630   22.6460 C   0  0  0  0  0  0  0  0  0  0  0  0
  -20.6600  -28.0910   22.8940 C   0  0  0  0  0  3  0  0  0  0  0  0
  -20.8540  -26.7090   22.2280 C   0  0  0  0  0  2  0  0  0  0  0  0
  -19.7600  -26.3730   21.2090 C   0  0  0  0  0  2  0  0  0  0  0  0
  -18.3810  -26.3770   21.8790 C   0  0  0  0  0  2  0  0  0  0  0  0
  -19.1900  -28.4740   23.1080 C   0  0  0  0  0  0  0  0  0  0  0  0
  -18.8930  -29.6760   23.7820 C   0  0  0  0  0  3  0  0  0  0  0  0
  -17.5600  -30.0700   24.0000 C   0  0  0  0  0  3  0  0  0  0  0  0
  -16.5040  -29.2570   23.5510 C   0  0  0  0  0  3  0  0  0  0  0  0
  -16.7860  -28.0550   22.8780 C   0  0  0  0  0  3  0  0  0  0  0  0
  -25.7850  -32.4540   23.7030 C   0  0  0  0  0  3  0  0  0  0  0  0
  -25.4510  -33.8350   24.0800 N   0  0  0  0  0  0  0  0  0  0  0  0
  -25.7100  -34.9180   23.3350 C   0  0  0  0  0  0  0  0  0  0  0  0
  -26.3320  -34.8610   22.2700 O   0  0  0  0  0  0  0  0  0  0  0  0
  -24.9060  -33.9520   24.9210 H   0  0  0  0  0  0  0  0  0  0  0  0
  -23.8970  -36.6520   23.1240 C   0  0  0  0  0  1  0  0  0  0  0  0
  -25.2010  -36.2800   23.8510 C   0  0  0  0  0  3  0  0  0  0  0  0
  -27.3450  -37.2320   24.5760 C   0  0  0  0  0  1  0  0  0  0  0  0
  -26.1850  -37.3750   23.6990 N   0  0  0  0  0  0  0  0  0  0  0  0
  -25.7530  -38.2770   23.8870 H   0  0  0  0  0  0  0  0  0  0  0  0
  -26.3330  -31.6610   24.9510 C   0  0  1  0  0  0  0  0  0  0  0  0
  -25.2620  -31.3820   26.0310 C   0  0  0  0  0  1  0  0  0  0  0  0
  -26.9310  -30.3030   24.5200 C   0  0  0  0  0  1  0  0  0  0  0  0
  -27.4830  -32.4570   25.6120 C   0  0  0  0  0  1  0  0  0  0  0  0
  1  4  2  0
  1  3  1  0
  3  5  2  0
  4  6  1  0
  5  2  1  0
  5  8  1  0
  6 17  1  0
  6  2  2  0
  7  4  1  0
  9 15  1  0
  9 17  1  0
 10 15  1  0
 11 12  1  0
 11 10  1  0
 13 12  1  0
 13 21  1  0
 13 14  1  0
 15 14  1  0
 16  9  2  0
 17 49  1  0
 18 19  2  0
 19 38  1  0
 20 19  1  0
 20 23  1  0
 21 22  1  0
 21 18  1  0
 22 20  2  0
 23 24  1  0
 24 25  2  0
 26 29  1  0
 26 25  1  0
 27 26  2  0
 28 27  1  0
 28 23  2  0
 29 30  1  0
 30 35  2  0
 30 31  1  0
 31 32  2  0
 32 33  1  0
 33 37  1  0
 34 33  2  0
 35 34  1  0
 36 35  1  0
 38 39  1  0
 39 42  1  0
 39 41  1  0
 40 38  2  0
 43 18  1  0
 43 44  1  0
 45 43  1  0
 46 47  1  0
 48 46  1  0
 48 49  1  0
 49 47  1  0
 50 53  1  0
 51 50  1  0
 51 54  1  0
 53  3  1  0
 53 52  1  0
 54 55  1  0
 54 52  1  0
 55 57  1  0
 56 67  2  0
 57 62  1  0
 58 66  1  0
 58 68  1  0
 59 65  1  0
 59 61  1  0
 60 66  1  0
 61 60  1  0
 62 61  2  0
 63 64  1  0
 63 57  2  0
 64 59  2  0
 65 58  1  0
 66 56  1  0
 68 70  2  0
 69 68  1  0
 71 69  1  0
 72 81  2  0
 72 77  1  0
 73 69  1  0
 73 77  1  0
 74 73  1  0
 75 76  1  0
 75 74  1  0
 76 72  1  0
 77 78  2  0
 78 79  1  0
 80 79  2  0
 81 80  1  0
 82 56  1  0
 82 83  1  0
 82 92  1  0
 83 86  1  0
 84 88  1  0
 84 83  1  0
 85 84  2  0
 88 87  1  0
 90 88  1  0
 90 91  1  0
 90 89  1  0
 92 95  1  1
 92 93  1  0
 94 92  1  0
M  ISO  4   9 100  17 100  54 101  55 101
M  END
>  <TORSDO>  (53) 
F 18

>  <SCORE>  (53) 
-12.588

>  <name>  (53) 
53

>  <ligand_id>  (53) 
53

>  <original_smiles>  (53) 
[H]c1c([H])c([H])c2c(c1[H])C([H])([H])C([H])([H])C([H])([H])C2([H])N([H])C(=O)C1([H])N(C(=O)C([H])(N([H])C(=O)C([H])(N([H])C([H])([H])[H])C([H])([H])[H])C(C([H])([H])[H])(C([H])([H])[H])C([H])([H])[H])C([H])([H])c2c([H])c(OC3([H])C([H])([H])C([H])([H])C([H])(c4c([H])c(C([H])([H])[H])c(N(C(=O)N5C([H])([H])C([H])([H])C([H])([H])C([H])(n6nc(-c7c([H])c([H])c(Oc8c([H])c([H])c(F)c([H])c8F)c([H])c7[H])c(C(=O)N([H])[H])c6N([H])[H])C5([H])[H])C5([H])C([H])([H])C([H])([H])C5([H])[H])c([H])c4C([H])([H])[H])C3([H])[H])c([H])c([H])c2C1([H])[H]

>  <smiles>  (53) 
[H]c1c([H])c([H])c2c(c1[H])C([H])([H])C([H])([H])C([H])([H])C2([H])N([H])C(=O)C1([H])N(C(=O)C([H])(N([H])C(=O)C([H])(N([H])C([H])([H])[H])C([H])([H])[H])C(C([H])([H])[H])(C([H])([H])[H])C([H])([H])[H])C([H])([H])c2c([H])c(OC3([H])C([H])([H])C([H])([H])C([H])(c4c([H])c(C([H])([H])[H])c(N(C(=O)N5C([H])([H])C([H])([H])C([H])([H])C([H])(n6nc(-c7c([H])c([H])c(Oc8c([H])c([H])c(F)c([H])c8F)c([H])c7[H])c(C(=O)N([H])[H])c6N([H])[H])C5([H])[H])C5([H])C([H])([H])C([H])([H])C5([H])[H])c([H])c4C([H])([H])[H])C3([H])[H])c([H])c([H])c2C1([H])[H]

$$$$
54:0:0
     RDKit          3D

101110  0  0  1  0  0  0  0  0999 V2000
  -30.5440  -19.6640   21.0940 C   0  0  0  0  0  3  0  0  0  0  0  0
  -29.5370  -18.0190   19.6090 C   0  0  0  0  0  3  0  0  0  0  0  0
  -30.2240  -20.7130   20.1840 C   0  0  0  0  0  0  0  0  0  0  0  0
  -30.2530  -18.3030   20.7910 C   0  0  0  0  0  0  0  0  0  0  0  0
  -29.1950  -19.0410   18.6980 C   0  0  0  0  0  0  0  0  0  0  0  0
  -29.6020  -20.3740   18.9520 C   0  0  0  0  0  0  0  0  0  0  0  0
  -30.7220  -22.1650   20.3750 C   0  0  0  0  0  3  0  0  0  0  0  0
  -31.3220  -22.5820   19.0110 C   0  0  0  0  0  3  0  0  0  0  0  0
  -30.1850  -22.5250   17.9580 C   0  0  0  0  0  3  0  0  0  0  0  0
  -32.5570  -21.7320   18.6260 C   0  0  0  0  0  1  0  0  0  0  0  0
  -30.6560  -22.8370   16.5330 C   0  0  0  0  0  1  0  0  0  0  0  0
  -29.4660  -21.2860   17.9240 O   0  0  0  0  0  0  0  0  0  0  0  0
  -27.5570  -17.4620   17.5110 C   0  0  0  0  0  1  0  0  0  0  0  0
  -29.4850  -18.5170   16.2480 C   0  0  0  0  0  1  0  0  0  0  0  0
  -28.4780  -18.6880   17.3920 C   0  0  0  0  0  3  0  0  0  0  0  0
  -29.6630  -23.1230   20.8620 N   0  0  0  0  0  4  0  0  0  0  0  0
  -29.5190  -22.9200   21.8390 H   0  0  0  0  0  0  0  0  0  0  0  0
  -28.8050  -22.8810   20.3930 H   0  0  0  0  0  0  0  0  0  0  0  0
  -29.9100  -24.6090   20.6980 C   0  0  0  0  0  2  0  0  0  0  0  0
  -28.5580  -25.6790   22.5990 C   0  0  0  0  0  1  0  0  0  0  0  0
  -28.7060  -25.5300   21.0780 C   0  0  0  0  0  3  0  0  0  0  0  0
  -28.8210  -26.8690   20.5030 O   0  0  0  0  0  0  0  0  0  0  0  0
  -24.6950  -32.0000   23.3100 C   0  0  0  0  0  0  0  0  0  0  0  0
  -27.6490  -27.6100   20.4070 C   0  0  0  0  0  0  0  0  0  0  0  0
  -23.6290  -30.5430   21.6230 C   0  0  0  0  0  3  0  0  0  0  0  0
  -25.2100  -29.0570   20.2780 C   0  0  0  0  0  0  0  0  0  0  0  0
  -26.1510  -30.9920   21.5490 C   0  0  0  0  0  2  0  0  0  0  0  0
  -26.3220  -29.6190   20.9210 C   0  0  0  0  0  0  0  0  0  0  0  0
  -27.5450  -28.9040   20.9790 C   0  0  0  0  0  3  0  0  0  0  0  0
  -26.5230  -27.0860   19.7320 C   0  0  0  0  0  3  0  0  0  0  0  0
  -25.3080  -27.7920   19.6780 C   0  0  0  0  0  3  0  0  0  0  0  0
  -23.9330  -29.8660   20.2600 C   0  0  0  0  0  2  0  0  0  0  0  0
  -24.8400  -31.1930   22.2200 N   0  0  0  0  0  0  0  0  0  0  0  0
  -23.5780  -32.2330   23.7930 O   0  0  0  0  0  0  0  0  0  0  0  0
  -22.9700  -29.5020   22.5580 C   0  0  0  0  0  0  0  0  0  0  0  0
  -21.6630  -29.2610   22.3620 N   0  0  0  0  0  0  0  0  0  0  0  0
  -23.6340  -28.9120   23.4150 O   0  0  0  0  0  0  0  0  0  0  0  0
  -21.1870  -29.7920   21.6460 H   0  0  0  0  0  0  0  0  0  0  0  0
  -18.3120  -27.9560   22.7240 C   0  0  0  0  0  0  0  0  0  0  0  0
  -20.8470  -28.2950   23.0980 C   0  0  0  0  0  3  0  0  0  0  0  0
  -21.0180  -26.8700   22.5220 C   0  0  0  0  0  2  0  0  0  0  0  0
  -19.9670  -26.5170   21.4630 C   0  0  0  0  0  2  0  0  0  0  0  0
  -18.5580  -26.6160   22.0530 C   0  0  0  0  0  2  0  0  0  0  0  0
  -19.3870  -28.7520   23.2000 C   0  0  0  0  0  0  0  0  0  0  0  0
  -19.1040  -30.0060   23.7830 C   0  0  0  0  0  3  0  0  0  0  0  0
  -17.7780  -30.4640   23.9010 C   0  0  0  0  0  3  0  0  0  0  0  0
  -16.7170  -29.6660   23.4410 C   0  0  0  0  0  3  0  0  0  0  0  0
  -16.9830  -28.4140   22.8580 C   0  0  0  0  0  3  0  0  0  0  0  0
  -25.9210  -32.6860   23.9890 C   0  0  0  0  0  3  0  0  0  0  0  0
  -25.5540  -34.0840   24.2540 N   0  0  0  0  0  0  0  0  0  0  0  0
  -25.8950  -35.1200   23.4760 C   0  0  0  0  0  0  0  0  0  0  0  0
  -26.6200  -35.0030   22.4830 O   0  0  0  0  0  0  0  0  0  0  0  0
  -24.9130  -34.2460   25.0160 H   0  0  0  0  0  0  0  0  0  0  0  0
  -24.1220  -36.8370   22.9890 C   0  0  0  0  0  1  0  0  0  0  0  0
  -25.3460  -36.5090   23.8590 C   0  0  0  0  0  3  0  0  0  0  0  0
  -27.4210  -37.4960   24.7250 C   0  0  0  0  0  1  0  0  0  0  0  0
  -26.3480  -37.5910   23.7390 N   0  0  0  0  0  0  0  0  0  0  0  0
  -25.9070  -38.5030   23.8370 H   0  0  0  0  0  0  0  0  0  0  0  0
  -26.3790  -31.9680   25.3160 C   0  0  1  0  0  0  0  0  0  0  0  0
  -25.2160  -31.6620   26.2890 C   0  0  0  0  0  1  0  0  0  0  0  0
  -27.0920  -30.6330   24.9970 C   0  0  0  0  0  1  0  0  0  0  0  0
  -27.4100  -32.8490   26.0600 C   0  0  0  0  0  1  0  0  0  0  0  0
  -30.7540  -17.1570   21.6960 C   0  0  0  0  0  2  0  0  0  0  0  0
  -31.0420  -14.8400   20.6670 C   0  0  0  0  0  0  0  0  0  0  0  0
  -30.7740  -12.7800   19.3190 C   0  0  0  0  0  2  0  0  0  0  0  0
  -29.8340  -13.0770   18.1310 C   0  0  0  0  0  2  0  0  0  0  0  0
  -28.3600  -12.8860   18.5370 C   0  0  0  0  0  2  0  0  0  0  0  0
  -28.0110  -13.6100   19.8650 C   0  0  0  0  0  3  0  0  0  0  0  0
  -29.0620  -13.3020   20.9550 C   0  0  0  0  0  2  0  0  0  0  0  0
  -30.3840  -13.6710   20.4250 N   0  0  0  0  0  0  0  0  0  0  0  0
  -32.1630  -15.0780   20.2080 O   0  0  0  0  0  0  0  0  0  0  0  0
  -30.3400  -15.7780   21.3410 N   0  0  0  0  0  0  0  0  0  0  0  0
  -29.4260  -15.4940   21.6590 H   0  0  0  0  0  0  0  0  0  0  0  0
  -25.5850  -14.1400   20.5360 C   0  0  0  0  0  0  0  0  0  0  0  0
  -24.5320  -13.3330   20.8730 C   0  0  0  0  0  0  0  0  0  0  0  0
  -25.0320  -11.9960   20.8350 C   0  0  0  0  0  0  0  0  0  0  0  0
  -26.6570  -13.2910   20.3120 N   0  0  0  0  0  0  0  0  0  0  0  0
  -26.3270  -11.9960   20.5500 N   0  0  0  0  0  0  0  0  0  0  0  0
  -24.3380  -10.7110   20.9950 C   0  0  0  0  0  0  0  0  0  0  0  0
  -24.7080   -9.7920   22.0010 C   0  0  0  0  0  3  0  0  0  0  0  0
  -24.0140   -8.5720   22.1480 C   0  0  0  0  0  3  0  0  0  0  0  0
  -22.9350   -8.2610   21.2850 C   0  0  0  0  0  0  0  0  0  0  0  0
  -22.5860   -9.1690   20.2700 C   0  0  0  0  0  3  0  0  0  0  0  0
  -23.2810  -10.3810   20.1220 C   0  0  0  0  0  3  0  0  0  0  0  0
  -22.2190   -7.0900   21.3360 O   0  0  0  0  0  0  0  0  0  0  0  0
  -21.9940   -6.4340   22.5210 C   0  0  0  0  0  0  0  0  0  0  0  0
  -21.3200   -7.0520   23.5970 C   0  0  0  0  0  3  0  0  0  0  0  0
  -21.0500   -6.3200   24.7700 C   0  0  0  0  0  3  0  0  0  0  0  0
  -21.4400   -4.9700   24.8650 C   0  0  0  0  0  0  0  0  0  0  0  0
  -22.1050   -4.3520   23.7910 C   0  0  0  0  0  3  0  0  0  0  0  0
  -22.3780   -5.0820   22.6210 C   0  0  0  0  0  0  0  0  0  0  0  0
  -23.0010   -4.4760   21.5810 F   0  0  0  0  0  0  0  0  0  0  0  0
  -21.1720   -4.2640   25.9880 F   0  0  0  0  0  0  0  0  0  0  0  0
  -23.1160  -13.7680   21.1240 C   0  0  0  0  0  0  0  0  0  0  0  0
  -22.3980  -13.0520   21.9820 N   0  0  0  0  0  0  0  0  0  0  0  0
  -22.6540  -14.7780   20.5950 O   0  0  0  0  0  0  0  0  0  0  0  0
  -22.7830  -12.2350   22.4330 H   0  0  0  0  0  0  0  0  0  0  0  0
  -21.4500  -13.3260   22.1930 H   0  0  0  0  0  0  0  0  0  0  0  0
  -25.7170  -15.5160   20.3870 N   0  0  0  0  0  0  0  0  0  0  0  0
  -24.9310  -16.1480   20.4920 H   0  0  0  0  0  0  0  0  0  0  0  0
  -26.5610  -15.9860   20.0910 H   0  0  0  0  0  0  0  0  0  0  0  0
  2  4  2  0
  3  7  1  0
  3  1  2  0
  4  1  1  0
  4 63  1  0
  5  6  2  0
  5  2  1  0
  6  3  1  0
  7 16  1  0
  8 10  1  0
  8  7  1  0
  9 11  1  0
  9  8  1  0
 12  9  1  0
 12  6  1  0
 14 15  1  0
 15 13  1  0
 15  5  1  0
 16 17  1  0
 18 16  1  0
 19 16  1  0
 19 21  1  0
 21 20  1  0
 22 21  1  0
 23 34  2  0
 24 22  1  0
 24 29  1  0
 25 33  1  0
 25 35  1  0
 26 28  1  0
 27 33  1  0
 28 29  2  0
 28 27  1  0
 30 24  2  0
 31 30  1  0
 31 26  2  0
 32 26  1  0
 32 25  1  0
 33 23  1  0
 35 37  2  0
 36 35  1  0
 38 36  1  0
 39 48  2  0
 39 44  1  0
 40 36  1  0
 40 44  1  0
 41 40  1  0
 42 43  1  0
 42 41  1  0
 43 39  1  0
 44 45  2  0
 45 46  1  0
 47 46  2  0
 48 47  1  0
 49 23  1  0
 49 50  1  0
 49 59  1  0
 50 53  1  0
 51 55  1  0
 51 50  1  0
 52 51  2  0
 55 54  1  0
 57 58  1  0
 57 55  1  0
 57 56  1  0
 59 62  1  1
 59 60  1  0
 61 59  1  0
 64 72  1  0
 65 70  1  0
 66 67  1  0
 66 65  1  0
 68 67  1  0
 68 77  1  0
 68 69  1  0
 70 64  1  0
 70 69  1  0
 71 64  2  0
 72 73  1  0
 72 63  1  0
 74 75  2  0
 75 94  1  0
 76 75  1  0
 76 79  1  0
 77 74  1  0
 77 78  1  0
 78 76  2  0
 79 80  1  0
 80 81  2  0
 82 85  1  0
 82 81  1  0
 83 82  2  0
 84 83  1  0
 84 79  2  0
 85 86  1  0
 86 91  2  0
 86 87  1  0
 87 88  2  0
 88 89  1  0
 89 93  1  0
 90 89  2  0
 91 90  1  0
 92 91  1  0
 94 95  1  0
 95 98  1  0
 95 97  1  0
 96 94  2  0
 99100  1  0
 99 74  1  0
101 99  1  0
M  ISO  4  21 101  22 101  64 100  72 100
M  END
>  <TORSDO>  (54) 
F 21

>  <SCORE>  (54) 
-12.432

>  <name>  (54) 
54

>  <ligand_id>  (54) 
54

>  <original_smiles>  (54) 
[H]c1c([H])c([H])c2c(c1[H])C([H])([H])C([H])([H])C([H])([H])C2([H])N([H])C(=O)C1([H])N(C(=O)C([H])(N([H])C(=O)C([H])(N([H])C([H])([H])[H])C([H])([H])[H])C(C([H])([H])[H])(C([H])([H])[H])C([H])([H])[H])C([H])([H])c2c([H])c(OC([H])(C([H])([H])[H])C([H])([H])[N+]([H])([H])C3([H])c4c([H])c(C([H])([H])N([H])C(=O)N5C([H])([H])C([H])([H])C([H])([H])C([H])(n6nc(-c7c([H])c([H])c(Oc8c([H])c([H])c(F)c([H])c8F)c([H])c7[H])c(C(=O)N([H])[H])c6N([H])[H])C5([H])[H])c([H])c(C([H])(C([H])([H])[H])C([H])([H])[H])c4OC([H])(C([H])([H])[H])C3([H])C([H])([H])[H])c([H])c([H])c2C1([H])[H]

>  <smiles>  (54) 
[H]c1c([H])c([H])c2c(c1[H])C([H])([H])C([H])([H])C([H])([H])C2([H])N([H])C(=O)C1([H])N(C(=O)C([H])(N([H])C(=O)C([H])(N([H])C([H])([H])[H])C([H])([H])[H])C(C([H])([H])[H])(C([H])([H])[H])C([H])([H])[H])C([H])([H])c2c([H])c(OC([H])(C([H])([H])[H])C([H])([H])[N+]([H])([H])C3([H])c4c([H])c(C([H])([H])N([H])C(=O)N5C([H])([H])C([H])([H])C([H])([H])C([H])(n6nc(-c7c([H])c([H])c(Oc8c([H])c([H])c(F)c([H])c8F)c([H])c7[H])c(C(=O)N([H])[H])c6N([H])[H])C5([H])[H])c([H])c(C([H])(C([H])([H])[H])C([H])([H])[H])c4OC([H])(C([H])([H])[H])C3([H])C([H])([H])[H])c([H])c([H])c2C1([H])[H]

$$$$
55:0:0
     RDKit          3D

 97106  0  0  1  0  0  0  0  0999 V2000
  -30.0150  -23.4160   21.0400 C   0  0  0  0  0  3  0  0  0  0  0  0
  -28.1290  -23.0190   19.6130 C   0  0  0  0  0  3  0  0  0  0  0  0
  -29.7860  -21.1840   19.9480 C   0  0  0  0  0  0  0  0  0  0  0  0
  -28.8210  -23.9110   20.4670 C   0  0  0  0  0  0  0  0  0  0  0  0
  -30.4910  -22.0930   20.8000 C   0  0  0  0  0  0  0  0  0  0  0  0
  -28.5920  -21.6890   19.3500 C   0  0  0  0  0  0  0  0  0  0  0  0
  -31.7810  -21.6790   21.4920 C   0  0  0  0  0  1  0  0  0  0  0  0
  -30.6500  -17.0420   18.3280 C   0  0  0  0  0  2  0  0  0  0  0  0
  -31.3510  -18.2730   17.7300 C   0  0  0  0  0  2  0  0  0  0  0  0
  -29.7610  -18.4490   20.2230 C   0  0  0  0  0  2  0  0  0  0  0  0
  -30.3790  -19.7610   19.5780 C   0  0  0  0  0  3  0  0  0  0  0  0
  -30.5950  -17.1330   19.8730 C   0  0  0  0  0  3  0  0  0  0  0  0
  -30.5910  -19.5790   18.0490 C   0  0  0  0  0  3  0  0  0  0  0  0
  -30.8870  -14.6360   20.1960 C   0  0  0  0  0  0  0  0  0  0  0  0
  -30.4850  -12.4700   19.0520 C   0  0  0  0  0  2  0  0  0  0  0  0
  -29.4990  -12.6690   17.8830 C   0  0  0  0  0  2  0  0  0  0  0  0
  -28.0490  -12.5160   18.3800 C   0  0  0  0  0  2  0  0  0  0  0  0
  -27.7630  -13.3410   19.6640 C   0  0  0  0  0  3  0  0  0  0  0  0
  -28.8720  -13.1520   20.7200 C   0  0  0  0  0  2  0  0  0  0  0  0
  -30.1560  -13.4800   20.0820 N   0  0  0  0  0  0  0  0  0  0  0  0
  -32.0310  -14.6950   19.7430 O   0  0  0  0  0  0  0  0  0  0  0  0
  -30.0400  -15.9880   21.9830 C   0  0  0  0  0  1  0  0  0  0  0  0
  -30.2430  -15.8100   20.5410 N   0  0  0  0  0  0  0  0  0  0  0  0
  -25.4100  -13.9280   20.5060 C   0  0  0  0  0  0  0  0  0  0  0  0
  -24.3540  -13.1470   20.8950 C   0  0  0  0  0  0  0  0  0  0  0  0
  -24.8080  -11.7970   20.8130 C   0  0  0  0  0  0  0  0  0  0  0  0
  -26.4380  -13.0500   20.2060 N   0  0  0  0  0  0  0  0  0  0  0  0
  -26.0860  -11.7620   20.4540 N   0  0  0  0  0  0  0  0  0  0  0  0
  -24.0830  -10.5330   20.9970 C   0  0  0  0  0  0  0  0  0  0  0  0
  -24.5180   -9.5610   21.9270 C   0  0  0  0  0  3  0  0  0  0  0  0
  -23.7940   -8.3650   22.1040 C   0  0  0  0  0  3  0  0  0  0  0  0
  -22.6190   -8.1280   21.3500 C   0  0  0  0  0  0  0  0  0  0  0  0
  -22.2010   -9.0880   20.4120 C   0  0  0  0  0  3  0  0  0  0  0  0
  -22.9280  -10.2770   20.2320 C   0  0  0  0  0  3  0  0  0  0  0  0
  -21.8660   -6.9810   21.4340 O   0  0  0  0  0  0  0  0  0  0  0  0
  -21.7800   -6.2610   22.5990 C   0  0  0  0  0  0  0  0  0  0  0  0
  -21.2750   -6.8300   23.7900 C   0  0  0  0  0  3  0  0  0  0  0  0
  -21.1360   -6.0340   24.9450 C   0  0  0  0  0  3  0  0  0  0  0  0
  -21.4940   -4.6720   24.9090 C   0  0  0  0  0  0  0  0  0  0  0  0
  -21.9930   -4.1050   23.7240 C   0  0  0  0  0  3  0  0  0  0  0  0
  -22.1330   -4.8970   22.5710 C   0  0  0  0  0  0  0  0  0  0  0  0
  -22.5930   -4.3410   21.4250 F   0  0  0  0  0  0  0  0  0  0  0  0
  -21.3560   -3.9060   26.0160 F   0  0  0  0  0  0  0  0  0  0  0  0
  -22.9710  -13.6240   21.2330 C   0  0  0  0  0  0  0  0  0  0  0  0
  -22.2740  -12.9080   22.1070 N   0  0  0  0  0  0  0  0  0  0  0  0
  -22.5190  -14.6650   20.7590 O   0  0  0  0  0  0  0  0  0  0  0  0
  -22.6540  -12.0630   22.5100 H   0  0  0  0  0  0  0  0  0  0  0  0
  -21.3490  -13.2080   22.3780 H   0  0  0  0  0  0  0  0  0  0  0  0
  -25.5730  -15.3000   20.3630 N   0  0  0  0  0  0  0  0  0  0  0  0
  -24.8120  -15.9490   20.5340 H   0  0  0  0  0  0  0  0  0  0  0  0
  -26.4210  -15.7530   20.0450 H   0  0  0  0  0  0  0  0  0  0  0  0
  -31.4000  -20.8450   16.1700 C   0  0  0  0  0  1  0  0  0  0  0  0
  -31.3240  -20.7110   17.5840 O   0  0  0  0  0  0  0  0  0  0  0  0
  -27.3950  -21.4450   17.3210 C   0  0  0  0  0  1  0  0  0  0  0  0
  -27.8690  -20.8580   18.5290 O   0  0  0  0  0  0  0  0  0  0  0  0
  -28.1700  -25.2480   20.9620 C   0  0  0  0  0  2  0  0  0  0  0  0
  -28.4080  -26.5320   20.2890 O   0  0  0  0  0  0  0  0  0  0  0  0
  -24.5790  -31.9020   23.2420 C   0  0  0  0  0  0  0  0  0  0  0  0
  -27.2940  -27.3760   20.2540 C   0  0  0  0  0  0  0  0  0  0  0  0
  -23.4180  -30.4860   21.5830 C   0  0  0  0  0  3  0  0  0  0  0  0
  -24.9120  -28.9400   20.1980 C   0  0  0  0  0  0  0  0  0  0  0  0
  -25.9570  -30.8270   21.4510 C   0  0  0  0  0  2  0  0  0  0  0  0
  -26.0630  -29.4490   20.8140 C   0  0  0  0  0  0  0  0  0  0  0  0
  -27.2620  -28.6790   20.8330 C   0  0  0  0  0  3  0  0  0  0  0  0
  -26.1240  -26.9080   19.6220 C   0  0  0  0  0  3  0  0  0  0  0  0
  -24.9420  -27.6720   19.5960 C   0  0  0  0  0  3  0  0  0  0  0  0
  -23.6650  -29.8000   20.2140 C   0  0  0  0  0  2  0  0  0  0  0  0
  -24.6690  -31.0880   22.1490 N   0  0  0  0  0  0  0  0  0  0  0  0
  -23.4830  -32.1760   23.7510 O   0  0  0  0  0  0  0  0  0  0  0  0
  -22.7410  -29.4720   22.5340 C   0  0  0  0  0  0  0  0  0  0  0  0
  -21.4170  -29.2980   22.3860 N   0  0  0  0  0  0  0  0  0  0  0  0
  -23.4080  -28.8440   23.3620 O   0  0  0  0  0  0  0  0  0  0  0  0
  -20.9410  -29.8540   21.6890 H   0  0  0  0  0  0  0  0  0  0  0  0
  -18.0250  -28.1280   22.8460 C   0  0  0  0  0  0  0  0  0  0  0  0
  -20.5830  -28.3650   23.1460 C   0  0  0  0  0  3  0  0  0  0  0  0
  -20.6800  -26.9340   22.5650 C   0  0  0  0  0  2  0  0  0  0  0  0
  -19.5870  -26.6240   21.5380 C   0  0  0  0  0  2  0  0  0  0  0  0
  -18.1990  -26.7810   22.1650 C   0  0  0  0  0  2  0  0  0  0  0  0
  -19.1450  -28.8790   23.2910 C   0  0  0  0  0  0  0  0  0  0  0  0
  -18.9300  -30.1420   23.8830 C   0  0  0  0  0  3  0  0  0  0  0  0
  -17.6280  -30.6530   24.0370 C   0  0  0  0  0  3  0  0  0  0  0  0
  -16.5210  -29.8970   23.6120 C   0  0  0  0  0  3  0  0  0  0  0  0
  -16.7220  -28.6360   23.0210 C   0  0  0  0  0  3  0  0  0  0  0  0
  -25.8460  -32.5430   23.8890 C   0  0  0  0  0  3  0  0  0  0  0  0
  -26.3350  -31.7830   25.1820 C   0  0  1  0  0  0  0  0  0  0  0  0
  -25.2160  -31.5400   26.2210 C   0  0  0  0  0  1  0  0  0  0  0  0
  -26.9360  -30.4070   24.8120 C   0  0  0  0  0  1  0  0  0  0  0  0
  -27.4650  -32.5870   25.8680 C   0  0  0  0  0  1  0  0  0  0  0  0
  -25.5250  -33.9420   24.2030 N   0  0  0  0  0  0  0  0  0  0  0  0
  -25.8740  -34.9930   23.4470 C   0  0  0  0  0  0  0  0  0  0  0  0
  -26.5730  -34.8860   22.4360 O   0  0  0  0  0  0  0  0  0  0  0  0
  -24.9090  -34.0990   24.9870 H   0  0  0  0  0  0  0  0  0  0  0  0
  -24.1610  -36.7820   23.0220 C   0  0  0  0  0  1  0  0  0  0  0  0
  -25.3680  -36.3800   23.8830 C   0  0  0  0  0  3  0  0  0  0  0  0
  -27.4700  -37.2610   24.7970 C   0  0  0  0  0  1  0  0  0  0  0  0
  -26.4010  -37.4370   23.8180 N   0  0  0  0  0  0  0  0  0  0  0  0
  -25.9860  -38.3530   23.9640 H   0  0  0  0  0  0  0  0  0  0  0  0
  2  4  1  0
  3  5  2  0
  4 56  1  0
  4  1  2  0
  5  1  1  0
  5  7  1  0
  6  2  2  0
  6  3  1  0
  8 12  1  0
  9 13  1  0
  9  8  1  0
 11  3  1  0
 11 10  1  0
 12 10  1  0
 12 23  1  0
 13 53  1  0
 13 11  1  0
 14 23  1  0
 15 20  1  0
 16 17  1  0
 16 15  1  0
 18 17  1  0
 18 27  1  0
 18 19  1  0
 20 14  1  0
 20 19  1  0
 21 14  2  0
 23 22  1  0
 24 25  2  0
 25 44  1  0
 26 25  1  0
 26 29  1  0
 27 28  1  0
 27 24  1  0
 28 26  2  0
 29 30  1  0
 30 31  2  0
 32 35  1  0
 32 31  1  0
 33 32  2  0
 34 33  1  0
 34 29  2  0
 35 36  1  0
 36 37  1  0
 37 38  2  0
 39 38  1  0
 39 43  1  0
 40 39  2  0
 41 36  2  0
 41 40  1  0
 42 41  1  0
 44 45  1  0
 45 48  1  0
 45 47  1  0
 46 44  2  0
 49 24  1  0
 49 50  1  0
 51 49  1  0
 52 53  1  0
 54 55  1  0
 55  6  1  0
 57 56  1  0
 58 69  2  0
 59 57  1  0
 59 64  1  0
 60 68  1  0
 60 70  1  0
 61 67  1  0
 61 63  1  0
 62 68  1  0
 63 64  2  0
 63 62  1  0
 65 59  2  0
 66 65  1  0
 66 61  2  0
 67 60  1  0
 68 58  1  0
 70 72  2  0
 71 70  1  0
 73 71  1  0
 74 83  2  0
 74 79  1  0
 75 71  1  0
 75 79  1  0
 76 75  1  0
 77 78  1  0
 77 76  1  0
 78 74  1  0
 79 80  2  0
 80 81  1  0
 82 81  2  0
 83 82  1  0
 84 58  1  0
 84 89  1  0
 84 85  1  0
 85 88  1  1
 85 86  1  0
 87 85  1  0
 89 92  1  0
 90 94  1  0
 90 89  1  0
 91 90  2  0
 94 93  1  0
 96 94  1  0
 96 97  1  0
 96 95  1  0
M  ISO  4  14 100  23 100  56 101  57 101
M  END
>  <TORSDO>  (55) 
F 20

>  <SCORE>  (55) 
-13.595

>  <name>  (55) 
55

>  <ligand_id>  (55) 
55

>  <original_smiles>  (55) 
[H]c1c([H])c([H])c2c(c1[H])C([H])([H])C([H])([H])C([H])([H])C2([H])N([H])C(=O)C1([H])N(C(=O)C([H])(N([H])C(=O)C([H])(N([H])C([H])([H])[H])C([H])([H])[H])C(C([H])([H])[H])(C([H])([H])[H])C([H])([H])[H])C([H])([H])c2c([H])c(OC([H])([H])c3c([H])c(OC([H])([H])[H])c(C4([H])C([H])([H])C([H])(N(C(=O)N5C([H])([H])C([H])([H])C([H])([H])C([H])(n6nc(-c7c([H])c([H])c(Oc8c([H])c([H])c(F)c([H])c8F)c([H])c7[H])c(C(=O)N([H])[H])c6N([H])[H])C5([H])[H])C([H])([H])[H])C([H])([H])C([H])([H])C4([H])OC([H])([H])[H])c(C([H])([H])[H])c3[H])c([H])c([H])c2C1([H])[H]

>  <smiles>  (55) 
[H]c1c([H])c([H])c2c(c1[H])C([H])([H])C([H])([H])C([H])([H])C2([H])N([H])C(=O)C1([H])N(C(=O)C([H])(N([H])C(=O)C([H])(N([H])C([H])([H])[H])C([H])([H])[H])C(C([H])([H])[H])(C([H])([H])[H])C([H])([H])[H])C([H])([H])c2c([H])c(OC([H])([H])c3c([H])c(OC([H])([H])[H])c(C4([H])C([H])([H])C([H])(N(C(=O)N5C([H])([H])C([H])([H])C([H])([H])C([H])(n6nc(-c7c([H])c([H])c(Oc8c([H])c([H])c(F)c([H])c8F)c([H])c7[H])c(C(=O)N([H])[H])c6N([H])[H])C5([H])[H])C([H])([H])[H])C([H])([H])C([H])([H])C4([H])OC([H])([H])[H])c(C([H])([H])[H])c3[H])c([H])c([H])c2C1([H])[H]

$$$$
56:0:0
     RDKit          3D

 92100  0  0  1  0  0  0  0  0999 V2000
  -27.0990  -23.4460   19.2870 C   0  0  0  0  0  3  0  0  0  0  0  0
  -26.6730  -22.1370   19.0070 C   0  0  0  0  0  0  0  0  0  0  0  0
  -28.3660  -23.7500   19.8040 C   0  0  0  0  0  0  0  0  0  0  0  0
  -27.4990  -21.0040   19.2750 C   0  0  0  0  0  0  0  0  0  0  0  0
  -29.2190  -22.5840   20.0640 C   0  0  0  0  0  0  0  0  0  0  0  0
  -28.8270  -21.1840   19.8110 C   0  0  0  0  0  0  0  0  0  0  0  0
  -25.3000  -22.0190   18.3470 C   0  0  0  0  0  1  0  0  0  0  0  0
  -26.8900  -19.6290   18.9730 C   0  0  0  0  0  1  0  0  0  0  0  0
  -30.6150  -22.8540   20.6040 C   0  0  0  0  0  1  0  0  0  0  0  0
  -28.8000  -25.3070   19.7460 C   0  0  0  0  0  2  0  0  0  0  0  0
  -28.3370  -26.4260   20.6420 O   0  0  0  0  0  0  0  0  0  0  0  0
  -24.5660  -31.9680   23.3560 C   0  0  0  0  0  0  0  0  0  0  0  0
  -27.2480  -27.3070   20.4460 C   0  0  0  0  0  0  0  0  0  0  0  0
  -23.4030  -30.5460   21.7030 C   0  0  0  0  0  3  0  0  0  0  0  0
  -24.8930  -28.9650   20.3290 C   0  0  0  0  0  0  0  0  0  0  0  0
  -25.9510  -30.8320   21.6030 C   0  0  0  0  0  2  0  0  0  0  0  0
  -26.0370  -29.4390   20.9810 C   0  0  0  0  0  0  0  0  0  0  0  0
  -27.2020  -28.6110   21.0510 C   0  0  0  0  0  3  0  0  0  0  0  0
  -26.1060  -26.9300   19.7110 C   0  0  0  0  0  3  0  0  0  0  0  0
  -24.9330  -27.7160   19.6860 C   0  0  0  0  0  3  0  0  0  0  0  0
  -23.6480  -29.8330   20.3450 C   0  0  0  0  0  2  0  0  0  0  0  0
  -24.6560  -31.1350   22.2770 N   0  0  0  0  0  0  0  0  0  0  0  0
  -23.4680  -32.2640   23.8550 O   0  0  0  0  0  0  0  0  0  0  0  0
  -22.7100  -29.5540   22.6630 C   0  0  0  0  0  0  0  0  0  0  0  0
  -21.3860  -29.3840   22.5050 N   0  0  0  0  0  0  0  0  0  0  0  0
  -23.3660  -28.9330   23.5030 O   0  0  0  0  0  0  0  0  0  0  0  0
  -20.9120  -29.9410   21.8060 H   0  0  0  0  0  0  0  0  0  0  0  0
  -17.9880  -28.2370   22.9680 C   0  0  0  0  0  0  0  0  0  0  0  0
  -20.5450  -28.4570   23.2650 C   0  0  0  0  0  3  0  0  0  0  0  0
  -20.6370  -27.0260   22.6880 C   0  0  0  0  0  2  0  0  0  0  0  0
  -19.5410  -26.7150   21.6640 C   0  0  0  0  0  2  0  0  0  0  0  0
  -18.1520  -26.8850   22.2890 C   0  0  0  0  0  2  0  0  0  0  0  0
  -19.1140  -28.9810   23.4090 C   0  0  0  0  0  0  0  0  0  0  0  0
  -18.9120  -30.2470   23.9980 C   0  0  0  0  0  3  0  0  0  0  0  0
  -17.6150  -30.7680   24.1570 C   0  0  0  0  0  3  0  0  0  0  0  0
  -16.5000  -30.0220   23.7330 C   0  0  0  0  0  3  0  0  0  0  0  0
  -16.6890  -28.7590   23.1430 C   0  0  0  0  0  3  0  0  0  0  0  0
  -25.8330  -32.6060   24.0030 C   0  0  0  0  0  3  0  0  0  0  0  0
  -26.2860  -31.8790   25.3280 C   0  0  1  0  0  0  0  0  0  0  0  0
  -25.1340  -31.6780   26.3410 C   0  0  0  0  0  1  0  0  0  0  0  0
  -26.8950  -30.4900   25.0210 C   0  0  0  0  0  1  0  0  0  0  0  0
  -27.3910  -32.7080   26.0260 C   0  0  0  0  0  1  0  0  0  0  0  0
  -25.5300  -34.0190   24.2730 N   0  0  0  0  0  0  0  0  0  0  0  0
  -25.8950  -35.0430   23.4890 C   0  0  0  0  0  0  0  0  0  0  0  0
  -26.5860  -34.8980   22.4780 O   0  0  0  0  0  0  0  0  0  0  0  0
  -24.9080  -34.2040   25.0480 H   0  0  0  0  0  0  0  0  0  0  0  0
  -24.2010  -36.8600   23.0450 C   0  0  0  0  0  1  0  0  0  0  0  0
  -25.4180  -36.4520   23.8890 C   0  0  0  0  0  3  0  0  0  0  0  0
  -27.5340  -37.3570   24.7550 C   0  0  0  0  0  1  0  0  0  0  0  0
  -26.4680  -37.4860   23.7660 N   0  0  0  0  0  0  0  0  0  0  0  0
  -26.0670  -38.4170   23.8490 H   0  0  0  0  0  0  0  0  0  0  0  0
  -29.7530  -20.1020   20.0800 O   0  0  0  0  0  0  0  0  0  0  0  0
  -29.5400  -18.6230   19.8520 C   0  0  0  0  0  3  0  0  0  0  0  0
  -30.6050  -17.4890   20.3160 C   0  0  0  0  0  3  0  0  0  0  0  0
  -30.9150  -14.8730   19.9710 C   0  0  0  0  0  0  0  0  0  0  0  0
  -30.6370  -12.5970   18.9740 C   0  0  0  0  0  2  0  0  0  0  0  0
  -29.6220  -12.6290   17.8090 C   0  0  0  0  0  2  0  0  0  0  0  0
  -28.1770  -12.4830   18.3190 C   0  0  0  0  0  2  0  0  0  0  0  0
  -27.8770  -13.4170   19.5160 C   0  0  0  0  0  3  0  0  0  0  0  0
  -28.9860  -13.3290   20.5860 C   0  0  0  0  0  2  0  0  0  0  0  0
  -30.2610  -13.6610   19.9330 N   0  0  0  0  0  0  0  0  0  0  0  0
  -32.0730  -14.9660   19.5570 O   0  0  0  0  0  0  0  0  0  0  0  0
  -30.1930  -16.0090   20.3060 N   0  0  0  0  0  0  0  0  0  0  0  0
  -29.2610  -15.8200   20.6450 H   0  0  0  0  0  0  0  0  0  0  0  0
  -25.5620  -14.0730   20.4110 C   0  0  0  0  0  0  0  0  0  0  0  0
  -24.4930  -13.3240   20.8280 C   0  0  0  0  0  0  0  0  0  0  0  0
  -24.9030  -11.9610   20.7240 C   0  0  0  0  0  0  0  0  0  0  0  0
  -26.5530  -13.1660   20.0780 N   0  0  0  0  0  0  0  0  0  0  0  0
  -26.1690  -11.8880   20.3330 N   0  0  0  0  0  0  0  0  0  0  0  0
  -24.1440  -10.7180   20.9170 C   0  0  0  0  0  0  0  0  0  0  0  0
  -24.5520   -9.7400   21.8500 C   0  0  0  0  0  3  0  0  0  0  0  0
  -23.7940   -8.5620   22.0300 C   0  0  0  0  0  3  0  0  0  0  0  0
  -22.6120   -8.3550   21.2790 C   0  0  0  0  0  0  0  0  0  0  0  0
  -22.2240   -9.3220   20.3340 C   0  0  0  0  0  3  0  0  0  0  0  0
  -22.9810  -10.4910   20.1530 C   0  0  0  0  0  3  0  0  0  0  0  0
  -21.8300   -7.2290   21.3710 O   0  0  0  0  0  0  0  0  0  0  0  0
  -21.7150   -6.5270   22.5440 C   0  0  0  0  0  0  0  0  0  0  0  0
  -21.1820   -7.1120   23.7140 C   0  0  0  0  0  3  0  0  0  0  0  0
  -21.0170   -6.3330   24.8770 C   0  0  0  0  0  3  0  0  0  0  0  0
  -21.3750   -4.9710   24.8690 C   0  0  0  0  0  0  0  0  0  0  0  0
  -21.9010   -4.3870   23.7030 C   0  0  0  0  0  3  0  0  0  0  0  0
  -22.0660   -5.1610   22.5430 C   0  0  0  0  0  0  0  0  0  0  0  0
  -22.5550   -4.5900   21.4160 F   0  0  0  0  0  0  0  0  0  0  0  0
  -21.2080   -4.2200   25.9820 F   0  0  0  0  0  0  0  0  0  0  0  0
  -23.1350  -13.8400   21.2020 C   0  0  0  0  0  0  0  0  0  0  0  0
  -22.4380  -13.1430   22.0960 N   0  0  0  0  0  0  0  0  0  0  0  0
  -22.7000  -14.8900   20.7340 O   0  0  0  0  0  0  0  0  0  0  0  0
  -22.7990  -12.2880   22.4940 H   0  0  0  0  0  0  0  0  0  0  0  0
  -21.5280  -13.4740   22.3890 H   0  0  0  0  0  0  0  0  0  0  0  0
  -25.7710  -15.4400   20.2610 N   0  0  0  0  0  0  0  0  0  0  0  0
  -25.0580  -16.1330   20.4580 H   0  0  0  0  0  0  0  0  0  0  0  0
  -26.5970  -15.8370   19.8340 H   0  0  0  0  0  0  0  0  0  0  0  0
  1  3  1  0
  2  4  1  0
  2  1  2  0
  3  5  2  0
  4  6  2  0
  5  9  1  0
  6  5  1  0
  6 52  1  0
  7  2  1  0
  8  4  1  0
 10  3  1  0
 10 11  1  0
 12 23  2  0
 13 11  1  0
 13 18  1  0
 14 22  1  0
 14 24  1  0
 15 21  1  0
 15 17  1  0
 16 22  1  0
 17 18  2  0
 17 16  1  0
 19 13  2  0
 20 19  1  0
 20 15  2  0
 21 14  1  0
 22 12  1  0
 24 26  2  0
 25 24  1  0
 27 25  1  0
 28 37  2  0
 28 33  1  0
 29 25  1  0
 29 33  1  0
 30 29  1  0
 31 32  1  0
 31 30  1  0
 32 28  1  0
 33 34  2  0
 34 35  1  0
 36 35  2  0
 37 36  1  0
 38 12  1  0
 38 43  1  0
 38 39  1  0
 39 42  1  1
 39 40  1  0
 41 39  1  0
 43 46  1  0
 44 48  1  0
 44 43  1  0
 45 44  2  0
 48 47  1  0
 50 51  1  0
 50 48  1  0
 50 49  1  0
 53 52  1  0
 53 54  2  0
 55 63  1  0
 56 61  1  0
 57 58  1  0
 57 56  1  0
 59 58  1  0
 59 68  1  0
 59 60  1  0
 61 55  1  0
 61 60  1  0
 62 55  2  0
 63 54  1  0
 63 64  1  0
 65 66  2  0
 66 85  1  0
 67 66  1  0
 67 70  1  0
 68 69  1  0
 68 65  1  0
 69 67  2  0
 70 71  1  0
 71 72  2  0
 73 76  1  0
 73 72  1  0
 74 73  2  0
 75 74  1  0
 75 70  2  0
 76 77  1  0
 77 78  1  0
 78 79  2  0
 80 79  1  0
 80 84  1  0
 81 80  2  0
 82 77  2  0
 82 81  1  0
 83 82  1  0
 85 86  1  0
 86 89  1  0
 86 88  1  0
 87 85  2  0
 90 65  1  0
 90 91  1  0
 92 90  1  0
M  ISO  4  10 101  11 101  55 100  63 100
M  END
>  <TORSDO>  (56) 
F 20

>  <SCORE>  (56) 
-13.501

>  <name>  (56) 
56

>  <ligand_id>  (56) 
56

>  <original_smiles>  (56) 
[H]c1c([H])c([H])c2c(c1[H])C([H])([H])C([H])([H])C([H])([H])C2([H])N([H])C(=O)C1([H])N(C(=O)C([H])(N([H])C(=O)C([H])(N([H])C([H])([H])[H])C([H])([H])[H])C(C([H])([H])[H])(C([H])([H])[H])C([H])([H])[H])C([H])([H])c2c([H])c(OC([H])([H])c3c([H])c(C([H])([H])[H])c(C([H])([H])[H])c(OC([H])([H])C([H])([H])N([H])C(=O)N4C([H])([H])C([H])([H])C([H])([H])C([H])(n5nc(-c6c([H])c([H])c(Oc7c([H])c([H])c(F)c([H])c7F)c([H])c6[H])c(C(=O)N([H])[H])c5N([H])[H])C4([H])[H])c3C([H])([H])[H])c([H])c([H])c2C1([H])[H]

>  <smiles>  (56) 
[H]c1c([H])c([H])c2c(c1[H])C([H])([H])C([H])([H])C([H])([H])C2([H])N([H])C(=O)C1([H])N(C(=O)C([H])(N([H])C(=O)C([H])(N([H])C([H])([H])[H])C([H])([H])[H])C(C([H])([H])[H])(C([H])([H])[H])C([H])([H])[H])C([H])([H])c2c([H])c(OC([H])([H])c3c([H])c(C([H])([H])[H])c(C([H])([H])[H])c(OC([H])([H])C([H])([H])N([H])C(=O)N4C([H])([H])C([H])([H])C([H])([H])C([H])(n5nc(-c6c([H])c([H])c(Oc7c([H])c([H])c(F)c([H])c7F)c([H])c6[H])c(C(=O)N([H])[H])c5N([H])[H])C4([H])[H])c3C([H])([H])[H])c([H])c([H])c2C1([H])[H]

$$$$
57:0:0
     RDKit          3D

 93102  0  0  1  0  0  0  0  0999 V2000
  -30.5420  -23.7160   19.8770 C   0  0  0  0  0  2  0  0  0  0  0  0
  -28.4050  -22.8870   20.9670 C   0  0  0  0  0  2  0  0  0  0  0  0
  -29.8190  -24.9170   19.2280 C   0  0  0  0  0  2  0  0  0  0  0  0
  -28.2000  -24.4260   21.1470 C   0  0  0  0  0  2  0  0  0  0  0  0
  -29.6290  -22.4740   20.0910 C   0  0  0  0  0  3  0  0  0  0  0  0
  -28.4510  -25.2600   19.8620 C   0  0  0  0  0  3  0  0  0  0  0  0
  -30.4670  -21.2790   20.6480 C   0  0  0  0  0  0  0  0  0  0  0  0
  -28.8260  -17.8230   20.7550 C   0  0  0  0  0  2  0  0  0  0  0  0
  -30.9630  -17.6470   19.5990 C   0  0  0  0  0  2  0  0  0  0  0  0
  -28.9830  -19.3640   20.9160 C   0  0  0  0  0  2  0  0  0  0  0  0
  -31.3070  -19.1190   19.9170 C   0  0  0  0  0  2  0  0  0  0  0  0
  -30.1460  -17.0230   20.7410 C   0  0  0  0  0  3  0  0  0  0  0  0
  -30.1750  -19.9930   20.3030 N   0  0  0  0  0  0  0  0  0  0  0  0
  -31.4970  -21.5380   21.2810 O   0  0  0  0  0  0  0  0  0  0  0  0
  -30.6330  -14.5310   20.2170 C   0  0  0  0  0  0  0  0  0  0  0  0
  -30.3150  -12.3700   19.0740 C   0  0  0  0  0  2  0  0  0  0  0  0
  -29.3250  -12.5900   17.9080 C   0  0  0  0  0  2  0  0  0  0  0  0
  -27.8700  -12.4360   18.3930 C   0  0  0  0  0  2  0  0  0  0  0  0
  -27.5770  -13.2580   19.6780 C   0  0  0  0  0  3  0  0  0  0  0  0
  -28.6750  -13.0300   20.7420 C   0  0  0  0  0  2  0  0  0  0  0  0
  -29.9740  -13.3430   20.1230 N   0  0  0  0  0  0  0  0  0  0  0  0
  -31.7750  -14.6920   19.7800 O   0  0  0  0  0  0  0  0  0  0  0  0
  -29.8740  -15.5640   20.6430 N   0  0  0  0  0  0  0  0  0  0  0  0
  -28.9580  -15.2860   20.9610 H   0  0  0  0  0  0  0  0  0  0  0  0
  -25.2080  -13.8580   20.4800 C   0  0  0  0  0  0  0  0  0  0  0  0
  -24.1530  -13.0820   20.8800 C   0  0  0  0  0  0  0  0  0  0  0  0
  -24.6110  -11.7310   20.8170 C   0  0  0  0  0  0  0  0  0  0  0  0
  -26.2430  -12.9780   20.2040 N   0  0  0  0  0  0  0  0  0  0  0  0
  -25.8880  -11.6930   20.4610 N   0  0  0  0  0  0  0  0  0  0  0  0
  -23.8900  -10.4660   21.0170 C   0  0  0  0  0  0  0  0  0  0  0  0
  -24.3470   -9.4930   21.9330 C   0  0  0  0  0  3  0  0  0  0  0  0
  -23.6270   -8.2940   22.1220 C   0  0  0  0  0  3  0  0  0  0  0  0
  -22.4370   -8.0590   21.3930 C   0  0  0  0  0  0  0  0  0  0  0  0
  -21.9980   -9.0210   20.4670 C   0  0  0  0  0  3  0  0  0  0  0  0
  -22.7180  -10.2120   20.2760 C   0  0  0  0  0  3  0  0  0  0  0  0
  -21.6850   -6.9120   21.4930 O   0  0  0  0  0  0  0  0  0  0  0  0
  -21.6570   -6.1680   22.6450 C   0  0  0  0  0  0  0  0  0  0  0  0
  -21.2400   -6.7180   23.8780 C   0  0  0  0  0  3  0  0  0  0  0  0
  -21.1600   -5.9000   25.0220 C   0  0  0  0  0  3  0  0  0  0  0  0
  -21.4840   -4.5330   24.9350 C   0  0  0  0  0  0  0  0  0  0  0  0
  -21.8940   -3.9820   23.7070 C   0  0  0  0  0  3  0  0  0  0  0  0
  -21.9770   -4.7980   22.5640 C   0  0  0  0  0  0  0  0  0  0  0  0
  -22.3510   -4.2580   21.3800 F   0  0  0  0  0  0  0  0  0  0  0  0
  -21.4000   -3.7440   26.0310 F   0  0  0  0  0  0  0  0  0  0  0  0
  -22.7660  -13.5570   21.2090 C   0  0  0  0  0  0  0  0  0  0  0  0
  -22.0710  -12.8520   22.0950 N   0  0  0  0  0  0  0  0  0  0  0  0
  -22.3100  -14.5880   20.7160 O   0  0  0  0  0  0  0  0  0  0  0  0
  -22.4540  -12.0200   22.5170 H   0  0  0  0  0  0  0  0  0  0  0  0
  -21.1410  -13.1500   22.3550 H   0  0  0  0  0  0  0  0  0  0  0  0
  -25.3680  -15.2290   20.3110 N   0  0  0  0  0  0  0  0  0  0  0  0
  -24.5970  -15.8780   20.4270 H   0  0  0  0  0  0  0  0  0  0  0  0
  -26.2000  -15.6680   19.9400 H   0  0  0  0  0  0  0  0  0  0  0  0
  -28.4130  -26.6880   20.1310 O   0  0  0  0  0  0  0  0  0  0  0  0
  -24.5950  -31.8730   23.2370 C   0  0  0  0  0  0  0  0  0  0  0  0
  -27.2210  -27.4020   20.1370 C   0  0  0  0  0  0  0  0  0  0  0  0
  -23.3840  -30.4800   21.5920 C   0  0  0  0  0  3  0  0  0  0  0  0
  -24.8310  -28.9430   20.1630 C   0  0  0  0  0  0  0  0  0  0  0  0
  -25.9160  -30.8230   21.3990 C   0  0  0  0  0  2  0  0  0  0  0  0
  -25.9950  -29.4530   20.7480 C   0  0  0  0  0  0  0  0  0  0  0  0
  -27.1900  -28.6930   20.7270 C   0  0  0  0  0  3  0  0  0  0  0  0
  -26.0280  -26.9140   19.5510 C   0  0  0  0  0  3  0  0  0  0  0  0
  -24.8460  -27.6740   19.5630 C   0  0  0  0  0  3  0  0  0  0  0  0
  -23.5930  -29.8100   20.2100 C   0  0  0  0  0  2  0  0  0  0  0  0
  -24.6500  -31.0770   22.1320 N   0  0  0  0  0  0  0  0  0  0  0  0
  -23.5150  -32.1450   23.7780 O   0  0  0  0  0  0  0  0  0  0  0  0
  -22.7320  -29.4560   22.5490 C   0  0  0  0  0  0  0  0  0  0  0  0
  -21.4070  -29.2750   22.4220 N   0  0  0  0  0  0  0  0  0  0  0  0
  -23.4160  -28.8260   23.3610 O   0  0  0  0  0  0  0  0  0  0  0  0
  -20.9170  -29.8350   21.7370 H   0  0  0  0  0  0  0  0  0  0  0  0
  -18.0320  -28.0850   22.9240 C   0  0  0  0  0  0  0  0  0  0  0  0
  -20.5910  -28.3360   23.1900 C   0  0  0  0  0  3  0  0  0  0  0  0
  -20.6890  -26.9070   22.6070 C   0  0  0  0  0  2  0  0  0  0  0  0
  -19.5850  -26.5920   21.5940 C   0  0  0  0  0  2  0  0  0  0  0  0
  -18.2050  -26.7370   22.2400 C   0  0  0  0  0  2  0  0  0  0  0  0
  -19.1530  -28.8410   23.3550 C   0  0  0  0  0  0  0  0  0  0  0  0
  -18.9390  -30.1020   23.9530 C   0  0  0  0  0  3  0  0  0  0  0  0
  -17.6360  -30.6070   24.1230 C   0  0  0  0  0  3  0  0  0  0  0  0
  -16.5300  -29.8460   23.7080 C   0  0  0  0  0  3  0  0  0  0  0  0
  -16.7280  -28.5870   23.1160 C   0  0  0  0  0  3  0  0  0  0  0  0
  -25.8820  -32.5010   23.8580 C   0  0  0  0  0  3  0  0  0  0  0  0
  -25.5730  -33.8950   24.2030 N   0  0  0  0  0  0  0  0  0  0  0  0
  -25.8820  -34.9520   23.4400 C   0  0  0  0  0  0  0  0  0  0  0  0
  -26.5270  -34.8570   22.3930 O   0  0  0  0  0  0  0  0  0  0  0  0
  -24.9990  -34.0420   25.0200 H   0  0  0  0  0  0  0  0  0  0  0  0
  -24.1270  -36.7300   23.1420 C   0  0  0  0  0  1  0  0  0  0  0  0
  -25.3950  -36.3360   23.9150 C   0  0  0  0  0  3  0  0  0  0  0  0
  -27.5430  -37.2420   24.6860 C   0  0  0  0  0  1  0  0  0  0  0  0
  -26.4150  -37.3980   23.7710 N   0  0  0  0  0  0  0  0  0  0  0  0
  -26.0060  -38.3150   23.9250 H   0  0  0  0  0  0  0  0  0  0  0  0
  -26.4080  -31.7190   25.1230 C   0  0  1  0  0  0  0  0  0  0  0  0
  -25.3200  -31.4660   26.1940 C   0  0  0  0  0  1  0  0  0  0  0  0
  -26.9960  -30.3480   24.7160 C   0  0  0  0  0  1  0  0  0  0  0  0
  -27.5590  -32.5110   25.7870 C   0  0  0  0  0  1  0  0  0  0  0  0
  1  5  1  0
  2  4  1  0
  3  6  1  0
  3  1  1  0
  5  7  1  0
  5  2  1  0
  6 53  1  0
  6  4  1  0
  7 14  2  0
  8 10  1  0
  9 11  1  0
  9 12  1  0
 11 13  1  0
 12 23  1  0
 12  8  1  0
 13  7  1  0
 13 10  1  0
 15 23  1  0
 16 21  1  0
 17 18  1  0
 17 16  1  0
 19 18  1  0
 19 28  1  0
 19 20  1  0
 21 15  1  0
 21 20  1  0
 22 15  2  0
 23 24  1  0
 25 26  2  0
 26 45  1  0
 27 26  1  0
 27 30  1  0
 28 29  1  0
 28 25  1  0
 29 27  2  0
 30 31  1  0
 31 32  2  0
 33 36  1  0
 33 32  1  0
 34 33  2  0
 35 34  1  0
 35 30  2  0
 36 37  1  0
 37 38  1  0
 38 39  2  0
 40 39  1  0
 40 44  1  0
 41 40  2  0
 42 37  2  0
 42 41  1  0
 43 42  1  0
 45 46  1  0
 46 49  1  0
 46 48  1  0
 47 45  2  0
 50 51  1  0
 50 25  1  0
 52 50  1  0
 53 55  1  0
 54 65  2  0
 55 60  1  0
 56 64  1  0
 56 66  1  0
 57 63  1  0
 57 59  1  0
 58 64  1  0
 59 58  1  0
 60 59  2  0
 61 62  1  0
 61 55  2  0
 62 57  2  0
 63 56  1  0
 64 54  1  0
 66 68  2  0
 67 66  1  0
 69 67  1  0
 70 79  2  0
 70 75  1  0
 71 67  1  0
 71 75  1  0
 72 71  1  0
 73 74  1  0
 73 72  1  0
 74 70  1  0
 75 76  2  0
 76 77  1  0
 78 77  2  0
 79 78  1  0
 80 54  1  0
 80 81  1  0
 80 90  1  0
 81 84  1  0
 82 86  1  0
 82 81  1  0
 83 82  2  0
 86 85  1  0
 88 86  1  0
 88 89  1  0
 88 87  1  0
 90 93  1  1
 90 91  1  0
 92 90  1  0
M  ISO  4   6 101  15 100  23 100  53 101
M  END
>  <TORSDO>  (57) 
F 17

>  <SCORE>  (57) 
-15.055

>  <name>  (57) 
57

>  <ligand_id>  (57) 
57

>  <original_smiles>  (57) 
[H]c1c([H])c([H])c2c(c1[H])C([H])([H])C([H])([H])C([H])([H])C2([H])N([H])C(=O)C1([H])N(C(=O)C([H])(N([H])C(=O)C([H])(N([H])C([H])([H])[H])C([H])([H])[H])C(C([H])([H])[H])(C([H])([H])[H])C([H])([H])[H])C([H])([H])c2c([H])c(OC3([H])C([H])([H])C([H])([H])C([H])(C(=O)N4C([H])([H])C([H])([H])C([H])(N([H])C(=O)N5C([H])([H])C([H])([H])C([H])([H])C([H])(n6nc(-c7c([H])c([H])c(Oc8c([H])c([H])c(F)c([H])c8F)c([H])c7[H])c(C(=O)N([H])[H])c6N([H])[H])C5([H])[H])C([H])([H])C4([H])[H])C([H])([H])C3([H])[H])c([H])c([H])c2C1([H])[H]

>  <smiles>  (57) 
[H]c1c([H])c([H])c2c(c1[H])C([H])([H])C([H])([H])C([H])([H])C2([H])N([H])C(=O)C1([H])N(C(=O)C([H])(N([H])C(=O)C([H])(N([H])C([H])([H])[H])C([H])([H])[H])C(C([H])([H])[H])(C([H])([H])[H])C([H])([H])[H])C([H])([H])c2c([H])c(OC3([H])C([H])([H])C([H])([H])C([H])(C(=O)N4C([H])([H])C([H])([H])C([H])(N([H])C(=O)N5C([H])([H])C([H])([H])C([H])([H])C([H])(n6nc(-c7c([H])c([H])c(Oc8c([H])c([H])c(F)c([H])c8F)c([H])c7[H])c(C(=O)N([H])[H])c6N([H])[H])C5([H])[H])C([H])([H])C4([H])[H])C([H])([H])C3([H])[H])c([H])c([H])c2C1([H])[H]

$$$$
58:0:0
     RDKit          3D

 98108  0  0  1  0  0  0  0  0999 V2000
  -31.5810  -21.6130   18.4340 C   0  0  0  0  0  3  0  0  0  0  0  0
  -31.6370  -21.6110   20.8640 C   0  0  0  0  0  3  0  0  0  0  0  0
  -31.2430  -22.2170   19.6600 C   0  0  0  0  0  0  0  0  0  0  0  0
  -32.2610  -20.3820   18.4070 C   0  0  0  0  0  0  0  0  0  0  0  0
  -32.3100  -20.3830   20.8600 C   0  0  0  0  0  0  0  0  0  0  0  0
  -32.5360  -19.7150   19.6290 C   0  0  0  0  0  0  0  0  0  0  0  0
  -32.6100  -19.7670   17.0590 C   0  0  0  0  0  1  0  0  0  0  0  0
  -32.7590  -19.8180   22.2020 C   0  0  0  0  0  1  0  0  0  0  0  0
  -30.7650  -24.4190   20.8600 C   0  0  0  0  0  2  0  0  0  0  0  0
  -28.9440  -23.2050   19.6230 C   0  0  0  0  0  2  0  0  0  0  0  0
  -30.0760  -25.7480   20.6360 C   0  0  0  0  0  2  0  0  0  0  0  0
  -28.1250  -24.4950   19.4730 C   0  0  0  0  0  2  0  0  0  0  0  0
  -30.4510  -23.5030   19.6600 C   0  0  0  0  0  3  0  0  0  0  0  0
  -28.5600  -25.6060   20.4620 C   0  0  0  0  0  3  0  0  0  0  0  0
  -28.3530  -26.8900   19.9340 O   0  0  0  0  0  0  0  0  0  0  0  0
  -24.5740  -31.8920   23.2210 C   0  0  0  0  0  0  0  0  0  0  0  0
  -27.1480  -27.4950   20.0850 C   0  0  0  0  0  0  0  0  0  0  0  0
  -23.3460  -30.5050   21.5870 C   0  0  0  0  0  3  0  0  0  0  0  0
  -24.7680  -28.9710   20.1490 C   0  0  0  0  0  0  0  0  0  0  0  0
  -25.8670  -30.8620   21.3630 C   0  0  0  0  0  2  0  0  0  0  0  0
  -25.9330  -29.4980   20.7250 C   0  0  0  0  0  0  0  0  0  0  0  0
  -27.1320  -28.7650   20.6840 C   0  0  0  0  0  3  0  0  0  0  0  0
  -25.9700  -26.9550   19.5310 C   0  0  0  0  0  3  0  0  0  0  0  0
  -24.7760  -27.6940   19.5640 C   0  0  0  0  0  3  0  0  0  0  0  0
  -23.5370  -29.8430   20.2010 C   0  0  0  0  0  2  0  0  0  0  0  0
  -24.6160  -31.1000   22.1170 N   0  0  0  0  0  0  0  0  0  0  0  0
  -23.4980  -32.1630   23.7730 O   0  0  0  0  0  0  0  0  0  0  0  0
  -22.7140  -29.4680   22.5420 C   0  0  0  0  0  0  0  0  0  0  0  0
  -21.3870  -29.2780   22.4190 N   0  0  0  0  0  0  0  0  0  0  0  0
  -23.4040  -28.8380   23.3480 O   0  0  0  0  0  0  0  0  0  0  0  0
  -20.8920  -29.8360   21.7370 H   0  0  0  0  0  0  0  0  0  0  0  0
  -18.0170  -28.0880   22.9200 C   0  0  0  0  0  0  0  0  0  0  0  0
  -20.5750  -28.3380   23.1880 C   0  0  0  0  0  3  0  0  0  0  0  0
  -20.6760  -26.9110   22.6040 C   0  0  0  0  0  2  0  0  0  0  0  0
  -19.5710  -26.5930   21.5910 C   0  0  0  0  0  2  0  0  0  0  0  0
  -18.1910  -26.7410   22.2390 C   0  0  0  0  0  2  0  0  0  0  0  0
  -19.1380  -28.8440   23.3520 C   0  0  0  0  0  0  0  0  0  0  0  0
  -18.9270  -30.1070   23.9460 C   0  0  0  0  0  3  0  0  0  0  0  0
  -17.6250  -30.6150   24.1110 C   0  0  0  0  0  3  0  0  0  0  0  0
  -16.5170  -29.8530   23.7050 C   0  0  0  0  0  3  0  0  0  0  0  0
  -16.7140  -28.5920   23.1130 C   0  0  0  0  0  3  0  0  0  0  0  0
  -25.8690  -32.5150   23.8310 C   0  0  0  0  0  3  0  0  0  0  0  0
  -26.3970  -31.7340   25.0960 C   0  0  1  0  0  0  0  0  0  0  0  0
  -25.3170  -31.4920   26.1770 C   0  0  0  0  0  1  0  0  0  0  0  0
  -26.9720  -30.3580   24.6870 C   0  0  0  0  0  1  0  0  0  0  0  0
  -27.5600  -32.5190   25.7490 C   0  0  0  0  0  1  0  0  0  0  0  0
  -25.5660  -33.9110   24.1700 N   0  0  0  0  0  0  0  0  0  0  0  0
  -25.8920  -34.9650   23.4090 C   0  0  0  0  0  0  0  0  0  0  0  0
  -26.5570  -34.8660   22.3750 O   0  0  0  0  0  0  0  0  0  0  0  0
  -24.9800  -34.0660   24.9760 H   0  0  0  0  0  0  0  0  0  0  0  0
  -24.1650  -36.7560   23.0540 C   0  0  0  0  0  1  0  0  0  0  0  0
  -25.4010  -36.3490   23.8710 C   0  0  0  0  0  3  0  0  0  0  0  0
  -27.5380  -37.2220   24.7060 C   0  0  0  0  0  1  0  0  0  0  0  0
  -26.4310  -37.4060   23.7720 N   0  0  0  0  0  0  0  0  0  0  0  0
  -26.0220  -38.3220   23.9380 H   0  0  0  0  0  0  0  0  0  0  0  0
  -32.9270  -18.3970   19.6050 O   0  0  0  0  0  0  0  0  0  0  0  0
  -32.0010  -17.5020   20.2510 C   0  0  0  0  0  2  0  0  0  0  0  0
  -30.7670  -14.5460   20.2850 C   0  0  0  0  0  0  0  0  0  0  0  0
  -30.3490  -12.3230   19.3280 C   0  0  0  0  0  2  0  0  0  0  0  0
  -29.4360  -12.4840   18.1030 C   0  0  0  0  0  2  0  0  0  0  0  0
  -27.9590  -12.3390   18.5350 C   0  0  0  0  0  2  0  0  0  0  0  0
  -27.6000  -13.2250   19.7510 C   0  0  0  0  0  3  0  0  0  0  0  0
  -28.6810  -13.1840   20.8570 C   0  0  0  0  0  2  0  0  0  0  0  0
  -29.9850  -13.4280   20.2280 N   0  0  0  0  0  0  0  0  0  0  0  0
  -31.9910  -14.4560   20.2270 O   0  0  0  0  0  0  0  0  0  0  0  0
  -28.9600  -17.7760   19.6210 C   0  0  0  0  0  2  0  0  0  0  0  0
  -30.0850  -17.7720   18.6120 C   0  0  0  0  0  2  0  0  0  0  0  0
  -28.8800  -16.2930   19.9460 C   0  0  0  0  0  2  0  0  0  0  0  0
  -31.0890  -16.7880   19.2270 C   0  0  0  0  0  3  0  0  0  0  0  0
  -30.2420  -15.7480   19.8640 N   0  0  0  0  0  0  0  0  0  0  0  0
  -25.2230  -13.8380   20.5090 C   0  0  0  0  0  0  0  0  0  0  0  0
  -24.1630  -13.0670   20.8760 C   0  0  0  0  0  0  0  0  0  0  0  0
  -24.6310  -11.7180   20.8560 C   0  0  0  0  0  0  0  0  0  0  0  0
  -26.2680  -12.9570   20.2740 N   0  0  0  0  0  0  0  0  0  0  0  0
  -25.9210  -11.6790   20.5500 N   0  0  0  0  0  0  0  0  0  0  0  0
  -23.9060  -10.4550   21.0460 C   0  0  0  0  0  0  0  0  0  0  0  0
  -24.3380   -9.4920   21.9870 C   0  0  0  0  0  3  0  0  0  0  0  0
  -23.6200   -8.2910   22.1640 C   0  0  0  0  0  3  0  0  0  0  0  0
  -22.4560   -8.0420   21.3980 C   0  0  0  0  0  0  0  0  0  0  0  0
  -22.0340   -8.9950   20.4530 C   0  0  0  0  0  3  0  0  0  0  0  0
  -22.7540  -10.1890   20.2710 C   0  0  0  0  0  3  0  0  0  0  0  0
  -21.7190   -6.8880   21.4810 O   0  0  0  0  0  0  0  0  0  0  0  0
  -21.6820   -6.1480   22.6340 C   0  0  0  0  0  0  0  0  0  0  0  0
  -21.2630   -6.7050   23.8610 C   0  0  0  0  0  3  0  0  0  0  0  0
  -21.1670   -5.8940   25.0070 C   0  0  0  0  0  3  0  0  0  0  0  0
  -21.4810   -4.5240   24.9270 C   0  0  0  0  0  0  0  0  0  0  0  0
  -21.9010   -3.9650   23.7080 C   0  0  0  0  0  3  0  0  0  0  0  0
  -21.9970   -4.7760   22.5620 C   0  0  0  0  0  0  0  0  0  0  0  0
  -22.3840   -4.2340   21.3820 F   0  0  0  0  0  0  0  0  0  0  0  0
  -21.3760   -3.7350   26.0230 F   0  0  0  0  0  0  0  0  0  0  0  0
  -22.7670  -13.5450   21.1410 C   0  0  0  0  0  0  0  0  0  0  0  0
  -22.0330  -12.8570   22.0060 N   0  0  0  0  0  0  0  0  0  0  0  0
  -22.3380  -14.5750   20.6180 O   0  0  0  0  0  0  0  0  0  0  0  0
  -22.3790  -12.0150   22.4400 H   0  0  0  0  0  0  0  0  0  0  0  0
  -21.1050  -13.1840   22.2380 H   0  0  0  0  0  0  0  0  0  0  0  0
  -25.3670  -15.2120   20.3330 N   0  0  0  0  0  0  0  0  0  0  0  0
  -24.5790  -15.8300   20.4830 H   0  0  0  0  0  0  0  0  0  0  0  0
  -26.2040  -15.6830   20.0230 H   0  0  0  0  0  0  0  0  0  0  0  0
  1  3  1  0
  3  2  2  0
  4  1  2  0
  4  6  1  0
  5  2  1  0
  5  8  1  0
  6  5  2  0
  7  4  1  0
 10 13  1  0
 11  9  1  0
 12 10  1  0
 12 14  1  0
 13  3  1  0
 13  9  1  0
 14 15  1  0
 14 11  1  0
 15 17  1  0
 16 27  2  0
 17 22  1  0
 18 26  1  0
 18 28  1  0
 19 25  1  0
 19 21  1  0
 20 26  1  0
 21 20  1  0
 22 21  2  0
 23 24  1  0
 23 17  2  0
 24 19  2  0
 25 18  1  0
 26 16  1  0
 28 30  2  0
 29 28  1  0
 31 29  1  0
 32 41  2  0
 32 37  1  0
 33 29  1  0
 33 37  1  0
 34 33  1  0
 35 36  1  0
 35 34  1  0
 36 32  1  0
 37 38  2  0
 38 39  1  0
 40 39  2  0
 41 40  1  0
 42 16  1  0
 42 47  1  0
 42 43  1  0
 43 46  1  1
 43 44  1  0
 45 43  1  0
 47 50  1  0
 48 52  1  0
 48 47  1  0
 49 48  2  0
 52 51  1  0
 54 52  1  0
 54 55  1  0
 54 53  1  0
 56  6  1  0
 56 57  1  0
 59 64  1  0
 60 61  1  0
 60 59  1  0
 62 61  1  0
 62 74  1  0
 62 63  1  0
 64 58  1  0
 64 63  1  0
 65 58  2  0
 66 68  1  0
 67 69  1  0
 67 66  1  0
 69 70  1  0
 69 57  1  0
 70 68  1  0
 70 58  1  0
 71 72  2  0
 72 91  1  0
 73 72  1  0
 73 76  1  0
 74 71  1  0
 74 75  1  0
 75 73  2  0
 76 77  1  0
 77 78  2  0
 79 82  1  0
 79 78  1  0
 80 79  2  0
 81 80  1  0
 81 76  2  0
 82 83  1  0
 83 84  1  0
 84 85  2  0
 86 85  1  0
 86 90  1  0
 87 86  2  0
 88 83  2  0
 88 87  1  0
 89 88  1  0
 91 92  1  0
 92 95  1  0
 92 94  1  0
 93 91  2  0
 96 97  1  0
 96 71  1  0
 98 96  1  0
M  ISO  4  14 101  15 101  58 100  70 100
M  END
>  <TORSDO>  (58) 
F 19

>  <SCORE>  (58) 
-14.730

>  <name>  (58) 
58

>  <ligand_id>  (58) 
58

>  <original_smiles>  (58) 
[H]c1c([H])c([H])c2c(c1[H])C([H])([H])C([H])([H])C([H])([H])C2([H])N([H])C(=O)C1([H])N(C(=O)C([H])(N([H])C(=O)C([H])(N([H])C([H])([H])[H])C([H])([H])[H])C(C([H])([H])[H])(C([H])([H])[H])C([H])([H])[H])C([H])([H])c2c([H])c(OC3([H])C([H])([H])C([H])([H])C([H])(c4c([H])c(C([H])([H])[H])c(OC([H])([H])C5([H])N(C(=O)N6C([H])([H])C([H])([H])C([H])([H])C([H])(n7nc(-c8c([H])c([H])c(Oc9c([H])c([H])c(F)c([H])c9F)c([H])c8[H])c(C(=O)N([H])[H])c7N([H])[H])C6([H])[H])C([H])([H])C([H])([H])C5([H])[H])c(C([H])([H])[H])c4[H])C([H])([H])C3([H])[H])c([H])c([H])c2C1([H])[H]

>  <smiles>  (58) 
[H]c1c([H])c([H])c2c(c1[H])C([H])([H])C([H])([H])C([H])([H])C2([H])N([H])C(=O)C1([H])N(C(=O)C([H])(N([H])C(=O)C([H])(N([H])C([H])([H])[H])C([H])([H])[H])C(C([H])([H])[H])(C([H])([H])[H])C([H])([H])[H])C([H])([H])c2c([H])c(OC3([H])C([H])([H])C([H])([H])C([H])(c4c([H])c(C([H])([H])[H])c(OC([H])([H])C5([H])N(C(=O)N6C([H])([H])C([H])([H])C([H])([H])C([H])(n7nc(-c8c([H])c([H])c(Oc9c([H])c([H])c(F)c([H])c9F)c([H])c8[H])c(C(=O)N([H])[H])c7N([H])[H])C6([H])[H])C([H])([H])C([H])([H])C5([H])[H])c(C([H])([H])[H])c4[H])C([H])([H])C3([H])[H])c([H])c([H])c2C1([H])[H]

$$$$
59:0:0
     RDKit          3D

 98108  0  0  1  0  0  0  0  0999 V2000
  -30.8910  -22.3990   19.1850 C   0  0  0  0  0  3  0  0  0  0  0  0
  -28.5190  -21.8850   19.0310 C   0  0  0  0  0  3  0  0  0  0  0  0
  -30.1640  -20.1760   18.5120 C   0  0  0  0  0  0  0  0  0  0  0  0
  -29.5530  -22.7610   19.4350 C   0  0  0  0  0  0  0  0  0  0  0  0
  -31.2030  -21.1020   18.7600 C   0  0  0  0  0  0  0  0  0  0  0  0
  -28.8130  -20.5960   18.5470 C   0  0  0  0  0  0  0  0  0  0  0  0
  -32.6710  -20.6910   18.7030 C   0  0  0  0  0  1  0  0  0  0  0  0
  -27.6560  -19.7090   18.1170 C   0  0  0  0  0  1  0  0  0  0  0  0
  -30.9010  -14.3770   20.1410 C   0  0  0  0  0  0  0  0  0  0  0  0
  -30.3180  -12.3020   19.0150 C   0  0  0  0  0  2  0  0  0  0  0  0
  -29.3470  -12.5230   17.8460 C   0  0  0  0  0  2  0  0  0  0  0  0
  -27.9040  -12.3940   18.3550 C   0  0  0  0  0  2  0  0  0  0  0  0
  -27.6290  -13.2630   19.6120 C   0  0  0  0  0  3  0  0  0  0  0  0
  -28.7390  -13.1280   20.6820 C   0  0  0  0  0  2  0  0  0  0  0  0
  -30.0270  -13.3460   20.0140 N   0  0  0  0  0  0  0  0  0  0  0  0
  -32.0710  -14.2250   19.8160 O   0  0  0  0  0  0  0  0  0  0  0  0
  -30.4280  -17.8580   19.3250 C   0  0  0  0  0  3  0  0  0  0  0  0
  -30.5820  -18.7950   18.3740 C   0  0  0  0  0  2  0  0  0  0  0  0
  -29.5420  -17.8210   20.5400 C   0  0  0  0  0  2  0  0  0  0  0  0
  -29.3490  -16.3100   20.7830 C   0  0  0  0  0  2  0  0  0  0  0  0
  -31.2680  -16.6450   19.3640 C   0  0  0  0  0  3  0  0  0  0  0  0
  -32.5840  -16.9950   20.1310 C   0  0  0  0  0  1  0  0  0  0  0  0
  -30.4390  -15.6460   20.0610 N   0  0  0  0  0  0  0  0  0  0  0  0
  -25.2720  -13.8720   20.4300 C   0  0  0  0  0  0  0  0  0  0  0  0
  -24.2160  -13.1010   20.8300 C   0  0  0  0  0  0  0  0  0  0  0  0
  -24.6730  -11.7460   20.7750 C   0  0  0  0  0  0  0  0  0  0  0  0
  -26.3050  -12.9910   20.1560 N   0  0  0  0  0  0  0  0  0  0  0  0
  -25.9540  -11.7070   20.4280 N   0  0  0  0  0  0  0  0  0  0  0  0
  -23.9530  -10.4830   20.9790 C   0  0  0  0  0  0  0  0  0  0  0  0
  -24.4050   -9.5190   21.9070 C   0  0  0  0  0  3  0  0  0  0  0  0
  -23.6880   -8.3170   22.0970 C   0  0  0  0  0  3  0  0  0  0  0  0
  -22.5070   -8.0740   21.3570 C   0  0  0  0  0  0  0  0  0  0  0  0
  -22.0740   -9.0260   20.4150 C   0  0  0  0  0  3  0  0  0  0  0  0
  -22.7910  -10.2200   20.2240 C   0  0  0  0  0  3  0  0  0  0  0  0
  -21.7590   -6.9250   21.4560 O   0  0  0  0  0  0  0  0  0  0  0  0
  -21.7110   -6.1920   22.6160 C   0  0  0  0  0  0  0  0  0  0  0  0
  -21.2550   -6.7490   23.8300 C   0  0  0  0  0  3  0  0  0  0  0  0
  -21.1610   -5.9470   24.9840 C   0  0  0  0  0  3  0  0  0  0  0  0
  -21.5090   -4.5840   24.9240 C   0  0  0  0  0  0  0  0  0  0  0  0
  -21.9520   -4.0220   23.7130 C   0  0  0  0  0  3  0  0  0  0  0  0
  -22.0520   -4.8230   22.5620 C   0  0  0  0  0  0  0  0  0  0  0  0
  -22.4630   -4.2740   21.3940 F   0  0  0  0  0  0  0  0  0  0  0  0
  -21.4080   -3.8090   26.0290 F   0  0  0  0  0  0  0  0  0  0  0  0
  -22.8300  -13.5770   21.1590 C   0  0  0  0  0  0  0  0  0  0  0  0
  -22.1280  -12.8660   22.0330 N   0  0  0  0  0  0  0  0  0  0  0  0
  -22.3770  -14.6140   20.6740 O   0  0  0  0  0  0  0  0  0  0  0  0
  -22.5060  -12.0230   22.4390 H   0  0  0  0  0  0  0  0  0  0  0  0
  -21.2010  -13.1630   22.3030 H   0  0  0  0  0  0  0  0  0  0  0  0
  -25.4410  -15.2410   20.2510 N   0  0  0  0  0  0  0  0  0  0  0  0
  -24.6940  -15.9140   20.3680 H   0  0  0  0  0  0  0  0  0  0  0  0
  -26.2950  -15.6540   19.9020 H   0  0  0  0  0  0  0  0  0  0  0  0
  -30.2930  -24.4780   21.2150 C   0  0  0  0  0  2  0  0  0  0  0  0
  -27.8420  -24.0350   20.8420 C   0  0  0  0  0  2  0  0  0  0  0  0
  -30.0290  -25.8780   21.8050 C   0  0  0  0  0  2  0  0  0  0  0  0
  -27.6320  -25.1380   21.9010 C   0  0  0  0  0  2  0  0  0  0  0  0
  -29.2370  -24.0700   20.1500 C   0  0  0  0  0  3  0  0  0  0  0  0
  -28.5710  -26.3250   21.6420 C   0  0  0  0  0  3  0  0  0  0  0  0
  -28.3610  -26.7980   20.3010 O   0  0  0  0  0  0  0  0  0  0  0  0
  -24.5340  -31.8660   23.2610 C   0  0  0  0  0  0  0  0  0  0  0  0
  -27.2130  -27.5240   20.1840 C   0  0  0  0  0  0  0  0  0  0  0  0
  -23.3440  -30.4760   21.5920 C   0  0  0  0  0  3  0  0  0  0  0  0
  -24.8120  -28.9680   20.1540 C   0  0  0  0  0  0  0  0  0  0  0  0
  -25.8560  -30.8760   21.4040 C   0  0  0  0  0  2  0  0  0  0  0  0
  -25.9500  -29.5150   20.7560 C   0  0  0  0  0  0  0  0  0  0  0  0
  -27.1540  -28.8010   20.7670 C   0  0  0  0  0  3  0  0  0  0  0  0
  -26.0830  -26.9840   19.5370 C   0  0  0  0  0  3  0  0  0  0  0  0
  -24.8710  -27.7030   19.5360 C   0  0  0  0  0  3  0  0  0  0  0  0
  -23.5570  -29.8060   20.2050 C   0  0  0  0  0  2  0  0  0  0  0  0
  -24.5950  -31.0850   22.1470 N   0  0  0  0  0  0  0  0  0  0  0  0
  -23.4480  -32.1310   23.7950 O   0  0  0  0  0  0  0  0  0  0  0  0
  -22.6910  -29.4450   22.5360 C   0  0  0  0  0  0  0  0  0  0  0  0
  -21.3690  -29.2660   22.3920 N   0  0  0  0  0  0  0  0  0  0  0  0
  -23.3680  -28.8070   23.3460 O   0  0  0  0  0  0  0  0  0  0  0  0
  -20.8890  -29.8270   21.7030 H   0  0  0  0  0  0  0  0  0  0  0  0
  -17.9840  -28.0970   22.8370 C   0  0  0  0  0  0  0  0  0  0  0  0
  -20.5400  -28.3230   23.1370 C   0  0  0  0  0  3  0  0  0  0  0  0
  -20.6370  -26.9020   22.5350 C   0  0  0  0  0  2  0  0  0  0  0  0
  -19.5400  -26.6080   21.5070 C   0  0  0  0  0  2  0  0  0  0  0  0
  -18.1530  -26.7570   22.1420 C   0  0  0  0  0  2  0  0  0  0  0  0
  -19.1060  -28.8400   23.2890 C   0  0  0  0  0  0  0  0  0  0  0  0
  -18.8960  -30.0990   23.8950 C   0  0  0  0  0  3  0  0  0  0  0  0
  -17.5940  -30.6100   24.0550 C   0  0  0  0  0  3  0  0  0  0  0  0
  -16.4860  -29.8620   23.6230 C   0  0  0  0  0  3  0  0  0  0  0  0
  -16.6820  -28.6070   23.0190 C   0  0  0  0  0  3  0  0  0  0  0  0
  -25.8170  -32.4860   23.9040 C   0  0  0  0  0  3  0  0  0  0  0  0
  -25.5200  -33.8890   24.2210 N   0  0  0  0  0  0  0  0  0  0  0  0
  -25.8790  -34.9290   23.4580 C   0  0  0  0  0  0  0  0  0  0  0  0
  -26.5640  -34.8090   22.4370 O   0  0  0  0  0  0  0  0  0  0  0  0
  -24.9090  -34.0630   25.0080 H   0  0  0  0  0  0  0  0  0  0  0  0
  -24.1690  -36.7250   23.0640 C   0  0  0  0  0  1  0  0  0  0  0  0
  -25.4010  -36.3270   23.8940 C   0  0  0  0  0  3  0  0  0  0  0  0
  -27.5300  -37.2010   24.7440 C   0  0  0  0  0  1  0  0  0  0  0  0
  -26.4450  -37.3680   23.7790 N   0  0  0  0  0  0  0  0  0  0  0  0
  -26.0490  -38.2950   23.9040 H   0  0  0  0  0  0  0  0  0  0  0  0
  -26.3090  -31.7090   25.1860 C   0  0  1  0  0  0  0  0  0  0  0  0
  -25.1950  -31.4750   26.2330 C   0  0  0  0  0  1  0  0  0  0  0  0
  -26.8870  -30.3300   24.7920 C   0  0  0  0  0  1  0  0  0  0  0  0
  -27.4590  -32.4930   25.8630 C   0  0  0  0  0  1  0  0  0  0  0  0
  1  4  1  0
  2  4  2  0
  3  6  2  0
  3  5  1  0
  5  1  2  0
  6  2  1  0
  7  5  1  0
  8  6  1  0
 10 15  1  0
 11 12  1  0
 11 10  1  0
 13 12  1  0
 13 27  1  0
 13 14  1  0
 15  9  1  0
 15 14  1  0
 16  9  2  0
 17 18  1  0
 17 21  1  0
 17 19  1  0
 18  3  1  0
 19 20  1  0
 21 23  1  0
 21 22  1  0
 23  9  1  0
 23 20  1  0
 24 25  2  0
 25 44  1  0
 26 25  1  0
 26 29  1  0
 27 28  1  0
 27 24  1  0
 28 26  2  0
 29 30  1  0
 30 31  2  0
 32 35  1  0
 32 31  1  0
 33 32  2  0
 34 33  1  0
 34 29  2  0
 35 36  1  0
 36 37  1  0
 37 38  2  0
 39 38  1  0
 39 43  1  0
 40 39  2  0
 41 36  2  0
 41 40  1  0
 42 41  1  0
 44 45  1  0
 45 48  1  0
 45 47  1  0
 46 44  2  0
 49 50  1  0
 49 24  1  0
 51 49  1  0
 52 54  1  0
 53 55  1  0
 56  4  1  0
 56 53  1  0
 56 52  1  0
 57 58  1  0
 57 54  1  0
 57 55  1  0
 59 70  2  0
 60 58  1  0
 60 65  1  0
 61 69  1  0
 61 71  1  0
 62 68  1  0
 62 64  1  0
 63 69  1  0
 64 65  2  0
 64 63  1  0
 66 60  2  0
 67 66  1  0
 67 62  2  0
 68 61  1  0
 69 59  1  0
 71 73  2  0
 72 71  1  0
 74 72  1  0
 75 84  2  0
 75 80  1  0
 76 72  1  0
 76 80  1  0
 77 76  1  0
 78 79  1  0
 78 77  1  0
 79 75  1  0
 80 81  2  0
 81 82  1  0
 83 82  2  0
 84 83  1  0
 85 59  1  0
 85 86  1  0
 85 95  1  0
 86 89  1  0
 87 91  1  0
 87 86  1  0
 88 87  2  0
 91 90  1  0
 93 91  1  0
 93 94  1  0
 93 92  1  0
 95 98  1  1
 95 96  1  0
 97 95  1  0
M  ISO  4   9 100  23 100  57 101  58 101
M  END
>  <TORSDO>  (59) 
F 17

>  <SCORE>  (59) 
-15.697

>  <name>  (59) 
59

>  <ligand_id>  (59) 
59

>  <original_smiles>  (59) 
[H]C(=C1C([H])([H])C([H])([H])N(C(=O)N2C([H])([H])C([H])([H])C([H])([H])C([H])(n3nc(-c4c([H])c([H])c(Oc5c([H])c([H])c(F)c([H])c5F)c([H])c4[H])c(C(=O)N([H])[H])c3N([H])[H])C2([H])[H])C1([H])C([H])([H])[H])c1c(C([H])([H])[H])c([H])c(C2([H])C([H])([H])C([H])([H])C([H])(Oc3c([H])c([H])c4c(c3[H])C([H])([H])N(C(=O)C([H])(N([H])C(=O)C([H])(N([H])C([H])([H])[H])C([H])([H])[H])C(C([H])([H])[H])(C([H])([H])[H])C([H])([H])[H])C([H])(C(=O)N([H])C3([H])c5c([H])c([H])c([H])c([H])c5C([H])([H])C([H])([H])C3([H])[H])C4([H])[H])C([H])([H])C2([H])[H])c([H])c1C([H])([H])[H]

>  <smiles>  (59) 
[H]C(=C1C([H])([H])C([H])([H])N(C(=O)N2C([H])([H])C([H])([H])C([H])([H])C([H])(n3nc(-c4c([H])c([H])c(Oc5c([H])c([H])c(F)c([H])c5F)c([H])c4[H])c(C(=O)N([H])[H])c3N([H])[H])C2([H])[H])C1([H])C([H])([H])[H])c1c(C([H])([H])[H])c([H])c(C2([H])C([H])([H])C([H])([H])C([H])(Oc3c([H])c([H])c4c(c3[H])C([H])([H])N(C(=O)C([H])(N([H])C(=O)C([H])(N([H])C([H])([H])[H])C([H])([H])[H])C(C([H])([H])[H])(C([H])([H])[H])C([H])([H])[H])C([H])(C(=O)N([H])C3([H])c5c([H])c([H])c([H])c([H])c5C([H])([H])C([H])([H])C3([H])[H])C4([H])[H])C([H])([H])C2([H])[H])c([H])c1C([H])([H])[H]

$$$$
60:0:0
     RDKit          3D

 96104  0  0  1  0  0  0  0  0999 V2000
  -29.4640  -21.4630   19.7570 C   0  0  0  0  0  3  0  0  0  0  0  0
  -31.0890  -20.2710   18.3780 C   0  0  0  0  0  0  0  0  0  0  0  0
  -29.9670  -20.2400   19.2610 C   0  0  0  0  0  0  0  0  0  0  0  0
  -31.6890  -21.5300   18.0900 C   0  0  0  0  0  3  0  0  0  0  0  0
  -30.0650  -22.6850   19.3930 C   0  0  0  0  0  0  0  0  0  0  0  0
  -32.9000  -21.7290   17.1870 C   0  0  0  0  0  1  0  0  0  0  0  0
  -31.1610  -22.6580   18.6070 N   0  0  0  0  0  0  0  0  0  0  0  0
  -31.6010  -23.5460   18.3650 H   0  0  0  0  0  0  0  0  0  0  0  0
  -29.2770  -19.0570   19.5990 N   0  0  0  0  0  0  0  0  0  0  0  0
  -28.3310  -19.2290   19.9210 H   0  0  0  0  0  0  0  0  0  0  0  0
  -29.9510  -18.0370   20.4030 C   0  0  0  0  0  2  0  0  0  0  0  0
  -29.8810  -16.6630   19.7090 C   0  0  0  0  0  2  0  0  0  0  0  0
  -30.6560  -14.4570   20.4360 C   0  0  0  0  0  0  0  0  0  0  0  0
  -30.3620  -12.2840   19.3540 C   0  0  0  0  0  2  0  0  0  0  0  0
  -29.4310  -12.5130   18.1440 C   0  0  0  0  0  2  0  0  0  0  0  0
  -27.9520  -12.3880   18.5630 C   0  0  0  0  0  2  0  0  0  0  0  0
  -27.6140  -13.2220   19.8280 C   0  0  0  0  0  3  0  0  0  0  0  0
  -28.6660  -13.0000   20.9420 C   0  0  0  0  0  2  0  0  0  0  0  0
  -29.9990  -13.2700   20.3790 N   0  0  0  0  0  0  0  0  0  0  0  0
  -31.8130  -14.6170   20.0400 O   0  0  0  0  0  0  0  0  0  0  0  0
  -29.8480  -15.5120   20.6160 N   0  0  0  0  0  0  0  0  0  0  0  0
  -28.9430  -15.2940   21.0040 H   0  0  0  0  0  0  0  0  0  0  0  0
  -25.2130  -13.8380   20.5190 C   0  0  0  0  0  0  0  0  0  0  0  0
  -24.1420  -13.0690   20.8880 C   0  0  0  0  0  0  0  0  0  0  0  0
  -24.6030  -11.7170   20.8670 C   0  0  0  0  0  0  0  0  0  0  0  0
  -26.2580  -12.9540   20.2990 N   0  0  0  0  0  0  0  0  0  0  0  0
  -25.8940  -11.6740   20.5650 N   0  0  0  0  0  0  0  0  0  0  0  0
  -23.8750  -10.4570   21.0600 C   0  0  0  0  0  0  0  0  0  0  0  0
  -24.3140   -9.4880   21.9880 C   0  0  0  0  0  3  0  0  0  0  0  0
  -23.5920   -8.2910   22.1690 C   0  0  0  0  0  3  0  0  0  0  0  0
  -22.4120   -8.0540   21.4240 C   0  0  0  0  0  0  0  0  0  0  0  0
  -21.9910   -9.0130   20.4850 C   0  0  0  0  0  3  0  0  0  0  0  0
  -22.7140  -10.2020   20.3010 C   0  0  0  0  0  3  0  0  0  0  0  0
  -21.6570   -6.9100   21.5170 O   0  0  0  0  0  0  0  0  0  0  0  0
  -21.6290   -6.1570   22.6630 C   0  0  0  0  0  0  0  0  0  0  0  0
  -21.2350   -6.7020   23.9050 C   0  0  0  0  0  3  0  0  0  0  0  0
  -21.1540   -5.8730   25.0420 C   0  0  0  0  0  3  0  0  0  0  0  0
  -21.4570   -4.5030   24.9400 C   0  0  0  0  0  0  0  0  0  0  0  0
  -21.8430   -3.9570   23.7020 C   0  0  0  0  0  3  0  0  0  0  0  0
  -21.9260   -4.7830   22.5680 C   0  0  0  0  0  0  0  0  0  0  0  0
  -22.2780   -4.2470   21.3740 F   0  0  0  0  0  0  0  0  0  0  0  0
  -21.3720   -3.7070   26.0300 F   0  0  0  0  0  0  0  0  0  0  0  0
  -22.7440  -13.5480   21.1540 C   0  0  0  0  0  0  0  0  0  0  0  0
  -22.0120  -12.8580   22.0210 N   0  0  0  0  0  0  0  0  0  0  0  0
  -22.3100  -14.5720   20.6270 O   0  0  0  0  0  0  0  0  0  0  0  0
  -22.3750  -12.0310   22.4700 H   0  0  0  0  0  0  0  0  0  0  0  0
  -21.0740  -13.1600   22.2400 H   0  0  0  0  0  0  0  0  0  0  0  0
  -25.3760  -15.2070   20.3350 N   0  0  0  0  0  0  0  0  0  0  0  0
  -24.5990  -15.8520   20.4270 H   0  0  0  0  0  0  0  0  0  0  0  0
  -26.2210  -15.6550   20.0030 H   0  0  0  0  0  0  0  0  0  0  0  0
  -32.8580  -18.4070   18.2500 C   0  0  0  0  0  1  0  0  0  0  0  0
  -31.5770  -19.0150   17.6560 C   0  0  0  0  0  2  0  0  0  0  0  0
  -29.5270  -23.8930   19.8070 O   0  0  0  0  0  0  0  0  0  0  0  0
  -29.9660  -25.1150   19.1980 C   0  0  0  0  0  2  0  0  0  0  0  0
  -28.7570  -26.0320   18.9590 C   0  0  0  0  0  2  0  0  0  0  0  0
  -28.4270  -26.7670   20.1400 O   0  0  0  0  0  0  0  0  0  0  0  0
  -24.5870  -31.8920   23.2360 C   0  0  0  0  0  0  0  0  0  0  0  0
  -27.2370  -27.4630   20.1410 C   0  0  0  0  0  0  0  0  0  0  0  0
  -23.3780  -30.4840   21.6010 C   0  0  0  0  0  3  0  0  0  0  0  0
  -24.8290  -28.9490   20.1780 C   0  0  0  0  0  0  0  0  0  0  0  0
  -25.9020  -30.8470   21.3970 C   0  0  0  0  0  2  0  0  0  0  0  0
  -25.9870  -29.4770   20.7630 C   0  0  0  0  0  0  0  0  0  0  0  0
  -27.1890  -28.7350   20.7540 C   0  0  0  0  0  3  0  0  0  0  0  0
  -26.0500  -26.9350   19.5770 C   0  0  0  0  0  3  0  0  0  0  0  0
  -24.8530  -27.6730   19.5910 C   0  0  0  0  0  3  0  0  0  0  0  0
  -23.5840  -29.8040   20.2230 C   0  0  0  0  0  2  0  0  0  0  0  0
  -24.6400  -31.0900   22.1370 N   0  0  0  0  0  0  0  0  0  0  0  0
  -23.5060  -32.1650   23.7780 O   0  0  0  0  0  0  0  0  0  0  0  0
  -22.7330  -29.4620   22.5650 C   0  0  0  0  0  0  0  0  0  0  0  0
  -21.4080  -29.2790   22.4410 N   0  0  0  0  0  0  0  0  0  0  0  0
  -23.4200  -28.8390   23.3780 O   0  0  0  0  0  0  0  0  0  0  0  0
  -20.9150  -29.8340   21.7550 H   0  0  0  0  0  0  0  0  0  0  0  0
  -18.0360  -28.0910   22.9530 C   0  0  0  0  0  0  0  0  0  0  0  0
  -20.5940  -28.3430   23.2150 C   0  0  0  0  0  3  0  0  0  0  0  0
  -20.6920  -26.9120   22.6380 C   0  0  0  0  0  2  0  0  0  0  0  0
  -19.5870  -26.5910   21.6280 C   0  0  0  0  0  2  0  0  0  0  0  0
  -18.2070  -26.7400   22.2770 C   0  0  0  0  0  2  0  0  0  0  0  0
  -19.1580  -28.8500   23.3780 C   0  0  0  0  0  0  0  0  0  0  0  0
  -18.9450  -30.1150   23.9670 C   0  0  0  0  0  3  0  0  0  0  0  0
  -17.6420  -30.6210   24.1370 C   0  0  0  0  0  3  0  0  0  0  0  0
  -16.5340  -29.8590   23.7280 C   0  0  0  0  0  3  0  0  0  0  0  0
  -16.7320  -28.5950   23.1420 C   0  0  0  0  0  3  0  0  0  0  0  0
  -25.8740  -32.5260   23.8500 C   0  0  0  0  0  3  0  0  0  0  0  0
  -25.5660  -33.9250   24.1740 N   0  0  0  0  0  0  0  0  0  0  0  0
  -25.8980  -34.9740   23.4080 C   0  0  0  0  0  0  0  0  0  0  0  0
  -26.5680  -34.8640   22.3770 O   0  0  0  0  0  0  0  0  0  0  0  0
  -24.9710  -34.0850   24.9750 H   0  0  0  0  0  0  0  0  0  0  0  0
  -24.1700  -36.7620   23.0390 C   0  0  0  0  0  1  0  0  0  0  0  0
  -25.4090  -36.3630   23.8570 C   0  0  0  0  0  3  0  0  0  0  0  0
  -27.5410  -37.2490   24.6890 C   0  0  0  0  0  1  0  0  0  0  0  0
  -26.4420  -37.4150   23.7420 N   0  0  0  0  0  0  0  0  0  0  0  0
  -26.0360  -38.3360   23.8850 H   0  0  0  0  0  0  0  0  0  0  0  0
  -26.3970  -31.7590   25.1270 C   0  0  1  0  0  0  0  0  0  0  0  0
  -25.3080  -31.5240   26.1990 C   0  0  0  0  0  1  0  0  0  0  0  0
  -26.9800  -30.3810   24.7340 C   0  0  0  0  0  1  0  0  0  0  0  0
  -27.5490  -32.5570   25.7820 C   0  0  0  0  0  1  0  0  0  0  0  0
  2  3  2  0
  3  9  1  0
  3  1  1  0
  4  6  1  0
  4  2  1  0
  4  7  1  0
  5  1  2  0
  5 53  1  0
  7  5  1  0
  8  7  1  0
  9 10  1  0
  9 11  1  0
 12 11  1  0
 12 21  1  0
 13 21  1  0
 14 19  1  0
 15 16  1  0
 15 14  1  0
 17 16  1  0
 17 26  1  0
 17 18  1  0
 19 13  1  0
 19 18  1  0
 20 13  2  0
 21 22  1  0
 23 24  2  0
 24 43  1  0
 25 24  1  0
 25 28  1  0
 26 23  1  0
 26 27  1  0
 27 25  2  0
 28 29  1  0
 29 30  2  0
 31 34  1  0
 31 30  1  0
 32 31  2  0
 33 32  1  0
 33 28  2  0
 34 35  1  0
 35 36  1  0
 36 37  2  0
 38 37  1  0
 38 42  1  0
 39 38  2  0
 40 35  2  0
 40 39  1  0
 41 40  1  0
 43 44  1  0
 44 47  1  0
 44 46  1  0
 45 43  2  0
 48 49  1  0
 48 23  1  0
 50 48  1  0
 52 51  1  0
 52  2  1  0
 54 53  1  0
 55 54  1  0
 55 56  1  0
 56 58  1  0
 57 68  2  0
 58 63  1  0
 59 67  1  0
 59 69  1  0
 60 66  1  0
 60 62  1  0
 61 67  1  0
 62 61  1  0
 63 62  2  0
 64 65  1  0
 64 58  2  0
 65 60  2  0
 66 59  1  0
 67 57  1  0
 69 71  2  0
 70 69  1  0
 72 70  1  0
 73 82  2  0
 73 78  1  0
 74 70  1  0
 74 78  1  0
 75 74  1  0
 76 77  1  0
 76 75  1  0
 77 73  1  0
 78 79  2  0
 79 80  1  0
 81 80  2  0
 82 81  1  0
 83 57  1  0
 83 84  1  0
 83 93  1  0
 84 87  1  0
 85 89  1  0
 85 84  1  0
 86 85  2  0
 89 88  1  0
 91 89  1  0
 91 92  1  0
 91 90  1  0
 93 96  1  1
 93 94  1  0
 95 93  1  0
M  ISO  4  13 100  21 100  55 101  56 101
M  END
>  <TORSDO>  (60) 
F 23

>  <SCORE>  (60) 
-12.743

>  <name>  (60) 
60

>  <ligand_id>  (60) 
60

>  <original_smiles>  (60) 
[H]c1c([H])c([H])c2c(c1[H])C([H])([H])C([H])([H])C([H])([H])C2([H])N([H])C(=O)C1([H])N(C(=O)C([H])(N([H])C(=O)C([H])(N([H])C([H])([H])[H])C([H])([H])[H])C(C([H])([H])[H])(C([H])([H])[H])C([H])([H])[H])C([H])([H])c2c([H])c(OC([H])([H])C([H])([H])Oc3c([H])c(N([H])C([H])([H])C([H])([H])N([H])C(=O)N4C([H])([H])C([H])([H])C([H])([H])C([H])(n5nc(-c6c([H])c([H])c(Oc7c([H])c([H])c(F)c([H])c7F)c([H])c6[H])c(C(=O)N([H])[H])c5N([H])[H])C4([H])[H])c(C([H])([H])C([H])([H])[H])c(C([H])([H])[H])[n+]3[H])c([H])c([H])c2C1([H])[H]

>  <smiles>  (60) 
[H]c1c([H])c([H])c2c(c1[H])C([H])([H])C([H])([H])C([H])([H])C2([H])N([H])C(=O)C1([H])N(C(=O)C([H])(N([H])C(=O)C([H])(N([H])C([H])([H])[H])C([H])([H])[H])C(C([H])([H])[H])(C([H])([H])[H])C([H])([H])[H])C([H])([H])c2c([H])c(OC([H])([H])C([H])([H])Oc3c([H])c(N([H])C([H])([H])C([H])([H])N([H])C(=O)N4C([H])([H])C([H])([H])C([H])([H])C([H])(n5nc(-c6c([H])c([H])c(Oc7c([H])c([H])c(F)c([H])c7F)c([H])c6[H])c(C(=O)N([H])[H])c5N([H])[H])C4([H])[H])c(C([H])([H])C([H])([H])[H])c(C([H])([H])[H])[n+]3[H])c([H])c([H])c2C1([H])[H]

$$$$
61:0:0
     RDKit          3D

 92101  0  0  1  0  0  0  0  0999 V2000
  -30.2900  -19.2460   21.9170 C   0  0  0  0  0  3  0  0  0  0  0  0
  -29.2300  -19.2060   19.7710 C   0  0  0  0  0  3  0  0  0  0  0  0
  -29.1840  -21.3310   21.0870 C   0  0  0  0  0  0  0  0  0  0  0  0
  -29.9650  -18.5090   20.7590 C   0  0  0  0  0  0  0  0  0  0  0  0
  -29.9240  -20.6140   22.0850 C   0  0  0  0  0  0  0  0  0  0  0  0
  -28.8470  -20.5760   19.9160 C   0  0  0  0  0  0  0  0  0  0  0  0
  -30.3740  -21.2840   23.3750 C   0  0  0  0  0  1  0  0  0  0  0  0
  -28.0690  -21.1840   18.7600 C   0  0  0  0  0  1  0  0  0  0  0  0
  -27.1730  -23.0290   21.3620 C   0  0  0  0  0  2  0  0  0  0  0  0
  -26.9180  -24.4310   20.7720 C   0  0  0  0  0  2  0  0  0  0  0  0
  -29.2540  -24.0800   20.5840 C   0  0  0  0  0  2  0  0  0  0  0  0
  -28.6970  -22.8200   21.3540 C   0  0  0  0  0  3  0  0  0  0  0  0
  -28.2300  -25.2400   20.8880 C   0  0  0  0  0  3  0  0  0  0  0  0
  -28.3550  -26.5380   20.1720 O   0  0  0  0  0  0  0  0  0  0  0  0
  -24.6170  -31.9120   23.2340 C   0  0  0  0  0  0  0  0  0  0  0  0
  -27.2510  -27.4000   20.1600 C   0  0  0  0  0  0  0  0  0  0  0  0
  -23.4210  -30.5120   21.5900 C   0  0  0  0  0  3  0  0  0  0  0  0
  -24.8830  -28.9920   20.1500 C   0  0  0  0  0  0  0  0  0  0  0  0
  -25.9570  -30.8530   21.4080 C   0  0  0  0  0  2  0  0  0  0  0  0
  -26.0460  -29.4800   20.7600 C   0  0  0  0  0  0  0  0  0  0  0  0
  -27.2350  -28.6910   20.7660 C   0  0  0  0  0  3  0  0  0  0  0  0
  -26.0860  -26.9940   19.4770 C   0  0  0  0  0  3  0  0  0  0  0  0
  -24.9040  -27.7510   19.4980 C   0  0  0  0  0  3  0  0  0  0  0  0
  -23.6380  -29.8510   20.2040 C   0  0  0  0  0  2  0  0  0  0  0  0
  -24.6830  -31.1100   22.1330 N   0  0  0  0  0  0  0  0  0  0  0  0
  -23.5320  -32.1770   23.7720 O   0  0  0  0  0  0  0  0  0  0  0  0
  -22.7730  -29.4810   22.5440 C   0  0  0  0  0  0  0  0  0  0  0  0
  -21.4470  -29.2950   22.4210 N   0  0  0  0  0  0  0  0  0  0  0  0
  -23.4600  -28.8520   23.3530 O   0  0  0  0  0  0  0  0  0  0  0  0
  -20.9530  -29.8540   21.7410 H   0  0  0  0  0  0  0  0  0  0  0  0
  -18.0780  -28.0820   22.9320 C   0  0  0  0  0  0  0  0  0  0  0  0
  -20.6370  -28.3490   23.1890 C   0  0  0  0  0  3  0  0  0  0  0  0
  -20.7410  -26.9220   22.6030 C   0  0  0  0  0  2  0  0  0  0  0  0
  -19.6340  -26.6020   21.5930 C   0  0  0  0  0  2  0  0  0  0  0  0
  -18.2560  -26.7380   22.2460 C   0  0  0  0  0  2  0  0  0  0  0  0
  -19.1970  -28.8450   23.3600 C   0  0  0  0  0  0  0  0  0  0  0  0
  -18.9760  -30.1030   23.9620 C   0  0  0  0  0  3  0  0  0  0  0  0
  -17.6710  -30.5990   24.1390 C   0  0  0  0  0  3  0  0  0  0  0  0
  -16.5670  -29.8330   23.7260 C   0  0  0  0  0  3  0  0  0  0  0  0
  -16.7710  -28.5760   23.1280 C   0  0  0  0  0  3  0  0  0  0  0  0
  -25.8960  -32.5510   23.8560 C   0  0  0  0  0  3  0  0  0  0  0  0
  -26.4180  -31.7830   25.1320 C   0  0  1  0  0  0  0  0  0  0  0  0
  -25.3250  -31.5370   26.1990 C   0  0  0  0  0  1  0  0  0  0  0  0
  -27.0110  -30.4090   24.7410 C   0  0  0  0  0  1  0  0  0  0  0  0
  -27.5630  -32.5850   25.7940 C   0  0  0  0  0  1  0  0  0  0  0  0
  -25.5790  -33.9470   24.1860 N   0  0  0  0  0  0  0  0  0  0  0  0
  -25.9030  -35.0010   23.4250 C   0  0  0  0  0  0  0  0  0  0  0  0
  -26.5720  -34.9020   22.3930 O   0  0  0  0  0  0  0  0  0  0  0  0
  -24.9840  -34.0980   24.9870 H   0  0  0  0  0  0  0  0  0  0  0  0
  -24.1670  -36.7860   23.0670 C   0  0  0  0  0  1  0  0  0  0  0  0
  -25.4070  -36.3860   23.8820 C   0  0  0  0  0  3  0  0  0  0  0  0
  -27.5330  -37.2810   24.7240 C   0  0  0  0  0  1  0  0  0  0  0  0
  -26.4350  -37.4450   23.7750 N   0  0  0  0  0  0  0  0  0  0  0  0
  -26.0240  -38.3630   23.9220 H   0  0  0  0  0  0  0  0  0  0  0  0
  -30.6450  -17.1280   20.4770 C   0  0  0  0  0  2  0  0  0  0  0  0
  -30.0020  -15.8370   20.7400 O   0  0  0  0  0  0  0  0  0  0  0  0
  -30.7480  -14.6920   20.3800 C   0  0  0  0  0  0  0  0  0  0  0  0
  -30.4170  -12.4500   19.3370 C   0  0  0  0  0  2  0  0  0  0  0  0
  -29.5080  -12.6210   18.1020 C   0  0  0  0  0  2  0  0  0  0  0  0
  -28.0290  -12.4840   18.5080 C   0  0  0  0  0  2  0  0  0  0  0  0
  -27.6610  -13.3570   19.7400 C   0  0  0  0  0  3  0  0  0  0  0  0
  -28.6970  -13.2350   20.8770 C   0  0  0  0  0  2  0  0  0  0  0  0
  -30.0250  -13.4790   20.3150 N   0  0  0  0  0  0  0  0  0  0  0  0
  -31.9100  -14.7910   19.9830 O   0  0  0  0  0  0  0  0  0  0  0  0
  -25.2590  -13.9460   20.4260 C   0  0  0  0  0  0  0  0  0  0  0  0
  -24.1910  -13.1730   20.7920 C   0  0  0  0  0  0  0  0  0  0  0  0
  -24.6610  -11.8240   20.7880 C   0  0  0  0  0  0  0  0  0  0  0  0
  -26.3100  -13.0690   20.2140 N   0  0  0  0  0  0  0  0  0  0  0  0
  -25.9560  -11.7880   20.4960 N   0  0  0  0  0  0  0  0  0  0  0  0
  -23.9380  -10.5610   20.9880 C   0  0  0  0  0  0  0  0  0  0  0  0
  -24.3600   -9.6080   21.9430 C   0  0  0  0  0  3  0  0  0  0  0  0
  -23.6360   -8.4110   22.1290 C   0  0  0  0  0  3  0  0  0  0  0  0
  -22.4750   -8.1570   21.3610 C   0  0  0  0  0  0  0  0  0  0  0  0
  -22.0710   -9.0970   20.3970 C   0  0  0  0  0  3  0  0  0  0  0  0
  -22.7960  -10.2850   20.2080 C   0  0  0  0  0  3  0  0  0  0  0  0
  -21.7240   -7.0100   21.4560 O   0  0  0  0  0  0  0  0  0  0  0  0
  -21.6630   -6.2830   22.6170 C   0  0  0  0  0  0  0  0  0  0  0  0
  -21.2120   -6.8500   23.8290 C   0  0  0  0  0  3  0  0  0  0  0  0
  -21.0990   -6.0480   24.9820 C   0  0  0  0  0  3  0  0  0  0  0  0
  -21.4270   -4.6810   24.9260 C   0  0  0  0  0  0  0  0  0  0  0  0
  -21.8710   -4.1130   23.7190 C   0  0  0  0  0  3  0  0  0  0  0  0
  -21.9850   -4.9120   22.5670 C   0  0  0  0  0  0  0  0  0  0  0  0
  -22.3920   -4.3540   21.4010 F   0  0  0  0  0  0  0  0  0  0  0  0
  -21.3120   -3.9090   26.0320 F   0  0  0  0  0  0  0  0  0  0  0  0
  -22.7900  -13.6470   21.0390 C   0  0  0  0  0  0  0  0  0  0  0  0
  -22.0510  -12.9570   21.9020 N   0  0  0  0  0  0  0  0  0  0  0  0
  -22.3550  -14.6660   20.5010 O   0  0  0  0  0  0  0  0  0  0  0  0
  -22.4160  -12.1340   22.3580 H   0  0  0  0  0  0  0  0  0  0  0  0
  -21.1100  -13.2580   22.1110 H   0  0  0  0  0  0  0  0  0  0  0  0
  -25.4210  -15.3160   20.2330 N   0  0  0  0  0  0  0  0  0  0  0  0
  -24.6590  -15.9750   20.3370 H   0  0  0  0  0  0  0  0  0  0  0  0
  -26.2890  -15.7530   19.9460 H   0  0  0  0  0  0  0  0  0  0  0  0
  1  5  1  0
  2  6  2  0
  2  4  1  0
  3  5  2  0
  4  1  2  0
  5  7  1  0
  6  3  1  0
  8  6  1  0
 10 13  1  0
 10  9  1  0
 11 13  1  0
 11 12  1  0
 12  3  1  0
 12  9  1  0
 13 14  1  0
 15 26  2  0
 16 14  1  0
 16 21  1  0
 17 25  1  0
 17 27  1  0
 18 24  1  0
 18 20  1  0
 19 25  1  0
 20 21  2  0
 20 19  1  0
 22 23  1  0
 22 16  2  0
 23 18  2  0
 24 17  1  0
 25 15  1  0
 27 29  2  0
 28 27  1  0
 30 28  1  0
 31 40  2  0
 31 36  1  0
 32 28  1  0
 32 36  1  0
 33 32  1  0
 34 35  1  0
 34 33  1  0
 35 31  1  0
 36 37  2  0
 37 38  1  0
 39 38  2  0
 40 39  1  0
 41 15  1  0
 41 46  1  0
 41 42  1  0
 42 45  1  1
 42 43  1  0
 44 42  1  0
 46 49  1  0
 47 51  1  0
 47 46  1  0
 48 47  2  0
 51 50  1  0
 53 51  1  0
 53 54  1  0
 53 52  1  0
 55 56  1  0
 55  4  1  0
 57 56  1  0
 58 63  1  0
 59 60  1  0
 59 58  1  0
 61 60  1  0
 61 68  1  0
 61 62  1  0
 63 57  1  0
 63 62  1  0
 64 57  2  0
 65 66  2  0
 66 85  1  0
 67 66  1  0
 67 70  1  0
 68 65  1  0
 68 69  1  0
 69 67  2  0
 70 71  1  0
 71 72  2  0
 73 76  1  0
 73 72  1  0
 74 73  2  0
 75 74  1  0
 75 70  2  0
 76 77  1  0
 77 78  1  0
 78 79  2  0
 80 79  1  0
 80 84  1  0
 81 80  2  0
 82 77  2  0
 82 81  1  0
 83 82  1  0
 85 86  1  0
 86 89  1  0
 86 88  1  0
 87 85  2  0
 90 91  1  0
 90 65  1  0
 92 90  1  0
M  ISO  4  13 101  14 101  56 100  57 100
M  END
>  <TORSDO>  (61) 
F 19

>  <SCORE>  (61) 
-14.335

>  <name>  (61) 
61

>  <ligand_id>  (61) 
61

>  <original_smiles>  (61) 
[H]c1c([H])c([H])c2c(c1[H])C([H])([H])C([H])([H])C([H])([H])C2([H])N([H])C(=O)C1([H])N(C(=O)C([H])(N([H])C(=O)C([H])(N([H])C([H])([H])[H])C([H])([H])[H])C(C([H])([H])[H])(C([H])([H])[H])C([H])([H])[H])C([H])([H])c2c([H])c(OC3([H])C([H])([H])C([H])([H])C([H])(c4c(C([H])([H])[H])c([H])c(C([H])([H])OC(=O)N5C([H])([H])C([H])([H])C([H])([H])C([H])(n6nc(-c7c([H])c([H])c(Oc8c([H])c([H])c(F)c([H])c8F)c([H])c7[H])c(C(=O)N([H])[H])c6N([H])[H])C5([H])[H])c([H])c4C([H])([H])[H])C3([H])[H])c([H])c([H])c2C1([H])[H]

>  <smiles>  (61) 
[H]c1c([H])c([H])c2c(c1[H])C([H])([H])C([H])([H])C([H])([H])C2([H])N([H])C(=O)C1([H])N(C(=O)C([H])(N([H])C(=O)C([H])(N([H])C([H])([H])[H])C([H])([H])[H])C(C([H])([H])[H])(C([H])([H])[H])C([H])([H])[H])C([H])([H])c2c([H])c(OC3([H])C([H])([H])C([H])([H])C([H])(c4c(C([H])([H])[H])c([H])c(C([H])([H])OC(=O)N5C([H])([H])C([H])([H])C([H])([H])C([H])(n6nc(-c7c([H])c([H])c(Oc8c([H])c([H])c(F)c([H])c8F)c([H])c7[H])c(C(=O)N([H])[H])c6N([H])[H])C5([H])[H])c([H])c4C([H])([H])[H])C3([H])[H])c([H])c([H])c2C1([H])[H]

$$$$
62:0:0
     RDKit          3D

104114  0  0  1  0  0  0  0  0999 V2000
  -29.9340  -19.2990   21.8000 C   0  0  0  0  0  3  0  0  0  0  0  0
  -30.3250  -19.3210   19.4190 C   0  0  0  0  0  3  0  0  0  0  0  0
  -30.0850  -20.0480   20.6110 C   0  0  0  0  0  0  0  0  0  0  0  0
  -30.0080  -17.8830   21.8050 C   0  0  0  0  0  0  0  0  0  0  0  0
  -30.2740  -17.1590   20.6130 C   0  0  0  0  0  0  0  0  0  0  0  0
  -30.4170  -17.8930   19.4020 C   0  0  0  0  0  0  0  0  0  0  0  0
  -29.8060  -17.1490   23.1210 C   0  0  0  0  0  1  0  0  0  0  0  0
  -31.0030  -14.7700   20.0480 C   0  0  0  0  0  0  0  0  0  0  0  0
  -30.7650  -12.6040   18.8700 C   0  0  0  0  0  2  0  0  0  0  0  0
  -29.7740  -12.8050   17.7030 C   0  0  0  0  0  2  0  0  0  0  0  0
  -28.3150  -12.6310   18.1770 C   0  0  0  0  0  2  0  0  0  0  0  0
  -28.0080  -13.4310   19.4700 C   0  0  0  0  0  3  0  0  0  0  0  0
  -29.1010  -13.1840   20.5340 C   0  0  0  0  0  2  0  0  0  0  0  0
  -30.3970  -13.5520   19.9370 N   0  0  0  0  0  0  0  0  0  0  0  0
  -32.1120  -15.0020   19.5560 O   0  0  0  0  0  0  0  0  0  0  0  0
  -30.2580  -15.7130   20.6760 N   0  0  0  0  0  0  0  0  0  0  0  0
  -29.4870  -15.3280   21.1960 H   0  0  0  0  0  0  0  0  0  0  0  0
  -25.6180  -13.9950   20.2420 C   0  0  0  0  0  0  0  0  0  0  0  0
  -24.5760  -13.2040   20.6430 C   0  0  0  0  0  0  0  0  0  0  0  0
  -25.0630  -11.8610   20.6050 C   0  0  0  0  0  0  0  0  0  0  0  0
  -26.6740  -13.1320   19.9850 N   0  0  0  0  0  0  0  0  0  0  0  0
  -26.3440  -11.8440   20.2600 N   0  0  0  0  0  0  0  0  0  0  0  0
  -24.3660  -10.5860   20.8220 C   0  0  0  0  0  0  0  0  0  0  0  0
  -24.7630   -9.6900   21.8390 C   0  0  0  0  0  3  0  0  0  0  0  0
  -24.0660   -8.4790   22.0390 C   0  0  0  0  0  3  0  0  0  0  0  0
  -22.9590   -8.1530   21.2210 C   0  0  0  0  0  0  0  0  0  0  0  0
  -22.5810   -9.0380   20.1950 C   0  0  0  0  0  3  0  0  0  0  0  0
  -23.2790  -10.2410   19.9930 C   0  0  0  0  0  3  0  0  0  0  0  0
  -22.2400   -6.9880   21.3240 O   0  0  0  0  0  0  0  0  0  0  0  0
  -21.9960   -6.3980   22.5390 C   0  0  0  0  0  0  0  0  0  0  0  0
  -21.3260   -7.0810   23.5770 C   0  0  0  0  0  3  0  0  0  0  0  0
  -21.0360   -6.4140   24.7840 C   0  0  0  0  0  3  0  0  0  0  0  0
  -21.4040   -5.0650   24.9520 C   0  0  0  0  0  0  0  0  0  0  0  0
  -22.0660   -4.3830   23.9160 C   0  0  0  0  0  3  0  0  0  0  0  0
  -22.3580   -5.0460   22.7120 C   0  0  0  0  0  0  0  0  0  0  0  0
  -22.9770   -4.3770   21.7090 F   0  0  0  0  0  0  0  0  0  0  0  0
  -21.1180   -4.4230   26.1070 F   0  0  0  0  0  0  0  0  0  0  0  0
  -23.1790  -13.6550   20.9560 C   0  0  0  0  0  0  0  0  0  0  0  0
  -22.5010  -12.9660   21.8670 N   0  0  0  0  0  0  0  0  0  0  0  0
  -22.6970  -14.6550   20.4250 O   0  0  0  0  0  0  0  0  0  0  0  0
  -22.9050  -12.1580   22.3160 H   0  0  0  0  0  0  0  0  0  0  0  0
  -21.5660  -13.2540   22.1200 H   0  0  0  0  0  0  0  0  0  0  0  0
  -25.7540  -15.3680   20.0560 N   0  0  0  0  0  0  0  0  0  0  0  0
  -24.9800  -16.0090   20.1840 H   0  0  0  0  0  0  0  0  0  0  0  0
  -26.5890  -15.8180   19.7030 H   0  0  0  0  0  0  0  0  0  0  0  0
  -28.9710  -22.3270   21.3610 C   0  0  0  0  0  2  0  0  0  0  0  0
  -29.3300  -23.8150   21.5980 C   0  0  0  0  0  2  0  0  0  0  0  0
  -30.5940  -23.5830   19.3760 C   0  0  0  0  0  2  0  0  0  0  0  0
  -30.1260  -21.6010   20.6390 C   0  0  0  0  0  3  0  0  0  0  0  0
  -29.8690  -24.5870   20.3510 C   0  0  2  0  0  0  0  0  0  0  0  0
  -30.9560  -25.5710   20.8450 C   0  0  0  0  0  1  0  0  0  0  0  0
  -30.1230  -22.2230   19.3530 O   0  0  0  0  0  0  0  0  0  0  0  0
  -28.7310  -25.4360   19.6540 C   0  0  0  0  0  2  0  0  0  0  0  0
  -28.6800  -26.8290   20.0830 O   0  0  0  0  0  0  0  0  0  0  0  0
  -24.6890  -31.8380   23.2500 C   0  0  0  0  0  0  0  0  0  0  0  0
  -27.4860  -27.5380   20.0510 C   0  0  0  0  0  0  0  0  0  0  0  0
  -23.5400  -30.4490   21.5580 C   0  0  0  0  0  3  0  0  0  0  0  0
  -25.0480  -29.0020   20.0920 C   0  0  0  0  0  0  0  0  0  0  0  0
  -26.0590  -30.8820   21.3940 C   0  0  0  0  0  2  0  0  0  0  0  0
  -26.1890  -29.5330   20.7070 C   0  0  0  0  0  0  0  0  0  0  0  0
  -27.4080  -28.8090   20.6820 C   0  0  0  0  0  3  0  0  0  0  0  0
  -26.3260  -27.0400   19.4170 C   0  0  0  0  0  3  0  0  0  0  0  0
  -25.1150  -27.7590   19.4410 C   0  0  0  0  0  3  0  0  0  0  0  0
  -23.7800  -29.8240   20.1580 C   0  0  0  0  0  2  0  0  0  0  0  0
  -24.7800  -31.0710   22.1260 N   0  0  0  0  0  0  0  0  0  0  0  0
  -23.5960  -32.0610   23.7880 O   0  0  0  0  0  0  0  0  0  0  0  0
  -22.9140  -29.3790   22.4810 C   0  0  0  0  0  0  0  0  0  0  0  0
  -21.6030  -29.1380   22.3160 N   0  0  0  0  0  0  0  0  0  0  0  0
  -23.6060  -28.7720   23.3040 O   0  0  0  0  0  0  0  0  0  0  0  0
  -21.1060  -29.6840   21.6260 H   0  0  0  0  0  0  0  0  0  0  0  0
  -18.2770  -27.7810   22.7090 C   0  0  0  0  0  0  0  0  0  0  0  0
  -20.8120  -28.1470   23.0470 C   0  0  0  0  0  3  0  0  0  0  0  0
  -20.9940  -26.7360   22.4410 C   0  0  0  0  0  2  0  0  0  0  0  0
  -19.9300  -26.3880   21.3940 C   0  0  0  0  0  2  0  0  0  0  0  0
  -18.5290  -26.4560   22.0070 C   0  0  0  0  0  2  0  0  0  0  0  0
  -19.3490  -28.5820   23.1820 C   0  0  0  0  0  0  0  0  0  0  0  0
  -19.0600  -29.8200   23.7960 C   0  0  0  0  0  3  0  0  0  0  0  0
  -17.7320  -30.2570   23.9440 C   0  0  0  0  0  3  0  0  0  0  0  0
  -16.6730  -29.4540   23.4890 C   0  0  0  0  0  3  0  0  0  0  0  0
  -16.9450  -28.2170   22.8760 C   0  0  0  0  0  3  0  0  0  0  0  0
  -25.9500  -32.4910   23.8960 C   0  0  0  0  0  3  0  0  0  0  0  0
  -26.4520  -31.7290   25.1840 C   0  0  1  0  0  0  0  0  0  0  0  0
  -25.3340  -31.4400   26.2110 C   0  0  0  0  0  1  0  0  0  0  0  0
  -27.1030  -30.3780   24.8020 C   0  0  0  0  0  1  0  0  0  0  0  0
  -27.5490  -32.5620   25.8890 C   0  0  0  0  0  1  0  0  0  0  0  0
  -25.6100  -33.8850   24.2180 N   0  0  0  0  0  0  0  0  0  0  0  0
  -25.9260  -34.9400   23.4550 C   0  0  0  0  0  0  0  0  0  0  0  0
  -26.6040  -34.8450   22.4290 O   0  0  0  0  0  0  0  0  0  0  0  0
  -25.0040  -34.0300   25.0110 H   0  0  0  0  0  0  0  0  0  0  0  0
  -24.1640  -36.6970   23.0780 C   0  0  0  0  0  1  0  0  0  0  0  0
  -25.4070  -36.3200   23.9020 C   0  0  0  0  0  3  0  0  0  0  0  0
  -27.5120  -37.2540   24.7540 C   0  0  0  0  0  1  0  0  0  0  0  0
  -26.4200  -37.3930   23.7940 N   0  0  0  0  0  0  0  0  0  0  0  0
  -25.9940  -38.3060   23.9290 H   0  0  0  0  0  0  0  0  0  0  0  0
  -30.6050  -17.1850   18.2340 O   0  0  0  0  0  0  0  0  0  0  0  0
  -33.0540  -18.1900   15.6480 C   0  0  0  0  0  3  0  0  0  0  0  0
  -30.8980  -19.2270   15.1730 C   0  0  0  0  0  3  0  0  0  0  0  0
  -32.2490  -19.0170   14.8380 C   0  0  0  0  0  0  0  0  0  0  0  0
  -32.5090  -17.5720   16.7930 C   0  0  0  0  0  0  0  0  0  0  0  0
  -30.3450  -18.6100   16.3150 C   0  0  0  0  0  0  0  0  0  0  0  0
  -31.1540  -17.7890   17.1310 C   0  0  0  0  0  0  0  0  0  0  0  0
  -32.8290  -19.6760   13.6030 C   0  0  0  0  0  1  0  0  0  0  0  0
  -33.3770  -16.6660   17.6460 C   0  0  0  0  0  1  0  0  0  0  0  0
  -28.8860  -18.8290   16.6640 C   0  0  0  0  0  1  0  0  0  0  0  0
  1  4  1  0
  2  3  1  0
  3  1  2  0
  4  7  1  0
  5 16  1  0
  5  4  2  0
  6  2  2  0
  6  5  1  0
  8 16  1  0
  9 14  1  0
 10 11  1  0
 10  9  1  0
 12 11  1  0
 12 21  1  0
 12 13  1  0
 14  8  1  0
 14 13  1  0
 15  8  2  0
 16 17  1  0
 18 19  2  0
 19 38  1  0
 20 19  1  0
 20 23  1  0
 21 18  1  0
 21 22  1  0
 22 20  2  0
 23 24  1  0
 24 25  2  0
 26 29  1  0
 26 25  1  0
 27 26  2  0
 28 27  1  0
 28 23  2  0
 29 30  1  0
 30 35  2  0
 30 31  1  0
 31 32  2  0
 32 33  1  0
 33 37  1  0
 34 33  2  0
 35 34  1  0
 36 35  1  0
 38 39  1  0
 39 42  1  0
 39 41  1  0
 40 38  2  0
 43 44  1  0
 43 18  1  0
 45 43  1  0
 46 47  1  0
 48 50  1  0
 49  3  1  0
 49 46  1  0
 50 51  1  1
 50 47  1  0
 52 48  1  0
 52 49  1  0
 53 54  1  0
 53 50  1  0
 55 66  2  0
 56 54  1  0
 56 61  1  0
 57 65  1  0
 57 67  1  0
 58 64  1  0
 58 60  1  0
 59 65  1  0
 60 59  1  0
 61 60  2  0
 62 63  1  0
 62 56  2  0
 63 58  2  0
 64 57  1  0
 65 55  1  0
 67 69  2  0
 68 67  1  0
 70 68  1  0
 71 80  2  0
 71 76  1  0
 72 68  1  0
 72 76  1  0
 73 72  1  0
 74 75  1  0
 74 73  1  0
 75 71  1  0
 76 77  2  0
 77 78  1  0
 79 78  2  0
 80 79  1  0
 81 55  1  0
 81 86  1  0
 81 82  1  0
 82 85  1  1
 82 83  1  0
 84 82  1  0
 86 89  1  0
 87 91  1  0
 87 86  1  0
 88 87  2  0
 91 90  1  0
 93 91  1  0
 93 94  1  0
 93 92  1  0
 95  6  1  0
 96 99  1  0
 97100  2  0
 98 97  1  0
 98 96  2  0
 99101  2  0
 99103  1  0
100104  1  0
100101  1  0
101 95  1  0
102 98  1  0
M  ISO  4   8 100  16 100  53 101  54 101
M  END
>  <TORSDO>  (62) 
F 20

>  <SCORE>  (62) 
-11.560

>  <name>  (62) 
62

>  <ligand_id>  (62) 
62

>  <original_smiles>  (62) 
[H]c1c([H])c([H])c2c(c1[H])C([H])([H])C([H])([H])C([H])([H])C2([H])N([H])C(=O)C1([H])N(C(=O)C([H])(N([H])C(=O)C([H])(N([H])C([H])([H])[H])C([H])([H])[H])C(C([H])([H])[H])(C([H])([H])[H])C([H])([H])[H])C([H])([H])c2c([H])c(OC([H])([H])C3(C([H])([H])[H])C([H])([H])OC([H])(c4c([H])c(Oc5c(C([H])([H])[H])c([H])c(C([H])([H])[H])c([H])c5C([H])([H])[H])c(N([H])C(=O)N5C([H])([H])C([H])([H])C([H])([H])C([H])(n6nc(-c7c([H])c([H])c(Oc8c([H])c([H])c(F)c([H])c8F)c([H])c7[H])c(C(=O)N([H])[H])c6N([H])[H])C5([H])[H])c(C([H])([H])[H])c4[H])C([H])([H])C3([H])[H])c([H])c([H])c2C1([H])[H]

>  <smiles>  (62) 
[H]c1c([H])c([H])c2c(c1[H])C([H])([H])C([H])([H])C([H])([H])C2([H])N([H])C(=O)C1([H])N(C(=O)C([H])(N([H])C(=O)C([H])(N([H])C([H])([H])[H])C([H])([H])[H])C(C([H])([H])[H])(C([H])([H])[H])C([H])([H])[H])C([H])([H])c2c([H])c(OC([H])([H])C3(C([H])([H])[H])C([H])([H])OC([H])(c4c([H])c(Oc5c(C([H])([H])[H])c([H])c(C([H])([H])[H])c([H])c5C([H])([H])[H])c(N([H])C(=O)N5C([H])([H])C([H])([H])C([H])([H])C([H])(n6nc(-c7c([H])c([H])c(Oc8c([H])c([H])c(F)c([H])c8F)c([H])c7[H])c(C(=O)N([H])[H])c6N([H])[H])C5([H])[H])c(C([H])([H])[H])c4[H])C([H])([H])C3([H])[H])c([H])c([H])c2C1([H])[H]

$$$$
63:0:0
     RDKit          3D

 92100  0  0  1  0  0  0  0  0999 V2000
  -31.0230  -19.2080   19.7700 C   0  0  0  0  0  3  0  0  0  0  0  0
  -28.7620  -19.0070   19.4370 C   0  0  0  0  0  3  0  0  0  0  0  0
  -29.6950  -21.4640   19.2520 C   0  0  0  0  0  0  0  0  0  0  0  0
  -29.9640  -18.2240   19.7260 C   0  0  0  0  0  0  0  0  0  0  0  0
  -30.9100  -20.6910   19.5860 C   0  0  0  0  0  0  0  0  0  0  0  0
  -28.6160  -20.4840   19.2240 C   0  0  0  0  0  0  0  0  0  0  0  0
  -30.8320  -15.4140   19.8630 C   0  0  0  0  0  0  0  0  0  0  0  0
  -30.8290  -12.9080   19.2090 C   0  0  0  0  0  2  0  0  0  0  0  0
  -29.9060  -12.6090   17.9980 C   0  0  0  0  0  2  0  0  0  0  0  0
  -28.4550  -12.3860   18.4610 C   0  0  0  0  0  2  0  0  0  0  0  0
  -28.0080  -13.4610   19.4820 C   0  0  0  0  0  3  0  0  0  0  0  0
  -29.0490  -13.6800   20.6010 C   0  0  0  0  0  2  0  0  0  0  0  0
  -30.2940  -14.1050   19.9470 N   0  0  0  0  0  0  0  0  0  0  0  0
  -32.0400  -15.4450   19.5860 O   0  0  0  0  0  0  0  0  0  0  0  0
  -29.9880  -16.6210   19.9260 N   0  0  0  0  0  0  0  0  0  0  0  0
  -29.0670  -16.2960   20.1770 H   0  0  0  0  0  0  0  0  0  0  0  0
  -25.6810  -14.1320   20.2830 C   0  0  0  0  0  0  0  0  0  0  0  0
  -24.5910  -13.4040   20.6630 C   0  0  0  0  0  0  0  0  0  0  0  0
  -24.9910  -12.0320   20.6080 C   0  0  0  0  0  0  0  0  0  0  0  0
  -26.6740  -13.2100   20.0070 N   0  0  0  0  0  0  0  0  0  0  0  0
  -26.2720  -11.9400   20.2720 N   0  0  0  0  0  0  0  0  0  0  0  0
  -24.2090  -10.8040   20.7940 C   0  0  0  0  0  0  0  0  0  0  0  0
  -24.6000   -9.8090   21.7170 C   0  0  0  0  0  3  0  0  0  0  0  0
  -23.8160   -8.6480   21.8930 C   0  0  0  0  0  3  0  0  0  0  0  0
  -22.6280   -8.4740   21.1460 C   0  0  0  0  0  0  0  0  0  0  0  0
  -22.2550   -9.4560   20.2110 C   0  0  0  0  0  3  0  0  0  0  0  0
  -23.0380  -10.6090   20.0340 C   0  0  0  0  0  3  0  0  0  0  0  0
  -21.8190   -7.3650   21.2310 O   0  0  0  0  0  0  0  0  0  0  0  0
  -21.7480   -6.6140   22.3760 C   0  0  0  0  0  0  0  0  0  0  0  0
  -21.3330   -7.1670   23.6070 C   0  0  0  0  0  3  0  0  0  0  0  0
  -21.2060   -6.3430   24.7430 C   0  0  0  0  0  3  0  0  0  0  0  0
  -21.4860   -4.9660   24.6510 C   0  0  0  0  0  0  0  0  0  0  0  0
  -21.8950   -4.4120   23.4250 C   0  0  0  0  0  3  0  0  0  0  0  0
  -22.0230   -5.2330   22.2900 C   0  0  0  0  0  0  0  0  0  0  0  0
  -22.3950   -4.6900   21.1070 F   0  0  0  0  0  0  0  0  0  0  0  0
  -21.3570   -4.1730   25.7400 F   0  0  0  0  0  0  0  0  0  0  0  0
  -23.2220  -13.9440   20.9620 C   0  0  0  0  0  0  0  0  0  0  0  0
  -22.4780  -13.2740   21.8330 N   0  0  0  0  0  0  0  0  0  0  0  0
  -22.8270  -14.9940   20.4580 O   0  0  0  0  0  0  0  0  0  0  0  0
  -22.8090  -12.4220   22.2610 H   0  0  0  0  0  0  0  0  0  0  0  0
  -21.5610  -13.6210   22.0800 H   0  0  0  0  0  0  0  0  0  0  0  0
  -25.9050  -15.4970   20.1170 N   0  0  0  0  0  0  0  0  0  0  0  0
  -25.1620  -16.1770   20.2320 H   0  0  0  0  0  0  0  0  0  0  0  0
  -26.7440  -15.8960   19.7180 H   0  0  0  0  0  0  0  0  0  0  0  0
  -29.6430  -23.1890   19.1370 C   0  0  0  0  0  0  0  0  0  0  0  0
  -30.7080  -23.7490   19.4210 O   0  0  0  0  0  0  0  0  0  0  0  0
  -28.4730  -24.3900   18.7100 C   0  0  0  0  0  2  0  0  0  0  0  0
  -28.6190  -26.0130   18.9330 O   0  0  0  0  0  0  0  0  0  0  0  0
  -24.6240  -31.1700   22.6850 C   0  0  0  0  0  0  0  0  0  0  0  0
  -27.5190  -27.0070   19.0150 C   0  0  0  0  0  0  0  0  0  0  0  0
  -23.5260  -29.9400   20.8560 C   0  0  0  0  0  3  0  0  0  0  0  0
  -25.0810  -28.6770   19.2210 C   0  0  0  0  0  0  0  0  0  0  0  0
  -26.0630  -30.3750   20.7450 C   0  0  0  0  0  2  0  0  0  0  0  0
  -26.2380  -29.0850   19.8970 C   0  0  0  0  0  0  0  0  0  0  0  0
  -27.4500  -28.2750   19.7720 C   0  0  0  0  0  3  0  0  0  0  0  0
  -26.3200  -26.7450   18.3130 C   0  0  0  0  0  3  0  0  0  0  0  0
  -25.1430  -27.5290   18.4130 C   0  0  0  0  0  3  0  0  0  0  0  0
  -23.7970  -29.4850   19.3950 C   0  0  0  0  0  2  0  0  0  0  0  0
  -24.7580  -30.5140   21.4870 N   0  0  0  0  0  0  0  0  0  0  0  0
  -23.5210  -31.2970   23.2410 O   0  0  0  0  0  0  0  0  0  0  0  0
  -22.9170  -28.7650   21.6640 C   0  0  0  0  0  0  0  0  0  0  0  0
  -21.5910  -28.5580   21.5590 N   0  0  0  0  0  0  0  0  0  0  0  0
  -23.6420  -28.0430   22.3530 O   0  0  0  0  0  0  0  0  0  0  0  0
  -21.0580  -29.2000   20.9890 H   0  0  0  0  0  0  0  0  0  0  0  0
  -18.2710  -27.1820   22.0530 C   0  0  0  0  0  0  0  0  0  0  0  0
  -20.8390  -27.4680   22.1890 C   0  0  0  0  0  3  0  0  0  0  0  0
  -20.9220  -26.1750   21.3440 C   0  0  0  0  0  2  0  0  0  0  0  0
  -19.7530  -26.0200   20.3640 C   0  0  0  0  0  2  0  0  0  0  0  0
  -18.4210  -25.9950   21.1180 C   0  0  0  0  0  2  0  0  0  0  0  0
  -19.4050  -27.8820   22.5430 C   0  0  0  0  0  0  0  0  0  0  0  0
  -19.2080  -28.9950   23.3910 C   0  0  0  0  0  3  0  0  0  0  0  0
  -17.9110  -29.4080   23.7460 C   0  0  0  0  0  3  0  0  0  0  0  0
  -16.7920  -28.7020   23.2690 C   0  0  0  0  0  3  0  0  0  0  0  0
  -16.9740  -27.5910   22.4260 C   0  0  0  0  0  3  0  0  0  0  0  0
  -25.8490  -31.8050   23.4090 C   0  0  0  0  0  3  0  0  0  0  0  0
  -26.4060  -30.9110   24.5860 C   0  0  1  0  0  0  0  0  0  0  0  0
  -25.3250  -30.4740   25.6010 C   0  0  0  0  0  1  0  0  0  0  0  0
  -27.0770  -29.6320   24.0370 C   0  0  0  0  0  1  0  0  0  0  0  0
  -27.5010  -31.6870   25.3590 C   0  0  0  0  0  1  0  0  0  0  0  0
  -25.4370  -33.1230   23.9230 N   0  0  0  0  0  0  0  0  0  0  0  0
  -25.6800  -34.2940   23.3180 C   0  0  0  0  0  0  0  0  0  0  0  0
  -26.3380  -34.3800   22.2780 O   0  0  0  0  0  0  0  0  0  0  0  0
  -24.8450  -33.1220   24.7420 H   0  0  0  0  0  0  0  0  0  0  0  0
  -23.8090  -35.9780   23.2520 C   0  0  0  0  0  1  0  0  0  0  0  0
  -25.1060  -35.5690   23.9690 C   0  0  0  0  0  3  0  0  0  0  0  0
  -27.1900  -36.5180   24.8580 C   0  0  0  0  0  1  0  0  0  0  0  0
  -26.0500  -36.7090   23.9660 N   0  0  0  0  0  0  0  0  0  0  0  0
  -25.5780  -37.5680   24.2370 H   0  0  0  0  0  0  0  0  0  0  0  0
  -33.2490  -20.9250   20.2680 C   0  0  0  0  0  1  0  0  0  0  0  0
  -32.0400  -21.4740   19.7430 O   0  0  0  0  0  0  0  0  0  0  0  0
  -26.2360  -20.3310   19.4850 C   0  0  0  0  0  1  0  0  0  0  0  0
  -27.3740  -21.0430   19.0090 O   0  0  0  0  0  0  0  0  0  0  0  0
  2  4  2  0
  3  5  1  0
  4  1  1  0
  4 15  1  0
  5 90  1  0
  5  1  2  0
  6  3  2  0
  6  2  1  0
  7 15  1  0
  7 13  1  0
  8 13  1  0
  9 10  1  0
  9  8  1  0
 11 10  1  0
 11 20  1  0
 11 12  1  0
 13 12  1  0
 14  7  2  0
 15 16  1  0
 17 18  2  0
 18 37  1  0
 19 18  1  0
 19 22  1  0
 20 21  1  0
 20 17  1  0
 21 19  2  0
 22 23  1  0
 23 24  2  0
 25 28  1  0
 25 24  1  0
 26 25  2  0
 27 26  1  0
 27 22  2  0
 28 29  1  0
 29 30  1  0
 30 31  2  0
 32 31  1  0
 32 36  1  0
 33 32  2  0
 34 29  2  0
 34 33  1  0
 35 34  1  0
 37 38  1  0
 38 41  1  0
 38 40  1  0
 39 37  2  0
 42 43  1  0
 42 17  1  0
 44 42  1  0
 45  3  1  0
 45 46  2  0
 47 48  1  0
 47 45  1  0
 48 50  1  0
 49 60  2  0
 50 55  1  0
 51 59  1  0
 51 61  1  0
 52 58  1  0
 52 54  1  0
 53 59  1  0
 54 53  1  0
 55 54  2  0
 56 57  1  0
 56 50  2  0
 57 52  2  0
 58 51  1  0
 59 49  1  0
 61 63  2  0
 62 61  1  0
 64 62  1  0
 65 74  2  0
 65 70  1  0
 66 62  1  0
 66 70  1  0
 67 66  1  0
 68 69  1  0
 68 67  1  0
 69 65  1  0
 70 71  2  0
 71 72  1  0
 73 72  2  0
 74 73  1  0
 75 49  1  0
 75 80  1  0
 75 76  1  0
 76 79  1  1
 76 77  1  0
 78 76  1  0
 80 83  1  0
 81 80  1  0
 81 85  1  0
 82 81  2  0
 85 84  1  0
 87 85  1  0
 87 88  1  0
 87 86  1  0
 90 89  1  0
 92  6  1  0
 92 91  1  0
M  ISO  4   7 100  15 100  47 101  48 101
M  END
>  <TORSDO>  (63) 
F 20

>  <SCORE>  (63) 
-11.605

>  <name>  (63) 
63

>  <ligand_id>  (63) 
63

>  <original_smiles>  (63) 
[H]c1c([H])c([H])c2c(c1[H])C([H])([H])C([H])([H])C([H])([H])C2([H])N([H])C(=O)C1([H])N(C(=O)C([H])(N([H])C(=O)C([H])(N([H])C([H])([H])[H])C([H])([H])[H])C(C([H])([H])[H])(C([H])([H])[H])C([H])([H])[H])C([H])([H])c2c([H])c(OC([H])([H])C(=O)c3c(OC([H])([H])[H])c([H])c(N([H])C(=O)N4C([H])([H])C([H])([H])C([H])([H])C([H])(n5nc(-c6c([H])c([H])c(Oc7c([H])c([H])c(F)c([H])c7F)c([H])c6[H])c(C(=O)N([H])[H])c5N([H])[H])C4([H])[H])c([H])c3OC([H])([H])[H])c([H])c([H])c2C1([H])[H]

>  <smiles>  (63) 
[H]c1c([H])c([H])c2c(c1[H])C([H])([H])C([H])([H])C([H])([H])C2([H])N([H])C(=O)C1([H])N(C(=O)C([H])(N([H])C(=O)C([H])(N([H])C([H])([H])[H])C([H])([H])[H])C(C([H])([H])[H])(C([H])([H])[H])C([H])([H])[H])C([H])([H])c2c([H])c(OC([H])([H])C(=O)c3c(OC([H])([H])[H])c([H])c(N([H])C(=O)N4C([H])([H])C([H])([H])C([H])([H])C([H])(n5nc(-c6c([H])c([H])c(Oc7c([H])c([H])c(F)c([H])c7F)c([H])c6[H])c(C(=O)N([H])[H])c5N([H])[H])C4([H])[H])c([H])c3OC([H])([H])[H])c([H])c([H])c2C1([H])[H]

$$$$
64:0:0
     RDKit          3D

102111  0  0  1  0  0  0  0  0999 V2000
  -27.2460  -24.2180   19.0820 C   0  0  0  0  0  2  0  0  0  0  0  0
  -26.3410  -23.0400   19.4420 C   0  0  0  0  0  3  0  0  0  0  0  0
  -26.0760  -24.9320   20.9870 C   0  0  0  0  0  3  0  0  0  0  0  0
  -25.3740  -23.6110   20.5350 C   0  0  1  0  0  0  0  0  0  0  0  0
  -24.0200  -23.9730   19.8830 C   0  0  0  0  0  1  0  0  0  0  0  0
  -25.0440  -22.6360   21.6970 C   0  0  0  0  0  1  0  0  0  0  0  0
  -27.4060  -24.9680   20.3370 N   0  0  2  0  0  4  0  0  0  0  0  0
  -27.9760  -24.3540   20.9090 H   0  0  0  0  0  0  0  0  0  0  0  0
  -27.5530  -19.3560   19.4330 C   0  0  0  0  0  3  0  0  0  0  0  0
  -29.1070  -20.6440   20.7650 C   0  0  0  0  0  3  0  0  0  0  0  0
  -27.1500  -21.7580   19.7750 C   0  0  0  0  0  0  0  0  0  0  0  0
  -26.7550  -20.5000   19.2320 C   0  0  0  0  0  0  0  0  0  0  0  0
  -28.7320  -19.4150   20.1900 C   0  0  0  0  0  0  0  0  0  0  0  0
  -28.3480  -21.8150   20.5460 C   0  0  0  0  0  0  0  0  0  0  0  0
  -25.4990  -20.3300   18.3880 C   0  0  0  0  0  1  0  0  0  0  0  0
  -29.8680  -23.0830   21.9370 C   0  0  0  0  0  1  0  0  0  0  0  0
  -28.7730  -23.0320   21.0300 O   0  0  0  0  0  0  0  0  0  0  0  0
  -29.4810  -18.2650   20.2870 O   0  0  0  0  0  0  0  0  0  0  0  0
  -30.1880  -18.0260   21.5020 C   0  0  0  0  0  2  0  0  0  0  0  0
  -31.0440  -16.7760   21.3350 C   0  0  0  0  0  2  0  0  0  0  0  0
  -30.2160  -15.7160   20.8790 O   0  0  0  0  0  0  0  0  0  0  0  0
  -30.6680  -14.8580   19.9530 C   0  0  0  0  0  0  0  0  0  0  0  0
  -30.5470  -12.4410   19.3880 C   0  0  0  0  0  2  0  0  0  0  0  0
  -29.6220  -12.1370   18.2030 C   0  0  0  0  0  2  0  0  0  0  0  0
  -28.1730  -11.9550   18.6850 C   0  0  0  0  0  2  0  0  0  0  0  0
  -27.6940  -13.1230   19.5870 C   0  0  0  0  0  3  0  0  0  0  0  0
  -28.7150  -13.4180   20.7090 C   0  0  0  0  0  2  0  0  0  0  0  0
  -30.0310  -13.6230   20.0830 N   0  0  0  0  0  0  0  0  0  0  0  0
  -31.5880  -15.1060   19.1690 O   0  0  0  0  0  0  0  0  0  0  0  0
  -25.3440  -13.7420   20.4410 C   0  0  0  0  0  0  0  0  0  0  0  0
  -24.2850  -12.9710   20.8370 C   0  0  0  0  0  0  0  0  0  0  0  0
  -24.7210  -11.6150   20.7290 C   0  0  0  0  0  0  0  0  0  0  0  0
  -26.3630  -12.8550   20.1250 N   0  0  0  0  0  0  0  0  0  0  0  0
  -25.9900  -11.5690   20.3490 N   0  0  0  0  0  0  0  0  0  0  0  0
  -23.9860  -10.3570   20.9110 C   0  0  0  0  0  0  0  0  0  0  0  0
  -24.3780   -9.4060   21.8790 C   0  0  0  0  0  3  0  0  0  0  0  0
  -23.6450   -8.2110   22.0470 C   0  0  0  0  0  3  0  0  0  0  0  0
  -22.5060   -7.9590   21.2440 C   0  0  0  0  0  0  0  0  0  0  0  0
  -22.1360   -8.8980   20.2660 C   0  0  0  0  0  3  0  0  0  0  0  0
  -22.8690  -10.0840   20.0970 C   0  0  0  0  0  3  0  0  0  0  0  0
  -21.7480   -6.8160   21.3190 O   0  0  0  0  0  0  0  0  0  0  0  0
  -21.5070   -6.1900   22.5160 C   0  0  0  0  0  0  0  0  0  0  0  0
  -20.8560   -6.8460   23.5840 C   0  0  0  0  0  3  0  0  0  0  0  0
  -20.5670   -6.1430   24.7710 C   0  0  0  0  0  3  0  0  0  0  0  0
  -20.9170   -4.7860   24.8890 C   0  0  0  0  0  0  0  0  0  0  0  0
  -21.5610   -4.1290   23.8260 C   0  0  0  0  0  3  0  0  0  0  0  0
  -21.8520   -4.8290   22.6410 C   0  0  0  0  0  0  0  0  0  0  0  0
  -22.4530   -4.1850   21.6110 F   0  0  0  0  0  0  0  0  0  0  0  0
  -20.6330   -4.1080   26.0260 F   0  0  0  0  0  0  0  0  0  0  0  0
  -22.9120  -13.4570   21.2070 C   0  0  0  0  0  0  0  0  0  0  0  0
  -22.2380  -12.7570   22.1140 N   0  0  0  0  0  0  0  0  0  0  0  0
  -22.4490  -14.4900   20.7270 O   0  0  0  0  0  0  0  0  0  0  0  0
  -22.6270  -11.9220   22.5240 H   0  0  0  0  0  0  0  0  0  0  0  0
  -21.3200  -13.0640   22.4020 H   0  0  0  0  0  0  0  0  0  0  0  0
  -25.5240  -15.1150   20.3080 N   0  0  0  0  0  0  0  0  0  0  0  0
  -24.7870  -15.7830   20.5030 H   0  0  0  0  0  0  0  0  0  0  0  0
  -26.3910  -15.5480   20.0170 H   0  0  0  0  0  0  0  0  0  0  0  0
  -26.4300  -24.9980   22.3550 O   0  0  0  0  0  0  0  0  0  0  0  0
  -25.6900  -25.3760   22.8200 H   0  0  0  0  0  0  0  0  0  0  0  0
  -28.0670  -26.3040   20.2770 C   0  0  0  0  0  2  0  0  0  0  0  0
  -28.6840  -26.6890   18.8960 C   0  0  0  0  0  2  0  0  0  0  0  0
  -28.4900  -28.0700   18.5690 O   0  0  0  0  0  0  0  0  0  0  0  0
  -24.2770  -31.4900   23.0850 C   0  0  0  0  0  0  0  0  0  0  0  0
  -27.2180  -28.5580   18.7540 C   0  0  0  0  0  0  0  0  0  0  0  0
  -23.1250  -30.2980   21.2490 C   0  0  0  0  0  3  0  0  0  0  0  0
  -24.6200  -29.4750   19.3520 C   0  0  0  0  0  0  0  0  0  0  0  0
  -25.4930  -31.2050   20.9320 C   0  0  0  0  0  2  0  0  0  0  0  0
  -25.7320  -30.0750   19.9570 C   0  0  0  0  0  0  0  0  0  0  0  0
  -27.0330  -29.6220   19.6610 C   0  0  0  0  0  3  0  0  0  0  0  0
  -26.0880  -27.9860   18.1210 C   0  0  0  0  0  3  0  0  0  0  0  0
  -24.7900  -28.4260   18.4340 C   0  0  0  0  0  3  0  0  0  0  0  0
  -23.2600  -30.0160   19.7290 C   0  0  0  0  0  2  0  0  0  0  0  0
  -24.3230  -30.9990   21.8150 N   0  0  0  0  0  0  0  0  0  0  0  0
  -23.2440  -31.4080   23.7660 O   0  0  0  0  0  0  0  0  0  0  0  0
  -22.7960  -28.9720   21.9660 C   0  0  0  0  0  0  0  0  0  0  0  0
  -21.5360  -28.5230   21.8370 N   0  0  0  0  0  0  0  0  0  0  0  0
  -23.6630  -28.3570   22.5910 O   0  0  0  0  0  0  0  0  0  0  0  0
  -20.8830  -29.0920   21.3160 H   0  0  0  0  0  0  0  0  0  0  0  0
  -18.5850  -26.4500   22.0390 C   0  0  0  0  0  0  0  0  0  0  0  0
  -21.0060  -27.2780   22.3920 C   0  0  0  0  0  3  0  0  0  0  0  0
  -21.4380  -26.0590   21.5420 C   0  0  0  0  0  2  0  0  0  0  0  0
  -20.4130  -25.6780   20.4690 C   0  0  0  0  0  2  0  0  0  0  0  0
  -19.0630  -25.3450   21.1100 C   0  0  0  0  0  2  0  0  0  0  0  0
  -19.4960  -27.3670   22.6260 C   0  0  0  0  0  0  0  0  0  0  0  0
  -18.9940  -28.3970   23.4520 C   0  0  0  0  0  3  0  0  0  0  0  0
  -17.6130  -28.5210   23.6890 C   0  0  0  0  0  3  0  0  0  0  0  0
  -16.7170  -27.6020   23.1180 C   0  0  0  0  0  3  0  0  0  0  0  0
  -17.2030  -26.5650   22.3020 C   0  0  0  0  0  3  0  0  0  0  0  0
  -25.5060  -32.2020   23.7340 C   0  0  0  0  0  3  0  0  0  0  0  0
  -26.0610  -31.4470   25.0020 C   0  0  1  0  0  0  0  0  0  0  0  0
  -24.9780  -31.1290   26.0610 C   0  0  0  0  0  1  0  0  0  0  0  0
  -26.7290  -30.1130   24.5910 C   0  0  0  0  0  1  0  0  0  0  0  0
  -27.1600  -32.3000   25.6790 C   0  0  0  0  0  1  0  0  0  0  0  0
  -25.0950  -33.5700   24.0760 N   0  0  0  0  0  0  0  0  0  0  0  0
  -25.4440  -34.6620   23.3850 C   0  0  0  0  0  0  0  0  0  0  0  0
  -26.2150  -34.6290   22.4220 O   0  0  0  0  0  0  0  0  0  0  0  0
  -24.4150  -33.6660   24.8170 H   0  0  0  0  0  0  0  0  0  0  0  0
  -23.6950  -36.3970   22.8890 C   0  0  0  0  0  1  0  0  0  0  0  0
  -24.8440  -36.0070   23.8320 C   0  0  0  0  0  3  0  0  0  0  0  0
  -26.8250  -36.9280   24.9520 C   0  0  0  0  0  1  0  0  0  0  0  0
  -25.8370  -37.1020   23.8900 N   0  0  0  0  0  0  0  0  0  0  0  0
  -25.3780  -37.9980   24.0310 H   0  0  0  0  0  0  0  0  0  0  0  0
  1  2  1  0
  1  7  1  0
  2 11  1  0
  2  4  1  0
  3 58  1  0
  4  3  1  0
  4  6  1  1
  5  4  1  0
  7  8  1  1
  7  3  1  0
  9 13  1  0
 11 14  2  0
 12  9  2  0
 12 11  1  0
 13 18  1  0
 13 10  2  0
 14 10  1  0
 14 17  1  0
 15 12  1  0
 17 16  1  0
 18 19  1  0
 20 19  1  0
 21 20  1  0
 22 28  1  0
 22 21  1  0
 23 28  1  0
 24 25  1  0
 24 23  1  0
 26 25  1  0
 26 33  1  0
 26 27  1  0
 28 27  1  0
 29 22  2  0
 30 31  2  0
 31 50  1  0
 32 31  1  0
 32 35  1  0
 33 34  1  0
 33 30  1  0
 34 32  2  0
 35 36  1  0
 36 37  2  0
 38 41  1  0
 38 37  1  0
 39 38  2  0
 40 39  1  0
 40 35  2  0
 41 42  1  0
 42 47  2  0
 42 43  1  0
 43 44  2  0
 44 45  1  0
 45 49  1  0
 46 45  2  0
 47 46  1  0
 48 47  1  0
 50 51  1  0
 51 54  1  0
 51 53  1  0
 52 50  2  0
 55 30  1  0
 55 56  1  0
 57 55  1  0
 58 59  1  0
 60  7  1  0
 61 60  1  0
 62 64  1  0
 62 61  1  0
 63 74  2  0
 64 69  1  0
 65 73  1  0
 65 75  1  0
 66 72  1  0
 66 68  1  0
 67 73  1  0
 68 67  1  0
 69 68  2  0
 70 71  1  0
 70 64  2  0
 71 66  2  0
 72 65  1  0
 73 63  1  0
 75 77  2  0
 76 75  1  0
 78 76  1  0
 79 88  2  0
 79 84  1  0
 80 76  1  0
 80 84  1  0
 81 80  1  0
 82 83  1  0
 82 81  1  0
 83 79  1  0
 84 85  2  0
 85 86  1  0
 87 86  2  0
 88 87  1  0
 89 63  1  0
 89 94  1  0
 89 90  1  0
 90 93  1  1
 90 91  1  0
 92 90  1  0
 94 97  1  0
 95 99  1  0
 95 94  1  0
 96 95  2  0
 99 98  1  0
 99101  1  0
101102  1  0
101100  1  0
M  ISO  4  21 100  22 100  61 101  62 101
M  END
>  <TORSDO>  (64) 
F 25

>  <SCORE>  (64) 
-7.497

>  <name>  (64) 
64

>  <ligand_id>  (64) 
64

>  <original_smiles>  (64) 
[H]OC1([H])C(C([H])([H])[H])(C([H])([H])[H])C([H])(c2c(OC([H])([H])[H])c([H])c(OC([H])([H])C([H])([H])OC(=O)N3C([H])([H])C([H])([H])C([H])([H])C([H])(n4nc(-c5c([H])c([H])c(Oc6c([H])c([H])c(F)c([H])c6F)c([H])c5[H])c(C(=O)N([H])[H])c4N([H])[H])C3([H])[H])c([H])c2C([H])([H])[H])C([H])([H])[N+]1([H])C([H])([H])C([H])([H])Oc1c([H])c([H])c2c(c1[H])C([H])([H])N(C(=O)C([H])(N([H])C(=O)C([H])(N([H])C([H])([H])[H])C([H])([H])[H])C(C([H])([H])[H])(C([H])([H])[H])C([H])([H])[H])C([H])(C(=O)N([H])C1([H])c3c([H])c([H])c([H])c([H])c3C([H])([H])C([H])([H])C1([H])[H])C2([H])[H]

>  <smiles>  (64) 
[H]OC1([H])C(C([H])([H])[H])(C([H])([H])[H])C([H])(c2c(OC([H])([H])[H])c([H])c(OC([H])([H])C([H])([H])OC(=O)N3C([H])([H])C([H])([H])C([H])([H])C([H])(n4nc(-c5c([H])c([H])c(Oc6c([H])c([H])c(F)c([H])c6F)c([H])c5[H])c(C(=O)N([H])[H])c4N([H])[H])C3([H])[H])c([H])c2C([H])([H])[H])C([H])([H])[N+]1([H])C([H])([H])C([H])([H])Oc1c([H])c([H])c2c(c1[H])C([H])([H])N(C(=O)C([H])(N([H])C(=O)C([H])(N([H])C([H])([H])[H])C([H])([H])[H])C(C([H])([H])[H])(C([H])([H])[H])C([H])([H])[H])C([H])(C(=O)N([H])C1([H])c3c([H])c([H])c([H])c([H])c3C([H])([H])C([H])([H])C1([H])[H])C2([H])[H]

$$$$
65:0:0
     RDKit          3D

 93102  0  0  1  0  0  0  0  0999 V2000
  -29.4790  -23.3200   21.6720 C   0  0  0  0  0  3  0  0  0  0  0  0
  -28.7130  -21.7890   19.4640 C   0  0  0  0  0  3  0  0  0  0  0  0
  -28.7080  -23.9640   20.6700 C   0  0  0  0  0  0  0  0  0  0  0  0
  -29.8460  -21.9500   21.5930 C   0  0  0  0  0  0  0  0  0  0  0  0
  -28.3430  -23.1690   19.5400 C   0  0  0  0  0  0  0  0  0  0  0  0
  -29.4610  -21.1480   20.4900 C   0  0  0  0  0  0  0  0  0  0  0  0
  -30.6020  -21.3160   22.7530 C   0  0  0  0  0  1  0  0  0  0  0  0
  -27.5190  -23.7520   18.4030 C   0  0  0  0  0  1  0  0  0  0  0  0
  -28.0830  -25.3620   20.9970 C   0  0  0  0  0  2  0  0  0  0  0  0
  -28.4460  -26.5910   20.2780 O   0  0  0  0  0  0  0  0  0  0  0  0
  -24.6870  -31.9460   23.2700 C   0  0  0  0  0  0  0  0  0  0  0  0
  -27.3740  -27.4790   20.1990 C   0  0  0  0  0  0  0  0  0  0  0  0
  -23.5170  -30.5440   21.6120 C   0  0  0  0  0  3  0  0  0  0  0  0
  -24.9980  -29.0390   20.1790 C   0  0  0  0  0  0  0  0  0  0  0  0
  -26.0500  -30.9120   21.4460 C   0  0  0  0  0  2  0  0  0  0  0  0
  -26.1550  -29.5450   20.7880 C   0  0  0  0  0  0  0  0  0  0  0  0
  -27.3550  -28.7760   20.7900 C   0  0  0  0  0  3  0  0  0  0  0  0
  -26.2030  -27.0280   19.5560 C   0  0  0  0  0  3  0  0  0  0  0  0
  -25.0210  -27.7870   19.5540 C   0  0  0  0  0  3  0  0  0  0  0  0
  -23.7440  -29.8880   20.2280 C   0  0  0  0  0  2  0  0  0  0  0  0
  -24.7690  -31.1480   22.1670 N   0  0  0  0  0  0  0  0  0  0  0  0
  -23.5960  -32.2040   23.7980 O   0  0  0  0  0  0  0  0  0  0  0  0
  -22.8630  -29.5070   22.5560 C   0  0  0  0  0  0  0  0  0  0  0  0
  -21.5390  -29.3250   22.4280 N   0  0  0  0  0  0  0  0  0  0  0  0
  -23.5470  -28.8730   23.3640 O   0  0  0  0  0  0  0  0  0  0  0  0
  -21.0480  -29.8870   21.7450 H   0  0  0  0  0  0  0  0  0  0  0  0
  -18.1660  -28.1170   22.9180 C   0  0  0  0  0  0  0  0  0  0  0  0
  -20.7230  -28.3750   23.1870 C   0  0  0  0  0  3  0  0  0  0  0  0
  -20.8270  -26.9530   22.5890 C   0  0  0  0  0  2  0  0  0  0  0  0
  -19.7220  -26.6420   21.5740 C   0  0  0  0  0  2  0  0  0  0  0  0
  -18.3420  -26.7760   22.2240 C   0  0  0  0  0  2  0  0  0  0  0  0
  -19.2840  -28.8730   23.3570 C   0  0  0  0  0  0  0  0  0  0  0  0
  -19.0660  -30.1270   23.9680 C   0  0  0  0  0  3  0  0  0  0  0  0
  -17.7610  -30.6240   24.1450 C   0  0  0  0  0  3  0  0  0  0  0  0
  -16.6570  -29.8640   23.7200 C   0  0  0  0  0  3  0  0  0  0  0  0
  -16.8600  -28.6130   23.1130 C   0  0  0  0  0  3  0  0  0  0  0  0
  -25.9560  -32.5890   23.9080 C   0  0  0  0  0  3  0  0  0  0  0  0
  -25.6350  -33.9910   24.2100 N   0  0  0  0  0  0  0  0  0  0  0  0
  -25.9840  -35.0340   23.4430 C   0  0  0  0  0  0  0  0  0  0  0  0
  -26.6770  -34.9160   22.4280 O   0  0  0  0  0  0  0  0  0  0  0  0
  -25.0170  -34.1560   24.9900 H   0  0  0  0  0  0  0  0  0  0  0  0
  -24.2590  -36.8160   23.0250 C   0  0  0  0  0  1  0  0  0  0  0  0
  -25.4830  -36.4280   23.8690 C   0  0  0  0  0  3  0  0  0  0  0  0
  -27.5960  -37.3310   24.7350 C   0  0  0  0  0  1  0  0  0  0  0  0
  -26.5160  -37.4820   23.7640 N   0  0  0  0  0  0  0  0  0  0  0  0
  -26.1040  -38.4030   23.8880 H   0  0  0  0  0  0  0  0  0  0  0  0
  -26.4430  -31.8370   25.2070 C   0  0  1  0  0  0  0  0  0  0  0  0
  -25.3230  -31.6080   26.2480 C   0  0  0  0  0  1  0  0  0  0  0  0
  -27.0390  -30.4560   24.8460 C   0  0  0  0  0  1  0  0  0  0  0  0
  -27.5700  -32.6440   25.8920 C   0  0  0  0  0  1  0  0  0  0  0  0
  -29.8880  -19.8120   20.4420 O   0  0  0  0  0  0  0  0  0  0  0  0
  -30.8870  -14.7200   19.9970 C   0  0  0  0  0  0  0  0  0  0  0  0
  -30.5930  -12.4900   18.9640 C   0  0  0  0  0  2  0  0  0  0  0  0
  -29.6130  -12.6220   17.7810 C   0  0  0  0  0  2  0  0  0  0  0  0
  -28.1580  -12.4680   18.2650 C   0  0  0  0  0  2  0  0  0  0  0  0
  -27.8440  -13.3400   19.5120 C   0  0  0  0  0  3  0  0  0  0  0  0
  -28.9430  -13.2190   20.5900 C   0  0  0  0  0  2  0  0  0  0  0  0
  -30.2260  -13.5250   19.9470 N   0  0  0  0  0  0  0  0  0  0  0  0
  -32.0550  -14.8200   19.6080 O   0  0  0  0  0  0  0  0  0  0  0  0
  -29.0430  -17.9120   19.0180 C   0  0  0  0  0  2  0  0  0  0  0  0
  -29.0830  -17.7200   21.5140 C   0  0  0  0  0  2  0  0  0  0  0  0
  -30.1460  -16.8080   18.9880 C   0  0  0  0  0  2  0  0  0  0  0  0
  -30.2200  -16.6600   21.3650 C   0  0  0  0  0  2  0  0  0  0  0  0
  -28.9390  -18.7230   20.3350 C   0  0  0  0  0  3  0  0  0  0  0  0
  -30.1190  -15.8570   20.1270 N   0  0  0  0  0  0  0  0  0  0  0  0
  -25.4920  -13.9290   20.3620 C   0  0  0  0  0  0  0  0  0  0  0  0
  -24.4410  -13.1520   20.7630 C   0  0  0  0  0  0  0  0  0  0  0  0
  -24.8980  -11.8000   20.6870 C   0  0  0  0  0  0  0  0  0  0  0  0
  -26.5210  -13.0510   20.0580 N   0  0  0  0  0  0  0  0  0  0  0  0
  -26.1700  -11.7640   20.3130 N   0  0  0  0  0  0  0  0  0  0  0  0
  -24.1770  -10.5370   20.8870 C   0  0  0  0  0  0  0  0  0  0  0  0
  -24.5980   -9.5880   21.8450 C   0  0  0  0  0  3  0  0  0  0  0  0
  -23.8740   -8.3890   22.0290 C   0  0  0  0  0  3  0  0  0  0  0  0
  -22.7180   -8.1310   21.2560 C   0  0  0  0  0  0  0  0  0  0  0  0
  -22.3200   -9.0660   20.2830 C   0  0  0  0  0  3  0  0  0  0  0  0
  -23.0440  -10.2560   20.0980 C   0  0  0  0  0  3  0  0  0  0  0  0
  -21.9670   -6.9840   21.3500 O   0  0  0  0  0  0  0  0  0  0  0  0
  -21.8210   -6.3150   22.5380 C   0  0  0  0  0  0  0  0  0  0  0  0
  -21.2710   -6.9360   23.6800 C   0  0  0  0  0  3  0  0  0  0  0  0
  -21.0750   -6.1910   24.8610 C   0  0  0  0  0  3  0  0  0  0  0  0
  -21.4180   -4.8260   24.8980 C   0  0  0  0  0  0  0  0  0  0  0  0
  -21.9600   -4.2050   23.7590 C   0  0  0  0  0  3  0  0  0  0  0  0
  -22.1570   -4.9470   22.5820 C   0  0  0  0  0  0  0  0  0  0  0  0
  -22.6600   -4.3380   21.4800 F   0  0  0  0  0  0  0  0  0  0  0  0
  -21.2230   -4.1080   26.0290 F   0  0  0  0  0  0  0  0  0  0  0  0
  -23.0600  -13.6250   21.1080 C   0  0  0  0  0  0  0  0  0  0  0  0
  -22.3710  -12.9130   21.9910 N   0  0  0  0  0  0  0  0  0  0  0  0
  -22.6000  -14.6620   20.6280 O   0  0  0  0  0  0  0  0  0  0  0  0
  -22.7570  -12.0740   22.3990 H   0  0  0  0  0  0  0  0  0  0  0  0
  -21.4440  -13.2090   22.2650 H   0  0  0  0  0  0  0  0  0  0  0  0
  -25.6570  -15.3030   20.2070 N   0  0  0  0  0  0  0  0  0  0  0  0
  -24.9060  -15.9640   20.3660 H   0  0  0  0  0  0  0  0  0  0  0  0
  -26.5090  -15.7410   19.8810 H   0  0  0  0  0  0  0  0  0  0  0  0
  2  5  2  0
  2  6  1  0
  3  9  1  0
  3  1  2  0
  4  1  1  0
  4  7  1  0
  5  3  1  0
  6  4  2  0
  8  5  1  0
 10  9  1  0
 11 22  2  0
 12 10  1  0
 12 17  1  0
 13 21  1  0
 13 23  1  0
 14 20  1  0
 14 16  1  0
 15 21  1  0
 16 17  2  0
 16 15  1  0
 18 12  2  0
 19 18  1  0
 19 14  2  0
 20 13  1  0
 21 11  1  0
 23 25  2  0
 24 23  1  0
 26 24  1  0
 27 36  2  0
 27 32  1  0
 28 24  1  0
 28 32  1  0
 29 28  1  0
 30 31  1  0
 30 29  1  0
 31 27  1  0
 32 33  2  0
 33 34  1  0
 35 34  2  0
 36 35  1  0
 37 11  1  0
 37 38  1  0
 37 47  1  0
 38 41  1  0
 39 43  1  0
 39 38  1  0
 40 39  2  0
 43 42  1  0
 45 43  1  0
 45 46  1  0
 45 44  1  0
 47 50  1  1
 47 48  1  0
 49 47  1  0
 51  6  1  0
 52 65  1  0
 53 58  1  0
 54 55  1  0
 54 53  1  0
 56 55  1  0
 56 69  1  0
 56 57  1  0
 58 52  1  0
 58 57  1  0
 59 52  2  0
 60 64  1  0
 62 60  1  0
 62 65  1  0
 63 61  1  0
 64 51  1  0
 64 61  1  0
 65 63  1  0
 66 67  2  0
 67 86  1  0
 68 67  1  0
 68 71  1  0
 69 70  1  0
 69 66  1  0
 70 68  2  0
 71 72  1  0
 72 73  2  0
 74 77  1  0
 74 73  1  0
 75 74  2  0
 76 75  1  0
 76 71  2  0
 77 78  1  0
 78 83  2  0
 78 79  1  0
 79 80  2  0
 80 81  1  0
 81 85  1  0
 82 81  2  0
 83 82  1  0
 84 83  1  0
 86 87  1  0
 87 90  1  0
 87 89  1  0
 88 86  2  0
 91 66  1  0
 91 92  1  0
 93 91  1  0
M  ISO  4   9 101  10 101  52 100  65 100
M  END
>  <TORSDO>  (65) 
F 18

>  <SCORE>  (65) 
-14.298

>  <name>  (65) 
65

>  <ligand_id>  (65) 
65

>  <original_smiles>  (65) 
[H]c1c([H])c([H])c2c(c1[H])C([H])([H])C([H])([H])C([H])([H])C2([H])N([H])C(=O)C1([H])N(C(=O)C([H])(N([H])C(=O)C([H])(N([H])C([H])([H])[H])C([H])([H])[H])C(C([H])([H])[H])(C([H])([H])[H])C([H])([H])[H])C([H])([H])c2c([H])c(OC([H])([H])c3c([H])c(C([H])([H])[H])c(OC4([H])C([H])([H])C([H])([H])N(C(=O)N5C([H])([H])C([H])([H])C([H])([H])C([H])(n6nc(-c7c([H])c([H])c(Oc8c([H])c([H])c(F)c([H])c8F)c([H])c7[H])c(C(=O)N([H])[H])c6N([H])[H])C5([H])[H])C([H])([H])C4([H])[H])c([H])c3C([H])([H])[H])c([H])c([H])c2C1([H])[H]

>  <smiles>  (65) 
[H]c1c([H])c([H])c2c(c1[H])C([H])([H])C([H])([H])C([H])([H])C2([H])N([H])C(=O)C1([H])N(C(=O)C([H])(N([H])C(=O)C([H])(N([H])C([H])([H])[H])C([H])([H])[H])C(C([H])([H])[H])(C([H])([H])[H])C([H])([H])[H])C([H])([H])c2c([H])c(OC([H])([H])c3c([H])c(C([H])([H])[H])c(OC4([H])C([H])([H])C([H])([H])N(C(=O)N5C([H])([H])C([H])([H])C([H])([H])C([H])(n6nc(-c7c([H])c([H])c(Oc8c([H])c([H])c(F)c([H])c8F)c([H])c7[H])c(C(=O)N([H])[H])c6N([H])[H])C5([H])[H])C([H])([H])C4([H])[H])c([H])c3C([H])([H])[H])c([H])c([H])c2C1([H])[H]

$$$$
66:0:0
     RDKit          3D

 99108  0  0  1  0  0  0  0  0999 V2000
  -31.3840  -22.3360   20.0350 C   0  0  0  0  0  3  0  0  0  0  0  0
  -30.9100  -24.7250   19.9420 C   0  0  0  0  0  3  0  0  0  0  0  0
  -31.7910  -23.6680   20.2370 C   0  0  0  0  0  0  0  0  0  0  0  0
  -30.0830  -22.0330   19.5660 C   0  0  0  0  0  0  0  0  0  0  0  0
  -29.6140  -24.4710   19.4540 C   0  0  0  0  0  0  0  0  0  0  0  0
  -29.1780  -23.1170   19.3060 C   0  0  0  0  0  0  0  0  0  0  0  0
  -33.1990  -23.9770   20.7040 C   0  0  0  0  0  1  0  0  0  0  0  0
  -27.7570  -22.8420   18.8160 C   0  0  0  0  0  1  0  0  0  0  0  0
  -29.7330  -20.5670   19.2140 C   0  0  0  0  0  2  0  0  0  0  0  0
  -30.6820  -19.5010   19.6580 N   0  0  0  0  0  4  0  0  0  0  0  0
  -31.5500  -19.6170   19.1610 H   0  0  0  0  0  0  0  0  0  0  0  0
  -30.8650  -19.6610   20.6350 H   0  0  0  0  0  0  0  0  0  0  0  0
  -31.1950  -14.5490   19.5600 C   0  0  0  0  0  0  0  0  0  0  0  0
  -30.7820  -12.3130   18.6160 C   0  0  0  0  0  2  0  0  0  0  0  0
  -29.7430  -12.4430   17.4800 C   0  0  0  0  0  2  0  0  0  0  0  0
  -28.3080  -12.3590   18.0380 C   0  0  0  0  0  2  0  0  0  0  0  0
  -28.0810  -13.2720   19.2710 C   0  0  0  0  0  3  0  0  0  0  0  0
  -29.2310  -13.1420   20.2980 C   0  0  0  0  0  2  0  0  0  0  0  0
  -30.4950  -13.3800   19.5860 N   0  0  0  0  0  0  0  0  0  0  0  0
  -32.3780  -14.6050   19.2100 O   0  0  0  0  0  0  0  0  0  0  0  0
  -30.3210  -17.6110   18.0160 C   0  0  0  0  0  2  0  0  0  0  0  0
  -30.0460  -16.1160   18.1540 C   0  0  0  0  0  2  0  0  0  0  0  0
  -30.1710  -18.1060   19.4450 C   0  0  0  0  0  3  0  0  0  0  0  0
  -30.8320  -16.9320   20.2420 C   0  0  0  0  0  3  0  0  0  0  0  0
  -30.4390  -15.6850   19.5180 N   0  0  0  0  0  0  0  0  0  0  0  0
  -25.7910  -13.9870   20.1870 C   0  0  0  0  0  0  0  0  0  0  0  0
  -24.7230  -13.2580   20.6400 C   0  0  0  0  0  0  0  0  0  0  0  0
  -25.1220  -11.8890   20.5710 C   0  0  0  0  0  0  0  0  0  0  0  0
  -26.7720  -13.0580   19.8710 N   0  0  0  0  0  0  0  0  0  0  0  0
  -26.3780  -11.7920   20.1590 N   0  0  0  0  0  0  0  0  0  0  0  0
  -24.3620  -10.6560   20.8170 C   0  0  0  0  0  0  0  0  0  0  0  0
  -24.7600   -9.7290   21.8060 C   0  0  0  0  0  3  0  0  0  0  0  0
  -24.0030   -8.5600   22.0390 C   0  0  0  0  0  3  0  0  0  0  0  0
  -22.8370   -8.3070   21.2780 C   0  0  0  0  0  0  0  0  0  0  0  0
  -22.4590   -9.2220   20.2790 C   0  0  0  0  0  3  0  0  0  0  0  0
  -23.2140  -10.3840   20.0460 C   0  0  0  0  0  3  0  0  0  0  0  0
  -22.0560   -7.1850   21.4160 O   0  0  0  0  0  0  0  0  0  0  0  0
  -21.8800   -6.5740   22.6320 C   0  0  0  0  0  0  0  0  0  0  0  0
  -21.3530   -7.2650   23.7450 C   0  0  0  0  0  3  0  0  0  0  0  0
  -21.1280   -6.5830   24.9570 C   0  0  0  0  0  3  0  0  0  0  0  0
  -21.4200   -5.2080   25.0550 C   0  0  0  0  0  0  0  0  0  0  0  0
  -21.9390   -4.5170   23.9470 C   0  0  0  0  0  3  0  0  0  0  0  0
  -22.1680   -5.1980   22.7380 C   0  0  0  0  0  0  0  0  0  0  0  0
  -22.6510   -4.5220   21.6670 F   0  0  0  0  0  0  0  0  0  0  0  0
  -21.1930   -4.5480   26.2160 F   0  0  0  0  0  0  0  0  0  0  0  0
  -23.3750  -13.7910   21.0240 C   0  0  0  0  0  0  0  0  0  0  0  0
  -22.7080  -13.1370   21.9690 N   0  0  0  0  0  0  0  0  0  0  0  0
  -22.9280  -14.8200   20.5220 O   0  0  0  0  0  0  0  0  0  0  0  0
  -23.0860  -12.3060   22.3980 H   0  0  0  0  0  0  0  0  0  0  0  0
  -21.8020  -13.4700   22.2680 H   0  0  0  0  0  0  0  0  0  0  0  0
  -25.9960  -15.3490   19.9930 N   0  0  0  0  0  0  0  0  0  0  0  0
  -25.2530  -16.0250   20.1420 H   0  0  0  0  0  0  0  0  0  0  0  0
  -26.8240  -15.7520   19.5740 H   0  0  0  0  0  0  0  0  0  0  0  0
  -29.0260  -16.5390   22.0880 C   0  0  0  0  0  1  0  0  0  0  0  0
  -30.4850  -16.8840   21.7580 C   0  0  0  0  0  3  0  0  0  0  0  0
  -31.3240  -15.9470   22.4120 O   0  0  0  0  0  0  0  0  0  0  0  0
  -31.1620  -15.9960   23.3520 H   0  0  0  0  0  0  0  0  0  0  0  0
  -28.7950  -25.6880   18.9770 C   0  0  0  0  0  2  0  0  0  0  0  0
  -28.4830  -26.6520   20.0010 O   0  0  0  0  0  0  0  0  0  0  0  0
  -24.5950  -31.7510   23.1220 C   0  0  0  0  0  0  0  0  0  0  0  0
  -27.2950  -27.3700   19.9600 C   0  0  0  0  0  0  0  0  0  0  0  0
  -23.4080  -30.3660   21.4540 C   0  0  0  0  0  3  0  0  0  0  0  0
  -24.8790  -28.8660   20.0080 C   0  0  0  0  0  0  0  0  0  0  0  0
  -25.9340  -30.7460   21.2710 C   0  0  0  0  0  2  0  0  0  0  0  0
  -26.0330  -29.3850   20.6070 C   0  0  0  0  0  0  0  0  0  0  0  0
  -27.2380  -28.6420   20.5870 C   0  0  0  0  0  3  0  0  0  0  0  0
  -26.1080  -26.8670   19.3740 C   0  0  0  0  0  3  0  0  0  0  0  0
  -24.9120  -27.6060   19.3920 C   0  0  0  0  0  3  0  0  0  0  0  0
  -23.6290  -29.7140   20.0640 C   0  0  0  0  0  2  0  0  0  0  0  0
  -24.6650  -30.9690   22.0070 N   0  0  0  0  0  0  0  0  0  0  0  0
  -23.5090  -32.0010   23.6620 O   0  0  0  0  0  0  0  0  0  0  0  0
  -22.7620  -29.3220   22.3930 C   0  0  0  0  0  0  0  0  0  0  0  0
  -21.4420  -29.1250   22.2520 N   0  0  0  0  0  0  0  0  0  0  0  0
  -23.4460  -28.6920   23.2050 O   0  0  0  0  0  0  0  0  0  0  0  0
  -20.9500  -29.6870   21.5700 H   0  0  0  0  0  0  0  0  0  0  0  0
  -18.0780  -27.8840   22.7070 C   0  0  0  0  0  0  0  0  0  0  0  0
  -20.6300  -28.1650   23.0020 C   0  0  0  0  0  3  0  0  0  0  0  0
  -20.7510  -26.7450   22.4020 C   0  0  0  0  0  2  0  0  0  0  0  0
  -19.6600  -26.4280   21.3750 C   0  0  0  0  0  2  0  0  0  0  0  0
  -18.2730  -26.5480   22.0100 C   0  0  0  0  0  2  0  0  0  0  0  0
  -19.1850  -28.6510   23.1580 C   0  0  0  0  0  0  0  0  0  0  0  0
  -18.9480  -29.9020   23.7660 C   0  0  0  0  0  3  0  0  0  0  0  0
  -17.6370  -30.3870   23.9310 C   0  0  0  0  0  3  0  0  0  0  0  0
  -16.5440  -29.6180   23.4970 C   0  0  0  0  0  3  0  0  0  0  0  0
  -16.7650  -28.3690   22.8910 C   0  0  0  0  0  3  0  0  0  0  0  0
  -25.8730  -32.3820   23.7590 C   0  0  0  0  0  3  0  0  0  0  0  0
  -25.5490  -33.7700   24.1130 N   0  0  0  0  0  0  0  0  0  0  0  0
  -25.8850  -34.8410   23.3820 C   0  0  0  0  0  0  0  0  0  0  0  0
  -26.5720  -34.7640   22.3590 O   0  0  0  0  0  0  0  0  0  0  0  0
  -24.9400  -33.9030   24.9080 H   0  0  0  0  0  0  0  0  0  0  0  0
  -24.1580  -36.6330   23.0260 C   0  0  0  0  0  1  0  0  0  0  0  0
  -25.3800  -36.2150   23.8600 C   0  0  0  0  0  3  0  0  0  0  0  0
  -27.4850  -37.0920   24.7680 C   0  0  0  0  0  1  0  0  0  0  0  0
  -26.4100  -37.2750   23.7970 N   0  0  0  0  0  0  0  0  0  0  0  0
  -25.9960  -38.1910   23.9500 H   0  0  0  0  0  0  0  0  0  0  0  0
  -26.3950  -31.5910   25.0190 C   0  0  1  0  0  0  0  0  0  0  0  0
  -25.3010  -31.3120   26.0770 C   0  0  0  0  0  1  0  0  0  0  0  0
  -27.0000  -30.2330   24.5980 C   0  0  0  0  0  1  0  0  0  0  0  0
  -27.5320  -32.3870   25.7020 C   0  0  0  0  0  1  0  0  0  0  0  0
  1  3  1  0
  2  3  2  0
  3  7  1  0
  4  1  2  0
  5  2  1  0
  6  5  2  0
  6  4  1  0
  8  6  1  0
  9  4  1  0
  9 10  1  0
 10 12  1  0
 11 10  1  0
 13 19  1  0
 14 19  1  0
 15 16  1  0
 15 14  1  0
 17 16  1  0
 17 29  1  0
 17 18  1  0
 19 18  1  0
 20 13  2  0
 21 22  1  0
 21 23  1  0
 22 25  1  0
 23 10  1  0
 23 24  1  0
 24 55  1  0
 25 13  1  0
 25 24  1  0
 26 27  2  0
 27 46  1  0
 28 27  1  0
 28 31  1  0
 29 30  1  0
 29 26  1  0
 30 28  2  0
 31 32  1  0
 32 33  2  0
 34 37  1  0
 34 33  1  0
 35 34  2  0
 36 35  1  0
 36 31  2  0
 37 38  1  0
 38 43  2  0
 38 39  1  0
 39 40  2  0
 40 41  1  0
 41 45  1  0
 42 41  2  0
 43 42  1  0
 44 43  1  0
 46 47  1  0
 47 50  1  0
 47 49  1  0
 48 46  2  0
 51 52  1  0
 51 26  1  0
 53 51  1  0
 55 54  1  0
 55 56  1  0
 56 57  1  0
 58  5  1  0
 58 59  1  0
 60 71  2  0
 61 59  1  0
 61 66  1  0
 62 70  1  0
 62 72  1  0
 63 69  1  0
 63 65  1  0
 64 70  1  0
 65 64  1  0
 66 65  2  0
 67 68  1  0
 67 61  2  0
 68 63  2  0
 69 62  1  0
 70 60  1  0
 72 74  2  0
 73 72  1  0
 75 73  1  0
 76 85  2  0
 76 81  1  0
 77 73  1  0
 77 81  1  0
 78 77  1  0
 79 80  1  0
 79 78  1  0
 80 76  1  0
 81 82  2  0
 82 83  1  0
 84 83  2  0
 85 84  1  0
 86 60  1  0
 86 87  1  0
 86 96  1  0
 87 90  1  0
 88 92  1  0
 88 87  1  0
 89 88  2  0
 92 91  1  0
 94 92  1  0
 94 95  1  0
 94 93  1  0
 96 99  1  1
 96 97  1  0
 98 96  1  0
M  ISO  4  13 100  25 100  58 101  59 101
M  END
>  <TORSDO>  (66) 
F 21

>  <SCORE>  (66) 
-10.156

>  <name>  (66) 
66

>  <ligand_id>  (66) 
66

>  <original_smiles>  (66) 
[H]OC([H])(C([H])([H])[H])C1([H])N(C(=O)N2C([H])([H])C([H])([H])C([H])([H])C([H])(n3nc(-c4c([H])c([H])c(Oc5c([H])c([H])c(F)c([H])c5F)c([H])c4[H])c(C(=O)N([H])[H])c3N([H])[H])C2([H])[H])C([H])([H])C([H])([H])C1([H])[N+]([H])([H])C([H])([H])c1c([H])c(C([H])([H])[H])c([H])c(C([H])([H])Oc2c([H])c([H])c3c(c2[H])C([H])([H])N(C(=O)C([H])(N([H])C(=O)C([H])(N([H])C([H])([H])[H])C([H])([H])[H])C(C([H])([H])[H])(C([H])([H])[H])C([H])([H])[H])C([H])(C(=O)N([H])C2([H])c4c([H])c([H])c([H])c([H])c4C([H])([H])C([H])([H])C2([H])[H])C3([H])[H])c1C([H])([H])[H]

>  <smiles>  (66) 
[H]OC([H])(C([H])([H])[H])C1([H])N(C(=O)N2C([H])([H])C([H])([H])C([H])([H])C([H])(n3nc(-c4c([H])c([H])c(Oc5c([H])c([H])c(F)c([H])c5F)c([H])c4[H])c(C(=O)N([H])[H])c3N([H])[H])C2([H])[H])C([H])([H])C([H])([H])C1([H])[N+]([H])([H])C([H])([H])c1c([H])c(C([H])([H])[H])c([H])c(C([H])([H])Oc2c([H])c([H])c3c(c2[H])C([H])([H])N(C(=O)C([H])(N([H])C(=O)C([H])(N([H])C([H])([H])[H])C([H])([H])[H])C(C([H])([H])[H])(C([H])([H])[H])C([H])([H])[H])C([H])(C(=O)N([H])C2([H])c4c([H])c([H])c([H])c([H])c4C([H])([H])C([H])([H])C2([H])[H])C3([H])[H])c1C([H])([H])[H]

$$$$
67:0:0
     RDKit          3D

 94103  0  0  1  0  0  0  0  0999 V2000
  -29.5410  -23.6110   20.9680 C   0  0  0  0  0  0  0  0  0  0  0  0
  -28.7520  -23.9550   19.8370 C   0  0  0  0  0  0  0  0  0  0  0  0
  -29.8390  -22.2340   21.2350 C   0  0  0  0  0  0  0  0  0  0  0  0
  -28.2840  -22.8460   19.0660 C   0  0  0  0  0  0  0  0  0  0  0  0
  -29.3610  -21.2120   20.3720 C   0  0  0  0  0  0  0  0  0  0  0  0
  -30.0810  -24.7260   21.8580 C   0  0  0  0  0  1  0  0  0  0  0  0
  -30.6820  -21.8410   22.4430 C   0  0  0  0  0  1  0  0  0  0  0  0
  -27.4330  -23.0490   17.8260 C   0  0  0  0  0  1  0  0  0  0  0  0
  -28.5720  -21.5350   19.3240 N   0  0  0  0  0  0  0  0  0  0  0  0
  -28.5780  -25.4450   19.3300 C   0  0  0  0  0  2  0  0  0  0  0  0
  -28.3690  -26.5630   20.2640 O   0  0  0  0  0  0  0  0  0  0  0  0
  -24.6620  -31.9310   23.2960 C   0  0  0  0  0  0  0  0  0  0  0  0
  -27.2300  -27.3740   20.2120 C   0  0  0  0  0  0  0  0  0  0  0  0
  -23.4410  -30.5470   21.6550 C   0  0  0  0  0  3  0  0  0  0  0  0
  -24.8730  -28.9890   20.2240 C   0  0  0  0  0  0  0  0  0  0  0  0
  -25.9810  -30.8480   21.4650 C   0  0  0  0  0  2  0  0  0  0  0  0
  -26.0450  -29.4720   20.8160 C   0  0  0  0  0  0  0  0  0  0  0  0
  -27.2240  -28.6740   20.8040 C   0  0  0  0  0  3  0  0  0  0  0  0
  -26.0240  -26.9270   19.6250 C   0  0  0  0  0  3  0  0  0  0  0  0
  -24.8620  -27.7200   19.6250 C   0  0  0  0  0  3  0  0  0  0  0  0
  -23.6440  -29.8730   20.2730 C   0  0  0  0  0  2  0  0  0  0  0  0
  -24.7140  -31.1260   22.1960 N   0  0  0  0  0  0  0  0  0  0  0  0
  -23.5830  -32.2160   23.8360 O   0  0  0  0  0  0  0  0  0  0  0  0
  -22.7740  -29.5330   22.6150 C   0  0  0  0  0  0  0  0  0  0  0  0
  -21.4480  -29.3610   22.4860 N   0  0  0  0  0  0  0  0  0  0  0  0
  -23.4490  -28.9040   23.4360 O   0  0  0  0  0  0  0  0  0  0  0  0
  -20.9630  -29.9200   21.7970 H   0  0  0  0  0  0  0  0  0  0  0  0
  -18.0660  -28.1780   22.9710 C   0  0  0  0  0  0  0  0  0  0  0  0
  -20.6220  -28.4300   23.2560 C   0  0  0  0  0  3  0  0  0  0  0  0
  -20.7230  -26.9960   22.6920 C   0  0  0  0  0  2  0  0  0  0  0  0
  -19.6290  -26.6710   21.6700 C   0  0  0  0  0  2  0  0  0  0  0  0
  -18.2420  -26.8250   22.3020 C   0  0  0  0  0  2  0  0  0  0  0  0
  -19.1840  -28.9390   23.4050 C   0  0  0  0  0  0  0  0  0  0  0  0
  -18.9650  -30.2040   23.9900 C   0  0  0  0  0  3  0  0  0  0  0  0
  -17.6600  -30.7100   24.1460 C   0  0  0  0  0  3  0  0  0  0  0  0
  -16.5560  -29.9470   23.7280 C   0  0  0  0  0  3  0  0  0  0  0  0
  -16.7600  -28.6830   23.1460 C   0  0  0  0  0  3  0  0  0  0  0  0
  -25.9530  -32.5520   23.9160 C   0  0  0  0  0  3  0  0  0  0  0  0
  -25.6560  -33.9530   24.2440 N   0  0  0  0  0  0  0  0  0  0  0  0
  -25.9990  -35.0020   23.4850 C   0  0  0  0  0  0  0  0  0  0  0  0
  -26.6690  -34.8910   22.4530 O   0  0  0  0  0  0  0  0  0  0  0  0
  -25.0620  -34.1150   25.0450 H   0  0  0  0  0  0  0  0  0  0  0  0
  -24.2920  -36.8150   23.1270 C   0  0  0  0  0  1  0  0  0  0  0  0
  -25.5270  -36.3950   23.9410 C   0  0  0  0  0  3  0  0  0  0  0  0
  -27.6660  -37.2590   24.7810 C   0  0  0  0  0  1  0  0  0  0  0  0
  -26.5710  -37.4380   23.8320 N   0  0  0  0  0  0  0  0  0  0  0  0
  -26.1740  -38.3620   23.9780 H   0  0  0  0  0  0  0  0  0  0  0  0
  -26.4610  -31.7770   25.1940 C   0  0  1  0  0  0  0  0  0  0  0  0
  -25.3650  -31.5530   26.2610 C   0  0  0  0  0  1  0  0  0  0  0  0
  -27.0320  -30.3940   24.8070 C   0  0  0  0  0  1  0  0  0  0  0  0
  -27.6190  -32.5630   25.8550 C   0  0  0  0  0  1  0  0  0  0  0  0
  -29.7520  -19.8700   20.5710 O   0  0  0  0  0  0  0  0  0  0  0  0
  -30.8980  -14.6660   19.9730 C   0  0  0  0  0  0  0  0  0  0  0  0
  -30.5840  -12.4230   18.9620 C   0  0  0  0  0  2  0  0  0  0  0  0
  -29.6030  -12.5290   17.7770 C   0  0  0  0  0  2  0  0  0  0  0  0
  -28.1500  -12.3850   18.2690 C   0  0  0  0  0  2  0  0  0  0  0  0
  -27.8390  -13.2810   19.4980 C   0  0  0  0  0  3  0  0  0  0  0  0
  -28.9380  -13.1750   20.5770 C   0  0  0  0  0  2  0  0  0  0  0  0
  -30.2170  -13.4790   19.9270 N   0  0  0  0  0  0  0  0  0  0  0  0
  -32.0700  -14.7250   19.5900 O   0  0  0  0  0  0  0  0  0  0  0  0
  -29.3340  -17.9840   18.8980 C   0  0  0  0  0  2  0  0  0  0  0  0
  -28.8880  -17.6410   21.3370 C   0  0  0  0  0  2  0  0  0  0  0  0
  -30.4370  -16.8860   19.0330 C   0  0  0  0  0  2  0  0  0  0  0  0
  -30.0100  -16.5450   21.3380 C   0  0  0  0  0  2  0  0  0  0  0  0
  -28.9370  -18.7160   20.2060 C   0  0  0  0  0  3  0  0  0  0  0  0
  -30.1600  -15.8350   20.0490 N   0  0  0  0  0  0  0  0  0  0  0  0
  -25.4930  -13.8910   20.3400 C   0  0  0  0  0  0  0  0  0  0  0  0
  -24.4350  -13.1240   20.7460 C   0  0  0  0  0  0  0  0  0  0  0  0
  -24.8810  -11.7680   20.6750 C   0  0  0  0  0  0  0  0  0  0  0  0
  -26.5150  -13.0040   20.0460 N   0  0  0  0  0  0  0  0  0  0  0  0
  -26.1560  -11.7210   20.3100 N   0  0  0  0  0  0  0  0  0  0  0  0
  -24.1500  -10.5100   20.8780 C   0  0  0  0  0  0  0  0  0  0  0  0
  -24.5630   -9.5630   21.8420 C   0  0  0  0  0  3  0  0  0  0  0  0
  -23.8330   -8.3690   22.0300 C   0  0  0  0  0  3  0  0  0  0  0  0
  -22.6760   -8.1150   21.2570 C   0  0  0  0  0  0  0  0  0  0  0  0
  -22.2810   -9.0510   20.2840 C   0  0  0  0  0  3  0  0  0  0  0  0
  -23.0120  -10.2360   20.0930 C   0  0  0  0  0  3  0  0  0  0  0  0
  -21.9180   -6.9730   21.3540 O   0  0  0  0  0  0  0  0  0  0  0  0
  -21.7740   -6.3040   22.5430 C   0  0  0  0  0  0  0  0  0  0  0  0
  -21.2370   -6.9290   23.6900 C   0  0  0  0  0  3  0  0  0  0  0  0
  -21.0430   -6.1850   24.8720 C   0  0  0  0  0  3  0  0  0  0  0  0
  -21.3750   -4.8180   24.9060 C   0  0  0  0  0  0  0  0  0  0  0  0
  -21.9030   -4.1930   23.7630 C   0  0  0  0  0  3  0  0  0  0  0  0
  -22.1000   -4.9330   22.5840 C   0  0  0  0  0  0  0  0  0  0  0  0
  -22.5900   -4.3210   21.4790 F   0  0  0  0  0  0  0  0  0  0  0  0
  -21.1820   -4.1010   26.0370 F   0  0  0  0  0  0  0  0  0  0  0  0
  -23.0570  -13.6110   21.0880 C   0  0  0  0  0  0  0  0  0  0  0  0
  -22.3620  -12.9110   21.9770 N   0  0  0  0  0  0  0  0  0  0  0  0
  -22.6090  -14.6490   20.6030 O   0  0  0  0  0  0  0  0  0  0  0  0
  -22.7390  -12.0730   22.3920 H   0  0  0  0  0  0  0  0  0  0  0  0
  -21.4400  -13.2220   22.2490 H   0  0  0  0  0  0  0  0  0  0  0  0
  -25.6670  -15.2610   20.1740 N   0  0  0  0  0  0  0  0  0  0  0  0
  -24.9140  -15.9250   20.3150 H   0  0  0  0  0  0  0  0  0  0  0  0
  -26.5130  -15.6860   19.8170 H   0  0  0  0  0  0  0  0  0  0  0  0
  1  3  2  0
  1  6  1  0
  2  1  1  0
  3  7  1  0
  4  9  1  0
  4  2  2  0
  5 52  1  0
  5  3  1  0
  8  4  1  0
  9  5  2  0
 10  2  1  0
 10 11  1  0
 12 23  2  0
 13 11  1  0
 13 18  1  0
 14 22  1  0
 14 24  1  0
 15 21  1  0
 15 17  1  0
 16 22  1  0
 17 16  1  0
 18 17  2  0
 19 13  2  0
 20 19  1  0
 20 15  2  0
 21 14  1  0
 22 12  1  0
 24 26  2  0
 25 24  1  0
 27 25  1  0
 28 37  2  0
 28 33  1  0
 29 25  1  0
 29 33  1  0
 30 29  1  0
 31 32  1  0
 31 30  1  0
 32 28  1  0
 33 34  2  0
 34 35  1  0
 36 35  2  0
 37 36  1  0
 38 12  1  0
 38 39  1  0
 38 48  1  0
 39 42  1  0
 40 44  1  0
 40 39  1  0
 41 40  2  0
 44 43  1  0
 46 44  1  0
 46 47  1  0
 46 45  1  0
 48 51  1  1
 48 49  1  0
 50 48  1  0
 53 66  1  0
 54 59  1  0
 55 56  1  0
 55 54  1  0
 57 56  1  0
 57 70  1  0
 57 58  1  0
 59 53  1  0
 59 58  1  0
 60 53  2  0
 61 63  1  0
 61 65  1  0
 62 64  1  0
 63 66  1  0
 65 52  1  0
 65 62  1  0
 66 64  1  0
 67 68  2  0
 68 87  1  0
 69 68  1  0
 69 72  1  0
 70 71  1  0
 70 67  1  0
 71 69  2  0
 72 73  1  0
 73 74  2  0
 75 78  1  0
 75 74  1  0
 76 75  2  0
 77 76  1  0
 77 72  2  0
 78 79  1  0
 79 84  2  0
 79 80  1  0
 80 81  2  0
 81 82  1  0
 82 86  1  0
 83 82  2  0
 84 83  1  0
 85 84  1  0
 87 88  1  0
 88 91  1  0
 88 90  1  0
 89 87  2  0
 92 93  1  0
 92 67  1  0
 94 92  1  0
M  ISO  4  10 101  11 101  53 100  66 100
M  END
>  <TORSDO>  (67) 
F 18

>  <SCORE>  (67) 
-14.382

>  <name>  (67) 
67

>  <ligand_id>  (67) 
67

>  <original_smiles>  (67) 
[H]c1c([H])c([H])c2c(c1[H])C([H])([H])C([H])([H])C([H])([H])C2([H])N([H])C(=O)C1([H])N(C(=O)C([H])(N([H])C(=O)C([H])(N([H])C([H])([H])[H])C([H])([H])[H])C(C([H])([H])[H])(C([H])([H])[H])C([H])([H])[H])C([H])([H])c2c([H])c(OC([H])([H])c3c(C([H])([H])[H])nc(OC4([H])C([H])([H])C([H])([H])N(C(=O)N5C([H])([H])C([H])([H])C([H])([H])C([H])(n6nc(-c7c([H])c([H])c(Oc8c([H])c([H])c(F)c([H])c8F)c([H])c7[H])c(C(=O)N([H])[H])c6N([H])[H])C5([H])[H])C([H])([H])C4([H])[H])c(C([H])([H])[H])c3C([H])([H])[H])c([H])c([H])c2C1([H])[H]

>  <smiles>  (67) 
[H]c1c([H])c([H])c2c(c1[H])C([H])([H])C([H])([H])C([H])([H])C2([H])N([H])C(=O)C1([H])N(C(=O)C([H])(N([H])C(=O)C([H])(N([H])C([H])([H])[H])C([H])([H])[H])C(C([H])([H])[H])(C([H])([H])[H])C([H])([H])[H])C([H])([H])c2c([H])c(OC([H])([H])c3c(C([H])([H])[H])nc(OC4([H])C([H])([H])C([H])([H])N(C(=O)N5C([H])([H])C([H])([H])C([H])([H])C([H])(n6nc(-c7c([H])c([H])c(Oc8c([H])c([H])c(F)c([H])c8F)c([H])c7[H])c(C(=O)N([H])[H])c6N([H])[H])C5([H])[H])C([H])([H])C4([H])[H])c(C([H])([H])[H])c3C([H])([H])[H])c([H])c([H])c2C1([H])[H]

$$$$
68:0:0
     RDKit          3D

 97107  0  0  1  0  0  0  0  0999 V2000
  -27.5910  -21.0650   20.4050 C   0  0  0  0  0  3  0  0  0  0  0  0
  -27.7220  -23.4640   19.9270 C   0  0  0  0  0  0  0  0  0  0  0  0
  -27.5940  -22.3950   20.8540 C   0  0  0  0  0  0  0  0  0  0  0  0
  -27.6560  -23.1790   18.5280 C   0  0  0  0  0  0  0  0  0  0  0  0
  -27.6060  -21.8340   18.0910 C   0  0  0  0  0  0  0  0  0  0  0  0
  -27.6740  -20.7890   19.0360 C   0  0  0  0  0  0  0  0  0  0  0  0
  -27.5130  -22.6410   22.3540 C   0  0  0  0  0  1  0  0  0  0  0  0
  -27.6710  -24.2620   17.4490 C   0  0  0  0  0  1  0  0  0  0  0  0
  -27.5510  -21.4950   16.6040 C   0  0  0  0  0  1  0  0  0  0  0  0
  -29.2700  -25.1530   21.1810 C   0  0  0  0  0  2  0  0  0  0  0  0
  -27.9600  -24.8410   20.4930 C   0  0  0  0  0  3  0  0  0  0  0  0
  -28.9390  -25.8370   19.8810 C   0  0  0  0  0  3  0  0  0  0  0  0
  -28.8100  -27.2320   20.1380 O   0  0  0  0  0  0  0  0  0  0  0  0
  -24.6760  -32.0260   23.2730 C   0  0  0  0  0  0  0  0  0  0  0  0
  -27.5790  -27.8480   20.0900 C   0  0  0  0  0  0  0  0  0  0  0  0
  -23.5670  -30.6410   21.5480 C   0  0  0  0  0  3  0  0  0  0  0  0
  -25.1160  -29.2320   20.1010 C   0  0  0  0  0  0  0  0  0  0  0  0
  -26.0760  -31.1190   21.4280 C   0  0  0  0  0  2  0  0  0  0  0  0
  -26.2320  -29.7830   20.7390 C   0  0  0  0  0  0  0  0  0  0  0  0
  -27.4630  -29.0950   20.7350 C   0  0  0  0  0  3  0  0  0  0  0  0
  -26.4430  -27.3140   19.4370 C   0  0  0  0  0  3  0  0  0  0  0  0
  -25.2130  -27.9920   19.4500 C   0  0  0  0  0  3  0  0  0  0  0  0
  -23.8350  -30.0290   20.1480 C   0  0  0  0  0  2  0  0  0  0  0  0
  -24.7890  -31.2740   22.1430 N   0  0  0  0  0  0  0  0  0  0  0  0
  -23.5720  -32.2320   23.7960 O   0  0  0  0  0  0  0  0  0  0  0  0
  -22.9390  -29.5540   22.4500 C   0  0  0  0  0  0  0  0  0  0  0  0
  -21.6170  -29.3620   22.3190 N   0  0  0  0  0  0  0  0  0  0  0  0
  -23.6360  -28.8910   23.2230 O   0  0  0  0  0  0  0  0  0  0  0  0
  -21.1160  -29.9530   21.6700 H   0  0  0  0  0  0  0  0  0  0  0  0
  -18.2500  -28.1540   22.8190 C   0  0  0  0  0  0  0  0  0  0  0  0
  -20.8150  -28.3700   23.0350 C   0  0  0  0  0  3  0  0  0  0  0  0
  -20.8860  -26.9890   22.3440 C   0  0  0  0  0  2  0  0  0  0  0  0
  -19.7530  -26.7570   21.3410 C   0  0  0  0  0  2  0  0  0  0  0  0
  -18.3920  -26.8610   22.0360 C   0  0  0  0  0  2  0  0  0  0  0  0
  -19.3870  -28.8710   23.2750 C   0  0  0  0  0  0  0  0  0  0  0  0
  -19.2000  -30.0860   23.9680 C   0  0  0  0  0  3  0  0  0  0  0  0
  -17.9050  -30.5860   24.2090 C   0  0  0  0  0  3  0  0  0  0  0  0
  -16.7820  -29.8640   23.7700 C   0  0  0  0  0  3  0  0  0  0  0  0
  -16.9540  -28.6490   23.0830 C   0  0  0  0  0  3  0  0  0  0  0  0
  -25.9210  -32.6810   23.9490 C   0  0  0  0  0  3  0  0  0  0  0  0
  -26.3990  -31.9200   25.2450 C   0  0  1  0  0  0  0  0  0  0  0  0
  -25.2650  -31.6560   26.2640 C   0  0  0  0  0  1  0  0  0  0  0  0
  -27.0290  -30.5570   24.8750 C   0  0  0  0  0  1  0  0  0  0  0  0
  -27.5000  -32.7390   25.9580 C   0  0  0  0  0  1  0  0  0  0  0  0
  -25.5730  -34.0730   24.2590 N   0  0  0  0  0  0  0  0  0  0  0  0
  -25.9230  -35.1280   23.5110 C   0  0  0  0  0  0  0  0  0  0  0  0
  -26.6430  -35.0330   22.5140 O   0  0  0  0  0  0  0  0  0  0  0  0
  -24.9390  -34.2200   25.0300 H   0  0  0  0  0  0  0  0  0  0  0  0
  -24.1860  -36.8870   23.0580 C   0  0  0  0  0  1  0  0  0  0  0  0
  -25.3880  -36.5080   23.9370 C   0  0  0  0  0  3  0  0  0  0  0  0
  -27.4510  -37.4400   24.8900 C   0  0  0  0  0  1  0  0  0  0  0  0
  -26.4080  -37.5780   23.8760 N   0  0  0  0  0  0  0  0  0  0  0  0
  -25.9780  -38.4920   23.9870 H   0  0  0  0  0  0  0  0  0  0  0  0
  -27.9910  -19.5190   18.6460 O   0  0  0  0  0  0  0  0  0  0  0  0
  -29.3820  -19.4370   18.3360 C   0  0  0  0  0  2  0  0  0  0  0  0
  -31.1120  -14.7360   21.0890 C   0  0  0  0  0  0  0  0  0  0  0  0
  -30.7780  -12.5230   20.1120 C   0  0  0  0  0  2  0  0  0  0  0  0
  -29.9810  -12.5710   18.7780 C   0  0  0  0  0  2  0  0  0  0  0  0
  -28.5360  -13.1090   18.9200 C   0  0  0  0  0  2  0  0  0  0  0  0
  -28.0610  -13.0680   20.3720 C   0  0  0  0  0  3  0  0  0  0  0  0
  -28.9750  -13.5640   21.4900 C   0  0  0  0  0  2  0  0  0  0  0  0
  -30.3530  -13.6270   20.9900 N   0  0  0  0  0  0  0  0  0  0  0  0
  -32.3420  -14.7250   21.1150 O   0  0  0  0  0  0  0  0  0  0  0  0
  -29.9240  -16.9770   18.4420 C   0  0  0  0  0  2  0  0  0  0  0  0
  -29.7160  -18.2020   20.6110 C   0  0  0  0  0  2  0  0  0  0  0  0
  -30.8790  -16.0170   19.1360 C   0  0  0  0  0  2  0  0  0  0  0  0
  -30.5280  -17.0820   21.3080 C   0  0  0  0  0  2  0  0  0  0  0  0
  -30.0900  -18.3280   19.1190 C   0  0  0  0  0  3  0  0  0  0  0  0
  -30.5160  -15.8180   20.5500 N   0  0  0  0  0  0  0  0  0  0  0  0
  -25.6520  -14.1390   20.7330 C   0  0  0  0  0  0  0  0  0  0  0  0
  -24.4720  -13.4540   20.9250 C   0  0  0  0  0  0  0  0  0  0  0  0
  -24.8100  -12.0730   20.8670 C   0  0  0  0  0  0  0  0  0  0  0  0
  -26.6270  -13.1430   20.6060 N   0  0  0  0  0  0  0  0  0  0  0  0
  -26.0920  -11.9200   20.7100 N   0  0  0  0  0  0  0  0  0  0  0  0
  -24.0220  -10.8510   20.8900 C   0  0  0  0  0  0  0  0  0  0  0  0
  -24.3680   -9.7810   21.7440 C   0  0  0  0  0  3  0  0  0  0  0  0
  -23.6030   -8.6000   21.7440 C   0  0  0  0  0  3  0  0  0  0  0  0
  -22.4820   -8.4890   20.8890 C   0  0  0  0  0  0  0  0  0  0  0  0
  -22.1640   -9.5470   20.0200 C   0  0  0  0  0  3  0  0  0  0  0  0
  -22.9320  -10.7200   20.0150 C   0  0  0  0  0  3  0  0  0  0  0  0
  -21.6840   -7.3760   20.8120 O   0  0  0  0  0  0  0  0  0  0  0  0
  -21.5410   -6.5240   21.8760 C   0  0  0  0  0  0  0  0  0  0  0  0
  -21.0040   -6.9540   23.1090 C   0  0  0  0  0  3  0  0  0  0  0  0
  -20.8120   -6.0260   24.1520 C   0  0  0  0  0  3  0  0  0  0  0  0
  -21.1440   -4.6720   23.9600 C   0  0  0  0  0  0  0  0  0  0  0  0
  -21.6720   -4.2430   22.7300 C   0  0  0  0  0  3  0  0  0  0  0  0
  -21.8690   -5.1670   21.6890 C   0  0  0  0  0  0  0  0  0  0  0  0
  -22.3590   -4.7470   20.4990 F   0  0  0  0  0  0  0  0  0  0  0  0
  -20.9510   -3.7790   24.9580 F   0  0  0  0  0  0  0  0  0  0  0  0
  -23.0840  -14.0110   21.0720 C   0  0  0  0  0  0  0  0  0  0  0  0
  -22.2250  -13.3150   21.8120 N   0  0  0  0  0  0  0  0  0  0  0  0
  -22.7600  -15.0820   20.5630 O   0  0  0  0  0  0  0  0  0  0  0  0
  -22.4940  -12.4470   22.2530 H   0  0  0  0  0  0  0  0  0  0  0  0
  -21.2850  -13.6590   21.9410 H   0  0  0  0  0  0  0  0  0  0  0  0
  -25.9640  -15.4930   20.6540 N   0  0  0  0  0  0  0  0  0  0  0  0
  -25.2590  -16.2210   20.6780 H   0  0  0  0  0  0  0  0  0  0  0  0
  -26.8930  -15.8390   20.4490 H   0  0  0  0  0  0  0  0  0  0  0  0
  1  3  1  0
  2  3  2  0
  3  7  1  0
  4  2  1  0
  5  4  2  0
  5  6  1  0
  6  1  2  0
  8  4  1  0
  9  5  1  0
 11  2  1  0
 11 10  1  0
 12 13  1  0
 12 11  1  0
 12 10  1  0
 14 25  2  0
 15 13  1  0
 15 20  1  0
 16 24  1  0
 16 26  1  0
 17 23  1  0
 17 19  1  0
 18 24  1  0
 19 18  1  0
 20 19  2  0
 21 22  1  0
 21 15  2  0
 22 17  2  0
 23 16  1  0
 24 14  1  0
 26 28  2  0
 27 26  1  0
 29 27  1  0
 30 39  2  0
 30 35  1  0
 31 27  1  0
 31 35  1  0
 32 31  1  0
 33 34  1  0
 33 32  1  0
 34 30  1  0
 35 36  2  0
 36 37  1  0
 38 37  2  0
 39 38  1  0
 40 14  1  0
 40 45  1  0
 40 41  1  0
 41 44  1  1
 41 42  1  0
 43 41  1  0
 45 48  1  0
 46 50  1  0
 46 45  1  0
 47 46  2  0
 50 49  1  0
 52 50  1  0
 52 53  1  0
 52 51  1  0
 54  6  1  0
 55 54  1  0
 56 63  2  0
 57 62  1  0
 58 59  1  0
 58 57  1  0
 60 59  1  0
 60 73  1  0
 60 61  1  0
 62 56  1  0
 62 61  1  0
 64 68  1  0
 64 66  1  0
 65 67  1  0
 66 69  1  0
 68 55  1  0
 68 65  1  0
 69 56  1  0
 69 67  1  0
 70 71  2  0
 71 90  1  0
 72 75  1  0
 72 71  1  0
 73 74  1  0
 73 70  1  0
 74 72  2  0
 75 76  1  0
 76 77  2  0
 78 77  1  0
 79 78  2  0
 80 79  1  0
 80 75  2  0
 81 78  1  0
 81 82  1  0
 82 83  1  0
 83 84  2  0
 85 84  1  0
 85 89  1  0
 86 85  2  0
 87 82  2  0
 87 86  1  0
 88 87  1  0
 90 91  1  0
 91 94  1  0
 91 93  1  0
 92 90  2  0
 95 96  1  0
 95 70  1  0
 97 95  1  0
M  ISO  4  12 101  13 101  56 100  69 100
M  END
>  <TORSDO>  (68) 
F 19

>  <SCORE>  (68) 
-11.153

>  <name>  (68) 
68

>  <ligand_id>  (68) 
68

>  <original_smiles>  (68) 
[H]c1c([H])c([H])c2c(c1[H])C([H])([H])C([H])([H])C([H])([H])C2([H])N([H])C(=O)C1([H])N(C(=O)C([H])(N([H])C(=O)C([H])(N([H])C([H])([H])[H])C([H])([H])[H])C(C([H])([H])[H])(C([H])([H])[H])C([H])([H])[H])C([H])([H])c2c([H])c(OC3([H])C([H])([H])C3([H])c3c(C([H])([H])[H])c([H])c(OC([H])([H])C4([H])C([H])([H])C([H])([H])N(C(=O)N5C([H])([H])C([H])([H])C([H])([H])C([H])(n6nc(-c7c([H])c([H])c(Oc8c([H])c([H])c(F)c([H])c8F)c([H])c7[H])c(C(=O)N([H])[H])c6N([H])[H])C5([H])[H])C([H])([H])C4([H])[H])c(C([H])([H])[H])c3C([H])([H])[H])c([H])c([H])c2C1([H])[H]

>  <smiles>  (68) 
[H]c1c([H])c([H])c2c(c1[H])C([H])([H])C([H])([H])C([H])([H])C2([H])N([H])C(=O)C1([H])N(C(=O)C([H])(N([H])C(=O)C([H])(N([H])C([H])([H])[H])C([H])([H])[H])C(C([H])([H])[H])(C([H])([H])[H])C([H])([H])[H])C([H])([H])c2c([H])c(OC3([H])C([H])([H])C3([H])c3c(C([H])([H])[H])c([H])c(OC([H])([H])C4([H])C([H])([H])C([H])([H])N(C(=O)N5C([H])([H])C([H])([H])C([H])([H])C([H])(n6nc(-c7c([H])c([H])c(Oc8c([H])c([H])c(F)c([H])c8F)c([H])c7[H])c(C(=O)N([H])[H])c6N([H])[H])C5([H])[H])C([H])([H])C4([H])[H])c(C([H])([H])[H])c3C([H])([H])[H])c([H])c([H])c2C1([H])[H]

$$$$
69:0:0
     RDKit          3D

 93101  0  0  1  0  0  0  0  0999 V2000
  -29.4580  -22.1850   20.3100 C   0  0  0  0  0  3  0  0  0  0  0  0
  -29.6150  -20.8190   20.6220 C   0  0  0  0  0  3  0  0  0  0  0  0
  -28.4190  -22.6340   19.4700 C   0  0  0  0  0  0  0  0  0  0  0  0
  -27.4990  -21.6680   18.9610 C   0  0  0  0  0  0  0  0  0  0  0  0
  -28.7250  -19.8480   20.1050 C   0  0  0  0  0  0  0  0  0  0  0  0
  -27.6540  -20.2900   19.2850 C   0  0  0  0  0  0  0  0  0  0  0  0
  -26.3640  -22.0800   18.0270 C   0  0  0  0  0  1  0  0  0  0  0  0
  -26.0090  -18.6380   19.6310 C   0  0  0  0  0  1  0  0  0  0  0  0
  -26.8110  -19.3710   18.7120 O   0  0  0  0  0  0  0  0  0  0  0  0
  -28.4050  -24.1260   19.0610 C   0  0  0  0  0  3  0  0  0  0  0  0
  -28.3930  -25.1680   20.2300 C   0  0  0  0  0  3  0  0  0  0  0  0
  -28.5270  -26.5580   19.8490 O   0  0  0  0  0  0  0  0  0  0  0  0
  -24.6130  -31.6030   23.0690 C   0  0  0  0  0  0  0  0  0  0  0  0
  -27.3680  -27.3060   19.8620 C   0  0  0  0  0  0  0  0  0  0  0  0
  -23.4610  -30.2450   21.3540 C   0  0  0  0  0  3  0  0  0  0  0  0
  -24.9640  -28.7970   19.8980 C   0  0  0  0  0  0  0  0  0  0  0  0
  -25.9890  -30.6440   21.2250 C   0  0  0  0  0  2  0  0  0  0  0  0
  -26.1060  -29.2990   20.5370 C   0  0  0  0  0  0  0  0  0  0  0  0
  -27.3120  -28.5580   20.5240 C   0  0  0  0  0  3  0  0  0  0  0  0
  -26.2210  -26.8510   19.1840 C   0  0  0  0  0  3  0  0  0  0  0  0
  -25.0180  -27.5720   19.2180 C   0  0  0  0  0  3  0  0  0  0  0  0
  -23.7050  -29.6290   19.9540 C   0  0  0  0  0  2  0  0  0  0  0  0
  -24.7050  -30.8440   21.9410 N   0  0  0  0  0  0  0  0  0  0  0  0
  -23.5160  -31.8330   23.5990 O   0  0  0  0  0  0  0  0  0  0  0  0
  -22.8150  -29.1700   22.2580 C   0  0  0  0  0  0  0  0  0  0  0  0
  -21.4880  -29.0050   22.1390 N   0  0  0  0  0  0  0  0  0  0  0  0
  -23.5060  -28.4880   23.0210 O   0  0  0  0  0  0  0  0  0  0  0  0
  -20.9910  -29.6070   21.4990 H   0  0  0  0  0  0  0  0  0  0  0  0
  -18.1020  -27.8560   22.6450 C   0  0  0  0  0  0  0  0  0  0  0  0
  -20.6720  -28.0300   22.8620 C   0  0  0  0  0  3  0  0  0  0  0  0
  -20.7200  -26.6440   22.1720 C   0  0  0  0  0  2  0  0  0  0  0  0
  -19.5840  -26.4370   21.1690 C   0  0  0  0  0  2  0  0  0  0  0  0
  -18.2260  -26.5600   21.8650 C   0  0  0  0  0  2  0  0  0  0  0  0
  -19.2510  -28.5550   23.1000 C   0  0  0  0  0  0  0  0  0  0  0  0
  -19.0810  -29.7770   23.7880 C   0  0  0  0  0  3  0  0  0  0  0  0
  -17.7950  -30.2970   24.0260 C   0  0  0  0  0  3  0  0  0  0  0  0
  -16.6610  -29.5930   23.5870 C   0  0  0  0  0  3  0  0  0  0  0  0
  -16.8150  -28.3740   22.9030 C   0  0  0  0  0  3  0  0  0  0  0  0
  -25.8740  -32.2320   23.7340 C   0  0  0  0  0  3  0  0  0  0  0  0
  -25.5430  -33.6170   24.0940 N   0  0  0  0  0  0  0  0  0  0  0  0
  -25.8810  -34.6920   23.3700 C   0  0  0  0  0  0  0  0  0  0  0  0
  -26.5760  -34.6230   22.3530 O   0  0  0  0  0  0  0  0  0  0  0  0
  -24.9260  -33.7450   24.8820 H   0  0  0  0  0  0  0  0  0  0  0  0
  -24.1350  -36.4670   23.0110 C   0  0  0  0  0  1  0  0  0  0  0  0
  -25.3630  -36.0630   23.8440 C   0  0  0  0  0  3  0  0  0  0  0  0
  -27.4660  -36.9530   24.7420 C   0  0  0  0  0  1  0  0  0  0  0  0
  -26.3840  -37.1320   23.7780 N   0  0  0  0  0  0  0  0  0  0  0  0
  -25.9660  -38.0450   23.9420 H   0  0  0  0  0  0  0  0  0  0  0  0
  -26.3730  -31.4300   24.9980 C   0  0  1  0  0  0  0  0  0  0  0  0
  -25.2590  -31.1440   26.0320 C   0  0  0  0  0  1  0  0  0  0  0  0
  -26.9810  -30.0720   24.5790 C   0  0  0  0  0  1  0  0  0  0  0  0
  -27.5020  -32.2140   25.7070 C   0  0  0  0  0  1  0  0  0  0  0  0
  -28.8560  -18.4910   20.3680 O   0  0  0  0  0  0  0  0  0  0  0  0
  -30.1230  -17.8760   20.1260 C   0  0  0  0  0  2  0  0  0  0  0  0
  -30.1870  -16.4430   20.7270 C   0  0  0  0  0  2  0  0  0  0  0  0
  -31.3540  -14.3750   19.8870 C   0  0  0  0  0  0  0  0  0  0  0  0
  -30.9270  -12.1240   18.9980 C   0  0  0  0  0  2  0  0  0  0  0  0
  -29.9750  -12.2540   17.7940 C   0  0  0  0  0  2  0  0  0  0  0  0
  -28.5040  -12.2310   18.2630 C   0  0  0  0  0  2  0  0  0  0  0  0
  -28.2320  -13.1900   19.4530 C   0  0  0  0  0  3  0  0  0  0  0  0
  -29.3110  -13.0640   20.5530 C   0  0  0  0  0  2  0  0  0  0  0  0
  -30.6190  -13.2320   19.9100 N   0  0  0  0  0  0  0  0  0  0  0  0
  -32.5230  -14.4140   19.5070 O   0  0  0  0  0  0  0  0  0  0  0  0
  -30.6400  -15.4940   19.7050 N   0  0  0  0  0  0  0  0  0  0  0  0
  -31.0500  -16.0160   18.9440 H   0  0  0  0  0  0  0  0  0  0  0  0
  -25.9200  -13.9700   20.2620 C   0  0  0  0  0  0  0  0  0  0  0  0
  -24.8100  -13.2810   20.6640 C   0  0  0  0  0  0  0  0  0  0  0  0
  -25.1630  -11.8960   20.6160 C   0  0  0  0  0  0  0  0  0  0  0  0
  -26.8840  -13.0130   19.9890 N   0  0  0  0  0  0  0  0  0  0  0  0
  -26.4360  -11.7610   20.2630 N   0  0  0  0  0  0  0  0  0  0  0  0
  -24.3490  -10.6920   20.8280 C   0  0  0  0  0  0  0  0  0  0  0  0
  -24.7210   -9.7100   21.7700 C   0  0  0  0  0  3  0  0  0  0  0  0
  -23.9140   -8.5680   21.9700 C   0  0  0  0  0  3  0  0  0  0  0  0
  -22.7170   -8.4050   21.2300 C   0  0  0  0  0  0  0  0  0  0  0  0
  -22.3620   -9.3780   20.2790 C   0  0  0  0  0  3  0  0  0  0  0  0
  -23.1710  -10.5100   20.0780 C   0  0  0  0  0  3  0  0  0  0  0  0
  -21.8830   -7.3210   21.3410 O   0  0  0  0  0  0  0  0  0  0  0  0
  -21.7620   -6.6250   22.5180 C   0  0  0  0  0  0  0  0  0  0  0  0
  -21.3750   -7.2540   23.7230 C   0  0  0  0  0  3  0  0  0  0  0  0
  -21.1970   -6.4860   24.8900 C   0  0  0  0  0  3  0  0  0  0  0  0
  -21.3930   -5.0930   24.8550 C   0  0  0  0  0  0  0  0  0  0  0  0
  -21.7730   -4.4650   23.6550 C   0  0  0  0  0  3  0  0  0  0  0  0
  -21.9540   -5.2290   22.4890 C   0  0  0  0  0  0  0  0  0  0  0  0
  -22.2990   -4.6170   21.3320 F   0  0  0  0  0  0  0  0  0  0  0  0
  -21.2130   -4.3540   25.9730 F   0  0  0  0  0  0  0  0  0  0  0  0
  -23.4630  -13.8630   20.9850 C   0  0  0  0  0  0  0  0  0  0  0  0
  -22.7180  -13.2330   21.8840 N   0  0  0  0  0  0  0  0  0  0  0  0
  -23.0840  -14.9140   20.4710 O   0  0  0  0  0  0  0  0  0  0  0  0
  -23.0380  -12.3840   22.3280 H   0  0  0  0  0  0  0  0  0  0  0  0
  -21.8140  -13.6060   22.1330 H   0  0  0  0  0  0  0  0  0  0  0  0
  -26.1880  -15.3260   20.0880 N   0  0  0  0  0  0  0  0  0  0  0  0
  -25.4790  -16.0350   20.2340 H   0  0  0  0  0  0  0  0  0  0  0  0
  -27.0750  -15.7030   19.7800 H   0  0  0  0  0  0  0  0  0  0  0  0
  1  2  1  0
  3  1  2  0
  4  6  2  0
  4  3  1  0
  5 53  1  0
  5  2  2  0
  6  5  1  0
  7  4  1  0
  9  6  1  0
  9  8  1  0
 10  3  1  0
 10 11  2  0
 12 14  1  0
 12 11  1  0
 13 24  2  0
 14 19  1  0
 15 23  1  0
 15 25  1  0
 16 22  1  0
 16 18  1  0
 17 23  1  0
 18 17  1  0
 19 18  2  0
 20 21  1  0
 20 14  2  0
 21 16  2  0
 22 15  1  0
 23 13  1  0
 25 27  2  0
 26 25  1  0
 28 26  1  0
 29 38  2  0
 29 34  1  0
 30 26  1  0
 30 34  1  0
 31 30  1  0
 32 33  1  0
 32 31  1  0
 33 29  1  0
 34 35  2  0
 35 36  1  0
 37 36  2  0
 38 37  1  0
 39 13  1  0
 39 40  1  0
 39 49  1  0
 40 43  1  0
 41 45  1  0
 41 40  1  0
 42 41  2  0
 45 44  1  0
 47 45  1  0
 47 48  1  0
 47 46  1  0
 49 52  1  1
 49 50  1  0
 51 49  1  0
 54 53  1  0
 54 55  1  0
 56 62  1  0
 57 62  1  0
 58 59  1  0
 58 57  1  0
 60 59  1  0
 60 69  1  0
 60 61  1  0
 62 61  1  0
 63 56  2  0
 64 56  1  0
 64 55  1  0
 65 64  1  0
 66 67  2  0
 67 86  1  0
 68 67  1  0
 68 71  1  0
 69 66  1  0
 69 70  1  0
 70 68  2  0
 71 72  1  0
 72 73  2  0
 74 77  1  0
 74 73  1  0
 75 74  2  0
 76 75  1  0
 76 71  2  0
 77 78  1  0
 78 79  1  0
 79 80  2  0
 81 80  1  0
 81 85  1  0
 82 81  2  0
 83 78  2  0
 83 82  1  0
 84 83  1  0
 86 87  1  0
 87 90  1  0
 87 89  1  0
 88 86  2  0
 91 92  1  0
 91 66  1  0
 93 91  1  0
M  ISO  4  11 101  12 101  56 100  64 100
M  END
>  <TORSDO>  (69) 
F 22

>  <SCORE>  (69) 
-12.132

>  <name>  (69) 
69

>  <ligand_id>  (69) 
69

>  <original_smiles>  (69) 
[H]c1c([H])c([H])c2c(c1[H])C([H])([H])C([H])([H])C([H])([H])C2([H])N([H])C(=O)C1([H])N(C(=O)C([H])(N([H])C(=O)C([H])(N([H])C([H])([H])[H])C([H])([H])[H])C(C([H])([H])[H])(C([H])([H])[H])C([H])([H])[H])C([H])([H])c2c([H])c(OC([H])([H])C([H])([H])c3c([H])c([H])c(OC([H])([H])C([H])([H])N([H])C(=O)N4C([H])([H])C([H])([H])C([H])([H])C([H])(n5nc(-c6c([H])c([H])c(Oc7c([H])c([H])c(F)c([H])c7F)c([H])c6[H])c(C(=O)N([H])[H])c5N([H])[H])C4([H])[H])c(OC([H])([H])[H])c3C([H])([H])[H])c([H])c([H])c2C1([H])[H]

>  <smiles>  (69) 
[H]c1c([H])c([H])c2c(c1[H])C([H])([H])C([H])([H])C([H])([H])C2([H])N([H])C(=O)C1([H])N(C(=O)C([H])(N([H])C(=O)C([H])(N([H])C([H])([H])[H])C([H])([H])[H])C(C([H])([H])[H])(C([H])([H])[H])C([H])([H])[H])C([H])([H])c2c([H])c(OC([H])([H])C([H])([H])c3c([H])c([H])c(OC([H])([H])C([H])([H])N([H])C(=O)N4C([H])([H])C([H])([H])C([H])([H])C([H])(n5nc(-c6c([H])c([H])c(Oc7c([H])c([H])c(F)c([H])c7F)c([H])c6[H])c(C(=O)N([H])[H])c5N([H])[H])C4([H])[H])c(OC([H])([H])[H])c3C([H])([H])[H])c([H])c([H])c2C1([H])[H]

$$$$
70:0:0
     RDKit          3D

 97106  0  0  1  0  0  0  0  0999 V2000
  -27.8870  -18.4230   19.3480 C   0  0  0  0  0  3  0  0  0  0  0  0
  -29.5580  -19.9290   18.3570 C   0  0  0  0  0  0  0  0  0  0  0  0
  -28.5990  -17.3040   18.8780 C   0  0  0  0  0  0  0  0  0  0  0  0
  -30.3290  -18.7940   17.9770 C   0  0  0  0  0  0  0  0  0  0  0  0
  -29.8970  -17.4880   18.3430 C   0  0  0  0  0  0  0  0  0  0  0  0
  -28.3700  -19.7260   19.1100 C   0  0  0  0  0  0  0  0  0  0  0  0
  -27.9080  -15.9410   18.8320 C   0  0  0  0  0  1  0  0  0  0  0  0
  -31.5830  -18.9640   17.1300 C   0  0  0  0  0  1  0  0  0  0  0  0
  -30.2390  -22.4870   18.9250 C   0  0  0  0  0  2  0  0  0  0  0  0
  -29.0630  -23.2920   18.3550 C   0  0  0  0  0  2  0  0  0  0  0  0
  -29.9580  -21.3570   17.9260 C   0  0  0  0  0  3  0  0  0  0  0  0
  -28.8580  -22.2270   17.2750 C   0  0  0  0  0  3  0  0  0  0  0  0
  -29.1750  -22.6710   15.9540 O   0  0  0  0  0  0  0  0  0  0  0  0
  -28.3330  -23.7270   15.4870 C   0  0  0  0  0  2  0  0  0  0  0  0
  -28.5170  -25.0490   16.2480 C   0  0  0  0  0  2  0  0  0  0  0  0
  -27.7730  -26.0510   15.5570 O   0  0  0  0  0  0  0  0  0  0  0  0
  -24.9750  -28.1620   21.7230 C   0  0  0  0  0  0  0  0  0  0  0  0
  -26.6710  -26.5030   16.2260 C   0  0  0  0  0  0  0  0  0  0  0  0
  -23.3650  -27.7900   19.8830 C   0  0  0  0  0  3  0  0  0  0  0  0
  -24.3880  -27.4610   17.5700 C   0  0  0  0  0  0  0  0  0  0  0  0
  -25.7750  -28.4790   19.3890 C   0  0  0  0  0  2  0  0  0  0  0  0
  -25.6640  -27.7030   18.0950 C   0  0  0  0  0  0  0  0  0  0  0  0
  -26.8100  -27.2290   17.4270 C   0  0  0  0  0  3  0  0  0  0  0  0
  -25.3860  -26.2750   15.6930 C   0  0  0  0  0  3  0  0  0  0  0  0
  -24.2410  -26.7460   16.3670 C   0  0  0  0  0  3  0  0  0  0  0  0
  -23.2180  -28.0120   18.3540 C   0  0  0  0  0  2  0  0  0  0  0  0
  -24.7380  -28.1240   20.3830 N   0  0  0  0  0  0  0  0  0  0  0  0
  -24.0640  -27.9710   22.5390 O   0  0  0  0  0  0  0  0  0  0  0  0
  -22.9240  -26.3470   20.2120 C   0  0  0  0  0  0  0  0  0  0  0  0
  -21.6050  -26.1000   20.1600 N   0  0  0  0  0  0  0  0  0  0  0  0
  -23.7560  -25.4760   20.4800 O   0  0  0  0  0  0  0  0  0  0  0  0
  -20.9910  -26.8700   19.9430 H   0  0  0  0  0  0  0  0  0  0  0  0
  -18.4240  -24.3860   20.1360 C   0  0  0  0  0  0  0  0  0  0  0  0
  -20.9610  -24.8080   20.3940 C   0  0  0  0  0  3  0  0  0  0  0  0
  -21.1410  -23.8710   19.1800 C   0  0  0  0  0  2  0  0  0  0  0  0
  -19.9770  -23.9450   18.1850 C   0  0  0  0  0  2  0  0  0  0  0  0
  -18.6600  -23.5730   18.8730 C   0  0  0  0  0  2  0  0  0  0  0  0
  -19.5060  -24.9780   20.8400 C   0  0  0  0  0  0  0  0  0  0  0  0
  -19.2340  -25.7510   21.9890 C   0  0  0  0  0  3  0  0  0  0  0  0
  -17.9140  -25.9370   22.4370 C   0  0  0  0  0  3  0  0  0  0  0  0
  -16.8470  -25.3350   21.7460 C   0  0  0  0  0  3  0  0  0  0  0  0
  -17.1030  -24.5580   20.6010 C   0  0  0  0  0  3  0  0  0  0  0  0
  -26.3940  -28.4750   22.2940 C   0  0  0  0  0  3  0  0  0  0  0  0
  -26.2210  -29.3010   23.4950 N   0  0  0  0  0  0  0  0  0  0  0  0
  -26.4340  -30.6240   23.5420 C   0  0  0  0  0  0  0  0  0  0  0  0
  -26.8740  -31.2680   22.5850 O   0  0  0  0  0  0  0  0  0  0  0  0
  -25.8140  -28.8530   24.3040 H   0  0  0  0  0  0  0  0  0  0  0  0
  -24.7620  -32.0810   24.7230 C   0  0  0  0  0  1  0  0  0  0  0  0
  -26.1070  -31.3510   24.8610 C   0  0  0  0  0  3  0  0  0  0  0  0
  -28.3940  -31.6530   25.6970 C   0  0  0  0  0  1  0  0  0  0  0  0
  -27.1530  -32.3040   25.2840 N   0  0  0  0  0  0  0  0  0  0  0  0
  -26.8260  -32.8880   26.0520 H   0  0  0  0  0  0  0  0  0  0  0  0
  -27.2300  -27.1770   22.6230 C   0  0  1  0  0  0  0  0  0  0  0  0
  -26.4770  -26.1590   23.5100 C   0  0  0  0  0  1  0  0  0  0  0  0
  -27.6470  -26.4570   21.3190 C   0  0  0  0  0  1  0  0  0  0  0  0
  -28.5410  -27.5670   23.3450 C   0  0  0  0  0  1  0  0  0  0  0  0
  -27.2900  -20.7630   20.9140 C   0  0  0  0  0  1  0  0  0  0  0  0
  -27.6330  -20.8010   19.5350 O   0  0  0  0  0  0  0  0  0  0  0  0
  -30.8140  -16.2780   18.1910 C   0  0  0  0  0  2  0  0  0  0  0  0
  -31.1850  -14.1230   19.2790 C   0  0  0  0  0  0  0  0  0  0  0  0
  -30.8220  -11.7160   19.1210 C   0  0  0  0  0  2  0  0  0  0  0  0
  -29.8160  -11.4870   17.9730 C   0  0  0  0  0  2  0  0  0  0  0  0
  -28.3720  -11.5290   18.5120 C   0  0  0  0  0  2  0  0  0  0  0  0
  -28.0950  -12.7690   19.4070 C   0  0  0  0  0  3  0  0  0  0  0  0
  -29.2290  -13.0110   20.4310 C   0  0  0  0  0  2  0  0  0  0  0  0
  -30.5100  -13.0260   19.7010 N   0  0  0  0  0  0  0  0  0  0  0  0
  -32.3210  -14.0880   18.7990 O   0  0  0  0  0  0  0  0  0  0  0  0
  -30.4490  -15.2180   19.1300 N   0  0  0  0  0  0  0  0  0  0  0  0
  -29.5070  -15.2090   19.4870 H   0  0  0  0  0  0  0  0  0  0  0  0
  -25.9340  -13.7120   20.4320 C   0  0  0  0  0  0  0  0  0  0  0  0
  -24.8000  -13.1010   20.8940 C   0  0  0  0  0  0  0  0  0  0  0  0
  -25.0240  -11.6990   20.7480 C   0  0  0  0  0  0  0  0  0  0  0  0
  -26.7830  -12.6880   20.0390 N   0  0  0  0  0  0  0  0  0  0  0  0
  -26.2440  -11.4670   20.2860 N   0  0  0  0  0  0  0  0  0  0  0  0
  -24.1230  -10.5640   20.9780 C   0  0  0  0  0  0  0  0  0  0  0  0
  -24.4950   -9.4850   21.8090 C   0  0  0  0  0  3  0  0  0  0  0  0
  -23.6060   -8.4110   22.0230 C   0  0  0  0  0  3  0  0  0  0  0  0
  -22.3300   -8.4120   21.4110 C   0  0  0  0  0  0  0  0  0  0  0  0
  -21.9730   -9.4790   20.5700 C   0  0  0  0  0  3  0  0  0  0  0  0
  -22.8570  -10.5480   20.3550 C   0  0  0  0  0  3  0  0  0  0  0  0
  -21.4120   -7.3990   21.5460 O   0  0  0  0  0  0  0  0  0  0  0  0
  -21.4050   -6.5750   22.6430 C   0  0  0  0  0  0  0  0  0  0  0  0
  -21.2180   -7.0750   23.9510 C   0  0  0  0  0  3  0  0  0  0  0  0
  -21.1540   -6.1840   25.0420 C   0  0  0  0  0  3  0  0  0  0  0  0
  -21.2610   -4.7940   24.8270 C   0  0  0  0  0  0  0  0  0  0  0  0
  -21.4390   -4.3000   23.5240 C   0  0  0  0  0  3  0  0  0  0  0  0
  -21.5080   -5.1860   22.4350 C   0  0  0  0  0  0  0  0  0  0  0  0
  -21.6610   -4.6980   21.1780 F   0  0  0  0  0  0  0  0  0  0  0  0
  -21.1880   -3.9380   25.8740 F   0  0  0  0  0  0  0  0  0  0  0  0
  -23.5500  -13.7870   21.3610 C   0  0  0  0  0  0  0  0  0  0  0  0
  -22.8330  -13.1750   22.3000 N   0  0  0  0  0  0  0  0  0  0  0  0
  -23.2280  -14.8920   20.9310 O   0  0  0  0  0  0  0  0  0  0  0  0
  -23.1180  -12.2840   22.6760 H   0  0  0  0  0  0  0  0  0  0  0  0
  -22.0000  -13.6160   22.6630 H   0  0  0  0  0  0  0  0  0  0  0  0
  -26.3030  -15.0460   20.3160 N   0  0  0  0  0  0  0  0  0  0  0  0
  -25.6720  -15.8080   20.5420 H   0  0  0  0  0  0  0  0  0  0  0  0
  -27.2020  -15.3610   19.9790 H   0  0  0  0  0  0  0  0  0  0  0  0
  2  6  2  0
  3  1  2  0
  4  5  2  0
  4  2  1  0
  5  3  1  0
  6  1  1  0
  6 58  1  0
  7  3  1  0
  8  4  1  0
 10  9  1  0
 11  2  1  0
 11  9  1  0
 12 13  1  0
 12 11  1  0
 12 10  1  0
 14 13  1  0
 14 15  1  0
 16 18  1  0
 16 15  1  0
 17 28  2  0
 18 23  1  0
 19 29  1  0
 19 27  1  0
 20 22  1  0
 20 26  1  0
 21 27  1  0
 22 21  1  0
 23 22  2  0
 24 18  2  0
 24 25  1  0
 25 20  2  0
 26 19  1  0
 27 17  1  0
 29 31  2  0
 30 29  1  0
 32 30  1  0
 33 42  2  0
 33 38  1  0
 34 30  1  0
 34 38  1  0
 35 34  1  0
 36 37  1  0
 36 35  1  0
 37 33  1  0
 38 39  2  0
 39 40  1  0
 41 40  2  0
 42 41  1  0
 43 17  1  0
 43 53  1  0
 43 44  1  0
 44 45  1  0
 44 47  1  0
 45 49  1  0
 46 45  2  0
 49 48  1  0
 49 51  1  0
 51 50  1  0
 51 52  1  0
 53 56  1  1
 53 54  1  0
 55 53  1  0
 58 57  1  0
 59  5  1  0
 59 68  1  0
 60 66  1  0
 61 66  1  0
 62 63  1  0
 62 61  1  0
 64 63  1  0
 64 73  1  0
 64 65  1  0
 66 65  1  0
 67 60  2  0
 68 60  1  0
 68 69  1  0
 70 71  2  0
 71 90  1  0
 72 71  1  0
 72 75  1  0
 73 74  1  0
 73 70  1  0
 74 72  2  0
 75 76  1  0
 76 77  2  0
 78 81  1  0
 78 77  1  0
 79 78  2  0
 80 79  1  0
 80 75  2  0
 81 82  1  0
 82 83  1  0
 83 84  2  0
 85 84  1  0
 85 89  1  0
 86 85  2  0
 87 82  2  0
 87 86  1  0
 88 87  1  0
 90 91  1  0
 91 94  1  0
 91 93  1  0
 92 90  2  0
 95 70  1  0
 95 96  1  0
 97 95  1  0
M  ISO  4  15 101  16 101  60 100  68 100
M  END
>  <TORSDO>  (70) 
F 22

>  <SCORE>  (70) 
-7.848

>  <name>  (70) 
70

>  <ligand_id>  (70) 
70

>  <original_smiles>  (70) 
[H]c1c([H])c([H])c2c(c1[H])C([H])([H])C([H])([H])C([H])([H])C2([H])N([H])C(=O)C1([H])N(C(=O)C([H])(N([H])C(=O)C([H])(N([H])C([H])([H])[H])C([H])([H])[H])C(C([H])([H])[H])(C([H])([H])[H])C([H])([H])[H])C([H])([H])c2c([H])c(OC([H])([H])C([H])([H])OC3([H])C([H])([H])C([H])([H])C3([H])c3c(OC([H])([H])[H])c([H])c(C([H])([H])[H])c(C([H])([H])N([H])C(=O)N4C([H])([H])C([H])([H])C([H])([H])C([H])(n5nc(-c6c([H])c([H])c(Oc7c([H])c([H])c(F)c([H])c7F)c([H])c6[H])c(C(=O)N([H])[H])c5N([H])[H])C4([H])[H])c3C([H])([H])[H])c([H])c([H])c2C1([H])[H]

>  <smiles>  (70) 
[H]c1c([H])c([H])c2c(c1[H])C([H])([H])C([H])([H])C([H])([H])C2([H])N([H])C(=O)C1([H])N(C(=O)C([H])(N([H])C(=O)C([H])(N([H])C([H])([H])[H])C([H])([H])[H])C(C([H])([H])[H])(C([H])([H])[H])C([H])([H])[H])C([H])([H])c2c([H])c(OC([H])([H])C([H])([H])OC3([H])C([H])([H])C([H])([H])C3([H])c3c(OC([H])([H])[H])c([H])c(C([H])([H])[H])c(C([H])([H])N([H])C(=O)N4C([H])([H])C([H])([H])C([H])([H])C([H])(n5nc(-c6c([H])c([H])c(Oc7c([H])c([H])c(F)c([H])c7F)c([H])c6[H])c(C(=O)N([H])[H])c5N([H])[H])C4([H])[H])c3C([H])([H])[H])c([H])c([H])c2C1([H])[H]

$$$$
71:0:0
     RDKit          3D

 94103  0  0  1  0  0  0  0  0999 V2000
  -29.1320  -19.8030   21.0200 C   0  0  0  0  0  3  0  0  0  0  0  0
  -30.7980  -18.6990   19.0900 C   0  0  0  0  0  0  0  0  0  0  0  0
  -29.4170  -18.3900   21.0090 C   0  0  0  0  0  0  0  0  0  0  0  0
  -30.5400  -20.1600   19.1560 C   0  0  0  0  0  0  0  0  0  0  0  0
  -30.2660  -17.7470   20.0520 C   0  0  0  0  0  0  0  0  0  0  0  0
  -29.6490  -20.7800   20.1210 C   0  0  0  0  0  0  0  0  0  0  0  0
  -28.7560  -17.5390   22.0820 C   0  0  0  0  0  1  0  0  0  0  0  0
  -31.1770  -15.1420   19.6760 C   0  0  0  0  0  0  0  0  0  0  0  0
  -31.0130  -12.8330   18.6560 C   0  0  0  0  0  2  0  0  0  0  0  0
  -29.9390  -12.8440   17.5410 C   0  0  0  0  0  2  0  0  0  0  0  0
  -28.5340  -12.6000   18.1260 C   0  0  0  0  0  2  0  0  0  0  0  0
  -28.2620  -13.4650   19.3840 C   0  0  0  0  0  3  0  0  0  0  0  0
  -29.4370  -13.4100   20.3830 C   0  0  0  0  0  2  0  0  0  0  0  0
  -30.6380  -13.8610   19.6640 N   0  0  0  0  0  0  0  0  0  0  0  0
  -32.3170  -15.2980   19.2220 O   0  0  0  0  0  0  0  0  0  0  0  0
  -30.3370  -16.2120   20.0680 N   0  0  0  0  0  0  0  0  0  0  0  0
  -29.5270  -15.8200   20.5210 H   0  0  0  0  0  0  0  0  0  0  0  0
  -25.9890  -13.9920   20.4440 C   0  0  0  0  0  0  0  0  0  0  0  0
  -24.9710  -13.1920   20.8810 C   0  0  0  0  0  0  0  0  0  0  0  0
  -25.4140  -11.8460   20.6900 C   0  0  0  0  0  0  0  0  0  0  0  0
  -26.9870  -13.1340   20.0120 N   0  0  0  0  0  0  0  0  0  0  0  0
  -26.6570  -11.8330   20.2230 N   0  0  0  0  0  0  0  0  0  0  0  0
  -24.7020  -10.5740   20.8680 C   0  0  0  0  0  0  0  0  0  0  0  0
  -25.1120   -9.6250   21.8300 C   0  0  0  0  0  3  0  0  0  0  0  0
  -24.3990   -8.4180   21.9950 C   0  0  0  0  0  3  0  0  0  0  0  0
  -23.2610   -8.1510   21.1960 C   0  0  0  0  0  0  0  0  0  0  0  0
  -22.8710   -9.0880   20.2240 C   0  0  0  0  0  3  0  0  0  0  0  0
  -23.5850  -10.2860   20.0570 C   0  0  0  0  0  3  0  0  0  0  0  0
  -22.5230   -6.9950   21.2690 O   0  0  0  0  0  0  0  0  0  0  0  0
  -22.2350   -6.3990   22.4710 C   0  0  0  0  0  0  0  0  0  0  0  0
  -21.5170   -7.0720   23.4850 C   0  0  0  0  0  3  0  0  0  0  0  0
  -21.1840   -6.3970   24.6770 C   0  0  0  0  0  3  0  0  0  0  0  0
  -21.5580   -5.0520   24.8540 C   0  0  0  0  0  0  0  0  0  0  0  0
  -22.2690   -4.3800   23.8450 C   0  0  0  0  0  3  0  0  0  0  0  0
  -22.6040   -5.0500   22.6560 C   0  0  0  0  0  0  0  0  0  0  0  0
  -23.2700   -4.3920   21.6770 F   0  0  0  0  0  0  0  0  0  0  0  0
  -21.2320   -4.4020   25.9960 F   0  0  0  0  0  0  0  0  0  0  0  0
  -23.6210  -13.6480   21.3550 C   0  0  0  0  0  0  0  0  0  0  0  0
  -23.0090  -12.9050   22.2720 N   0  0  0  0  0  0  0  0  0  0  0  0
  -23.1210  -14.6950   20.9470 O   0  0  0  0  0  0  0  0  0  0  0  0
  -23.4280  -12.0560   22.6220 H   0  0  0  0  0  0  0  0  0  0  0  0
  -22.1100  -13.1930   22.6320 H   0  0  0  0  0  0  0  0  0  0  0  0
  -26.1440  -15.3720   20.3520 N   0  0  0  0  0  0  0  0  0  0  0  0
  -25.3890  -16.0080   20.5850 H   0  0  0  0  0  0  0  0  0  0  0  0
  -26.9230  -15.8350   19.9010 H   0  0  0  0  0  0  0  0  0  0  0  0
  -31.3500  -18.4530   16.5020 C   0  0  0  0  0  2  0  0  0  0  0  0
  -31.0950  -17.0700   17.0140 C   0  0  0  0  0  2  0  0  0  0  0  0
  -31.6320  -18.1330   17.9600 C   0  0  0  0  0  3  0  0  0  0  0  0
  -32.6520  -21.5020   18.7130 C   0  0  0  0  0  1  0  0  0  0  0  0
  -31.2700  -21.0920   18.1900 C   0  0  0  0  0  2  0  0  0  0  0  0
  -29.1890  -22.1590   20.3490 O   0  0  0  0  0  0  0  0  0  0  0  0
  -29.3820  -23.5220   19.6640 C   0  0  0  0  0  3  0  0  0  0  0  0
  -28.5260  -24.8760   20.1770 C   0  0  0  0  0  3  0  0  0  0  0  0
  -28.7020  -26.3730   19.8040 O   0  0  0  0  0  0  0  0  0  0  0  0
  -24.8190  -31.7880   22.9560 C   0  0  0  0  0  0  0  0  0  0  0  0
  -27.5920  -27.2850   19.8130 C   0  0  0  0  0  0  0  0  0  0  0  0
  -23.6750  -30.3830   21.2830 C   0  0  0  0  0  3  0  0  0  0  0  0
  -25.1850  -28.9080   19.8220 C   0  0  0  0  0  0  0  0  0  0  0  0
  -26.2130  -30.7690   21.1190 C   0  0  0  0  0  2  0  0  0  0  0  0
  -26.3450  -29.3970   20.4370 C   0  0  0  0  0  0  0  0  0  0  0  0
  -27.5490  -28.6030   20.4130 C   0  0  0  0  0  3  0  0  0  0  0  0
  -26.4040  -26.8890   19.1610 C   0  0  0  0  0  3  0  0  0  0  0  0
  -25.2260  -27.6670   19.1690 C   0  0  0  0  0  3  0  0  0  0  0  0
  -23.9190  -29.7470   19.8890 C   0  0  0  0  0  2  0  0  0  0  0  0
  -24.9220  -31.0010   21.8410 N   0  0  0  0  0  0  0  0  0  0  0  0
  -23.7230  -32.0120   23.4920 O   0  0  0  0  0  0  0  0  0  0  0  0
  -23.0440  -29.3240   22.2210 C   0  0  0  0  0  0  0  0  0  0  0  0
  -21.7180  -29.1230   22.1130 N   0  0  0  0  0  0  0  0  0  0  0  0
  -23.7470  -28.6870   23.0100 O   0  0  0  0  0  0  0  0  0  0  0  0
  -21.2050  -29.6920   21.4540 H   0  0  0  0  0  0  0  0  0  0  0  0
  -18.3680  -27.8680   22.6820 C   0  0  0  0  0  0  0  0  0  0  0  0
  -20.9340  -28.1390   22.8640 C   0  0  0  0  0  3  0  0  0  0  0  0
  -21.0230  -26.7400   22.2120 C   0  0  0  0  0  2  0  0  0  0  0  0
  -19.8840  -26.4610   21.2250 C   0  0  0  0  0  2  0  0  0  0  0  0
  -18.5280  -26.5590   21.9280 C   0  0  0  0  0  2  0  0  0  0  0  0
  -19.4980  -28.6180   23.1080 C   0  0  0  0  0  0  0  0  0  0  0  0
  -19.2910  -29.8440   23.7750 C   0  0  0  0  0  3  0  0  0  0  0  0
  -17.9910  -30.3220   24.0210 C   0  0  0  0  0  3  0  0  0  0  0  0
  -16.8770  -29.5680   23.6110 C   0  0  0  0  0  3  0  0  0  0  0  0
  -17.0660  -28.3430   22.9470 C   0  0  0  0  0  3  0  0  0  0  0  0
  -26.0710  -32.4600   23.5980 C   0  0  0  0  0  3  0  0  0  0  0  0
  -25.6790  -33.8060   24.0420 N   0  0  0  0  0  0  0  0  0  0  0  0
  -25.9070  -34.9350   23.3570 C   0  0  0  0  0  0  0  0  0  0  0  0
  -26.5390  -34.9560   22.2980 O   0  0  0  0  0  0  0  0  0  0  0  0
  -25.1120  -33.8590   24.8760 H   0  0  0  0  0  0  0  0  0  0  0  0
  -24.0460  -36.6200   23.2160 C   0  0  0  0  0  1  0  0  0  0  0  0
  -25.3500  -36.2490   23.9390 C   0  0  0  0  0  3  0  0  0  0  0  0
  -27.4520  -37.2330   24.7430 C   0  0  0  0  0  1  0  0  0  0  0  0
  -26.3010  -37.3800   23.8570 N   0  0  0  0  0  0  0  0  0  0  0  0
  -25.8370  -38.2570   24.0800 H   0  0  0  0  0  0  0  0  0  0  0  0
  -26.6680  -31.6350   24.8040 C   0  0  1  0  0  0  0  0  0  0  0  0
  -25.6130  -31.2190   25.8560 C   0  0  0  0  0  1  0  0  0  0  0  0
  -27.3620  -30.3500   24.2980 C   0  0  0  0  0  1  0  0  0  0  0  0
  -27.7560  -32.4680   25.5200 C   0  0  0  0  0  1  0  0  0  0  0  0
  2  4  2  0
  2  5  1  0
  3  1  1  0
  3  7  1  0
  4  6  1  0
  5 16  1  0
  5  3  2  0
  6 51  1  0
  6  1  2  0
  8 16  1  0
  9 14  1  0
 10 11  1  0
 10  9  1  0
 12 11  1  0
 12 21  1  0
 12 13  1  0
 14  8  1  0
 14 13  1  0
 15  8  2  0
 16 17  1  0
 18 19  2  0
 19 38  1  0
 20 23  1  0
 20 19  1  0
 21 22  1  0
 21 18  1  0
 22 20  2  0
 23 24  1  0
 24 25  2  0
 26 29  1  0
 26 25  1  0
 27 26  2  0
 28 27  1  0
 28 23  2  0
 29 30  1  0
 30 35  2  0
 30 31  1  0
 31 32  2  0
 32 33  1  0
 33 37  1  0
 34 33  2  0
 35 34  1  0
 36 35  1  0
 38 39  1  0
 39 41  1  0
 39 42  1  0
 40 38  2  0
 43 18  1  0
 43 44  1  0
 45 43  1  0
 46 47  1  0
 46 48  1  0
 47 48  1  0
 48  2  1  0
 50 49  1  0
 50  4  1  0
 52 53  2  0
 52 51  1  0
 54 56  1  0
 54 53  1  0
 55 66  2  0
 56 61  1  0
 57 65  1  0
 57 67  1  0
 58 64  1  0
 58 60  1  0
 59 65  1  0
 60 59  1  0
 61 60  2  0
 62 63  1  0
 62 56  2  0
 63 58  2  0
 64 57  1  0
 65 55  1  0
 67 69  2  0
 68 67  1  0
 70 68  1  0
 71 80  2  0
 71 76  1  0
 72 68  1  0
 72 76  1  0
 73 72  1  0
 74 75  1  0
 74 73  1  0
 75 71  1  0
 76 77  2  0
 77 78  1  0
 79 78  2  0
 80 79  1  0
 81 55  1  0
 81 82  1  0
 81 91  1  0
 82 85  1  0
 83 87  1  0
 83 82  1  0
 84 83  2  0
 87 86  1  0
 89 87  1  0
 89 90  1  0
 89 88  1  0
 91 94  1  1
 91 92  1  0
 93 91  1  0
M  ISO  4   8 100  16 100  53 101  54 101
M  END
>  <TORSDO>  (71) 
F 21

>  <SCORE>  (71) 
-8.971

>  <name>  (71) 
71

>  <ligand_id>  (71) 
71

>  <original_smiles>  (71) 
[H]c1c([H])c([H])c2c(c1[H])C([H])([H])C([H])([H])C([H])([H])C2([H])N([H])C(=O)C1([H])N(C(=O)C([H])(N([H])C(=O)C([H])(N([H])C([H])([H])[H])C([H])([H])[H])C(C([H])([H])[H])(C([H])([H])[H])C([H])([H])[H])C([H])([H])c2c([H])c(OC([H])([H])C([H])([H])Oc3c([H])c(C([H])([H])[H])c(N([H])C(=O)N4C([H])([H])C([H])([H])C([H])([H])C([H])(n5nc(-c6c([H])c([H])c(Oc7c([H])c([H])c(F)c([H])c7F)c([H])c6[H])c(C(=O)N([H])[H])c5N([H])[H])C4([H])[H])c(C4([H])C([H])([H])C4([H])[H])c3C([H])([H])C([H])([H])[H])c([H])c([H])c2C1([H])[H]

>  <smiles>  (71) 
[H]c1c([H])c([H])c2c(c1[H])C([H])([H])C([H])([H])C([H])([H])C2([H])N([H])C(=O)C1([H])N(C(=O)C([H])(N([H])C(=O)C([H])(N([H])C([H])([H])[H])C([H])([H])[H])C(C([H])([H])[H])(C([H])([H])[H])C([H])([H])[H])C([H])([H])c2c([H])c(OC([H])([H])C([H])([H])Oc3c([H])c(C([H])([H])[H])c(N([H])C(=O)N4C([H])([H])C([H])([H])C([H])([H])C([H])(n5nc(-c6c([H])c([H])c(Oc7c([H])c([H])c(F)c([H])c7F)c([H])c6[H])c(C(=O)N([H])[H])c5N([H])[H])C4([H])[H])c(C4([H])C([H])([H])C4([H])[H])c3C([H])([H])C([H])([H])[H])c([H])c([H])c2C1([H])[H]

$$$$
72:0:0
     RDKit          3D

 95103  0  0  1  0  0  0  0  0999 V2000
  -28.7870  -22.9380   20.6870 C   0  0  0  0  0  0  0  0  0  0  0  0
  -28.8910  -21.5050   20.7660 C   0  0  0  0  0  0  0  0  0  0  0  0
  -29.6640  -23.4150   19.7270 C   0  0  0  0  0  0  0  0  0  0  0  0
  -29.9120  -21.1330   19.9350 C   0  0  0  0  0  0  0  0  0  0  0  0
  -27.8830  -23.7440   21.6040 C   0  0  0  0  0  1  0  0  0  0  0  0
  -28.0770  -20.6270   21.6850 C   0  0  0  0  0  1  0  0  0  0  0  0
  -31.6640  -22.2950   18.5490 C   0  0  0  0  0  1  0  0  0  0  0  0
  -30.4490  -22.2930   19.3590 N   0  0  0  0  0  0  0  0  0  0  0  0
  -30.6980  -25.0450   17.9260 C   0  0  0  0  0  1  0  0  0  0  0  0
  -29.8910  -24.8880   19.2390 C   0  0  0  0  0  3  0  0  0  0  0  0
  -28.6130  -25.8110   19.1130 C   0  0  0  0  0  2  0  0  0  0  0  0
  -28.6050  -27.0300   19.9240 O   0  0  0  0  0  0  0  0  0  0  0  0
  -24.7000  -31.9870   23.3940 C   0  0  0  0  0  0  0  0  0  0  0  0
  -27.4260  -27.7740   19.9970 C   0  0  0  0  0  0  0  0  0  0  0  0
  -23.5280  -30.6770   21.6690 C   0  0  0  0  0  3  0  0  0  0  0  0
  -25.0040  -29.2730   20.1440 C   0  0  0  0  0  0  0  0  0  0  0  0
  -26.0540  -31.0830   21.5000 C   0  0  0  0  0  2  0  0  0  0  0  0
  -26.1640  -29.7590   20.7610 C   0  0  0  0  0  0  0  0  0  0  0  0
  -27.3700  -29.0130   20.6970 C   0  0  0  0  0  3  0  0  0  0  0  0
  -26.2310  -27.3210   19.3850 C   0  0  0  0  0  3  0  0  0  0  0  0
  -25.0310  -28.0470   19.4680 C   0  0  0  0  0  3  0  0  0  0  0  0
  -23.7460  -30.1040   20.2490 C   0  0  0  0  0  2  0  0  0  0  0  0
  -24.7810  -31.2620   22.2450 N   0  0  0  0  0  0  0  0  0  0  0  0
  -23.6090  -32.2030   23.9440 O   0  0  0  0  0  0  0  0  0  0  0  0
  -22.8990  -29.5750   22.5560 C   0  0  0  0  0  0  0  0  0  0  0  0
  -21.5830  -29.3550   22.3970 N   0  0  0  0  0  0  0  0  0  0  0  0
  -23.5950  -28.9180   23.3350 O   0  0  0  0  0  0  0  0  0  0  0  0
  -21.0830  -29.9430   21.7430 H   0  0  0  0  0  0  0  0  0  0  0  0
  -18.2380  -28.0430   22.8020 C   0  0  0  0  0  0  0  0  0  0  0  0
  -20.7870  -28.3480   23.0990 C   0  0  0  0  0  3  0  0  0  0  0  0
  -20.9300  -26.9630   22.4290 C   0  0  0  0  0  2  0  0  0  0  0  0
  -19.8340  -26.6810   21.3960 C   0  0  0  0  0  2  0  0  0  0  0  0
  -18.4490  -26.7450   22.0430 C   0  0  0  0  0  2  0  0  0  0  0  0
  -19.3370  -28.8030   23.2820 C   0  0  0  0  0  0  0  0  0  0  0  0
  -19.0860  -30.0190   23.9500 C   0  0  0  0  0  3  0  0  0  0  0  0
  -17.7680  -30.4690   24.1610 C   0  0  0  0  0  3  0  0  0  0  0  0
  -16.6830  -29.7070   23.6920 C   0  0  0  0  0  3  0  0  0  0  0  0
  -16.9210  -28.4990   23.0120 C   0  0  0  0  0  3  0  0  0  0  0  0
  -25.9690  -32.6060   24.0570 C   0  0  0  0  0  3  0  0  0  0  0  0
  -25.6540  -33.9990   24.3960 N   0  0  0  0  0  0  0  0  0  0  0  0
  -26.0080  -35.0610   23.6630 C   0  0  0  0  0  0  0  0  0  0  0  0
  -26.7050  -34.9690   22.6490 O   0  0  0  0  0  0  0  0  0  0  0  0
  -25.0560  -34.1460   25.1950 H   0  0  0  0  0  0  0  0  0  0  0  0
  -24.2960  -36.8610   23.2710 C   0  0  0  0  0  1  0  0  0  0  0  0
  -25.5050  -36.4430   24.1210 C   0  0  0  0  0  3  0  0  0  0  0  0
  -27.5970  -37.3050   25.0700 C   0  0  0  0  0  1  0  0  0  0  0  0
  -26.5440  -37.4930   24.0750 N   0  0  0  0  0  0  0  0  0  0  0  0
  -26.1350  -38.4110   24.2230 H   0  0  0  0  0  0  0  0  0  0  0  0
  -26.4460  -31.8150   25.3350 C   0  0  1  0  0  0  0  0  0  0  0  0
  -25.3210  -31.5490   26.3660 C   0  0  0  0  0  1  0  0  0  0  0  0
  -27.0600  -30.4480   24.9430 C   0  0  0  0  0  1  0  0  0  0  0  0
  -27.5690  -32.6080   26.0460 C   0  0  0  0  0  1  0  0  0  0  0  0
  -30.4750  -19.8320   19.7630 N   0  0  0  0  0  0  0  0  0  0  0  0
  -31.3420  -19.7660   19.2420 H   0  0  0  0  0  0  0  0  0  0  0  0
  -29.8250  -18.5080   19.9450 C   0  0  0  0  0  2  0  0  0  0  0  0
  -31.5890  -17.5900   21.6040 C   0  0  0  0  0  1  0  0  0  0  0  0
  -30.8780  -17.3770   20.2530 C   0  0  0  0  0  3  0  0  0  0  0  0
  -31.0830  -14.8940   19.8710 C   0  0  0  0  0  0  0  0  0  0  0  0
  -30.7990  -12.6070   18.9790 C   0  0  0  0  0  2  0  0  0  0  0  0
  -29.8260  -12.6760   17.7850 C   0  0  0  0  0  2  0  0  0  0  0  0
  -28.3590  -12.5960   18.2530 C   0  0  0  0  0  2  0  0  0  0  0  0
  -28.0510  -13.5350   19.4510 C   0  0  0  0  0  3  0  0  0  0  0  0
  -29.1370  -13.4360   20.5420 C   0  0  0  0  0  2  0  0  0  0  0  0
  -30.4300  -13.6970   19.8970 N   0  0  0  0  0  0  0  0  0  0  0  0
  -32.2280  -15.0050   19.4210 O   0  0  0  0  0  0  0  0  0  0  0  0
  -30.3600  -15.9890   20.2140 N   0  0  0  0  0  0  0  0  0  0  0  0
  -29.3970  -15.8350   20.4770 H   0  0  0  0  0  0  0  0  0  0  0  0
  -25.7200  -14.2060   20.2990 C   0  0  0  0  0  0  0  0  0  0  0  0
  -24.6440  -13.4650   20.7020 C   0  0  0  0  0  0  0  0  0  0  0  0
  -25.0500  -12.0970   20.6110 C   0  0  0  0  0  0  0  0  0  0  0  0
  -26.7180  -13.2940   19.9900 N   0  0  0  0  0  0  0  0  0  0  0  0
  -26.3200  -12.0180   20.2340 N   0  0  0  0  0  0  0  0  0  0  0  0
  -24.2850  -10.8590   20.8040 C   0  0  0  0  0  0  0  0  0  0  0  0
  -24.6660   -9.8960   21.7640 C   0  0  0  0  0  3  0  0  0  0  0  0
  -23.9040   -8.7220   21.9420 C   0  0  0  0  0  3  0  0  0  0  0  0
  -22.7460   -8.5020   21.1590 C   0  0  0  0  0  0  0  0  0  0  0  0
  -22.3840   -9.4520   20.1880 C   0  0  0  0  0  3  0  0  0  0  0  0
  -23.1460  -10.6180   20.0090 C   0  0  0  0  0  3  0  0  0  0  0  0
  -21.9570   -7.3810   21.2450 O   0  0  0  0  0  0  0  0  0  0  0  0
  -21.7950   -6.7040   22.4280 C   0  0  0  0  0  0  0  0  0  0  0  0
  -21.2130   -7.3130   23.5600 C   0  0  0  0  0  3  0  0  0  0  0  0
  -21.0000   -6.5610   24.7330 C   0  0  0  0  0  3  0  0  0  0  0  0
  -21.3630   -5.2020   24.7750 C   0  0  0  0  0  0  0  0  0  0  0  0
  -21.9380   -4.5920   23.6450 C   0  0  0  0  0  3  0  0  0  0  0  0
  -22.1510   -5.3410   22.4750 C   0  0  0  0  0  0  0  0  0  0  0  0
  -22.6860   -4.7440   21.3830 F   0  0  0  0  0  0  0  0  0  0  0  0
  -21.1530   -4.4760   25.8970 F   0  0  0  0  0  0  0  0  0  0  0  0
  -23.2820  -13.9850   21.0590 C   0  0  0  0  0  0  0  0  0  0  0  0
  -22.5740  -13.2970   21.9450 N   0  0  0  0  0  0  0  0  0  0  0  0
  -22.8560  -15.0400   20.5850 O   0  0  0  0  0  0  0  0  0  0  0  0
  -22.9310  -12.4420   22.3480 H   0  0  0  0  0  0  0  0  0  0  0  0
  -21.6610  -13.6260   22.2270 H   0  0  0  0  0  0  0  0  0  0  0  0
  -25.9340  -15.5750   20.1500 N   0  0  0  0  0  0  0  0  0  0  0  0
  -25.2040  -16.2600   20.3170 H   0  0  0  0  0  0  0  0  0  0  0  0
  -26.7870  -15.9820   19.7900 H   0  0  0  0  0  0  0  0  0  0  0  0
  1  2  1  0
  1  5  1  0
  2  6  1  0
  3  1  2  0
  4  2  2  0
  7  8  1  0
  8  3  1  0
  8  4  1  0
 10  9  1  0
 10  3  1  0
 11 10  1  0
 11 12  1  0
 12 14  1  0
 13 24  2  0
 14 19  1  0
 15 23  1  0
 15 25  1  0
 16 22  1  0
 16 18  1  0
 17 23  1  0
 18 17  1  0
 19 18  2  0
 20 21  1  0
 20 14  2  0
 21 16  2  0
 22 15  1  0
 23 13  1  0
 25 27  2  0
 26 25  1  0
 28 26  1  0
 29 38  2  0
 29 34  1  0
 30 26  1  0
 30 34  1  0
 31 30  1  0
 32 33  1  0
 32 31  1  0
 33 29  1  0
 34 35  2  0
 35 36  1  0
 37 36  2  0
 38 37  1  0
 39 13  1  0
 39 40  1  0
 39 49  1  0
 40 43  1  0
 41 45  1  0
 41 40  1  0
 42 41  2  0
 45 44  1  0
 47 45  1  0
 47 48  1  0
 47 46  1  0
 49 52  1  1
 49 50  1  0
 51 49  1  0
 53  4  1  0
 53 55  1  0
 54 53  1  0
 55 57  1  0
 57 56  1  0
 58 64  1  0
 58 66  1  0
 59 64  1  0
 60 61  1  0
 60 59  1  0
 62 61  1  0
 62 71  1  0
 62 63  1  0
 64 63  1  0
 65 58  2  0
 66 57  1  0
 66 67  1  0
 68 69  2  0
 69 88  1  0
 70 69  1  0
 70 73  1  0
 71 72  1  0
 71 68  1  0
 72 70  2  0
 73 74  1  0
 74 75  2  0
 76 79  1  0
 76 75  1  0
 77 76  2  0
 78 77  1  0
 78 73  2  0
 79 80  1  0
 80 85  2  0
 80 81  1  0
 81 82  2  0
 82 83  1  0
 83 87  1  0
 84 83  2  0
 85 84  1  0
 86 85  1  0
 88 89  1  0
 89 92  1  0
 89 91  1  0
 90 88  2  0
 93 68  1  0
 93 94  1  0
 95 93  1  0
M  ISO  4  11 101  12 101  58 100  66 100
M  END
>  <TORSDO>  (72) 
F 21

>  <SCORE>  (72) 
-11.799

>  <name>  (72) 
72

>  <ligand_id>  (72) 
72

>  <original_smiles>  (72) 
[H]c1c([H])c([H])c2c(c1[H])C([H])([H])C([H])([H])C([H])([H])C2([H])N([H])C(=O)C1([H])N(C(=O)C([H])(N([H])C(=O)C([H])(N([H])C([H])([H])[H])C([H])([H])[H])C(C([H])([H])[H])(C([H])([H])[H])C([H])([H])[H])C([H])([H])c2c([H])c(OC([H])([H])C([H])(c3c(C([H])([H])[H])c(C([H])([H])[H])c(N([H])C([H])([H])C([H])(N([H])C(=O)N4C([H])([H])C([H])([H])C([H])([H])C([H])(n5nc(-c6c([H])c([H])c(Oc7c([H])c([H])c(F)c([H])c7F)c([H])c6[H])c(C(=O)N([H])[H])c5N([H])[H])C4([H])[H])C([H])([H])[H])n3C([H])([H])[H])C([H])([H])[H])c([H])c([H])c2C1([H])[H]

>  <smiles>  (72) 
[H]c1c([H])c([H])c2c(c1[H])C([H])([H])C([H])([H])C([H])([H])C2([H])N([H])C(=O)C1([H])N(C(=O)C([H])(N([H])C(=O)C([H])(N([H])C([H])([H])[H])C([H])([H])[H])C(C([H])([H])[H])(C([H])([H])[H])C([H])([H])[H])C([H])([H])c2c([H])c(OC([H])([H])C([H])(c3c(C([H])([H])[H])c(C([H])([H])[H])c(N([H])C([H])([H])C([H])(N([H])C(=O)N4C([H])([H])C([H])([H])C([H])([H])C([H])(n5nc(-c6c([H])c([H])c(Oc7c([H])c([H])c(F)c([H])c7F)c([H])c6[H])c(C(=O)N([H])[H])c5N([H])[H])C4([H])[H])C([H])([H])[H])n3C([H])([H])[H])C([H])([H])[H])c([H])c([H])c2C1([H])[H]

$$$$
73:0:0
     RDKit          3D

 99107  0  0  1  0  0  0  0  0999 V2000
  -29.8220  -21.5860   21.1030 C   0  0  0  0  0  3  0  0  0  0  0  0
  -28.9140  -17.8100   20.4740 C   0  0  0  0  0  3  0  0  0  0  0  0
  -31.2810  -17.8940   20.8710 C   0  0  0  0  0  3  0  0  0  0  0  0
  -28.8340  -19.2300   20.5170 C   0  0  0  0  0  0  0  0  0  0  0  0
  -29.9800  -20.0310   20.7980 C   0  0  0  0  0  0  0  0  0  0  0  0
  -30.1220  -17.1040   20.6800 C   0  0  0  0  0  0  0  0  0  0  0  0
  -31.2250  -19.3300   20.9240 C   0  0  0  0  0  0  0  0  0  0  0  0
  -27.4690  -19.8610   20.2810 C   0  0  0  0  0  1  0  0  0  0  0  0
  -30.8660  -14.6480   20.2260 C   0  0  0  0  0  0  0  0  0  0  0  0
  -30.6040  -12.4590   19.0790 C   0  0  0  0  0  2  0  0  0  0  0  0
  -29.6180  -12.6540   17.9040 C   0  0  0  0  0  2  0  0  0  0  0  0
  -28.1550  -12.5100   18.3750 C   0  0  0  0  0  2  0  0  0  0  0  0
  -27.8570  -13.3360   19.6540 C   0  0  0  0  0  3  0  0  0  0  0  0
  -28.9430  -13.0890   20.7250 C   0  0  0  0  0  2  0  0  0  0  0  0
  -30.2450  -13.4320   20.1270 N   0  0  0  0  0  0  0  0  0  0  0  0
  -32.0050  -14.8360   19.7850 O   0  0  0  0  0  0  0  0  0  0  0  0
  -30.0620  -15.6480   20.6980 N   0  0  0  0  0  0  0  0  0  0  0  0
  -29.1820  -15.2810   21.0240 H   0  0  0  0  0  0  0  0  0  0  0  0
  -25.4970  -13.9730   20.4530 C   0  0  0  0  0  0  0  0  0  0  0  0
  -24.4270  -13.2140   20.8450 C   0  0  0  0  0  0  0  0  0  0  0  0
  -24.8610  -11.8550   20.7730 C   0  0  0  0  0  0  0  0  0  0  0  0
  -26.5150  -13.0760   20.1700 N   0  0  0  0  0  0  0  0  0  0  0  0
  -26.1390  -11.7970   20.4190 N   0  0  0  0  0  0  0  0  0  0  0  0
  -24.1160  -10.6030   20.9630 C   0  0  0  0  0  0  0  0  0  0  0  0
  -24.5420   -9.6240   21.8870 C   0  0  0  0  0  3  0  0  0  0  0  0
  -23.8000   -8.4350   22.0630 C   0  0  0  0  0  3  0  0  0  0  0  0
  -22.6190   -8.2190   21.3150 C   0  0  0  0  0  0  0  0  0  0  0  0
  -22.2120   -9.1870   20.3800 C   0  0  0  0  0  3  0  0  0  0  0  0
  -22.9550  -10.3660   20.2020 C   0  0  0  0  0  3  0  0  0  0  0  0
  -21.8480   -7.0850   21.4020 O   0  0  0  0  0  0  0  0  0  0  0  0
  -21.7680   -6.3570   22.5620 C   0  0  0  0  0  0  0  0  0  0  0  0
  -21.3110   -6.9280   23.7710 C   0  0  0  0  0  3  0  0  0  0  0  0
  -21.1780   -6.1260   24.9220 C   0  0  0  0  0  3  0  0  0  0  0  0
  -21.4900   -4.7550   24.8650 C   0  0  0  0  0  0  0  0  0  0  0  0
  -21.9390   -4.1830   23.6620 C   0  0  0  0  0  3  0  0  0  0  0  0
  -22.0740   -4.9820   22.5130 C   0  0  0  0  0  0  0  0  0  0  0  0
  -22.4870   -4.4220   21.3510 F   0  0  0  0  0  0  0  0  0  0  0  0
  -21.3530   -3.9830   25.9680 F   0  0  0  0  0  0  0  0  0  0  0  0
  -23.0480  -13.7120   21.1700 C   0  0  0  0  0  0  0  0  0  0  0  0
  -22.3430  -13.0280   22.0650 N   0  0  0  0  0  0  0  0  0  0  0  0
  -22.6040  -14.7430   20.6640 O   0  0  0  0  0  0  0  0  0  0  0  0
  -22.7140  -12.1950   22.4970 H   0  0  0  0  0  0  0  0  0  0  0  0
  -21.4190  -13.3440   22.3240 H   0  0  0  0  0  0  0  0  0  0  0  0
  -25.6830  -15.3430   20.2950 N   0  0  0  0  0  0  0  0  0  0  0  0
  -24.9220  -16.0010   20.4210 H   0  0  0  0  0  0  0  0  0  0  0  0
  -26.5010  -15.7620   19.8730 H   0  0  0  0  0  0  0  0  0  0  0  0
  -33.6180  -19.4500   21.2280 C   0  0  0  0  0  1  0  0  0  0  0  0
  -32.3540  -20.0930   21.1360 O   0  0  0  0  0  0  0  0  0  0  0  0
  -30.8510  -22.0910   22.1570 C   0  0  0  0  0  2  0  0  0  0  0  0
  -30.8880  -21.2470   23.3650 N   0  0  0  0  0  4  0  0  0  0  0  0
  -30.0040  -21.2570   23.8430 H   0  0  0  0  0  0  0  0  0  0  0  0
  -31.5910  -21.5840   23.9980 H   0  0  0  0  0  0  0  0  0  0  0  0
  -31.1130  -20.3000   23.1140 H   0  0  0  0  0  0  0  0  0  0  0  0
  -29.6520  -22.6080   19.8890 C   0  0  0  0  0  3  0  0  0  0  0  0
  -30.6090  -23.1500   17.5200 C   0  0  0  0  0  1  0  0  0  0  0  0
  -30.7540  -22.3610   18.8260 C   0  0  0  0  0  2  0  0  0  0  0  0
  -29.5420  -24.1520   20.3060 C   0  0  0  0  0  3  0  0  0  0  0  0
  -28.5270  -25.0970   19.5530 C   0  0  0  0  0  3  0  0  0  0  0  0
  -28.6180  -26.5350   19.8510 O   0  0  0  0  0  0  0  0  0  0  0  0
  -24.6750  -31.6470   22.9980 C   0  0  0  0  0  0  0  0  0  0  0  0
  -27.4550  -27.3110   19.8040 C   0  0  0  0  0  0  0  0  0  0  0  0
  -23.5200  -30.2490   21.3220 C   0  0  0  0  0  3  0  0  0  0  0  0
  -25.0260  -28.8060   19.8460 C   0  0  0  0  0  0  0  0  0  0  0  0
  -26.0420  -30.6810   21.1410 C   0  0  0  0  0  2  0  0  0  0  0  0
  -26.1730  -29.3270   20.4580 C   0  0  0  0  0  0  0  0  0  0  0  0
  -27.3890  -28.5890   20.4310 C   0  0  0  0  0  3  0  0  0  0  0  0
  -26.2880  -26.8460   19.1530 C   0  0  0  0  0  3  0  0  0  0  0  0
  -25.0840  -27.5720   19.1830 C   0  0  0  0  0  3  0  0  0  0  0  0
  -23.7540  -29.6230   19.9230 C   0  0  0  0  0  2  0  0  0  0  0  0
  -24.7640  -30.8750   21.8780 N   0  0  0  0  0  0  0  0  0  0  0  0
  -23.5820  -31.8690   23.5410 O   0  0  0  0  0  0  0  0  0  0  0  0
  -22.9030  -29.1790   22.2550 C   0  0  0  0  0  0  0  0  0  0  0  0
  -21.5800  -28.9740   22.1440 N   0  0  0  0  0  0  0  0  0  0  0  0
  -23.6120  -28.5380   23.0350 O   0  0  0  0  0  0  0  0  0  0  0  0
  -21.0650  -29.5440   21.4890 H   0  0  0  0  0  0  0  0  0  0  0  0
  -18.2360  -27.7060   22.6730 C   0  0  0  0  0  0  0  0  0  0  0  0
  -20.7950  -27.9910   22.8940 C   0  0  0  0  0  3  0  0  0  0  0  0
  -20.9040  -26.5880   22.2520 C   0  0  0  0  0  2  0  0  0  0  0  0
  -19.7810  -26.2940   21.2520 C   0  0  0  0  0  2  0  0  0  0  0  0
  -18.4140  -26.3900   21.9360 C   0  0  0  0  0  2  0  0  0  0  0  0
  -19.3540  -28.4650   23.1080 C   0  0  0  0  0  0  0  0  0  0  0  0
  -19.1310  -29.7000   23.7580 C   0  0  0  0  0  3  0  0  0  0  0  0
  -17.8220  -30.1720   23.9780 C   0  0  0  0  0  3  0  0  0  0  0  0
  -16.7200  -29.4070   23.5590 C   0  0  0  0  0  3  0  0  0  0  0  0
  -16.9280  -28.1770   22.9110 C   0  0  0  0  0  3  0  0  0  0  0  0
  -25.9340  -32.3100   23.6360 C   0  0  0  0  0  3  0  0  0  0  0  0
  -26.4980  -31.5090   24.8730 C   0  0  1  0  0  0  0  0  0  0  0  0
  -25.4270  -31.1820   25.9410 C   0  0  0  0  0  1  0  0  0  0  0  0
  -27.1330  -30.1760   24.4170 C   0  0  0  0  0  1  0  0  0  0  0  0
  -27.6220  -32.3220   25.5560 C   0  0  0  0  0  1  0  0  0  0  0  0
  -25.5660  -33.6770   24.0270 N   0  0  0  0  0  0  0  0  0  0  0  0
  -25.8430  -34.7740   23.3110 C   0  0  0  0  0  0  0  0  0  0  0  0
  -26.5060  -34.7440   22.2700 O   0  0  0  0  0  0  0  0  0  0  0  0
  -24.9750  -33.7720   24.8400 H   0  0  0  0  0  0  0  0  0  0  0  0
  -24.0270  -36.4940   23.0550 C   0  0  0  0  0  1  0  0  0  0  0  0
  -25.2980  -36.1180   23.8320 C   0  0  0  0  0  3  0  0  0  0  0  0
  -27.4010  -37.0720   24.6680 C   0  0  0  0  0  1  0  0  0  0  0  0
  -26.2780  -37.2230   23.7460 N   0  0  0  0  0  0  0  0  0  0  0  0
  -25.8300  -38.1160   23.9350 H   0  0  0  0  0  0  0  0  0  0  0  0
  1 49  1  0
  2  4  2  0
  2  6  1  0
  3  7  1  0
  4  5  1  0
  5  7  2  0
  5  1  1  0
  6 17  1  0
  6  3  2  0
  7 48  1  0
  8  4  1  0
  9 17  1  0
 10 15  1  0
 11 12  1  0
 11 10  1  0
 13 12  1  0
 13 22  1  0
 13 14  1  0
 15  9  1  0
 15 14  1  0
 16  9  2  0
 17 18  1  0
 19 20  2  0
 20 39  1  0
 21 20  1  0
 21 24  1  0
 22 23  1  0
 22 19  1  0
 23 21  2  0
 24 25  1  0
 25 26  2  0
 27 30  1  0
 27 26  1  0
 28 27  2  0
 29 28  1  0
 29 24  2  0
 30 31  1  0
 31 32  1  0
 32 33  2  0
 34 33  1  0
 34 38  1  0
 35 34  2  0
 36 31  2  0
 36 35  1  0
 37 36  1  0
 39 40  1  0
 40 43  1  0
 40 42  1  0
 41 39  2  0
 44 45  1  0
 44 19  1  0
 46 44  1  0
 48 47  1  0
 49 50  1  0
 50 51  1  0
 50 52  1  0
 53 50  1  0
 54 56  1  0
 54 57  1  0
 54  1  1  0
 55 56  1  0
 58 59  1  0
 58 57  2  0
 60 71  2  0
 61 59  1  0
 61 66  1  0
 62 70  1  0
 62 72  1  0
 63 69  1  0
 63 65  1  0
 64 70  1  0
 65 64  1  0
 66 65  2  0
 67 68  1  0
 67 61  2  0
 68 63  2  0
 69 62  1  0
 70 60  1  0
 72 74  2  0
 73 72  1  0
 75 73  1  0
 76 85  2  0
 76 81  1  0
 77 73  1  0
 77 81  1  0
 78 77  1  0
 79 80  1  0
 79 78  1  0
 80 76  1  0
 81 82  2  0
 82 83  1  0
 84 83  2  0
 85 84  1  0
 86 60  1  0
 86 91  1  0
 86 87  1  0
 87 90  1  1
 87 88  1  0
 89 87  1  0
 91 94  1  0
 92 96  1  0
 92 91  1  0
 93 92  2  0
 96 95  1  0
 98 96  1  0
 98 99  1  0
 98 97  1  0
M  ISO  4   9 100  17 100  58 101  59 101
M  END
>  <TORSDO>  (73) 
F 24

>  <SCORE>  (73) 
-12.398

>  <name>  (73) 
73

>  <ligand_id>  (73) 
73

>  <original_smiles>  (73) 
[H]c1c([H])c([H])c2c(c1[H])C([H])([H])C([H])([H])C([H])([H])C2([H])N([H])C(=O)C1([H])N(C(=O)C([H])(N([H])C(=O)C([H])(N([H])C([H])([H])[H])C([H])([H])[H])C(C([H])([H])[H])(C([H])([H])[H])C([H])([H])[H])C([H])([H])c2c([H])c(OC([H])([H])C([H])([H])C([H])(C([H])([H])C([H])([H])[H])C([H])(c3c(OC([H])([H])[H])c([H])c(N([H])C(=O)N4C([H])([H])C([H])([H])C([H])([H])C([H])(n5nc(-c6c([H])c([H])c(Oc7c([H])c([H])c(F)c([H])c7F)c([H])c6[H])c(C(=O)N([H])[H])c5N([H])[H])C4([H])[H])c([H])c3C([H])([H])[H])C([H])([H])[N+]([H])([H])[H])c([H])c([H])c2C1([H])[H]

>  <smiles>  (73) 
[H]c1c([H])c([H])c2c(c1[H])C([H])([H])C([H])([H])C([H])([H])C2([H])N([H])C(=O)C1([H])N(C(=O)C([H])(N([H])C(=O)C([H])(N([H])C([H])([H])[H])C([H])([H])[H])C(C([H])([H])[H])(C([H])([H])[H])C([H])([H])[H])C([H])([H])c2c([H])c(OC([H])([H])C([H])([H])C([H])(C([H])([H])C([H])([H])[H])C([H])(c3c(OC([H])([H])[H])c([H])c(N([H])C(=O)N4C([H])([H])C([H])([H])C([H])([H])C([H])(n5nc(-c6c([H])c([H])c(Oc7c([H])c([H])c(F)c([H])c7F)c([H])c6[H])c(C(=O)N([H])[H])c5N([H])[H])C4([H])[H])c([H])c3C([H])([H])[H])C([H])([H])[N+]([H])([H])[H])c([H])c([H])c2C1([H])[H]

$$$$
74:0:0
     RDKit          3D

 91100  0  0  1  0  0  0  0  0999 V2000
  -28.9270  -22.4350   18.9460 C   0  0  0  0  0  2  0  0  0  0  0  0
  -28.6360  -22.1380   21.3540 C   0  0  0  0  0  2  0  0  0  0  0  0
  -28.1350  -23.8380   18.9630 C   0  0  0  0  0  2  0  0  0  0  0  0
  -28.8000  -23.7610   21.3380 C   0  0  0  0  0  2  0  0  0  0  0  0
  -28.5230  -21.3200   20.0000 C   0  0  0  0  0  3  0  0  0  0  0  0
  -27.9890  -24.6630   20.3040 C   0  0  0  0  0  3  0  0  0  0  0  0
  -29.2920  -18.6780   20.7750 C   0  0  0  0  0  3  0  0  0  0  0  0
  -29.5530  -17.7420   18.7730 C   0  0  0  0  0  3  0  0  0  0  0  0
  -29.6150  -17.4080   20.0910 C   0  0  0  0  0  0  0  0  0  0  0  0
  -29.0380  -19.7520   19.8820 C   0  0  0  0  0  0  0  0  0  0  0  0
  -28.8470  -19.6300   17.3260 C   0  0  0  0  0  1  0  0  0  0  0  0
  -29.1560  -19.0850   18.6390 N   0  0  0  0  0  0  0  0  0  0  0  0
  -30.5030  -14.8750   20.2440 C   0  0  0  0  0  0  0  0  0  0  0  0
  -30.3750  -12.5530   19.2840 C   0  0  0  0  0  2  0  0  0  0  0  0
  -29.4220  -12.5610   18.0670 C   0  0  0  0  0  2  0  0  0  0  0  0
  -27.9620  -12.3730   18.5130 C   0  0  0  0  0  2  0  0  0  0  0  0
  -27.5860  -13.2810   19.7130 C   0  0  0  0  0  3  0  0  0  0  0  0
  -28.6510  -13.2250   20.8300 C   0  0  0  0  0  2  0  0  0  0  0  0
  -29.9320  -13.6130   20.2290 N   0  0  0  0  0  0  0  0  0  0  0  0
  -31.6740  -14.9930   19.8620 O   0  0  0  0  0  0  0  0  0  0  0  0
  -29.7150  -15.9870   20.5940 N   0  0  0  0  0  0  0  0  0  0  0  0
  -28.8900  -15.6950   21.0990 H   0  0  0  0  0  0  0  0  0  0  0  0
  -25.2090  -13.8700   20.4580 C   0  0  0  0  0  0  0  0  0  0  0  0
  -24.1470  -13.0970   20.8430 C   0  0  0  0  0  0  0  0  0  0  0  0
  -24.6120  -11.7440   20.8080 C   0  0  0  0  0  0  0  0  0  0  0  0
  -26.2500  -12.9910   20.2160 N   0  0  0  0  0  0  0  0  0  0  0  0
  -25.9000  -11.7080   20.4900 N   0  0  0  0  0  0  0  0  0  0  0  0
  -23.8890  -10.4810   21.0030 C   0  0  0  0  0  0  0  0  0  0  0  0
  -24.3210   -9.5180   21.9430 C   0  0  0  0  0  3  0  0  0  0  0  0
  -23.5980   -8.3200   22.1250 C   0  0  0  0  0  3  0  0  0  0  0  0
  -22.4290   -8.0740   21.3660 C   0  0  0  0  0  0  0  0  0  0  0  0
  -22.0150   -9.0270   20.4160 C   0  0  0  0  0  3  0  0  0  0  0  0
  -22.7390  -10.2150   20.2340 C   0  0  0  0  0  3  0  0  0  0  0  0
  -21.6810   -6.9230   21.4560 O   0  0  0  0  0  0  0  0  0  0  0  0
  -21.6140   -6.1950   22.6160 C   0  0  0  0  0  0  0  0  0  0  0  0
  -21.1370   -6.7540   23.8220 C   0  0  0  0  0  3  0  0  0  0  0  0
  -21.0200   -5.9500   24.9720 C   0  0  0  0  0  3  0  0  0  0  0  0
  -21.3710   -4.5890   24.9190 C   0  0  0  0  0  0  0  0  0  0  0  0
  -21.8380   -4.0290   23.7180 C   0  0  0  0  0  3  0  0  0  0  0  0
  -21.9570   -4.8290   22.5680 C   0  0  0  0  0  0  0  0  0  0  0  0
  -22.3880   -4.2790   21.4080 F   0  0  0  0  0  0  0  0  0  0  0  0
  -21.2510   -3.8120   26.0230 F   0  0  0  0  0  0  0  0  0  0  0  0
  -22.7500  -13.5720   21.1260 C   0  0  0  0  0  0  0  0  0  0  0  0
  -22.0300  -12.8760   21.9940 N   0  0  0  0  0  0  0  0  0  0  0  0
  -22.3090  -14.6000   20.6100 O   0  0  0  0  0  0  0  0  0  0  0  0
  -22.3980  -12.0420   22.4300 H   0  0  0  0  0  0  0  0  0  0  0  0
  -21.0960  -13.1800   22.2320 H   0  0  0  0  0  0  0  0  0  0  0  0
  -25.3740  -15.2370   20.2570 N   0  0  0  0  0  0  0  0  0  0  0  0
  -24.5950  -15.8870   20.3070 H   0  0  0  0  0  0  0  0  0  0  0  0
  -26.1910  -15.6290   19.8070 H   0  0  0  0  0  0  0  0  0  0  0  0
  -28.2230  -26.2010   20.2780 O   0  0  0  0  0  0  0  0  0  0  0  0
  -24.6100  -31.8930   23.2160 C   0  0  0  0  0  0  0  0  0  0  0  0
  -27.1610  -27.1670   20.2100 C   0  0  0  0  0  0  0  0  0  0  0  0
  -23.4050  -30.4980   21.5790 C   0  0  0  0  0  3  0  0  0  0  0  0
  -24.8470  -28.9120   20.1620 C   0  0  0  0  0  0  0  0  0  0  0  0
  -25.9590  -30.7510   21.4180 C   0  0  0  0  0  2  0  0  0  0  0  0
  -26.0250  -29.3600   20.7700 C   0  0  0  0  0  0  0  0  0  0  0  0
  -27.1860  -28.5020   20.7730 C   0  0  0  0  0  3  0  0  0  0  0  0
  -25.9600  -26.8130   19.5630 C   0  0  0  0  0  3  0  0  0  0  0  0
  -24.8250  -27.6520   19.5410 C   0  0  0  0  0  3  0  0  0  0  0  0
  -23.6240  -29.8140   20.2030 C   0  0  0  0  0  2  0  0  0  0  0  0
  -24.6770  -31.0690   22.1260 N   0  0  0  0  0  0  0  0  0  0  0  0
  -23.5240  -32.1850   23.7410 O   0  0  0  0  0  0  0  0  0  0  0  0
  -22.7200  -29.4970   22.5430 C   0  0  0  0  0  0  0  0  0  0  0  0
  -21.3910  -29.3370   22.4180 N   0  0  0  0  0  0  0  0  0  0  0  0
  -23.3880  -28.8650   23.3650 O   0  0  0  0  0  0  0  0  0  0  0  0
  -20.9070  -29.8950   21.7280 H   0  0  0  0  0  0  0  0  0  0  0  0
  -17.9990  -28.1850   22.9450 C   0  0  0  0  0  0  0  0  0  0  0  0
  -20.5640  -28.4100   23.1940 C   0  0  0  0  0  3  0  0  0  0  0  0
  -20.6390  -26.9770   22.6160 C   0  0  0  0  0  2  0  0  0  0  0  0
  -19.5270  -26.6740   21.6070 C   0  0  0  0  0  2  0  0  0  0  0  0
  -18.1520  -26.8360   22.2610 C   0  0  0  0  0  2  0  0  0  0  0  0
  -19.1310  -28.9300   23.3690 C   0  0  0  0  0  0  0  0  0  0  0  0
  -18.9330  -30.1920   23.9700 C   0  0  0  0  0  3  0  0  0  0  0  0
  -17.6370  -30.7100   24.1480 C   0  0  0  0  0  3  0  0  0  0  0  0
  -16.5190  -29.9610   23.7410 C   0  0  0  0  0  3  0  0  0  0  0  0
  -16.7010  -28.7000   23.1470 C   0  0  0  0  0  3  0  0  0  0  0  0
  -25.8900  -32.5240   23.8410 C   0  0  0  0  0  3  0  0  0  0  0  0
  -25.5810  -33.9220   24.1850 N   0  0  0  0  0  0  0  0  0  0  0  0
  -25.8940  -34.9820   23.4280 C   0  0  0  0  0  0  0  0  0  0  0  0
  -26.5430  -34.8870   22.3830 O   0  0  0  0  0  0  0  0  0  0  0  0
  -25.0070  -34.0690   25.0020 H   0  0  0  0  0  0  0  0  0  0  0  0
  -24.1510  -36.7700   23.1270 C   0  0  0  0  0  1  0  0  0  0  0  0
  -25.4140  -36.3660   23.9040 C   0  0  0  0  0  3  0  0  0  0  0  0
  -27.5640  -37.2600   24.6870 C   0  0  0  0  0  1  0  0  0  0  0  0
  -26.4400  -37.4240   23.7690 N   0  0  0  0  0  0  0  0  0  0  0  0
  -26.0350  -38.3430   23.9290 H   0  0  0  0  0  0  0  0  0  0  0  0
  -26.4070  -31.7480   25.1150 C   0  0  1  0  0  0  0  0  0  0  0  0
  -25.3140  -31.5100   26.1840 C   0  0  0  0  0  1  0  0  0  0  0  0
  -26.9850  -30.3690   24.7240 C   0  0  0  0  0  1  0  0  0  0  0  0
  -27.5600  -32.5380   25.7770 C   0  0  0  0  0  1  0  0  0  0  0  0
  1  3  1  0
  1  5  1  0
  3  6  1  0
  4  2  1  0
  5 10  1  0
  5  2  1  0
  6 51  1  0
  6  4  1  0
  8  9  2  0
  9 21  1  0
  9  7  1  0
 10  7  2  0
 11 12  1  0
 12  8  1  0
 12 10  1  0
 13 21  1  0
 14 19  1  0
 15 16  1  0
 15 14  1  0
 17 16  1  0
 17 26  1  0
 17 18  1  0
 19 13  1  0
 19 18  1  0
 20 13  2  0
 21 22  1  0
 23 24  2  0
 24 43  1  0
 25 24  1  0
 25 28  1  0
 26 23  1  0
 26 27  1  0
 27 25  2  0
 28 29  1  0
 29 30  2  0
 31 34  1  0
 31 30  1  0
 32 31  2  0
 33 32  1  0
 33 28  2  0
 34 35  1  0
 35 36  1  0
 36 37  2  0
 38 37  1  0
 38 42  1  0
 39 38  2  0
 40 35  2  0
 40 39  1  0
 41 40  1  0
 43 44  1  0
 44 47  1  0
 44 46  1  0
 45 43  2  0
 48 49  1  0
 48 23  1  0
 50 48  1  0
 52 63  2  0
 53 51  1  0
 53 58  1  0
 54 62  1  0
 54 64  1  0
 55 61  1  0
 55 57  1  0
 56 62  1  0
 57 58  2  0
 57 56  1  0
 59 53  2  0
 60 59  1  0
 60 55  2  0
 61 54  1  0
 62 52  1  0
 64 66  2  0
 65 64  1  0
 67 65  1  0
 68 77  2  0
 68 73  1  0
 69 65  1  0
 69 73  1  0
 70 69  1  0
 71 72  1  0
 71 70  1  0
 72 68  1  0
 73 74  2  0
 74 75  1  0
 76 75  2  0
 77 76  1  0
 78 52  1  0
 78 79  1  0
 78 88  1  0
 79 82  1  0
 80 84  1  0
 80 79  1  0
 81 80  2  0
 84 83  1  0
 86 84  1  0
 86 87  1  0
 86 85  1  0
 88 91  1  1
 88 89  1  0
 90 88  1  0
M  ISO  4   6 101  13 100  21 100  51 101
M  END
>  <TORSDO>  (74) 
F 17

>  <SCORE>  (74) 
-15.171

>  <name>  (74) 
74

>  <ligand_id>  (74) 
74

>  <original_smiles>  (74) 
[H]c1c([H])c([H])c2c(c1[H])C([H])([H])C([H])([H])C([H])([H])C2([H])N([H])C(=O)C1([H])N(C(=O)C([H])(N([H])C(=O)C([H])(N([H])C([H])([H])[H])C([H])([H])[H])C(C([H])([H])[H])(C([H])([H])[H])C([H])([H])[H])C([H])([H])c2c([H])c(OC3([H])C([H])([H])C([H])([H])C([H])(c4c([H])c(N([H])C(=O)N5C([H])([H])C([H])([H])C([H])([H])C([H])(n6nc(-c7c([H])c([H])c(Oc8c([H])c([H])c(F)c([H])c8F)c([H])c7[H])c(C(=O)N([H])[H])c6N([H])[H])C5([H])[H])c([H])n4C([H])([H])[H])C([H])([H])C3([H])[H])c([H])c([H])c2C1([H])[H]

>  <smiles>  (74) 
[H]c1c([H])c([H])c2c(c1[H])C([H])([H])C([H])([H])C([H])([H])C2([H])N([H])C(=O)C1([H])N(C(=O)C([H])(N([H])C(=O)C([H])(N([H])C([H])([H])[H])C([H])([H])[H])C(C([H])([H])[H])(C([H])([H])[H])C([H])([H])[H])C([H])([H])c2c([H])c(OC3([H])C([H])([H])C([H])([H])C([H])(c4c([H])c(N([H])C(=O)N5C([H])([H])C([H])([H])C([H])([H])C([H])(n6nc(-c7c([H])c([H])c(Oc8c([H])c([H])c(F)c([H])c8F)c([H])c7[H])c(C(=O)N([H])[H])c6N([H])[H])C5([H])[H])c([H])n4C([H])([H])[H])C([H])([H])C3([H])[H])c([H])c([H])c2C1([H])[H]

$$$$
75:0:0
     RDKit          3D

 95105  0  0  1  0  0  0  0  0999 V2000
  -28.9220  -23.3260   21.6960 C   0  0  0  0  0  3  0  0  0  0  0  0
  -29.0990  -22.4150   19.1490 C   0  0  0  0  0  3  0  0  0  0  0  0
  -29.3540  -21.9920   21.4920 C   0  0  0  0  0  0  0  0  0  0  0  0
  -29.4290  -21.4790   20.1720 C   0  0  0  0  0  0  0  0  0  0  0  0
  -28.6330  -24.1960   20.6210 C   0  0  0  0  0  0  0  0  0  0  0  0
  -28.7310  -23.7250   19.3490 N   0  0  0  0  0  0  0  0  0  0  0  0
  -30.8140  -21.7470   23.6570 C   0  0  0  0  0  2  0  0  0  0  0  0
  -31.2010  -20.6210   22.7320 C   0  0  0  0  0  2  0  0  0  0  0  0
  -29.8020  -21.1950   22.6760 C   0  0  0  0  0  3  0  0  0  0  0  0
  -29.2290  -26.2280   22.0610 C   0  0  0  0  0  1  0  0  0  0  0  0
  -28.2950  -25.6980   20.9620 C   0  0  0  0  0  3  0  0  0  0  0  0
  -28.3040  -26.7360   19.9280 O   0  0  0  0  0  0  0  0  0  0  0  0
  -24.5710  -31.9500   23.2280 C   0  0  0  0  0  0  0  0  0  0  0  0
  -27.1950  -27.5810   19.9630 C   0  0  0  0  0  0  0  0  0  0  0  0
  -23.3530  -30.5850   21.5690 C   0  0  0  0  0  3  0  0  0  0  0  0
  -24.7990  -29.1080   20.0630 C   0  0  0  0  0  0  0  0  0  0  0  0
  -25.8770  -30.9670   21.3360 C   0  0  0  0  0  2  0  0  0  0  0  0
  -25.9680  -29.6140   20.6470 C   0  0  0  0  0  0  0  0  0  0  0  0
  -27.1760  -28.8590   20.5910 C   0  0  0  0  0  3  0  0  0  0  0  0
  -26.0100  -27.1140   19.3650 C   0  0  0  0  0  3  0  0  0  0  0  0
  -24.8170  -27.8610   19.4160 C   0  0  0  0  0  3  0  0  0  0  0  0
  -23.5450  -29.9520   20.1660 C   0  0  0  0  0  2  0  0  0  0  0  0
  -24.6190  -31.1820   22.1020 N   0  0  0  0  0  0  0  0  0  0  0  0
  -23.4960  -32.1910   23.7950 O   0  0  0  0  0  0  0  0  0  0  0  0
  -22.7300  -29.5260   22.5100 C   0  0  0  0  0  0  0  0  0  0  0  0
  -21.4160  -29.2870   22.3630 N   0  0  0  0  0  0  0  0  0  0  0  0
  -23.4290  -28.9240   23.3290 O   0  0  0  0  0  0  0  0  0  0  0  0
  -20.9110  -29.8290   21.6750 H   0  0  0  0  0  0  0  0  0  0  0  0
  -18.1110  -27.8710   22.7400 C   0  0  0  0  0  0  0  0  0  0  0  0
  -20.6320  -28.3060   23.1140 C   0  0  0  0  0  3  0  0  0  0  0  0
  -20.8560  -26.8790   22.5630 C   0  0  0  0  0  2  0  0  0  0  0  0
  -19.8220  -26.4690   21.5090 C   0  0  0  0  0  2  0  0  0  0  0  0
  -18.4070  -26.5280   22.0930 C   0  0  0  0  0  2  0  0  0  0  0  0
  -19.1570  -28.7120   23.2050 C   0  0  0  0  0  0  0  0  0  0  0  0
  -18.8290  -29.9640   23.7690 C   0  0  0  0  0  3  0  0  0  0  0  0
  -17.4870  -30.3780   23.8730 C   0  0  0  0  0  3  0  0  0  0  0  0
  -16.4560  -29.5350   23.4240 C   0  0  0  0  0  3  0  0  0  0  0  0
  -16.7680  -28.2830   22.8630 C   0  0  0  0  0  3  0  0  0  0  0  0
  -25.8580  -32.5820   23.8430 C   0  0  0  0  0  3  0  0  0  0  0  0
  -26.3820  -31.8110   25.1160 C   0  0  1  0  0  0  0  0  0  0  0  0
  -25.2920  -31.5720   26.1870 C   0  0  0  0  0  1  0  0  0  0  0  0
  -26.9670  -30.4340   24.7210 C   0  0  0  0  0  1  0  0  0  0  0  0
  -27.5300  -32.6090   25.7760 C   0  0  0  0  0  1  0  0  0  0  0  0
  -25.5500  -33.9800   24.1730 N   0  0  0  0  0  0  0  0  0  0  0  0
  -25.8920  -35.0340   23.4200 C   0  0  0  0  0  0  0  0  0  0  0  0
  -26.5690  -34.9310   22.3930 O   0  0  0  0  0  0  0  0  0  0  0  0
  -24.9440  -34.1340   24.9650 H   0  0  0  0  0  0  0  0  0  0  0  0
  -24.1720  -36.8350   23.0610 C   0  0  0  0  0  1  0  0  0  0  0  0
  -25.4080  -36.4230   23.8770 C   0  0  0  0  0  3  0  0  0  0  0  0
  -27.5390  -37.3000   24.7260 C   0  0  0  0  0  1  0  0  0  0  0  0
  -26.4440  -37.4730   23.7730 N   0  0  0  0  0  0  0  0  0  0  0  0
  -26.0410  -38.3940   23.9170 H   0  0  0  0  0  0  0  0  0  0  0  0
  -29.9530  -20.1980   19.8940 O   0  0  0  0  0  0  0  0  0  0  0  0
  -30.8840  -14.9170   19.9520 C   0  0  0  0  0  0  0  0  0  0  0  0
  -30.5820  -12.6440   19.0230 C   0  0  0  0  0  2  0  0  0  0  0  0
  -29.6050  -12.7130   17.8330 C   0  0  0  0  0  2  0  0  0  0  0  0
  -28.1530  -12.5540   18.3260 C   0  0  0  0  0  2  0  0  0  0  0  0
  -27.8230  -13.4680   19.5400 C   0  0  0  0  0  3  0  0  0  0  0  0
  -28.9310  -13.4320   20.6160 C   0  0  0  0  0  2  0  0  0  0  0  0
  -30.2020  -13.7300   19.9460 N   0  0  0  0  0  0  0  0  0  0  0  0
  -32.0710  -14.9500   19.6130 O   0  0  0  0  0  0  0  0  0  0  0  0
  -29.4480  -18.1580   18.5340 C   0  0  0  0  0  2  0  0  0  0  0  0
  -28.9390  -18.0640   20.9680 C   0  0  0  0  0  2  0  0  0  0  0  0
  -30.5060  -17.0420   18.8040 C   0  0  0  0  0  2  0  0  0  0  0  0
  -29.9990  -16.9190   21.1100 C   0  0  0  0  0  2  0  0  0  0  0  0
  -29.0730  -19.0400   19.7520 C   0  0  0  0  0  3  0  0  0  0  0  0
  -30.1600  -16.0920   19.8960 N   0  0  0  0  0  0  0  0  0  0  0  0
  -25.4770  -14.0410   20.4080 C   0  0  0  0  0  0  0  0  0  0  0  0
  -24.4280  -13.2590   20.8090 C   0  0  0  0  0  0  0  0  0  0  0  0
  -24.8850  -11.9080   20.7190 C   0  0  0  0  0  0  0  0  0  0  0  0
  -26.5050  -13.1690   20.0960 N   0  0  0  0  0  0  0  0  0  0  0  0
  -26.1600  -11.8780   20.3460 N   0  0  0  0  0  0  0  0  0  0  0  0
  -24.1650  -10.6420   20.9120 C   0  0  0  0  0  0  0  0  0  0  0  0
  -24.5870   -9.6890   21.8650 C   0  0  0  0  0  3  0  0  0  0  0  0
  -23.8670   -8.4870   22.0440 C   0  0  0  0  0  3  0  0  0  0  0  0
  -22.7110   -8.2300   21.2680 C   0  0  0  0  0  0  0  0  0  0  0  0
  -22.3080   -9.1720   20.3040 C   0  0  0  0  0  3  0  0  0  0  0  0
  -23.0290  -10.3640   20.1230 C   0  0  0  0  0  3  0  0  0  0  0  0
  -21.9620   -7.0820   21.3560 O   0  0  0  0  0  0  0  0  0  0  0  0
  -21.8060   -6.4110   22.5440 C   0  0  0  0  0  0  0  0  0  0  0  0
  -21.2480   -7.0320   23.6820 C   0  0  0  0  0  3  0  0  0  0  0  0
  -21.0450   -6.2880   24.8610 C   0  0  0  0  0  3  0  0  0  0  0  0
  -21.3900   -4.9230   24.9010 C   0  0  0  0  0  0  0  0  0  0  0  0
  -21.9390   -4.3020   23.7660 C   0  0  0  0  0  3  0  0  0  0  0  0
  -22.1450   -5.0440   22.5900 C   0  0  0  0  0  0  0  0  0  0  0  0
  -22.6570   -4.4360   21.4930 F   0  0  0  0  0  0  0  0  0  0  0  0
  -21.1850   -4.2050   26.0290 F   0  0  0  0  0  0  0  0  0  0  0  0
  -23.0490  -13.7300   21.1630 C   0  0  0  0  0  0  0  0  0  0  0  0
  -22.3640  -13.0200   22.0540 N   0  0  0  0  0  0  0  0  0  0  0  0
  -22.5870  -14.7660   20.6860 O   0  0  0  0  0  0  0  0  0  0  0  0
  -22.7500  -12.1830   22.4630 H   0  0  0  0  0  0  0  0  0  0  0  0
  -21.4390  -13.3200   22.3290 H   0  0  0  0  0  0  0  0  0  0  0  0
  -25.6360  -15.4160   20.2600 N   0  0  0  0  0  0  0  0  0  0  0  0
  -24.8790  -16.0710   20.4300 H   0  0  0  0  0  0  0  0  0  0  0  0
  -26.4800  -15.8600   19.9210 H   0  0  0  0  0  0  0  0  0  0  0  0
  2  6  2  0
  2  4  1  0
  3  1  1  0
  3  9  1  0
  4  3  2  0
  5 11  1  0
  5  1  2  0
  6  5  1  0
  8  7  1  0
  9  8  1  0
  9  7  1  0
 11 10  1  0
 12 14  1  0
 12 11  1  0
 13 24  2  0
 14 19  1  0
 15 23  1  0
 15 25  1  0
 16 22  1  0
 16 18  1  0
 17 23  1  0
 18 17  1  0
 19 18  2  0
 20 21  1  0
 20 14  2  0
 21 16  2  0
 22 15  1  0
 23 13  1  0
 25 27  2  0
 26 25  1  0
 28 26  1  0
 29 38  2  0
 29 34  1  0
 30 26  1  0
 30 34  1  0
 31 30  1  0
 32 33  1  0
 32 31  1  0
 33 29  1  0
 34 35  2  0
 35 36  1  0
 37 36  2  0
 38 37  1  0
 39 13  1  0
 39 44  1  0
 39 40  1  0
 40 43  1  1
 40 41  1  0
 42 40  1  0
 44 47  1  0
 45 49  1  0
 45 44  1  0
 46 45  2  0
 49 48  1  0
 51 49  1  0
 51 52  1  0
 51 50  1  0
 53  4  1  0
 55 60  1  0
 56 57  1  0
 56 55  1  0
 58 57  1  0
 58 71  1  0
 58 59  1  0
 60 54  1  0
 60 59  1  0
 61 54  2  0
 62 64  1  0
 62 66  1  0
 63 65  1  0
 64 67  1  0
 66 53  1  0
 66 63  1  0
 67 54  1  0
 67 65  1  0
 68 69  2  0
 69 88  1  0
 70 69  1  0
 70 73  1  0
 71 72  1  0
 71 68  1  0
 72 70  2  0
 73 74  1  0
 74 75  2  0
 76 79  1  0
 76 75  1  0
 77 76  2  0
 78 77  1  0
 78 73  2  0
 79 80  1  0
 80 85  2  0
 80 81  1  0
 81 82  2  0
 82 83  1  0
 83 87  1  0
 84 83  2  0
 85 84  1  0
 86 85  1  0
 88 89  1  0
 89 92  1  0
 89 91  1  0
 90 88  2  0
 93 68  1  0
 93 94  1  0
 95 93  1  0
M  ISO  4  11 101  12 101  54 100  67 100
M  END
>  <TORSDO>  (75) 
F 19

>  <SCORE>  (75) 
-14.434

>  <name>  (75) 
75

>  <ligand_id>  (75) 
75

>  <original_smiles>  (75) 
[H]c1nc(C([H])(Oc2c([H])c([H])c3c(c2[H])C([H])([H])N(C(=O)C([H])(N([H])C(=O)C([H])(N([H])C([H])([H])[H])C([H])([H])[H])C(C([H])([H])[H])(C([H])([H])[H])C([H])([H])[H])C([H])(C(=O)N([H])C2([H])c4c([H])c([H])c([H])c([H])c4C([H])([H])C([H])([H])C2([H])[H])C3([H])[H])C([H])([H])[H])c([H])c(C2([H])C([H])([H])C2([H])[H])c1OC1([H])C([H])([H])C([H])([H])N(C(=O)N2C([H])([H])C([H])([H])C([H])([H])C([H])(n3nc(-c4c([H])c([H])c(Oc5c([H])c([H])c(F)c([H])c5F)c([H])c4[H])c(C(=O)N([H])[H])c3N([H])[H])C2([H])[H])C([H])([H])C1([H])[H]

>  <smiles>  (75) 
[H]c1nc(C([H])(Oc2c([H])c([H])c3c(c2[H])C([H])([H])N(C(=O)C([H])(N([H])C(=O)C([H])(N([H])C([H])([H])[H])C([H])([H])[H])C(C([H])([H])[H])(C([H])([H])[H])C([H])([H])[H])C([H])(C(=O)N([H])C2([H])c4c([H])c([H])c([H])c([H])c4C([H])([H])C([H])([H])C2([H])[H])C3([H])[H])C([H])([H])[H])c([H])c(C2([H])C([H])([H])C2([H])[H])c1OC1([H])C([H])([H])C([H])([H])N(C(=O)N2C([H])([H])C([H])([H])C([H])([H])C([H])(n3nc(-c4c([H])c([H])c(Oc5c([H])c([H])c(F)c([H])c5F)c([H])c4[H])c(C(=O)N([H])[H])c3N([H])[H])C2([H])[H])C([H])([H])C1([H])[H]

$$$$
76:0:0
     RDKit          3D

 98107  0  0  1  0  0  0  0  0999 V2000
  -28.5200  -22.9590   19.5730 C   0  0  0  0  0  3  0  0  0  0  0  0
  -30.3700  -23.1270   21.6370 C   0  0  0  0  0  3  0  0  0  0  0  0
  -28.9560  -24.2580   19.9860 C   0  0  0  0  0  0  0  0  0  0  0  0
  -28.9870  -21.7370   20.1730 C   0  0  0  0  0  0  0  0  0  0  0  0
  -29.9170  -24.3140   21.0310 C   0  0  0  0  0  0  0  0  0  0  0  0
  -29.9070  -21.8560   21.2370 C   0  0  0  0  0  0  0  0  0  0  0  0
  -30.4920  -25.6170   21.5580 C   0  0  0  0  0  1  0  0  0  0  0  0
  -27.0680  -20.5600   19.0410 C   0  0  0  0  0  1  0  0  0  0  0  0
  -28.3320  -20.3360   19.9130 C   0  0  0  0  0  3  0  0  0  0  0  0
  -28.0900  -17.4190   19.8590 C   0  0  0  0  0  2  0  0  0  0  0  0
  -28.4490  -18.1790   18.5860 C   0  0  0  0  0  2  0  0  0  0  0  0
  -29.4290  -17.9260   20.3450 C   0  0  0  0  0  3  0  0  0  0  0  0
  -29.1860  -19.1410   19.4480 N   0  0  2  0  0  4  0  0  0  0  0  0
  -30.0050  -19.4680   18.9610 H   0  0  0  0  0  0  0  0  0  0  0  0
  -31.9680  -17.5630   20.6230 C   0  0  0  0  0  1  0  0  0  0  0  0
  -30.6780  -16.9890   20.0160 C   0  0  0  0  0  3  0  0  0  0  0  0
  -31.1500  -14.4480   19.9390 C   0  0  0  0  0  0  0  0  0  0  0  0
  -30.7880  -12.2090   18.9390 C   0  0  0  0  0  2  0  0  0  0  0  0
  -29.8050  -12.3410   17.7540 C   0  0  0  0  0  2  0  0  0  0  0  0
  -28.3410  -12.2710   18.2320 C   0  0  0  0  0  2  0  0  0  0  0  0
  -28.0670  -13.1770   19.4630 C   0  0  0  0  0  3  0  0  0  0  0  0
  -29.1590  -12.9920   20.5470 C   0  0  0  0  0  2  0  0  0  0  0  0
  -30.4640  -13.2630   19.9250 N   0  0  0  0  0  0  0  0  0  0  0  0
  -32.2440  -14.5590   19.3800 O   0  0  0  0  0  0  0  0  0  0  0  0
  -30.4940  -15.5470   20.4250 N   0  0  0  0  0  0  0  0  0  0  0  0
  -29.6640  -15.3480   20.9580 H   0  0  0  0  0  0  0  0  0  0  0  0
  -25.7230  -13.9000   20.2650 C   0  0  0  0  0  0  0  0  0  0  0  0
  -24.6420  -13.1860   20.6980 C   0  0  0  0  0  0  0  0  0  0  0  0
  -25.0290  -11.8180   20.6290 C   0  0  0  0  0  0  0  0  0  0  0  0
  -26.7180  -12.9730   19.9900 N   0  0  0  0  0  0  0  0  0  0  0  0
  -26.3000  -11.7100   20.2600 N   0  0  0  0  0  0  0  0  0  0  0  0
  -24.2340  -10.5990   20.8340 C   0  0  0  0  0  0  0  0  0  0  0  0
  -24.6260   -9.6080   21.7600 C   0  0  0  0  0  3  0  0  0  0  0  0
  -23.8360   -8.4550   21.9530 C   0  0  0  0  0  3  0  0  0  0  0  0
  -22.6340   -8.2890   21.2220 C   0  0  0  0  0  0  0  0  0  0  0  0
  -22.2570   -9.2700   20.2860 C   0  0  0  0  0  3  0  0  0  0  0  0
  -23.0510  -10.4130   20.0920 C   0  0  0  0  0  3  0  0  0  0  0  0
  -21.8130   -7.1930   21.3270 O   0  0  0  0  0  0  0  0  0  0  0  0
  -21.6760   -6.5110   22.5090 C   0  0  0  0  0  0  0  0  0  0  0  0
  -21.1960   -7.1380   23.6810 C   0  0  0  0  0  3  0  0  0  0  0  0
  -21.0070   -6.3810   24.8550 C   0  0  0  0  0  3  0  0  0  0  0  0
  -21.2890   -5.0020   24.8560 C   0  0  0  0  0  0  0  0  0  0  0  0
  -21.7620   -4.3780   23.6890 C   0  0  0  0  0  3  0  0  0  0  0  0
  -21.9550   -5.1300   22.5190 C   0  0  0  0  0  0  0  0  0  0  0  0
  -22.3950   -4.5210   21.3910 F   0  0  0  0  0  0  0  0  0  0  0  0
  -21.0930   -4.2740   25.9800 F   0  0  0  0  0  0  0  0  0  0  0  0
  -23.2940  -13.7500   21.0420 C   0  0  0  0  0  0  0  0  0  0  0  0
  -22.5910  -13.1340   21.9850 N   0  0  0  0  0  0  0  0  0  0  0  0
  -22.8780  -14.7770   20.5100 O   0  0  0  0  0  0  0  0  0  0  0  0
  -22.9320  -12.3040   22.4410 H   0  0  0  0  0  0  0  0  0  0  0  0
  -21.6920  -13.5080   22.2550 H   0  0  0  0  0  0  0  0  0  0  0  0
  -25.8920  -15.2570   20.0550 N   0  0  0  0  0  0  0  0  0  0  0  0
  -25.1000  -15.8780   20.1840 H   0  0  0  0  0  0  0  0  0  0  0  0
  -26.6030  -15.6400   19.4460 H   0  0  0  0  0  0  0  0  0  0  0  0
  -30.6490  -20.8970   23.2610 C   0  0  0  0  0  1  0  0  0  0  0  0
  -30.2910  -20.7190   21.8980 O   0  0  0  0  0  0  0  0  0  0  0  0
  -28.4560  -25.5250   19.2210 C   0  0  0  0  0  2  0  0  0  0  0  0
  -28.3460  -26.7940   19.9250 O   0  0  0  0  0  0  0  0  0  0  0  0
  -24.5390  -31.7950   23.2900 C   0  0  0  0  0  0  0  0  0  0  0  0
  -27.1720  -27.5330   19.9320 C   0  0  0  0  0  0  0  0  0  0  0  0
  -23.3470  -30.5410   21.5290 C   0  0  0  0  0  3  0  0  0  0  0  0
  -24.8010  -29.1060   20.0070 C   0  0  0  0  0  0  0  0  0  0  0  0
  -25.8750  -30.8800   21.3920 C   0  0  0  0  0  2  0  0  0  0  0  0
  -25.9550  -29.5520   20.6570 C   0  0  0  0  0  0  0  0  0  0  0  0
  -27.1400  -28.7760   20.6180 C   0  0  0  0  0  3  0  0  0  0  0  0
  -25.9930  -27.1130   19.2730 C   0  0  0  0  0  3  0  0  0  0  0  0
  -24.8210  -27.8890   19.3080 C   0  0  0  0  0  3  0  0  0  0  0  0
  -23.5680  -29.9770   20.1000 C   0  0  0  0  0  2  0  0  0  0  0  0
  -24.6070  -31.0840   22.1290 N   0  0  0  0  0  0  0  0  0  0  0  0
  -23.4530  -32.0260   23.8390 O   0  0  0  0  0  0  0  0  0  0  0  0
  -22.6760  -29.4520   22.3940 C   0  0  0  0  0  0  0  0  0  0  0  0
  -21.3470  -29.3220   22.2630 N   0  0  0  0  0  0  0  0  0  0  0  0
  -23.3460  -28.7350   23.1430 O   0  0  0  0  0  0  0  0  0  0  0  0
  -20.8660  -29.9490   21.6320 H   0  0  0  0  0  0  0  0  0  0  0  0
  -17.9450  -28.1880   22.7380 C   0  0  0  0  0  0  0  0  0  0  0  0
  -20.5140  -28.3380   22.9490 C   0  0  0  0  0  3  0  0  0  0  0  0
  -20.5590  -26.9780   22.2150 C   0  0  0  0  0  2  0  0  0  0  0  0
  -19.4030  -26.7900   21.2260 C   0  0  0  0  0  2  0  0  0  0  0  0
  -18.0650  -26.8910   21.9580 C   0  0  0  0  0  2  0  0  0  0  0  0
  -19.1000  -28.8740   23.1960 C   0  0  0  0  0  0  0  0  0  0  0  0
  -18.9410  -30.0890   23.8970 C   0  0  0  0  0  3  0  0  0  0  0  0
  -17.6600  -30.6150   24.1470 C   0  0  0  0  0  3  0  0  0  0  0  0
  -16.5200  -29.9250   23.7050 C   0  0  0  0  0  3  0  0  0  0  0  0
  -16.6610  -28.7160   22.9980 C   0  0  0  0  0  3  0  0  0  0  0  0
  -25.8190  -32.3680   23.9690 C   0  0  0  0  0  3  0  0  0  0  0  0
  -25.5680  -33.7830   24.2580 N   0  0  0  0  0  0  0  0  0  0  0  0
  -25.9910  -34.8020   23.4990 C   0  0  0  0  0  0  0  0  0  0  0  0
  -26.7050  -34.6460   22.5040 O   0  0  0  0  0  0  0  0  0  0  0  0
  -24.9410  -33.9810   25.0230 H   0  0  0  0  0  0  0  0  0  0  0  0
  -24.3720  -36.6660   23.0290 C   0  0  0  0  0  1  0  0  0  0  0  0
  -25.5530  -36.2210   23.9060 C   0  0  0  0  0  3  0  0  0  0  0  0
  -27.6740  -37.0290   24.8370 C   0  0  0  0  0  1  0  0  0  0  0  0
  -26.6390  -37.2210   23.8240 N   0  0  0  0  0  0  0  0  0  0  0  0
  -26.2730  -38.1640   23.9240 H   0  0  0  0  0  0  0  0  0  0  0  0
  -26.2200  -31.5890   25.2810 C   0  0  1  0  0  0  0  0  0  0  0  0
  -25.0620  -31.4340   26.2940 C   0  0  0  0  0  1  0  0  0  0  0  0
  -26.7300  -30.1730   24.9330 C   0  0  0  0  0  1  0  0  0  0  0  0
  -27.3870  -32.3170   25.9880 C   0  0  0  0  0  1  0  0  0  0  0  0
  1  3  2  0
  1  4  1  0
  3  5  1  0
  4  6  2  0
  5  7  1  0
  5  2  2  0
  6  2  1  0
  6 56  1  0
  9  8  1  0
  9  4  1  0
 10 12  1  0
 11 13  1  0
 11 10  1  0
 12 16  1  0
 13  9  1  0
 13 12  1  0
 13 14  1  6
 16 25  1  0
 16 15  1  0
 17 25  1  0
 18 23  1  0
 19 20  1  0
 19 18  1  0
 21 20  1  0
 21 30  1  0
 21 22  1  0
 23 17  1  0
 23 22  1  0
 24 17  2  0
 25 26  1  0
 27 28  2  0
 28 47  1  0
 29 28  1  0
 29 32  1  0
 30 31  1  0
 30 27  1  0
 31 29  2  0
 32 33  1  0
 33 34  2  0
 35 38  1  0
 35 34  1  0
 36 35  2  0
 37 36  1  0
 37 32  2  0
 38 39  1  0
 39 44  2  0
 39 40  1  0
 40 41  2  0
 41 42  1  0
 42 46  1  0
 43 42  2  0
 44 43  1  0
 45 44  1  0
 47 48  1  0
 48 51  1  0
 48 50  1  0
 49 47  2  0
 52 53  1  0
 52 27  1  0
 54 52  1  0
 56 55  1  0
 57 58  1  0
 57  3  1  0
 58 60  1  0
 59 70  2  0
 60 65  1  0
 61 69  1  0
 61 71  1  0
 62 68  1  0
 62 64  1  0
 63 69  1  0
 64 63  1  0
 65 64  2  0
 66 67  1  0
 66 60  2  0
 67 62  2  0
 68 61  1  0
 69 59  1  0
 71 73  2  0
 72 71  1  0
 74 72  1  0
 75 84  2  0
 75 80  1  0
 76 72  1  0
 76 80  1  0
 77 76  1  0
 78 79  1  0
 78 77  1  0
 79 75  1  0
 80 81  2  0
 81 82  1  0
 83 82  2  0
 84 83  1  0
 85 59  1  0
 85 86  1  0
 85 95  1  0
 86 89  1  0
 87 91  1  0
 87 86  1  0
 88 87  2  0
 91 90  1  0
 93 91  1  0
 93 94  1  0
 93 92  1  0
 95 98  1  1
 95 96  1  0
 97 95  1  0
M  ISO  4  17 100  25 100  57 101  58 101
M  END
>  <TORSDO>  (76) 
F 21

>  <SCORE>  (76) 
-13.629

>  <name>  (76) 
76

>  <ligand_id>  (76) 
76

>  <original_smiles>  (76) 
[H]c1c([H])c([H])c2c(c1[H])C([H])([H])C([H])([H])C([H])([H])C2([H])N([H])C(=O)C1([H])N(C(=O)C([H])(N([H])C(=O)C([H])(N([H])C([H])([H])[H])C([H])([H])[H])C(C([H])([H])[H])(C([H])([H])[H])C([H])([H])[H])C([H])([H])c2c([H])c(OC([H])([H])c3c([H])c(C([H])(C([H])([H])[H])[N+]4([H])C([H])([H])C([H])([H])C4([H])C([H])(N([H])C(=O)N4C([H])([H])C([H])([H])C([H])([H])C([H])(n5nc(-c6c([H])c([H])c(Oc7c([H])c([H])c(F)c([H])c7F)c([H])c6[H])c(C(=O)N([H])[H])c5N([H])[H])C4([H])[H])C([H])([H])[H])c(OC([H])([H])[H])c([H])c3C([H])([H])[H])c([H])c([H])c2C1([H])[H]

>  <smiles>  (76) 
[H]c1c([H])c([H])c2c(c1[H])C([H])([H])C([H])([H])C([H])([H])C2([H])N([H])C(=O)C1([H])N(C(=O)C([H])(N([H])C(=O)C([H])(N([H])C([H])([H])[H])C([H])([H])[H])C(C([H])([H])[H])(C([H])([H])[H])C([H])([H])[H])C([H])([H])c2c([H])c(OC([H])([H])c3c([H])c(C([H])(C([H])([H])[H])[N+]4([H])C([H])([H])C([H])([H])C4([H])C([H])(N([H])C(=O)N4C([H])([H])C([H])([H])C([H])([H])C([H])(n5nc(-c6c([H])c([H])c(Oc7c([H])c([H])c(F)c([H])c7F)c([H])c6[H])c(C(=O)N([H])[H])c5N([H])[H])C4([H])[H])C([H])([H])[H])c(OC([H])([H])[H])c([H])c3C([H])([H])[H])c([H])c([H])c2C1([H])[H]

$$$$
77:0:0
     RDKit          3D

 98107  0  0  1  0  0  0  0  0999 V2000
  -28.2950  -20.9010   21.4220 C   0  0  0  0  0  2  0  0  0  0  0  0
  -27.5400  -22.2360   21.4540 C   0  0  0  0  0  2  0  0  0  0  0  0
  -29.5160  -23.4680   22.1690 C   0  0  0  0  0  2  0  0  0  0  0  0
  -29.5610  -20.8870   22.3150 C   0  0  0  0  0  3  0  0  0  0  0  0
  -30.4020  -22.1960   22.2380 C   0  0  0  0  0  3  0  0  0  0  0  0
  -31.3980  -22.3060   23.4090 C   0  0  0  0  0  1  0  0  0  0  0  0
  -28.4520  -23.3650   21.1340 N   0  0  2  0  0  4  0  0  0  0  0  0
  -28.9020  -23.1160   20.2650 H   0  0  0  0  0  0  0  0  0  0  0  0
  -31.3440  -17.8670   20.6280 C   0  0  0  0  0  3  0  0  0  0  0  0
  -31.3280  -17.5130   23.0210 C   0  0  0  0  0  3  0  0  0  0  0  0
  -30.3810  -19.5930   22.0980 C   0  0  0  0  0  0  0  0  0  0  0  0
  -31.6140  -17.0510   21.7280 C   0  0  0  0  0  0  0  0  0  0  0  0
  -30.7550  -19.1330   20.7910 C   0  0  0  0  0  0  0  0  0  0  0  0
  -30.7310  -18.7760   23.2160 C   0  0  0  0  0  0  0  0  0  0  0  0
  -30.5770  -19.8980   19.4860 C   0  0  0  0  0  1  0  0  0  0  0  0
  -30.4980  -19.2020   24.6600 C   0  0  0  0  0  1  0  0  0  0  0  0
  -32.2020  -15.6790   21.4980 C   0  0  0  0  0  2  0  0  0  0  0  0
  -31.2680  -14.3740   19.5750 C   0  0  0  0  0  0  0  0  0  0  0  0
  -30.5780  -12.3840   18.2890 C   0  0  0  0  0  2  0  0  0  0  0  0
  -29.4880  -12.6330   17.2360 C   0  0  0  0  0  2  0  0  0  0  0  0
  -28.0880  -12.5630   17.8700 C   0  0  0  0  0  2  0  0  0  0  0  0
  -27.9740  -13.4490   19.1360 C   0  0  0  0  0  3  0  0  0  0  0  0
  -29.1370  -13.1590   20.1040 C   0  0  0  0  0  2  0  0  0  0  0  0
  -30.4120  -13.3450   19.3840 N   0  0  0  0  0  0  0  0  0  0  0  0
  -32.1140  -14.7390   18.7490 O   0  0  0  0  0  0  0  0  0  0  0  0
  -31.2490  -14.8070   20.8390 N   0  0  0  0  0  0  0  0  0  0  0  0
  -30.5370  -14.3970   21.4250 H   0  0  0  0  0  0  0  0  0  0  0  0
  -25.7730  -14.2320   20.2240 C   0  0  0  0  0  0  0  0  0  0  0  0
  -24.6960  -13.5390   20.7020 C   0  0  0  0  0  0  0  0  0  0  0  0
  -25.0100  -12.1560   20.5350 C   0  0  0  0  0  0  0  0  0  0  0  0
  -26.6800  -13.2750   19.7940 N   0  0  0  0  0  0  0  0  0  0  0  0
  -26.2290  -12.0180   20.0340 N   0  0  0  0  0  0  0  0  0  0  0  0
  -24.1960  -10.9550   20.7610 C   0  0  0  0  0  0  0  0  0  0  0  0
  -24.6130   -9.9350   21.6440 C   0  0  0  0  0  3  0  0  0  0  0  0
  -23.8040   -8.7970   21.8570 C   0  0  0  0  0  3  0  0  0  0  0  0
  -22.5620   -8.6740   21.1890 C   0  0  0  0  0  0  0  0  0  0  0  0
  -22.1630   -9.6820   20.2940 C   0  0  0  0  0  3  0  0  0  0  0  0
  -22.9730  -10.8110   20.0790 C   0  0  0  0  0  3  0  0  0  0  0  0
  -21.7230   -7.5940   21.3140 O   0  0  0  0  0  0  0  0  0  0  0  0
  -21.6300   -6.8890   22.4870 C   0  0  0  0  0  0  0  0  0  0  0  0
  -21.2600   -7.5080   23.7020 C   0  0  0  0  0  3  0  0  0  0  0  0
  -21.1090   -6.7330   24.8690 C   0  0  0  0  0  3  0  0  0  0  0  0
  -21.3150   -5.3410   24.8220 C   0  0  0  0  0  0  0  0  0  0  0  0
  -21.6770   -4.7230   23.6130 C   0  0  0  0  0  3  0  0  0  0  0  0
  -21.8310   -5.4940   22.4480 C   0  0  0  0  0  0  0  0  0  0  0  0
  -22.1590   -4.8900   21.2810 F   0  0  0  0  0  0  0  0  0  0  0  0
  -21.1620   -4.5950   25.9420 F   0  0  0  0  0  0  0  0  0  0  0  0
  -23.4070  -14.1210   21.2070 C   0  0  0  0  0  0  0  0  0  0  0  0
  -22.7630  -13.4570   22.1580 N   0  0  0  0  0  0  0  0  0  0  0  0
  -22.9880  -15.2000   20.7890 O   0  0  0  0  0  0  0  0  0  0  0  0
  -23.1200  -12.5810   22.5150 H   0  0  0  0  0  0  0  0  0  0  0  0
  -21.9020  -13.8270   22.5360 H   0  0  0  0  0  0  0  0  0  0  0  0
  -26.0520  -15.5910   20.0970 N   0  0  0  0  0  0  0  0  0  0  0  0
  -25.3870  -16.3100   20.3590 H   0  0  0  0  0  0  0  0  0  0  0  0
  -26.9060  -15.9620   19.7020 H   0  0  0  0  0  0  0  0  0  0  0  0
  -27.7110  -24.6360   20.8630 C   0  0  0  0  0  2  0  0  0  0  0  0
  -28.6170  -25.8680   20.5810 C   0  0  0  0  0  2  0  0  0  0  0  0
  -28.1970  -26.7180   19.5050 O   0  0  0  0  0  0  0  0  0  0  0  0
  -24.5740  -31.7000   23.1360 C   0  0  0  0  0  0  0  0  0  0  0  0
  -27.0460  -27.4470   19.6810 C   0  0  0  0  0  0  0  0  0  0  0  0
  -23.2930  -30.4220   21.4490 C   0  0  0  0  0  3  0  0  0  0  0  0
  -24.6760  -28.9700   19.8740 C   0  0  0  0  0  0  0  0  0  0  0  0
  -25.8140  -30.7710   21.1850 C   0  0  0  0  0  2  0  0  0  0  0  0
  -25.8610  -29.4420   20.4560 C   0  0  0  0  0  0  0  0  0  0  0  0
  -27.0520  -28.6850   20.3620 C   0  0  0  0  0  3  0  0  0  0  0  0
  -25.8510  -26.9910   19.0870 C   0  0  0  0  0  3  0  0  0  0  0  0
  -24.6640  -27.7420   19.1910 C   0  0  0  0  0  3  0  0  0  0  0  0
  -23.4440  -29.8360   20.0200 C   0  0  0  0  0  2  0  0  0  0  0  0
  -24.5810  -30.9760   21.9810 N   0  0  0  0  0  0  0  0  0  0  0  0
  -23.5150  -31.9460   23.7320 O   0  0  0  0  0  0  0  0  0  0  0  0
  -22.6700  -29.3400   22.3610 C   0  0  0  0  0  0  0  0  0  0  0  0
  -21.3460  -29.1490   22.2440 N   0  0  0  0  0  0  0  0  0  0  0  0
  -23.3750  -28.6790   23.1280 O   0  0  0  0  0  0  0  0  0  0  0  0
  -20.8410  -29.7300   21.5900 H   0  0  0  0  0  0  0  0  0  0  0  0
  -18.0030  -27.8470   22.6780 C   0  0  0  0  0  0  0  0  0  0  0  0
  -20.5510  -28.1620   22.9740 C   0  0  0  0  0  3  0  0  0  0  0  0
  -20.6950  -26.7560   22.3460 C   0  0  0  0  0  2  0  0  0  0  0  0
  -19.6080  -26.4430   21.3140 C   0  0  0  0  0  2  0  0  0  0  0  0
  -18.2180  -26.5280   21.9530 C   0  0  0  0  0  2  0  0  0  0  0  0
  -19.0990  -28.6220   23.1410 C   0  0  0  0  0  0  0  0  0  0  0  0
  -18.8440  -29.8570   23.7750 C   0  0  0  0  0  3  0  0  0  0  0  0
  -17.5270  -30.3200   23.9480 C   0  0  0  0  0  3  0  0  0  0  0  0
  -16.4450  -29.5420   23.5020 C   0  0  0  0  0  3  0  0  0  0  0  0
  -16.6840  -28.3060   22.8740 C   0  0  0  0  0  3  0  0  0  0  0  0
  -25.8890  -32.2780   23.7440 C   0  0  0  0  0  3  0  0  0  0  0  0
  -26.4630  -31.4050   24.9270 C   0  0  1  0  0  0  0  0  0  0  0  0
  -25.4220  -31.0780   26.0230 C   0  0  0  0  0  1  0  0  0  0  0  0
  -27.0220  -30.0640   24.3940 C   0  0  0  0  0  1  0  0  0  0  0  0
  -27.6480  -32.1430   25.5950 C   0  0  0  0  0  1  0  0  0  0  0  0
  -25.6020  -33.6450   24.1990 N   0  0  0  0  0  0  0  0  0  0  0  0
  -25.9250  -34.7530   23.5210 C   0  0  0  0  0  0  0  0  0  0  0  0
  -26.5710  -34.7310   22.4700 O   0  0  0  0  0  0  0  0  0  0  0  0
  -25.0320  -33.7340   25.0280 H   0  0  0  0  0  0  0  0  0  0  0  0
  -24.2000  -36.5730   23.3530 C   0  0  0  0  0  1  0  0  0  0  0  0
  -25.4570  -36.1020   24.1000 C   0  0  0  0  0  3  0  0  0  0  0  0
  -27.6160  -36.8980   24.9550 C   0  0  0  0  0  1  0  0  0  0  0  0
  -26.4940  -37.1540   24.0540 N   0  0  0  0  0  0  0  0  0  0  0  0
  -26.0990  -38.0600   24.2900 H   0  0  0  0  0  0  0  0  0  0  0  0
  1  2  1  0
  1  4  1  0
  3  5  1  0
  4 11  1  0
  5  4  1  0
  5  6  1  0
  7  2  1  0
  7  3  1  0
  7  8  1  6
  9 13  2  0
  9 12  1  0
 10 14  1  0
 11 14  2  0
 12 10  2  0
 13 11  1  0
 14 16  1  0
 15 13  1  0
 17 12  1  0
 18 26  1  0
 19 24  1  0
 20 21  1  0
 20 19  1  0
 22 21  1  0
 22 31  1  0
 22 23  1  0
 24 18  1  0
 24 23  1  0
 25 18  2  0
 26 27  1  0
 26 17  1  0
 28 29  2  0
 29 48  1  0
 30 29  1  0
 30 33  1  0
 31 32  1  0
 31 28  1  0
 32 30  2  0
 33 34  1  0
 34 35  2  0
 36 39  1  0
 36 35  1  0
 37 36  2  0
 38 37  1  0
 38 33  2  0
 39 40  1  0
 40 41  1  0
 41 42  2  0
 43 42  1  0
 43 47  1  0
 44 43  2  0
 45 40  2  0
 45 44  1  0
 46 45  1  0
 48 49  1  0
 49 51  1  0
 49 52  1  0
 50 48  2  0
 53 28  1  0
 53 54  1  0
 55 53  1  0
 56  7  1  0
 57 56  1  0
 58 60  1  0
 58 57  1  0
 59 70  2  0
 60 65  1  0
 61 69  1  0
 61 71  1  0
 62 68  1  0
 62 64  1  0
 63 69  1  0
 64 63  1  0
 65 64  2  0
 66 67  1  0
 66 60  2  0
 67 62  2  0
 68 61  1  0
 69 59  1  0
 71 73  2  0
 72 71  1  0
 74 72  1  0
 75 84  2  0
 75 80  1  0
 76 72  1  0
 76 80  1  0
 77 76  1  0
 78 79  1  0
 78 77  1  0
 79 75  1  0
 80 81  2  0
 81 82  1  0
 83 82  2  0
 84 83  1  0
 85 59  1  0
 85 90  1  0
 85 86  1  0
 86 89  1  1
 86 87  1  0
 88 86  1  0
 90 93  1  0
 91 95  1  0
 91 90  1  0
 92 91  2  0
 95 94  1  0
 97 95  1  0
 97 98  1  0
 97 96  1  0
M  ISO  4  18 100  26 100  57 101  58 101
M  END
>  <TORSDO>  (77) 
F 20

>  <SCORE>  (77) 
-8.203

>  <name>  (77) 
77

>  <ligand_id>  (77) 
77

>  <original_smiles>  (77) 
[H]c1c([H])c([H])c2c(c1[H])C([H])([H])C([H])([H])C([H])([H])C2([H])N([H])C(=O)C1([H])N(C(=O)C([H])(N([H])C(=O)C([H])(N([H])C([H])([H])[H])C([H])([H])[H])C(C([H])([H])[H])(C([H])([H])[H])C([H])([H])[H])C([H])([H])c2c([H])c(OC([H])([H])C([H])([H])[N+]3([H])C([H])([H])C([H])([H])C([H])(c4c(C([H])([H])[H])c([H])c(C([H])([H])N([H])C(=O)N5C([H])([H])C([H])([H])C([H])([H])C([H])(n6nc(-c7c([H])c([H])c(Oc8c([H])c([H])c(F)c([H])c8F)c([H])c7[H])c(C(=O)N([H])[H])c6N([H])[H])C5([H])[H])c([H])c4C([H])([H])[H])C([H])(C([H])([H])[H])C3([H])[H])c([H])c([H])c2C1([H])[H]

>  <smiles>  (77) 
[H]c1c([H])c([H])c2c(c1[H])C([H])([H])C([H])([H])C([H])([H])C2([H])N([H])C(=O)C1([H])N(C(=O)C([H])(N([H])C(=O)C([H])(N([H])C([H])([H])[H])C([H])([H])[H])C(C([H])([H])[H])(C([H])([H])[H])C([H])([H])[H])C([H])([H])c2c([H])c(OC([H])([H])C([H])([H])[N+]3([H])C([H])([H])C([H])([H])C([H])(c4c(C([H])([H])[H])c([H])c(C([H])([H])N([H])C(=O)N5C([H])([H])C([H])([H])C([H])([H])C([H])(n6nc(-c7c([H])c([H])c(Oc8c([H])c([H])c(F)c([H])c8F)c([H])c7[H])c(C(=O)N([H])[H])c6N([H])[H])C5([H])[H])c([H])c4C([H])([H])[H])C([H])(C([H])([H])[H])C3([H])[H])c([H])c([H])c2C1([H])[H]

$$$$
78:0:0
     RDKit          3D

 93101  0  0  1  0  0  0  0  0999 V2000
  -29.7250  -22.2050   22.0040 C   0  0  0  0  0  3  0  0  0  0  0  0
  -29.8400  -20.8200   22.2330 C   0  0  0  0  0  0  0  0  0  0  0  0
  -29.4560  -19.9290   21.2000 C   0  0  0  0  0  0  0  0  0  0  0  0
  -28.9670  -20.4870   19.9920 C   0  0  0  0  0  0  0  0  0  0  0  0
  -29.2130  -22.6620   20.7830 C   0  0  0  0  0  0  0  0  0  0  0  0
  -30.3760  -20.3370   23.5700 C   0  0  0  0  0  1  0  0  0  0  0  0
  -28.5610  -19.6250   18.8090 C   0  0  0  0  0  1  0  0  0  0  0  0
  -28.8340  -21.8170   19.8000 N   0  0  0  0  0  0  0  0  0  0  0  0
  -29.5750  -18.4110   21.3850 C   0  0  0  0  0  2  0  0  0  0  0  0
  -30.9500  -17.8700   20.9500 C   0  0  0  0  0  2  0  0  0  0  0  0
  -31.3530  -16.5360   21.6120 C   0  0  0  0  0  2  0  0  0  0  0  0
  -31.0790  -14.5070   20.1930 C   0  0  0  0  0  0  0  0  0  0  0  0
  -30.6670  -12.3940   18.9840 C   0  0  0  0  0  2  0  0  0  0  0  0
  -29.7030  -12.6110   17.8020 C   0  0  0  0  0  2  0  0  0  0  0  0
  -28.2380  -12.5010   18.2650 C   0  0  0  0  0  2  0  0  0  0  0  0
  -27.9470  -13.3580   19.5250 C   0  0  0  0  0  3  0  0  0  0  0  0
  -29.0140  -13.1150   20.6140 C   0  0  0  0  0  2  0  0  0  0  0  0
  -30.3400  -13.3790   20.0260 N   0  0  0  0  0  0  0  0  0  0  0  0
  -32.1170  -14.7330   19.5640 O   0  0  0  0  0  0  0  0  0  0  0  0
  -30.6210  -15.3700   21.1120 N   0  0  0  0  0  0  0  0  0  0  0  0
  -29.7590  -15.1230   21.5760 H   0  0  0  0  0  0  0  0  0  0  0  0
  -25.5740  -14.0220   20.2730 C   0  0  0  0  0  0  0  0  0  0  0  0
  -24.4970  -13.2730   20.6690 C   0  0  0  0  0  0  0  0  0  0  0  0
  -24.9310  -11.9130   20.6400 C   0  0  0  0  0  0  0  0  0  0  0  0
  -26.5960  -13.1170   20.0300 N   0  0  0  0  0  0  0  0  0  0  0  0
  -26.2130  -11.8450   20.3060 N   0  0  0  0  0  0  0  0  0  0  0  0
  -24.1840  -10.6660   20.8540 C   0  0  0  0  0  0  0  0  0  0  0  0
  -24.5930   -9.7150   21.8150 C   0  0  0  0  0  3  0  0  0  0  0  0
  -23.8480   -8.5340   22.0140 C   0  0  0  0  0  3  0  0  0  0  0  0
  -22.6790   -8.2950   21.2530 C   0  0  0  0  0  0  0  0  0  0  0  0
  -22.2890   -9.2340   20.2820 C   0  0  0  0  0  3  0  0  0  0  0  0
  -23.0340  -10.4070   20.0800 C   0  0  0  0  0  3  0  0  0  0  0  0
  -21.9050   -7.1640   21.3600 O   0  0  0  0  0  0  0  0  0  0  0  0
  -21.8020   -6.4720   22.5420 C   0  0  0  0  0  0  0  0  0  0  0  0
  -21.3410   -7.0870   23.7270 C   0  0  0  0  0  3  0  0  0  0  0  0
  -21.1840   -6.3230   24.9010 C   0  0  0  0  0  3  0  0  0  0  0  0
  -21.4780   -4.9460   24.8900 C   0  0  0  0  0  0  0  0  0  0  0  0
  -21.9310   -4.3320   23.7100 C   0  0  0  0  0  3  0  0  0  0  0  0
  -22.0900   -5.0930   22.5380 C   0  0  0  0  0  0  0  0  0  0  0  0
  -22.5080   -4.4920   21.3970 F   0  0  0  0  0  0  0  0  0  0  0  0
  -21.3190   -4.2100   26.0150 F   0  0  0  0  0  0  0  0  0  0  0  0
  -23.1160  -13.7810   20.9670 C   0  0  0  0  0  0  0  0  0  0  0  0
  -22.3950  -13.1070   21.8560 N   0  0  0  0  0  0  0  0  0  0  0  0
  -22.6850  -14.8090   20.4450 O   0  0  0  0  0  0  0  0  0  0  0  0
  -22.7550  -12.2740   22.2960 H   0  0  0  0  0  0  0  0  0  0  0  0
  -21.4670  -13.4270   22.0990 H   0  0  0  0  0  0  0  0  0  0  0  0
  -25.7630  -15.3870   20.0810 N   0  0  0  0  0  0  0  0  0  0  0  0
  -25.0140  -16.0610   20.2000 H   0  0  0  0  0  0  0  0  0  0  0  0
  -26.6210  -15.8030   19.7400 H   0  0  0  0  0  0  0  0  0  0  0  0
  -29.1230  -24.0220   20.5730 O   0  0  0  0  0  0  0  0  0  0  0  0
  -28.3380  -24.5030   19.4840 C   0  0  0  0  0  2  0  0  0  0  0  0
  -28.7770  -25.9340   19.1190 C   0  0  0  0  0  2  0  0  0  0  0  0
  -28.5120  -26.9010   20.1380 O   0  0  0  0  0  0  0  0  0  0  0  0
  -24.6250  -31.9500   23.2780 C   0  0  0  0  0  0  0  0  0  0  0  0
  -27.3030  -27.5640   20.1420 C   0  0  0  0  0  0  0  0  0  0  0  0
  -23.4250  -30.5480   21.6320 C   0  0  0  0  0  3  0  0  0  0  0  0
  -24.8850  -29.0300   20.1950 C   0  0  0  0  0  0  0  0  0  0  0  0
  -25.9460  -30.9290   21.4280 C   0  0  0  0  0  2  0  0  0  0  0  0
  -26.0370  -29.5610   20.7850 C   0  0  0  0  0  0  0  0  0  0  0  0
  -27.2430  -28.8280   20.7690 C   0  0  0  0  0  3  0  0  0  0  0  0
  -26.1290  -27.0410   19.5530 C   0  0  0  0  0  3  0  0  0  0  0  0
  -24.9230  -27.7660   19.5820 C   0  0  0  0  0  3  0  0  0  0  0  0
  -23.6340  -29.8760   20.2480 C   0  0  0  0  0  2  0  0  0  0  0  0
  -24.6840  -31.1570   22.1710 N   0  0  0  0  0  0  0  0  0  0  0  0
  -23.5440  -32.2100   23.8220 O   0  0  0  0  0  0  0  0  0  0  0  0
  -22.7890  -29.5130   22.5880 C   0  0  0  0  0  0  0  0  0  0  0  0
  -21.4670  -29.3120   22.4570 N   0  0  0  0  0  0  0  0  0  0  0  0
  -23.4810  -28.8960   23.4030 O   0  0  0  0  0  0  0  0  0  0  0  0
  -20.9690  -29.8650   21.7750 H   0  0  0  0  0  0  0  0  0  0  0  0
  -18.1120  -28.0650   22.9430 C   0  0  0  0  0  0  0  0  0  0  0  0
  -20.6640  -28.3600   23.2250 C   0  0  0  0  0  3  0  0  0  0  0  0
  -20.7890  -26.9320   22.6480 C   0  0  0  0  0  2  0  0  0  0  0  0
  -19.6970  -26.5930   21.6280 C   0  0  0  0  0  2  0  0  0  0  0  0
  -18.3110  -26.7190   22.2670 C   0  0  0  0  0  2  0  0  0  0  0  0
  -19.2180  -28.8430   23.3780 C   0  0  0  0  0  0  0  0  0  0  0  0
  -18.9790  -30.1030   23.9680 C   0  0  0  0  0  3  0  0  0  0  0  0
  -17.6660  -30.5870   24.1260 C   0  0  0  0  0  3  0  0  0  0  0  0
  -16.5750  -29.8060   23.7060 C   0  0  0  0  0  3  0  0  0  0  0  0
  -16.7980  -28.5470   23.1220 C   0  0  0  0  0  3  0  0  0  0  0  0
  -25.9080  -32.5890   23.8930 C   0  0  0  0  0  3  0  0  0  0  0  0
  -25.5920  -33.9880   24.2110 N   0  0  0  0  0  0  0  0  0  0  0  0
  -25.9300  -35.0360   23.4470 C   0  0  0  0  0  0  0  0  0  0  0  0
  -26.6090  -34.9260   22.4230 O   0  0  0  0  0  0  0  0  0  0  0  0
  -24.9790  -34.1450   24.9960 H   0  0  0  0  0  0  0  0  0  0  0  0
  -24.1980  -36.8220   23.0650 C   0  0  0  0  0  1  0  0  0  0  0  0
  -25.4350  -36.4260   23.8890 C   0  0  0  0  0  3  0  0  0  0  0  0
  -27.5630  -37.3230   24.7260 C   0  0  0  0  0  1  0  0  0  0  0  0
  -26.4650  -37.4810   23.7750 N   0  0  0  0  0  0  0  0  0  0  0  0
  -26.0570  -38.4020   23.9140 H   0  0  0  0  0  0  0  0  0  0  0  0
  -26.4290  -31.8260   25.1730 C   0  0  1  0  0  0  0  0  0  0  0  0
  -25.3350  -31.5730   26.2350 C   0  0  0  0  0  1  0  0  0  0  0  0
  -27.0320  -30.4540   24.7860 C   0  0  0  0  0  1  0  0  0  0  0  0
  -27.5680  -32.6330   25.8370 C   0  0  0  0  0  1  0  0  0  0  0  0
  1  2  2  0
  2  6  1  0
  3  9  1  0
  3  2  1  0
  4  3  2  0
  5  1  1  0
  7  4  1  0
  8  4  1  0
  8  5  2  0
 10  9  1  0
 10 11  1  0
 12 20  1  0
 13 18  1  0
 14 15  1  0
 14 13  1  0
 16 15  1  0
 16 25  1  0
 16 17  1  0
 18 12  1  0
 18 17  1  0
 19 12  2  0
 20 21  1  0
 20 11  1  0
 22 23  2  0
 23 42  1  0
 24 23  1  0
 24 27  1  0
 25 22  1  0
 25 26  1  0
 26 24  2  0
 27 28  1  0
 28 29  2  0
 30 33  1  0
 30 29  1  0
 31 30  2  0
 32 31  1  0
 32 27  2  0
 33 34  1  0
 34 35  1  0
 35 36  2  0
 37 36  1  0
 37 41  1  0
 38 37  2  0
 39 34  2  0
 39 38  1  0
 40 39  1  0
 42 43  1  0
 43 46  1  0
 43 45  1  0
 44 42  2  0
 47 48  1  0
 47 22  1  0
 49 47  1  0
 50  5  1  0
 51 50  1  0
 52 51  1  0
 52 53  1  0
 53 55  1  0
 54 65  2  0
 55 60  1  0
 56 64  1  0
 56 66  1  0
 57 63  1  0
 57 59  1  0
 58 64  1  0
 59 58  1  0
 60 59  2  0
 61 62  1  0
 61 55  2  0
 62 57  2  0
 63 56  1  0
 64 54  1  0
 66 68  2  0
 67 66  1  0
 69 67  1  0
 70 79  2  0
 70 75  1  0
 71 67  1  0
 71 75  1  0
 72 71  1  0
 73 74  1  0
 73 72  1  0
 74 70  1  0
 75 76  2  0
 76 77  1  0
 78 77  2  0
 79 78  1  0
 80 54  1  0
 80 81  1  0
 80 90  1  0
 81 84  1  0
 82 86  1  0
 82 81  1  0
 83 82  2  0
 86 85  1  0
 88 86  1  0
 88 89  1  0
 88 87  1  0
 90 93  1  1
 90 91  1  0
 92 90  1  0
M  ISO  4  12 100  20 100  52 101  53 101
M  END
>  <TORSDO>  (78) 
F 22

>  <SCORE>  (78) 
-12.349

>  <name>  (78) 
78

>  <ligand_id>  (78) 
78

>  <original_smiles>  (78) 
[H]c1c([H])c([H])c2c(c1[H])C([H])([H])C([H])([H])C([H])([H])C2([H])N([H])C(=O)C1([H])N(C(=O)C([H])(N([H])C(=O)C([H])(N([H])C([H])([H])[H])C([H])([H])[H])C(C([H])([H])[H])(C([H])([H])[H])C([H])([H])[H])C([H])([H])c2c([H])c(OC([H])([H])C([H])([H])Oc3nc(C([H])([H])[H])c(C([H])([H])C([H])([H])C([H])([H])N([H])C(=O)N4C([H])([H])C([H])([H])C([H])([H])C([H])(n5nc(-c6c([H])c([H])c(Oc7c([H])c([H])c(F)c([H])c7F)c([H])c6[H])c(C(=O)N([H])[H])c5N([H])[H])C4([H])[H])c(C([H])([H])[H])c3[H])c([H])c([H])c2C1([H])[H]

>  <smiles>  (78) 
[H]c1c([H])c([H])c2c(c1[H])C([H])([H])C([H])([H])C([H])([H])C2([H])N([H])C(=O)C1([H])N(C(=O)C([H])(N([H])C(=O)C([H])(N([H])C([H])([H])[H])C([H])([H])[H])C(C([H])([H])[H])(C([H])([H])[H])C([H])([H])[H])C([H])([H])c2c([H])c(OC([H])([H])C([H])([H])Oc3nc(C([H])([H])[H])c(C([H])([H])C([H])([H])C([H])([H])N([H])C(=O)N4C([H])([H])C([H])([H])C([H])([H])C([H])(n5nc(-c6c([H])c([H])c(Oc7c([H])c([H])c(F)c([H])c7F)c([H])c6[H])c(C(=O)N([H])[H])c5N([H])[H])C4([H])[H])c(C([H])([H])[H])c3[H])c([H])c([H])c2C1([H])[H]

$$$$
79:0:0
     RDKit          3D

 95104  0  0  1  0  0  0  0  0999 V2000
  -28.2780  -23.3840   20.4930 C   0  0  0  0  0  2  0  0  0  0  0  0
  -29.7430  -24.5900   19.0300 C   0  0  0  0  0  2  0  0  0  0  0  0
  -28.9760  -22.2250   19.5780 C   0  0  0  0  0  3  0  0  0  0  0  0
  -30.1980  -23.0810   19.1630 C   0  0  0  0  0  3  0  0  0  0  0  0
  -28.3630  -24.8240   19.7040 C   0  0  0  0  0  3  0  0  0  0  0  0
  -29.2850  -18.1480   19.0900 C   0  0  0  0  0  3  0  0  0  0  0  0
  -30.0200  -18.5980   21.2690 C   0  0  0  0  0  3  0  0  0  0  0  0
  -29.2520  -20.6040   19.8680 C   0  0  0  0  0  0  0  0  0  0  0  0
  -29.0250  -19.5620   18.8770 C   0  0  0  0  0  0  0  0  0  0  0  0
  -29.7880  -17.5660   20.2900 C   0  0  0  0  0  0  0  0  0  0  0  0
  -29.7850  -20.0260   21.0730 C   0  0  0  0  0  0  0  0  0  0  0  0
  -28.4690  -19.8780   17.4920 C   0  0  0  0  0  1  0  0  0  0  0  0
  -30.0730  -20.8620   22.0980 F   0  0  0  0  0  0  0  0  0  0  0  0
  -29.7680  -16.1270   20.5610 O   0  0  0  0  0  0  0  0  0  0  0  0
  -30.6550  -14.9840   20.1120 C   0  0  0  0  0  0  0  0  0  0  0  0
  -30.4520  -12.6520   19.0980 C   0  0  0  0  0  2  0  0  0  0  0  0
  -29.4730  -12.7210   17.9020 C   0  0  0  0  0  2  0  0  0  0  0  0
  -28.0180  -12.5300   18.3720 C   0  0  0  0  0  2  0  0  0  0  0  0
  -27.6760  -13.3960   19.6120 C   0  0  0  0  0  3  0  0  0  0  0  0
  -28.7630  -13.3190   20.7030 C   0  0  0  0  0  2  0  0  0  0  0  0
  -30.0400  -13.6830   20.0840 N   0  0  0  0  0  0  0  0  0  0  0  0
  -31.8000  -15.1360   19.6770 O   0  0  0  0  0  0  0  0  0  0  0  0
  -25.3250  -13.9700   20.4420 C   0  0  0  0  0  0  0  0  0  0  0  0
  -24.2700  -13.1920   20.8350 C   0  0  0  0  0  0  0  0  0  0  0  0
  -24.7260  -11.8400   20.7590 C   0  0  0  0  0  0  0  0  0  0  0  0
  -26.3530  -13.0920   20.1450 N   0  0  0  0  0  0  0  0  0  0  0  0
  -26.0050  -11.8050   20.4010 N   0  0  0  0  0  0  0  0  0  0  0  0
  -24.0000  -10.5770   20.9530 C   0  0  0  0  0  0  0  0  0  0  0  0
  -24.4240   -9.6160   21.8970 C   0  0  0  0  0  3  0  0  0  0  0  0
  -23.6960   -8.4200   22.0780 C   0  0  0  0  0  3  0  0  0  0  0  0
  -22.5300   -8.1760   21.3140 C   0  0  0  0  0  0  0  0  0  0  0  0
  -22.1250   -9.1260   20.3590 C   0  0  0  0  0  3  0  0  0  0  0  0
  -22.8530  -10.3130   20.1760 C   0  0  0  0  0  3  0  0  0  0  0  0
  -21.7750   -7.0310   21.4030 O   0  0  0  0  0  0  0  0  0  0  0  0
  -21.6670   -6.3300   22.5770 C   0  0  0  0  0  0  0  0  0  0  0  0
  -21.1510   -6.9180   23.7520 C   0  0  0  0  0  3  0  0  0  0  0  0
  -20.9920   -6.1410   24.9170 C   0  0  0  0  0  3  0  0  0  0  0  0
  -21.3380   -4.7770   24.9060 C   0  0  0  0  0  0  0  0  0  0  0  0
  -21.8480   -4.1880   23.7350 C   0  0  0  0  0  3  0  0  0  0  0  0
  -22.0070   -4.9620   22.5730 C   0  0  0  0  0  0  0  0  0  0  0  0
  -22.4790   -4.3840   21.4420 F   0  0  0  0  0  0  0  0  0  0  0  0
  -21.1800   -4.0280   26.0230 F   0  0  0  0  0  0  0  0  0  0  0  0
  -22.8870  -13.6700   21.1670 C   0  0  0  0  0  0  0  0  0  0  0  0
  -22.1870  -12.9580   22.0440 N   0  0  0  0  0  0  0  0  0  0  0  0
  -22.4370  -14.7080   20.6840 O   0  0  0  0  0  0  0  0  0  0  0  0
  -22.5660  -12.1180   22.4550 H   0  0  0  0  0  0  0  0  0  0  0  0
  -21.2590  -13.2590   22.3090 H   0  0  0  0  0  0  0  0  0  0  0  0
  -25.4900  -15.3440   20.2900 N   0  0  0  0  0  0  0  0  0  0  0  0
  -24.7380  -16.0040   20.4490 H   0  0  0  0  0  0  0  0  0  0  0  0
  -26.3440  -15.7840   19.9710 H   0  0  0  0  0  0  0  0  0  0  0  0
  -30.8920  -22.5850   17.9570 N   0  0  0  0  0  4  0  0  0  0  0  0
  -30.2970  -22.6170   17.1480 H   0  0  0  0  0  0  0  0  0  0  0  0
  -31.2000  -21.6380   18.0970 H   0  0  0  0  0  0  0  0  0  0  0  0
  -31.7060  -23.1420   17.7680 H   0  0  0  0  0  0  0  0  0  0  0  0
  -28.2780  -26.2810   20.2360 O   0  0  0  0  0  0  0  0  0  0  0  0
  -24.5980  -31.8760   23.2180 C   0  0  0  0  0  0  0  0  0  0  0  0
  -27.1750  -27.1990   20.1490 C   0  0  0  0  0  0  0  0  0  0  0  0
  -23.3870  -30.4810   21.5820 C   0  0  0  0  0  3  0  0  0  0  0  0
  -24.8270  -28.9150   20.1390 C   0  0  0  0  0  0  0  0  0  0  0  0
  -25.9350  -30.7590   21.3970 C   0  0  0  0  0  2  0  0  0  0  0  0
  -26.0060  -29.3720   20.7390 C   0  0  0  0  0  0  0  0  0  0  0  0
  -27.1740  -28.5290   20.7300 C   0  0  0  0  0  3  0  0  0  0  0  0
  -25.9650  -26.8290   19.5210 C   0  0  0  0  0  3  0  0  0  0  0  0
  -24.8180  -27.6550   19.5170 C   0  0  0  0  0  3  0  0  0  0  0  0
  -23.5940  -29.8040   20.1990 C   0  0  0  0  0  2  0  0  0  0  0  0
  -24.6610  -31.0610   22.1200 N   0  0  0  0  0  0  0  0  0  0  0  0
  -23.5170  -32.1550   23.7590 O   0  0  0  0  0  0  0  0  0  0  0  0
  -22.7200  -29.4720   22.5490 C   0  0  0  0  0  0  0  0  0  0  0  0
  -21.3930  -29.2930   22.4280 N   0  0  0  0  0  0  0  0  0  0  0  0
  -23.4010  -28.8510   23.3690 O   0  0  0  0  0  0  0  0  0  0  0  0
  -20.9010  -29.8450   21.7410 H   0  0  0  0  0  0  0  0  0  0  0  0
  -18.0210  -28.0800   22.9460 C   0  0  0  0  0  0  0  0  0  0  0  0
  -20.5800  -28.3530   23.2050 C   0  0  0  0  0  3  0  0  0  0  0  0
  -20.6860  -26.9210   22.6310 C   0  0  0  0  0  2  0  0  0  0  0  0
  -19.5810  -26.5950   21.6190 C   0  0  0  0  0  2  0  0  0  0  0  0
  -18.2020  -26.7320   22.2680 C   0  0  0  0  0  2  0  0  0  0  0  0
  -19.1380  -28.8480   23.3720 C   0  0  0  0  0  0  0  0  0  0  0  0
  -18.9140  -30.1070   23.9680 C   0  0  0  0  0  3  0  0  0  0  0  0
  -17.6080  -30.6010   24.1400 C   0  0  0  0  0  3  0  0  0  0  0  0
  -16.5060  -29.8310   23.7320 C   0  0  0  0  0  3  0  0  0  0  0  0
  -16.7130  -28.5720   23.1410 C   0  0  0  0  0  3  0  0  0  0  0  0
  -25.8820  -32.5120   23.8360 C   0  0  0  0  0  3  0  0  0  0  0  0
  -26.4050  -31.7370   25.1070 C   0  0  1  0  0  0  0  0  0  0  0  0
  -25.3210  -31.4930   26.1820 C   0  0  0  0  0  1  0  0  0  0  0  0
  -26.9890  -30.3620   24.7100 C   0  0  0  0  0  1  0  0  0  0  0  0
  -27.5560  -32.5330   25.7680 C   0  0  0  0  0  1  0  0  0  0  0  0
  -25.5680  -33.9070   24.1820 N   0  0  0  0  0  0  0  0  0  0  0  0
  -25.8790  -34.9700   23.4290 C   0  0  0  0  0  0  0  0  0  0  0  0
  -26.5260  -34.8810   22.3830 O   0  0  0  0  0  0  0  0  0  0  0  0
  -24.9910  -34.0490   24.9980 H   0  0  0  0  0  0  0  0  0  0  0  0
  -24.1300  -36.7560   23.1380 C   0  0  0  0  0  1  0  0  0  0  0  0
  -25.3950  -36.3520   23.9120 C   0  0  0  0  0  3  0  0  0  0  0  0
  -27.5410  -37.2490   24.6970 C   0  0  0  0  0  1  0  0  0  0  0  0
  -26.4160  -37.4150   23.7800 N   0  0  0  0  0  0  0  0  0  0  0  0
  -26.0050  -38.3310   23.9420 H   0  0  0  0  0  0  0  0  0  0  0  0
  2  4  1  0
  2  5  1  0
  3  8  1  0
  3  1  1  0
  4 51  1  0
  4  3  1  0
  5 55  1  0
  5  1  1  0
  6 10  1  0
  8 11  2  0
  9  6  2  0
  9  8  1  0
 10 14  1  0
 10  7  2  0
 11  7  1  0
 11 13  1  0
 12  9  1  0
 15 14  1  0
 16 21  1  0
 17 18  1  0
 17 16  1  0
 19 18  1  0
 19 26  1  0
 19 20  1  0
 21 15  1  0
 21 20  1  0
 22 15  2  0
 23 24  2  0
 24 43  1  0
 25 24  1  0
 25 28  1  0
 26 27  1  0
 26 23  1  0
 27 25  2  0
 28 29  1  0
 29 30  2  0
 31 34  1  0
 31 30  1  0
 32 31  2  0
 33 32  1  0
 33 28  2  0
 34 35  1  0
 35 36  1  0
 36 37  2  0
 38 37  1  0
 38 42  1  0
 39 38  2  0
 40 35  2  0
 40 39  1  0
 41 40  1  0
 43 44  1  0
 44 47  1  0
 44 46  1  0
 45 43  2  0
 48 23  1  0
 48 49  1  0
 50 48  1  0
 51 53  1  0
 52 51  1  0
 54 51  1  0
 56 67  2  0
 57 55  1  0
 57 62  1  0
 58 66  1  0
 58 68  1  0
 59 65  1  0
 59 61  1  0
 60 66  1  0
 61 60  1  0
 62 61  2  0
 63 57  2  0
 64 63  1  0
 64 59  2  0
 65 58  1  0
 66 56  1  0
 68 70  2  0
 69 68  1  0
 71 69  1  0
 72 81  2  0
 72 77  1  0
 73 69  1  0
 73 77  1  0
 74 73  1  0
 75 76  1  0
 75 74  1  0
 76 72  1  0
 77 78  2  0
 78 79  1  0
 80 79  2  0
 81 80  1  0
 82 56  1  0
 82 87  1  0
 82 83  1  0
 83 86  1  1
 83 84  1  0
 85 83  1  0
 87 90  1  0
 88 92  1  0
 88 87  1  0
 89 88  2  0
 92 91  1  0
 94 92  1  0
 94 95  1  0
 94 93  1  0
M  ISO  4   5 101  14 100  15 100  55 101
M  END
>  <TORSDO>  (79) 
F 19

>  <SCORE>  (79) 
-14.487

>  <name>  (79) 
79

>  <ligand_id>  (79) 
79

>  <original_smiles>  (79) 
[H]c1c([H])c([H])c2c(c1[H])C([H])([H])C([H])([H])C([H])([H])C2([H])N([H])C(=O)C1([H])N(C(=O)C([H])(N([H])C(=O)C([H])(N([H])C([H])([H])[H])C([H])([H])[H])C(C([H])([H])[H])(C([H])([H])[H])C([H])([H])[H])C([H])([H])c2c([H])c(OC3([H])C([H])([H])C([H])(c4c(F)c([H])c(OC(=O)N5C([H])([H])C([H])([H])C([H])([H])C([H])(n6nc(-c7c([H])c([H])c(Oc8c([H])c([H])c(F)c([H])c8F)c([H])c7[H])c(C(=O)N([H])[H])c6N([H])[H])C5([H])[H])c([H])c4C([H])([H])[H])C([H])([N+]([H])([H])[H])C3([H])[H])c([H])c([H])c2C1([H])[H]

>  <smiles>  (79) 
[H]c1c([H])c([H])c2c(c1[H])C([H])([H])C([H])([H])C([H])([H])C2([H])N([H])C(=O)C1([H])N(C(=O)C([H])(N([H])C(=O)C([H])(N([H])C([H])([H])[H])C([H])([H])[H])C(C([H])([H])[H])(C([H])([H])[H])C([H])([H])[H])C([H])([H])c2c([H])c(OC3([H])C([H])([H])C([H])(c4c(F)c([H])c(OC(=O)N5C([H])([H])C([H])([H])C([H])([H])C([H])(n6nc(-c7c([H])c([H])c(Oc8c([H])c([H])c(F)c([H])c8F)c([H])c7[H])c(C(=O)N([H])[H])c6N([H])[H])C5([H])[H])c([H])c4C([H])([H])[H])C([H])([N+]([H])([H])[H])C3([H])[H])c([H])c([H])c2C1([H])[H]

$$$$
80:0:0
     RDKit          3D

 95103  0  0  1  0  0  0  0  0999 V2000
  -32.1360  -21.5640   20.4150 C   0  0  0  0  0  3  0  0  0  0  0  0
  -32.0650  -19.0710   21.5470 C   0  0  0  0  0  3  0  0  0  0  0  0
  -31.0640  -20.7120   20.0720 C   0  0  0  0  0  0  0  0  0  0  0  0
  -31.0440  -19.4050   20.6230 C   0  0  0  0  0  0  0  0  0  0  0  0
  -33.1170  -21.1140   21.3140 C   0  0  0  0  0  0  0  0  0  0  0  0
  -34.2980  -21.9880   21.6700 C   0  0  0  0  0  1  0  0  0  0  0  0
  -33.0740  -19.8980   21.8900 N   0  0  0  0  0  0  0  0  0  0  0  0
  -30.4430  -21.2350   17.6600 C   0  0  0  0  0  1  0  0  0  0  0  0
  -29.9610  -21.1910   19.1180 C   0  0  0  0  0  3  0  0  0  0  0  0
  -29.2790  -22.5070   19.5600 C   0  0  0  0  0  2  0  0  0  0  0  0
  -30.1020  -23.6520   19.3410 O   0  0  0  0  0  0  0  0  0  0  0  0
  -29.7700  -24.7770   20.1490 C   0  0  0  0  0  2  0  0  0  0  0  0
  -28.3700  -25.3400   19.8570 C   0  0  0  0  0  2  0  0  0  0  0  0
  -28.2990  -26.6370   20.4360 O   0  0  0  0  0  0  0  0  0  0  0  0
  -24.5720  -31.9150   23.3390 C   0  0  0  0  0  0  0  0  0  0  0  0
  -27.1110  -27.3330   20.3900 C   0  0  0  0  0  0  0  0  0  0  0  0
  -23.3330  -30.4970   21.7340 C   0  0  0  0  0  3  0  0  0  0  0  0
  -24.7460  -28.8820   20.3590 C   0  0  0  0  0  0  0  0  0  0  0  0
  -25.8640  -30.7850   21.5340 C   0  0  0  0  0  2  0  0  0  0  0  0
  -25.9140  -29.3960   20.9350 C   0  0  0  0  0  0  0  0  0  0  0  0
  -27.0940  -28.6280   20.9510 C   0  0  0  0  0  3  0  0  0  0  0  0
  -25.9220  -26.8210   19.8170 C   0  0  0  0  0  3  0  0  0  0  0  0
  -24.7440  -27.5910   19.7980 C   0  0  0  0  0  3  0  0  0  0  0  0
  -23.5260  -29.7720   20.3770 C   0  0  0  0  0  2  0  0  0  0  0  0
  -24.6090  -31.0800   22.2610 N   0  0  0  0  0  0  0  0  0  0  0  0
  -23.4970  -32.2350   23.8610 O   0  0  0  0  0  0  0  0  0  0  0  0
  -22.6500  -29.5220   22.7200 C   0  0  0  0  0  0  0  0  0  0  0  0
  -21.3390  -29.3030   22.5270 N   0  0  0  0  0  0  0  0  0  0  0  0
  -23.2970  -28.9640   23.6090 O   0  0  0  0  0  0  0  0  0  0  0  0
  -20.8810  -29.8020   21.7790 H   0  0  0  0  0  0  0  0  0  0  0  0
  -17.9730  -28.0420   22.8690 C   0  0  0  0  0  0  0  0  0  0  0  0
  -20.4950  -28.3970   23.3050 C   0  0  0  0  0  3  0  0  0  0  0  0
  -20.6800  -26.9340   22.8400 C   0  0  0  0  0  2  0  0  0  0  0  0
  -19.6630  -26.5060   21.7770 C   0  0  0  0  0  2  0  0  0  0  0  0
  -18.2350  -26.6550   22.3100 C   0  0  0  0  0  2  0  0  0  0  0  0
  -19.0370  -28.8670   23.3210 C   0  0  0  0  0  0  0  0  0  0  0  0
  -18.7430  -30.1640   23.7960 C   0  0  0  0  0  3  0  0  0  0  0  0
  -17.4170  -30.6350   23.8310 C   0  0  0  0  0  3  0  0  0  0  0  0
  -16.3650  -29.8070   23.3990 C   0  0  0  0  0  3  0  0  0  0  0  0
  -16.6450  -28.5140   22.9220 C   0  0  0  0  0  3  0  0  0  0  0  0
  -25.8730  -32.5230   23.9490 C   0  0  0  0  0  3  0  0  0  0  0  0
  -25.5980  -33.9320   24.2590 N   0  0  0  0  0  0  0  0  0  0  0  0
  -25.9520  -34.9630   23.4810 C   0  0  0  0  0  0  0  0  0  0  0  0
  -26.6150  -34.8270   22.4500 O   0  0  0  0  0  0  0  0  0  0  0  0
  -25.0110  -34.1160   25.0600 H   0  0  0  0  0  0  0  0  0  0  0  0
  -24.2700  -36.7890   23.0900 C   0  0  0  0  0  1  0  0  0  0  0  0
  -25.4960  -36.3680   23.9160 C   0  0  0  0  0  3  0  0  0  0  0  0
  -27.6390  -37.2160   24.7630 C   0  0  0  0  0  1  0  0  0  0  0  0
  -26.5570  -37.3930   23.7980 N   0  0  0  0  0  0  0  0  0  0  0  0
  -26.1730  -38.3260   23.9190 H   0  0  0  0  0  0  0  0  0  0  0  0
  -26.3740  -31.7580   25.2340 C   0  0  1  0  0  0  0  0  0  0  0  0
  -25.2700  -31.5290   26.2910 C   0  0  0  0  0  1  0  0  0  0  0  0
  -26.9570  -30.3770   24.8500 C   0  0  0  0  0  1  0  0  0  0  0  0
  -27.5240  -32.5500   25.9020 C   0  0  0  0  0  1  0  0  0  0  0  0
  -30.0810  -18.5070   20.2000 O   0  0  0  0  0  0  0  0  0  0  0  0
  -29.6040  -17.4920   21.0880 C   0  0  0  0  0  2  0  0  0  0  0  0
  -30.6270  -16.3750   21.4110 C   0  0  0  0  0  2  0  0  0  0  0  0
  -30.6590  -14.1280   20.3330 C   0  0  0  0  0  0  0  0  0  0  0  0
  -30.3070  -12.0280   19.0970 C   0  0  0  0  0  2  0  0  0  0  0  0
  -29.3200  -12.2570   17.9340 C   0  0  0  0  0  2  0  0  0  0  0  0
  -27.8650  -12.0790   18.4120 C   0  0  0  0  0  2  0  0  0  0  0  0
  -27.5610  -12.8850   19.7020 C   0  0  0  0  0  3  0  0  0  0  0  0
  -28.6540  -12.6510   20.7690 C   0  0  0  0  0  2  0  0  0  0  0  0
  -29.9660  -12.9700   20.1720 N   0  0  0  0  0  0  0  0  0  0  0  0
  -31.7030  -14.3780   19.7280 O   0  0  0  0  0  0  0  0  0  0  0  0
  -30.1080  -15.0280   21.1550 N   0  0  0  0  0  0  0  0  0  0  0  0
  -29.2440  -14.7690   21.6080 H   0  0  0  0  0  0  0  0  0  0  0  0
  -25.1620  -13.4380   20.4620 C   0  0  0  0  0  0  0  0  0  0  0  0
  -24.1240  -12.6410   20.8700 C   0  0  0  0  0  0  0  0  0  0  0  0
  -24.6210  -11.3040   20.8460 C   0  0  0  0  0  0  0  0  0  0  0  0
  -26.2260  -12.5830   20.2200 N   0  0  0  0  0  0  0  0  0  0  0  0
  -25.9040  -11.2960   20.5060 N   0  0  0  0  0  0  0  0  0  0  0  0
  -23.9380  -10.0260   21.0760 C   0  0  0  0  0  0  0  0  0  0  0  0
  -24.3490   -9.1410   22.0970 C   0  0  0  0  0  3  0  0  0  0  0  0
  -23.6660   -7.9260   22.3090 C   0  0  0  0  0  3  0  0  0  0  0  0
  -22.5570   -7.5850   21.5000 C   0  0  0  0  0  0  0  0  0  0  0  0
  -22.1660   -8.4570   20.4690 C   0  0  0  0  0  3  0  0  0  0  0  0
  -22.8500   -9.6650   20.2560 C   0  0  0  0  0  3  0  0  0  0  0  0
  -21.8490   -6.4130   21.6150 O   0  0  0  0  0  0  0  0  0  0  0  0
  -21.6960   -5.7790   22.8210 C   0  0  0  0  0  0  0  0  0  0  0  0
  -21.0440   -6.3980   23.9100 C   0  0  0  0  0  3  0  0  0  0  0  0
  -20.8440   -5.6850   25.1090 C   0  0  0  0  0  3  0  0  0  0  0  0
  -21.2900   -4.3540   25.2200 C   0  0  0  0  0  0  0  0  0  0  0  0
  -21.9370   -3.7360   24.1350 C   0  0  0  0  0  3  0  0  0  0  0  0
  -22.1350   -4.4450   22.9380 C   0  0  0  0  0  0  0  0  0  0  0  0
  -22.7400   -3.8380   21.8890 F   0  0  0  0  0  0  0  0  0  0  0  0
  -21.0930   -3.6660   26.3680 F   0  0  0  0  0  0  0  0  0  0  0  0
  -22.7220  -13.0840   21.1720 C   0  0  0  0  0  0  0  0  0  0  0  0
  -22.0380  -12.3830   22.0700 N   0  0  0  0  0  0  0  0  0  0  0  0
  -22.2410  -14.0890   20.6470 O   0  0  0  0  0  0  0  0  0  0  0  0
  -22.4420  -11.5750   22.5190 H   0  0  0  0  0  0  0  0  0  0  0  0
  -21.0980  -12.6630   22.3120 H   0  0  0  0  0  0  0  0  0  0  0  0
  -25.2820  -14.8090   20.2610 N   0  0  0  0  0  0  0  0  0  0  0  0
  -24.4970  -15.4410   20.3800 H   0  0  0  0  0  0  0  0  0  0  0  0
  -26.1120  -15.2700   19.9080 H   0  0  0  0  0  0  0  0  0  0  0  0
  1  5  1  0
  2  7  1  0
  3  1  2  0
  3  4  1  0
  4  2  2  0
  5  6  1  0
  5  7  2  0
  9  8  1  0
  9 10  1  0
  9  3  1  0
 11 10  1  0
 11 12  1  0
 13 12  1  0
 13 14  1  0
 15 26  2  0
 16 14  1  0
 16 21  1  0
 17 25  1  0
 17 27  1  0
 18 24  1  0
 18 20  1  0
 19 25  1  0
 20 21  2  0
 20 19  1  0
 22 16  2  0
 23 22  1  0
 23 18  2  0
 24 17  1  0
 25 15  1  0
 27 29  2  0
 28 27  1  0
 30 28  1  0
 31 40  2  0
 31 36  1  0
 32 28  1  0
 32 36  1  0
 33 32  1  0
 34 35  1  0
 34 33  1  0
 35 31  1  0
 36 37  2  0
 37 38  1  0
 39 38  2  0
 40 39  1  0
 41 15  1  0
 41 42  1  0
 41 51  1  0
 42 45  1  0
 43 47  1  0
 43 42  1  0
 44 43  2  0
 47 46  1  0
 49 47  1  0
 49 50  1  0
 49 48  1  0
 51 54  1  1
 51 52  1  0
 53 51  1  0
 55  4  1  0
 55 56  1  0
 56 57  1  0
 58 66  1  0
 59 64  1  0
 60 61  1  0
 60 59  1  0
 62 61  1  0
 62 71  1  0
 62 63  1  0
 64 58  1  0
 64 63  1  0
 65 58  2  0
 66 57  1  0
 66 67  1  0
 68 69  2  0
 69 88  1  0
 70 69  1  0
 70 73  1  0
 71 68  1  0
 71 72  1  0
 72 70  2  0
 73 74  1  0
 74 75  2  0
 76 79  1  0
 76 75  1  0
 77 76  2  0
 78 77  1  0
 78 73  2  0
 79 80  1  0
 80 85  2  0
 80 81  1  0
 81 82  2  0
 82 83  1  0
 83 87  1  0
 84 83  2  0
 85 84  1  0
 86 85  1  0
 88 89  1  0
 89 92  1  0
 89 91  1  0
 90 88  2  0
 93 94  1  0
 93 68  1  0
 95 93  1  0
M  ISO  4  13 101  14 101  58 100  66 100
M  END
>  <TORSDO>  (80) 
F 24

>  <SCORE>  (80) 
-11.429

>  <name>  (80) 
80

>  <ligand_id>  (80) 
80

>  <original_smiles>  (80) 
[H]c1nc(C([H])([H])[H])c([H])c(C([H])(C([H])([H])[H])C([H])([H])OC([H])([H])C([H])([H])Oc2c([H])c([H])c3c(c2[H])C([H])([H])N(C(=O)C([H])(N([H])C(=O)C([H])(N([H])C([H])([H])[H])C([H])([H])[H])C(C([H])([H])[H])(C([H])([H])[H])C([H])([H])[H])C([H])(C(=O)N([H])C2([H])c4c([H])c([H])c([H])c([H])c4C([H])([H])C([H])([H])C2([H])[H])C3([H])[H])c1OC([H])([H])C([H])([H])N([H])C(=O)N1C([H])([H])C([H])([H])C([H])([H])C([H])(n2nc(-c3c([H])c([H])c(Oc4c([H])c([H])c(F)c([H])c4F)c([H])c3[H])c(C(=O)N([H])[H])c2N([H])[H])C1([H])[H]

>  <smiles>  (80) 
[H]c1nc(C([H])([H])[H])c([H])c(C([H])(C([H])([H])[H])C([H])([H])OC([H])([H])C([H])([H])Oc2c([H])c([H])c3c(c2[H])C([H])([H])N(C(=O)C([H])(N([H])C(=O)C([H])(N([H])C([H])([H])[H])C([H])([H])[H])C(C([H])([H])[H])(C([H])([H])[H])C([H])([H])[H])C([H])(C(=O)N([H])C2([H])c4c([H])c([H])c([H])c([H])c4C([H])([H])C([H])([H])C2([H])[H])C3([H])[H])c1OC([H])([H])C([H])([H])N([H])C(=O)N1C([H])([H])C([H])([H])C([H])([H])C([H])(n2nc(-c3c([H])c([H])c(Oc4c([H])c([H])c(F)c([H])c4F)c([H])c3[H])c(C(=O)N([H])[H])c2N([H])[H])C1([H])[H]

$$$$
81:0:0
     RDKit          3D

 96106  0  0  1  0  0  0  0  0999 V2000
  -29.0990  -22.0630   20.7850 C   0  0  0  0  0  3  0  0  0  0  0  0
  -29.0500  -20.6630   20.6710 C   0  0  0  0  0  3  0  0  0  0  0  0
  -31.1330  -21.8710   22.1000 C   0  0  0  0  0  3  0  0  0  0  0  0
  -30.1530  -22.6760   21.4890 C   0  0  0  0  0  0  0  0  0  0  0  0
  -30.0760  -19.8490   21.2120 C   0  0  0  0  0  0  0  0  0  0  0  0
  -31.1180  -20.4700   21.9530 C   0  0  0  0  0  0  0  0  0  0  0  0
  -32.2940  -19.7000   22.5380 C   0  0  0  0  0  1  0  0  0  0  0  0
  -30.8140  -14.5560   19.8790 C   0  0  0  0  0  0  0  0  0  0  0  0
  -30.4570  -12.4570   18.6450 C   0  0  0  0  0  2  0  0  0  0  0  0
  -29.3960  -12.7220   17.5560 C   0  0  0  0  0  2  0  0  0  0  0  0
  -27.9640  -12.5680   18.1130 C   0  0  0  0  0  2  0  0  0  0  0  0
  -27.7560  -13.3150   19.4590 C   0  0  0  0  0  3  0  0  0  0  0  0
  -28.9130  -12.9830   20.4280 C   0  0  0  0  0  2  0  0  0  0  0  0
  -30.1670  -13.3650   19.7630 N   0  0  0  0  0  0  0  0  0  0  0  0
  -31.9130  -14.7590   19.3480 O   0  0  0  0  0  0  0  0  0  0  0  0
  -29.5370  -17.4290   21.9650 C   0  0  0  0  0  2  0  0  0  0  0  0
  -29.3870  -17.9910   19.5920 C   0  0  0  0  0  2  0  0  0  0  0  0
  -29.6130  -15.9240   21.5810 C   0  0  0  0  0  2  0  0  0  0  0  0
  -29.8060  -16.6060   19.1100 C   0  0  0  0  0  2  0  0  0  0  0  0
  -30.1190  -18.3520   20.8860 C   0  0  0  0  0  3  0  0  0  0  0  0
  -30.0010  -15.6030   20.1810 N   0  0  0  0  0  0  0  0  0  0  0  0
  -25.4450  -13.8950   20.4340 C   0  0  0  0  0  0  0  0  0  0  0  0
  -24.4130  -13.1050   20.8640 C   0  0  0  0  0  0  0  0  0  0  0  0
  -24.8570  -11.7570   20.7050 C   0  0  0  0  0  0  0  0  0  0  0  0
  -26.4530  -13.0240   20.0490 N   0  0  0  0  0  0  0  0  0  0  0  0
  -26.1070  -11.7300   20.2640 N   0  0  0  0  0  0  0  0  0  0  0  0
  -24.1460  -10.4870   20.8950 C   0  0  0  0  0  0  0  0  0  0  0  0
  -24.6140   -9.5090   21.8000 C   0  0  0  0  0  3  0  0  0  0  0  0
  -23.9060   -8.3020   21.9790 C   0  0  0  0  0  3  0  0  0  0  0  0
  -22.7150   -8.0640   21.2510 C   0  0  0  0  0  0  0  0  0  0  0  0
  -22.2670   -9.0320   20.3340 C   0  0  0  0  0  3  0  0  0  0  0  0
  -22.9750  -10.2300   20.1550 C   0  0  0  0  0  3  0  0  0  0  0  0
  -21.9720   -6.9120   21.3400 O   0  0  0  0  0  0  0  0  0  0  0  0
  -21.8710   -6.2090   22.5150 C   0  0  0  0  0  0  0  0  0  0  0  0
  -21.3800   -6.8020   23.6990 C   0  0  0  0  0  3  0  0  0  0  0  0
  -21.2300   -6.0220   24.8630 C   0  0  0  0  0  3  0  0  0  0  0  0
  -21.5600   -4.6550   24.8430 C   0  0  0  0  0  0  0  0  0  0  0  0
  -22.0450   -4.0630   23.6640 C   0  0  0  0  0  3  0  0  0  0  0  0
  -22.1960   -4.8390   22.5020 C   0  0  0  0  0  0  0  0  0  0  0  0
  -22.6420   -4.2590   21.3610 F   0  0  0  0  0  0  0  0  0  0  0  0
  -21.4080   -3.9050   25.9600 F   0  0  0  0  0  0  0  0  0  0  0  0
  -23.0540  -13.5670   21.3060 C   0  0  0  0  0  0  0  0  0  0  0  0
  -22.4210  -12.8310   22.2120 N   0  0  0  0  0  0  0  0  0  0  0  0
  -22.5630  -14.6120   20.8800 O   0  0  0  0  0  0  0  0  0  0  0  0
  -22.8310  -11.9860   22.5830 H   0  0  0  0  0  0  0  0  0  0  0  0
  -21.5080  -13.1160   22.5400 H   0  0  0  0  0  0  0  0  0  0  0  0
  -25.6040  -15.2740   20.3240 N   0  0  0  0  0  0  0  0  0  0  0  0
  -24.8620  -15.9270   20.5520 H   0  0  0  0  0  0  0  0  0  0  0  0
  -26.4340  -15.7260   19.9630 H   0  0  0  0  0  0  0  0  0  0  0  0
  -28.9680  -24.8690   22.0020 C   0  0  0  0  0  2  0  0  0  0  0  0
  -30.7810  -24.7800   20.2200 C   0  0  0  0  0  2  0  0  0  0  0  0
  -29.1680  -26.3910   22.1170 C   0  0  0  0  0  2  0  0  0  0  0  0
  -30.9220  -26.3100   20.2950 C   0  0  0  0  0  2  0  0  0  0  0  0
  -30.2720  -24.1890   21.5530 C   0  0  0  0  0  3  0  0  0  0  0  0
  -29.6290  -26.9960   20.7750 C   0  0  0  0  0  3  0  0  0  0  0  0
  -28.6120  -26.8170   19.7840 O   0  0  0  0  0  0  0  0  0  0  0  0
  -24.6830  -31.7540   23.1430 C   0  0  0  0  0  0  0  0  0  0  0  0
  -27.4340  -27.5290   19.8960 C   0  0  0  0  0  0  0  0  0  0  0  0
  -23.4840  -30.3490   21.4910 C   0  0  0  0  0  3  0  0  0  0  0  0
  -24.9600  -28.8980   19.9990 C   0  0  0  0  0  0  0  0  0  0  0  0
  -25.9800  -30.8170   21.2390 C   0  0  0  0  0  2  0  0  0  0  0  0
  -26.1010  -29.4640   20.5760 C   0  0  0  0  0  0  0  0  0  0  0  0
  -27.3320  -28.7870   20.5360 C   0  0  0  0  0  3  0  0  0  0  0  0
  -26.2780  -26.9700   19.3130 C   0  0  0  0  0  3  0  0  0  0  0  0
  -25.0380  -27.6410   19.3700 C   0  0  0  0  0  3  0  0  0  0  0  0
  -23.6830  -29.7020   20.0920 C   0  0  0  0  0  2  0  0  0  0  0  0
  -24.7350  -30.9870   22.0180 N   0  0  0  0  0  0  0  0  0  0  0  0
  -23.6080  -31.9780   23.7140 O   0  0  0  0  0  0  0  0  0  0  0  0
  -22.8930  -29.2850   22.4410 C   0  0  0  0  0  0  0  0  0  0  0  0
  -21.5830  -29.0300   22.3050 N   0  0  0  0  0  0  0  0  0  0  0  0
  -23.6090  -28.6940   23.2530 O   0  0  0  0  0  0  0  0  0  0  0  0
  -21.0660  -29.5640   21.6210 H   0  0  0  0  0  0  0  0  0  0  0  0
  -18.2870  -27.6210   22.7390 C   0  0  0  0  0  0  0  0  0  0  0  0
  -20.8160  -28.0420   23.0620 C   0  0  0  0  0  3  0  0  0  0  0  0
  -21.0230  -26.6210   22.4900 C   0  0  0  0  0  2  0  0  0  0  0  0
  -19.9640  -26.2280   21.4540 C   0  0  0  0  0  2  0  0  0  0  0  0
  -18.5630  -26.2850   22.0700 C   0  0  0  0  0  2  0  0  0  0  0  0
  -19.3460  -28.4520   23.1900 C   0  0  0  0  0  0  0  0  0  0  0  0
  -19.0350  -29.7000   23.7740 C   0  0  0  0  0  3  0  0  0  0  0  0
  -17.6970  -30.1170   23.9110 C   0  0  0  0  0  3  0  0  0  0  0  0
  -16.6530  -29.2830   23.4760 C   0  0  0  0  0  3  0  0  0  0  0  0
  -16.9490  -28.0360   22.8960 C   0  0  0  0  0  3  0  0  0  0  0  0
  -25.9640  -32.4090   23.7500 C   0  0  0  0  0  3  0  0  0  0  0  0
  -25.6330  -33.8000   24.0890 N   0  0  0  0  0  0  0  0  0  0  0  0
  -25.9220  -34.8580   23.3180 C   0  0  0  0  0  0  0  0  0  0  0  0
  -26.5710  -34.7680   22.2730 O   0  0  0  0  0  0  0  0  0  0  0  0
  -25.0460  -33.9410   24.8990 H   0  0  0  0  0  0  0  0  0  0  0  0
  -24.1290  -36.5930   23.0190 C   0  0  0  0  0  1  0  0  0  0  0  0
  -25.4130  -36.2340   23.7840 C   0  0  0  0  0  3  0  0  0  0  0  0
  -27.5500  -37.1870   24.5260 C   0  0  0  0  0  1  0  0  0  0  0  0
  -26.4090  -37.3160   23.6220 N   0  0  0  0  0  0  0  0  0  0  0  0
  -25.9830  -38.2260   23.7780 H   0  0  0  0  0  0  0  0  0  0  0  0
  -26.5190  -31.6410   25.0140 C   0  0  1  0  0  0  0  0  0  0  0  0
  -25.4440  -31.3670   26.0920 C   0  0  0  0  0  1  0  0  0  0  0  0
  -27.1290  -30.2810   24.6000 C   0  0  0  0  0  1  0  0  0  0  0  0
  -27.6600  -32.4560   25.6680 C   0  0  0  0  0  1  0  0  0  0  0  0
  1  4  1  0
  2  1  2  0
  2  5  1  0
  4  3  2  0
  5  6  2  0
  6  3  1  0
  6  7  1  0
  8 21  1  0
  9 14  1  0
 10 11  1  0
 10  9  1  0
 12 11  1  0
 12 25  1  0
 12 13  1  0
 14  8  1  0
 14 13  1  0
 15  8  2  0
 17 20  1  0
 18 16  1  0
 19 17  1  0
 19 21  1  0
 20  5  1  0
 20 16  1  0
 21 18  1  0
 22 23  2  0
 23 42  1  0
 24 23  1  0
 24 27  1  0
 25 26  1  0
 25 22  1  0
 26 24  2  0
 27 28  1  0
 28 29  2  0
 30 33  1  0
 30 29  1  0
 31 30  2  0
 32 31  1  0
 32 27  2  0
 33 34  1  0
 34 35  1  0
 35 36  2  0
 37 36  1  0
 37 41  1  0
 38 37  2  0
 39 34  2  0
 39 38  1  0
 40 39  1  0
 42 43  1  0
 43 46  1  0
 43 45  1  0
 44 42  2  0
 47 22  1  0
 47 48  1  0
 49 47  1  0
 50 52  1  0
 51 53  1  0
 51 54  1  0
 53 55  1  0
 54  4  1  0
 54 50  1  0
 55 56  1  0
 55 52  1  0
 56 58  1  0
 57 68  2  0
 58 63  1  0
 59 67  1  0
 59 69  1  0
 60 66  1  0
 60 62  1  0
 61 67  1  0
 62 61  1  0
 63 62  2  0
 64 65  1  0
 64 58  2  0
 65 60  2  0
 66 59  1  0
 67 57  1  0
 69 71  2  0
 70 69  1  0
 72 70  1  0
 73 82  2  0
 73 78  1  0
 74 70  1  0
 74 78  1  0
 75 74  1  0
 76 77  1  0
 76 75  1  0
 77 73  1  0
 78 79  2  0
 79 80  1  0
 81 80  2  0
 82 81  1  0
 83 57  1  0
 83 84  1  0
 83 93  1  0
 84 87  1  0
 85 89  1  0
 85 84  1  0
 86 85  2  0
 89 88  1  0
 91 92  1  0
 91 89  1  0
 91 90  1  0
 93 96  1  1
 93 94  1  0
 95 93  1  0
M  ISO  4   8 100  21 100  55 101  56 101
M  END
>  <TORSDO>  (81) 
F 17

>  <SCORE>  (81) 
-13.924

>  <name>  (81) 
81

>  <ligand_id>  (81) 
81

>  <original_smiles>  (81) 
[H]c1c([H])c([H])c2c(c1[H])C([H])([H])C([H])([H])C([H])([H])C2([H])N([H])C(=O)C1([H])N(C(=O)C([H])(N([H])C(=O)C([H])(N([H])C([H])([H])[H])C([H])([H])[H])C(C([H])([H])[H])(C([H])([H])[H])C([H])([H])[H])C([H])([H])c2c([H])c(OC3([H])C([H])([H])C([H])([H])C([H])(c4c([H])c([H])c(C5([H])C([H])([H])C([H])([H])N(C(=O)N6C([H])([H])C([H])([H])C([H])([H])C([H])(n7nc(-c8c([H])c([H])c(Oc9c([H])c([H])c(F)c([H])c9F)c([H])c8[H])c(C(=O)N([H])[H])c7N([H])[H])C6([H])[H])C([H])([H])C5([H])[H])c(C([H])([H])[H])c4[H])C([H])([H])C3([H])[H])c([H])c([H])c2C1([H])[H]

>  <smiles>  (81) 
[H]c1c([H])c([H])c2c(c1[H])C([H])([H])C([H])([H])C([H])([H])C2([H])N([H])C(=O)C1([H])N(C(=O)C([H])(N([H])C(=O)C([H])(N([H])C([H])([H])[H])C([H])([H])[H])C(C([H])([H])[H])(C([H])([H])[H])C([H])([H])[H])C([H])([H])c2c([H])c(OC3([H])C([H])([H])C([H])([H])C([H])(c4c([H])c([H])c(C5([H])C([H])([H])C([H])([H])N(C(=O)N6C([H])([H])C([H])([H])C([H])([H])C([H])(n7nc(-c8c([H])c([H])c(Oc9c([H])c([H])c(F)c([H])c9F)c([H])c8[H])c(C(=O)N([H])[H])c7N([H])[H])C6([H])[H])C([H])([H])C5([H])[H])c(C([H])([H])[H])c4[H])C([H])([H])C3([H])[H])c([H])c([H])c2C1([H])[H]

$$$$
82:0:0
     RDKit          3D

 95104  0  0  1  0  0  0  0  0999 V2000
  -29.3840  -22.3380   22.7270 C   0  0  0  0  0  2  0  0  0  0  0  0
  -29.6570  -23.5700   21.8390 C   0  0  0  0  0  2  0  0  0  0  0  0
  -31.2650  -22.2220   20.4830 C   0  0  0  0  0  2  0  0  0  0  0  0
  -29.5270  -21.0180   21.9450 C   0  0  0  0  0  3  0  0  0  0  0  0
  -30.9880  -20.9730   21.4030 C   0  0  0  0  0  3  0  0  0  0  0  0
  -28.3840  -20.8540   20.8970 C   0  0  0  0  0  1  0  0  0  0  0  0
  -30.9940  -23.5360   21.1770 N   0  0  1  0  0  4  0  0  0  0  0  0
  -31.6740  -23.5810   21.9220 H   0  0  0  0  0  0  0  0  0  0  0  0
  -32.8400  -18.0280   20.1300 C   0  0  0  0  0  3  0  0  0  0  0  0
  -30.8190  -18.3950   21.0550 C   0  0  0  0  0  3  0  0  0  0  0  0
  -31.6620  -17.4020   20.6230 C   0  0  0  0  0  0  0  0  0  0  0  0
  -32.7100  -19.3800   20.3350 C   0  0  0  0  0  0  0  0  0  0  0  0
  -33.7310  -20.4490   20.0720 C   0  0  0  0  0  1  0  0  0  0  0  0
  -31.4590  -19.6380   20.9140 N   0  0  0  0  0  0  0  0  0  0  0  0
  -32.0700  -14.9290   20.1980 C   0  0  0  0  0  0  0  0  0  0  0  0
  -31.6810  -12.7850   19.0300 C   0  0  0  0  0  2  0  0  0  0  0  0
  -30.7170  -13.0620   17.8560 C   0  0  0  0  0  2  0  0  0  0  0  0
  -29.2470  -12.9690   18.3160 C   0  0  0  0  0  2  0  0  0  0  0  0
  -28.9760  -13.7740   19.6160 C   0  0  0  0  0  3  0  0  0  0  0  0
  -30.0550  -13.4870   20.6850 C   0  0  0  0  0  2  0  0  0  0  0  0
  -31.3710  -13.7630   20.0850 N   0  0  0  0  0  0  0  0  0  0  0  0
  -33.2190  -15.0410   19.7550 O   0  0  0  0  0  0  0  0  0  0  0  0
  -31.3690  -15.9880   20.6750 N   0  0  0  0  0  0  0  0  0  0  0  0
  -30.4680  -15.7430   21.0560 H   0  0  0  0  0  0  0  0  0  0  0  0
  -26.6370  -14.4550   20.4420 C   0  0  0  0  0  0  0  0  0  0  0  0
  -25.5430  -13.7170   20.8080 C   0  0  0  0  0  0  0  0  0  0  0  0
  -25.9320  -12.3460   20.6890 C   0  0  0  0  0  0  0  0  0  0  0  0
  -27.6280  -13.5370   20.1290 N   0  0  0  0  0  0  0  0  0  0  0  0
  -27.2080  -12.2610   20.3340 N   0  0  0  0  0  0  0  0  0  0  0  0
  -25.1480  -11.1140   20.8410 C   0  0  0  0  0  0  0  0  0  0  0  0
  -25.4840  -10.1370   21.8030 C   0  0  0  0  0  3  0  0  0  0  0  0
  -24.7050   -8.9680   21.9430 C   0  0  0  0  0  3  0  0  0  0  0  0
  -23.5750   -8.7680   21.1160 C   0  0  0  0  0  0  0  0  0  0  0  0
  -23.2560   -9.7320   20.1450 C   0  0  0  0  0  3  0  0  0  0  0  0
  -24.0350  -10.8930   20.0040 C   0  0  0  0  0  3  0  0  0  0  0  0
  -22.7740   -7.6520   21.1610 O   0  0  0  0  0  0  0  0  0  0  0  0
  -22.3870   -7.0930   22.3510 C   0  0  0  0  0  0  0  0  0  0  0  0
  -21.6450   -7.8180   23.3090 C   0  0  0  0  0  3  0  0  0  0  0  0
  -21.2070   -7.1820   24.4880 C   0  0  0  0  0  3  0  0  0  0  0  0
  -21.5010   -5.8210   24.7060 C   0  0  0  0  0  0  0  0  0  0  0  0
  -22.2340   -5.0980   23.7490 C   0  0  0  0  0  3  0  0  0  0  0  0
  -22.6730   -5.7320   22.5740 C   0  0  0  0  0  0  0  0  0  0  0  0
  -23.3610   -5.0240   21.6450 F   0  0  0  0  0  0  0  0  0  0  0  0
  -21.0740   -5.2070   25.8340 F   0  0  0  0  0  0  0  0  0  0  0  0
  -24.1800  -14.2470   21.1510 C   0  0  0  0  0  0  0  0  0  0  0  0
  -23.4760  -13.5890   22.0660 N   0  0  0  0  0  0  0  0  0  0  0  0
  -23.7490  -15.2800   20.6390 O   0  0  0  0  0  0  0  0  0  0  0  0
  -23.8360  -12.7540   22.5020 H   0  0  0  0  0  0  0  0  0  0  0  0
  -22.5640  -13.9290   22.3370 H   0  0  0  0  0  0  0  0  0  0  0  0
  -26.8640  -15.8240   20.3320 N   0  0  0  0  0  0  0  0  0  0  0  0
  -26.1290  -16.5020   20.4990 H   0  0  0  0  0  0  0  0  0  0  0  0
  -27.7190  -16.2430   19.9910 H   0  0  0  0  0  0  0  0  0  0  0  0
  -31.2500  -24.7510   20.3150 C   0  0  0  0  0  2  0  0  0  0  0  0
  -30.8690  -26.1190   20.9790 C   0  0  0  0  0  2  0  0  0  0  0  0
  -30.5170  -27.1770   20.0610 O   0  0  0  0  0  0  0  0  0  0  0  0
  -25.5130  -30.9390   23.5340 C   0  0  0  0  0  0  0  0  0  0  0  0
  -29.2180  -27.6390   20.1210 C   0  0  0  0  0  0  0  0  0  0  0  0
  -24.7240  -29.5620   21.6370 C   0  0  0  0  0  3  0  0  0  0  0  0
  -26.5500  -28.5820   20.1450 C   0  0  0  0  0  0  0  0  0  0  0  0
  -27.1110  -30.4810   21.6660 C   0  0  0  0  0  2  0  0  0  0  0  0
  -27.5340  -29.2540   20.8810 C   0  0  0  0  0  0  0  0  0  0  0  0
  -28.8720  -28.7880   20.8690 C   0  0  0  0  0  3  0  0  0  0  0  0
  -28.2170  -26.9800   19.3780 C   0  0  0  0  0  3  0  0  0  0  0  0
  -26.8860  -27.4430   19.3900 C   0  0  0  0  0  3  0  0  0  0  0  0
  -25.1450  -29.1440   20.2010 C   0  0  0  0  0  2  0  0  0  0  0  0
  -25.7960  -30.3370   22.3430 N   0  0  0  0  0  0  0  0  0  0  0  0
  -24.3750  -30.8910   24.0240 O   0  0  0  0  0  0  0  0  0  0  0  0
  -24.2730  -28.2970   22.4040 C   0  0  0  0  0  0  0  0  0  0  0  0
  -23.0750  -27.7870   22.0730 N   0  0  0  0  0  0  0  0  0  0  0  0
  -25.0030  -27.7830   23.2550 O   0  0  0  0  0  0  0  0  0  0  0  0
  -22.5320  -28.2690   21.3700 H   0  0  0  0  0  0  0  0  0  0  0  0
  -20.2120  -25.5980   21.8360 C   0  0  0  0  0  0  0  0  0  0  0  0
  -22.4680  -26.5790   22.6310 C   0  0  0  0  0  3  0  0  0  0  0  0
  -23.1150  -25.3040   22.0390 C   0  0  0  0  0  2  0  0  0  0  0  0
  -22.3710  -24.7670   20.8120 C   0  0  0  0  0  2  0  0  0  0  0  0
  -20.9200  -24.4330   21.1680 C   0  0  0  0  0  2  0  0  0  0  0  0
  -20.9410  -26.6150   22.5110 C   0  0  0  0  0  0  0  0  0  0  0  0
  -20.2350  -27.6960   23.0820 C   0  0  0  0  0  3  0  0  0  0  0  0
  -18.8310  -27.7640   22.9990 C   0  0  0  0  0  3  0  0  0  0  0  0
  -18.1140  -26.7460   22.3460 C   0  0  0  0  0  3  0  0  0  0  0  0
  -18.8060  -25.6670   21.7680 C   0  0  0  0  0  3  0  0  0  0  0  0
  -26.5970  -31.7340   24.3260 C   0  0  0  0  0  3  0  0  0  0  0  0
  -27.0360  -31.0180   25.6620 C   0  0  1  0  0  0  0  0  0  0  0  0
  -25.8540  -30.6400   26.5830 C   0  0  0  0  0  1  0  0  0  0  0  0
  -27.8210  -29.7240   25.3450 C   0  0  0  0  0  1  0  0  0  0  0  0
  -27.9920  -31.9330   26.4630 C   0  0  0  0  0  1  0  0  0  0  0  0
  -26.0540  -33.0710   24.6020 N   0  0  0  0  0  0  0  0  0  0  0  0
  -26.3850  -34.1770   23.9250 C   0  0  0  0  0  0  0  0  0  0  0  0
  -27.2430  -34.1910   23.0360 O   0  0  0  0  0  0  0  0  0  0  0  0
  -25.3160  -33.1260   25.2860 H   0  0  0  0  0  0  0  0  0  0  0  0
  -24.5470  -35.7530   23.2460 C   0  0  0  0  0  1  0  0  0  0  0  0
  -25.6450  -35.4790   24.2870 C   0  0  0  0  0  3  0  0  0  0  0  0
  -27.4490  -36.5880   25.5310 C   0  0  0  0  0  1  0  0  0  0  0  0
  -26.5330  -36.6560   24.3930 N   0  0  0  0  0  0  0  0  0  0  0  0
  -25.9900  -37.5090   24.4760 H   0  0  0  0  0  0  0  0  0  0  0  0
  2  1  1  0
  3  7  1  0
  4  6  1  0
  4  1  1  0
  5  3  1  0
  5  4  1  0
  7  2  1  0
  7  8  1  1
  9 12  2  0
  9 11  1  0
 11 23  1  0
 11 10  2  0
 12 14  1  0
 13 12  1  0
 14 10  1  0
 14  5  1  0
 15 23  1  0
 16 21  1  0
 17 18  1  0
 17 16  1  0
 19 18  1  0
 19 28  1  0
 19 20  1  0
 21 15  1  0
 21 20  1  0
 22 15  2  0
 23 24  1  0
 25 26  2  0
 26 45  1  0
 27 26  1  0
 27 30  1  0
 28 29  1  0
 28 25  1  0
 29 27  2  0
 30 31  1  0
 31 32  2  0
 33 36  1  0
 33 32  1  0
 34 33  2  0
 35 34  1  0
 35 30  2  0
 36 37  1  0
 37 42  2  0
 37 38  1  0
 38 39  2  0
 39 40  1  0
 40 44  1  0
 41 40  2  0
 42 41  1  0
 43 42  1  0
 45 46  1  0
 46 49  1  0
 46 48  1  0
 47 45  2  0
 50 25  1  0
 50 51  1  0
 52 50  1  0
 53 54  1  0
 53  7  1  0
 55 57  1  0
 55 54  1  0
 56 67  2  0
 57 62  1  0
 58 66  1  0
 58 68  1  0
 59 65  1  0
 59 61  1  0
 60 66  1  0
 61 60  1  0
 62 61  2  0
 63 64  1  0
 63 57  2  0
 64 59  2  0
 65 58  1  0
 66 56  1  0
 68 70  2  0
 69 68  1  0
 71 69  1  0
 72 77  1  0
 73 69  1  0
 74 73  1  0
 75 76  1  0
 75 74  1  0
 76 72  1  0
 77 73  1  0
 77 78  2  0
 79 78  1  0
 80 79  2  0
 81 72  2  0
 81 80  1  0
 82 56  1  0
 82 87  1  0
 82 83  1  0
 83 86  1  1
 83 84  1  0
 85 83  1  0
 87 90  1  0
 88 92  1  0
 88 87  1  0
 89 88  2  0
 92 91  1  0
 92 94  1  0
 94 95  1  0
 94 93  1  0
M  ISO  4  15 100  23 100  54 101  55 101
M  END
>  <TORSDO>  (82) 
F 19

>  <SCORE>  (82) 
-9.856

>  <name>  (82) 
82

>  <ligand_id>  (82) 
82

>  <original_smiles>  (82) 
[H]c1c([H])c([H])c2c(c1[H])C([H])([H])C([H])([H])C([H])([H])C2([H])N([H])C(=O)C1([H])N(C(=O)C([H])(N([H])C(=O)C([H])(N([H])C([H])([H])[H])C([H])([H])[H])C(C([H])([H])[H])(C([H])([H])[H])C([H])([H])[H])C([H])([H])c2c([H])c(OC([H])([H])C([H])([H])[N+]3([H])C([H])([H])C([H])([H])C([H])(C([H])([H])[H])C([H])(n4c([H])c(N([H])C(=O)N5C([H])([H])C([H])([H])C([H])([H])C([H])(n6nc(-c7c([H])c([H])c(Oc8c([H])c([H])c(F)c([H])c8F)c([H])c7[H])c(C(=O)N([H])[H])c6N([H])[H])C5([H])[H])c([H])c4C([H])([H])[H])C3([H])[H])c([H])c([H])c2C1([H])[H]

>  <smiles>  (82) 
[H]c1c([H])c([H])c2c(c1[H])C([H])([H])C([H])([H])C([H])([H])C2([H])N([H])C(=O)C1([H])N(C(=O)C([H])(N([H])C(=O)C([H])(N([H])C([H])([H])[H])C([H])([H])[H])C(C([H])([H])[H])(C([H])([H])[H])C([H])([H])[H])C([H])([H])c2c([H])c(OC([H])([H])C([H])([H])[N+]3([H])C([H])([H])C([H])([H])C([H])(C([H])([H])[H])C([H])(n4c([H])c(N([H])C(=O)N5C([H])([H])C([H])([H])C([H])([H])C([H])(n6nc(-c7c([H])c([H])c(Oc8c([H])c([H])c(F)c([H])c8F)c([H])c7[H])c(C(=O)N([H])[H])c6N([H])[H])C5([H])[H])c([H])c4C([H])([H])[H])C3([H])[H])c([H])c([H])c2C1([H])[H]

$$$$
83:0:0
     RDKit          3D

 97107  0  0  1  0  0  0  0  0999 V2000
  -30.3620  -20.1770   19.9990 C   0  0  0  0  0  3  0  0  0  0  0  0
  -30.3120  -20.6080   22.3820 C   0  0  0  0  0  3  0  0  0  0  0  0
  -30.3600  -19.6870   21.3180 C   0  0  0  0  0  0  0  0  0  0  0  0
  -30.1760  -22.4940   20.8130 C   0  0  0  0  0  0  0  0  0  0  0  0
  -30.2680  -21.5610   19.7380 C   0  0  0  0  0  0  0  0  0  0  0  0
  -30.2260  -22.0050   22.1500 C   0  0  0  0  0  0  0  0  0  0  0  0
  -30.2630  -22.0020   18.2820 C   0  0  0  0  0  1  0  0  0  0  0  0
  -30.8050  -14.4820   19.9330 C   0  0  0  0  0  0  0  0  0  0  0  0
  -30.3540  -12.4090   18.6540 C   0  0  0  0  0  2  0  0  0  0  0  0
  -29.3050  -12.6500   17.5510 C   0  0  0  0  0  2  0  0  0  0  0  0
  -27.8780  -12.4750   18.1030 C   0  0  0  0  0  2  0  0  0  0  0  0
  -27.6600  -13.2610   19.4190 C   0  0  0  0  0  3  0  0  0  0  0  0
  -28.8070  -12.9670   20.4180 C   0  0  0  0  0  2  0  0  0  0  0  0
  -30.0780  -13.3350   19.7710 N   0  0  0  0  0  0  0  0  0  0  0  0
  -31.8010  -14.7070   19.2360 O   0  0  0  0  0  0  0  0  0  0  0  0
  -29.2410  -17.4360   20.8850 C   0  0  0  0  0  2  0  0  0  0  0  0
  -31.7050  -17.4850   21.3200 C   0  0  0  0  0  2  0  0  0  0  0  0
  -29.2320  -15.9440   21.2670 C   0  0  0  0  0  2  0  0  0  0  0  0
  -31.6250  -15.9870   21.7070 C   0  0  0  0  0  2  0  0  0  0  0  0
  -30.3670  -18.1860   21.6100 C   0  0  0  0  0  3  0  0  0  0  0  0
  -30.5310  -15.2910   20.9980 N   0  0  0  0  0  0  0  0  0  0  0  0
  -25.3390  -13.8710   20.3590 C   0  0  0  0  0  0  0  0  0  0  0  0
  -24.2990  -13.0940   20.7930 C   0  0  0  0  0  0  0  0  0  0  0  0
  -24.7400  -11.7400   20.6670 C   0  0  0  0  0  0  0  0  0  0  0  0
  -26.3490  -12.9890   20.0040 N   0  0  0  0  0  0  0  0  0  0  0  0
  -25.9960  -11.7010   20.2450 N   0  0  0  0  0  0  0  0  0  0  0  0
  -24.0210  -10.4780   20.8710 C   0  0  0  0  0  0  0  0  0  0  0  0
  -24.4550   -9.5270   21.8220 C   0  0  0  0  0  3  0  0  0  0  0  0
  -23.7370   -8.3270   22.0110 C   0  0  0  0  0  3  0  0  0  0  0  0
  -22.5730   -8.0680   21.2490 C   0  0  0  0  0  0  0  0  0  0  0  0
  -22.1600   -9.0060   20.2860 C   0  0  0  0  0  3  0  0  0  0  0  0
  -22.8780  -10.1980   20.0950 C   0  0  0  0  0  3  0  0  0  0  0  0
  -21.8280   -6.9180   21.3460 O   0  0  0  0  0  0  0  0  0  0  0  0
  -21.6790   -6.2570   22.5380 C   0  0  0  0  0  0  0  0  0  0  0  0
  -21.1070   -6.8790   23.6690 C   0  0  0  0  0  3  0  0  0  0  0  0
  -20.9090   -6.1410   24.8530 C   0  0  0  0  0  3  0  0  0  0  0  0
  -21.2730   -4.7810   24.9060 C   0  0  0  0  0  0  0  0  0  0  0  0
  -21.8380   -4.1590   23.7790 C   0  0  0  0  0  3  0  0  0  0  0  0
  -22.0380   -4.8950   22.5970 C   0  0  0  0  0  0  0  0  0  0  0  0
  -22.5630   -4.2850   21.5080 F   0  0  0  0  0  0  0  0  0  0  0  0
  -21.0760   -4.0700   26.0410 F   0  0  0  0  0  0  0  0  0  0  0  0
  -22.9360  -13.5710   21.2070 C   0  0  0  0  0  0  0  0  0  0  0  0
  -22.2790  -12.8420   22.1040 N   0  0  0  0  0  0  0  0  0  0  0  0
  -22.4650  -14.6200   20.7720 O   0  0  0  0  0  0  0  0  0  0  0  0
  -22.6740  -11.9930   22.4780 H   0  0  0  0  0  0  0  0  0  0  0  0
  -21.3680  -13.1420   22.4220 H   0  0  0  0  0  0  0  0  0  0  0  0
  -25.5000  -15.2460   20.2190 N   0  0  0  0  0  0  0  0  0  0  0  0
  -24.7490  -15.8960   20.4220 H   0  0  0  0  0  0  0  0  0  0  0  0
  -26.3170  -15.6950   19.8250 H   0  0  0  0  0  0  0  0  0  0  0  0
  -31.1050  -24.9020   21.1490 C   0  0  0  0  0  2  0  0  0  0  0  0
  -30.5250  -26.3200   21.0510 C   0  0  0  0  0  2  0  0  0  0  0  0
  -28.7040  -24.6620   20.9610 C   0  0  0  0  0  2  0  0  0  0  0  0
  -30.0280  -24.0070   20.5290 C   0  0  0  0  0  3  0  0  0  0  0  0
  -28.9900  -26.1760   21.0030 C   0  0  0  0  0  3  0  0  0  0  0  0
  -28.5190  -26.7780   19.7990 O   0  0  0  0  0  0  0  0  0  0  0  0
  -24.5810  -31.7530   23.0780 C   0  0  0  0  0  0  0  0  0  0  0  0
  -27.3360  -27.4680   19.8970 C   0  0  0  0  0  0  0  0  0  0  0  0
  -23.4070  -30.3650   21.3960 C   0  0  0  0  0  3  0  0  0  0  0  0
  -24.9000  -28.8910   19.9450 C   0  0  0  0  0  0  0  0  0  0  0  0
  -25.9220  -30.7870   21.2160 C   0  0  0  0  0  2  0  0  0  0  0  0
  -26.0400  -29.4320   20.5530 C   0  0  0  0  0  0  0  0  0  0  0  0
  -27.2620  -28.7240   20.5360 C   0  0  0  0  0  3  0  0  0  0  0  0
  -26.1850  -26.9330   19.2830 C   0  0  0  0  0  3  0  0  0  0  0  0
  -24.9640  -27.6350   19.3120 C   0  0  0  0  0  3  0  0  0  0  0  0
  -23.6360  -29.7180   20.0030 C   0  0  0  0  0  2  0  0  0  0  0  0
  -24.6540  -30.9830   21.9550 N   0  0  0  0  0  0  0  0  0  0  0  0
  -23.4930  -31.9890   23.6220 O   0  0  0  0  0  0  0  0  0  0  0  0
  -22.7770  -29.3080   22.3310 C   0  0  0  0  0  0  0  0  0  0  0  0
  -21.4540  -29.1140   22.2050 N   0  0  0  0  0  0  0  0  0  0  0  0
  -23.4740  -28.6680   23.1210 O   0  0  0  0  0  0  0  0  0  0  0  0
  -20.9530  -29.6840   21.5390 H   0  0  0  0  0  0  0  0  0  0  0  0
  -18.0950  -27.8790   22.6990 C   0  0  0  0  0  0  0  0  0  0  0  0
  -20.6540  -28.1440   22.9510 C   0  0  0  0  0  3  0  0  0  0  0  0
  -20.7580  -26.7340   22.3230 C   0  0  0  0  0  2  0  0  0  0  0  0
  -19.6470  -26.4410   21.3110 C   0  0  0  0  0  2  0  0  0  0  0  0
  -18.2710  -26.5570   21.9740 C   0  0  0  0  0  2  0  0  0  0  0  0
  -19.2140  -28.6320   23.1430 C   0  0  0  0  0  0  0  0  0  0  0  0
  -18.9960  -29.8740   23.7800 C   0  0  0  0  0  3  0  0  0  0  0  0
  -17.6900  -30.3630   23.9760 C   0  0  0  0  0  3  0  0  0  0  0  0
  -16.5860  -29.6060   23.5490 C   0  0  0  0  0  3  0  0  0  0  0  0
  -16.7890  -28.3670   22.9160 C   0  0  0  0  0  3  0  0  0  0  0  0
  -25.8540  -32.3930   23.7140 C   0  0  0  0  0  3  0  0  0  0  0  0
  -25.5140  -33.7720   24.0910 N   0  0  0  0  0  0  0  0  0  0  0  0
  -25.8190  -34.8550   23.3640 C   0  0  0  0  0  0  0  0  0  0  0  0
  -26.4870  -34.8000   22.3280 O   0  0  0  0  0  0  0  0  0  0  0  0
  -24.9180  -33.8850   24.8980 H   0  0  0  0  0  0  0  0  0  0  0  0
  -24.0470  -36.6140   23.0670 C   0  0  0  0  0  1  0  0  0  0  0  0
  -25.2980  -36.2140   23.8660 C   0  0  0  0  0  3  0  0  0  0  0  0
  -27.4070  -37.1260   24.7330 C   0  0  0  0  0  1  0  0  0  0  0  0
  -26.3060  -37.2950   23.7890 N   0  0  0  0  0  0  0  0  0  0  0  0
  -25.8770  -38.2000   23.9610 H   0  0  0  0  0  0  0  0  0  0  0  0
  -26.3980  -31.5910   24.9600 C   0  0  1  0  0  0  0  0  0  0  0  0
  -25.3160  -31.2860   26.0220 C   0  0  0  0  0  1  0  0  0  0  0  0
  -27.0150  -30.2440   24.5140 C   0  0  0  0  0  1  0  0  0  0  0  0
  -27.5300  -32.3910   25.6450 C   0  0  0  0  0  1  0  0  0  0  0  0
  -30.3350  -22.4590   24.5210 C   0  0  0  0  0  1  0  0  0  0  0  0
  -30.1850  -22.9200   23.1840 O   0  0  0  0  0  0  0  0  0  0  0  0
  1  3  1  0
  3  2  2  0
  4  6  2  0
  5  1  2  0
  5  4  1  0
  6  2  1  0
  6 97  1  0
  7  5  1  0
  8 21  1  0
  9 14  1  0
 10 11  1  0
 10  9  1  0
 12 11  1  0
 12 25  1  0
 12 13  1  0
 14  8  1  0
 14 13  1  0
 15  8  2  0
 16 18  1  0
 16 20  1  0
 17 20  1  0
 17 19  1  0
 20  3  1  0
 21 18  1  0
 21 19  1  0
 22 23  2  0
 23 42  1  0
 24 23  1  0
 24 27  1  0
 25 26  1  0
 25 22  1  0
 26 24  2  0
 27 28  1  0
 28 29  2  0
 30 33  1  0
 30 29  1  0
 31 30  2  0
 32 31  1  0
 32 27  2  0
 33 34  1  0
 34 39  2  0
 34 35  1  0
 35 36  2  0
 36 37  1  0
 37 41  1  0
 38 37  2  0
 39 38  1  0
 40 39  1  0
 42 43  1  0
 43 46  1  0
 43 45  1  0
 44 42  2  0
 47 22  1  0
 47 48  1  0
 49 47  1  0
 51 50  1  0
 52 54  1  0
 53  4  1  0
 53 52  1  0
 53 50  1  0
 54 55  1  0
 54 51  1  0
 55 57  1  0
 56 67  2  0
 57 62  1  0
 58 66  1  0
 58 68  1  0
 59 65  1  0
 59 61  1  0
 60 66  1  0
 61 60  1  0
 62 61  2  0
 63 64  1  0
 63 57  2  0
 64 59  2  0
 65 58  1  0
 66 56  1  0
 68 70  2  0
 69 68  1  0
 71 69  1  0
 72 81  2  0
 72 77  1  0
 73 69  1  0
 73 77  1  0
 74 73  1  0
 75 76  1  0
 75 74  1  0
 76 72  1  0
 77 78  2  0
 78 79  1  0
 80 79  2  0
 81 80  1  0
 82 56  1  0
 82 83  1  0
 82 92  1  0
 83 86  1  0
 84 88  1  0
 84 83  1  0
 85 84  2  0
 88 87  1  0
 90 88  1  0
 90 91  1  0
 90 89  1  0
 92 95  1  1
 92 93  1  0
 94 92  1  0
 97 96  1  0
M  ISO  4   8 100  21 100  54 101  55 101
M  END
>  <TORSDO>  (83) 
F 18

>  <SCORE>  (83) 
-13.871

>  <name>  (83) 
83

>  <ligand_id>  (83) 
83

>  <original_smiles>  (83) 
[H]c1c([H])c([H])c2c(c1[H])C([H])([H])C([H])([H])C([H])([H])C2([H])N([H])C(=O)C1([H])N(C(=O)C([H])(N([H])C(=O)C([H])(N([H])C([H])([H])[H])C([H])([H])[H])C(C([H])([H])[H])(C([H])([H])[H])C([H])([H])[H])C([H])([H])c2c([H])c(OC3([H])C([H])([H])C([H])([H])C([H])(c4c(OC([H])([H])[H])c([H])c(C5([H])C([H])([H])C([H])([H])N(C(=O)N6C([H])([H])C([H])([H])C([H])([H])C([H])(n7nc(-c8c([H])c([H])c(Oc9c([H])c([H])c(F)c([H])c9F)c([H])c8[H])c(C(=O)N([H])[H])c7N([H])[H])C6([H])[H])C([H])([H])C5([H])[H])c([H])c4C([H])([H])[H])C3([H])[H])c([H])c([H])c2C1([H])[H]

>  <smiles>  (83) 
[H]c1c([H])c([H])c2c(c1[H])C([H])([H])C([H])([H])C([H])([H])C2([H])N([H])C(=O)C1([H])N(C(=O)C([H])(N([H])C(=O)C([H])(N([H])C([H])([H])[H])C([H])([H])[H])C(C([H])([H])[H])(C([H])([H])[H])C([H])([H])[H])C([H])([H])c2c([H])c(OC3([H])C([H])([H])C([H])([H])C([H])(c4c(OC([H])([H])[H])c([H])c(C5([H])C([H])([H])C([H])([H])N(C(=O)N6C([H])([H])C([H])([H])C([H])([H])C([H])(n7nc(-c8c([H])c([H])c(Oc9c([H])c([H])c(F)c([H])c9F)c([H])c8[H])c(C(=O)N([H])[H])c7N([H])[H])C6([H])[H])C([H])([H])C5([H])[H])c([H])c4C([H])([H])[H])C3([H])[H])c([H])c([H])c2C1([H])[H]

$$$$
84:0:0
     RDKit          3D

 93102  0  0  1  0  0  0  0  0999 V2000
  -28.8650  -24.5130   21.3660 C   0  0  0  0  0  3  0  0  0  0  0  0
  -28.0400  -24.3390   19.1250 C   0  0  0  0  0  3  0  0  0  0  0  0
  -28.9330  -23.0880   21.4640 C   0  0  0  0  0  0  0  0  0  0  0  0
  -28.0780  -22.9130   19.2090 C   0  0  0  0  0  0  0  0  0  0  0  0
  -28.5070  -22.2420   20.3950 C   0  0  0  0  0  0  0  0  0  0  0  0
  -28.3870  -25.1790   20.2120 C   0  0  0  0  0  0  0  0  0  0  0  0
  -29.4430  -22.4860   22.7620 C   0  0  0  0  0  1  0  0  0  0  0  0
  -27.6060  -22.1230   18.0000 C   0  0  0  0  0  1  0  0  0  0  0  0
  -28.3890  -26.5870   20.1240 O   0  0  0  0  0  0  0  0  0  0  0  0
  -24.6420  -31.8980   23.2580 C   0  0  0  0  0  0  0  0  0  0  0  0
  -27.2290  -27.3660   20.1620 C   0  0  0  0  0  0  0  0  0  0  0  0
  -23.4200  -30.5040   21.6270 C   0  0  0  0  0  3  0  0  0  0  0  0
  -24.8530  -28.9510   20.1900 C   0  0  0  0  0  0  0  0  0  0  0  0
  -25.9540  -30.8270   21.4160 C   0  0  0  0  0  2  0  0  0  0  0  0
  -26.0250  -29.4500   20.7710 C   0  0  0  0  0  0  0  0  0  0  0  0
  -27.2140  -28.6670   20.7490 C   0  0  0  0  0  3  0  0  0  0  0  0
  -26.0300  -26.9080   19.5720 C   0  0  0  0  0  3  0  0  0  0  0  0
  -24.8540  -27.6840   19.5870 C   0  0  0  0  0  3  0  0  0  0  0  0
  -23.6170  -29.8250   20.2470 C   0  0  0  0  0  2  0  0  0  0  0  0
  -24.6910  -31.0940   22.1570 N   0  0  0  0  0  0  0  0  0  0  0  0
  -23.5660  -32.1760   23.8050 O   0  0  0  0  0  0  0  0  0  0  0  0
  -22.7670  -29.4860   22.5930 C   0  0  0  0  0  0  0  0  0  0  0  0
  -21.4420  -29.3000   22.4680 N   0  0  0  0  0  0  0  0  0  0  0  0
  -23.4520  -28.8670   23.4110 O   0  0  0  0  0  0  0  0  0  0  0  0
  -20.9500  -29.8500   21.7770 H   0  0  0  0  0  0  0  0  0  0  0  0
  -18.0740  -28.0800   22.9650 C   0  0  0  0  0  0  0  0  0  0  0  0
  -20.6300  -28.3620   23.2420 C   0  0  0  0  0  3  0  0  0  0  0  0
  -20.7460  -26.9280   22.6770 C   0  0  0  0  0  2  0  0  0  0  0  0
  -19.6500  -26.5880   21.6620 C   0  0  0  0  0  2  0  0  0  0  0  0
  -18.2640  -26.7270   22.3000 C   0  0  0  0  0  2  0  0  0  0  0  0
  -19.1850  -28.8540   23.3930 C   0  0  0  0  0  0  0  0  0  0  0  0
  -18.9550  -30.1200   23.9750 C   0  0  0  0  0  3  0  0  0  0  0  0
  -17.6450  -30.6130   24.1320 C   0  0  0  0  0  3  0  0  0  0  0  0
  -16.5500  -29.8350   23.7220 C   0  0  0  0  0  3  0  0  0  0  0  0
  -16.7640  -28.5710   23.1440 C   0  0  0  0  0  3  0  0  0  0  0  0
  -25.9330  -32.5270   23.8680 C   0  0  0  0  0  3  0  0  0  0  0  0
  -25.6270  -33.9230   24.2100 N   0  0  0  0  0  0  0  0  0  0  0  0
  -25.9330  -34.9800   23.4440 C   0  0  0  0  0  0  0  0  0  0  0  0
  -26.5730  -34.8830   22.3940 O   0  0  0  0  0  0  0  0  0  0  0  0
  -25.0560  -34.0720   25.0280 H   0  0  0  0  0  0  0  0  0  0  0  0
  -24.1790  -36.7600   23.1620 C   0  0  0  0  0  1  0  0  0  0  0  0
  -25.4540  -36.3640   23.9220 C   0  0  0  0  0  3  0  0  0  0  0  0
  -27.6130  -37.2680   24.6680 C   0  0  0  0  0  1  0  0  0  0  0  0
  -26.4730  -37.4260   23.7680 N   0  0  0  0  0  0  0  0  0  0  0  0
  -26.0650  -38.3430   23.9290 H   0  0  0  0  0  0  0  0  0  0  0  0
  -26.4670  -31.7480   25.1320 C   0  0  1  0  0  0  0  0  0  0  0  0
  -25.3880  -31.5020   26.2120 C   0  0  0  0  0  1  0  0  0  0  0  0
  -27.0450  -30.3720   24.7240 C   0  0  0  0  0  1  0  0  0  0  0  0
  -27.6260  -32.5380   25.7840 C   0  0  0  0  0  1  0  0  0  0  0  0
  -28.3210  -20.6850   20.5940 C   0  0  0  0  0  2  0  0  0  0  0  0
  -29.6000  -19.1490   18.8600 C   0  0  0  0  0  2  0  0  0  0  0  0
  -30.1570  -17.7000   18.8550 C   0  0  0  0  0  2  0  0  0  0  0  0
  -29.3100  -18.2300   21.0450 C   0  0  0  0  0  2  0  0  0  0  0  0
  -29.4680  -19.6190   20.3200 C   0  0  0  0  0  3  0  0  0  0  0  0
  -30.2230  -17.1900   20.3100 C   0  0  0  0  0  3  0  0  0  0  0  0
  -30.6300  -14.6500   20.1200 C   0  0  0  0  0  0  0  0  0  0  0  0
  -30.3620  -12.4320   19.0420 C   0  0  0  0  0  2  0  0  0  0  0  0
  -29.3740  -12.5850   17.8660 C   0  0  0  0  0  2  0  0  0  0  0  0
  -27.9200  -12.4220   18.3500 C   0  0  0  0  0  2  0  0  0  0  0  0
  -27.6110  -13.2650   19.6160 C   0  0  0  0  0  3  0  0  0  0  0  0
  -28.7130  -13.1020   20.6880 C   0  0  0  0  0  2  0  0  0  0  0  0
  -29.9960  -13.4390   20.0570 N   0  0  0  0  0  0  0  0  0  0  0  0
  -31.7810  -14.7930   19.7030 O   0  0  0  0  0  0  0  0  0  0  0  0
  -29.8630  -15.7340   20.4540 N   0  0  0  0  0  0  0  0  0  0  0  0
  -28.9240  -15.5280   20.7570 H   0  0  0  0  0  0  0  0  0  0  0  0
  -25.2500  -13.8500   20.4440 C   0  0  0  0  0  0  0  0  0  0  0  0
  -24.1990  -13.0690   20.8450 C   0  0  0  0  0  0  0  0  0  0  0  0
  -24.6610  -11.7180   20.7720 C   0  0  0  0  0  0  0  0  0  0  0  0
  -26.2830  -12.9740   20.1510 N   0  0  0  0  0  0  0  0  0  0  0  0
  -25.9370  -11.6870   20.4100 N   0  0  0  0  0  0  0  0  0  0  0  0
  -23.9440  -10.4520   20.9730 C   0  0  0  0  0  0  0  0  0  0  0  0
  -24.3950   -9.4870   21.9000 C   0  0  0  0  0  3  0  0  0  0  0  0
  -23.6780   -8.2860   22.0880 C   0  0  0  0  0  3  0  0  0  0  0  0
  -22.4960   -8.0400   21.3500 C   0  0  0  0  0  0  0  0  0  0  0  0
  -22.0640   -8.9940   20.4120 C   0  0  0  0  0  3  0  0  0  0  0  0
  -22.7820  -10.1870   20.2210 C   0  0  0  0  0  3  0  0  0  0  0  0
  -21.7510   -6.8900   21.4470 O   0  0  0  0  0  0  0  0  0  0  0  0
  -21.6940   -6.1660   22.6100 C   0  0  0  0  0  0  0  0  0  0  0  0
  -21.2490   -6.7370   23.8220 C   0  0  0  0  0  3  0  0  0  0  0  0
  -21.1390   -5.9390   24.9780 C   0  0  0  0  0  3  0  0  0  0  0  0
  -21.4640   -4.5710   24.9230 C   0  0  0  0  0  0  0  0  0  0  0  0
  -21.9010   -3.9980   23.7150 C   0  0  0  0  0  3  0  0  0  0  0  0
  -22.0140   -4.7930   22.5620 C   0  0  0  0  0  0  0  0  0  0  0  0
  -22.4150   -4.2330   21.3960 F   0  0  0  0  0  0  0  0  0  0  0  0
  -21.3500   -3.8010   26.0300 F   0  0  0  0  0  0  0  0  0  0  0  0
  -22.8140  -13.5400   21.1800 C   0  0  0  0  0  0  0  0  0  0  0  0
  -22.1250  -12.8340   22.0690 N   0  0  0  0  0  0  0  0  0  0  0  0
  -22.3510  -14.5680   20.6880 O   0  0  0  0  0  0  0  0  0  0  0  0
  -22.5110  -12.0020   22.4900 H   0  0  0  0  0  0  0  0  0  0  0  0
  -21.1970  -13.1320   22.3350 H   0  0  0  0  0  0  0  0  0  0  0  0
  -25.4040  -15.2230   20.2810 N   0  0  0  0  0  0  0  0  0  0  0  0
  -24.6380  -15.8700   20.4330 H   0  0  0  0  0  0  0  0  0  0  0  0
  -26.2280  -15.6680   19.8970 H   0  0  0  0  0  0  0  0  0  0  0  0
  1  3  1  0
  2  4  2  0
  2  6  1  0
  3  7  1  0
  4  5  1  0
  5 50  1  0
  5  3  2  0
  6  1  2  0
  8  4  1  0
  9 11  1  0
  9  6  1  0
 10 21  2  0
 11 16  1  0
 12 20  1  0
 12 22  1  0
 13 19  1  0
 13 15  1  0
 14 20  1  0
 15 14  1  0
 16 15  2  0
 17 18  1  0
 17 11  2  0
 18 13  2  0
 19 12  1  0
 20 10  1  0
 22 24  2  0
 23 22  1  0
 25 23  1  0
 26 35  2  0
 26 31  1  0
 27 23  1  0
 27 31  1  0
 28 27  1  0
 29 30  1  0
 29 28  1  0
 30 26  1  0
 31 32  2  0
 32 33  1  0
 34 33  2  0
 35 34  1  0
 36 10  1  0
 36 37  1  0
 36 46  1  0
 37 40  1  0
 38 42  1  0
 38 37  1  0
 39 38  2  0
 42 41  1  0
 44 42  1  0
 44 45  1  0
 44 43  1  0
 46 49  1  1
 46 47  1  0
 48 46  1  0
 51 54  1  0
 52 51  1  0
 52 55  1  0
 54 50  1  0
 54 53  1  0
 55 64  1  0
 55 53  1  0
 56 64  1  0
 57 62  1  0
 58 59  1  0
 58 57  1  0
 60 59  1  0
 60 69  1  0
 60 61  1  0
 62 56  1  0
 62 61  1  0
 63 56  2  0
 64 65  1  0
 66 67  2  0
 67 86  1  0
 68 67  1  0
 68 71  1  0
 69 70  1  0
 69 66  1  0
 70 68  2  0
 71 72  1  0
 72 73  2  0
 74 77  1  0
 74 73  1  0
 75 74  2  0
 76 75  1  0
 76 71  2  0
 77 78  1  0
 78 79  1  0
 79 80  2  0
 81 80  1  0
 81 85  1  0
 82 81  2  0
 83 78  2  0
 83 82  1  0
 84 83  1  0
 86 87  1  0
 87 90  1  0
 87 89  1  0
 88 86  2  0
 91 92  1  0
 91 66  1  0
 93 91  1  0
M  ISO  4   6 101   9 101  56 100  64 100
M  END
>  <TORSDO>  (84) 
F 18

>  <SCORE>  (84) 
-14.719

>  <name>  (84) 
84

>  <ligand_id>  (84) 
84

>  <original_smiles>  (84) 
[H]c1c([H])c([H])c2c(c1[H])C([H])([H])C([H])([H])C([H])([H])C2([H])N([H])C(=O)C1([H])N(C(=O)C([H])(N([H])C(=O)C([H])(N([H])C([H])([H])[H])C([H])([H])[H])C(C([H])([H])[H])(C([H])([H])[H])C([H])([H])[H])C([H])([H])c2c([H])c(Oc3c([H])c(C([H])([H])[H])c(C([H])([H])C4([H])C([H])([H])C([H])([H])C([H])(N([H])C(=O)N5C([H])([H])C([H])([H])C([H])([H])C([H])(n6nc(-c7c([H])c([H])c(Oc8c([H])c([H])c(F)c([H])c8F)c([H])c7[H])c(C(=O)N([H])[H])c6N([H])[H])C5([H])[H])C4([H])[H])c(C([H])([H])[H])c3[H])c([H])c([H])c2C1([H])[H]

>  <smiles>  (84) 
[H]c1c([H])c([H])c2c(c1[H])C([H])([H])C([H])([H])C([H])([H])C2([H])N([H])C(=O)C1([H])N(C(=O)C([H])(N([H])C(=O)C([H])(N([H])C([H])([H])[H])C([H])([H])[H])C(C([H])([H])[H])(C([H])([H])[H])C([H])([H])[H])C([H])([H])c2c([H])c(Oc3c([H])c(C([H])([H])[H])c(C([H])([H])C4([H])C([H])([H])C([H])([H])C([H])(N([H])C(=O)N5C([H])([H])C([H])([H])C([H])([H])C([H])(n6nc(-c7c([H])c([H])c(Oc8c([H])c([H])c(F)c([H])c8F)c([H])c7[H])c(C(=O)N([H])[H])c6N([H])[H])C5([H])[H])C4([H])[H])c(C([H])([H])[H])c3[H])c([H])c([H])c2C1([H])[H]

$$$$
85:0:0
     RDKit          3D

 93102  0  0  1  0  0  0  0  0999 V2000
  -27.4680  -19.2660   20.4580 C   0  0  0  0  0  3  0  0  0  0  0  0
  -29.9290  -19.0040   19.0770 C   0  0  0  0  0  3  0  0  0  0  0  0
  -28.1350  -18.0350   20.3860 C   0  0  0  0  0  0  0  0  0  0  0  0
  -29.2760  -17.8380   19.6080 C   0  0  0  0  0  0  0  0  0  0  0  0
  -28.0270  -20.3890   19.8190 C   0  0  0  0  0  0  0  0  0  0  0  0
  -29.3370  -20.3160   19.2600 C   0  0  0  0  0  0  0  0  0  0  0  0
  -27.7200  -16.7920   21.1210 C   0  0  0  0  0  2  0  0  0  0  0  0
  -28.9140  -15.8530   20.8970 C   0  0  0  0  0  2  0  0  0  0  0  0
  -29.5330  -16.2890   19.5400 C   0  0  0  0  0  3  0  0  0  0  0  0
  -27.1550  -21.6350   19.7070 C   0  0  0  0  0  1  0  0  0  0  0  0
  -31.3570  -14.4230   18.9980 C   0  0  0  0  0  0  0  0  0  0  0  0
  -31.0480  -11.9890   18.5490 C   0  0  0  0  0  2  0  0  0  0  0  0
  -29.9990  -11.7510   17.4410 C   0  0  0  0  0  2  0  0  0  0  0  0
  -28.5830  -11.6710   18.0440 C   0  0  0  0  0  2  0  0  0  0  0  0
  -28.3030  -12.8380   19.0220 C   0  0  0  0  0  3  0  0  0  0  0  0
  -29.4640  -13.0220   20.0180 C   0  0  0  0  0  2  0  0  0  0  0  0
  -30.6900  -13.2480   19.2510 N   0  0  0  0  0  0  0  0  0  0  0  0
  -32.4560  -14.3850   18.4350 O   0  0  0  0  0  0  0  0  0  0  0  0
  -30.8670  -15.6800   19.2800 N   0  0  0  0  0  0  0  0  0  0  0  0
  -31.5610  -16.3870   19.0860 H   0  0  0  0  0  0  0  0  0  0  0  0
  -26.1480  -13.6780   20.1320 C   0  0  0  0  0  0  0  0  0  0  0  0
  -25.0710  -13.0150   20.6530 C   0  0  0  0  0  0  0  0  0  0  0  0
  -25.3600  -11.6220   20.5150 C   0  0  0  0  0  0  0  0  0  0  0  0
  -27.0270  -12.6930   19.7070 N   0  0  0  0  0  0  0  0  0  0  0  0
  -26.5730  -11.4510   20.0040 N   0  0  0  0  0  0  0  0  0  0  0  0
  -24.5290  -10.4440   20.7850 C   0  0  0  0  0  0  0  0  0  0  0  0
  -24.8820   -9.5040   21.7770 C   0  0  0  0  0  3  0  0  0  0  0  0
  -24.0560   -8.3880   22.0270 C   0  0  0  0  0  3  0  0  0  0  0  0
  -22.8640   -8.2060   21.2860 C   0  0  0  0  0  0  0  0  0  0  0  0
  -22.5310   -9.1330   20.2820 C   0  0  0  0  0  3  0  0  0  0  0  0
  -23.3570  -10.2410   20.0300 C   0  0  0  0  0  3  0  0  0  0  0  0
  -22.0160   -7.1370   21.4400 O   0  0  0  0  0  0  0  0  0  0  0  0
  -21.7870   -6.5740   22.6690 C   0  0  0  0  0  0  0  0  0  0  0  0
  -21.2520   -7.3200   23.7410 C   0  0  0  0  0  3  0  0  0  0  0  0
  -20.9640   -6.6860   24.9670 C   0  0  0  0  0  3  0  0  0  0  0  0
  -21.2020   -5.3070   25.1200 C   0  0  0  0  0  0  0  0  0  0  0  0
  -21.7310   -4.5610   24.0520 C   0  0  0  0  0  3  0  0  0  0  0  0
  -22.0180   -5.1920   22.8290 C   0  0  0  0  0  0  0  0  0  0  0  0
  -22.5060   -4.4660   21.7950 F   0  0  0  0  0  0  0  0  0  0  0  0
  -20.9200   -4.6930   26.2940 F   0  0  0  0  0  0  0  0  0  0  0  0
  -23.8010  -13.6350   21.1580 C   0  0  0  0  0  0  0  0  0  0  0  0
  -23.1620  -13.0060   22.1410 N   0  0  0  0  0  0  0  0  0  0  0  0
  -23.3950  -14.7110   20.7200 O   0  0  0  0  0  0  0  0  0  0  0  0
  -23.5100  -12.1370   22.5160 H   0  0  0  0  0  0  0  0  0  0  0  0
  -22.3160  -13.4010   22.5250 H   0  0  0  0  0  0  0  0  0  0  0  0
  -26.4350  -15.0270   19.9570 N   0  0  0  0  0  0  0  0  0  0  0  0
  -25.7630  -15.7460   20.1980 H   0  0  0  0  0  0  0  0  0  0  0  0
  -27.2420  -15.3860   19.4650 H   0  0  0  0  0  0  0  0  0  0  0  0
  -29.9770  -21.4940   18.8530 O   0  0  0  0  0  0  0  0  0  0  0  0
  -30.0410  -22.6150   19.8030 C   0  0  0  0  0  2  0  0  0  0  0  0
  -29.7190  -24.0810   19.2850 C   0  0  0  0  0  3  0  0  0  0  0  0
  -29.4360  -25.1660   20.3960 C   0  0  0  0  0  3  0  0  0  0  0  0
  -29.4580  -26.5870   20.0380 O   0  0  0  0  0  0  0  0  0  0  0  0
  -25.2140  -31.2510   23.4950 C   0  0  0  0  0  0  0  0  0  0  0  0
  -28.2650  -27.3010   20.0780 C   0  0  0  0  0  0  0  0  0  0  0  0
  -24.1840  -29.9990   21.6310 C   0  0  0  0  0  3  0  0  0  0  0  0
  -25.7970  -28.7210   20.1150 C   0  0  0  0  0  0  0  0  0  0  0  0
  -26.6970  -30.4980   21.6250 C   0  0  0  0  0  2  0  0  0  0  0  0
  -26.8980  -29.2210   20.8230 C   0  0  0  0  0  0  0  0  0  0  0  0
  -28.1400  -28.5300   20.7840 C   0  0  0  0  0  3  0  0  0  0  0  0
  -27.1400  -26.8220   19.3720 C   0  0  0  0  0  3  0  0  0  0  0  0
  -25.9190  -27.5300   19.3760 C   0  0  0  0  0  3  0  0  0  0  0  0
  -24.5050  -29.5100   20.1920 C   0  0  0  0  0  2  0  0  0  0  0  0
  -25.3800  -30.5920   22.3110 N   0  0  0  0  0  0  0  0  0  0  0  0
  -24.0930  -31.3960   23.9980 O   0  0  0  0  0  0  0  0  0  0  0  0
  -23.5440  -28.8350   22.4250 C   0  0  0  0  0  0  0  0  0  0  0  0
  -22.2560  -28.5610   22.1590 N   0  0  0  0  0  0  0  0  0  0  0  0
  -24.2060  -28.1880   23.2380 O   0  0  0  0  0  0  0  0  0  0  0  0
  -21.7730  -29.1470   21.4900 H   0  0  0  0  0  0  0  0  0  0  0  0
  -19.0060  -26.9850   22.1410 C   0  0  0  0  0  0  0  0  0  0  0  0
  -21.4680  -27.4800   22.7470 C   0  0  0  0  0  3  0  0  0  0  0  0
  -21.8040  -26.1290   22.0710 C   0  0  0  0  0  2  0  0  0  0  0  0
  -20.8620  -25.7910   20.9110 C   0  0  0  0  0  2  0  0  0  0  0  0
  -19.4140  -25.7190   21.4060 C   0  0  0  0  0  2  0  0  0  0  0  0
  -19.9740  -27.8160   22.7640 C   0  0  0  0  0  0  0  0  0  0  0  0
  -19.5470  -28.9950   23.4140 C   0  0  0  0  0  3  0  0  0  0  0  0
  -18.1840  -29.3470   23.4520 C   0  0  0  0  0  3  0  0  0  0  0  0
  -17.2300  -28.5070   22.8530 C   0  0  0  0  0  3  0  0  0  0  0  0
  -17.6410  -27.3290   22.2050 C   0  0  0  0  0  3  0  0  0  0  0  0
  -26.4240  -31.8720   24.2600 C   0  0  0  0  0  3  0  0  0  0  0  0
  -26.8870  -31.0090   25.4980 C   0  0  1  0  0  0  0  0  0  0  0  0
  -25.7330  -30.6190   26.4510 C   0  0  0  0  0  1  0  0  0  0  0  0
  -27.5610  -29.6990   25.0290 C   0  0  0  0  0  1  0  0  0  0  0  0
  -27.9480  -31.7870   26.3150 C   0  0  0  0  0  1  0  0  0  0  0  0
  -26.0370  -33.2230   24.6870 N   0  0  0  0  0  0  0  0  0  0  0  0
  -26.3930  -34.3500   24.0580 C   0  0  0  0  0  0  0  0  0  0  0  0
  -27.1540  -34.3640   23.0860 O   0  0  0  0  0  0  0  0  0  0  0  0
  -25.3740  -33.2850   25.4460 H   0  0  0  0  0  0  0  0  0  0  0  0
  -24.6400  -36.1160   23.7090 C   0  0  0  0  0  1  0  0  0  0  0  0
  -25.8170  -35.6750   24.5940 C   0  0  0  0  0  3  0  0  0  0  0  0
  -27.8320  -36.5340   25.7020 C   0  0  0  0  0  1  0  0  0  0  0  0
  -26.8160  -36.7630   24.6770 N   0  0  0  0  0  0  0  0  0  0  0  0
  -26.3650  -37.6530   24.8700 H   0  0  0  0  0  0  0  0  0  0  0  0
  2  6  2  0
  2  4  1  0
  3  1  1  0
  3  7  1  0
  4  3  2  0
  5  1  2  0
  6  5  1  0
  8  7  1  0
  9 19  1  0
  9  4  1  0
  9  8  1  0
 10  5  1  0
 11 17  1  0
 11 19  1  0
 12 17  1  0
 13 14  1  0
 13 12  1  0
 15 14  1  0
 15 24  1  0
 15 16  1  0
 17 16  1  0
 18 11  2  0
 20 19  1  0
 21 22  2  0
 22 41  1  0
 23 22  1  0
 23 26  1  0
 24 25  1  0
 24 21  1  0
 25 23  2  0
 26 27  1  0
 27 28  2  0
 29 32  1  0
 29 28  1  0
 30 29  2  0
 31 30  1  0
 31 26  2  0
 32 33  1  0
 33 38  2  0
 33 34  1  0
 34 35  2  0
 35 36  1  0
 36 40  1  0
 37 36  2  0
 38 37  1  0
 39 38  1  0
 41 42  1  0
 42 44  1  0
 42 45  1  0
 43 41  2  0
 46 21  1  0
 46 47  1  0
 48 46  1  0
 49  6  1  0
 49 50  1  0
 51 50  1  0
 51 52  2  0
 53 55  1  0
 53 52  1  0
 54 65  2  0
 55 60  1  0
 56 64  1  0
 56 66  1  0
 57 63  1  0
 57 59  1  0
 58 64  1  0
 59 58  1  0
 60 59  2  0
 61 62  1  0
 61 55  2  0
 62 57  2  0
 63 56  1  0
 64 54  1  0
 66 68  2  0
 67 66  1  0
 69 67  1  0
 70 79  2  0
 70 75  1  0
 71 67  1  0
 71 75  1  0
 72 71  1  0
 73 74  1  0
 73 72  1  0
 74 70  1  0
 75 76  2  0
 76 77  1  0
 78 77  2  0
 79 78  1  0
 80 54  1  0
 80 85  1  0
 80 81  1  0
 81 84  1  1
 81 82  1  0
 83 81  1  0
 85 88  1  0
 86 90  1  0
 86 85  1  0
 87 86  2  0
 90 89  1  0
 90 92  1  0
 92 93  1  0
 92 91  1  0
M  ISO  4  11 100  19 100  52 101  53 101
M  END
>  <TORSDO>  (85) 
F 20

>  <SCORE>  (85) 
-9.122

>  <name>  (85) 
85

>  <ligand_id>  (85) 
85

>  <original_smiles>  (85) 
[H]c1c([H])c([H])c2c(c1[H])C([H])([H])C([H])([H])C([H])([H])C2([H])N([H])C(=O)C1([H])N(C(=O)C([H])(N([H])C(=O)C([H])(N([H])C([H])([H])[H])C([H])([H])[H])C(C([H])([H])[H])(C([H])([H])[H])C([H])([H])[H])C([H])([H])c2c([H])c(OC([H])([H])C([H])([H])C([H])([H])Oc3c([H])c4c(c([H])c3C([H])([H])[H])C([H])([H])C([H])([H])C4([H])N([H])C(=O)N3C([H])([H])C([H])([H])C([H])([H])C([H])(n4nc(-c5c([H])c([H])c(Oc6c([H])c([H])c(F)c([H])c6F)c([H])c5[H])c(C(=O)N([H])[H])c4N([H])[H])C3([H])[H])c([H])c([H])c2C1([H])[H]

>  <smiles>  (85) 
[H]c1c([H])c([H])c2c(c1[H])C([H])([H])C([H])([H])C([H])([H])C2([H])N([H])C(=O)C1([H])N(C(=O)C([H])(N([H])C(=O)C([H])(N([H])C([H])([H])[H])C([H])([H])[H])C(C([H])([H])[H])(C([H])([H])[H])C([H])([H])[H])C([H])([H])c2c([H])c(OC([H])([H])C([H])([H])C([H])([H])Oc3c([H])c4c(c([H])c3C([H])([H])[H])C([H])([H])C([H])([H])C4([H])N([H])C(=O)N3C([H])([H])C([H])([H])C([H])([H])C([H])(n4nc(-c5c([H])c([H])c(Oc6c([H])c([H])c(F)c([H])c6F)c([H])c5[H])c(C(=O)N([H])[H])c4N([H])[H])C3([H])[H])c([H])c([H])c2C1([H])[H]

$$$$
86:0:0
     RDKit          3D

 91100  0  0  1  0  0  0  0  0999 V2000
  -28.8010  -19.0130   19.8600 C   0  0  0  0  0  3  0  0  0  0  0  0
  -30.6320  -18.6730   21.3740 C   0  0  0  0  0  3  0  0  0  0  0  0
  -28.8530  -20.4830   20.0690 C   0  0  0  0  0  0  0  0  0  0  0  0
  -29.7730  -21.0160   20.9550 C   0  0  0  0  0  0  0  0  0  0  0  0
  -29.7060  -18.0150   20.4930 C   0  0  0  0  0  0  0  0  0  0  0  0
  -30.6590  -20.1110   21.6350 C   0  0  0  0  0  0  0  0  0  0  0  0
  -28.0110  -21.7300   19.5230 C   0  0  0  0  0  2  0  0  0  0  0  0
  -29.6230  -22.5920   21.0850 C   0  0  0  0  0  2  0  0  0  0  0  0
  -28.6820  -23.1830   19.9170 C   0  0  0  0  0  3  0  0  0  0  0  0
  -30.4430  -15.2820   20.4220 C   0  0  0  0  0  0  0  0  0  0  0  0
  -30.4510  -12.8490   19.6030 C   0  0  0  0  0  2  0  0  0  0  0  0
  -29.5490  -12.6400   18.3620 C   0  0  0  0  0  2  0  0  0  0  0  0
  -28.0760  -12.4210   18.7660 C   0  0  0  0  0  2  0  0  0  0  0  0
  -27.6160  -13.4070   19.8690 C   0  0  0  0  0  3  0  0  0  0  0  0
  -28.6390  -13.5350   21.0130 C   0  0  0  0  0  2  0  0  0  0  0  0
  -29.8940  -13.9870   20.3990 N   0  0  0  0  0  0  0  0  0  0  0  0
  -31.6610  -15.3520   20.2220 O   0  0  0  0  0  0  0  0  0  0  0  0
  -29.5920  -16.4520   20.3820 N   0  0  0  0  0  0  0  0  0  0  0  0
  -28.6360  -16.1520   20.2650 H   0  0  0  0  0  0  0  0  0  0  0  0
  -25.2340  -13.9940   20.5850 C   0  0  0  0  0  0  0  0  0  0  0  0
  -24.1610  -13.2240   20.9310 C   0  0  0  0  0  0  0  0  0  0  0  0
  -24.6150  -11.8700   20.9000 C   0  0  0  0  0  0  0  0  0  0  0  0
  -26.2730  -13.1100   20.3540 N   0  0  0  0  0  0  0  0  0  0  0  0
  -25.9100  -11.8260   20.6090 N   0  0  0  0  0  0  0  0  0  0  0  0
  -23.8740  -10.6120   21.0730 C   0  0  0  0  0  0  0  0  0  0  0  0
  -24.2740   -9.6430   22.0170 C   0  0  0  0  0  3  0  0  0  0  0  0
  -23.5330   -8.4540   22.1780 C   0  0  0  0  0  3  0  0  0  0  0  0
  -22.3770   -8.2240   21.3950 C   0  0  0  0  0  0  0  0  0  0  0  0
  -21.9960   -9.1830   20.4410 C   0  0  0  0  0  3  0  0  0  0  0  0
  -22.7370  -10.3650   20.2790 C   0  0  0  0  0  3  0  0  0  0  0  0
  -21.6120   -7.0850   21.4640 O   0  0  0  0  0  0  0  0  0  0  0  0
  -21.5090   -6.3580   22.6220 C   0  0  0  0  0  0  0  0  0  0  0  0
  -21.0110   -6.9220   23.8170 C   0  0  0  0  0  3  0  0  0  0  0  0
  -20.8580   -6.1170   24.9640 C   0  0  0  0  0  3  0  0  0  0  0  0
  -21.1910   -4.7500   24.9180 C   0  0  0  0  0  0  0  0  0  0  0  0
  -21.6860   -4.1880   23.7270 C   0  0  0  0  0  3  0  0  0  0  0  0
  -21.8400   -4.9890   22.5820 C   0  0  0  0  0  0  0  0  0  0  0  0
  -22.2940   -4.4340   21.4320 F   0  0  0  0  0  0  0  0  0  0  0  0
  -21.0390   -3.9770   26.0180 F   0  0  0  0  0  0  0  0  0  0  0  0
  -22.7640  -13.7140   21.1850 C   0  0  0  0  0  0  0  0  0  0  0  0
  -22.0250  -13.0270   22.0480 N   0  0  0  0  0  0  0  0  0  0  0  0
  -22.3420  -14.7410   20.6550 O   0  0  0  0  0  0  0  0  0  0  0  0
  -22.3820  -12.1950   22.4900 H   0  0  0  0  0  0  0  0  0  0  0  0
  -21.0890  -13.3410   22.2670 H   0  0  0  0  0  0  0  0  0  0  0  0
  -25.4090  -15.3640   20.4230 N   0  0  0  0  0  0  0  0  0  0  0  0
  -24.6350  -16.0130   20.5090 H   0  0  0  0  0  0  0  0  0  0  0  0
  -26.2690  -15.8120   20.1360 H   0  0  0  0  0  0  0  0  0  0  0  0
  -32.1910  -19.9000   23.5230 C   0  0  0  0  0  1  0  0  0  0  0  0
  -31.5170  -20.7000   22.5460 O   0  0  0  0  0  0  0  0  0  0  0  0
  -27.7340  -24.6350   20.0190 C   0  0  0  0  0  2  0  0  0  0  0  0
  -28.0300  -26.1960   19.9060 O   0  0  0  0  0  0  0  0  0  0  0  0
  -24.4960  -31.8860   23.1140 C   0  0  0  0  0  0  0  0  0  0  0  0
  -26.9770  -27.2110   19.9080 C   0  0  0  0  0  0  0  0  0  0  0  0
  -23.2420  -30.5220   21.4890 C   0  0  0  0  0  3  0  0  0  0  0  0
  -24.6490  -28.9840   19.9760 C   0  0  0  0  0  0  0  0  0  0  0  0
  -25.7790  -30.8080   21.2190 C   0  0  0  0  0  2  0  0  0  0  0  0
  -25.8480  -29.4140   20.5570 C   0  0  0  0  0  0  0  0  0  0  0  0
  -27.0140  -28.5480   20.5050 C   0  0  0  0  0  3  0  0  0  0  0  0
  -25.7480  -26.9070   19.2810 C   0  0  0  0  0  3  0  0  0  0  0  0
  -24.6120  -27.7470   19.3160 C   0  0  0  0  0  3  0  0  0  0  0  0
  -23.4200  -29.8810   20.0840 C   0  0  0  0  0  2  0  0  0  0  0  0
  -24.5290  -31.0930   21.9970 N   0  0  0  0  0  0  0  0  0  0  0  0
  -23.4310  -32.1480   23.6920 O   0  0  0  0  0  0  0  0  0  0  0  0
  -22.6030  -29.4880   22.4540 C   0  0  0  0  0  0  0  0  0  0  0  0
  -21.2750  -29.2980   22.3630 N   0  0  0  0  0  0  0  0  0  0  0  0
  -23.3020  -28.8590   23.2510 O   0  0  0  0  0  0  0  0  0  0  0  0
  -20.7600  -29.8550   21.6950 H   0  0  0  0  0  0  0  0  0  0  0  0
  -17.9370  -28.0060   22.9200 C   0  0  0  0  0  0  0  0  0  0  0  0
  -20.4920  -28.3340   23.1410 C   0  0  0  0  0  3  0  0  0  0  0  0
  -20.6230  -26.9100   22.5530 C   0  0  0  0  0  2  0  0  0  0  0  0
  -19.5150  -26.5690   21.5530 C   0  0  0  0  0  2  0  0  0  0  0  0
  -18.1390  -26.6690   22.2250 C   0  0  0  0  0  2  0  0  0  0  0  0
  -19.0430  -28.7940   23.3350 C   0  0  0  0  0  0  0  0  0  0  0  0
  -18.8070  -30.0420   23.9500 C   0  0  0  0  0  3  0  0  0  0  0  0
  -17.4940  -30.5080   24.1490 C   0  0  0  0  0  3  0  0  0  0  0  0
  -16.4000  -29.7220   23.7490 C   0  0  0  0  0  3  0  0  0  0  0  0
  -16.6220  -28.4720   23.1420 C   0  0  0  0  0  3  0  0  0  0  0  0
  -25.7930  -32.5200   23.6990 C   0  0  0  0  0  3  0  0  0  0  0  0
  -25.4870  -33.9090   24.0820 N   0  0  0  0  0  0  0  0  0  0  0  0
  -25.7970  -34.9830   23.3480 C   0  0  0  0  0  0  0  0  0  0  0  0
  -26.4380  -34.9120   22.2960 O   0  0  0  0  0  0  0  0  0  0  0  0
  -24.9190  -34.0330   24.9080 H   0  0  0  0  0  0  0  0  0  0  0  0
  -24.0770  -36.8010   23.0720 C   0  0  0  0  0  1  0  0  0  0  0  0
  -25.3220  -36.3590   23.8580 C   0  0  0  0  0  3  0  0  0  0  0  0
  -27.4690  -37.2120   24.6950 C   0  0  0  0  0  1  0  0  0  0  0  0
  -26.3580  -37.4130   23.7680 N   0  0  0  0  0  0  0  0  0  0  0  0
  -25.9550  -38.3270   23.9530 H   0  0  0  0  0  0  0  0  0  0  0  0
  -26.3630  -31.7230   24.9390 C   0  0  1  0  0  0  0  0  0  0  0  0
  -25.3160  -31.4550   26.0470 C   0  0  0  0  0  1  0  0  0  0  0  0
  -26.9330  -30.3560   24.4920 C   0  0  0  0  0  1  0  0  0  0  0  0
  -27.5460  -32.5000   25.5650 C   0  0  0  0  0  1  0  0  0  0  0  0
  1  3  2  0
  1  5  1  0
  2  6  1  0
  3  4  1  0
  4  8  1  0
  4  6  2  0
  5  2  2  0
  6 49  1  0
  7  9  1  0
  7  3  1  0
  9 50  1  0
  9  8  1  0
 11 16  1  0
 12 13  1  0
 12 11  1  0
 14 13  1  0
 14 23  1  0
 14 15  1  0
 16 10  1  0
 16 15  1  0
 17 10  2  0
 18 10  1  0
 18  5  1  0
 19 18  1  0
 20 21  2  0
 21 40  1  0
 22 21  1  0
 22 25  1  0
 23 20  1  0
 23 24  1  0
 24 22  2  0
 25 26  1  0
 26 27  2  0
 28 31  1  0
 28 27  1  0
 29 28  2  0
 30 29  1  0
 30 25  2  0
 31 32  1  0
 32 33  1  0
 33 34  2  0
 35 34  1  0
 35 39  1  0
 36 35  2  0
 37 32  2  0
 37 36  1  0
 38 37  1  0
 40 41  1  0
 41 44  1  0
 41 43  1  0
 42 40  2  0
 45 46  1  0
 45 20  1  0
 47 45  1  0
 49 48  1  0
 51 53  1  0
 51 50  1  0
 52 63  2  0
 53 58  1  0
 54 62  1  0
 54 64  1  0
 55 61  1  0
 55 57  1  0
 56 62  1  0
 57 56  1  0
 58 57  2  0
 59 60  1  0
 59 53  2  0
 60 55  2  0
 61 54  1  0
 62 52  1  0
 64 66  2  0
 65 64  1  0
 67 65  1  0
 68 77  2  0
 68 73  1  0
 69 65  1  0
 69 73  1  0
 70 69  1  0
 71 72  1  0
 71 70  1  0
 72 68  1  0
 73 74  2  0
 74 75  1  0
 76 75  2  0
 77 76  1  0
 78 52  1  0
 78 79  1  0
 78 88  1  0
 79 82  1  0
 80 84  1  0
 80 79  1  0
 81 80  2  0
 84 83  1  0
 86 84  1  0
 86 87  1  0
 86 85  1  0
 88 91  1  1
 88 89  1  0
 90 88  1  0
M  ISO  4  10 100  18 100  50 101  51 101
M  END
>  <TORSDO>  (86) 
F 18

>  <SCORE>  (86) 
-15.074

>  <name>  (86) 
86

>  <ligand_id>  (86) 
86

>  <original_smiles>  (86) 
[H]c1c([H])c([H])c2c(c1[H])C([H])([H])C([H])([H])C([H])([H])C2([H])N([H])C(=O)C1([H])N(C(=O)C([H])(N([H])C(=O)C([H])(N([H])C([H])([H])[H])C([H])([H])[H])C(C([H])([H])[H])(C([H])([H])[H])C([H])([H])[H])C([H])([H])c2c([H])c(OC([H])([H])C3([H])C([H])([H])c4c([H])c(N([H])C(=O)N5C([H])([H])C([H])([H])C([H])([H])C([H])(n6nc(-c7c([H])c([H])c(Oc8c([H])c([H])c(F)c([H])c8F)c([H])c7[H])c(C(=O)N([H])[H])c6N([H])[H])C5([H])[H])c([H])c(OC([H])([H])[H])c4C3([H])[H])c([H])c([H])c2C1([H])[H]

>  <smiles>  (86) 
[H]c1c([H])c([H])c2c(c1[H])C([H])([H])C([H])([H])C([H])([H])C2([H])N([H])C(=O)C1([H])N(C(=O)C([H])(N([H])C(=O)C([H])(N([H])C([H])([H])[H])C([H])([H])[H])C(C([H])([H])[H])(C([H])([H])[H])C([H])([H])[H])C([H])([H])c2c([H])c(OC([H])([H])C3([H])C([H])([H])c4c([H])c(N([H])C(=O)N5C([H])([H])C([H])([H])C([H])([H])C([H])(n6nc(-c7c([H])c([H])c(Oc8c([H])c([H])c(F)c([H])c8F)c([H])c7[H])c(C(=O)N([H])[H])c6N([H])[H])C5([H])[H])c([H])c(OC([H])([H])[H])c4C3([H])[H])c([H])c([H])c2C1([H])[H]

$$$$
87:0:0
     RDKit          3D

 93102  0  0  1  0  0  0  0  0999 V2000
  -29.5560  -23.3330   21.8140 C   0  0  0  0  0  3  0  0  0  0  0  0
  -28.3140  -22.9700   19.7960 C   0  0  0  0  0  3  0  0  0  0  0  0
  -30.0130  -21.9810   21.7990 C   0  0  0  0  0  0  0  0  0  0  0  0
  -28.6910  -23.8710   20.8270 C   0  0  0  0  0  0  0  0  0  0  0  0
  -28.7770  -21.6130   19.7540 C   0  0  0  0  0  0  0  0  0  0  0  0
  -29.6260  -21.0780   20.7680 C   0  0  0  0  0  0  0  0  0  0  0  0
  -28.3630  -20.7420   18.5830 C   0  0  0  0  0  1  0  0  0  0  0  0
  -30.4550  -20.5270   23.9360 C   0  0  0  0  0  2  0  0  0  0  0  0
  -30.7480  -21.9550   24.3280 C   0  0  0  0  0  2  0  0  0  0  0  0
  -30.9290  -21.5120   22.8920 C   0  0  0  0  0  3  0  0  0  0  0  0
  -27.9960  -25.2670   21.0570 C   0  0  0  0  0  2  0  0  0  0  0  0
  -28.3110  -26.4880   20.2790 O   0  0  0  0  0  0  0  0  0  0  0  0
  -24.5980  -31.9290   23.2420 C   0  0  0  0  0  0  0  0  0  0  0  0
  -27.2350  -27.3840   20.2090 C   0  0  0  0  0  0  0  0  0  0  0  0
  -23.4040  -30.5190   21.6040 C   0  0  0  0  0  3  0  0  0  0  0  0
  -24.8670  -28.9800   20.1780 C   0  0  0  0  0  0  0  0  0  0  0  0
  -25.9410  -30.8540   21.4230 C   0  0  0  0  0  2  0  0  0  0  0  0
  -26.0320  -29.4760   20.7800 C   0  0  0  0  0  0  0  0  0  0  0  0
  -27.2230  -28.6890   20.7890 C   0  0  0  0  0  3  0  0  0  0  0  0
  -26.0580  -26.9500   19.5640 C   0  0  0  0  0  3  0  0  0  0  0  0
  -24.8820  -27.7220   19.5580 C   0  0  0  0  0  3  0  0  0  0  0  0
  -23.6240  -29.8430   20.2260 C   0  0  0  0  0  2  0  0  0  0  0  0
  -24.6660  -31.1180   22.1460 N   0  0  0  0  0  0  0  0  0  0  0  0
  -23.5130  -32.2020   23.7750 O   0  0  0  0  0  0  0  0  0  0  0  0
  -22.7470  -29.5000   22.5660 C   0  0  0  0  0  0  0  0  0  0  0  0
  -21.4270  -29.2930   22.4170 N   0  0  0  0  0  0  0  0  0  0  0  0
  -23.4230  -28.9010   23.4060 O   0  0  0  0  0  0  0  0  0  0  0  0
  -20.9410  -29.8290   21.7130 H   0  0  0  0  0  0  0  0  0  0  0  0
  -18.0740  -28.0060   22.8460 C   0  0  0  0  0  0  0  0  0  0  0  0
  -20.6140  -28.3500   23.1870 C   0  0  0  0  0  3  0  0  0  0  0  0
  -20.7760  -26.9080   22.6520 C   0  0  0  0  0  2  0  0  0  0  0  0
  -19.7170  -26.5270   21.6130 C   0  0  0  0  0  2  0  0  0  0  0  0
  -18.3110  -26.6460   22.2100 C   0  0  0  0  0  2  0  0  0  0  0  0
  -19.1550  -28.8120   23.2890 C   0  0  0  0  0  0  0  0  0  0  0  0
  -18.8800  -30.0820   23.8410 C   0  0  0  0  0  3  0  0  0  0  0  0
  -17.5570  -30.5480   23.9550 C   0  0  0  0  0  3  0  0  0  0  0  0
  -16.4900  -29.7380   23.5280 C   0  0  0  0  0  3  0  0  0  0  0  0
  -16.7480  -28.4700   22.9790 C   0  0  0  0  0  3  0  0  0  0  0  0
  -25.8770  -32.5700   23.8630 C   0  0  0  0  0  3  0  0  0  0  0  0
  -25.5620  -33.9690   24.1830 N   0  0  0  0  0  0  0  0  0  0  0  0
  -25.9020  -35.0190   23.4230 C   0  0  0  0  0  0  0  0  0  0  0  0
  -26.5840  -34.9130   22.4000 O   0  0  0  0  0  0  0  0  0  0  0  0
  -24.9590  -34.1270   24.9770 H   0  0  0  0  0  0  0  0  0  0  0  0
  -24.1870  -36.8180   23.0310 C   0  0  0  0  0  1  0  0  0  0  0  0
  -25.4090  -36.4100   23.8700 C   0  0  0  0  0  3  0  0  0  0  0  0
  -27.5240  -37.2920   24.7510 C   0  0  0  0  0  1  0  0  0  0  0  0
  -26.4460  -37.4600   23.7800 N   0  0  0  0  0  0  0  0  0  0  0  0
  -26.0400  -38.3810   23.9140 H   0  0  0  0  0  0  0  0  0  0  0  0
  -26.3940  -31.8090   25.1450 C   0  0  1  0  0  0  0  0  0  0  0  0
  -25.2970  -31.5720   26.2100 C   0  0  0  0  0  1  0  0  0  0  0  0
  -26.9860  -30.4330   24.7640 C   0  0  0  0  0  1  0  0  0  0  0  0
  -27.5360  -32.6140   25.8070 C   0  0  0  0  0  1  0  0  0  0  0  0
  -30.2360  -19.8060   20.6930 O   0  0  0  0  0  0  0  0  0  0  0  0
  -29.5140  -18.5370   20.8290 C   0  0  0  0  0  2  0  0  0  0  0  0
  -30.5000  -17.2790   20.7780 C   0  0  0  0  0  2  0  0  0  0  0  0
  -30.6740  -14.7380   20.4900 C   0  0  0  0  0  0  0  0  0  0  0  0
  -30.4090  -12.5380   19.3680 C   0  0  0  0  0  2  0  0  0  0  0  0
  -29.4690  -12.6950   18.1540 C   0  0  0  0  0  2  0  0  0  0  0  0
  -28.0000  -12.5180   18.5860 C   0  0  0  0  0  2  0  0  0  0  0  0
  -27.6410  -13.3540   19.8430 C   0  0  0  0  0  3  0  0  0  0  0  0
  -28.7030  -13.2050   20.9540 C   0  0  0  0  0  2  0  0  0  0  0  0
  -30.0060  -13.5470   20.3710 N   0  0  0  0  0  0  0  0  0  0  0  0
  -31.8480  -14.8430   20.1320 O   0  0  0  0  0  0  0  0  0  0  0  0
  -29.9600  -15.8660   20.8090 N   0  0  0  0  0  0  0  0  0  0  0  0
  -28.9870  -15.7430   21.0480 H   0  0  0  0  0  0  0  0  0  0  0  0
  -25.2420  -13.9160   20.5640 C   0  0  0  0  0  0  0  0  0  0  0  0
  -24.1830  -13.1270   20.9240 C   0  0  0  0  0  0  0  0  0  0  0  0
  -24.6610  -11.7820   20.8820 C   0  0  0  0  0  0  0  0  0  0  0  0
  -26.2970  -13.0500   20.3250 N   0  0  0  0  0  0  0  0  0  0  0  0
  -25.9530  -11.7610   20.5780 N   0  0  0  0  0  0  0  0  0  0  0  0
  -23.9480  -10.5090   21.0550 C   0  0  0  0  0  0  0  0  0  0  0  0
  -24.3680   -9.5490   22.0030 C   0  0  0  0  0  3  0  0  0  0  0  0
  -23.6530   -8.3420   22.1650 C   0  0  0  0  0  3  0  0  0  0  0  0
  -22.5040   -8.0860   21.3790 C   0  0  0  0  0  0  0  0  0  0  0  0
  -22.1040   -9.0350   20.4200 C   0  0  0  0  0  3  0  0  0  0  0  0
  -22.8210  -10.2330   20.2570 C   0  0  0  0  0  3  0  0  0  0  0  0
  -21.7640   -6.9320   21.4500 O   0  0  0  0  0  0  0  0  0  0  0  0
  -21.6650   -6.2100   22.6130 C   0  0  0  0  0  0  0  0  0  0  0  0
  -21.1350   -6.7700   23.7960 C   0  0  0  0  0  3  0  0  0  0  0  0
  -20.9890   -5.9720   24.9480 C   0  0  0  0  0  3  0  0  0  0  0  0
  -21.3610   -4.6160   24.9180 C   0  0  0  0  0  0  0  0  0  0  0  0
  -21.8830   -4.0540   23.7400 C   0  0  0  0  0  3  0  0  0  0  0  0
  -22.0320   -4.8490   22.5890 C   0  0  0  0  0  0  0  0  0  0  0  0
  -22.5160   -4.2980   21.4500 F   0  0  0  0  0  0  0  0  0  0  0  0
  -21.2120   -3.8460   26.0220 F   0  0  0  0  0  0  0  0  0  0  0  0
  -22.7790  -13.5860   21.1940 C   0  0  0  0  0  0  0  0  0  0  0  0
  -22.0560  -12.8740   22.0510 N   0  0  0  0  0  0  0  0  0  0  0  0
  -22.3330  -14.6110   20.6800 O   0  0  0  0  0  0  0  0  0  0  0  0
  -22.4300  -12.0440   22.4870 H   0  0  0  0  0  0  0  0  0  0  0  0
  -21.1150  -13.1630   22.2760 H   0  0  0  0  0  0  0  0  0  0  0  0
  -25.3920  -15.2890   20.3970 N   0  0  0  0  0  0  0  0  0  0  0  0
  -24.6150  -15.9340   20.5030 H   0  0  0  0  0  0  0  0  0  0  0  0
  -26.2310  -15.7380   20.0540 H   0  0  0  0  0  0  0  0  0  0  0  0
  2  4  1  0
  3  1  1  0
  3 10  1  0
  4 11  1  0
  4  1  2  0
  5  2  2  0
  5  6  1  0
  6  3  2  0
  7  5  1  0
  8  9  1  0
 10  8  1  0
 10  9  1  0
 12 11  1  0
 13 24  2  0
 14 12  1  0
 14 19  1  0
 15 23  1  0
 15 25  1  0
 16 22  1  0
 16 18  1  0
 17 23  1  0
 18 19  2  0
 18 17  1  0
 20 14  2  0
 21 20  1  0
 21 16  2  0
 22 15  1  0
 23 13  1  0
 25 27  2  0
 26 25  1  0
 28 26  1  0
 29 38  2  0
 29 34  1  0
 30 26  1  0
 30 34  1  0
 31 30  1  0
 32 33  1  0
 32 31  1  0
 33 29  1  0
 34 35  2  0
 35 36  1  0
 37 36  2  0
 38 37  1  0
 39 13  1  0
 39 40  1  0
 39 49  1  0
 40 43  1  0
 41 45  1  0
 41 40  1  0
 42 41  2  0
 45 44  1  0
 47 45  1  0
 47 48  1  0
 47 46  1  0
 49 52  1  1
 49 50  1  0
 51 49  1  0
 53  6  1  0
 53 54  1  0
 55 64  1  0
 55 54  1  0
 56 64  1  0
 57 62  1  0
 58 59  1  0
 58 57  1  0
 60 59  1  0
 60 69  1  0
 60 61  1  0
 62 56  1  0
 62 61  1  0
 63 56  2  0
 64 65  1  0
 66 67  2  0
 67 86  1  0
 68 67  1  0
 68 71  1  0
 69 66  1  0
 69 70  1  0
 70 68  2  0
 71 72  1  0
 72 73  2  0
 74 77  1  0
 74 73  1  0
 75 74  2  0
 76 75  1  0
 76 71  2  0
 77 78  1  0
 78 79  1  0
 79 80  2  0
 81 80  1  0
 81 85  1  0
 82 81  2  0
 83 78  2  0
 83 82  1  0
 84 83  1  0
 86 87  1  0
 87 90  1  0
 87 89  1  0
 88 86  2  0
 91 92  1  0
 91 66  1  0
 93 91  1  0
M  ISO  4  11 101  12 101  56 100  64 100
M  END
>  <TORSDO>  (87) 
F 21

>  <SCORE>  (87) 
-13.991

>  <name>  (87) 
87

>  <ligand_id>  (87) 
87

>  <original_smiles>  (87) 
[H]c1c([H])c([H])c2c(c1[H])C([H])([H])C([H])([H])C([H])([H])C2([H])N([H])C(=O)C1([H])N(C(=O)C([H])(N([H])C(=O)C([H])(N([H])C([H])([H])[H])C([H])([H])[H])C(C([H])([H])[H])(C([H])([H])[H])C([H])([H])[H])C([H])([H])c2c([H])c(OC([H])([H])c3c([H])c(C([H])([H])[H])c(OC([H])([H])C([H])([H])N([H])C(=O)N4C([H])([H])C([H])([H])C([H])([H])C([H])(n5nc(-c6c([H])c([H])c(Oc7c([H])c([H])c(F)c([H])c7F)c([H])c6[H])c(C(=O)N([H])[H])c5N([H])[H])C4([H])[H])c(C4([H])C([H])([H])C4([H])[H])c3[H])c([H])c([H])c2C1([H])[H]

>  <smiles>  (87) 
[H]c1c([H])c([H])c2c(c1[H])C([H])([H])C([H])([H])C([H])([H])C2([H])N([H])C(=O)C1([H])N(C(=O)C([H])(N([H])C(=O)C([H])(N([H])C([H])([H])[H])C([H])([H])[H])C(C([H])([H])[H])(C([H])([H])[H])C([H])([H])[H])C([H])([H])c2c([H])c(OC([H])([H])c3c([H])c(C([H])([H])[H])c(OC([H])([H])C([H])([H])N([H])C(=O)N4C([H])([H])C([H])([H])C([H])([H])C([H])(n5nc(-c6c([H])c([H])c(Oc7c([H])c([H])c(F)c([H])c7F)c([H])c6[H])c(C(=O)N([H])[H])c5N([H])[H])C4([H])[H])c(C4([H])C([H])([H])C4([H])[H])c3[H])c([H])c([H])c2C1([H])[H]

$$$$
88:0:0
     RDKit          3D

 93102  0  0  1  0  0  0  0  0999 V2000
  -28.7960  -18.1190   18.4000 C   0  0  0  0  0  3  0  0  0  0  0  0
  -28.8500  -19.4270   18.9340 C   0  0  0  0  0  0  0  0  0  0  0  0
  -29.2250  -16.9980   19.1310 C   0  0  0  0  0  0  0  0  0  0  0  0
  -29.6950  -17.1450   20.4480 C   0  0  0  0  0  0  0  0  0  0  0  0
  -29.3440  -19.5810   20.2580 C   0  0  0  0  0  0  0  0  0  0  0  0
  -29.7390  -18.4440   20.9810 N   0  0  0  0  0  0  0  0  0  0  0  0
  -29.1460  -15.7790   18.5490 F   0  0  0  0  0  0  0  0  0  0  0  0
  -30.7010  -14.7680   20.7960 C   0  0  0  0  0  0  0  0  0  0  0  0
  -30.6140  -12.4850   19.7730 C   0  0  0  0  0  2  0  0  0  0  0  0
  -29.7360  -12.5280   18.5000 C   0  0  0  0  0  2  0  0  0  0  0  0
  -28.2460  -12.3370   18.8540 C   0  0  0  0  0  2  0  0  0  0  0  0
  -27.8000  -13.1960   20.0660 C   0  0  0  0  0  3  0  0  0  0  0  0
  -28.8060  -13.1350   21.2440 C   0  0  0  0  0  2  0  0  0  0  0  0
  -30.1200  -13.5180   20.7160 N   0  0  0  0  0  0  0  0  0  0  0  0
  -31.8850  -14.9070   20.4610 O   0  0  0  0  0  0  0  0  0  0  0  0
  -29.9230  -15.8580   21.1610 N   0  0  0  0  0  0  0  0  0  0  0  0
  -29.1060  -15.5780   21.6790 H   0  0  0  0  0  0  0  0  0  0  0  0
  -25.3620  -13.7410   20.6450 C   0  0  0  0  0  0  0  0  0  0  0  0
  -24.2930  -12.9460   20.9590 C   0  0  0  0  0  0  0  0  0  0  0  0
  -24.7850  -11.6040   20.9640 C   0  0  0  0  0  0  0  0  0  0  0  0
  -26.4360  -12.8810   20.4790 N   0  0  0  0  0  0  0  0  0  0  0  0
  -26.0930  -11.5920   20.7380 N   0  0  0  0  0  0  0  0  0  0  0  0
  -24.0760  -10.3260   21.1210 C   0  0  0  0  0  0  0  0  0  0  0  0
  -24.4620   -9.3910   22.1070 C   0  0  0  0  0  3  0  0  0  0  0  0
  -23.7570   -8.1760   22.2570 C   0  0  0  0  0  3  0  0  0  0  0  0
  -22.6520   -7.8890   21.4200 C   0  0  0  0  0  0  0  0  0  0  0  0
  -22.2860   -8.8150   20.4280 C   0  0  0  0  0  3  0  0  0  0  0  0
  -22.9910  -10.0200   20.2760 C   0  0  0  0  0  3  0  0  0  0  0  0
  -21.9260   -6.7250   21.4740 O   0  0  0  0  0  0  0  0  0  0  0  0
  -21.7940   -6.0160   22.6410 C   0  0  0  0  0  0  0  0  0  0  0  0
  -21.1890   -6.5750   23.7880 C   0  0  0  0  0  3  0  0  0  0  0  0
  -21.0080   -5.7880   24.9430 C   0  0  0  0  0  3  0  0  0  0  0  0
  -21.4220   -4.4420   24.9500 C   0  0  0  0  0  0  0  0  0  0  0  0
  -22.0170   -3.8820   23.8060 C   0  0  0  0  0  3  0  0  0  0  0  0
  -22.1990   -4.6660   22.6540 C   0  0  0  0  0  0  0  0  0  0  0  0
  -22.7530   -4.1140   21.5480 F   0  0  0  0  0  0  0  0  0  0  0  0
  -21.2440   -3.6850   26.0570 F   0  0  0  0  0  0  0  0  0  0  0  0
  -22.8710  -13.3930   21.1380 C   0  0  0  0  0  0  0  0  0  0  0  0
  -22.1040  -12.6820   21.9560 N   0  0  0  0  0  0  0  0  0  0  0  0
  -22.4440  -14.4060   20.5850 O   0  0  0  0  0  0  0  0  0  0  0  0
  -22.4630  -11.8690   22.4340 H   0  0  0  0  0  0  0  0  0  0  0  0
  -21.1440  -12.9590   22.1070 H   0  0  0  0  0  0  0  0  0  0  0  0
  -25.5140  -15.1130   20.4560 N   0  0  0  0  0  0  0  0  0  0  0  0
  -24.7470  -15.7700   20.5440 H   0  0  0  0  0  0  0  0  0  0  0  0
  -26.3550  -15.5370   20.0900 H   0  0  0  0  0  0  0  0  0  0  0  0
  -27.1270  -21.2110   17.9620 C   0  0  0  0  0  2  0  0  0  0  0  0
  -27.6450  -20.4490   16.7770 C   0  0  0  0  0  2  0  0  0  0  0  0
  -28.5090  -20.5860   18.0250 C   0  0  0  0  0  3  0  0  0  0  0  0
  -29.6180  -20.8690   20.8290 O   0  0  0  0  0  0  0  0  0  0  0  0
  -28.6760  -22.0460   20.8720 C   0  0  0  0  0  3  0  0  0  0  0  0
  -29.1590  -23.5950   20.6290 C   0  0  0  0  0  3  0  0  0  0  0  0
  -28.0700  -24.8080   20.6720 C   0  0  0  0  0  2  0  0  0  0  0  0
  -28.3830  -26.2930   20.5660 O   0  0  0  0  0  0  0  0  0  0  0  0
  -24.5700  -31.8890   23.2980 C   0  0  0  0  0  0  0  0  0  0  0  0
  -27.3020  -27.2120   20.4530 C   0  0  0  0  0  0  0  0  0  0  0  0
  -23.4380  -30.4430   21.6550 C   0  0  0  0  0  3  0  0  0  0  0  0
  -24.9480  -28.8720   20.3180 C   0  0  0  0  0  0  0  0  0  0  0  0
  -25.9890  -30.7580   21.5630 C   0  0  0  0  0  2  0  0  0  0  0  0
  -26.0990  -29.3620   20.9450 C   0  0  0  0  0  0  0  0  0  0  0  0
  -27.2820  -28.5480   20.9950 C   0  0  0  0  0  3  0  0  0  0  0  0
  -26.1250  -26.8100   19.7810 C   0  0  0  0  0  3  0  0  0  0  0  0
  -24.9680  -27.6040   19.7240 C   0  0  0  0  0  3  0  0  0  0  0  0
  -23.7070  -29.7410   20.3010 C   0  0  0  0  0  2  0  0  0  0  0  0
  -24.6830  -31.0510   22.2280 N   0  0  0  0  0  0  0  0  0  0  0  0
  -23.4630  -32.1740   23.7820 O   0  0  0  0  0  0  0  0  0  0  0  0
  -22.7430  -29.4440   22.6130 C   0  0  0  0  0  0  0  0  0  0  0  0
  -21.4330  -29.2260   22.4140 N   0  0  0  0  0  0  0  0  0  0  0  0
  -23.3880  -28.8670   23.4930 O   0  0  0  0  0  0  0  0  0  0  0  0
  -20.9740  -29.7410   21.6760 H   0  0  0  0  0  0  0  0  0  0  0  0
  -18.0600  -27.9560   22.7700 C   0  0  0  0  0  0  0  0  0  0  0  0
  -20.5920  -28.2980   23.1730 C   0  0  0  0  0  3  0  0  0  0  0  0
  -20.7640  -26.8480   22.6640 C   0  0  0  0  0  2  0  0  0  0  0  0
  -19.7300  -26.4550   21.6030 C   0  0  0  0  0  2  0  0  0  0  0  0
  -18.3100  -26.5880   22.1590 C   0  0  0  0  0  2  0  0  0  0  0  0
  -19.1330  -28.7660   23.2310 C   0  0  0  0  0  0  0  0  0  0  0  0
  -18.8440  -30.0450   23.7580 C   0  0  0  0  0  3  0  0  0  0  0  0
  -17.5190  -30.5130   23.8300 C   0  0  0  0  0  3  0  0  0  0  0  0
  -16.4620  -29.7010   23.3830 C   0  0  0  0  0  3  0  0  0  0  0  0
  -16.7330  -28.4250   22.8590 C   0  0  0  0  0  3  0  0  0  0  0  0
  -25.8230  -32.5450   23.9550 C   0  0  0  0  0  3  0  0  0  0  0  0
  -25.4910  -33.9510   24.2300 N   0  0  0  0  0  0  0  0  0  0  0  0
  -25.8410  -34.9840   23.4520 C   0  0  0  0  0  0  0  0  0  0  0  0
  -26.5430  -34.8550   22.4450 O   0  0  0  0  0  0  0  0  0  0  0  0
  -24.8690  -34.1270   25.0050 H   0  0  0  0  0  0  0  0  0  0  0  0
  -24.1240  -36.7580   22.9790 C   0  0  0  0  0  1  0  0  0  0  0  0
  -25.3310  -36.3830   23.8520 C   0  0  0  0  0  3  0  0  0  0  0  0
  -27.4180  -37.3040   24.7590 C   0  0  0  0  0  1  0  0  0  0  0  0
  -26.3660  -37.4360   23.7550 N   0  0  0  0  0  0  0  0  0  0  0  0
  -25.9490  -38.3580   23.8560 H   0  0  0  0  0  0  0  0  0  0  0  0
  -26.2870  -31.8190   25.2770 C   0  0  1  0  0  0  0  0  0  0  0  0
  -25.1440  -31.5970   26.2950 C   0  0  0  0  0  1  0  0  0  0  0  0
  -26.9050  -30.4370   24.9590 C   0  0  0  0  0  1  0  0  0  0  0  0
  -27.3970  -32.6460   25.9650 C   0  0  0  0  0  1  0  0  0  0  0  0
  1  2  2  0
  1  3  1  0
  2  5  1  0
  3  4  2  0
  4  6  1  0
  4 16  1  0
  5 49  1  0
  5  6  2  0
  7  3  1  0
  8 16  1  0
  9 14  1  0
 10 11  1  0
 10  9  1  0
 12 11  1  0
 12 21  1  0
 12 13  1  0
 14  8  1  0
 14 13  1  0
 15  8  2  0
 16 17  1  0
 18 19  2  0
 19 20  1  0
 19 38  1  0
 20 23  1  0
 21 18  1  0
 21 22  1  0
 22 20  2  0
 23 24  1  0
 24 25  2  0
 26 29  1  0
 26 25  1  0
 27 26  2  0
 28 27  1  0
 28 23  2  0
 29 30  1  0
 30 35  2  0
 30 31  1  0
 31 32  2  0
 32 33  1  0
 33 37  1  0
 34 33  2  0
 35 34  1  0
 36 35  1  0
 38 39  1  0
 39 42  1  0
 39 41  1  0
 40 38  2  0
 43 44  1  0
 43 18  1  0
 45 43  1  0
 46 48  1  0
 47 46  1  0
 47 48  1  0
 48  2  1  0
 49 50  1  0
 51 52  1  0
 51 50  2  0
 53 52  1  0
 54 65  2  0
 55 53  1  0
 55 60  1  0
 56 64  1  0
 56 66  1  0
 57 59  1  0
 58 64  1  0
 59 60  2  0
 59 58  1  0
 61 55  2  0
 62 61  1  0
 62 57  2  0
 63 57  1  0
 63 56  1  0
 64 54  1  0
 66 68  2  0
 67 66  1  0
 69 67  1  0
 70 79  2  0
 70 75  1  0
 71 67  1  0
 71 75  1  0
 72 71  1  0
 73 74  1  0
 73 72  1  0
 74 70  1  0
 75 76  2  0
 76 77  1  0
 78 77  2  0
 79 78  1  0
 80 54  1  0
 80 81  1  0
 80 90  1  0
 81 84  1  0
 82 86  1  0
 82 81  1  0
 83 82  2  0
 86 85  1  0
 88 86  1  0
 88 89  1  0
 88 87  1  0
 90 93  1  1
 90 91  1  0
 92 90  1  0
M  ISO  4   8 100  16 100  52 101  53 101
M  END
>  <TORSDO>  (88) 
F 21

>  <SCORE>  (88) 
-13.126

>  <name>  (88) 
88

>  <ligand_id>  (88) 
88

>  <original_smiles>  (88) 
[H]c1c([H])c([H])c2c(c1[H])C([H])([H])C([H])([H])C([H])([H])C2([H])N([H])C(=O)C1([H])N(C(=O)C([H])(N([H])C(=O)C([H])(N([H])C([H])([H])[H])C([H])([H])[H])C(C([H])([H])[H])(C([H])([H])[H])C([H])([H])[H])C([H])([H])c2c([H])c(OC([H])([H])C([H])([H])C([H])([H])Oc3nc(N([H])C(=O)N4C([H])([H])C([H])([H])C([H])([H])C([H])(n5nc(-c6c([H])c([H])c(Oc7c([H])c([H])c(F)c([H])c7F)c([H])c6[H])c(C(=O)N([H])[H])c5N([H])[H])C4([H])[H])c(F)c([H])c3C3([H])C([H])([H])C3([H])[H])c([H])c([H])c2C1([H])[H]

>  <smiles>  (88) 
[H]c1c([H])c([H])c2c(c1[H])C([H])([H])C([H])([H])C([H])([H])C2([H])N([H])C(=O)C1([H])N(C(=O)C([H])(N([H])C(=O)C([H])(N([H])C([H])([H])[H])C([H])([H])[H])C(C([H])([H])[H])(C([H])([H])[H])C([H])([H])[H])C([H])([H])c2c([H])c(OC([H])([H])C([H])([H])C([H])([H])Oc3nc(N([H])C(=O)N4C([H])([H])C([H])([H])C([H])([H])C([H])(n5nc(-c6c([H])c([H])c(Oc7c([H])c([H])c(F)c([H])c7F)c([H])c6[H])c(C(=O)N([H])[H])c5N([H])[H])C4([H])[H])c(F)c([H])c3C3([H])C([H])([H])C3([H])[H])c([H])c([H])c2C1([H])[H]

$$$$
89:0:0
     RDKit          3D

100110  0  0  1  0  0  0  0  0999 V2000
  -28.9510  -20.5490   20.5170 C   0  0  0  0  0  3  0  0  0  0  0  0
  -30.5990  -20.2550   22.2740 C   0  0  0  0  0  3  0  0  0  0  0  0
  -29.8190  -19.7070   21.2400 C   0  0  0  0  0  0  0  0  0  0  0  0
  -29.8070  -22.5040   21.7140 C   0  0  0  0  0  0  0  0  0  0  0  0
  -28.9590  -21.9460   20.7140 C   0  0  0  0  0  0  0  0  0  0  0  0
  -30.5850  -21.6460   22.5400 C   0  0  0  0  0  0  0  0  0  0  0  0
  -30.6440  -14.3960   20.0760 C   0  0  0  0  0  0  0  0  0  0  0  0
  -30.2940  -12.2990   18.8520 C   0  0  0  0  0  2  0  0  0  0  0  0
  -29.2580  -12.5690   17.7380 C   0  0  0  0  0  2  0  0  0  0  0  0
  -27.8210  -12.3880   18.2690 C   0  0  0  0  0  2  0  0  0  0  0  0
  -27.5730  -13.1470   19.6010 C   0  0  0  0  0  3  0  0  0  0  0  0
  -28.7130  -12.8620   20.6060 C   0  0  0  0  0  2  0  0  0  0  0  0
  -29.9890  -13.2120   19.9590 N   0  0  0  0  0  0  0  0  0  0  0  0
  -31.7510  -14.6070   19.5670 O   0  0  0  0  0  0  0  0  0  0  0  0
  -29.9920  -17.2730   22.0620 C   0  0  0  0  0  2  0  0  0  0  0  0
  -29.0620  -17.7420   19.7480 C   0  0  0  0  0  2  0  0  0  0  0  0
  -29.4890  -15.8500   21.7150 C   0  0  0  0  0  2  0  0  0  0  0  0
  -29.5240  -16.3750   19.2500 C   0  0  0  0  0  2  0  0  0  0  0  0
  -30.0010  -18.2400   20.8580 C   0  0  0  0  0  3  0  0  0  0  0  0
  -29.8250  -15.4340   20.3430 N   0  0  0  0  0  0  0  0  0  0  0  0
  -25.2250  -13.7010   20.4960 C   0  0  0  0  0  0  0  0  0  0  0  0
  -24.1950  -12.9000   20.9120 C   0  0  0  0  0  0  0  0  0  0  0  0
  -24.6700  -11.5580   20.7990 C   0  0  0  0  0  0  0  0  0  0  0  0
  -26.2610  -12.8430   20.1610 N   0  0  0  0  0  0  0  0  0  0  0  0
  -25.9340  -11.5470   20.3970 N   0  0  0  0  0  0  0  0  0  0  0  0
  -23.9790  -10.2780   20.9940 C   0  0  0  0  0  0  0  0  0  0  0  0
  -24.4550   -9.3150   21.9110 C   0  0  0  0  0  3  0  0  0  0  0  0
  -23.7640   -8.0980   22.0930 C   0  0  0  0  0  3  0  0  0  0  0  0
  -22.5820   -7.8360   21.3600 C   0  0  0  0  0  0  0  0  0  0  0  0
  -22.1250   -8.7890   20.4330 C   0  0  0  0  0  3  0  0  0  0  0  0
  -22.8170   -9.9970   20.2480 C   0  0  0  0  0  3  0  0  0  0  0  0
  -21.8600   -6.6720   21.4560 O   0  0  0  0  0  0  0  0  0  0  0  0
  -21.7930   -5.9590   22.6250 C   0  0  0  0  0  0  0  0  0  0  0  0
  -21.2960   -6.5300   23.8190 C   0  0  0  0  0  3  0  0  0  0  0  0
  -21.1810   -5.7400   24.9800 C   0  0  0  0  0  3  0  0  0  0  0  0
  -21.5500   -4.3820   24.9490 C   0  0  0  0  0  0  0  0  0  0  0  0
  -22.0410   -3.8130   23.7610 C   0  0  0  0  0  3  0  0  0  0  0  0
  -22.1590   -4.5990   22.6020 C   0  0  0  0  0  0  0  0  0  0  0  0
  -22.6110   -4.0390   21.4540 F   0  0  0  0  0  0  0  0  0  0  0  0
  -21.4320   -3.6220   26.0630 F   0  0  0  0  0  0  0  0  0  0  0  0
  -22.8160  -13.3450   21.3030 C   0  0  0  0  0  0  0  0  0  0  0  0
  -22.1650  -12.6090   22.1990 N   0  0  0  0  0  0  0  0  0  0  0  0
  -22.3250  -14.3790   20.8530 O   0  0  0  0  0  0  0  0  0  0  0  0
  -22.5760  -11.7730   22.5870 H   0  0  0  0  0  0  0  0  0  0  0  0
  -21.2430  -12.8890   22.5030 H   0  0  0  0  0  0  0  0  0  0  0  0
  -25.3590  -15.0800   20.3590 N   0  0  0  0  0  0  0  0  0  0  0  0
  -24.5940  -15.7170   20.5530 H   0  0  0  0  0  0  0  0  0  0  0  0
  -26.1850  -15.5460   20.0090 H   0  0  0  0  0  0  0  0  0  0  0  0
  -30.5040  -24.6480   20.5190 C   0  0  0  0  0  2  0  0  0  0  0  0
  -30.8180  -26.1380   20.6680 C   0  0  0  0  0  2  0  0  0  0  0  0
  -29.0930  -26.3430   22.5020 C   0  0  0  0  0  2  0  0  0  0  0  0
  -29.9900  -24.0300   21.8400 C   0  0  0  0  0  3  0  0  0  0  0  0
  -28.8200  -24.8170   22.5090 C   0  0  0  0  0  3  0  0  0  0  0  0
  -29.5770  -26.8980   21.1400 C   0  0  0  0  0  3  0  0  0  0  0  0
  -27.3920  -24.4820   22.0390 C   0  0  0  0  0  1  0  0  0  0  0  0
  -28.5920  -26.7410   20.1180 O   0  0  0  0  0  0  0  0  0  0  0  0
  -24.6480  -31.8350   23.1900 C   0  0  0  0  0  0  0  0  0  0  0  0
  -27.4380  -27.4880   20.1640 C   0  0  0  0  0  0  0  0  0  0  0  0
  -23.4920  -30.4280   21.5080 C   0  0  0  0  0  3  0  0  0  0  0  0
  -25.0010  -28.9140   20.1160 C   0  0  0  0  0  0  0  0  0  0  0  0
  -26.0070  -30.8350   21.3650 C   0  0  0  0  0  2  0  0  0  0  0  0
  -26.1270  -29.4650   20.7380 C   0  0  0  0  0  0  0  0  0  0  0  0
  -27.3410  -28.7590   20.7720 C   0  0  0  0  0  3  0  0  0  0  0  0
  -26.3000  -26.9430   19.5340 C   0  0  0  0  0  3  0  0  0  0  0  0
  -25.0780  -27.6450   19.5130 C   0  0  0  0  0  3  0  0  0  0  0  0
  -23.7410  -29.7500   20.1320 C   0  0  0  0  0  2  0  0  0  0  0  0
  -24.7320  -31.0480   22.0810 N   0  0  0  0  0  0  0  0  0  0  0  0
  -23.5540  -32.0890   23.7110 O   0  0  0  0  0  0  0  0  0  0  0  0
  -22.8350  -29.3950   22.4500 C   0  0  0  0  0  0  0  0  0  0  0  0
  -21.5120  -29.2160   22.3070 N   0  0  0  0  0  0  0  0  0  0  0  0
  -23.5110  -28.7570   23.2620 O   0  0  0  0  0  0  0  0  0  0  0  0
  -21.0330  -29.7840   21.6230 H   0  0  0  0  0  0  0  0  0  0  0  0
  -18.1240  -28.0640   22.7820 C   0  0  0  0  0  0  0  0  0  0  0  0
  -20.6850  -28.2710   23.0540 C   0  0  0  0  0  3  0  0  0  0  0  0
  -20.7620  -26.8550   22.4370 C   0  0  0  0  0  2  0  0  0  0  0  0
  -19.6530  -26.5800   21.4180 C   0  0  0  0  0  2  0  0  0  0  0  0
  -18.2760  -26.7300   22.0690 C   0  0  0  0  0  2  0  0  0  0  0  0
  -19.2570  -28.7940   23.2310 C   0  0  0  0  0  0  0  0  0  0  0  0
  -19.0610  -30.0440   23.8560 C   0  0  0  0  0  3  0  0  0  0  0  0
  -17.7670  -30.5660   24.0360 C   0  0  0  0  0  3  0  0  0  0  0  0
  -16.6490  -29.8310   23.6040 C   0  0  0  0  0  3  0  0  0  0  0  0
  -16.8290  -28.5810   22.9850 C   0  0  0  0  0  3  0  0  0  0  0  0
  -25.9160  -32.4720   23.8430 C   0  0  0  0  0  3  0  0  0  0  0  0
  -26.4190  -31.6910   25.1190 C   0  0  1  0  0  0  0  0  0  0  0  0
  -25.3090  -31.4250   26.1640 C   0  0  0  0  0  1  0  0  0  0  0  0
  -27.0270  -30.3270   24.7170 C   0  0  0  0  0  1  0  0  0  0  0  0
  -27.5470  -32.4910   25.8120 C   0  0  0  0  0  1  0  0  0  0  0  0
  -25.5890  -33.8630   24.1770 N   0  0  0  0  0  0  0  0  0  0  0  0
  -25.9020  -34.9220   23.4180 C   0  0  0  0  0  0  0  0  0  0  0  0
  -26.5730  -34.8310   22.3850 O   0  0  0  0  0  0  0  0  0  0  0  0
  -24.9940  -34.0070   24.9790 H   0  0  0  0  0  0  0  0  0  0  0  0
  -24.1360  -36.6790   23.0700 C   0  0  0  0  0  1  0  0  0  0  0  0
  -25.3900  -36.3000   23.8750 C   0  0  0  0  0  3  0  0  0  0  0  0
  -27.5100  -37.2280   24.6950 C   0  0  0  0  0  1  0  0  0  0  0  0
  -26.4010  -37.3740   23.7570 N   0  0  0  0  0  0  0  0  0  0  0  0
  -25.9790  -38.2870   23.9050 H   0  0  0  0  0  0  0  0  0  0  0  0
  -27.4730  -22.2660   18.8210 C   0  0  0  0  0  1  0  0  0  0  0  0
  -28.1860  -22.7850   19.9370 O   0  0  0  0  0  0  0  0  0  0  0  0
  -32.0620  -21.3700   24.4340 C   0  0  0  0  0  1  0  0  0  0  0  0
  -31.3390  -22.2150   23.5480 O   0  0  0  0  0  0  0  0  0  0  0  0
  1  5  2  0
  1  3  1  0
  2  6  1  0
  3  2  2  0
  4  6  2  0
  5  4  1  0
  6100  1  0
  7 20  1  0
  8 13  1  0
  9 10  1  0
  9  8  1  0
 11 10  1  0
 11 24  1  0
 11 12  1  0
 13  7  1  0
 13 12  1  0
 14  7  2  0
 16 19  1  0
 17 15  1  0
 18 16  1  0
 18 20  1  0
 19  3  1  0
 19 15  1  0
 20 17  1  0
 21 22  2  0
 22 41  1  0
 23 22  1  0
 23 26  1  0
 24 25  1  0
 24 21  1  0
 25 23  2  0
 26 27  1  0
 27 28  2  0
 29 32  1  0
 29 28  1  0
 30 29  2  0
 31 30  1  0
 31 26  2  0
 32 33  1  0
 33 34  1  0
 34 35  2  0
 36 35  1  0
 36 40  1  0
 37 36  2  0
 38 33  2  0
 38 37  1  0
 39 38  1  0
 41 42  1  0
 42 45  1  0
 42 44  1  0
 43 41  2  0
 46 21  1  0
 46 47  1  0
 48 46  1  0
 49 50  1  0
 49 52  1  0
 50 54  1  0
 51 53  1  0
 52  4  1  0
 52 53  1  0
 53 55  1  0
 54 56  1  0
 54 51  1  0
 56 58  1  0
 57 68  2  0
 58 63  1  0
 59 67  1  0
 59 69  1  0
 60 66  1  0
 60 62  1  0
 61 67  1  0
 62 63  2  0
 62 61  1  0
 64 58  2  0
 65 64  1  0
 65 60  2  0
 66 59  1  0
 67 57  1  0
 69 71  2  0
 70 69  1  0
 72 70  1  0
 73 82  2  0
 73 78  1  0
 74 70  1  0
 74 78  1  0
 75 74  1  0
 76 77  1  0
 76 75  1  0
 77 73  1  0
 78 79  2  0
 79 80  1  0
 81 80  2  0
 82 81  1  0
 83 57  1  0
 83 88  1  0
 83 84  1  0
 84 87  1  1
 84 85  1  0
 86 84  1  0
 88 91  1  0
 89 93  1  0
 89 88  1  0
 90 89  2  0
 93 92  1  0
 95 93  1  0
 95 96  1  0
 95 94  1  0
 97 98  1  0
 98  5  1  0
100 99  1  0
M  ISO  4   7 100  20 100  54 101  56 101
M  END
>  <TORSDO>  (89) 
F 19

>  <SCORE>  (89) 
-13.855

>  <name>  (89) 
89

>  <ligand_id>  (89) 
89

>  <original_smiles>  (89) 
[H]c1c([H])c([H])c2c(c1[H])C([H])([H])C([H])([H])C([H])([H])C2([H])N([H])C(=O)C1([H])N(C(=O)C([H])(N([H])C(=O)C([H])(N([H])C([H])([H])[H])C([H])([H])[H])C(C([H])([H])[H])(C([H])([H])[H])C([H])([H])[H])C([H])([H])c2c([H])c(OC3([H])C([H])([H])C([H])([H])C([H])(c4c(OC([H])([H])[H])c([H])c(C5([H])C([H])([H])C([H])([H])N(C(=O)N6C([H])([H])C([H])([H])C([H])([H])C([H])(n7nc(-c8c([H])c([H])c(Oc9c([H])c([H])c(F)c([H])c9F)c([H])c8[H])c(C(=O)N([H])[H])c7N([H])[H])C6([H])[H])C([H])([H])C5([H])[H])c([H])c4OC([H])([H])[H])C([H])(C([H])([H])[H])C3([H])[H])c([H])c([H])c2C1([H])[H]

>  <smiles>  (89) 
[H]c1c([H])c([H])c2c(c1[H])C([H])([H])C([H])([H])C([H])([H])C2([H])N([H])C(=O)C1([H])N(C(=O)C([H])(N([H])C(=O)C([H])(N([H])C([H])([H])[H])C([H])([H])[H])C(C([H])([H])[H])(C([H])([H])[H])C([H])([H])[H])C([H])([H])c2c([H])c(OC3([H])C([H])([H])C([H])([H])C([H])(c4c(OC([H])([H])[H])c([H])c(C5([H])C([H])([H])C([H])([H])N(C(=O)N6C([H])([H])C([H])([H])C([H])([H])C([H])(n7nc(-c8c([H])c([H])c(Oc9c([H])c([H])c(F)c([H])c9F)c([H])c8[H])c(C(=O)N([H])[H])c7N([H])[H])C6([H])[H])C([H])([H])C5([H])[H])c([H])c4OC([H])([H])[H])C([H])(C([H])([H])[H])C3([H])[H])c([H])c([H])c2C1([H])[H]

$$$$
90:0:0
     RDKit          3D

 97106  0  0  1  0  0  0  0  0999 V2000
  -28.6980  -19.6230   20.2760 C   0  0  0  0  0  3  0  0  0  0  0  0
  -30.9420  -18.5040   21.4920 C   0  0  0  0  0  3  0  0  0  0  0  0
  -29.6670  -20.5570   20.7450 C   0  0  0  0  0  0  0  0  0  0  0  0
  -30.8190  -19.9360   21.3570 C   0  0  0  0  0  0  0  0  0  0  0  0
  -29.9540  -17.5890   21.0430 C   0  0  0  0  0  0  0  0  0  0  0  0
  -28.8360  -18.1930   20.3960 C   0  0  0  0  0  0  0  0  0  0  0  0
  -30.8740  -15.1030   21.2830 C   0  0  0  0  0  0  0  0  0  0  0  0
  -30.9400  -12.7620   20.4080 C   0  0  0  0  0  2  0  0  0  0  0  0
  -30.1500  -12.7310   19.0800 C   0  0  0  0  0  2  0  0  0  0  0  0
  -28.6430  -12.5210   19.3360 C   0  0  0  0  0  2  0  0  0  0  0  0
  -28.0890  -13.4510   20.4460 C   0  0  0  0  0  3  0  0  0  0  0  0
  -29.0040  -13.4430   21.6900 C   0  0  0  0  0  2  0  0  0  0  0  0
  -30.3520  -13.8300   21.2440 N   0  0  0  0  0  0  0  0  0  0  0  0
  -32.0850  -15.2900   21.1240 O   0  0  0  0  0  0  0  0  0  0  0  0
  -29.9420  -16.1240   21.2690 N   0  0  0  0  0  0  0  0  0  0  0  0
  -29.0070  -15.7500   21.2630 H   0  0  0  0  0  0  0  0  0  0  0  0
  -25.6270  -13.9990   20.9320 C   0  0  0  0  0  0  0  0  0  0  0  0
  -24.5390  -13.2040   21.1600 C   0  0  0  0  0  0  0  0  0  0  0  0
  -25.0210  -11.8590   21.1480 C   0  0  0  0  0  0  0  0  0  0  0  0
  -26.7030  -13.1380   20.7830 N   0  0  0  0  0  0  0  0  0  0  0  0
  -26.3380  -11.8450   20.9770 N   0  0  0  0  0  0  0  0  0  0  0  0
  -24.2960  -10.5850   21.2290 C   0  0  0  0  0  0  0  0  0  0  0  0
  -24.6090   -9.6180   22.2100 C   0  0  0  0  0  3  0  0  0  0  0  0
  -23.8840   -8.4090   22.2800 C   0  0  0  0  0  3  0  0  0  0  0  0
  -22.8330   -8.1580   21.3670 C   0  0  0  0  0  0  0  0  0  0  0  0
  -22.5400   -9.1140   20.3790 C   0  0  0  0  0  3  0  0  0  0  0  0
  -23.2660  -10.3140   20.3070 C   0  0  0  0  0  3  0  0  0  0  0  0
  -22.0920   -7.0010   21.3440 O   0  0  0  0  0  0  0  0  0  0  0  0
  -21.8270   -6.2930   22.4870 C   0  0  0  0  0  0  0  0  0  0  0  0
  -21.1300   -6.8670   23.5740 C   0  0  0  0  0  3  0  0  0  0  0  0
  -20.8180   -6.0830   24.7020 C   0  0  0  0  0  3  0  0  0  0  0  0
  -21.1910   -4.7260   24.7430 C   0  0  0  0  0  0  0  0  0  0  0  0
  -21.8800   -4.1530   23.6610 C   0  0  0  0  0  3  0  0  0  0  0  0
  -22.1950   -4.9330   22.5350 C   0  0  0  0  0  0  0  0  0  0  0  0
  -22.8410   -4.3700   21.4860 F   0  0  0  0  0  0  0  0  0  0  0  0
  -20.8840   -3.9710   25.8240 F   0  0  0  0  0  0  0  0  0  0  0  0
  -23.1130  -13.6590   21.2850 C   0  0  0  0  0  0  0  0  0  0  0  0
  -22.3060  -12.9430   22.0590 N   0  0  0  0  0  0  0  0  0  0  0  0
  -22.7200  -14.6860   20.7340 O   0  0  0  0  0  0  0  0  0  0  0  0
  -22.6330  -12.1130   22.5310 H   0  0  0  0  0  0  0  0  0  0  0  0
  -21.3470  -13.2340   22.1860 H   0  0  0  0  0  0  0  0  0  0  0  0
  -25.7820  -15.3760   20.8160 N   0  0  0  0  0  0  0  0  0  0  0  0
  -24.9810  -15.9970   20.8430 H   0  0  0  0  0  0  0  0  0  0  0  0
  -26.6370  -15.8550   20.5550 H   0  0  0  0  0  0  0  0  0  0  0  0
  -29.1730  -23.0140   21.7900 C   0  0  0  0  0  2  0  0  0  0  0  0
  -28.5130  -22.6880   19.4440 C   0  0  0  0  0  2  0  0  0  0  0  0
  -29.2110  -24.5840   21.5650 C   0  0  0  0  0  2  0  0  0  0  0  0
  -28.5370  -24.2630   19.2130 C   0  0  0  0  0  2  0  0  0  0  0  0
  -29.5110  -22.1500   20.5300 C   0  0  0  0  0  3  0  0  0  0  0  0
  -28.2530  -25.1600   20.4680 C   0  0  0  0  0  3  0  0  0  0  0  0
  -28.3850  -26.6530   20.2860 O   0  0  0  0  0  0  0  0  0  0  0  0
  -24.6320  -32.0410   23.3900 C   0  0  0  0  0  0  0  0  0  0  0  0
  -27.2560  -27.5030   20.2680 C   0  0  0  0  0  0  0  0  0  0  0  0
  -23.4280  -30.6500   21.7440 C   0  0  0  0  0  3  0  0  0  0  0  0
  -24.8800  -29.1200   20.2890 C   0  0  0  0  0  0  0  0  0  0  0  0
  -25.9650  -30.9830   21.5460 C   0  0  0  0  0  2  0  0  0  0  0  0
  -26.0520  -29.6090   20.8810 C   0  0  0  0  0  0  0  0  0  0  0  0
  -27.2420  -28.8140   20.8530 C   0  0  0  0  0  3  0  0  0  0  0  0
  -26.0600  -27.0760   19.6530 C   0  0  0  0  0  3  0  0  0  0  0  0
  -24.8900  -27.8630   19.6630 C   0  0  0  0  0  3  0  0  0  0  0  0
  -23.6380  -29.9870   20.3560 C   0  0  0  0  0  2  0  0  0  0  0  0
  -24.6950  -31.2430   22.2840 N   0  0  0  0  0  0  0  0  0  0  0  0
  -23.5510  -32.3040   23.9370 O   0  0  0  0  0  0  0  0  0  0  0  0
  -22.7800  -29.6200   22.7020 C   0  0  0  0  0  0  0  0  0  0  0  0
  -21.4620  -29.3990   22.5530 N   0  0  0  0  0  0  0  0  0  0  0  0
  -23.4630  -29.0210   23.5370 O   0  0  0  0  0  0  0  0  0  0  0  0
  -20.9680  -29.9350   21.8530 H   0  0  0  0  0  0  0  0  0  0  0  0
  -18.1240  -28.0720   22.9850 C   0  0  0  0  0  0  0  0  0  0  0  0
  -20.6620  -28.4390   23.3160 C   0  0  0  0  0  3  0  0  0  0  0  0
  -20.8350  -27.0060   22.7630 C   0  0  0  0  0  2  0  0  0  0  0  0
  -19.7740  -26.6270   21.7250 C   0  0  0  0  0  2  0  0  0  0  0  0
  -18.3720  -26.7230   22.3320 C   0  0  0  0  0  2  0  0  0  0  0  0
  -19.1990  -28.8840   23.4330 C   0  0  0  0  0  0  0  0  0  0  0  0
  -18.9140  -30.1440   24.0050 C   0  0  0  0  0  3  0  0  0  0  0  0
  -17.5860  -30.5930   24.1320 C   0  0  0  0  0  3  0  0  0  0  0  0
  -16.5250  -29.7790   23.7000 C   0  0  0  0  0  3  0  0  0  0  0  0
  -16.7940  -28.5200   23.1340 C   0  0  0  0  0  3  0  0  0  0  0  0
  -25.9130  -32.6800   24.0100 C   0  0  0  0  0  3  0  0  0  0  0  0
  -26.4120  -31.9360   25.3100 C   0  0  1  0  0  0  0  0  0  0  0  0
  -25.3050  -31.7260   26.3700 C   0  0  0  0  0  1  0  0  0  0  0  0
  -26.9940  -30.5470   24.9570 C   0  0  0  0  0  1  0  0  0  0  0  0
  -27.5560  -32.7420   25.9670 C   0  0  0  0  0  1  0  0  0  0  0  0
  -25.6100  -34.0880   24.3070 N   0  0  0  0  0  0  0  0  0  0  0  0
  -25.9330  -35.1210   23.5180 C   0  0  0  0  0  0  0  0  0  0  0  0
  -26.5880  -34.9890   22.4800 O   0  0  0  0  0  0  0  0  0  0  0  0
  -25.0300  -34.2640   25.1140 H   0  0  0  0  0  0  0  0  0  0  0  0
  -24.1920  -36.9010   23.1600 C   0  0  0  0  0  1  0  0  0  0  0  0
  -25.4580  -36.5230   23.9470 C   0  0  0  0  0  3  0  0  0  0  0  0
  -27.6110  -37.4410   24.6900 C   0  0  0  0  0  1  0  0  0  0  0  0
  -26.4840  -37.5730   23.7700 N   0  0  0  0  0  0  0  0  0  0  0  0
  -26.0800  -38.4970   23.8960 H   0  0  0  0  0  0  0  0  0  0  0  0
  -33.2090  -20.6330   20.9530 C   0  0  0  0  0  1  0  0  0  0  0  0
  -32.3430  -20.4870   23.3350 C   0  0  0  0  0  1  0  0  0  0  0  0
  -31.9870  -20.7850   21.8680 C   0  0  0  0  0  3  0  0  0  0  0  0
  -27.8980  -17.3250   19.8800 O   0  0  0  0  0  0  0  0  0  0  0  0
  -27.1960  -16.4790   17.7380 C   0  0  0  0  0  1  0  0  0  0  0  0
  -27.2800  -17.7050   18.6520 C   0  0  0  0  0  2  0  0  0  0  0  0
  1  6  2  0
  1  3  1  0
  3  4  2  0
  4  2  1  0
  4 94  1  0
  5 15  1  0
  5  2  2  0
  6  5  1  0
  8 13  1  0
  9 10  1  0
  9  8  1  0
 11 10  1  0
 11 20  1  0
 11 12  1  0
 13  7  1  0
 13 12  1  0
 14  7  2  0
 15  7  1  0
 16 15  1  0
 17 18  2  0
 18 37  1  0
 19 18  1  0
 19 22  1  0
 20 17  1  0
 20 21  1  0
 21 19  2  0
 22 23  1  0
 23 24  2  0
 25 24  1  0
 26 25  2  0
 27 26  1  0
 27 22  2  0
 28 25  1  0
 28 29  1  0
 29 34  2  0
 29 30  1  0
 30 31  2  0
 31 32  1  0
 32 36  1  0
 33 32  2  0
 34 33  1  0
 35 34  1  0
 37 38  1  0
 38 41  1  0
 38 40  1  0
 39 37  2  0
 42 43  1  0
 42 17  1  0
 44 42  1  0
 46 49  1  0
 47 45  1  0
 48 46  1  0
 48 50  1  0
 49  3  1  0
 49 45  1  0
 50 51  1  0
 50 47  1  0
 52 63  2  0
 53 51  1  0
 53 58  1  0
 54 62  1  0
 54 64  1  0
 55 61  1  0
 55 57  1  0
 56 62  1  0
 57 56  1  0
 58 57  2  0
 59 60  1  0
 59 53  2  0
 60 55  2  0
 61 54  1  0
 62 52  1  0
 64 66  2  0
 65 64  1  0
 67 65  1  0
 68 77  2  0
 68 73  1  0
 69 65  1  0
 69 73  1  0
 70 69  1  0
 71 72  1  0
 71 70  1  0
 72 68  1  0
 73 74  2  0
 74 75  1  0
 76 75  2  0
 77 76  1  0
 78 52  1  0
 78 83  1  0
 78 79  1  0
 79 82  1  1
 79 80  1  0
 81 79  1  0
 83 86  1  0
 84 88  1  0
 84 83  1  0
 85 84  2  0
 88 87  1  0
 90 91  1  0
 90 88  1  0
 90 89  1  0
 92 94  1  0
 94 93  1  0
 95  6  1  0
 96 97  1  0
 97 95  1  0
M  ISO  4   7 100  15 100  50 101  51 101
M  END
>  <TORSDO>  (90) 
F 20

>  <SCORE>  (90) 
-10.869

>  <name>  (90) 
90

>  <ligand_id>  (90) 
90

>  <original_smiles>  (90) 
[H]c1c([H])c([H])c2c(c1[H])C([H])([H])C([H])([H])C([H])([H])C2([H])N([H])C(=O)C1([H])N(C(=O)C([H])(N([H])C(=O)C([H])(N([H])C([H])([H])[H])C([H])([H])[H])C(C([H])([H])[H])(C([H])([H])[H])C([H])([H])[H])C([H])([H])c2c([H])c(OC3([H])C([H])([H])C([H])([H])C([H])(c4c([H])c(OC([H])([H])C([H])([H])[H])c(N([H])C(=O)N5C([H])([H])C([H])([H])C([H])([H])C([H])(n6nc(-c7c([H])c([H])c(Oc8c([H])c([H])c(F)c([H])c8F)c([H])c7[H])c(C(=O)N([H])[H])c6N([H])[H])C5([H])[H])c([H])c4C([H])(C([H])([H])[H])C([H])([H])[H])C([H])([H])C3([H])[H])c([H])c([H])c2C1([H])[H]

>  <smiles>  (90) 
[H]c1c([H])c([H])c2c(c1[H])C([H])([H])C([H])([H])C([H])([H])C2([H])N([H])C(=O)C1([H])N(C(=O)C([H])(N([H])C(=O)C([H])(N([H])C([H])([H])[H])C([H])([H])[H])C(C([H])([H])[H])(C([H])([H])[H])C([H])([H])[H])C([H])([H])c2c([H])c(OC3([H])C([H])([H])C([H])([H])C([H])(c4c([H])c(OC([H])([H])C([H])([H])[H])c(N([H])C(=O)N5C([H])([H])C([H])([H])C([H])([H])C([H])(n6nc(-c7c([H])c([H])c(Oc8c([H])c([H])c(F)c([H])c8F)c([H])c7[H])c(C(=O)N([H])[H])c6N([H])[H])C5([H])[H])c([H])c4C([H])(C([H])([H])[H])C([H])([H])[H])C([H])([H])C3([H])[H])c([H])c([H])c2C1([H])[H]

$$$$
91:0:0
     RDKit          3D

 94103  0  0  1  0  0  0  0  0999 V2000
  -29.0240  -23.1280   21.2540 C   0  0  0  0  0  3  0  0  0  0  0  0
  -28.4920  -22.6460   18.9860 C   0  0  0  0  0  3  0  0  0  0  0  0
  -29.2590  -20.7440   20.4160 C   0  0  0  0  0  0  0  0  0  0  0  0
  -28.5650  -23.6260   20.0130 C   0  0  0  0  0  0  0  0  0  0  0  0
  -29.3700  -21.7450   21.4510 C   0  0  0  0  0  0  0  0  0  0  0  0
  -28.8190  -21.2610   19.1480 C   0  0  0  0  0  0  0  0  0  0  0  0
  -29.8500  -21.3700   22.8440 C   0  0  0  0  0  1  0  0  0  0  0  0
  -30.7960  -14.8010   20.1730 C   0  0  0  0  0  0  0  0  0  0  0  0
  -30.4040  -12.5760   19.1170 C   0  0  0  0  0  2  0  0  0  0  0  0
  -29.4340  -12.6460   17.9230 C   0  0  0  0  0  2  0  0  0  0  0  0
  -27.9890  -12.4570   18.4110 C   0  0  0  0  0  2  0  0  0  0  0  0
  -27.6560  -13.3430   19.6430 C   0  0  0  0  0  3  0  0  0  0  0  0
  -28.7630  -13.2910   20.7220 C   0  0  0  0  0  2  0  0  0  0  0  0
  -30.0220  -13.6590   20.0600 N   0  0  0  0  0  0  0  0  0  0  0  0
  -31.9770  -14.6940   19.8340 O   0  0  0  0  0  0  0  0  0  0  0  0
  -28.5520  -18.0760   20.5950 C   0  0  0  0  0  2  0  0  0  0  0  0
  -30.8610  -18.6530   19.9290 C   0  0  0  0  0  2  0  0  0  0  0  0
  -29.0190  -16.5950   20.9540 C   0  0  0  0  0  2  0  0  0  0  0  0
  -31.3160  -17.2300   20.3940 C   0  0  0  0  0  2  0  0  0  0  0  0
  -29.6400  -19.2020   20.6940 C   0  0  0  0  0  3  0  0  0  0  0  0
  -30.3100  -16.1080   20.3790 N   0  0  0  0  0  0  0  0  0  0  0  0
  -25.2950  -13.9070   20.4640 C   0  0  0  0  0  0  0  0  0  0  0  0
  -24.2460  -13.1210   20.8550 C   0  0  0  0  0  0  0  0  0  0  0  0
  -24.7160  -11.7740   20.7910 C   0  0  0  0  0  0  0  0  0  0  0  0
  -26.3360  -13.0390   20.1830 N   0  0  0  0  0  0  0  0  0  0  0  0
  -25.9970  -11.7490   20.4430 N   0  0  0  0  0  0  0  0  0  0  0  0
  -24.0020  -10.5050   20.9810 C   0  0  0  0  0  0  0  0  0  0  0  0
  -24.4460   -9.5400   21.9120 C   0  0  0  0  0  3  0  0  0  0  0  0
  -23.7290   -8.3370   22.0930 C   0  0  0  0  0  3  0  0  0  0  0  0
  -22.5530   -8.0910   21.3440 C   0  0  0  0  0  0  0  0  0  0  0  0
  -22.1300   -9.0440   20.4020 C   0  0  0  0  0  3  0  0  0  0  0  0
  -22.8470  -10.2390   20.2180 C   0  0  0  0  0  3  0  0  0  0  0  0
  -21.8070   -6.9410   21.4340 O   0  0  0  0  0  0  0  0  0  0  0  0
  -21.7360   -6.2210   22.6000 C   0  0  0  0  0  0  0  0  0  0  0  0
  -21.2680   -6.7940   23.8030 C   0  0  0  0  0  3  0  0  0  0  0  0
  -21.1440   -5.9980   24.9600 C   0  0  0  0  0  3  0  0  0  0  0  0
  -21.4790   -4.6320   24.9150 C   0  0  0  0  0  0  0  0  0  0  0  0
  -21.9420   -4.0600   23.7170 C   0  0  0  0  0  3  0  0  0  0  0  0
  -22.0660   -4.8510   22.5610 C   0  0  0  0  0  0  0  0  0  0  0  0
  -22.4910   -4.2890   21.4050 F   0  0  0  0  0  0  0  0  0  0  0  0
  -21.3540   -3.8660   26.0230 F   0  0  0  0  0  0  0  0  0  0  0  0
  -22.8570  -13.5880   21.1740 C   0  0  0  0  0  0  0  0  0  0  0  0
  -22.1600  -12.8810   22.0570 N   0  0  0  0  0  0  0  0  0  0  0  0
  -22.3990  -14.6170   20.6790 O   0  0  0  0  0  0  0  0  0  0  0  0
  -22.5450  -12.0520   22.4830 H   0  0  0  0  0  0  0  0  0  0  0  0
  -21.2280  -13.1770   22.3110 H   0  0  0  0  0  0  0  0  0  0  0  0
  -25.4400  -15.2810   20.3010 N   0  0  0  0  0  0  0  0  0  0  0  0
  -24.6680  -15.9210   20.4560 H   0  0  0  0  0  0  0  0  0  0  0  0
  -26.2700  -15.7400   19.9510 H   0  0  0  0  0  0  0  0  0  0  0  0
  -29.5850  -20.8400   16.7610 C   0  0  0  0  0  1  0  0  0  0  0  0
  -27.1970  -20.2760   17.4390 C   0  0  0  0  0  1  0  0  0  0  0  0
  -28.6610  -20.3790   17.9010 C   0  0  0  0  0  3  0  0  0  0  0  0
  -27.8370  -25.0150   19.7800 C   0  0  0  0  0  2  0  0  0  0  0  0
  -28.2240  -26.3910   20.2390 O   0  0  0  0  0  0  0  0  0  0  0  0
  -24.6270  -31.9380   23.3020 C   0  0  0  0  0  0  0  0  0  0  0  0
  -27.1750  -27.3510   20.1720 C   0  0  0  0  0  0  0  0  0  0  0  0
  -23.4110  -30.5600   21.6630 C   0  0  0  0  0  3  0  0  0  0  0  0
  -24.8420  -29.0370   20.2030 C   0  0  0  0  0  0  0  0  0  0  0  0
  -25.9590  -30.8540   21.4720 C   0  0  0  0  0  2  0  0  0  0  0  0
  -26.0250  -29.4820   20.8060 C   0  0  0  0  0  0  0  0  0  0  0  0
  -27.1960  -28.6500   20.7890 C   0  0  0  0  0  3  0  0  0  0  0  0
  -25.9670  -27.0110   19.5080 C   0  0  0  0  0  3  0  0  0  0  0  0
  -24.8160  -27.8070   19.5470 C   0  0  0  0  0  3  0  0  0  0  0  0
  -23.6140  -29.9160   20.2710 C   0  0  0  0  0  2  0  0  0  0  0  0
  -24.6860  -31.1330   22.2020 N   0  0  0  0  0  0  0  0  0  0  0  0
  -23.5470  -32.2160   23.8400 O   0  0  0  0  0  0  0  0  0  0  0  0
  -22.7510  -29.5290   22.6110 C   0  0  0  0  0  0  0  0  0  0  0  0
  -21.4260  -29.3440   22.4780 N   0  0  0  0  0  0  0  0  0  0  0  0
  -23.4300  -28.9040   23.4290 O   0  0  0  0  0  0  0  0  0  0  0  0
  -20.9370  -29.9020   21.7930 H   0  0  0  0  0  0  0  0  0  0  0  0
  -18.0530  -28.1190   22.9590 C   0  0  0  0  0  0  0  0  0  0  0  0
  -20.6090  -28.4000   23.2460 C   0  0  0  0  0  3  0  0  0  0  0  0
  -20.7260  -26.9690   22.6740 C   0  0  0  0  0  2  0  0  0  0  0  0
  -19.6330  -26.6360   21.6540 C   0  0  0  0  0  2  0  0  0  0  0  0
  -18.2460  -26.7700   22.2870 C   0  0  0  0  0  2  0  0  0  0  0  0
  -19.1640  -28.8920   23.3960 C   0  0  0  0  0  0  0  0  0  0  0  0
  -18.9290  -30.1530   23.9850 C   0  0  0  0  0  3  0  0  0  0  0  0
  -17.6180  -30.6430   24.1420 C   0  0  0  0  0  3  0  0  0  0  0  0
  -16.5240  -29.8670   23.7220 C   0  0  0  0  0  3  0  0  0  0  0  0
  -16.7420  -28.6070   23.1380 C   0  0  0  0  0  3  0  0  0  0  0  0
  -25.9140  -32.5620   23.9200 C   0  0  0  0  0  3  0  0  0  0  0  0
  -25.6130  -33.9610   24.2530 N   0  0  0  0  0  0  0  0  0  0  0  0
  -25.9200  -35.0120   23.4800 C   0  0  0  0  0  0  0  0  0  0  0  0
  -26.5580  -34.9050   22.4290 O   0  0  0  0  0  0  0  0  0  0  0  0
  -25.0430  -34.1210   25.0720 H   0  0  0  0  0  0  0  0  0  0  0  0
  -24.1660  -36.7900   23.1840 C   0  0  0  0  0  1  0  0  0  0  0  0
  -25.4440  -36.4010   23.9470 C   0  0  0  0  0  3  0  0  0  0  0  0
  -27.6060  -37.3050   24.6780 C   0  0  0  0  0  1  0  0  0  0  0  0
  -26.4640  -37.4580   23.7810 N   0  0  0  0  0  0  0  0  0  0  0  0
  -26.0590  -38.3780   23.9370 H   0  0  0  0  0  0  0  0  0  0  0  0
  -26.4280  -31.7840   25.1940 C   0  0  1  0  0  0  0  0  0  0  0  0
  -25.3340  -31.5520   26.2610 C   0  0  0  0  0  1  0  0  0  0  0  0
  -27.0020  -30.4040   24.8000 C   0  0  0  0  0  1  0  0  0  0  0  0
  -27.5870  -32.5700   25.8520 C   0  0  0  0  0  1  0  0  0  0  0  0
  1  5  1  0
  2  6  2  0
  2  4  1  0
  3  5  2  0
  4  1  2  0
  5  7  1  0
  6  3  1  0
  8 21  1  0
  9 14  1  0
 10 11  1  0
 10  9  1  0
 12 11  1  0
 12 25  1  0
 12 13  1  0
 14  8  1  0
 14 13  1  0
 15  8  2  0
 16 20  1  0
 16 18  1  0
 17 19  1  0
 17 20  1  0
 20  3  1  0
 21 19  1  0
 21 18  1  0
 22 23  2  0
 23 42  1  0
 24 23  1  0
 24 27  1  0
 25 26  1  0
 25 22  1  0
 26 24  2  0
 27 28  1  0
 28 29  2  0
 30 33  1  0
 30 29  1  0
 31 30  2  0
 32 31  1  0
 32 27  2  0
 33 34  1  0
 34 35  1  0
 35 36  2  0
 37 36  1  0
 37 41  1  0
 38 37  2  0
 39 34  2  0
 39 38  1  0
 40 39  1  0
 42 43  1  0
 43 46  1  0
 43 45  1  0
 44 42  2  0
 47 48  1  0
 47 22  1  0
 49 47  1  0
 50 52  1  0
 51 52  1  0
 52  6  1  0
 53  4  1  0
 53 54  1  0
 55 66  2  0
 56 54  1  0
 56 61  1  0
 57 65  1  0
 57 67  1  0
 58 64  1  0
 58 60  1  0
 59 65  1  0
 60 59  1  0
 61 60  2  0
 62 63  1  0
 62 56  2  0
 63 58  2  0
 64 57  1  0
 65 55  1  0
 67 69  2  0
 68 67  1  0
 70 68  1  0
 71 80  2  0
 71 76  1  0
 72 68  1  0
 72 76  1  0
 73 72  1  0
 74 75  1  0
 74 73  1  0
 75 71  1  0
 76 77  2  0
 77 78  1  0
 79 78  2  0
 80 79  1  0
 81 55  1  0
 81 82  1  0
 81 91  1  0
 82 85  1  0
 83 87  1  0
 83 82  1  0
 84 83  2  0
 87 86  1  0
 89 90  1  0
 89 87  1  0
 89 88  1  0
 91 94  1  1
 91 92  1  0
 93 91  1  0
M  ISO  4   8 100  21 100  53 101  54 101
M  END
>  <TORSDO>  (91) 
F 18

>  <SCORE>  (91) 
-15.155

>  <name>  (91) 
91

>  <ligand_id>  (91) 
91

>  <original_smiles>  (91) 
[H]c1c([H])c([H])c2c(c1[H])C([H])([H])C([H])([H])C([H])([H])C2([H])N([H])C(=O)C1([H])N(C(=O)C([H])(N([H])C(=O)C([H])(N([H])C([H])([H])[H])C([H])([H])[H])C(C([H])([H])[H])(C([H])([H])[H])C([H])([H])[H])C([H])([H])c2c([H])c(OC([H])([H])c3c([H])c(C([H])([H])[H])c(C4([H])C([H])([H])C([H])([H])N(C(=O)N5C([H])([H])C([H])([H])C([H])([H])C([H])(n6nc(-c7c([H])c([H])c(Oc8c([H])c([H])c(F)c([H])c8F)c([H])c7[H])c(C(=O)N([H])[H])c6N([H])[H])C5([H])[H])C([H])([H])C4([H])[H])c(C([H])(C([H])([H])[H])C([H])([H])[H])c3[H])c([H])c([H])c2C1([H])[H]

>  <smiles>  (91) 
[H]c1c([H])c([H])c2c(c1[H])C([H])([H])C([H])([H])C([H])([H])C2([H])N([H])C(=O)C1([H])N(C(=O)C([H])(N([H])C(=O)C([H])(N([H])C([H])([H])[H])C([H])([H])[H])C(C([H])([H])[H])(C([H])([H])[H])C([H])([H])[H])C([H])([H])c2c([H])c(OC([H])([H])c3c([H])c(C([H])([H])[H])c(C4([H])C([H])([H])C([H])([H])N(C(=O)N5C([H])([H])C([H])([H])C([H])([H])C([H])(n6nc(-c7c([H])c([H])c(Oc8c([H])c([H])c(F)c([H])c8F)c([H])c7[H])c(C(=O)N([H])[H])c6N([H])[H])C5([H])[H])C([H])([H])C4([H])[H])c(C([H])(C([H])([H])[H])C([H])([H])[H])c3[H])c([H])c([H])c2C1([H])[H]

$$$$
92:0:0
     RDKit          3D

 92101  0  0  1  0  0  0  0  0999 V2000
  -28.0700  -21.2470   19.9600 C   0  0  0  0  0  3  0  0  0  0  0  0
  -30.3590  -21.7980   20.2980 C   0  0  0  0  0  3  0  0  0  0  0  0
  -29.3930  -20.7600   20.1530 C   0  0  0  0  0  0  0  0  0  0  0  0
  -27.7520  -22.6490   19.8420 C   0  0  0  0  0  0  0  0  0  0  0  0
  -30.0630  -23.2010   20.1780 C   0  0  0  0  0  0  0  0  0  0  0  0
  -28.7460  -23.6870   19.9040 C   0  0  0  0  0  0  0  0  0  0  0  0
  -26.3030  -23.0190   19.5840 C   0  0  0  0  0  1  0  0  0  0  0  0
  -31.2170  -24.1820   20.2780 C   0  0  0  0  0  1  0  0  0  0  0  0
  -30.6860  -14.7910   19.9830 C   0  0  0  0  0  0  0  0  0  0  0  0
  -30.3740  -12.5360   18.9560 C   0  0  0  0  0  2  0  0  0  0  0  0
  -29.3700  -12.6220   17.7880 C   0  0  0  0  0  2  0  0  0  0  0  0
  -27.9290  -12.4510   18.3070 C   0  0  0  0  0  2  0  0  0  0  0  0
  -27.6310  -13.3260   19.5550 C   0  0  0  0  0  3  0  0  0  0  0  0
  -28.7560  -13.2470   20.6070 C   0  0  0  0  0  2  0  0  0  0  0  0
  -30.0070  -13.5930   19.9260 N   0  0  0  0  0  0  0  0  0  0  0  0
  -31.8680  -14.8210   19.6230 O   0  0  0  0  0  0  0  0  0  0  0  0
  -29.5050  -18.3000   21.3620 C   0  0  0  0  0  2  0  0  0  0  0  0
  -29.3400  -18.3260   18.9620 C   0  0  0  0  0  2  0  0  0  0  0  0
  -30.1510  -16.8410   21.3190 C   0  0  0  0  0  2  0  0  0  0  0  0
  -30.0190  -16.8960   18.8880 C   0  0  0  0  0  2  0  0  0  0  0  0
  -29.8250  -19.2110   20.1400 C   0  0  0  0  0  3  0  0  0  0  0  0
  -29.9810  -15.9980   20.0900 N   0  0  0  0  0  0  0  0  0  0  0  0
  -25.3000  -13.8980   20.4540 C   0  0  0  0  0  0  0  0  0  0  0  0
  -24.2570  -13.1150   20.8670 C   0  0  0  0  0  0  0  0  0  0  0  0
  -24.7120  -11.7640   20.7700 C   0  0  0  0  0  0  0  0  0  0  0  0
  -26.3230  -13.0240   20.1270 N   0  0  0  0  0  0  0  0  0  0  0  0
  -25.9810  -11.7340   20.3810 N   0  0  0  0  0  0  0  0  0  0  0  0
  -23.9920  -10.4990   20.9690 C   0  0  0  0  0  0  0  0  0  0  0  0
  -24.4500   -9.5230   21.8820 C   0  0  0  0  0  3  0  0  0  0  0  0
  -23.7290   -8.3240   22.0700 C   0  0  0  0  0  3  0  0  0  0  0  0
  -22.5370   -8.0920   21.3450 C   0  0  0  0  0  0  0  0  0  0  0  0
  -22.0970   -9.0560   20.4200 C   0  0  0  0  0  3  0  0  0  0  0  0
  -22.8190  -10.2460   20.2300 C   0  0  0  0  0  3  0  0  0  0  0  0
  -21.7850   -6.9450   21.4430 O   0  0  0  0  0  0  0  0  0  0  0  0
  -21.7310   -6.2180   22.6060 C   0  0  0  0  0  0  0  0  0  0  0  0
  -21.2670   -6.7800   23.8150 C   0  0  0  0  0  3  0  0  0  0  0  0
  -21.1600   -5.9780   24.9700 C   0  0  0  0  0  3  0  0  0  0  0  0
  -21.5080   -4.6160   24.9140 C   0  0  0  0  0  0  0  0  0  0  0  0
  -21.9650   -4.0530   23.7100 C   0  0  0  0  0  3  0  0  0  0  0  0
  -22.0730   -4.8520   22.5580 C   0  0  0  0  0  0  0  0  0  0  0  0
  -22.4930   -4.2990   21.3950 F   0  0  0  0  0  0  0  0  0  0  0  0
  -21.3990   -3.8430   26.0210 F   0  0  0  0  0  0  0  0  0  0  0  0
  -22.8800  -13.5890   21.2350 C   0  0  0  0  0  0  0  0  0  0  0  0
  -22.2030  -12.8720   22.1250 N   0  0  0  0  0  0  0  0  0  0  0  0
  -22.4160  -14.6280   20.7700 O   0  0  0  0  0  0  0  0  0  0  0  0
  -22.5940  -12.0300   22.5230 H   0  0  0  0  0  0  0  0  0  0  0  0
  -21.2820  -13.1690   22.4150 H   0  0  0  0  0  0  0  0  0  0  0  0
  -25.4610  -15.2730   20.3080 N   0  0  0  0  0  0  0  0  0  0  0  0
  -24.7120  -15.9290   20.4970 H   0  0  0  0  0  0  0  0  0  0  0  0
  -26.3050  -15.7200   19.9730 H   0  0  0  0  0  0  0  0  0  0  0  0
  -28.4620  -25.1910   19.3960 C   0  0  0  0  0  2  0  0  0  0  0  0
  -28.3180  -26.4060   20.2680 O   0  0  0  0  0  0  0  0  0  0  0  0
  -24.6260  -31.9060   23.2440 C   0  0  0  0  0  0  0  0  0  0  0  0
  -27.2190  -27.2980   20.1750 C   0  0  0  0  0  0  0  0  0  0  0  0
  -23.4240  -30.5220   21.5940 C   0  0  0  0  0  3  0  0  0  0  0  0
  -24.8710  -28.9690   20.1640 C   0  0  0  0  0  0  0  0  0  0  0  0
  -25.9720  -30.8120   21.4290 C   0  0  0  0  0  2  0  0  0  0  0  0
  -26.0440  -29.4330   20.7720 C   0  0  0  0  0  0  0  0  0  0  0  0
  -27.2160  -28.6070   20.7710 C   0  0  0  0  0  3  0  0  0  0  0  0
  -26.0110  -26.9010   19.5540 C   0  0  0  0  0  3  0  0  0  0  0  0
  -24.8600  -27.7110   19.5470 C   0  0  0  0  0  3  0  0  0  0  0  0
  -23.6420  -29.8550   20.2110 C   0  0  0  0  0  2  0  0  0  0  0  0
  -24.6940  -31.0980   22.1450 N   0  0  0  0  0  0  0  0  0  0  0  0
  -23.5400  -32.1880   23.7720 O   0  0  0  0  0  0  0  0  0  0  0  0
  -22.7500  -29.5040   22.5460 C   0  0  0  0  0  0  0  0  0  0  0  0
  -21.4200  -29.3450   22.4210 N   0  0  0  0  0  0  0  0  0  0  0  0
  -23.4200  -28.8630   23.3580 O   0  0  0  0  0  0  0  0  0  0  0  0
  -20.9380  -29.9130   21.7390 H   0  0  0  0  0  0  0  0  0  0  0  0
  -18.0290  -28.1900   22.9280 C   0  0  0  0  0  0  0  0  0  0  0  0
  -20.5920  -28.4100   23.1850 C   0  0  0  0  0  3  0  0  0  0  0  0
  -20.6690  -26.9840   22.5950 C   0  0  0  0  0  2  0  0  0  0  0  0
  -19.5580  -26.6880   21.5830 C   0  0  0  0  0  2  0  0  0  0  0  0
  -18.1820  -26.8460   22.2360 C   0  0  0  0  0  2  0  0  0  0  0  0
  -19.1600  -28.9310   23.3600 C   0  0  0  0  0  0  0  0  0  0  0  0
  -18.9620  -30.1900   23.9680 C   0  0  0  0  0  3  0  0  0  0  0  0
  -17.6660  -30.7070   24.1470 C   0  0  0  0  0  3  0  0  0  0  0  0
  -16.5480  -29.9620   23.7310 C   0  0  0  0  0  3  0  0  0  0  0  0
  -16.7300  -28.7060   23.1270 C   0  0  0  0  0  3  0  0  0  0  0  0
  -25.9070  -32.5320   23.8760 C   0  0  0  0  0  3  0  0  0  0  0  0
  -25.6000  -33.9300   24.2090 N   0  0  0  0  0  0  0  0  0  0  0  0
  -25.9210  -34.9840   23.4470 C   0  0  0  0  0  0  0  0  0  0  0  0
  -26.5760  -34.8810   22.4060 O   0  0  0  0  0  0  0  0  0  0  0  0
  -25.0170  -34.0840   25.0190 H   0  0  0  0  0  0  0  0  0  0  0  0
  -24.1830  -36.7750   23.1270 C   0  0  0  0  0  1  0  0  0  0  0  0
  -25.4420  -36.3730   23.9120 C   0  0  0  0  0  3  0  0  0  0  0  0
  -27.5890  -37.2680   24.6990 C   0  0  0  0  0  1  0  0  0  0  0  0
  -26.4700  -37.4280   23.7750 N   0  0  0  0  0  0  0  0  0  0  0  0
  -26.0650  -38.3480   23.9240 H   0  0  0  0  0  0  0  0  0  0  0  0
  -26.4100  -31.7560   25.1550 C   0  0  1  0  0  0  0  0  0  0  0  0
  -25.3070  -31.5200   26.2140 C   0  0  0  0  0  1  0  0  0  0  0  0
  -26.9900  -30.3760   24.7670 C   0  0  0  0  0  1  0  0  0  0  0  0
  -27.5580  -32.5430   25.8270 C   0  0  0  0  0  1  0  0  0  0  0  0
  1  3  1  0
  3  2  2  0
  4  6  1  0
  4  1  2  0
  5  8  1  0
  5  2  1  0
  6  5  2  0
  7  4  1  0
  9 22  1  0
 10 15  1  0
 11 12  1  0
 11 10  1  0
 13 12  1  0
 13 26  1  0
 13 14  1  0
 15  9  1  0
 15 14  1  0
 16  9  2  0
 18 21  1  0
 19 17  1  0
 20 18  1  0
 20 22  1  0
 21  3  1  0
 21 17  1  0
 22 19  1  0
 23 24  2  0
 24 43  1  0
 25 24  1  0
 25 28  1  0
 26 27  1  0
 26 23  1  0
 27 25  2  0
 28 29  1  0
 29 30  2  0
 31 34  1  0
 31 30  1  0
 32 31  2  0
 33 32  1  0
 33 28  2  0
 34 35  1  0
 35 36  1  0
 36 37  2  0
 38 37  1  0
 38 42  1  0
 39 38  2  0
 40 35  2  0
 40 39  1  0
 41 40  1  0
 43 44  1  0
 44 47  1  0
 44 46  1  0
 45 43  2  0
 48 23  1  0
 48 49  1  0
 50 48  1  0
 51  6  1  0
 51 52  1  0
 53 64  2  0
 54 52  1  0
 54 59  1  0
 55 63  1  0
 55 65  1  0
 56 62  1  0
 56 58  1  0
 57 63  1  0
 58 57  1  0
 59 58  2  0
 60 54  2  0
 61 60  1  0
 61 56  2  0
 62 55  1  0
 63 53  1  0
 65 67  2  0
 66 65  1  0
 68 66  1  0
 69 78  2  0
 69 74  1  0
 70 66  1  0
 70 74  1  0
 71 70  1  0
 72 73  1  0
 72 71  1  0
 73 69  1  0
 74 75  2  0
 75 76  1  0
 77 76  2  0
 78 77  1  0
 79 53  1  0
 79 80  1  0
 79 89  1  0
 80 83  1  0
 81 85  1  0
 81 80  1  0
 82 81  2  0
 85 84  1  0
 87 85  1  0
 87 88  1  0
 87 86  1  0
 89 92  1  1
 89 90  1  0
 91 89  1  0
M  ISO  4   9 100  22 100  51 101  52 101
M  END
>  <TORSDO>  (92) 
F 17

>  <SCORE>  (92) 
-14.942

>  <name>  (92) 
92

>  <ligand_id>  (92) 
92

>  <original_smiles>  (92) 
[H]c1c([H])c([H])c2c(c1[H])C([H])([H])C([H])([H])C([H])([H])C2([H])N([H])C(=O)C1([H])N(C(=O)C([H])(N([H])C(=O)C([H])(N([H])C([H])([H])[H])C([H])([H])[H])C(C([H])([H])[H])(C([H])([H])[H])C([H])([H])[H])C([H])([H])c2c([H])c(OC([H])([H])c3c(C([H])([H])[H])c([H])c(C4([H])C([H])([H])C([H])([H])N(C(=O)N5C([H])([H])C([H])([H])C([H])([H])C([H])(n6nc(-c7c([H])c([H])c(Oc8c([H])c([H])c(F)c([H])c8F)c([H])c7[H])c(C(=O)N([H])[H])c6N([H])[H])C5([H])[H])C([H])([H])C4([H])[H])c([H])c3C([H])([H])[H])c([H])c([H])c2C1([H])[H]

>  <smiles>  (92) 
[H]c1c([H])c([H])c2c(c1[H])C([H])([H])C([H])([H])C([H])([H])C2([H])N([H])C(=O)C1([H])N(C(=O)C([H])(N([H])C(=O)C([H])(N([H])C([H])([H])[H])C([H])([H])[H])C(C([H])([H])[H])(C([H])([H])[H])C([H])([H])[H])C([H])([H])c2c([H])c(OC([H])([H])c3c(C([H])([H])[H])c([H])c(C4([H])C([H])([H])C([H])([H])N(C(=O)N5C([H])([H])C([H])([H])C([H])([H])C([H])(n6nc(-c7c([H])c([H])c(Oc8c([H])c([H])c(F)c([H])c8F)c([H])c7[H])c(C(=O)N([H])[H])c6N([H])[H])C5([H])[H])C([H])([H])C4([H])[H])c([H])c3C([H])([H])[H])c([H])c([H])c2C1([H])[H]

$$$$
93:0:0
     RDKit          3D

 96106  0  0  1  0  0  0  0  0999 V2000
  -30.8950  -21.8590   21.9140 C   0  0  0  0  0  3  0  0  0  0  0  0
  -29.5520  -20.2450   20.6900 C   0  0  0  0  0  3  0  0  0  0  0  0
  -31.7150  -20.8280   22.4110 C   0  0  0  0  0  0  0  0  0  0  0  0
  -30.3710  -19.1830   21.1510 C   0  0  0  0  0  0  0  0  0  0  0  0
  -29.8200  -21.5860   21.0390 C   0  0  0  0  0  0  0  0  0  0  0  0
  -31.4620  -19.4930   22.0080 C   0  0  0  0  0  0  0  0  0  0  0  0
  -32.5260  -18.2380   22.5580 Cl  0  0  0  0  0  0  0  0  0  0  0  0
  -30.0910  -13.9220   19.3270 C   0  0  0  0  0  0  0  0  0  0  0  0
  -29.4700  -11.9130   18.0460 C   0  0  0  0  0  2  0  0  0  0  0  0
  -28.3050  -12.2570   17.0970 C   0  0  0  0  0  2  0  0  0  0  0  0
  -26.9500  -12.0910   17.8130 C   0  0  0  0  0  2  0  0  0  0  0  0
  -26.9120  -12.7740   19.2060 C   0  0  0  0  0  3  0  0  0  0  0  0
  -28.1730  -12.4370   20.0320 C   0  0  0  0  0  2  0  0  0  0  0  0
  -29.3490  -12.7870   19.2230 N   0  0  0  0  0  0  0  0  0  0  0  0
  -31.1200  -14.1030   18.6690 O   0  0  0  0  0  0  0  0  0  0  0  0
  -29.8140  -16.7380   21.8070 C   0  0  0  0  0  2  0  0  0  0  0  0
  -29.0410  -17.5160   19.6460 C   0  0  0  0  0  2  0  0  0  0  0  0
  -29.9670  -15.2770   21.3250 C   0  0  0  0  0  2  0  0  0  0  0  0
  -29.0840  -16.0910   19.0500 C   0  0  0  0  0  2  0  0  0  0  0  0
  -30.1460  -17.7300   20.6850 C   0  0  0  0  0  3  0  0  0  0  0  0
  -29.5020  -14.9770   19.9490 N   0  0  0  0  0  0  0  0  0  0  0  0
  -24.6960  -13.2920   20.4050 C   0  0  0  0  0  0  0  0  0  0  0  0
  -23.7320  -12.4790   20.9360 C   0  0  0  0  0  0  0  0  0  0  0  0
  -24.1960  -11.1410   20.7500 C   0  0  0  0  0  0  0  0  0  0  0  0
  -25.6860  -12.4470   19.9290 N   0  0  0  0  0  0  0  0  0  0  0  0
  -25.4000  -11.1450   20.1910 N   0  0  0  0  0  0  0  0  0  0  0  0
  -23.5390   -9.8540   21.0160 C   0  0  0  0  0  0  0  0  0  0  0  0
  -24.0970   -8.9090   21.9050 C   0  0  0  0  0  3  0  0  0  0  0  0
  -23.4360   -7.6880   22.1590 C   0  0  0  0  0  3  0  0  0  0  0  0
  -22.2040   -7.4020   21.5240 C   0  0  0  0  0  0  0  0  0  0  0  0
  -21.6640   -8.3370   20.6210 C   0  0  0  0  0  3  0  0  0  0  0  0
  -22.3270   -9.5490   20.3660 C   0  0  0  0  0  3  0  0  0  0  0  0
  -21.5050   -6.2320   21.6890 O   0  0  0  0  0  0  0  0  0  0  0  0
  -21.5350   -5.5360   22.8720 C   0  0  0  0  0  0  0  0  0  0  0  0
  -21.1170   -6.1190   24.0880 C   0  0  0  0  0  3  0  0  0  0  0  0
  -21.0970   -5.3470   25.2670 C   0  0  0  0  0  3  0  0  0  0  0  0
  -21.4850   -3.9940   25.2310 C   0  0  0  0  0  0  0  0  0  0  0  0
  -21.8970   -3.4120   24.0190 C   0  0  0  0  0  3  0  0  0  0  0  0
  -21.9180   -4.1810   22.8420 C   0  0  0  0  0  0  0  0  0  0  0  0
  -22.2960   -3.6090   21.6740 F   0  0  0  0  0  0  0  0  0  0  0  0
  -21.4580   -3.2500   26.3610 F   0  0  0  0  0  0  0  0  0  0  0  0
  -22.4080  -12.9110   21.5010 C   0  0  0  0  0  0  0  0  0  0  0  0
  -21.8840  -12.1700   22.4710 N   0  0  0  0  0  0  0  0  0  0  0  0
  -21.8550  -13.9420   21.1170 O   0  0  0  0  0  0  0  0  0  0  0  0
  -22.3500  -11.3390   22.8010 H   0  0  0  0  0  0  0  0  0  0  0  0
  -21.0060  -12.4400   22.8910 H   0  0  0  0  0  0  0  0  0  0  0  0
  -24.8050  -14.6720   20.2730 N   0  0  0  0  0  0  0  0  0  0  0  0
  -24.0730  -15.3050   20.5770 H   0  0  0  0  0  0  0  0  0  0  0  0
  -25.5870  -15.1470   19.8410 H   0  0  0  0  0  0  0  0  0  0  0  0
  -33.6860  -22.4100   23.3030 C   0  0  0  0  0  2  0  0  0  0  0  0
  -34.2810  -21.0870   22.8840 C   0  0  0  0  0  2  0  0  0  0  0  0
  -32.8480  -21.1460   23.3580 C   0  0  0  0  0  3  0  0  0  0  0  0
  -29.0170  -22.5690   20.4970 O   0  0  0  0  0  0  0  0  0  0  0  0
  -29.3470  -23.9390   20.7560 C   0  0  0  0  0  2  0  0  0  0  0  0
  -28.4070  -24.8450   19.9530 C   0  0  0  0  0  2  0  0  0  0  0  0
  -28.5110  -26.2150   20.3680 O   0  0  0  0  0  0  0  0  0  0  0  0
  -24.7560  -31.4870   23.3050 C   0  0  0  0  0  0  0  0  0  0  0  0
  -27.3650  -26.9800   20.2900 C   0  0  0  0  0  0  0  0  0  0  0  0
  -23.5660  -30.1320   21.6160 C   0  0  0  0  0  3  0  0  0  0  0  0
  -25.0200  -28.5640   20.2300 C   0  0  0  0  0  0  0  0  0  0  0  0
  -26.1090  -30.4110   21.5130 C   0  0  0  0  0  2  0  0  0  0  0  0
  -26.1730  -29.0440   20.8650 C   0  0  0  0  0  0  0  0  0  0  0  0
  -27.3470  -28.2580   20.8930 C   0  0  0  0  0  3  0  0  0  0  0  0
  -26.1960  -26.5270   19.6330 C   0  0  0  0  0  3  0  0  0  0  0  0
  -25.0270  -27.3040   19.6130 C   0  0  0  0  0  3  0  0  0  0  0  0
  -23.8040  -29.4590   20.2400 C   0  0  0  0  0  2  0  0  0  0  0  0
  -24.8270  -30.6900   22.2030 N   0  0  0  0  0  0  0  0  0  0  0  0
  -23.6650  -31.7900   23.8070 O   0  0  0  0  0  0  0  0  0  0  0  0
  -22.8540  -29.1210   22.5450 C   0  0  0  0  0  0  0  0  0  0  0  0
  -21.5440  -28.9280   22.3230 N   0  0  0  0  0  0  0  0  0  0  0  0
  -23.4800  -28.5150   23.4190 O   0  0  0  0  0  0  0  0  0  0  0  0
  -21.1050  -29.4670   21.5890 H   0  0  0  0  0  0  0  0  0  0  0  0
  -18.1480  -27.7200   22.5820 C   0  0  0  0  0  0  0  0  0  0  0  0
  -20.6760  -28.0020   23.0500 C   0  0  0  0  0  3  0  0  0  0  0  0
  -20.8310  -26.5590   22.5190 C   0  0  0  0  0  2  0  0  0  0  0  0
  -19.8140  -26.2040   21.4300 C   0  0  0  0  0  2  0  0  0  0  0  0
  -18.3850  -26.3550   21.9580 C   0  0  0  0  0  2  0  0  0  0  0  0
  -19.2260  -28.5000   23.0800 C   0  0  0  0  0  0  0  0  0  0  0  0
  -18.9540  -29.7760   23.6180 C   0  0  0  0  0  3  0  0  0  0  0  0
  -17.6380  -30.2720   23.6690 C   0  0  0  0  0  3  0  0  0  0  0  0
  -16.5740  -29.4880   23.1880 C   0  0  0  0  0  3  0  0  0  0  0  0
  -16.8300  -28.2150   22.6500 C   0  0  0  0  0  3  0  0  0  0  0  0
  -26.0380  -32.0750   23.9740 C   0  0  0  0  0  3  0  0  0  0  0  0
  -26.4520  -31.3230   25.2980 C   0  0  1  0  0  0  0  0  0  0  0  0
  -25.2880  -31.1500   26.3030 C   0  0  0  0  0  1  0  0  0  0  0  0
  -27.0130  -29.9180   24.9780 C   0  0  0  0  0  1  0  0  0  0  0  0
  -27.5880  -32.0990   26.0050 C   0  0  0  0  0  1  0  0  0  0  0  0
  -25.7840  -33.4970   24.2390 N   0  0  0  0  0  0  0  0  0  0  0  0
  -26.1750  -34.5000   23.4420 C   0  0  0  0  0  0  0  0  0  0  0  0
  -26.8590  -34.3240   22.4300 O   0  0  0  0  0  0  0  0  0  0  0  0
  -25.1810  -33.7100   25.0200 H   0  0  0  0  0  0  0  0  0  0  0  0
  -24.5250  -36.3430   22.9780 C   0  0  0  0  0  1  0  0  0  0  0  0
  -25.7370  -35.9260   23.8290 C   0  0  0  0  0  3  0  0  0  0  0  0
  -27.8890  -36.7620   24.6620 C   0  0  0  0  0  1  0  0  0  0  0  0
  -26.8130  -36.9310   23.6890 N   0  0  0  0  0  0  0  0  0  0  0  0
  -26.4420  -37.8730   23.7840 H   0  0  0  0  0  0  0  0  0  0  0  0
  1  3  1  0
  2  5  1  0
  2  4  2  0
  3 52  1  0
  4  6  1  0
  5  1  2  0
  6  3  2  0
  6  7  1  0
  8 21  1  0
  9 14  1  0
 10 11  1  0
 10  9  1  0
 12 11  1  0
 12 25  1  0
 12 13  1  0
 14  8  1  0
 14 13  1  0
 15  8  2  0
 17 20  1  0
 18 16  1  0
 19 17  1  0
 19 21  1  0
 20  4  1  0
 20 16  1  0
 21 18  1  0
 22 23  2  0
 23 42  1  0
 24 23  1  0
 24 27  1  0
 25 26  1  0
 25 22  1  0
 26 24  2  0
 27 28  1  0
 28 29  2  0
 30 33  1  0
 30 29  1  0
 31 30  2  0
 32 31  1  0
 32 27  2  0
 33 34  1  0
 34 35  1  0
 35 36  2  0
 37 36  1  0
 37 41  1  0
 38 37  2  0
 39 34  2  0
 39 38  1  0
 40 39  1  0
 42 43  1  0
 43 45  1  0
 43 46  1  0
 44 42  2  0
 47 22  1  0
 47 48  1  0
 49 47  1  0
 50 52  1  0
 51 50  1  0
 51 52  1  0
 53 54  1  0
 53  5  1  0
 55 56  1  0
 55 54  1  0
 57 68  2  0
 58 56  1  0
 58 63  1  0
 59 67  1  0
 59 69  1  0
 60 66  1  0
 60 62  1  0
 61 67  1  0
 62 63  2  0
 62 61  1  0
 64 58  2  0
 65 64  1  0
 65 60  2  0
 66 59  1  0
 67 57  1  0
 69 71  2  0
 70 69  1  0
 72 70  1  0
 73 82  2  0
 73 78  1  0
 74 70  1  0
 74 78  1  0
 75 74  1  0
 76 77  1  0
 76 75  1  0
 77 73  1  0
 78 79  2  0
 79 80  1  0
 81 80  2  0
 82 81  1  0
 83 57  1  0
 83 88  1  0
 83 84  1  0
 84 87  1  1
 84 85  1  0
 86 84  1  0
 88 91  1  0
 89 93  1  0
 89 88  1  0
 90 89  2  0
 93 92  1  0
 95 96  1  0
 95 93  1  0
 95 94  1  0
M  ISO  4   8 100  21 100  55 101  56 101
M  END
>  <TORSDO>  (93) 
F 20

>  <SCORE>  (93) 
-6.036

>  <name>  (93) 
93

>  <ligand_id>  (93) 
93

>  <original_smiles>  (93) 
[H]c1c([H])c([H])c2c(c1[H])C([H])([H])C([H])([H])C([H])([H])C2([H])N([H])C(=O)C1([H])N(C(=O)C([H])(N([H])C(=O)C([H])(N([H])C([H])([H])[H])C([H])([H])[H])C(C([H])([H])[H])(C([H])([H])[H])C([H])([H])[H])C([H])([H])c2c([H])c(OC([H])([H])C([H])([H])Oc3c([H])c(C4([H])C([H])([H])C([H])([H])N(C(=O)N5C([H])([H])C([H])([H])C([H])([H])C([H])(n6nc(-c7c([H])c([H])c(Oc8c([H])c([H])c(F)c([H])c8F)c([H])c7[H])c(C(=O)N([H])[H])c6N([H])[H])C5([H])[H])C([H])([H])C4([H])[H])c(Cl)c(C4([H])C([H])([H])C4([H])[H])c3[H])c([H])c([H])c2C1([H])[H]

>  <smiles>  (93) 
[H]c1c([H])c([H])c2c(c1[H])C([H])([H])C([H])([H])C([H])([H])C2([H])N([H])C(=O)C1([H])N(C(=O)C([H])(N([H])C(=O)C([H])(N([H])C([H])([H])[H])C([H])([H])[H])C(C([H])([H])[H])(C([H])([H])[H])C([H])([H])[H])C([H])([H])c2c([H])c(OC([H])([H])C([H])([H])Oc3c([H])c(C4([H])C([H])([H])C([H])([H])N(C(=O)N5C([H])([H])C([H])([H])C([H])([H])C([H])(n6nc(-c7c([H])c([H])c(Oc8c([H])c([H])c(F)c([H])c8F)c([H])c7[H])c(C(=O)N([H])[H])c6N([H])[H])C5([H])[H])C([H])([H])C4([H])[H])c(Cl)c(C4([H])C([H])([H])C4([H])[H])c3[H])c([H])c([H])c2C1([H])[H]

$$$$
94:0:0
     RDKit          3D

 93102  0  0  1  0  0  0  0  0999 V2000
  -30.4420  -21.5940   20.5870 C   0  0  0  0  0  3  0  0  0  0  0  0
  -28.7410  -19.6160   19.6510 C   0  0  0  0  0  3  0  0  0  0  0  0
  -29.1600  -22.0870   20.2070 C   0  0  0  0  0  0  0  0  0  0  0  0
  -28.3260  -21.0150   19.7160 C   0  0  0  0  0  0  0  0  0  0  0  0
  -30.0160  -19.1330   20.0940 C   0  0  0  0  0  0  0  0  0  0  0  0
  -30.8470  -20.2080   20.5600 C   0  0  0  0  0  0  0  0  0  0  0  0
  -26.9100  -21.3500   19.2860 C   0  0  0  0  0  1  0  0  0  0  0  0
  -29.2410  -24.0280   22.0110 C   0  0  0  0  0  2  0  0  0  0  0  0
  -27.8370  -23.5330   21.9370 C   0  0  0  0  0  2  0  0  0  0  0  0
  -28.6790  -23.5850   20.6570 C   0  0  2  0  0  0  0  0  0  0  0  0
  -28.4240  -24.8660   19.6440 C   0  0  0  0  0  2  0  0  0  0  0  0
  -28.4610  -26.4010   19.8690 O   0  0  0  0  0  0  0  0  0  0  0  0
  -24.5710  -31.7080   23.0440 C   0  0  0  0  0  0  0  0  0  0  0  0
  -27.3380  -27.2920   19.8130 C   0  0  0  0  0  0  0  0  0  0  0  0
  -23.4230  -30.3330   21.3500 C   0  0  0  0  0  3  0  0  0  0  0  0
  -24.9290  -28.8880   19.8540 C   0  0  0  0  0  0  0  0  0  0  0  0
  -25.9550  -30.7320   21.1810 C   0  0  0  0  0  2  0  0  0  0  0  0
  -26.0850  -29.3770   20.4750 C   0  0  0  0  0  0  0  0  0  0  0  0
  -27.2900  -28.5930   20.4390 C   0  0  0  0  0  3  0  0  0  0  0  0
  -26.1560  -26.8870   19.1560 C   0  0  0  0  0  3  0  0  0  0  0  0
  -24.9730  -27.6560   19.1820 C   0  0  0  0  0  3  0  0  0  0  0  0
  -23.6610  -29.7210   19.9440 C   0  0  0  0  0  2  0  0  0  0  0  0
  -24.6690  -30.9450   21.9140 N   0  0  0  0  0  0  0  0  0  0  0  0
  -23.4790  -31.9210   23.5900 O   0  0  0  0  0  0  0  0  0  0  0  0
  -22.7960  -29.2570   22.2710 C   0  0  0  0  0  0  0  0  0  0  0  0
  -21.4740  -29.0470   22.1530 N   0  0  0  0  0  0  0  0  0  0  0  0
  -23.5000  -28.6160   23.0570 O   0  0  0  0  0  0  0  0  0  0  0  0
  -20.9610  -29.6190   21.4970 H   0  0  0  0  0  0  0  0  0  0  0  0
  -18.1360  -27.7360   22.6600 C   0  0  0  0  0  0  0  0  0  0  0  0
  -20.6920  -28.0500   22.8880 C   0  0  0  0  0  3  0  0  0  0  0  0
  -20.8170  -26.6520   22.2370 C   0  0  0  0  0  2  0  0  0  0  0  0
  -19.7010  -26.3560   21.2290 C   0  0  0  0  0  2  0  0  0  0  0  0
  -18.3320  -26.4300   21.9080 C   0  0  0  0  0  2  0  0  0  0  0  0
  -19.2440  -28.5040   23.1060 C   0  0  0  0  0  0  0  0  0  0  0  0
  -19.0050  -29.7250   23.7740 C   0  0  0  0  0  3  0  0  0  0  0  0
  -17.6920  -30.1820   23.9930 C   0  0  0  0  0  3  0  0  0  0  0  0
  -16.5980  -29.4110   23.5610 C   0  0  0  0  0  3  0  0  0  0  0  0
  -16.8220  -28.1890   22.9020 C   0  0  0  0  0  3  0  0  0  0  0  0
  -25.8270  -32.3690   23.6910 C   0  0  0  0  0  3  0  0  0  0  0  0
  -26.3590  -31.5840   24.9540 C   0  0  1  0  0  0  0  0  0  0  0  0
  -25.2670  -31.2840   26.0070 C   0  0  0  0  0  1  0  0  0  0  0  0
  -26.9860  -30.2330   24.5350 C   0  0  0  0  0  1  0  0  0  0  0  0
  -27.4820  -32.3980   25.6400 C   0  0  0  0  0  1  0  0  0  0  0  0
  -25.4660  -33.7480   24.0550 N   0  0  0  0  0  0  0  0  0  0  0  0
  -25.7670  -34.8330   23.3290 C   0  0  0  0  0  0  0  0  0  0  0  0
  -26.4440  -34.7810   22.2990 O   0  0  0  0  0  0  0  0  0  0  0  0
  -24.8590  -33.8610   24.8530 H   0  0  0  0  0  0  0  0  0  0  0  0
  -23.9810  -36.5800   23.0210 C   0  0  0  0  0  1  0  0  0  0  0  0
  -25.2350  -36.1930   23.8220 C   0  0  0  0  0  3  0  0  0  0  0  0
  -27.3330  -37.1330   24.6830 C   0  0  0  0  0  1  0  0  0  0  0  0
  -26.2320  -37.2830   23.7370 N   0  0  0  0  0  0  0  0  0  0  0  0
  -25.7940  -38.1860   23.9000 H   0  0  0  0  0  0  0  0  0  0  0  0
  -32.4030  -20.2780   22.3330 C   0  0  0  0  0  1  0  0  0  0  0  0
  -32.1080  -19.8840   20.9970 O   0  0  0  0  0  0  0  0  0  0  0  0
  -30.6490  -17.6200   20.0240 C   0  0  0  0  0  2  0  0  0  0  0  0
  -30.7440  -14.9890   20.0470 C   0  0  0  0  0  0  0  0  0  0  0  0
  -30.4850  -12.6950   19.0500 C   0  0  0  0  0  2  0  0  0  0  0  0
  -29.5050  -12.7390   17.8560 C   0  0  0  0  0  2  0  0  0  0  0  0
  -28.0550  -12.5660   18.3440 C   0  0  0  0  0  2  0  0  0  0  0  0
  -27.7260  -13.4640   19.5660 C   0  0  0  0  0  3  0  0  0  0  0  0
  -28.8250  -13.4050   20.6480 C   0  0  0  0  0  2  0  0  0  0  0  0
  -30.0860  -13.7690   19.9980 N   0  0  0  0  0  0  0  0  0  0  0  0
  -31.9340  -15.0150   19.7140 O   0  0  0  0  0  0  0  0  0  0  0  0
  -30.0510  -16.2010   20.2380 N   0  0  0  0  0  0  0  0  0  0  0  0
  -29.0680  -16.1390   20.4510 H   0  0  0  0  0  0  0  0  0  0  0  0
  -25.3800  -14.0680   20.3930 C   0  0  0  0  0  0  0  0  0  0  0  0
  -24.3210  -13.3010   20.7960 C   0  0  0  0  0  0  0  0  0  0  0  0
  -24.7710  -11.9450   20.7400 C   0  0  0  0  0  0  0  0  0  0  0  0
  -26.4040  -13.1800   20.1100 N   0  0  0  0  0  0  0  0  0  0  0  0
  -26.0480  -11.8980   20.3850 N   0  0  0  0  0  0  0  0  0  0  0  0
  -24.0370  -10.6890   20.9430 C   0  0  0  0  0  0  0  0  0  0  0  0
  -24.4760   -9.7180   21.8700 C   0  0  0  0  0  3  0  0  0  0  0  0
  -23.7410   -8.5270   22.0630 C   0  0  0  0  0  3  0  0  0  0  0  0
  -22.5530   -8.3000   21.3290 C   0  0  0  0  0  0  0  0  0  0  0  0
  -22.1330   -9.2590   20.3900 C   0  0  0  0  0  3  0  0  0  0  0  0
  -22.8690  -10.4400   20.1950 C   0  0  0  0  0  3  0  0  0  0  0  0
  -21.7900   -7.1620   21.4310 O   0  0  0  0  0  0  0  0  0  0  0  0
  -21.7490   -6.4250   22.5880 C   0  0  0  0  0  0  0  0  0  0  0  0
  -21.3210   -6.9820   23.8130 C   0  0  0  0  0  3  0  0  0  0  0  0
  -21.2300   -6.1710   24.9610 C   0  0  0  0  0  3  0  0  0  0  0  0
  -21.5550   -4.8030   24.8870 C   0  0  0  0  0  0  0  0  0  0  0  0
  -21.9730   -4.2450   23.6660 C   0  0  0  0  0  3  0  0  0  0  0  0
  -22.0670   -5.0530   22.5190 C   0  0  0  0  0  0  0  0  0  0  0  0
  -22.4530   -4.5050   21.3420 F   0  0  0  0  0  0  0  0  0  0  0  0
  -21.4590   -4.0210   25.9870 F   0  0  0  0  0  0  0  0  0  0  0  0
  -22.9390  -13.7890   21.1170 C   0  0  0  0  0  0  0  0  0  0  0  0
  -22.2340  -13.0990   22.0070 N   0  0  0  0  0  0  0  0  0  0  0  0
  -22.4930  -14.8200   20.6140 O   0  0  0  0  0  0  0  0  0  0  0  0
  -22.6070  -12.2640   22.4330 H   0  0  0  0  0  0  0  0  0  0  0  0
  -21.3100  -13.4090   22.2650 H   0  0  0  0  0  0  0  0  0  0  0  0
  -25.5520  -15.4380   20.2180 N   0  0  0  0  0  0  0  0  0  0  0  0
  -24.7970  -16.0990   20.3650 H   0  0  0  0  0  0  0  0  0  0  0  0
  -26.3840  -15.8670   19.8350 H   0  0  0  0  0  0  0  0  0  0  0  0
  2  4  2  0
  2  5  1  0
  3  1  2  0
  3 10  1  0
  4  3  1  0
  5  6  2  0
  6  1  1  0
  6 54  1  0
  7  4  1  0
  9  8  1  0
 10  9  1  0
 10  8  1  0
 11 12  1  0
 10 11  1  6
 13 24  2  0
 14 12  1  0
 14 19  1  0
 15 23  1  0
 15 25  1  0
 16 22  1  0
 16 18  1  0
 17 23  1  0
 18 17  1  0
 19 18  2  0
 20 21  1  0
 20 14  2  0
 21 16  2  0
 22 15  1  0
 23 13  1  0
 25 27  2  0
 26 25  1  0
 28 26  1  0
 29 38  2  0
 29 34  1  0
 30 26  1  0
 30 34  1  0
 31 30  1  0
 32 33  1  0
 32 31  1  0
 33 29  1  0
 34 35  2  0
 35 36  1  0
 37 36  2  0
 38 37  1  0
 39 13  1  0
 39 44  1  0
 39 40  1  0
 40 43  1  1
 40 41  1  0
 42 40  1  0
 44 47  1  0
 45 49  1  0
 45 44  1  0
 46 45  2  0
 49 48  1  0
 51 49  1  0
 51 52  1  0
 51 50  1  0
 54 53  1  0
 55  5  1  0
 55 64  1  0
 56 64  1  0
 57 62  1  0
 58 59  1  0
 58 57  1  0
 60 59  1  0
 60 69  1  0
 60 61  1  0
 62 56  1  0
 62 61  1  0
 63 56  2  0
 64 65  1  0
 66 67  2  0
 67 86  1  0
 68 67  1  0
 68 71  1  0
 69 70  1  0
 69 66  1  0
 70 68  2  0
 71 72  1  0
 72 73  2  0
 74 77  1  0
 74 73  1  0
 75 74  2  0
 76 75  1  0
 76 71  2  0
 77 78  1  0
 78 79  1  0
 79 80  2  0
 81 80  1  0
 81 85  1  0
 82 81  2  0
 83 78  2  0
 83 82  1  0
 84 83  1  0
 86 87  1  0
 87 90  1  0
 87 89  1  0
 88 86  2  0
 91 92  1  0
 91 66  1  0
 93 91  1  0
M  ISO  4  11 101  12 101  56 100  64 100
M  END
>  <TORSDO>  (94) 
F 20

>  <SCORE>  (94) 
-13.510

>  <name>  (94) 
94

>  <ligand_id>  (94) 
94

>  <original_smiles>  (94) 
[H]c1c([H])c([H])c2c(c1[H])C([H])([H])C([H])([H])C([H])([H])C2([H])N([H])C(=O)C1([H])N(C(=O)C([H])(N([H])C(=O)C([H])(N([H])C([H])([H])[H])C([H])([H])[H])C(C([H])([H])[H])(C([H])([H])[H])C([H])([H])[H])C([H])([H])c2c([H])c(OC([H])([H])C3(c4c([H])c(OC([H])([H])[H])c(C([H])([H])N([H])C(=O)N5C([H])([H])C([H])([H])C([H])([H])C([H])(n6nc(-c7c([H])c([H])c(Oc8c([H])c([H])c(F)c([H])c8F)c([H])c7[H])c(C(=O)N([H])[H])c6N([H])[H])C5([H])[H])c([H])c4C([H])([H])[H])C([H])([H])C3([H])[H])c([H])c([H])c2C1([H])[H]

>  <smiles>  (94) 
[H]c1c([H])c([H])c2c(c1[H])C([H])([H])C([H])([H])C([H])([H])C2([H])N([H])C(=O)C1([H])N(C(=O)C([H])(N([H])C(=O)C([H])(N([H])C([H])([H])[H])C([H])([H])[H])C(C([H])([H])[H])(C([H])([H])[H])C([H])([H])[H])C([H])([H])c2c([H])c(OC([H])([H])C3(c4c([H])c(OC([H])([H])[H])c(C([H])([H])N([H])C(=O)N5C([H])([H])C([H])([H])C([H])([H])C([H])(n6nc(-c7c([H])c([H])c(Oc8c([H])c([H])c(F)c([H])c8F)c([H])c7[H])c(C(=O)N([H])[H])c6N([H])[H])C5([H])[H])c([H])c4C([H])([H])[H])C([H])([H])C3([H])[H])c([H])c([H])c2C1([H])[H]

$$$$
95:0:0
     RDKit          3D

 94103  0  0  1  0  0  0  0  0999 V2000
  -31.8740  -22.6920   19.8360 C   0  0  0  0  0  0  0  0  0  0  0  0
  -30.8170  -23.2720   20.5720 C   0  0  0  0  0  0  0  0  0  0  0  0
  -31.3960  -21.5340   19.3100 C   0  0  0  0  0  0  0  0  0  0  0  0
  -29.6830  -22.5360   20.2950 C   0  0  0  0  0  0  0  0  0  0  0  0
  -33.2500  -23.2650   19.5850 C   0  0  0  0  0  1  0  0  0  0  0  0
  -30.9450  -24.5710   21.3360 C   0  0  0  0  0  1  0  0  0  0  0  0
  -32.1060  -20.7460   18.2330 C   0  0  0  0  0  1  0  0  0  0  0  0
  -30.1900  -21.1720   19.9500 N   0  0  0  0  0  0  0  0  0  0  0  0
  -30.6220  -14.9180   20.3400 C   0  0  0  0  0  0  0  0  0  0  0  0
  -30.3060  -12.6130   19.3780 C   0  0  0  0  0  2  0  0  0  0  0  0
  -29.3980  -12.5740   18.1360 C   0  0  0  0  0  2  0  0  0  0  0  0
  -27.9350  -12.3880   18.5690 C   0  0  0  0  0  2  0  0  0  0  0  0
  -27.5330  -13.3290   19.7370 C   0  0  0  0  0  3  0  0  0  0  0  0
  -28.5890  -13.3950   20.8610 C   0  0  0  0  0  2  0  0  0  0  0  0
  -29.8530  -13.7640   20.2180 N   0  0  0  0  0  0  0  0  0  0  0  0
  -31.8330  -14.7310   20.1900 O   0  0  0  0  0  0  0  0  0  0  0  0
  -28.7850  -18.6990   20.6190 C   0  0  0  0  0  2  0  0  0  0  0  0
  -31.0740  -18.7500   20.3370 C   0  0  0  0  0  2  0  0  0  0  0  0
  -28.8520  -17.0400   20.4360 C   0  0  0  0  0  2  0  0  0  0  0  0
  -31.1630  -17.2980   19.7670 C   0  0  0  0  0  2  0  0  0  0  0  0
  -29.8500  -19.6100   19.8500 C   0  0  0  0  0  3  0  0  0  0  0  0
  -30.1710  -16.2840   20.2540 N   0  0  0  0  0  0  0  0  0  0  0  0
  -25.1520  -13.8980   20.4600 C   0  0  0  0  0  0  0  0  0  0  0  0
  -24.0880  -13.1220   20.8220 C   0  0  0  0  0  0  0  0  0  0  0  0
  -24.5580  -11.7720   20.8130 C   0  0  0  0  0  0  0  0  0  0  0  0
  -26.2010  -13.0240   20.2410 N   0  0  0  0  0  0  0  0  0  0  0  0
  -25.8540  -11.7400   20.5220 N   0  0  0  0  0  0  0  0  0  0  0  0
  -23.8330  -10.5090   21.0060 C   0  0  0  0  0  0  0  0  0  0  0  0
  -24.2680   -9.5410   21.9370 C   0  0  0  0  0  3  0  0  0  0  0  0
  -23.5410   -8.3450   22.1200 C   0  0  0  0  0  3  0  0  0  0  0  0
  -22.3640   -8.1080   21.3700 C   0  0  0  0  0  0  0  0  0  0  0  0
  -21.9490   -9.0640   20.4260 C   0  0  0  0  0  3  0  0  0  0  0  0
  -22.6770  -10.2510   20.2420 C   0  0  0  0  0  3  0  0  0  0  0  0
  -21.6080   -6.9650   21.4620 O   0  0  0  0  0  0  0  0  0  0  0  0
  -21.5780   -6.2110   22.6080 C   0  0  0  0  0  0  0  0  0  0  0  0
  -21.1970   -6.7610   23.8520 C   0  0  0  0  0  3  0  0  0  0  0  0
  -21.1140   -5.9340   24.9910 C   0  0  0  0  0  3  0  0  0  0  0  0
  -21.4030   -4.5600   24.8870 C   0  0  0  0  0  0  0  0  0  0  0  0
  -21.7770   -4.0100   23.6490 C   0  0  0  0  0  3  0  0  0  0  0  0
  -21.8620   -4.8330   22.5120 C   0  0  0  0  0  0  0  0  0  0  0  0
  -22.2030   -4.2950   21.3160 F   0  0  0  0  0  0  0  0  0  0  0  0
  -21.3150   -3.7640   25.9790 F   0  0  0  0  0  0  0  0  0  0  0  0
  -22.6850  -13.5960   21.0660 C   0  0  0  0  0  0  0  0  0  0  0  0
  -21.9480  -12.9100   21.9330 N   0  0  0  0  0  0  0  0  0  0  0  0
  -22.2500  -14.6110   20.5230 O   0  0  0  0  0  0  0  0  0  0  0  0
  -22.3130  -12.0890   22.3930 H   0  0  0  0  0  0  0  0  0  0  0  0
  -21.0060  -13.2110   22.1390 H   0  0  0  0  0  0  0  0  0  0  0  0
  -25.3130  -15.2680   20.2690 N   0  0  0  0  0  0  0  0  0  0  0  0
  -24.5440  -15.9220   20.3680 H   0  0  0  0  0  0  0  0  0  0  0  0
  -26.1680  -15.7050   19.9530 H   0  0  0  0  0  0  0  0  0  0  0  0
  -27.2660  -22.3460   21.0100 C   0  0  0  0  0  1  0  0  0  0  0  0
  -28.2610  -23.2590   20.2790 C   0  0  0  0  0  3  0  0  0  0  0  0
  -27.9480  -24.8530   20.7630 C   0  0  0  0  0  2  0  0  0  0  0  0
  -28.2290  -26.2480   20.1710 O   0  0  0  0  0  0  0  0  0  0  0  0
  -24.5940  -31.8750   23.1940 C   0  0  0  0  0  0  0  0  0  0  0  0
  -27.1770  -27.2190   20.1460 C   0  0  0  0  0  0  0  0  0  0  0  0
  -23.3890  -30.4710   21.5650 C   0  0  0  0  0  3  0  0  0  0  0  0
  -24.8370  -28.9150   20.1260 C   0  0  0  0  0  0  0  0  0  0  0  0
  -25.9360  -30.7690   21.3740 C   0  0  0  0  0  2  0  0  0  0  0  0
  -26.0160  -29.3810   20.7240 C   0  0  0  0  0  0  0  0  0  0  0  0
  -27.1920  -28.5470   20.7160 C   0  0  0  0  0  3  0  0  0  0  0  0
  -25.9780  -26.8470   19.5030 C   0  0  0  0  0  3  0  0  0  0  0  0
  -24.8280  -27.6590   19.5000 C   0  0  0  0  0  3  0  0  0  0  0  0
  -23.6010  -29.7970   20.1840 C   0  0  0  0  0  2  0  0  0  0  0  0
  -24.6600  -31.0600   22.0980 N   0  0  0  0  0  0  0  0  0  0  0  0
  -23.5110  -32.1510   23.7320 O   0  0  0  0  0  0  0  0  0  0  0  0
  -22.7310  -29.4570   22.5300 C   0  0  0  0  0  0  0  0  0  0  0  0
  -21.4010  -29.2830   22.4220 N   0  0  0  0  0  0  0  0  0  0  0  0
  -23.4160  -28.8260   23.3410 O   0  0  0  0  0  0  0  0  0  0  0  0
  -20.9050  -29.8430   21.7420 H   0  0  0  0  0  0  0  0  0  0  0  0
  -18.0310  -28.0700   22.9540 C   0  0  0  0  0  0  0  0  0  0  0  0
  -20.5910  -28.3440   23.2010 C   0  0  0  0  0  3  0  0  0  0  0  0
  -20.6940  -26.9110   22.6270 C   0  0  0  0  0  2  0  0  0  0  0  0
  -19.5850  -26.5820   21.6220 C   0  0  0  0  0  2  0  0  0  0  0  0
  -18.2080  -26.7210   22.2770 C   0  0  0  0  0  2  0  0  0  0  0  0
  -19.1500  -28.8390   23.3740 C   0  0  0  0  0  0  0  0  0  0  0  0
  -18.9280  -30.0990   23.9680 C   0  0  0  0  0  3  0  0  0  0  0  0
  -17.6220  -30.5930   24.1460 C   0  0  0  0  0  3  0  0  0  0  0  0
  -16.5180  -29.8220   23.7420 C   0  0  0  0  0  3  0  0  0  0  0  0
  -16.7240  -28.5620   23.1520 C   0  0  0  0  0  3  0  0  0  0  0  0
  -25.8740  -32.5190   23.8090 C   0  0  0  0  0  3  0  0  0  0  0  0
  -25.5500  -33.9100   24.1620 N   0  0  0  0  0  0  0  0  0  0  0  0
  -25.8550  -34.9780   23.4130 C   0  0  0  0  0  0  0  0  0  0  0  0
  -26.5060  -34.8970   22.3670 O   0  0  0  0  0  0  0  0  0  0  0  0
  -24.9690  -34.0450   24.9760 H   0  0  0  0  0  0  0  0  0  0  0  0
  -24.0930  -36.7520   23.1240 C   0  0  0  0  0  1  0  0  0  0  0  0
  -25.3600  -36.3550   23.8980 C   0  0  0  0  0  3  0  0  0  0  0  0
  -27.5050  -37.2600   24.6810 C   0  0  0  0  0  1  0  0  0  0  0  0
  -26.3750  -37.4250   23.7710 N   0  0  0  0  0  0  0  0  0  0  0  0
  -25.9610  -38.3360   23.9420 H   0  0  0  0  0  0  0  0  0  0  0  0
  -26.4120  -31.7420   25.0740 C   0  0  1  0  0  0  0  0  0  0  0  0
  -25.3340  -31.4860   26.1530 C   0  0  0  0  0  1  0  0  0  0  0  0
  -27.0020  -30.3710   24.6670 C   0  0  0  0  0  1  0  0  0  0  0  0
  -27.5640  -32.5390   25.7280 C   0  0  0  0  0  1  0  0  0  0  0  0
  1  2  1  0
  2  6  1  0
  3  1  2  0
  3  8  1  0
  4  2  2  0
  5  1  1  0
  7  3  1  0
  8  4  1  0
 10 15  1  0
 11 12  1  0
 11 10  1  0
 13 12  1  0
 13 26  1  0
 13 14  1  0
 15  9  1  0
 15 14  1  0
 16  9  2  0
 19 17  1  0
 20 22  1  0
 20 18  1  0
 21  8  1  0
 21 18  1  0
 21 17  1  0
 22  9  1  0
 22 19  1  0
 23 24  2  0
 24 43  1  0
 25 24  1  0
 25 28  1  0
 26 23  1  0
 26 27  1  0
 27 25  2  0
 28 29  1  0
 29 30  2  0
 31 34  1  0
 31 30  1  0
 32 31  2  0
 33 32  1  0
 33 28  2  0
 34 35  1  0
 35 36  1  0
 36 37  2  0
 38 37  1  0
 38 42  1  0
 39 38  2  0
 40 35  2  0
 40 39  1  0
 41 40  1  0
 43 44  1  0
 44 47  1  0
 44 46  1  0
 45 43  2  0
 48 49  1  0
 48 23  1  0
 50 48  1  0
 52  4  1  0
 52 53  1  0
 52 51  1  0
 54 53  1  0
 55 66  2  0
 56 54  1  0
 56 61  1  0
 57 65  1  0
 57 67  1  0
 58 64  1  0
 58 60  1  0
 59 65  1  0
 60 59  1  0
 61 60  2  0
 62 56  2  0
 63 62  1  0
 63 58  2  0
 64 57  1  0
 65 55  1  0
 67 69  2  0
 68 67  1  0
 70 68  1  0
 71 80  2  0
 71 76  1  0
 72 68  1  0
 72 76  1  0
 73 72  1  0
 74 75  1  0
 74 73  1  0
 75 71  1  0
 76 77  2  0
 77 78  1  0
 79 78  2  0
 80 79  1  0
 81 55  1  0
 81 82  1  0
 81 91  1  0
 82 85  1  0
 83 87  1  0
 83 82  1  0
 84 83  2  0
 87 86  1  0
 89 87  1  0
 89 90  1  0
 89 88  1  0
 91 94  1  1
 91 92  1  0
 93 91  1  0
M  ISO  4   9 100  22 100  53 101  54 101
M  END
>  <TORSDO>  (95) 
F 18

>  <SCORE>  (95) 
-15.344

>  <name>  (95) 
95

>  <ligand_id>  (95) 
95

>  <original_smiles>  (95) 
[H]c1c([H])c([H])c2c(c1[H])C([H])([H])C([H])([H])C([H])([H])C2([H])N([H])C(=O)C1([H])N(C(=O)C([H])(N([H])C(=O)C([H])(N([H])C([H])([H])[H])C([H])([H])[H])C(C([H])([H])[H])(C([H])([H])[H])C([H])([H])[H])C([H])([H])c2c([H])c(OC([H])([H])C([H])(c3c(C([H])([H])[H])c(C([H])([H])[H])c(C([H])([H])[H])n3C3([H])C([H])([H])C([H])([H])N(C(=O)N4C([H])([H])C([H])([H])C([H])([H])C([H])(n5nc(-c6c([H])c([H])c(Oc7c([H])c([H])c(F)c([H])c7F)c([H])c6[H])c(C(=O)N([H])[H])c5N([H])[H])C4([H])[H])C([H])([H])C3([H])[H])C([H])([H])[H])c([H])c([H])c2C1([H])[H]

>  <smiles>  (95) 
[H]c1c([H])c([H])c2c(c1[H])C([H])([H])C([H])([H])C([H])([H])C2([H])N([H])C(=O)C1([H])N(C(=O)C([H])(N([H])C(=O)C([H])(N([H])C([H])([H])[H])C([H])([H])[H])C(C([H])([H])[H])(C([H])([H])[H])C([H])([H])[H])C([H])([H])c2c([H])c(OC([H])([H])C([H])(c3c(C([H])([H])[H])c(C([H])([H])[H])c(C([H])([H])[H])n3C3([H])C([H])([H])C([H])([H])N(C(=O)N4C([H])([H])C([H])([H])C([H])([H])C([H])(n5nc(-c6c([H])c([H])c(Oc7c([H])c([H])c(F)c([H])c7F)c([H])c6[H])c(C(=O)N([H])[H])c5N([H])[H])C4([H])[H])C([H])([H])C3([H])[H])C([H])([H])[H])c([H])c([H])c2C1([H])[H]

$$$$
96:0:0
     RDKit          3D

 99109  0  0  1  0  0  0  0  0999 V2000
  -29.9170  -21.1180   19.4470 C   0  0  0  0  0  2  0  0  0  0  0  0
  -30.2510  -21.3510   21.9110 C   0  0  0  0  0  2  0  0  0  0  0  0
  -30.0040  -22.6510   19.2980 C   0  0  0  0  0  2  0  0  0  0  0  0
  -30.3630  -22.8800   21.7380 C   0  0  0  0  0  2  0  0  0  0  0  0
  -30.7530  -20.6410   20.6460 C   0  0  0  0  0  3  0  0  0  0  0  0
  -29.6160  -23.3720   20.5460 N   0  0  1  0  0  4  0  0  0  0  0  0
  -28.6440  -23.1560   20.7250 H   0  0  0  0  0  0  0  0  0  0  0  0
  -31.9910  -17.1970   21.1020 C   0  0  0  0  0  3  0  0  0  0  0  0
  -29.9470  -18.1150   20.6760 C   0  0  0  0  0  0  0  0  0  0  0  0
  -30.6900  -16.9000   20.8260 C   0  0  0  0  0  0  0  0  0  0  0  0
  -30.8780  -19.1340   20.7690 C   0  0  0  0  0  0  0  0  0  0  0  0
  -32.1330  -18.5620   20.9970 N   0  0  0  0  0  0  0  0  0  0  0  0
  -30.7020  -14.6040   19.9330 C   0  0  0  0  0  0  0  0  0  0  0  0
  -30.2180  -12.5610   18.6490 C   0  0  0  0  0  2  0  0  0  0  0  0
  -29.1790  -12.8740   17.5560 C   0  0  0  0  0  2  0  0  0  0  0  0
  -27.7530  -12.7030   18.1120 C   0  0  0  0  0  2  0  0  0  0  0  0
  -27.5410  -13.4420   19.4610 C   0  0  0  0  0  3  0  0  0  0  0  0
  -28.6940  -13.1510   20.4500 C   0  0  0  0  0  2  0  0  0  0  0  0
  -29.9640  -13.4710   19.7790 N   0  0  0  0  0  0  0  0  0  0  0  0
  -31.7540  -14.7820   19.3130 O   0  0  0  0  0  0  0  0  0  0  0  0
  -30.1700  -15.5740   20.7020 N   0  0  0  0  0  0  0  0  0  0  0  0
  -29.2520  -15.3980   21.0770 H   0  0  0  0  0  0  0  0  0  0  0  0
  -25.1990  -13.9740   20.3850 C   0  0  0  0  0  0  0  0  0  0  0  0
  -24.1800  -13.1670   20.8140 C   0  0  0  0  0  0  0  0  0  0  0  0
  -24.6600  -11.8270   20.6950 C   0  0  0  0  0  0  0  0  0  0  0  0
  -26.2380  -13.1240   20.0400 N   0  0  0  0  0  0  0  0  0  0  0  0
  -25.9210  -11.8260   20.2830 N   0  0  0  0  0  0  0  0  0  0  0  0
  -23.9740  -10.5450   20.8970 C   0  0  0  0  0  0  0  0  0  0  0  0
  -24.4440   -9.5940   21.8290 C   0  0  0  0  0  3  0  0  0  0  0  0
  -23.7550   -8.3760   22.0190 C   0  0  0  0  0  3  0  0  0  0  0  0
  -22.5830   -8.1010   21.2760 C   0  0  0  0  0  0  0  0  0  0  0  0
  -22.1330   -9.0410   20.3320 C   0  0  0  0  0  3  0  0  0  0  0  0
  -22.8220  -10.2500   20.1400 C   0  0  0  0  0  3  0  0  0  0  0  0
  -21.8620   -6.9350   21.3740 O   0  0  0  0  0  0  0  0  0  0  0  0
  -21.7730   -6.2420   22.5550 C   0  0  0  0  0  0  0  0  0  0  0  0
  -21.2590   -6.8340   23.7300 C   0  0  0  0  0  3  0  0  0  0  0  0
  -21.1200   -6.0660   24.9030 C   0  0  0  0  0  3  0  0  0  0  0  0
  -21.4850   -4.7070   24.9030 C   0  0  0  0  0  0  0  0  0  0  0  0
  -21.9930   -4.1140   23.7330 C   0  0  0  0  0  3  0  0  0  0  0  0
  -22.1330   -4.8790   22.5620 C   0  0  0  0  0  0  0  0  0  0  0  0
  -22.6030   -4.2980   21.4320 F   0  0  0  0  0  0  0  0  0  0  0  0
  -21.3450   -3.9660   26.0270 F   0  0  0  0  0  0  0  0  0  0  0  0
  -22.8020  -13.6060   21.2180 C   0  0  0  0  0  0  0  0  0  0  0  0
  -22.1690  -12.8760   22.1290 N   0  0  0  0  0  0  0  0  0  0  0  0
  -22.2980  -14.6320   20.7630 O   0  0  0  0  0  0  0  0  0  0  0  0
  -22.5900  -12.0460   22.5180 H   0  0  0  0  0  0  0  0  0  0  0  0
  -21.2490  -13.1520   22.4420 H   0  0  0  0  0  0  0  0  0  0  0  0
  -25.3210  -15.3520   20.2420 N   0  0  0  0  0  0  0  0  0  0  0  0
  -24.5480  -15.9800   20.4360 H   0  0  0  0  0  0  0  0  0  0  0  0
  -26.1330  -15.8250   19.8690 H   0  0  0  0  0  0  0  0  0  0  0  0
  -33.9210  -19.9160   19.9030 C   0  0  0  0  0  2  0  0  0  0  0  0
  -34.5800  -18.6560   20.4110 C   0  0  0  0  0  2  0  0  0  0  0  0
  -33.4070  -19.2530   21.1640 C   0  0  0  0  0  3  0  0  0  0  0  0
  -27.6220  -17.1720   21.1030 C   0  0  0  0  0  1  0  0  0  0  0  0
  -28.1640  -18.3420   18.9070 C   0  0  0  0  0  1  0  0  0  0  0  0
  -28.4580  -18.2600   20.4110 C   0  0  0  0  0  3  0  0  0  0  0  0
  -29.7100  -24.8540   20.4040 C   0  0  0  0  0  2  0  0  0  0  0  0
  -28.4990  -25.4670   19.6800 C   0  0  0  0  0  2  0  0  0  0  0  0
  -28.5300  -26.8870   19.8370 O   0  0  0  0  0  0  0  0  0  0  0  0
  -24.5000  -31.7190   23.1100 C   0  0  0  0  0  0  0  0  0  0  0  0
  -27.3180  -27.5430   19.8390 C   0  0  0  0  0  0  0  0  0  0  0  0
  -23.3470  -30.3370   21.4130 C   0  0  0  0  0  3  0  0  0  0  0  0
  -24.8580  -28.9300   19.9190 C   0  0  0  0  0  0  0  0  0  0  0  0
  -25.8510  -30.8200   21.2200 C   0  0  0  0  0  2  0  0  0  0  0  0
  -25.9930  -29.4830   20.5240 C   0  0  0  0  0  0  0  0  0  0  0  0
  -27.2270  -28.7970   20.4800 C   0  0  0  0  0  3  0  0  0  0  0  0
  -26.1660  -27.0030   19.2220 C   0  0  0  0  0  3  0  0  0  0  0  0
  -24.9380  -27.6880   19.2670 C   0  0  0  0  0  3  0  0  0  0  0  0
  -23.5780  -29.7280   20.0040 C   0  0  0  0  0  2  0  0  0  0  0  0
  -24.5850  -30.9710   21.9730 N   0  0  0  0  0  0  0  0  0  0  0  0
  -23.4110  -31.9190   23.6650 O   0  0  0  0  0  0  0  0  0  0  0  0
  -22.7490  -29.2470   22.3300 C   0  0  0  0  0  0  0  0  0  0  0  0
  -21.4350  -29.0060   22.1940 N   0  0  0  0  0  0  0  0  0  0  0  0
  -23.4630  -28.6220   23.1200 O   0  0  0  0  0  0  0  0  0  0  0  0
  -20.9170  -29.5680   21.5310 H   0  0  0  0  0  0  0  0  0  0  0  0
  -18.1150  -27.6590   22.6590 C   0  0  0  0  0  0  0  0  0  0  0  0
  -20.6630  -28.0020   22.9260 C   0  0  0  0  0  3  0  0  0  0  0  0
  -20.8170  -26.6050   22.2800 C   0  0  0  0  0  2  0  0  0  0  0  0
  -19.7180  -26.2900   21.2600 C   0  0  0  0  0  2  0  0  0  0  0  0
  -18.3370  -26.3500   21.9200 C   0  0  0  0  0  2  0  0  0  0  0  0
  -19.2080  -28.4420   23.1170 C   0  0  0  0  0  0  0  0  0  0  0  0
  -18.9480  -29.6670   23.7690 C   0  0  0  0  0  3  0  0  0  0  0  0
  -17.6260  -30.1110   23.9670 C   0  0  0  0  0  3  0  0  0  0  0  0
  -16.5480  -29.3250   23.5240 C   0  0  0  0  0  3  0  0  0  0  0  0
  -16.7930  -28.1010   22.8770 C   0  0  0  0  0  3  0  0  0  0  0  0
  -25.7610  -32.3770   23.7510 C   0  0  0  0  0  3  0  0  0  0  0  0
  -25.4100  -33.7630   24.0900 N   0  0  0  0  0  0  0  0  0  0  0  0
  -25.6880  -34.8260   23.3240 C   0  0  0  0  0  0  0  0  0  0  0  0
  -26.3360  -34.7470   22.2760 O   0  0  0  0  0  0  0  0  0  0  0  0
  -24.8260  -33.8950   24.9030 H   0  0  0  0  0  0  0  0  0  0  0  0
  -23.8670  -36.5360   23.0330 C   0  0  0  0  0  1  0  0  0  0  0  0
  -25.1600  -36.1950   23.7920 C   0  0  0  0  0  3  0  0  0  0  0  0
  -27.2830  -37.1820   24.5300 C   0  0  0  0  0  1  0  0  0  0  0  0
  -26.1390  -37.2910   23.6290 N   0  0  0  0  0  0  0  0  0  0  0  0
  -25.6980  -38.1940   23.7860 H   0  0  0  0  0  0  0  0  0  0  0  0
  -26.2880  -31.6060   25.0210 C   0  0  1  0  0  0  0  0  0  0  0  0
  -25.1900  -31.3180   26.0720 C   0  0  0  0  0  1  0  0  0  0  0  0
  -26.9180  -30.2550   24.6140 C   0  0  0  0  0  1  0  0  0  0  0  0
  -27.4040  -32.4270   25.7100 C   0  0  0  0  0  1  0  0  0  0  0  0
  1  5  1  0
  3  1  1  0
  3  6  1  0
  4  2  1  0
  5 11  1  0
  5  2  1  0
  6  7  1  1
  6  4  1  0
  9 11  2  0
  9 10  1  0
 10  8  2  0
 11 12  1  0
 12  8  1  0
 12 53  1  0
 13 21  1  0
 14 19  1  0
 15 16  1  0
 15 14  1  0
 17 16  1  0
 17 26  1  0
 17 18  1  0
 19 13  1  0
 19 18  1  0
 20 13  2  0
 21 10  1  0
 21 22  1  0
 23 24  2  0
 24 43  1  0
 25 24  1  0
 25 28  1  0
 26 27  1  0
 26 23  1  0
 27 25  2  0
 28 29  1  0
 29 30  2  0
 31 34  1  0
 31 30  1  0
 32 31  2  0
 33 32  1  0
 33 28  2  0
 34 35  1  0
 35 40  2  0
 35 36  1  0
 36 37  2  0
 37 38  1  0
 38 42  1  0
 39 38  2  0
 40 39  1  0
 41 40  1  0
 43 44  1  0
 44 47  1  0
 44 46  1  0
 45 43  2  0
 48 23  1  0
 48 49  1  0
 50 48  1  0
 51 52  1  0
 51 53  1  0
 52 53  1  0
 55 56  1  0
 56  9  1  0
 56 54  1  0
 57  6  1  0
 58 59  1  0
 58 57  1  0
 59 61  1  0
 60 71  2  0
 61 66  1  0
 62 70  1  0
 62 72  1  0
 63 69  1  0
 63 65  1  0
 64 70  1  0
 65 64  1  0
 66 65  2  0
 67 68  1  0
 67 61  2  0
 68 63  2  0
 69 62  1  0
 70 60  1  0
 72 74  2  0
 73 72  1  0
 75 73  1  0
 76 85  2  0
 76 81  1  0
 77 73  1  0
 77 81  1  0
 78 77  1  0
 79 80  1  0
 79 78  1  0
 80 76  1  0
 81 82  2  0
 82 83  1  0
 84 83  2  0
 85 84  1  0
 86 60  1  0
 86 87  1  0
 86 96  1  0
 87 90  1  0
 88 92  1  0
 88 87  1  0
 89 88  2  0
 92 91  1  0
 94 95  1  0
 94 92  1  0
 94 93  1  0
 96 99  1  1
 96 97  1  0
 98 96  1  0
M  ISO  4  13 100  21 100  58 101  59 101
M  END
>  <TORSDO>  (96) 
F 21

>  <SCORE>  (96) 
-12.195

>  <name>  (96) 
96

>  <ligand_id>  (96) 
96

>  <original_smiles>  (96) 
[H]c1c([H])c([H])c2c(c1[H])C([H])([H])C([H])([H])C([H])([H])C2([H])N([H])C(=O)C1([H])N(C(=O)C([H])(N([H])C(=O)C([H])(N([H])C([H])([H])[H])C([H])([H])[H])C(C([H])([H])[H])(C([H])([H])[H])C([H])([H])[H])C([H])([H])c2c([H])c(OC([H])([H])C([H])([H])[N+]3([H])C([H])([H])C([H])([H])C([H])(c4c(C([H])(C([H])([H])[H])C([H])([H])[H])c(N([H])C(=O)N5C([H])([H])C([H])([H])C([H])([H])C([H])(n6nc(-c7c([H])c([H])c(Oc8c([H])c([H])c(F)c([H])c8F)c([H])c7[H])c(C(=O)N([H])[H])c6N([H])[H])C5([H])[H])c([H])n4C4([H])C([H])([H])C4([H])[H])C([H])([H])C3([H])[H])c([H])c([H])c2C1([H])[H]

>  <smiles>  (96) 
[H]c1c([H])c([H])c2c(c1[H])C([H])([H])C([H])([H])C([H])([H])C2([H])N([H])C(=O)C1([H])N(C(=O)C([H])(N([H])C(=O)C([H])(N([H])C([H])([H])[H])C([H])([H])[H])C(C([H])([H])[H])(C([H])([H])[H])C([H])([H])[H])C([H])([H])c2c([H])c(OC([H])([H])C([H])([H])[N+]3([H])C([H])([H])C([H])([H])C([H])(c4c(C([H])(C([H])([H])[H])C([H])([H])[H])c(N([H])C(=O)N5C([H])([H])C([H])([H])C([H])([H])C([H])(n6nc(-c7c([H])c([H])c(Oc8c([H])c([H])c(F)c([H])c8F)c([H])c7[H])c(C(=O)N([H])[H])c6N([H])[H])C5([H])[H])c([H])n4C4([H])C([H])([H])C4([H])[H])C([H])([H])C3([H])[H])c([H])c([H])c2C1([H])[H]

$$$$
97:0:0
     RDKit          3D

 97106  0  0  1  0  0  0  0  0999 V2000
  -27.9340  -21.6190   21.1110 C   0  0  0  0  0  3  0  0  0  0  0  0
  -29.1320  -21.7140   20.3810 C   0  0  0  0  0  0  0  0  0  0  0  0
  -27.0450  -22.7030   21.2440 C   0  0  0  0  0  0  0  0  0  0  0  0
  -29.3910  -23.0040   19.7420 C   0  0  0  0  0  0  0  0  0  0  0  0
  -28.4990  -24.1550   19.8790 C   0  0  0  0  0  0  0  0  0  0  0  0
  -27.3330  -23.9650   20.6650 C   0  0  0  0  0  0  0  0  0  0  0  0
  -25.7540  -22.4700   22.0120 C   0  0  0  0  0  1  0  0  0  0  0  0
  -30.6430  -23.1930   18.8920 C   0  0  0  0  0  1  0  0  0  0  0  0
  -32.0380  -19.3740   21.7590 C   0  0  0  0  0  2  0  0  0  0  0  0
  -31.4140  -17.9720   21.7250 C   0  0  0  0  0  2  0  0  0  0  0  0
  -29.5190  -18.9410   20.3250 C   0  0  0  0  0  2  0  0  0  0  0  0
  -30.1100  -20.4450   20.4380 C   0  0  0  0  0  3  0  0  0  0  0  0
  -30.9760  -20.4930   21.7340 C   0  0  0  0  0  3  0  0  0  0  0  0
  -30.5850  -17.7360   20.4500 C   0  0  0  0  0  3  0  0  0  0  0  0
  -31.6480  -21.8500   22.0080 C   0  0  0  0  0  1  0  0  0  0  0  0
  -30.8440  -15.1580   20.1260 C   0  0  0  0  0  0  0  0  0  0  0  0
  -30.6030  -12.9130   19.0750 C   0  0  0  0  0  2  0  0  0  0  0  0
  -29.6420  -13.0130   17.8710 C   0  0  0  0  0  2  0  0  0  0  0  0
  -28.1820  -12.8370   18.3290 C   0  0  0  0  0  2  0  0  0  0  0  0
  -27.8310  -13.7130   19.5620 C   0  0  0  0  0  3  0  0  0  0  0  0
  -28.9080  -13.6040   20.6640 C   0  0  0  0  0  2  0  0  0  0  0  0
  -30.1980  -13.9500   20.0500 N   0  0  0  0  0  0  0  0  0  0  0  0
  -32.0140  -15.2600   19.7500 O   0  0  0  0  0  0  0  0  0  0  0  0
  -30.1100  -16.2880   20.4390 N   0  0  0  0  0  0  0  0  0  0  0  0
  -29.1430  -16.1260   20.6760 H   0  0  0  0  0  0  0  0  0  0  0  0
  -25.4590  -14.2890   20.3520 C   0  0  0  0  0  0  0  0  0  0  0  0
  -24.4000  -13.5060   20.7250 C   0  0  0  0  0  0  0  0  0  0  0  0
  -24.8630  -12.1560   20.6540 C   0  0  0  0  0  0  0  0  0  0  0  0
  -26.4970  -13.4150   20.0740 N   0  0  0  0  0  0  0  0  0  0  0  0
  -26.1460  -12.1260   20.3180 N   0  0  0  0  0  0  0  0  0  0  0  0
  -24.1400  -10.8890   20.8270 C   0  0  0  0  0  0  0  0  0  0  0  0
  -24.5670   -9.9150   21.7580 C   0  0  0  0  0  3  0  0  0  0  0  0
  -23.8420   -8.7150   21.9190 C   0  0  0  0  0  3  0  0  0  0  0  0
  -22.6770   -8.4780   21.1510 C   0  0  0  0  0  0  0  0  0  0  0  0
  -22.2710   -9.4400   20.2100 C   0  0  0  0  0  3  0  0  0  0  0  0
  -22.9950  -10.6320   20.0450 C   0  0  0  0  0  3  0  0  0  0  0  0
  -21.9260   -7.3300   21.2230 O   0  0  0  0  0  0  0  0  0  0  0  0
  -21.8520   -6.5900   22.3750 C   0  0  0  0  0  0  0  0  0  0  0  0
  -21.3770   -7.1400   23.5860 C   0  0  0  0  0  3  0  0  0  0  0  0
  -21.2520   -6.3250   24.7280 C   0  0  0  0  0  3  0  0  0  0  0  0
  -21.5910   -4.9600   24.6610 C   0  0  0  0  0  0  0  0  0  0  0  0
  -22.0600   -4.4090   23.4550 C   0  0  0  0  0  3  0  0  0  0  0  0
  -22.1860   -5.2220   22.3150 C   0  0  0  0  0  0  0  0  0  0  0  0
  -22.6180   -4.6820   21.1500 F   0  0  0  0  0  0  0  0  0  0  0  0
  -21.4640   -4.1750   25.7560 F   0  0  0  0  0  0  0  0  0  0  0  0
  -23.0090  -13.9770   21.0360 C   0  0  0  0  0  0  0  0  0  0  0  0
  -22.2960  -13.2560   21.8960 N   0  0  0  0  0  0  0  0  0  0  0  0
  -22.5630  -15.0160   20.5530 O   0  0  0  0  0  0  0  0  0  0  0  0
  -22.6670  -12.4130   22.3070 H   0  0  0  0  0  0  0  0  0  0  0  0
  -21.3630  -13.5540   22.1460 H   0  0  0  0  0  0  0  0  0  0  0  0
  -25.6210  -15.6630   20.2020 N   0  0  0  0  0  0  0  0  0  0  0  0
  -24.8550  -16.3160   20.3390 H   0  0  0  0  0  0  0  0  0  0  0  0
  -26.4550  -16.1080   19.8440 H   0  0  0  0  0  0  0  0  0  0  0  0
  -26.4810  -25.6370   22.0700 C   0  0  0  0  0  1  0  0  0  0  0  0
  -26.4320  -24.9850   20.8080 O   0  0  0  0  0  0  0  0  0  0  0  0
  -28.6750  -25.5220   19.0650 C   0  0  0  0  0  2  0  0  0  0  0  0
  -28.5460  -26.8780   19.6730 O   0  0  0  0  0  0  0  0  0  0  0  0
  -24.5900  -31.8410   23.0820 C   0  0  0  0  0  0  0  0  0  0  0  0
  -27.3780  -27.6640   19.6380 C   0  0  0  0  0  0  0  0  0  0  0  0
  -23.4290  -30.5060   21.3590 C   0  0  0  0  0  3  0  0  0  0  0  0
  -24.9310  -29.1510   19.7860 C   0  0  0  0  0  0  0  0  0  0  0  0
  -25.9450  -30.9710   21.1620 C   0  0  0  0  0  2  0  0  0  0  0  0
  -26.0810  -29.6520   20.4070 C   0  0  0  0  0  0  0  0  0  0  0  0
  -27.3010  -28.9140   20.3330 C   0  0  0  0  0  3  0  0  0  0  0  0
  -26.2040  -27.2290   18.9840 C   0  0  0  0  0  3  0  0  0  0  0  0
  -24.9950  -27.9460   19.0680 C   0  0  0  0  0  3  0  0  0  0  0  0
  -23.6470  -29.9460   19.9270 C   0  0  0  0  0  2  0  0  0  0  0  0
  -24.6730  -31.1210   21.9230 N   0  0  0  0  0  0  0  0  0  0  0  0
  -23.5050  -32.0180   23.6530 O   0  0  0  0  0  0  0  0  0  0  0  0
  -22.8430  -29.3850   22.2490 C   0  0  0  0  0  0  0  0  0  0  0  0
  -21.5270  -29.1450   22.1290 N   0  0  0  0  0  0  0  0  0  0  0  0
  -23.5710  -28.7380   23.0050 O   0  0  0  0  0  0  0  0  0  0  0  0
  -20.9950  -29.7260   21.4970 H   0  0  0  0  0  0  0  0  0  0  0  0
  -18.2270  -27.7440   22.6040 C   0  0  0  0  0  0  0  0  0  0  0  0
  -20.7750  -28.1070   22.8370 C   0  0  0  0  0  3  0  0  0  0  0  0
  -20.9310  -26.7330   22.1430 C   0  0  0  0  0  2  0  0  0  0  0  0
  -19.8180  -26.4390   21.1310 C   0  0  0  0  0  2  0  0  0  0  0  0
  -18.4490  -26.4640   21.8150 C   0  0  0  0  0  2  0  0  0  0  0  0
  -19.3180  -28.5230   23.0700 C   0  0  0  0  0  0  0  0  0  0  0  0
  -19.0540  -29.7220   23.7680 C   0  0  0  0  0  3  0  0  0  0  0  0
  -17.7330  -30.1410   24.0070 C   0  0  0  0  0  3  0  0  0  0  0  0
  -16.6560  -29.3570   23.5570 C   0  0  0  0  0  3  0  0  0  0  0  0
  -16.9040  -28.1610   22.8610 C   0  0  0  0  0  3  0  0  0  0  0  0
  -25.8510  -32.4940   23.7280 C   0  0  0  0  0  3  0  0  0  0  0  0
  -26.3900  -31.6980   24.9810 C   0  0  1  0  0  0  0  0  0  0  0  0
  -25.3010  -31.3890   26.0360 C   0  0  0  0  0  1  0  0  0  0  0  0
  -27.0200  -30.3540   24.5460 C   0  0  0  0  0  1  0  0  0  0  0  0
  -27.5110  -32.5100   25.6730 C   0  0  0  0  0  1  0  0  0  0  0  0
  -25.4940  -33.8680   24.1070 N   0  0  0  0  0  0  0  0  0  0  0  0
  -25.7830  -34.9590   23.3850 C   0  0  0  0  0  0  0  0  0  0  0  0
  -26.4460  -34.9150   22.3450 O   0  0  0  0  0  0  0  0  0  0  0  0
  -24.9070  -33.9740   24.9210 H   0  0  0  0  0  0  0  0  0  0  0  0
  -23.9770  -36.6900   23.1200 C   0  0  0  0  0  1  0  0  0  0  0  0
  -25.2510  -36.3120   23.8940 C   0  0  0  0  0  3  0  0  0  0  0  0
  -27.3600  -37.2600   24.7160 C   0  0  0  0  0  1  0  0  0  0  0  0
  -26.2380  -37.4090   23.7950 N   0  0  0  0  0  0  0  0  0  0  0  0
  -25.7980  -38.3080   23.9740 H   0  0  0  0  0  0  0  0  0  0  0  0
  1  3  1  0
  2  1  2  0
  3  7  1  0
  4  5  2  0
  4  2  1  0
  5  6  1  0
  6 55  1  0
  6  3  2  0
  8  4  1  0
 10  9  1  0
 11 12  1  0
 11 14  1  0
 12  2  1  0
 12 13  1  0
 13  9  1  0
 13 15  1  0
 14 24  1  0
 14 10  1  0
 16 24  1  0
 17 22  1  0
 18 19  1  0
 18 17  1  0
 20 19  1  0
 20 29  1  0
 20 21  1  0
 22 16  1  0
 22 21  1  0
 23 16  2  0
 24 25  1  0
 26 27  2  0
 27 46  1  0
 28 27  1  0
 28 31  1  0
 29 30  1  0
 29 26  1  0
 30 28  2  0
 31 32  1  0
 32 33  2  0
 34 37  1  0
 34 33  1  0
 35 34  2  0
 36 35  1  0
 36 31  2  0
 37 38  1  0
 38 39  1  0
 39 40  2  0
 41 40  1  0
 41 45  1  0
 42 41  2  0
 43 38  2  0
 43 42  1  0
 44 43  1  0
 46 47  1  0
 47 50  1  0
 47 49  1  0
 48 46  2  0
 51 52  1  0
 51 26  1  0
 53 51  1  0
 55 54  1  0
 56 57  1  0
 56  5  1  0
 58 69  2  0
 59 57  1  0
 59 64  1  0
 60 68  1  0
 60 70  1  0
 61 67  1  0
 61 63  1  0
 62 68  1  0
 63 62  1  0
 64 63  2  0
 65 66  1  0
 65 59  2  0
 66 61  2  0
 67 60  1  0
 68 58  1  0
 70 72  2  0
 71 70  1  0
 73 71  1  0
 74 83  2  0
 74 79  1  0
 75 71  1  0
 75 79  1  0
 76 75  1  0
 77 78  1  0
 77 76  1  0
 78 74  1  0
 79 80  2  0
 80 81  1  0
 82 81  2  0
 83 82  1  0
 84 58  1  0
 84 89  1  0
 84 85  1  0
 85 88  1  1
 85 86  1  0
 87 85  1  0
 89 92  1  0
 90 94  1  0
 90 89  1  0
 91 90  2  0
 94 93  1  0
 96 94  1  0
 96 97  1  0
 96 95  1  0
M  ISO  4  16 100  24 100  56 101  57 101
M  END
>  <TORSDO>  (97) 
F 19

>  <SCORE>  (97) 
-12.157

>  <name>  (97) 
97

>  <ligand_id>  (97) 
97

>  <original_smiles>  (97) 
[H]c1c([H])c([H])c2c(c1[H])C([H])([H])C([H])([H])C([H])([H])C2([H])N([H])C(=O)C1([H])N(C(=O)C([H])(N([H])C(=O)C([H])(N([H])C([H])([H])[H])C([H])([H])[H])C(C([H])([H])[H])(C([H])([H])[H])C([H])([H])[H])C([H])([H])c2c([H])c(OC([H])([H])c3c(OC([H])([H])[H])c(C([H])([H])[H])c([H])c(C4([H])C([H])([H])C([H])(N([H])C(=O)N5C([H])([H])C([H])([H])C([H])([H])C([H])(n6nc(-c7c([H])c([H])c(Oc8c([H])c([H])c(F)c([H])c8F)c([H])c7[H])c(C(=O)N([H])[H])c6N([H])[H])C5([H])[H])C([H])([H])C([H])([H])C4([H])C([H])([H])[H])c3C([H])([H])[H])c([H])c([H])c2C1([H])[H]

>  <smiles>  (97) 
[H]c1c([H])c([H])c2c(c1[H])C([H])([H])C([H])([H])C([H])([H])C2([H])N([H])C(=O)C1([H])N(C(=O)C([H])(N([H])C(=O)C([H])(N([H])C([H])([H])[H])C([H])([H])[H])C(C([H])([H])[H])(C([H])([H])[H])C([H])([H])[H])C([H])([H])c2c([H])c(OC([H])([H])c3c(OC([H])([H])[H])c(C([H])([H])[H])c([H])c(C4([H])C([H])([H])C([H])(N([H])C(=O)N5C([H])([H])C([H])([H])C([H])([H])C([H])(n6nc(-c7c([H])c([H])c(Oc8c([H])c([H])c(F)c([H])c8F)c([H])c7[H])c(C(=O)N([H])[H])c6N([H])[H])C5([H])[H])C([H])([H])C([H])([H])C4([H])C([H])([H])[H])c3C([H])([H])[H])c([H])c([H])c2C1([H])[H]

$$$$
98:0:0
     RDKit          3D

 95104  0  0  1  0  0  0  0  0999 V2000
  -29.2570  -21.7970   21.7640 C   0  0  0  0  0  3  0  0  0  0  0  0
  -29.5020  -20.5330   21.1510 C   0  0  0  0  0  0  0  0  0  0  0  0
  -29.3380  -20.2790   19.7700 C   0  0  0  0  0  0  0  0  0  0  0  0
  -28.9190  -21.6120   19.0760 C   0  0  0  0  0  0  0  0  0  0  0  0
  -28.6510  -23.0230   19.6900 C   0  0  0  0  0  0  0  0  0  0  0  0
  -28.8550  -22.9940   21.0910 C   0  0  0  0  0  0  0  0  0  0  0  0
  -30.1300  -19.4310   21.9840 C   0  0  0  0  0  2  0  0  0  0  0  0
  -30.0380  -18.7190   19.2590 C   0  0  0  0  0  3  0  0  0  0  0  0
  -31.4510  -18.8890   21.3660 C   0  0  0  0  0  3  0  0  0  0  0  0
  -31.4860  -18.9070   19.7980 C   0  0  0  0  0  3  0  0  0  0  0  0
  -28.7890  -21.5290   17.5690 C   0  0  0  0  0  1  0  0  0  0  0  0
  -32.6780  -19.5490   22.0230 C   0  0  0  0  0  1  0  0  0  0  0  0
  -32.1970  -20.1440   19.1910 C   0  0  0  0  0  1  0  0  0  0  0  0
  -30.5490  -15.7780   19.5300 C   0  0  0  0  0  0  0  0  0  0  0  0
  -30.6060  -13.2360   18.9260 C   0  0  0  0  0  2  0  0  0  0  0  0
  -29.6530  -12.8150   17.7790 C   0  0  0  0  0  2  0  0  0  0  0  0
  -28.2500  -12.5110   18.3250 C   0  0  0  0  0  2  0  0  0  0  0  0
  -27.7880  -13.5850   19.3410 C   0  0  0  0  0  3  0  0  0  0  0  0
  -28.8670  -13.9420   20.3870 C   0  0  0  0  0  2  0  0  0  0  0  0
  -30.0320  -14.4460   19.6390 N   0  0  0  0  0  0  0  0  0  0  0  0
  -31.7530  -15.7630   19.2370 O   0  0  0  0  0  0  0  0  0  0  0  0
  -29.7670  -17.0670   19.5590 N   0  0  0  0  0  0  0  0  0  0  0  0
  -28.7990  -16.8880   19.7750 H   0  0  0  0  0  0  0  0  0  0  0  0
  -25.4960  -14.1450   20.2960 C   0  0  0  0  0  0  0  0  0  0  0  0
  -24.4560  -13.3700   20.7280 C   0  0  0  0  0  0  0  0  0  0  0  0
  -24.9020  -12.0160   20.6250 C   0  0  0  0  0  0  0  0  0  0  0  0
  -26.5040  -13.2650   19.9480 N   0  0  0  0  0  0  0  0  0  0  0  0
  -26.1650  -11.9760   20.2120 N   0  0  0  0  0  0  0  0  0  0  0  0
  -24.1740  -10.7580   20.8390 C   0  0  0  0  0  0  0  0  0  0  0  0
  -24.5920   -9.8150   21.8040 C   0  0  0  0  0  3  0  0  0  0  0  0
  -23.8620   -8.6240   22.0060 C   0  0  0  0  0  3  0  0  0  0  0  0
  -22.7000   -8.3650   21.2420 C   0  0  0  0  0  0  0  0  0  0  0  0
  -22.3000   -9.2960   20.2660 C   0  0  0  0  0  3  0  0  0  0  0  0
  -23.0310  -10.4790   20.0630 C   0  0  0  0  0  3  0  0  0  0  0  0
  -21.9430   -7.2250   21.3510 O   0  0  0  0  0  0  0  0  0  0  0  0
  -21.7800   -6.5800   22.5510 C   0  0  0  0  0  0  0  0  0  0  0  0
  -21.1910   -7.2170   23.6650 C   0  0  0  0  0  3  0  0  0  0  0  0
  -20.9820   -6.4960   24.8580 C   0  0  0  0  0  3  0  0  0  0  0  0
  -21.3500   -5.1400   24.9350 C   0  0  0  0  0  0  0  0  0  0  0  0
  -21.9320   -4.5030   23.8250 C   0  0  0  0  0  3  0  0  0  0  0  0
  -22.1450   -5.2210   22.6360 C   0  0  0  0  0  0  0  0  0  0  0  0
  -22.6850   -4.5970   21.5620 F   0  0  0  0  0  0  0  0  0  0  0  0
  -21.1410   -4.4450   26.0790 F   0  0  0  0  0  0  0  0  0  0  0  0
  -23.0910  -13.8560   21.1150 C   0  0  0  0  0  0  0  0  0  0  0  0
  -22.4310  -13.1600   22.0330 N   0  0  0  0  0  0  0  0  0  0  0  0
  -22.6220  -14.8880   20.6370 O   0  0  0  0  0  0  0  0  0  0  0  0
  -22.8270  -12.3240   22.4380 H   0  0  0  0  0  0  0  0  0  0  0  0
  -21.5170  -13.4660   22.3360 H   0  0  0  0  0  0  0  0  0  0  0  0
  -25.6620  -15.5180   20.1430 N   0  0  0  0  0  0  0  0  0  0  0  0
  -24.9150  -16.1770   20.3320 H   0  0  0  0  0  0  0  0  0  0  0  0
  -26.4800  -15.9540   19.7380 H   0  0  0  0  0  0  0  0  0  0  0  0
  -29.3030  -24.4130   22.9980 C   0  0  0  0  0  1  0  0  0  0  0  0
  -28.6490  -24.1860   21.7540 O   0  0  0  0  0  0  0  0  0  0  0  0
  -28.0320  -24.5540   19.0440 C   0  0  0  0  0  2  0  0  0  0  0  0
  -28.1350  -26.1610   19.4890 O   0  0  0  0  0  0  0  0  0  0  0  0
  -24.6540  -31.8380   23.0750 C   0  0  0  0  0  0  0  0  0  0  0  0
  -27.1050  -27.2550   19.5150 C   0  0  0  0  0  0  0  0  0  0  0  0
  -23.3770  -30.5240   21.4310 C   0  0  0  0  0  3  0  0  0  0  0  0
  -24.7570  -29.0790   19.7790 C   0  0  0  0  0  0  0  0  0  0  0  0
  -25.9190  -30.8270   21.1100 C   0  0  0  0  0  2  0  0  0  0  0  0
  -25.9770  -29.4680   20.3450 C   0  0  0  0  0  0  0  0  0  0  0  0
  -27.1370  -28.5780   20.1950 C   0  0  0  0  0  3  0  0  0  0  0  0
  -25.8510  -27.0390   18.8950 C   0  0  0  0  0  3  0  0  0  0  0  0
  -24.7200  -27.8900   19.0310 C   0  0  0  0  0  3  0  0  0  0  0  0
  -23.5200  -29.9510   19.9930 C   0  0  0  0  0  2  0  0  0  0  0  0
  -24.6760  -31.0890   21.9250 N   0  0  0  0  0  0  0  0  0  0  0  0
  -23.6020  -32.0500   23.6990 O   0  0  0  0  0  0  0  0  0  0  0  0
  -22.7900  -29.4370   22.3700 C   0  0  0  0  0  0  0  0  0  0  0  0
  -21.4730  -29.1740   22.2730 N   0  0  0  0  0  0  0  0  0  0  0  0
  -23.5240  -28.8350   23.1570 O   0  0  0  0  0  0  0  0  0  0  0  0
  -20.9260  -29.7170   21.6170 H   0  0  0  0  0  0  0  0  0  0  0  0
  -18.2300  -27.6120   22.7370 C   0  0  0  0  0  0  0  0  0  0  0  0
  -20.7460  -28.1430   23.0230 C   0  0  0  0  0  3  0  0  0  0  0  0
  -21.0000  -26.7380   22.4250 C   0  0  0  0  0  2  0  0  0  0  0  0
  -19.9440  -26.3210   21.3980 C   0  0  0  0  0  2  0  0  0  0  0  0
  -18.5510  -26.3050   22.0340 C   0  0  0  0  0  2  0  0  0  0  0  0
  -19.2590  -28.4830   23.1860 C   0  0  0  0  0  0  0  0  0  0  0  0
  -18.9010  -29.7010   23.8060 C   0  0  0  0  0  3  0  0  0  0  0  0
  -17.5480  -30.0510   23.9790 C   0  0  0  0  0  3  0  0  0  0  0  0
  -16.5350  -29.1800   23.5440 C   0  0  0  0  0  3  0  0  0  0  0  0
  -16.8760  -27.9620   22.9300 C   0  0  0  0  0  3  0  0  0  0  0  0
  -25.9520  -32.4790   23.6570 C   0  0  0  0  0  3  0  0  0  0  0  0
  -25.6330  -33.8580   24.0680 N   0  0  0  0  0  0  0  0  0  0  0  0
  -25.9180  -34.9570   23.3570 C   0  0  0  0  0  0  0  0  0  0  0  0
  -26.5410  -34.9160   22.2930 O   0  0  0  0  0  0  0  0  0  0  0  0
  -25.0800  -33.9610   24.9070 H   0  0  0  0  0  0  0  0  0  0  0  0
  -24.1530  -36.7440   23.1910 C   0  0  0  0  0  1  0  0  0  0  0  0
  -25.4420  -36.3150   23.9110 C   0  0  0  0  0  3  0  0  0  0  0  0
  -27.6040  -37.1960   24.6780 C   0  0  0  0  0  1  0  0  0  0  0  0
  -26.4550  -37.3900   23.7960 N   0  0  0  0  0  0  0  0  0  0  0  0
  -26.0440  -38.2950   24.0060 H   0  0  0  0  0  0  0  0  0  0  0  0
  -26.5410  -31.6740   24.8810 C   0  0  1  0  0  0  0  0  0  0  0  0
  -25.5060  -31.3810   25.9930 C   0  0  0  0  0  1  0  0  0  0  0  0
  -27.1280  -30.3210   24.4200 C   0  0  0  0  0  1  0  0  0  0  0  0
  -27.7110  -32.4640   25.5150 C   0  0  0  0  0  1  0  0  0  0  0  0
  2  1  1  0
  2  7  1  0
  3  2  2  0
  4  5  2  0
  4  3  1  0
  5  6  1  0
  6 53  1  0
  6  1  2  0
  8 22  1  0
  8  3  1  0
  8 10  1  0
  9  7  1  0
  9 12  1  0
 10 13  1  0
 10  9  1  0
 11  4  1  0
 14 22  1  0
 14 20  1  0
 15 20  1  0
 16 17  1  0
 16 15  1  0
 18 17  1  0
 18 27  1  0
 18 19  1  0
 20 19  1  0
 21 14  2  0
 22 23  1  0
 24 25  2  0
 25 44  1  0
 26 25  1  0
 26 29  1  0
 27 28  1  0
 27 24  1  0
 28 26  2  0
 29 30  1  0
 30 31  2  0
 32 35  1  0
 32 31  1  0
 33 32  2  0
 34 33  1  0
 34 29  2  0
 35 36  1  0
 36 41  2  0
 36 37  1  0
 37 38  2  0
 38 39  1  0
 39 43  1  0
 40 39  2  0
 41 40  1  0
 42 41  1  0
 44 45  1  0
 45 48  1  0
 45 47  1  0
 46 44  2  0
 49 24  1  0
 49 50  1  0
 51 49  1  0
 53 52  1  0
 54 55  1  0
 54  5  1  0
 55 57  1  0
 56 67  2  0
 57 62  1  0
 58 66  1  0
 58 68  1  0
 59 65  1  0
 59 61  1  0
 60 66  1  0
 61 60  1  0
 62 61  2  0
 63 64  1  0
 63 57  2  0
 64 59  2  0
 65 58  1  0
 66 56  1  0
 68 70  2  0
 69 68  1  0
 71 69  1  0
 72 81  2  0
 72 77  1  0
 73 69  1  0
 73 77  1  0
 74 73  1  0
 75 76  1  0
 75 74  1  0
 76 72  1  0
 77 78  2  0
 78 79  1  0
 80 79  2  0
 81 80  1  0
 82 56  1  0
 82 83  1  0
 82 92  1  0
 83 86  1  0
 84 88  1  0
 84 83  1  0
 85 84  2  0
 88 87  1  0
 90 88  1  0
 90 91  1  0
 90 89  1  0
 92 95  1  1
 92 93  1  0
 94 92  1  0
M  ISO  4  14 100  22 100  54 101  55 101
M  END
>  <TORSDO>  (98) 
F 18

>  <SCORE>  (98) 
-15.463

>  <name>  (98) 
98

>  <ligand_id>  (98) 
98

>  <original_smiles>  (98) 
[H]c1c([H])c([H])c2c(c1[H])C([H])([H])C([H])([H])C([H])([H])C2([H])N([H])C(=O)C1([H])N(C(=O)C([H])(N([H])C(=O)C([H])(N([H])C([H])([H])[H])C([H])([H])[H])C(C([H])([H])[H])(C([H])([H])[H])C([H])([H])[H])C([H])([H])c2c([H])c(OC([H])([H])c3c(OC([H])([H])[H])c([H])c4c(c3C([H])([H])[H])C([H])(N([H])C(=O)N3C([H])([H])C([H])([H])C([H])([H])C([H])(n5nc(-c6c([H])c([H])c(Oc7c([H])c([H])c(F)c([H])c7F)c([H])c6[H])c(C(=O)N([H])[H])c5N([H])[H])C3([H])[H])C([H])(C([H])([H])[H])C([H])(C([H])([H])[H])C4([H])[H])c([H])c([H])c2C1([H])[H]

>  <smiles>  (98) 
[H]c1c([H])c([H])c2c(c1[H])C([H])([H])C([H])([H])C([H])([H])C2([H])N([H])C(=O)C1([H])N(C(=O)C([H])(N([H])C(=O)C([H])(N([H])C([H])([H])[H])C([H])([H])[H])C(C([H])([H])[H])(C([H])([H])[H])C([H])([H])[H])C([H])([H])c2c([H])c(OC([H])([H])c3c(OC([H])([H])[H])c([H])c4c(c3C([H])([H])[H])C([H])(N([H])C(=O)N3C([H])([H])C([H])([H])C([H])([H])C([H])(n5nc(-c6c([H])c([H])c(Oc7c([H])c([H])c(F)c([H])c7F)c([H])c6[H])c(C(=O)N([H])[H])c5N([H])[H])C3([H])[H])C([H])(C([H])([H])[H])C([H])(C([H])([H])[H])C4([H])[H])c([H])c([H])c2C1([H])[H]

$$$$
