0:0:0
     RDKit          3D

 95104  0  0  1  0  0  0  0  0999 V2000
  -26.9940  -21.4280   18.6880 C   0  0  0  0  0  2  0  0  0  0  0  0
  -27.8060  -22.7290   18.7480 C   0  0  0  0  0  2  0  0  0  0  0  0
  -29.5300  -21.6380   20.1420 C   0  0  0  0  0  2  0  0  0  0  0  0
  -27.8830  -20.1790   18.8120 C   0  0  0  0  0  3  0  0  0  0  0  0
  -28.7570  -20.2700   20.0940 C   0  0  0  0  0  3  0  0  0  0  0  0
  -28.6730  -19.8870   17.5180 C   0  0  0  0  0  1  0  0  0  0  0  0
  -28.6110  -22.8210   19.9970 N   0  0  1  0  0  4  0  0  0  0  0  0
  -27.9670  -22.7450   20.7710 H   0  0  0  0  0  0  0  0  0  0  0  0
  -31.2650  -17.5670   20.0570 C   0  0  0  0  0  3  0  0  0  0  0  0
  -30.9110  -18.8820   19.9140 C   0  0  0  0  0  3  0  0  0  0  0  0
  -30.1030  -16.8700   20.4900 C   0  0  0  0  0  0  0  0  0  0  0  0
  -29.0890  -17.7790   20.6590 C   0  0  0  0  0  0  0  0  0  0  0  0
  -27.6800  -17.5640   21.1210 C   0  0  0  0  0  1  0  0  0  0  0  0
  -29.5670  -19.0350   20.2500 N   0  0  0  0  0  0  0  0  0  0  0  0
  -30.6290  -14.4450   20.1090 C   0  0  0  0  0  0  0  0  0  0  0  0
  -30.2390  -12.3220   18.9120 C   0  0  0  0  0  2  0  0  0  0  0  0
  -29.2320  -12.5910   17.7730 C   0  0  0  0  0  2  0  0  0  0  0  0
  -27.7830  -12.4550   18.2790 C   0  0  0  0  0  2  0  0  0  0  0  0
  -27.5330  -13.2390   19.5960 C   0  0  0  0  0  3  0  0  0  0  0  0
  -28.6490  -12.9590   20.6300 C   0  0  0  0  0  2  0  0  0  0  0  0
  -29.9440  -13.2710   19.9980 N   0  0  0  0  0  0  0  0  0  0  0  0
  -31.7390  -14.6060   19.5960 O   0  0  0  0  0  0  0  0  0  0  0  0
  -29.9520  -15.4570   20.6980 N   0  0  0  0  0  0  0  0  0  0  0  0
  -29.0820  -15.1700   21.1200 H   0  0  0  0  0  0  0  0  0  0  0  0
  -25.1780  -13.8440   20.4380 C   0  0  0  0  0  0  0  0  0  0  0  0
  -24.1260  -13.0710   20.8530 C   0  0  0  0  0  0  0  0  0  0  0  0
  -24.5760  -11.7170   20.7720 C   0  0  0  0  0  0  0  0  0  0  0  0
  -26.2040  -12.9620   20.1390 N   0  0  0  0  0  0  0  0  0  0  0  0
  -25.8490  -11.6760   20.3960 N   0  0  0  0  0  0  0  0  0  0  0  0
  -23.8500  -10.4570   20.9770 C   0  0  0  0  0  0  0  0  0  0  0  0
  -24.3100   -9.4790   21.8880 C   0  0  0  0  0  3  0  0  0  0  0  0
  -23.5850   -8.2840   22.0800 C   0  0  0  0  0  3  0  0  0  0  0  0
  -22.3870   -8.0570   21.3610 C   0  0  0  0  0  0  0  0  0  0  0  0
  -21.9460   -9.0230   20.4390 C   0  0  0  0  0  3  0  0  0  0  0  0
  -22.6720  -10.2110   20.2440 C   0  0  0  0  0  3  0  0  0  0  0  0
  -21.6310   -6.9150   21.4650 O   0  0  0  0  0  0  0  0  0  0  0  0
  -21.5970   -6.1780   22.6210 C   0  0  0  0  0  0  0  0  0  0  0  0
  -21.2020   -6.7420   23.8540 C   0  0  0  0  0  3  0  0  0  0  0  0
  -21.1150   -5.9310   25.0040 C   0  0  0  0  0  3  0  0  0  0  0  0
  -21.4120   -4.5570   24.9210 C   0  0  0  0  0  0  0  0  0  0  0  0
  -21.8000   -3.9920   23.6940 C   0  0  0  0  0  3  0  0  0  0  0  0
  -21.8900   -4.8000   22.5470 C   0  0  0  0  0  0  0  0  0  0  0  0
  -22.2440   -4.2470   21.3620 F   0  0  0  0  0  0  0  0  0  0  0  0
  -21.3200   -3.7760   26.0220 F   0  0  0  0  0  0  0  0  0  0  0  0
  -22.7500  -13.5530   21.2070 C   0  0  0  0  0  0  0  0  0  0  0  0
  -22.0680  -12.8500   22.1040 N   0  0  0  0  0  0  0  0  0  0  0  0
  -22.2900  -14.5880   20.7260 O   0  0  0  0  0  0  0  0  0  0  0  0
  -22.4550  -12.0110   22.5130 H   0  0  0  0  0  0  0  0  0  0  0  0
  -21.1470  -13.1520   22.3860 H   0  0  0  0  0  0  0  0  0  0  0  0
  -25.3390  -15.2140   20.2700 N   0  0  0  0  0  0  0  0  0  0  0  0
  -24.5700  -15.8620   20.4030 H   0  0  0  0  0  0  0  0  0  0  0  0
  -26.1540  -15.6400   19.8460 H   0  0  0  0  0  0  0  0  0  0  0  0
  -29.2540  -24.1760   20.1280 C   0  0  0  0  0  2  0  0  0  0  0  0
  -28.2830  -25.2630   20.6910 C   0  0  0  0  0  2  0  0  0  0  0  0
  -28.4370  -26.5910   20.1280 O   0  0  0  0  0  0  0  0  0  0  0  0
  -24.5220  -31.7560   23.1410 C   0  0  0  0  0  0  0  0  0  0  0  0
  -27.2780  -27.3480   20.0930 C   0  0  0  0  0  0  0  0  0  0  0  0
  -23.3650  -30.3460   21.4730 C   0  0  0  0  0  3  0  0  0  0  0  0
  -24.8660  -28.8380   20.0620 C   0  0  0  0  0  0  0  0  0  0  0  0
  -25.8900  -30.7380   21.3200 C   0  0  0  0  0  2  0  0  0  0  0  0
  -26.0080  -29.3700   20.6740 C   0  0  0  0  0  0  0  0  0  0  0  0
  -27.2190  -28.6340   20.6860 C   0  0  0  0  0  3  0  0  0  0  0  0
  -26.1230  -26.8500   19.4500 C   0  0  0  0  0  3  0  0  0  0  0  0
  -24.9190  -27.5790   19.4430 C   0  0  0  0  0  3  0  0  0  0  0  0
  -23.6070  -29.6790   20.0940 C   0  0  0  0  0  2  0  0  0  0  0  0
  -24.6090  -30.9620   22.0370 N   0  0  0  0  0  0  0  0  0  0  0  0
  -23.4270  -32.0090   23.6650 O   0  0  0  0  0  0  0  0  0  0  0  0
  -22.7110  -29.3100   22.4170 C   0  0  0  0  0  0  0  0  0  0  0  0
  -21.3890  -29.1190   22.2750 N   0  0  0  0  0  0  0  0  0  0  0  0
  -23.3910  -28.6820   23.2320 O   0  0  0  0  0  0  0  0  0  0  0  0
  -20.9000  -29.6790   21.5890 H   0  0  0  0  0  0  0  0  0  0  0  0
  -18.0180  -27.8970   22.7300 C   0  0  0  0  0  0  0  0  0  0  0  0
  -20.5720  -28.1690   23.0290 C   0  0  0  0  0  3  0  0  0  0  0  0
  -20.6890  -26.7440   22.4370 C   0  0  0  0  0  2  0  0  0  0  0  0
  -19.5990  -26.4260   21.4100 C   0  0  0  0  0  2  0  0  0  0  0  0
  -18.2090  -26.5560   22.0430 C   0  0  0  0  0  2  0  0  0  0  0  0
  -19.1280  -28.6610   23.1790 C   0  0  0  0  0  0  0  0  0  0  0  0
  -18.8970  -29.9170   23.7810 C   0  0  0  0  0  3  0  0  0  0  0  0
  -17.5880  -30.4100   23.9400 C   0  0  0  0  0  3  0  0  0  0  0  0
  -16.4920  -29.6420   23.5080 C   0  0  0  0  0  3  0  0  0  0  0  0
  -16.7080  -28.3890   22.9090 C   0  0  0  0  0  3  0  0  0  0  0  0
  -25.7880  -32.4020   23.7860 C   0  0  0  0  0  3  0  0  0  0  0  0
  -26.3120  -31.6140   25.0490 C   0  0  1  0  0  0  0  0  0  0  0  0
  -25.2180  -31.3310   26.1020 C   0  0  0  0  0  1  0  0  0  0  0  0
  -26.9260  -30.2580   24.6280 C   0  0  0  0  0  1  0  0  0  0  0  0
  -27.4420  -32.4180   25.7370 C   0  0  0  0  0  1  0  0  0  0  0  0
  -25.4470  -33.7870   24.1400 N   0  0  0  0  0  0  0  0  0  0  0  0
  -25.7560  -34.8580   23.3960 C   0  0  0  0  0  0  0  0  0  0  0  0
  -26.4300  -34.7860   22.3640 O   0  0  0  0  0  0  0  0  0  0  0  0
  -24.8480  -33.9150   24.9410 H   0  0  0  0  0  0  0  0  0  0  0  0
  -23.9810  -36.6100   23.0740 C   0  0  0  0  0  1  0  0  0  0  0  0
  -25.2350  -36.2270   23.8750 C   0  0  0  0  0  3  0  0  0  0  0  0
  -27.3510  -37.1540   24.7070 C   0  0  0  0  0  1  0  0  0  0  0  0
  -26.2390  -37.3080   23.7720 N   0  0  0  0  0  0  0  0  0  0  0  0
  -25.8110  -38.2140   23.9360 H   0  0  0  0  0  0  0  0  0  0  0  0
  1  2  1  0
  1  4  1  0
  2  7  1  0
  4  6  1  0
  4  5  1  0
  5  3  1  0
  5 14  1  0
  7 53  1  0
  7  3  1  0
  7  8  1  1
  9 11  1  0
 10  9  2  0
 10 14  1  0
 11 12  2  0
 11 23  1  0
 12 13  1  0
 14 12  1  0
 15 23  1  0
 16 21  1  0
 17 18  1  0
 17 16  1  0
 19 18  1  0
 19 28  1  0
 19 20  1  0
 21 15  1  0
 21 20  1  0
 22 15  2  0
 23 24  1  0
 25 26  2  0
 26 45  1  0
 27 26  1  0
 27 30  1  0
 28 29  1  0
 28 25  1  0
 29 27  2  0
 30 31  1  0
 31 32  2  0
 33 36  1  0
 33 32  1  0
 34 33  2  0
 35 34  1  0
 35 30  2  0
 36 37  1  0
 37 38  1  0
 38 39  2  0
 40 39  1  0
 40 44  1  0
 41 40  2  0
 42 37  2  0
 42 41  1  0
 43 42  1  0
 45 46  1  0
 46 49  1  0
 46 48  1  0
 47 45  2  0
 50 51  1  0
 50 25  1  0
 52 50  1  0
 53 54  1  0
 55 54  1  0
 56 67  2  0
 57 55  1  0
 57 62  1  0
 58 66  1  0
 58 68  1  0
 59 65  1  0
 59 61  1  0
 60 66  1  0
 61 62  2  0
 61 60  1  0
 63 57  2  0
 64 63  1  0
 64 59  2  0
 65 58  1  0
 66 56  1  0
 68 70  2  0
 69 68  1  0
 71 69  1  0
 72 81  2  0
 72 77  1  0
 73 69  1  0
 73 77  1  0
 74 73  1  0
 75 76  1  0
 75 74  1  0
 76 72  1  0
 77 78  2  0
 78 79  1  0
 80 79  2  0
 81 80  1  0
 82 56  1  0
 82 87  1  0
 82 83  1  0
 83 86  1  1
 83 84  1  0
 85 83  1  0
 87 90  1  0
 88 92  1  0
 88 87  1  0
 89 88  2  0
 92 91  1  0
 94 92  1  0
 94 95  1  0
 94 93  1  0
M  ISO  4  15 100  23 100  54 101  55 101
M  END
>  <TORSDO>  (1) 
F 19

>  <SCORE>  (1) 
-13.383

>  <name>  (1) 
0

>  <ligand_id>  (1) 
0

>  <original_smiles>  (1) 
[H]c1c([H])c([H])c2c(c1[H])C([H])([H])C([H])([H])C([H])([H])C2([H])N([H])C(=O)C1([H])N(C(=O)C([H])(N([H])C(=O)C([H])(N([H])C([H])([H])[H])C([H])([H])[H])C(C([H])([H])[H])(C([H])([H])[H])C([H])([H])[H])C([H])([H])c2c([H])c(OC([H])([H])C([H])([H])[N+]3([H])C([H])([H])C([H])([H])C([H])(C([H])([H])[H])C([H])(n4c([H])c([H])c(N([H])C(=O)N5C([H])([H])C([H])([H])C([H])([H])C([H])(n6nc(-c7c([H])c([H])c(Oc8c([H])c([H])c(F)c([H])c8F)c([H])c7[H])c(C(=O)N([H])[H])c6N([H])[H])C5([H])[H])c4C([H])([H])[H])C3([H])[H])c([H])c([H])c2C1([H])[H]

>  <smiles>  (1) 
[H]c1c([H])c([H])c2c(c1[H])C([H])([H])C([H])([H])C([H])([H])C2([H])N([H])C(=O)C1([H])N(C(=O)C([H])(N([H])C(=O)C([H])(N([H])C([H])([H])[H])C([H])([H])[H])C(C([H])([H])[H])(C([H])([H])[H])C([H])([H])[H])C([H])([H])c2c([H])c(OC([H])([H])C([H])([H])[N+]3([H])C([H])([H])C([H])([H])C([H])(C([H])([H])[H])C([H])(n4c([H])c([H])c(N([H])C(=O)N5C([H])([H])C([H])([H])C([H])([H])C([H])(n6nc(-c7c([H])c([H])c(Oc8c([H])c([H])c(F)c([H])c8F)c([H])c7[H])c(C(=O)N([H])[H])c6N([H])[H])C5([H])[H])c4C([H])([H])[H])C3([H])[H])c([H])c([H])c2C1([H])[H]

$$$$
1:0:0
     RDKit          3D

106108  0  0  1  0  0  0  0  0999 V2000
  -19.4620  -24.8560   18.9480 C   0  0  0  0  0  3  0  0  0  0  0  0
  -20.9970  -25.1340   19.4610 C   0  0  0  0  0  1  0  0  0  0  0  0
  -20.5460  -26.5010   21.5090 C   0  0  0  0  0  2  0  0  0  0  0  0
  -18.9760  -26.2240   22.3500 C   0  0  0  0  0  0  0  0  0  0  0  0
  -17.7850  -25.3250   21.4490 C   0  0  0  0  0  0  0  0  0  0  0  0
  -18.0460  -24.8190   19.8430 C   0  0  0  0  0  0  0  0  0  0  0  0
  -16.4160  -24.9640   22.0140 C   0  0  0  0  0  1  0  0  0  0  0  0
  -27.7640  -18.0980   19.5990 C   0  0  0  0  0  2  0  0  0  0  0  0
  -29.5710  -15.4960   18.9940 C   0  0  0  0  0  2  0  0  0  0  0  0
  -29.4650  -14.0770   18.1740 C   0  0  0  0  0  2  0  0  0  0  0  0
  -28.3550  -13.1740   18.6930 C   0  0  0  0  0  2  0  0  0  0  0  0
  -27.4280  -14.1570   19.3820 C   0  0  0  0  0  3  0  0  0  0  0  0
  -27.9990  -15.1890   20.3890 C   0  0  0  0  0  2  0  0  0  0  0  0
  -28.2480  -16.4330   19.5450 N   0  0  0  0  0  0  0  0  0  0  0  0
  -29.1090  -18.1600   19.6210 O   0  0  0  0  0  1  0  0  0  0  0  0
  -24.6510  -21.2150   20.0120 C   0  0  0  0  0 15  0  0  0  0  0  0
  -24.8700  -21.8140   17.7440 C   0  0  0  0  0  2  0  0  0  0  0  0
  -22.9240  -23.1570   19.3020 C   0  0  0  0  0  1  0  0  0  0  0  0
  -25.5750  -20.1970   18.0980 C   0  0  0  0  0  3  0  0  0  0  0  0
  -26.5030  -19.8850   16.9150 C   0  0  0  0  0  1  0  0  0  0  0  0
  -26.2200  -19.5350   19.4600 N   0  0  0  0  0  1  0  0  0  0  0  0
  -23.3380  -22.3690   17.9920 N   0  0  1  0  0  4  0  0  0  0  0  0
  -22.8470  -21.4970   18.1280 H   0  0  0  0  0  0  0  0  0  0  0  0
  -25.2120  -14.6190   20.2190 C   0  0  0  0  0  0  0  0  0  0  0  0
  -24.1820  -13.8400   20.6020 C   0  0  0  0  0  0  0  0  0  0  0  0
  -24.6260  -12.4900   20.4390 C   0  0  0  0  0  0  0  0  0  0  0  0
  -26.1960  -13.7320   19.8670 N   0  0  0  0  0  0  0  0  0  0  0  0
  -25.8940  -12.4360   20.0540 N   0  0  0  0  0  0  0  0  0  0  0  0
  -23.8790  -11.2540   20.5410 C   0  0  0  0  0  0  0  0  0  0  0  0
  -24.3260  -10.1870   21.3460 C   0  0  0  0  0  3  0  0  0  0  0  0
  -23.5580   -9.0090   21.4330 C   0  0  0  0  0  3  0  0  0  0  0  0
  -22.3440   -8.9030   20.7170 C   0  0  0  0  0  0  0  0  0  0  0  0
  -21.9250   -9.9630   19.8970 C   0  0  0  0  0  3  0  0  0  0  0  0
  -22.6900  -11.1310   19.8040 C   0  0  0  0  0  3  0  0  0  0  0  0
  -21.5410   -7.7900   20.7310 O   0  0  0  0  0  0  0  0  0  0  0  0
  -21.4720   -6.9760   21.8310 C   0  0  0  0  0  0  0  0  0  0  0  0
  -21.1690   -7.4810   23.1130 C   0  0  0  0  0  3  0  0  0  0  0  0
  -21.0320   -6.5980   24.2030 C   0  0  0  0  0  3  0  0  0  0  0  0
  -21.1940   -5.2120   24.0100 C   0  0  0  0  0  0  0  0  0  0  0  0
  -21.4920   -4.7080   22.7310 C   0  0  0  0  0  3  0  0  0  0  0  0
  -21.6280   -5.5880   21.6450 C   0  0  0  0  0  0  0  0  0  0  0  0
  -21.8940   -5.0950   20.4090 F   0  0  0  0  0  0  0  0  0  0  0  0
  -21.0580   -4.3640   25.0550 F   0  0  0  0  0  0  0  0  0  0  0  0
  -22.8360  -14.3640   20.9660 C   0  0  0  0  0  0  0  0  0  0  0  0
  -22.1370  -13.6610   21.8430 N   0  0  0  0  0  0  0  0  0  0  0  0
  -22.4380  -15.4460   20.5270 O   0  0  0  0  0  0  0  0  0  0  0  0
  -22.5030  -12.8050   22.2270 H   0  0  0  0  0  0  0  0  0  0  0  0
  -21.2330  -13.9860   22.1630 H   0  0  0  0  0  0  0  0  0  0  0  0
  -25.3680  -15.9980   20.0990 N   0  0  0  0  0  0  0  0  0  0  0  0
  -24.4570  -16.4460   20.0390 H   0  0  0  0  0  0  0  0  0  0  0  0
  -25.9650  -16.2700   19.3310 H   0  0  0  0  0  0  0  0  0  0  0  0
  -22.8620  -22.0660   15.5420 C   0  0  0  0  0  1  0  0  0  0  0  0
  -23.1410  -24.4060   16.5730 C   0  0  0  0  0  1  0  0  0  0  0  0
  -22.6890  -22.9490   16.7920 C   0  0  0  0  0  3  0  0  0  0  0  0
  -16.8740  -24.6160   17.7360 C   0  0  0  0  0  1  0  0  0  0  0  0
  -16.9070  -24.4100   19.1620 O   0  0  0  0  0  0  0  0  0  0  0  0
  -18.6960  -26.4370   23.8350 C   0  0  0  0  0  2  0  0  0  0  0  0
  -16.7260  -26.7670   25.6080 C   0  0  0  0  0  2  0  0  0  0  0  0
  -16.2650  -27.6660   24.4910 C   0  0  0  0  0  2  0  0  0  0  0  0
  -17.1790  -26.4710   24.1940 C   0  0  0  0  0  3  0  0  0  0  0  0
  -22.0810  -27.1570   22.5450 C   0  0  0  0  0  2  0  0  0  0  0  0
  -23.2460  -26.5370   24.8780 C   0  0  0  0  0  2  0  0  0  0  0  0
  -22.1020  -27.4110   25.2850 C   0  0  0  0  0  2  0  0  0  0  0  0
  -22.0070  -26.5980   23.9940 C   0  0  0  0  0  3  0  0  0  0  0  0
  -24.0270  -27.2890   22.1080 C   0  0  0  0  0  1  0  0  0  0  0  0
  -25.3850  -27.8280   21.1160 O   0  0  0  0  0  0  0  0  0  0  0  0
  -25.0320  -29.7930   26.5330 C   0  0  0  0  0  0  0  0  0  0  0  0
  -26.5660  -28.5970   21.3840 C   0  0  0  0  0  3  0  0  0  0  0  0
  -24.7890  -31.0520   24.4410 C   0  0  0  0  0  3  0  0  0  0  0  0
  -26.4450  -30.9640   22.5900 C   0  0  0  0  0  3  0  0  0  0  0  0
  -26.9460  -29.9810   24.8680 C   0  0  0  0  0  2  0  0  0  0  0  0
  -27.0060  -29.8970   23.3300 C   0  0  0  0  0  3  0  0  0  0  0  0
  -27.1350  -28.6630   22.6750 C   0  0  0  0  0  2  0  0  0  0  0  0
  -26.6650  -29.7100   20.5390 C   0  0  0  0  0  2  0  0  0  0  0  0
  -26.3850  -30.9220   21.1790 C   0  0  0  0  0  2  0  0  0  0  0  0
  -25.5860  -31.9000   23.4000 C   0  0  0  0  0  2  0  0  0  0  0  0
  -25.5940  -30.3080   25.4010 N   0  0  0  0  0  0  0  0  0  0  0  0
  -23.9240  -30.1740   26.9480 O   0  0  0  0  0  0  0  0  0  0  0  0
  -23.4060  -30.6230   24.1300 C   0  0  0  0  0  0  0  0  0  0  0  0
  -23.0190  -31.1350   22.9940 N   0  0  0  0  0  4  0  0  0  0  0  0
  -22.8500  -29.6920   24.7280 O   0  0  0  0  0  0  0  0  0  0  0  0
  -23.5990  -31.8550   22.6000 H   0  0  0  0  0  0  0  0  0  0  0  0
  -19.8940  -29.6090   21.4950 C   0  0  0  0  0  3  0  0  0  0  0  0
  -22.3260  -30.3420   22.0800 C   0  0  0  0  0  0  0  0  0  0  0  0
  -23.1640  -29.9210   20.3540 C   0  0  0  0  0  1  0  0  0  0  0  0
  -22.8740  -27.9060   19.1810 C   0  0  0  0  0 15  0  0  0  0  0  0
  -20.5720  -27.4970   19.3840 C   0  0  0  0  0 15  0  0  0  0  0  0
  -20.8380  -30.1020   22.6240 C   0  0  0  0  0  0  0  0  0  0  0  0
  -20.6960  -30.2090   24.1410 C   0  0  0  0  0  3  0  0  0  0  0  0
  -19.5190  -30.1500   24.9050 C   0  0  0  0  0  3  0  0  0  0  0  0
  -18.4560  -30.0130   24.0190 C   0  0  0  0  0  3  0  0  0  0  0  0
  -18.6570  -29.7570   22.5390 C   0  0  0  0  0  3  0  0  0  0  0  0
  -25.7880  -28.7650   27.3970 C   0  0  0  0  0  3  0  0  0  0  0  0
  -26.5850  -29.5280   28.3650 N   0  0  0  0  0  0  0  0  0  0  0  0
  -27.9250  -29.5050   28.3980 C   0  0  0  0  0  0  0  0  0  0  0  0
  -28.5980  -28.7620   27.6750 O   0  0  0  0  0  0  0  0  0  0  0  0
  -26.1010  -30.2160   28.9300 H   0  0  0  0  0  0  0  0  0  0  0  0
  -29.4530  -31.4860   28.6490 C   0  0  0  0  0  1  0  0  0  0  0  0
  -28.6180  -30.4380   29.4030 C   0  0  0  0  0  3  0  0  0  0  0  0
  -28.7220  -28.9050   31.3120 C   0  0  0  0  0  1  0  0  0  0  0  0
  -29.4780  -29.7150   30.3630 N   0  0  0  0  0  0  0  0  0  0  0  0
  -30.0440  -30.3700   30.8940 H   0  0  0  0  0  0  0  0  0  0  0  0
  -24.8380  -27.7480   28.1340 C   0  0  1  0  0  0  0  0  0  0  0  0
  -23.6900  -28.4050   28.9370 C   0  0  0  0  0  1  0  0  0  0  0  0
  -24.2130  -26.7750   27.1130 C   0  0  0  0  0  1  0  0  0  0  0  0
  -25.6780  -26.8900   29.1140 C   0  0  0  0  0  1  0  0  0  0  0  0
  1  2  1  0
  1  6  2  0
  3  4  1  0
  3 61  1  0
  4 57  1  0
  5  7  1  0
  5  4  2  0
  6  5  1  0
  8 15  1  0
  9 14  1  0
 10 11  1  0
 10  9  1  0
 12 11  1  0
 12 27  1  0
 12 13  1  0
 14  8  1  0
 14 13  1  0
 17 22  1  0
 17 19  1  0
 19 20  1  0
 19 21  1  0
 22 23  1  1
 22 18  1  0
 24 25  2  0
 25 44  1  0
 26 29  1  0
 26 25  1  0
 27 28  1  0
 27 24  1  0
 28 26  2  0
 29 30  1  0
 30 31  2  0
 32 35  1  0
 32 31  1  0
 33 32  2  0
 34 33  1  0
 34 29  2  0
 35 36  1  0
 36 37  1  0
 37 38  2  0
 39 38  1  0
 39 43  1  0
 40 39  2  0
 41 36  2  0
 41 40  1  0
 42 41  1  0
 44 45  1  0
 45 48  1  0
 45 47  1  0
 46 44  2  0
 49 24  1  0
 50 49  1  0
 51 49  1  0
 52 54  1  0
 53 54  1  0
 54 22  1  0
 55 56  1  0
 56  6  1  0
 57 60  1  0
 59 58  1  0
 60 59  1  0
 60 58  1  0
 61 64  1  0
 62 63  1  0
 64 62  1  0
 64 63  1  0
 66 65  1  0
 67 78  2  0
 68 66  1  0
 68 73  1  0
 69 79  1  0
 69 77  1  0
 70 75  1  0
 70 72  1  0
 70 76  1  0
 71 77  1  0
 72 73  1  0
 72 71  1  0
 74 75  1  0
 74 68  1  0
 76 69  1  0
 77 67  1  0
 79 81  2  0
 80 79  1  0
 82 80  1  0
 83 92  2  0
 83 88  1  0
 84 88  1  0
 84 80  2  0
 85 84  1  0
 88 89  2  0
 89 90  1  0
 91 90  2  0
 92 91  1  0
 93 67  1  0
 93103  1  0
 93 94  1  0
 94 95  1  0
 94 97  1  0
 95 99  1  0
 96 95  2  0
 99 98  1  0
 99101  1  0
101102  1  0
101100  1  0
103104  1  1
103106  1  0
105103  1  0
M  ISO  4   8 100  21 100  65 101  66 101
M  END
>  <TORSDO>  (2) 
F 23

>  <SCORE>  (2) 
5.906

>  <name>  (2) 
1

>  <ligand_id>  (2) 
1

>  <original_smiles>  (2) 
[H]c1c([H])c([H])c2c(c1[H])C([H])([H])C([H])([H])C([H])([H])C2([H])N([H])C(=O)C1([H])N(C(=O)C([H])(N([H])C(=O)C([H])(N([H])C([H])([H])[H])C([H])([H])[H])C(C([H])([H])[H])(C([H])([H])[H])C([H])([H])[H])C([H])([H])c2c([H])c(OC([H])([H])C([H])(c3c(C([H])([H])C4([H])C([H])([H])C4([H])[H])c(C([H])([H])[H])c(OC([H])([H])[H])c([H])c3C3([H])C([H])([H])N(C(=O)N4C([H])([H])C([H])([H])C([H])([H])C([H])(n5nc(-c6c([H])c([H])c(Oc7c([H])c([H])c(F)c([H])c7F)c([H])c6[H])c(C(=O)N([H])[H])c5N([H])[H])C4([H])[H])C([H])(C([H])([H])[H])C([H])([H])[N+]3([H])C([H])(C([H])([H])[H])C([H])([H])[H])C3([H])C([H])([H])C3([H])[H])c([H])c([H])c2C1([H])[H]

>  <smiles>  (2) 
[H]c1c([H])c([H])c2c(c1[H])C([H])([H])C([H])([H])C([H])([H])C2([H])N([H])C(=O)C1([H])N(C(=O)C([H])(N([H])C(=O)C([H])(N([H])C([H])([H])[H])C([H])([H])[H])C(C([H])([H])[H])(C([H])([H])[H])C([H])([H])[H])C([H])([H])c2c([H])c(OC([H])([H])C([H])(c3c(C([H])([H])C4([H])C([H])([H])C4([H])[H])c(C([H])([H])[H])c(OC([H])([H])[H])c([H])c3C3([H])C([H])([H])N(C(=O)N4C([H])([H])C([H])([H])C([H])([H])C([H])(n5nc(-c6c([H])c([H])c(Oc7c([H])c([H])c(F)c([H])c7F)c([H])c6[H])c(C(=O)N([H])[H])c5N([H])[H])C4([H])[H])C([H])(C([H])([H])[H])C([H])([H])[N+]3([H])C([H])(C([H])([H])[H])C([H])([H])[H])C3([H])C([H])([H])C3([H])[H])c([H])c([H])c2C1([H])[H]

$$$$
2:0:0
     RDKit          3D

 93102  0  0  1  0  0  0  0  0999 V2000
  -27.1340  -22.0420   19.9420 C   0  0  0  0  0  0  0  0  0  0  0  0
  -28.4520  -22.4680   20.2940 C   0  0  0  0  0  0  0  0  0  0  0  0
  -27.2160  -20.6900   19.7110 C   0  0  0  0  0  0  0  0  0  0  0  0
  -25.8930  -22.8960   19.8600 C   0  0  0  0  0  1  0  0  0  0  0  0
  -26.1270  -19.7520   19.2750 C   0  0  0  0  0  1  0  0  0  0  0  0
  -29.2780  -21.3770   20.2780 N   0  0  0  0  0  0  0  0  0  0  0  0
  -28.5210  -20.2630   19.9310 N   0  0  0  0  0  0  0  0  0  0  0  0
  -30.8160  -14.7130   19.7720 C   0  0  0  0  0  0  0  0  0  0  0  0
  -30.3860  -12.4880   18.7230 C   0  0  0  0  0  2  0  0  0  0  0  0
  -29.3560  -12.6120   17.5790 C   0  0  0  0  0  2  0  0  0  0  0  0
  -27.9340  -12.4360   18.1410 C   0  0  0  0  0  2  0  0  0  0  0  0
  -27.6840  -13.3260   19.3860 C   0  0  0  0  0  3  0  0  0  0  0  0
  -28.8340  -13.2110   20.4120 C   0  0  0  0  0  2  0  0  0  0  0  0
  -30.0720  -13.5540   19.7070 N   0  0  0  0  0  0  0  0  0  0  0  0
  -31.9770  -14.6630   19.3520 O   0  0  0  0  0  0  0  0  0  0  0  0
  -28.9870  -17.9590   21.0860 C   0  0  0  0  0  2  0  0  0  0  0  0
  -30.4200  -18.5960   19.2270 C   0  0  0  0  0  3  0  0  0  0  0  0
  -29.1350  -16.4090   20.8110 C   0  0  0  0  0  2  0  0  0  0  0  0
  -30.9320  -17.1040   19.1780 C   0  0  0  0  0  3  0  0  0  0  0  0
  -29.0170  -18.8260   19.8020 C   0  0  0  0  0  3  0  0  0  0  0  0
  -30.2260  -15.9790   19.8870 N   0  0  0  0  0  0  0  0  0  0  0  0
  -25.4050  -13.9390   20.3730 C   0  0  0  0  0  0  0  0  0  0  0  0
  -24.3620  -13.1740   20.8160 C   0  0  0  0  0  0  0  0  0  0  0  0
  -24.7840  -11.8160   20.6800 C   0  0  0  0  0  0  0  0  0  0  0  0
  -26.3920  -13.0480   19.9950 N   0  0  0  0  0  0  0  0  0  0  0  0
  -26.0350  -11.7620   20.2410 N   0  0  0  0  0  0  0  0  0  0  0  0
  -24.0470  -10.5650   20.8800 C   0  0  0  0  0  0  0  0  0  0  0  0
  -24.4800   -9.5900   21.8060 C   0  0  0  0  0  3  0  0  0  0  0  0
  -23.7400   -8.4010   21.9960 C   0  0  0  0  0  3  0  0  0  0  0  0
  -22.5570   -8.1780   21.2510 C   0  0  0  0  0  0  0  0  0  0  0  0
  -22.1440   -9.1430   20.3150 C   0  0  0  0  0  3  0  0  0  0  0  0
  -22.8830  -10.3210   20.1270 C   0  0  0  0  0  3  0  0  0  0  0  0
  -21.7910   -7.0430   21.3440 O   0  0  0  0  0  0  0  0  0  0  0  0
  -21.6550   -6.3650   22.5290 C   0  0  0  0  0  0  0  0  0  0  0  0
  -21.1290   -6.9830   23.6840 C   0  0  0  0  0  3  0  0  0  0  0  0
  -20.9400   -6.2300   24.8610 C   0  0  0  0  0  3  0  0  0  0  0  0
  -21.2670   -4.8600   24.8830 C   0  0  0  0  0  0  0  0  0  0  0  0
  -21.7880   -4.2430   23.7310 C   0  0  0  0  0  3  0  0  0  0  0  0
  -21.9770   -4.9940   22.5570 C   0  0  0  0  0  0  0  0  0  0  0  0
  -22.4560   -4.3870   21.4440 F   0  0  0  0  0  0  0  0  0  0  0  0
  -21.0810   -4.1360   26.0110 F   0  0  0  0  0  0  0  0  0  0  0  0
  -23.0150  -13.6720   21.2480 C   0  0  0  0  0  0  0  0  0  0  0  0
  -22.3630  -12.9610   22.1590 N   0  0  0  0  0  0  0  0  0  0  0  0
  -22.5540  -14.7270   20.8170 O   0  0  0  0  0  0  0  0  0  0  0  0
  -22.7490  -12.1020   22.5230 H   0  0  0  0  0  0  0  0  0  0  0  0
  -21.4730  -13.2900   22.5110 H   0  0  0  0  0  0  0  0  0  0  0  0
  -25.5920  -15.3110   20.2300 N   0  0  0  0  0  0  0  0  0  0  0  0
  -24.8740  -15.9870   20.4630 H   0  0  0  0  0  0  0  0  0  0  0  0
  -26.3960  -15.7180   19.7710 H   0  0  0  0  0  0  0  0  0  0  0  0
  -30.2200  -23.9540   21.4490 C   0  0  0  0  0  1  0  0  0  0  0  0
  -28.8490  -23.9310   20.7510 C   0  0  0  0  0  3  0  0  0  0  0  0
  -28.7580  -25.1500   19.7150 C   0  0  0  0  0  2  0  0  0  0  0  0
  -28.6090  -26.5440   20.2430 O   0  0  0  0  0  0  0  0  0  0  0  0
  -24.4930  -31.6950   23.1950 C   0  0  0  0  0  0  0  0  0  0  0  0
  -27.4250  -27.3030   20.1590 C   0  0  0  0  0  0  0  0  0  0  0  0
  -23.4150  -30.2720   21.4880 C   0  0  0  0  0  3  0  0  0  0  0  0
  -24.9870  -28.8120   20.0940 C   0  0  0  0  0  0  0  0  0  0  0  0
  -25.9440  -30.7040   21.4090 C   0  0  0  0  0  2  0  0  0  0  0  0
  -26.1090  -29.3420   20.7420 C   0  0  0  0  0  0  0  0  0  0  0  0
  -27.3250  -28.5960   20.7670 C   0  0  0  0  0  3  0  0  0  0  0  0
  -26.2770  -26.8350   19.4800 C   0  0  0  0  0  3  0  0  0  0  0  0
  -25.0740  -27.5660   19.4550 C   0  0  0  0  0  3  0  0  0  0  0  0
  -23.7100  -29.6260   20.1090 C   0  0  0  0  0  2  0  0  0  0  0  0
  -24.6320  -30.9090   22.0860 N   0  0  0  0  0  0  0  0  0  0  0  0
  -23.3800  -31.9180   23.6910 O   0  0  0  0  0  0  0  0  0  0  0  0
  -22.7640  -29.2130   22.4090 C   0  0  0  0  0  0  0  0  0  0  0  0
  -21.4490  -28.9890   22.2420 N   0  0  0  0  0  0  0  0  0  0  0  0
  -23.4420  -28.5940   23.2320 O   0  0  0  0  0  0  0  0  0  0  0  0
  -20.9630  -29.5400   21.5510 H   0  0  0  0  0  0  0  0  0  0  0  0
  -18.0970  -27.6890   22.6510 C   0  0  0  0  0  0  0  0  0  0  0  0
  -20.6420  -28.0100   22.9720 C   0  0  0  0  0  3  0  0  0  0  0  0
  -20.7940  -26.5990   22.3630 C   0  0  0  0  0  2  0  0  0  0  0  0
  -19.7190  -26.2710   21.3200 C   0  0  0  0  0  2  0  0  0  0  0  0
  -18.3230  -26.3610   21.9450 C   0  0  0  0  0  2  0  0  0  0  0  0
  -19.1870  -28.4700   23.1220 C   0  0  0  0  0  0  0  0  0  0  0  0
  -18.9220  -29.7090   23.7460 C   0  0  0  0  0  3  0  0  0  0  0  0
  -17.6040  -30.1660   23.9070 C   0  0  0  0  0  3  0  0  0  0  0  0
  -16.5280  -29.3840   23.4480 C   0  0  0  0  0  3  0  0  0  0  0  0
  -16.7740  -28.1480   22.8250 C   0  0  0  0  0  3  0  0  0  0  0  0
  -25.7230  -32.3730   23.8760 C   0  0  0  0  0  3  0  0  0  0  0  0
  -25.3480  -33.7590   24.1920 N   0  0  0  0  0  0  0  0  0  0  0  0
  -25.6680  -34.8250   23.4450 C   0  0  0  0  0  0  0  0  0  0  0  0
  -26.3780  -34.7470   22.4390 O   0  0  0  0  0  0  0  0  0  0  0  0
  -24.7150  -33.8900   24.9670 H   0  0  0  0  0  0  0  0  0  0  0  0
  -23.8770  -36.5440   23.0410 C   0  0  0  0  0  1  0  0  0  0  0  0
  -25.1130  -36.1940   23.8840 C   0  0  0  0  0  3  0  0  0  0  0  0
  -27.1830  -37.1690   24.7720 C   0  0  0  0  0  1  0  0  0  0  0  0
  -26.1060  -37.2870   23.7950 N   0  0  0  0  0  0  0  0  0  0  0  0
  -25.6570  -38.1890   23.9240 H   0  0  0  0  0  0  0  0  0  0  0  0
  -26.2080  -31.6210   25.1760 C   0  0  1  0  0  0  0  0  0  0  0  0
  -25.0720  -31.3490   26.1890 C   0  0  0  0  0  1  0  0  0  0  0  0
  -26.8590  -30.2660   24.8170 C   0  0  0  0  0  1  0  0  0  0  0  0
  -27.2980  -32.4560   25.8890 C   0  0  0  0  0  1  0  0  0  0  0  0
  1  2  1  0
  2 51  1  0
  3  7  1  0
  3  1  2  0
  4  1  1  0
  5  3  1  0
  6  2  2  0
  7  6  1  0
  8 21  1  0
  9 14  1  0
 10 11  1  0
 10  9  1  0
 12 11  1  0
 12 25  1  0
 12 13  1  0
 14  8  1  0
 14 13  1  0
 15  8  2  0
 18 16  1  0
 19 17  2  0
 19 21  1  0
 20 17  1  0
 20  7  1  0
 20 16  1  0
 21 18  1  0
 22 23  2  0
 23 42  1  0
 24 23  1  0
 24 27  1  0
 25 26  1  0
 25 22  1  0
 26 24  2  0
 27 28  1  0
 28 29  2  0
 30 33  1  0
 30 29  1  0
 31 30  2  0
 32 31  1  0
 32 27  2  0
 33 34  1  0
 34 39  2  0
 34 35  1  0
 35 36  2  0
 36 37  1  0
 37 41  1  0
 38 37  2  0
 39 38  1  0
 40 39  1  0
 42 43  1  0
 43 46  1  0
 43 45  1  0
 44 42  2  0
 47 22  1  0
 47 48  1  0
 49 47  1  0
 51 50  1  0
 52 53  1  0
 52 51  1  0
 54 65  2  0
 55 53  1  0
 55 60  1  0
 56 64  1  0
 56 66  1  0
 57 63  1  0
 57 59  1  0
 58 64  1  0
 59 60  2  0
 59 58  1  0
 61 55  2  0
 62 61  1  0
 62 57  2  0
 63 56  1  0
 64 54  1  0
 66 68  2  0
 67 66  1  0
 69 67  1  0
 70 79  2  0
 70 75  1  0
 71 67  1  0
 71 75  1  0
 72 71  1  0
 73 74  1  0
 73 72  1  0
 74 70  1  0
 75 76  2  0
 76 77  1  0
 78 77  2  0
 79 78  1  0
 80 54  1  0
 80 81  1  0
 80 90  1  0
 81 84  1  0
 82 86  1  0
 82 81  1  0
 83 82  2  0
 86 85  1  0
 88 86  1  0
 88 89  1  0
 88 87  1  0
 90 93  1  1
 90 91  1  0
 92 90  1  0
M  ISO  4   8 100  21 100  52 101  53 101
M  END
>  <TORSDO>  (3) 
F 18

>  <SCORE>  (3) 
-13.023

>  <name>  (3) 
2

>  <ligand_id>  (3) 
2

>  <original_smiles>  (3) 
[H]c1c([H])c([H])c2c(c1[H])C([H])([H])C([H])([H])C([H])([H])C2([H])N([H])C(=O)C1([H])N(C(=O)C([H])(N([H])C(=O)C([H])(N([H])C([H])([H])[H])C([H])([H])[H])C(C([H])([H])[H])(C([H])([H])[H])C([H])([H])[H])C([H])([H])c2c([H])c(OC([H])([H])C([H])(c3nn(C4([H])C([H])([H])C([H])([H])N(C(=O)N5C([H])([H])C([H])([H])C([H])([H])C([H])(n6nc(-c7c([H])c([H])c(Oc8c([H])c([H])c(F)c([H])c8F)c([H])c7[H])c(C(=O)N([H])[H])c6N([H])[H])C5([H])[H])C([H])([H])C4([H])[H])c(C([H])([H])[H])c3C([H])([H])[H])C([H])([H])[H])c([H])c([H])c2C1([H])[H]

>  <smiles>  (3) 
[H]c1c([H])c([H])c2c(c1[H])C([H])([H])C([H])([H])C([H])([H])C2([H])N([H])C(=O)C1([H])N(C(=O)C([H])(N([H])C(=O)C([H])(N([H])C([H])([H])[H])C([H])([H])[H])C(C([H])([H])[H])(C([H])([H])[H])C([H])([H])[H])C([H])([H])c2c([H])c(OC([H])([H])C([H])(c3nn(C4([H])C([H])([H])C([H])([H])N(C(=O)N5C([H])([H])C([H])([H])C([H])([H])C([H])(n6nc(-c7c([H])c([H])c(Oc8c([H])c([H])c(F)c([H])c8F)c([H])c7[H])c(C(=O)N([H])[H])c6N([H])[H])C5([H])[H])C([H])([H])C4([H])[H])c(C([H])([H])[H])c3C([H])([H])[H])C([H])([H])[H])c([H])c([H])c2C1([H])[H]

$$$$
3:0:0
     RDKit          3D

100110  0  0  1  0  0  0  0  0999 V2000
  -30.9480  -21.9820   22.1730 C   0  0  0  0  0  3  0  0  0  0  0  0
  -29.7040  -20.2350   20.4150 C   0  0  0  0  0  3  0  0  0  0  0  0
  -30.0310  -22.5200   21.2330 C   0  0  0  0  0  0  0  0  0  0  0  0
  -30.5380  -19.6920   21.4210 C   0  0  0  0  0  0  0  0  0  0  0  0
  -31.1780  -20.5960   22.3070 C   0  0  0  0  0  0  0  0  0  0  0  0
  -29.4110  -21.6180   20.3180 C   0  0  0  0  0  0  0  0  0  0  0  0
  -32.0930  -20.1500   23.4490 C   0  0  0  0  0  1  0  0  0  0  0  0
  -30.9220  -14.4820   19.6940 C   0  0  0  0  0  0  0  0  0  0  0  0
  -30.4470  -12.3530   18.5260 C   0  0  0  0  0  2  0  0  0  0  0  0
  -29.3670  -12.5680   17.4490 C   0  0  0  0  0  2  0  0  0  0  0  0
  -27.9530  -12.4160   18.0450 C   0  0  0  0  0  2  0  0  0  0  0  0
  -27.7760  -13.2410   19.3450 C   0  0  0  0  0  3  0  0  0  0  0  0
  -28.9550  -12.9620   20.3110 C   0  0  0  0  0  2  0  0  0  0  0  0
  -30.2070  -13.3190   19.6190 N   0  0  0  0  0  0  0  0  0  0  0  0
  -31.8480  -14.7110   18.9000 O   0  0  0  0  0  0  0  0  0  0  0  0
  -29.4170  -17.3740   21.0910 C   0  0  0  0  0  2  0  0  0  0  0  0
  -31.9030  -17.5260   20.9620 C   0  0  0  0  0  2  0  0  0  0  0  0
  -29.5160  -15.8540   21.2990 C   0  0  0  0  0  2  0  0  0  0  0  0
  -31.9510  -16.0210   21.3130 C   0  0  0  0  0  2  0  0  0  0  0  0
  -30.6500  -18.1610   21.5890 C   0  0  0  0  0  3  0  0  0  0  0  0
  -30.7810  -15.2910   20.7800 N   0  0  0  0  0  0  0  0  0  0  0  0
  -25.5100  -13.8760   20.4050 C   0  0  0  0  0  0  0  0  0  0  0  0
  -24.4690  -13.1090   20.8590 C   0  0  0  0  0  0  0  0  0  0  0  0
  -24.8630  -11.7500   20.6620 C   0  0  0  0  0  0  0  0  0  0  0  0
  -26.4800  -12.9830   19.9740 N   0  0  0  0  0  0  0  0  0  0  0  0
  -26.0990  -11.6940   20.1820 N   0  0  0  0  0  0  0  0  0  0  0  0
  -24.1230  -10.4980   20.8570 C   0  0  0  0  0  0  0  0  0  0  0  0
  -24.5050   -9.5580   21.8410 C   0  0  0  0  0  3  0  0  0  0  0  0
  -23.7680   -8.3680   22.0170 C   0  0  0  0  0  3  0  0  0  0  0  0
  -22.6310   -8.1140   21.2130 C   0  0  0  0  0  0  0  0  0  0  0  0
  -22.2720   -9.0400   20.2180 C   0  0  0  0  0  3  0  0  0  0  0  0
  -23.0110  -10.2230   20.0390 C   0  0  0  0  0  3  0  0  0  0  0  0
  -21.8640   -6.9760   21.3010 O   0  0  0  0  0  0  0  0  0  0  0  0
  -21.5920   -6.3810   22.5050 C   0  0  0  0  0  0  0  0  0  0  0  0
  -20.9230   -7.0670   23.5440 C   0  0  0  0  0  3  0  0  0  0  0  0
  -20.6020   -6.3970   24.7390 C   0  0  0  0  0  3  0  0  0  0  0  0
  -20.9380   -5.0380   24.8980 C   0  0  0  0  0  0  0  0  0  0  0  0
  -21.5970   -4.3500   23.8620 C   0  0  0  0  0  3  0  0  0  0  0  0
  -21.9220   -5.0210   22.6690 C   0  0  0  0  0  0  0  0  0  0  0  0
  -22.5400   -4.3460   21.6700 F   0  0  0  0  0  0  0  0  0  0  0  0
  -20.6210   -4.3900   26.0450 F   0  0  0  0  0  0  0  0  0  0  0  0
  -23.1380  -13.6070   21.3510 C   0  0  0  0  0  0  0  0  0  0  0  0
  -22.5300  -12.9050   22.3020 N   0  0  0  0  0  0  0  0  0  0  0  0
  -22.6510  -14.6520   20.9240 O   0  0  0  0  0  0  0  0  0  0  0  0
  -22.9420  -12.0640   22.6780 H   0  0  0  0  0  0  0  0  0  0  0  0
  -21.6390  -13.2190   22.6570 H   0  0  0  0  0  0  0  0  0  0  0  0
  -25.7020  -15.2500   20.3080 N   0  0  0  0  0  0  0  0  0  0  0  0
  -24.9780  -15.9120   20.5730 H   0  0  0  0  0  0  0  0  0  0  0  0
  -26.5130  -15.6970   19.9060 H   0  0  0  0  0  0  0  0  0  0  0  0
  -29.5690  -24.7580   19.9470 C   0  0  0  0  0  2  0  0  0  0  0  0
  -27.6550  -25.4010   21.2890 C   0  0  0  0  0  2  0  0  0  0  0  0
  -28.5890  -25.9330   20.1720 C   0  0  0  0  0  3  0  0  0  0  0  0
  -29.6290  -24.0230   21.3090 C   0  0  2  0  0  0  0  0  0  0  0  0
  -30.5570  -24.8270   22.2700 C   0  0  0  0  0  1  0  0  0  0  0  0
  -27.9580  -23.8040   23.1930 C   0  0  0  0  0  1  0  0  0  0  0  0
  -28.2220  -24.1200   21.7720 N   0  0  1  0  0  4  0  0  0  0  0  0
  -27.7760  -23.3880   21.2270 H   0  0  0  0  0  0  0  0  0  0  0  0
  -27.9630  -26.3890   18.9540 O   0  0  0  0  0  0  0  0  0  0  0  0
  -24.4370  -31.3590   22.7010 C   0  0  0  0  0  0  0  0  0  0  0  0
  -26.8640  -27.2140   19.0930 C   0  0  0  0  0  0  0  0  0  0  0  0
  -23.1410  -30.1820   20.9560 C   0  0  0  0  0  3  0  0  0  0  0  0
  -24.5150  -28.7670   19.3310 C   0  0  0  0  0  0  0  0  0  0  0  0
  -25.6680  -30.4960   20.7120 C   0  0  0  0  0  2  0  0  0  0  0  0
  -25.7010  -29.1940   19.9390 C   0  0  0  0  0  0  0  0  0  0  0  0
  -26.8820  -28.4200   19.8280 C   0  0  0  0  0  3  0  0  0  0  0  0
  -25.6700  -26.8140   18.4630 C   0  0  0  0  0  3  0  0  0  0  0  0
  -24.4920  -27.5720   18.5920 C   0  0  0  0  0  3  0  0  0  0  0  0
  -23.2960  -29.6490   19.5060 C   0  0  0  0  0  2  0  0  0  0  0  0
  -24.4360  -30.6850   21.5180 N   0  0  0  0  0  0  0  0  0  0  0  0
  -23.3780  -31.5950   23.3030 O   0  0  0  0  0  0  0  0  0  0  0  0
  -22.4930  -29.0770   21.8190 C   0  0  0  0  0  0  0  0  0  0  0  0
  -21.1520  -29.0200   21.8120 N   0  0  0  0  0  0  0  0  0  0  0  0
  -23.1900  -28.2820   22.4560 O   0  0  0  0  0  0  0  0  0  0  0  0
  -20.6470  -29.7070   21.2680 H   0  0  0  0  0  0  0  0  0  0  0  0
  -17.7550  -28.1480   22.6760 C   0  0  0  0  0  0  0  0  0  0  0  0
  -20.3350  -28.0410   22.5230 C   0  0  0  0  0  3  0  0  0  0  0  0
  -20.1240  -26.7690   21.6700 C   0  0  0  0  0  2  0  0  0  0  0  0
  -18.8450  -26.8010   20.8310 C   0  0  0  0  0  2  0  0  0  0  0  0
  -17.6180  -26.9680   21.7290 C   0  0  0  0  0  2  0  0  0  0  0  0
  -19.0310  -28.6620   23.0350 C   0  0  0  0  0  0  0  0  0  0  0  0
  -19.0980  -29.7830   23.8910 C   0  0  0  0  0  3  0  0  0  0  0  0
  -17.9270  -30.3870   24.3850 C   0  0  0  0  0  3  0  0  0  0  0  0
  -16.6680  -29.8700   24.0320 C   0  0  0  0  0  3  0  0  0  0  0  0
  -16.5840  -28.7480   23.1860 C   0  0  0  0  0  3  0  0  0  0  0  0
  -25.7620  -31.8860   23.3430 C   0  0  0  0  0  3  0  0  0  0  0  0
  -25.4890  -33.2250   23.8770 N   0  0  0  0  0  0  0  0  0  0  0  0
  -25.8960  -34.3660   23.3010 C   0  0  0  0  0  0  0  0  0  0  0  0
  -26.6020  -34.3930   22.2910 O   0  0  0  0  0  0  0  0  0  0  0  0
  -24.8600  -33.2820   24.6630 H   0  0  0  0  0  0  0  0  0  0  0  0
  -24.2710  -36.2830   23.1440 C   0  0  0  0  0  1  0  0  0  0  0  0
  -25.4390  -35.6860   23.9490 C   0  0  0  0  0  3  0  0  0  0  0  0
  -27.5510  -36.3120   25.0350 C   0  0  0  0  0  1  0  0  0  0  0  0
  -26.5220  -36.6860   24.0690 N   0  0  0  0  0  0  0  0  0  0  0  0
  -26.1410  -37.5890   24.3370 H   0  0  0  0  0  0  0  0  0  0  0  0
  -26.3240  -30.9360   24.4710 C   0  0  1  0  0  0  0  0  0  0  0  0
  -25.2810  -30.5690   25.5510 C   0  0  0  0  0  1  0  0  0  0  0  0
  -26.8590  -29.6160   23.8660 C   0  0  0  0  0  1  0  0  0  0  0  0
  -27.5200  -31.6150   25.1780 C   0  0  0  0  0  1  0  0  0  0  0  0
  -27.7300  -21.1870   18.6000 C   0  0  0  0  0  1  0  0  0  0  0  0
  -28.5010  -22.1060   19.3920 O   0  0  0  0  0  0  0  0  0  0  0  0
  1  5  1  0
  2  4  1  0
  3 53  1  0
  3  1  2  0
  4  5  2  0
  5  7  1  0
  6  2  2  0
  6  3  1  0
  8 21  1  0
  9 14  1  0
 10 11  1  0
 10  9  1  0
 12 11  1  0
 12 25  1  0
 12 13  1  0
 14  8  1  0
 14 13  1  0
 15  8  2  0
 16 18  1  0
 16 20  1  0
 17 19  1  0
 17 20  1  0
 20  4  1  0
 21 18  1  0
 21 19  1  0
 22 23  2  0
 23 42  1  0
 24 27  1  0
 24 23  1  0
 25 26  1  0
 25 22  1  0
 26 24  2  0
 27 28  1  0
 28 29  2  0
 30 33  1  0
 30 29  1  0
 31 30  2  0
 32 31  1  0
 32 27  2  0
 33 34  1  0
 34 39  2  0
 34 35  1  0
 35 36  2  0
 36 37  1  0
 37 41  1  0
 38 37  2  0
 39 38  1  0
 40 39  1  0
 42 43  1  0
 43 46  1  0
 43 45  1  0
 44 42  2  0
 47 22  1  0
 47 48  1  0
 49 47  1  0
 50 52  1  0
 50 53  1  0
 51 56  1  0
 52 58  1  0
 52 51  1  0
 53 56  1  0
 53 54  1  1
 56 55  1  0
 56 57  1  6
 58 60  1  0
 59 70  2  0
 60 65  1  0
 61 69  1  0
 61 71  1  0
 62 68  1  0
 62 64  1  0
 63 69  1  0
 64 63  1  0
 65 64  2  0
 66 67  1  0
 66 60  2  0
 67 62  2  0
 68 61  1  0
 69 59  1  0
 71 73  2  0
 72 71  1  0
 74 72  1  0
 75 80  2  0
 75 84  1  0
 76 72  1  0
 76 80  1  0
 77 76  1  0
 78 77  1  0
 78 79  1  0
 79 75  1  0
 80 81  1  0
 81 82  2  0
 83 82  1  0
 84 83  2  0
 85 59  1  0
 85 86  1  0
 85 95  1  0
 86 89  1  0
 87 86  1  0
 87 91  1  0
 88 87  2  0
 91 90  1  0
 91 93  1  0
 93 94  1  0
 93 92  1  0
 95 98  1  1
 95 96  1  0
 97 95  1  0
 99100  1  0
100  6  1  0
M  ISO  4   8 100  21 100  52 101  58 101
M  END
>  <TORSDO>  (4) 
F 18

>  <SCORE>  (4) 
-11.007

>  <name>  (4) 
3

>  <ligand_id>  (4) 
3

>  <original_smiles>  (4) 
[H]c1c([H])c([H])c2c(c1[H])C([H])([H])C([H])([H])C([H])([H])C2([H])N([H])C(=O)C1([H])N(C(=O)C([H])(N([H])C(=O)C([H])(N([H])C([H])([H])[H])C([H])([H])[H])C(C([H])([H])[H])(C([H])([H])[H])C([H])([H])[H])C([H])([H])c2c([H])c(OC3([H])C([H])([H])C(c4c([H])c(C([H])([H])[H])c(C5([H])C([H])([H])C([H])([H])N(C(=O)N6C([H])([H])C([H])([H])C([H])([H])C([H])(n7nc(-c8c([H])c([H])c(Oc9c([H])c([H])c(F)c([H])c9F)c([H])c8[H])c(C(=O)N([H])[H])c7N([H])[H])C6([H])[H])C([H])([H])C5([H])[H])c([H])c4OC([H])([H])[H])(C([H])([H])[H])[N+]([H])(C([H])([H])[H])C3([H])[H])c([H])c([H])c2C1([H])[H]

>  <smiles>  (4) 
[H]c1c([H])c([H])c2c(c1[H])C([H])([H])C([H])([H])C([H])([H])C2([H])N([H])C(=O)C1([H])N(C(=O)C([H])(N([H])C(=O)C([H])(N([H])C([H])([H])[H])C([H])([H])[H])C(C([H])([H])[H])(C([H])([H])[H])C([H])([H])[H])C([H])([H])c2c([H])c(OC3([H])C([H])([H])C(c4c([H])c(C([H])([H])[H])c(C5([H])C([H])([H])C([H])([H])N(C(=O)N6C([H])([H])C([H])([H])C([H])([H])C([H])(n7nc(-c8c([H])c([H])c(Oc9c([H])c([H])c(F)c([H])c9F)c([H])c8[H])c(C(=O)N([H])[H])c7N([H])[H])C6([H])[H])C([H])([H])C5([H])[H])c([H])c4OC([H])([H])[H])(C([H])([H])[H])[N+]([H])(C([H])([H])[H])C3([H])[H])c([H])c([H])c2C1([H])[H]

$$$$
4:0:0
     RDKit          3D

 96105  0  0  1  0  0  0  0  0999 V2000
  -29.5900  -23.3980   21.0290 C   0  0  0  0  0  3  0  0  0  0  0  0
  -28.6310  -21.1220   19.6940 C   0  0  0  0  0  3  0  0  0  0  0  0
  -28.5650  -23.5830   20.0700 C   0  0  0  0  0  0  0  0  0  0  0  0
  -30.1100  -22.0970   21.3370 C   0  0  0  0  0  0  0  0  0  0  0  0
  -28.1090  -22.4080   19.3970 C   0  0  0  0  0  0  0  0  0  0  0  0
  -29.6130  -20.9250   20.6890 C   0  0  0  0  0  0  0  0  0  0  0  0
  -26.9920  -22.4810   18.3640 C   0  0  0  0  0  1  0  0  0  0  0  0
  -32.5730  -22.4650   21.7660 C   0  0  0  0  0  1  0  0  0  0  0  0
  -31.2440  -21.9700   22.3610 C   0  0  0  0  0  3  0  0  0  0  0  0
  -29.8270  -21.9480   24.5050 C   0  0  0  0  0  1  0  0  0  0  0  0
  -30.9360  -22.6510   23.7100 C   0  0  0  0  0  2  0  0  0  0  0  0
  -27.7800  -24.9150   19.8180 C   0  0  0  0  0  2  0  0  0  0  0  0
  -28.0890  -26.2630   20.3400 O   0  0  0  0  0  0  0  0  0  0  0  0
  -24.5200  -31.8160   23.2840 C   0  0  0  0  0  0  0  0  0  0  0  0
  -27.0230  -27.1860   20.2400 C   0  0  0  0  0  0  0  0  0  0  0  0
  -23.2870  -30.4420   21.6490 C   0  0  0  0  0  3  0  0  0  0  0  0
  -24.7030  -28.8720   20.2250 C   0  0  0  0  0  0  0  0  0  0  0  0
  -25.8380  -30.6920   21.4800 C   0  0  0  0  0  2  0  0  0  0  0  0
  -25.8830  -29.3160   20.8350 C   0  0  0  0  0  0  0  0  0  0  0  0
  -27.0440  -28.4830   20.8440 C   0  0  0  0  0  3  0  0  0  0  0  0
  -25.8220  -26.8320   19.5650 C   0  0  0  0  0  3  0  0  0  0  0  0
  -24.6750  -27.6330   19.5830 C   0  0  0  0  0  3  0  0  0  0  0  0
  -23.4880  -29.7700   20.2690 C   0  0  0  0  0  2  0  0  0  0  0  0
  -24.5670  -31.0000   22.1920 N   0  0  0  0  0  0  0  0  0  0  0  0
  -23.4420  -32.1240   23.8110 O   0  0  0  0  0  0  0  0  0  0  0  0
  -22.6000  -29.4370   22.6060 C   0  0  0  0  0  0  0  0  0  0  0  0
  -21.2760  -29.2580   22.4440 N   0  0  0  0  0  0  0  0  0  0  0  0
  -23.2540  -28.8280   23.4550 O   0  0  0  0  0  0  0  0  0  0  0  0
  -20.8110  -29.8050   21.7330 H   0  0  0  0  0  0  0  0  0  0  0  0
  -17.8920  -28.0390   22.8310 C   0  0  0  0  0  0  0  0  0  0  0  0
  -20.4320  -28.3390   23.2080 C   0  0  0  0  0  3  0  0  0  0  0  0
  -20.5760  -26.8870   22.6920 C   0  0  0  0  0  2  0  0  0  0  0  0
  -19.5250  -26.5150   21.6420 C   0  0  0  0  0  2  0  0  0  0  0  0
  -18.1130  -26.6680   22.2150 C   0  0  0  0  0  2  0  0  0  0  0  0
  -18.9820  -28.8310   23.2820 C   0  0  0  0  0  0  0  0  0  0  0  0
  -18.7230  -30.1120   23.8150 C   0  0  0  0  0  3  0  0  0  0  0  0
  -17.4070  -30.6030   23.9000 C   0  0  0  0  0  3  0  0  0  0  0  0
  -16.3310  -29.8090   23.4690 C   0  0  0  0  0  3  0  0  0  0  0  0
  -16.5740  -28.5290   22.9400 C   0  0  0  0  0  3  0  0  0  0  0  0
  -25.8180  -32.4170   23.9060 C   0  0  0  0  0  3  0  0  0  0  0  0
  -26.3030  -31.6450   25.1950 C   0  0  1  0  0  0  0  0  0  0  0  0
  -25.1940  -31.4450   26.2530 C   0  0  0  0  0  1  0  0  0  0  0  0
  -26.8550  -30.2490   24.8260 C   0  0  0  0  0  1  0  0  0  0  0  0
  -27.4670  -32.4180   25.8590 C   0  0  0  0  0  1  0  0  0  0  0  0
  -25.5460  -33.8270   24.2160 N   0  0  0  0  0  0  0  0  0  0  0  0
  -25.8880  -34.8580   23.4320 C   0  0  0  0  0  0  0  0  0  0  0  0
  -26.5380  -34.7220   22.3910 O   0  0  0  0  0  0  0  0  0  0  0  0
  -24.9720  -34.0070   25.0260 H   0  0  0  0  0  0  0  0  0  0  0  0
  -24.1870  -36.6760   23.0780 C   0  0  0  0  0  1  0  0  0  0  0  0
  -25.4370  -36.2650   23.8720 C   0  0  0  0  0  3  0  0  0  0  0  0
  -27.6110  -37.1170   24.6340 C   0  0  0  0  0  1  0  0  0  0  0  0
  -26.4860  -37.2960   23.7210 N   0  0  0  0  0  0  0  0  0  0  0  0
  -26.1000  -38.2240   23.8740 H   0  0  0  0  0  0  0  0  0  0  0  0
  -30.0380  -19.6440   21.0800 O   0  0  0  0  0  0  0  0  0  0  0  0
  -30.6480  -14.4810   20.0670 C   0  0  0  0  0  0  0  0  0  0  0  0
  -30.2120  -12.3060   18.9450 C   0  0  0  0  0  2  0  0  0  0  0  0
  -29.2140  -12.4710   17.7800 C   0  0  0  0  0  2  0  0  0  0  0  0
  -27.7730  -12.3010   18.2890 C   0  0  0  0  0  2  0  0  0  0  0  0
  -27.4930  -13.1510   19.5520 C   0  0  0  0  0  3  0  0  0  0  0  0
  -28.6170  -13.0160   20.6130 C   0  0  0  0  0  2  0  0  0  0  0  0
  -29.8970  -13.3340   19.9660 N   0  0  0  0  0  0  0  0  0  0  0  0
  -31.7510  -14.5340   19.5150 O   0  0  0  0  0  0  0  0  0  0  0  0
  -31.4860  -17.7410   20.4790 C   0  0  0  0  0  2  0  0  0  0  0  0
  -29.0280  -17.6080   19.8650 C   0  0  0  0  0  2  0  0  0  0  0  0
  -31.2210  -16.5100   21.3930 C   0  0  0  0  0  2  0  0  0  0  0  0
  -28.9570  -16.3160   20.7440 C   0  0  0  0  0  2  0  0  0  0  0  0
  -30.2290  -18.5750   20.1120 C   0  0  0  0  0  3  0  0  0  0  0  0
  -30.2360  -15.5710   20.8100 N   0  0  0  0  0  0  0  0  0  0  0  0
  -25.1550  -13.7580   20.4290 C   0  0  0  0  0  0  0  0  0  0  0  0
  -24.1100  -12.9870   20.8530 C   0  0  0  0  0  0  0  0  0  0  0  0
  -24.5610  -11.6340   20.7710 C   0  0  0  0  0  0  0  0  0  0  0  0
  -26.1770  -12.8750   20.1170 N   0  0  0  0  0  0  0  0  0  0  0  0
  -25.8280  -11.5910   20.3860 N   0  0  0  0  0  0  0  0  0  0  0  0
  -23.8380  -10.3740   20.9820 C   0  0  0  0  0  0  0  0  0  0  0  0
  -24.2850   -9.4150   21.9160 C   0  0  0  0  0  3  0  0  0  0  0  0
  -23.5610   -8.2190   22.1160 C   0  0  0  0  0  3  0  0  0  0  0  0
  -22.3780   -7.9750   21.3800 C   0  0  0  0  0  0  0  0  0  0  0  0
  -21.9500   -8.9220   20.4330 C   0  0  0  0  0  3  0  0  0  0  0  0
  -22.6750  -10.1090   20.2330 C   0  0  0  0  0  3  0  0  0  0  0  0
  -21.6260   -6.8300   21.4890 O   0  0  0  0  0  0  0  0  0  0  0  0
  -21.5590   -6.1210   22.6600 C   0  0  0  0  0  0  0  0  0  0  0  0
  -21.1090   -6.7060   23.8640 C   0  0  0  0  0  3  0  0  0  0  0  0
  -20.9900   -5.9230   25.0290 C   0  0  0  0  0  3  0  0  0  0  0  0
  -21.3130   -4.5530   24.9930 C   0  0  0  0  0  0  0  0  0  0  0  0
  -21.7550   -3.9670   23.7940 C   0  0  0  0  0  3  0  0  0  0  0  0
  -21.8750   -4.7480   22.6320 C   0  0  0  0  0  0  0  0  0  0  0  0
  -22.2830   -4.1730   21.4750 F   0  0  0  0  0  0  0  0  0  0  0  0
  -21.1920   -3.7980   26.1080 F   0  0  0  0  0  0  0  0  0  0  0  0
  -22.7340  -13.4680   21.2140 C   0  0  0  0  0  0  0  0  0  0  0  0
  -22.0540  -12.7640   22.1110 N   0  0  0  0  0  0  0  0  0  0  0  0
  -22.2720  -14.5030   20.7330 O   0  0  0  0  0  0  0  0  0  0  0  0
  -22.4410  -11.9260   22.5190 H   0  0  0  0  0  0  0  0  0  0  0  0
  -21.1320  -13.0620   22.3920 H   0  0  0  0  0  0  0  0  0  0  0  0
  -25.3130  -15.1290   20.2570 N   0  0  0  0  0  0  0  0  0  0  0  0
  -24.5520  -15.7770   20.4230 H   0  0  0  0  0  0  0  0  0  0  0  0
  -26.1300  -15.5710   19.8540 H   0  0  0  0  0  0  0  0  0  0  0  0
  1  4  1  0
  2  6  1  0
  3  1  2  0
  4  9  1  0
  5  2  2  0
  5  3  1  0
  6 54  1  0
  6  4  2  0
  7  5  1  0
  9  8  1  0
  9 11  1  0
 11 10  1  0
 12  3  1  0
 12 13  1  0
 14 25  2  0
 15 13  1  0
 15 20  1  0
 16 24  1  0
 16 26  1  0
 17 23  1  0
 17 19  1  0
 18 24  1  0
 19 20  2  0
 19 18  1  0
 21 22  1  0
 21 15  2  0
 22 17  2  0
 23 16  1  0
 24 14  1  0
 26 28  2  0
 27 26  1  0
 29 27  1  0
 30 39  2  0
 30 35  1  0
 31 27  1  0
 31 35  1  0
 32 31  1  0
 33 34  1  0
 33 32  1  0
 34 30  1  0
 35 36  2  0
 36 37  1  0
 38 37  2  0
 39 38  1  0
 40 14  1  0
 40 45  1  0
 40 41  1  0
 41 44  1  1
 41 42  1  0
 43 41  1  0
 45 48  1  0
 46 50  1  0
 46 45  1  0
 47 46  2  0
 50 49  1  0
 52 50  1  0
 52 53  1  0
 52 51  1  0
 55 68  1  0
 56 61  1  0
 57 58  1  0
 57 56  1  0
 59 58  1  0
 59 72  1  0
 59 60  1  0
 61 55  1  0
 61 60  1  0
 62 55  2  0
 63 65  1  0
 64 67  1  0
 64 66  1  0
 66 68  1  0
 67 63  1  0
 67 54  1  0
 68 65  1  0
 69 70  2  0
 70 89  1  0
 71 70  1  0
 71 74  1  0
 72 73  1  0
 72 69  1  0
 73 71  2  0
 74 75  1  0
 75 76  2  0
 77 80  1  0
 77 76  1  0
 78 77  2  0
 79 78  1  0
 79 74  2  0
 80 81  1  0
 81 82  1  0
 82 83  2  0
 84 83  1  0
 84 88  1  0
 85 84  2  0
 86 81  2  0
 86 85  1  0
 87 86  1  0
 89 90  1  0
 90 93  1  0
 90 92  1  0
 91 89  2  0
 94 95  1  0
 94 69  1  0
 96 94  1  0
M  ISO  4  12 101  13 101  55 100  68 100
M  END
>  <TORSDO>  (5) 
F 20

>  <SCORE>  (5) 
-12.700

>  <name>  (5) 
4

>  <ligand_id>  (5) 
4

>  <original_smiles>  (5) 
[H]c1c([H])c([H])c2c(c1[H])C([H])([H])C([H])([H])C([H])([H])C2([H])N([H])C(=O)C1([H])N(C(=O)C([H])(N([H])C(=O)C([H])(N([H])C([H])([H])[H])C([H])([H])[H])C(C([H])([H])[H])(C([H])([H])[H])C([H])([H])[H])C([H])([H])c2c([H])c(OC([H])([H])c3c([H])c(C([H])(C([H])([H])[H])C([H])([H])C([H])([H])[H])c(OC4([H])C([H])([H])C([H])([H])N(C(=O)N5C([H])([H])C([H])([H])C([H])([H])C([H])(n6nc(-c7c([H])c([H])c(Oc8c([H])c([H])c(F)c([H])c8F)c([H])c7[H])c(C(=O)N([H])[H])c6N([H])[H])C5([H])[H])C([H])([H])C4([H])[H])c([H])c3C([H])([H])[H])c([H])c([H])c2C1([H])[H]

>  <smiles>  (5) 
[H]c1c([H])c([H])c2c(c1[H])C([H])([H])C([H])([H])C([H])([H])C2([H])N([H])C(=O)C1([H])N(C(=O)C([H])(N([H])C(=O)C([H])(N([H])C([H])([H])[H])C([H])([H])[H])C(C([H])([H])[H])(C([H])([H])[H])C([H])([H])[H])C([H])([H])c2c([H])c(OC([H])([H])c3c([H])c(C([H])(C([H])([H])[H])C([H])([H])C([H])([H])[H])c(OC4([H])C([H])([H])C([H])([H])N(C(=O)N5C([H])([H])C([H])([H])C([H])([H])C([H])(n6nc(-c7c([H])c([H])c(Oc8c([H])c([H])c(F)c([H])c8F)c([H])c7[H])c(C(=O)N([H])[H])c6N([H])[H])C5([H])[H])C([H])([H])C4([H])[H])c([H])c3C([H])([H])[H])c([H])c([H])c2C1([H])[H]

$$$$
5:0:0
     RDKit          3D

 93102  0  0  1  0  0  0  0  0999 V2000
  -29.3890  -23.3680   21.0990 C   0  0  0  0  0  3  0  0  0  0  0  0
  -28.7000  -22.8910   18.8320 C   0  0  0  0  0  3  0  0  0  0  0  0
  -28.7480  -23.8070   19.9130 C   0  0  0  0  0  0  0  0  0  0  0  0
  -29.9770  -22.0670   21.1790 C   0  0  0  0  0  0  0  0  0  0  0  0
  -29.2750  -21.6000   18.9010 C   0  0  0  0  0  0  0  0  0  0  0  0
  -29.9210  -21.1570   20.0800 C   0  0  0  0  0  0  0  0  0  0  0  0
  -30.6780  -21.6560   22.4600 C   0  0  0  0  0  1  0  0  0  0  0  0
  -29.1550  -20.6880   17.6900 C   0  0  0  0  0  1  0  0  0  0  0  0
  -27.8480  -25.0680   19.8110 C   0  0  0  0  0  2  0  0  0  0  0  0
  -28.2360  -26.4520   20.1370 O   0  0  0  0  0  0  0  0  0  0  0  0
  -24.6090  -31.8840   23.2400 C   0  0  0  0  0  0  0  0  0  0  0  0
  -27.1480  -27.3480   20.1030 C   0  0  0  0  0  0  0  0  0  0  0  0
  -23.3780  -30.5090   21.6090 C   0  0  0  0  0  3  0  0  0  0  0  0
  -24.8020  -28.9870   20.1510 C   0  0  0  0  0  0  0  0  0  0  0  0
  -25.9220  -30.8160   21.3980 C   0  0  0  0  0  2  0  0  0  0  0  0
  -25.9860  -29.4490   20.7360 C   0  0  0  0  0  0  0  0  0  0  0  0
  -27.1660  -28.6420   20.7130 C   0  0  0  0  0  3  0  0  0  0  0  0
  -25.9250  -26.9610   19.4880 C   0  0  0  0  0  3  0  0  0  0  0  0
  -24.7710  -27.7450   19.5240 C   0  0  0  0  0  3  0  0  0  0  0  0
  -23.5710  -29.8620   20.2180 C   0  0  0  0  0  2  0  0  0  0  0  0
  -24.6570  -31.0820   22.1390 N   0  0  0  0  0  0  0  0  0  0  0  0
  -23.5320  -32.1610   23.7880 O   0  0  0  0  0  0  0  0  0  0  0  0
  -22.7270  -29.4750   22.5580 C   0  0  0  0  0  0  0  0  0  0  0  0
  -21.4010  -29.2930   22.4400 N   0  0  0  0  0  0  0  0  0  0  0  0
  -23.4150  -28.8440   23.3660 O   0  0  0  0  0  0  0  0  0  0  0  0
  -20.9070  -29.8540   21.7590 H   0  0  0  0  0  0  0  0  0  0  0  0
  -18.0300  -28.0900   22.9490 C   0  0  0  0  0  0  0  0  0  0  0  0
  -20.5900  -28.3530   23.2120 C   0  0  0  0  0  3  0  0  0  0  0  0
  -20.6890  -26.9210   22.6370 C   0  0  0  0  0  2  0  0  0  0  0  0
  -19.5840  -26.5960   21.6270 C   0  0  0  0  0  2  0  0  0  0  0  0
  -18.2040  -26.7420   22.2740 C   0  0  0  0  0  2  0  0  0  0  0  0
  -19.1490  -28.8540   23.3760 C   0  0  0  0  0  0  0  0  0  0  0  0
  -18.9310  -30.1180   23.9680 C   0  0  0  0  0  3  0  0  0  0  0  0
  -17.6280  -30.6190   24.1340 C   0  0  0  0  0  3  0  0  0  0  0  0
  -16.5210  -29.8540   23.7240 C   0  0  0  0  0  3  0  0  0  0  0  0
  -16.7240  -28.5900   23.1400 C   0  0  0  0  0  3  0  0  0  0  0  0
  -25.9010  -32.5060   23.8490 C   0  0  0  0  0  3  0  0  0  0  0  0
  -25.5970  -33.9020   24.1950 N   0  0  0  0  0  0  0  0  0  0  0  0
  -25.9030  -34.9590   23.4320 C   0  0  0  0  0  0  0  0  0  0  0  0
  -26.5440  -34.8620   22.3810 O   0  0  0  0  0  0  0  0  0  0  0  0
  -25.0210  -34.0500   25.0110 H   0  0  0  0  0  0  0  0  0  0  0  0
  -24.1550  -36.7430   23.1340 C   0  0  0  0  0  1  0  0  0  0  0  0
  -25.4210  -36.3420   23.9070 C   0  0  0  0  0  3  0  0  0  0  0  0
  -27.5790  -37.2300   24.6720 C   0  0  0  0  0  1  0  0  0  0  0  0
  -26.4420  -37.4030   23.7720 N   0  0  0  0  0  0  0  0  0  0  0  0
  -26.0350  -38.3170   23.9530 H   0  0  0  0  0  0  0  0  0  0  0  0
  -26.4280  -31.7220   25.1110 C   0  0  1  0  0  0  0  0  0  0  0  0
  -25.3480  -31.4760   26.1890 C   0  0  0  0  0  1  0  0  0  0  0  0
  -27.0030  -30.3470   24.6980 C   0  0  0  0  0  1  0  0  0  0  0  0
  -27.5890  -32.5050   25.7690 C   0  0  0  0  0  1  0  0  0  0  0  0
  -30.6050  -19.9410   20.0520 O   0  0  0  0  0  0  0  0  0  0  0  0
  -30.6850  -14.6190   20.4710 C   0  0  0  0  0  0  0  0  0  0  0  0
  -30.3320  -12.4160   19.3780 C   0  0  0  0  0  2  0  0  0  0  0  0
  -29.4140  -12.5410   18.1480 C   0  0  0  0  0  2  0  0  0  0  0  0
  -27.9420  -12.3660   18.5610 C   0  0  0  0  0  2  0  0  0  0  0  0
  -27.5670  -13.2460   19.7780 C   0  0  0  0  0  3  0  0  0  0  0  0
  -28.6200  -13.1750   20.9110 C   0  0  0  0  0  2  0  0  0  0  0  0
  -29.9420  -13.4690   20.3390 N   0  0  0  0  0  0  0  0  0  0  0  0
  -31.8390  -14.6620   20.0370 O   0  0  0  0  0  0  0  0  0  0  0  0
  -29.2580  -17.8480   20.0150 C   0  0  0  0  0  2  0  0  0  0  0  0
  -31.4280  -17.9430   21.1830 C   0  0  0  0  0  2  0  0  0  0  0  0
  -28.9680  -16.4910   20.7400 C   0  0  0  0  0  2  0  0  0  0  0  0
  -31.0670  -16.6110   21.9090 C   0  0  0  0  0  2  0  0  0  0  0  0
  -30.1840  -18.7870   20.8200 C   0  0  0  0  0  3  0  0  0  0  0  0
  -30.1820  -15.7240   21.1170 N   0  0  0  0  0  0  0  0  0  0  0  0
  -25.1870  -13.8670   20.5110 C   0  0  0  0  0  0  0  0  0  0  0  0
  -24.1160  -13.0960   20.8740 C   0  0  0  0  0  0  0  0  0  0  0  0
  -24.5750  -11.7440   20.8480 C   0  0  0  0  0  0  0  0  0  0  0  0
  -26.2250  -12.9790   20.2720 N   0  0  0  0  0  0  0  0  0  0  0  0
  -25.8650  -11.7000   20.5440 N   0  0  0  0  0  0  0  0  0  0  0  0
  -23.8480  -10.4840   21.0380 C   0  0  0  0  0  0  0  0  0  0  0  0
  -24.2730   -9.5210   21.9790 C   0  0  0  0  0  3  0  0  0  0  0  0
  -23.5460   -8.3240   22.1560 C   0  0  0  0  0  3  0  0  0  0  0  0
  -22.3810   -8.0840   21.3870 C   0  0  0  0  0  0  0  0  0  0  0  0
  -21.9770   -9.0360   20.4350 C   0  0  0  0  0  3  0  0  0  0  0  0
  -22.7050  -10.2230   20.2580 C   0  0  0  0  0  3  0  0  0  0  0  0
  -21.6240   -6.9400   21.4720 O   0  0  0  0  0  0  0  0  0  0  0  0
  -21.5570   -6.2040   22.6280 C   0  0  0  0  0  0  0  0  0  0  0  0
  -21.1100   -6.7660   23.8440 C   0  0  0  0  0  3  0  0  0  0  0  0
  -20.9910   -5.9570   24.9920 C   0  0  0  0  0  3  0  0  0  0  0  0
  -21.3100   -4.5880   24.9240 C   0  0  0  0  0  0  0  0  0  0  0  0
  -21.7500   -4.0250   23.7120 C   0  0  0  0  0  3  0  0  0  0  0  0
  -21.8710   -4.8300   22.5660 C   0  0  0  0  0  0  0  0  0  0  0  0
  -22.2740   -4.2790   21.3950 F   0  0  0  0  0  0  0  0  0  0  0  0
  -21.1860   -3.8070   26.0220 F   0  0  0  0  0  0  0  0  0  0  0  0
  -22.7170  -13.5740   21.1340 C   0  0  0  0  0  0  0  0  0  0  0  0
  -21.9780  -12.8780   21.9910 N   0  0  0  0  0  0  0  0  0  0  0  0
  -22.2860  -14.5990   20.6070 O   0  0  0  0  0  0  0  0  0  0  0  0
  -22.3390  -12.0500   22.4400 H   0  0  0  0  0  0  0  0  0  0  0  0
  -21.0340  -13.1750   22.1910 H   0  0  0  0  0  0  0  0  0  0  0  0
  -25.3550  -15.2390   20.3430 N   0  0  0  0  0  0  0  0  0  0  0  0
  -24.5900  -15.8900   20.4930 H   0  0  0  0  0  0  0  0  0  0  0  0
  -26.2000  -15.6890   20.0200 H   0  0  0  0  0  0  0  0  0  0  0  0
  1  4  1  0
  2  5  2  0
  2  3  1  0
  3  1  2  0
  4  7  1  0
  5  6  1  0
  6  4  2  0
  8  5  1  0
  9  3  1  0
  9 10  1  0
 11 22  2  0
 12 10  1  0
 12 17  1  0
 13 21  1  0
 13 23  1  0
 14 20  1  0
 14 16  1  0
 15 21  1  0
 16 15  1  0
 17 16  2  0
 18 19  1  0
 18 12  2  0
 19 14  2  0
 20 13  1  0
 21 11  1  0
 23 25  2  0
 24 23  1  0
 26 24  1  0
 27 36  2  0
 27 32  1  0
 28 24  1  0
 28 32  1  0
 29 28  1  0
 30 31  1  0
 30 29  1  0
 31 27  1  0
 32 33  2  0
 33 34  1  0
 35 34  2  0
 36 35  1  0
 37 11  1  0
 37 38  1  0
 37 47  1  0
 38 41  1  0
 39 43  1  0
 39 38  1  0
 40 39  2  0
 43 42  1  0
 45 43  1  0
 45 46  1  0
 45 44  1  0
 47 50  1  1
 47 48  1  0
 49 47  1  0
 51  6  1  0
 52 65  1  0
 53 58  1  0
 54 55  1  0
 54 53  1  0
 56 55  1  0
 56 69  1  0
 56 57  1  0
 58 52  1  0
 58 57  1  0
 59 52  2  0
 60 62  1  0
 60 64  1  0
 61 63  1  0
 62 65  1  0
 64 51  1  0
 64 61  1  0
 65 63  1  0
 66 67  2  0
 67 86  1  0
 68 67  1  0
 68 71  1  0
 69 66  1  0
 69 70  1  0
 70 68  2  0
 71 72  1  0
 72 73  2  0
 74 77  1  0
 74 73  1  0
 75 74  2  0
 76 75  1  0
 76 71  2  0
 77 78  1  0
 78 79  1  0
 79 80  2  0
 81 80  1  0
 81 85  1  0
 82 81  2  0
 83 78  2  0
 83 82  1  0
 84 83  1  0
 86 87  1  0
 87 90  1  0
 87 89  1  0
 88 86  2  0
 91 92  1  0
 91 66  1  0
 93 91  1  0
M  ISO  4   9 101  10 101  52 100  65 100
M  END
>  <TORSDO>  (6) 
F 18

>  <SCORE>  (6) 
-15.078

>  <name>  (6) 
5

>  <ligand_id>  (6) 
5

>  <original_smiles>  (6) 
[H]c1c([H])c([H])c2c(c1[H])C([H])([H])C([H])([H])C([H])([H])C2([H])N([H])C(=O)C1([H])N(C(=O)C([H])(N([H])C(=O)C([H])(N([H])C([H])([H])[H])C([H])([H])[H])C(C([H])([H])[H])(C([H])([H])[H])C([H])([H])[H])C([H])([H])c2c([H])c(OC([H])([H])c3c([H])c(C([H])([H])[H])c(OC4([H])C([H])([H])C([H])([H])N(C(=O)N5C([H])([H])C([H])([H])C([H])([H])C([H])(n6nc(-c7c([H])c([H])c(Oc8c([H])c([H])c(F)c([H])c8F)c([H])c7[H])c(C(=O)N([H])[H])c6N([H])[H])C5([H])[H])C([H])([H])C4([H])[H])c(C([H])([H])[H])c3[H])c([H])c([H])c2C1([H])[H]

>  <smiles>  (6) 
[H]c1c([H])c([H])c2c(c1[H])C([H])([H])C([H])([H])C([H])([H])C2([H])N([H])C(=O)C1([H])N(C(=O)C([H])(N([H])C(=O)C([H])(N([H])C([H])([H])[H])C([H])([H])[H])C(C([H])([H])[H])(C([H])([H])[H])C([H])([H])[H])C([H])([H])c2c([H])c(OC([H])([H])c3c([H])c(C([H])([H])[H])c(OC4([H])C([H])([H])C([H])([H])N(C(=O)N5C([H])([H])C([H])([H])C([H])([H])C([H])(n6nc(-c7c([H])c([H])c(Oc8c([H])c([H])c(F)c([H])c8F)c([H])c7[H])c(C(=O)N([H])[H])c6N([H])[H])C5([H])[H])C([H])([H])C4([H])[H])c(C([H])([H])[H])c3[H])c([H])c([H])c2C1([H])[H]

$$$$
6:0:0
     RDKit          3D

 95104  0  0  1  0  0  0  0  0999 V2000
  -29.2000  -21.8400   19.8630 C   0  0  0  0  0  0  0  0  0  0  0  0
  -29.9070  -22.3470   22.1340 C   0  0  0  0  0  0  0  0  0  0  0  0
  -28.5080  -23.0970   19.7960 C   0  0  0  0  0  0  0  0  0  0  0  0
  -29.3600  -23.6670   21.9960 C   0  0  0  0  0  0  0  0  0  0  0  0
  -29.8510  -21.4020   21.0600 C   0  0  0  0  0  0  0  0  0  0  0  0
  -28.5760  -24.0320   20.8660 C   0  0  0  0  0  0  0  0  0  0  0  0
  -29.2550  -20.9660   18.6170 C   0  0  0  0  0  1  0  0  0  0  0  0
  -30.5820  -21.9540   23.4510 C   0  0  0  0  0  1  0  0  0  0  0  0
  -27.6500  -23.4730   18.5840 C   0  0  0  0  0  1  0  0  0  0  0  0
  -29.6140  -24.7180   23.0740 C   0  0  0  0  0  1  0  0  0  0  0  0
  -30.6410  -20.0290   21.1340 C   0  0  0  0  0  2  0  0  0  0  0  0
  -29.9080  -18.6140   21.1410 C   0  0  0  0  0  2  0  0  0  0  0  0
  -30.6830  -14.8280   20.4950 C   0  0  0  0  0  0  0  0  0  0  0  0
  -30.3960  -12.5710   19.5030 C   0  0  0  0  0  2  0  0  0  0  0  0
  -29.4660  -12.6270   18.2750 C   0  0  0  0  0  2  0  0  0  0  0  0
  -27.9840  -12.5260   18.6960 C   0  0  0  0  0  2  0  0  0  0  0  0
  -27.6070  -13.3670   19.9470 C   0  0  0  0  0  3  0  0  0  0  0  0
  -28.6920  -13.3130   21.0460 C   0  0  0  0  0  2  0  0  0  0  0  0
  -29.9810  -13.6450   20.4240 N   0  0  0  0  0  0  0  0  0  0  0  0
  -31.9080  -14.8190   20.3680 O   0  0  0  0  0  0  0  0  0  0  0  0
  -29.7120  -17.3110   18.3310 C   0  0  0  0  0  2  0  0  0  0  0  0
  -31.0120  -17.6920   19.0140 C   0  0  0  0  0  2  0  0  0  0  0  0
  -29.1200  -16.2400   19.2470 C   0  0  0  0  0  2  0  0  0  0  0  0
  -30.7170  -17.3880   20.4920 C   0  0  0  0  0  3  0  0  0  0  0  0
  -30.0120  -16.0450   20.4080 N   0  0  0  0  0  0  0  0  0  0  0  0
  -25.2170  -13.9140   20.6790 C   0  0  0  0  0  0  0  0  0  0  0  0
  -24.1650  -13.1130   21.0240 C   0  0  0  0  0  0  0  0  0  0  0  0
  -24.6550  -11.7750   20.9740 C   0  0  0  0  0  0  0  0  0  0  0  0
  -26.2780  -13.0540   20.4420 N   0  0  0  0  0  0  0  0  0  0  0  0
  -25.9480  -11.7640   20.6830 N   0  0  0  0  0  0  0  0  0  0  0  0
  -23.9540  -10.4960   21.1300 C   0  0  0  0  0  0  0  0  0  0  0  0
  -24.3810   -9.5310   22.0670 C   0  0  0  0  0  3  0  0  0  0  0  0
  -23.6770   -8.3160   22.2110 C   0  0  0  0  0  3  0  0  0  0  0  0
  -22.5330   -8.0630   21.4190 C   0  0  0  0  0  0  0  0  0  0  0  0
  -22.1270   -9.0170   20.4720 C   0  0  0  0  0  3  0  0  0  0  0  0
  -22.8320  -10.2230   20.3250 C   0  0  0  0  0  3  0  0  0  0  0  0
  -21.7990   -6.9030   21.4800 O   0  0  0  0  0  0  0  0  0  0  0  0
  -21.7070   -6.1700   22.6360 C   0  0  0  0  0  0  0  0  0  0  0  0
  -21.1640   -6.7120   23.8220 C   0  0  0  0  0  3  0  0  0  0  0  0
  -21.0250   -5.9020   24.9660 C   0  0  0  0  0  3  0  0  0  0  0  0
  -21.4180   -4.5510   24.9240 C   0  0  0  0  0  0  0  0  0  0  0  0
  -21.9560   -4.0090   23.7430 C   0  0  0  0  0  3  0  0  0  0  0  0
  -22.0970   -4.8170   22.6010 C   0  0  0  0  0  0  0  0  0  0  0  0
  -22.5980   -4.2850   21.4590 F   0  0  0  0  0  0  0  0  0  0  0  0
  -21.2760   -3.7700   26.0200 F   0  0  0  0  0  0  0  0  0  0  0  0
  -22.7580  -13.5620   21.2900 C   0  0  0  0  0  0  0  0  0  0  0  0
  -22.0380  -12.8360   22.1370 N   0  0  0  0  0  0  0  0  0  0  0  0
  -22.3070  -14.5880   20.7840 O   0  0  0  0  0  0  0  0  0  0  0  0
  -22.4200  -12.0090   22.5740 H   0  0  0  0  0  0  0  0  0  0  0  0
  -21.0930  -13.1150   22.3600 H   0  0  0  0  0  0  0  0  0  0  0  0
  -25.3430  -15.2920   20.5290 N   0  0  0  0  0  0  0  0  0  0  0  0
  -24.5510  -15.9110   20.6690 H   0  0  0  0  0  0  0  0  0  0  0  0
  -26.1820  -15.7770   20.2390 H   0  0  0  0  0  0  0  0  0  0  0  0
  -27.6490  -25.3020   20.9010 C   0  0  0  0  0  2  0  0  0  0  0  0
  -27.9790  -26.5160   20.1440 O   0  0  0  0  0  0  0  0  0  0  0  0
  -24.4970  -31.9550   23.2850 C   0  0  0  0  0  0  0  0  0  0  0  0
  -26.9160  -27.4170   20.1040 C   0  0  0  0  0  0  0  0  0  0  0  0
  -23.2170  -30.6180   21.6500 C   0  0  0  0  0  3  0  0  0  0  0  0
  -24.5940  -29.0620   20.1650 C   0  0  0  0  0  0  0  0  0  0  0  0
  -25.7570  -30.8830   21.4130 C   0  0  0  0  0  2  0  0  0  0  0  0
  -25.7880  -29.5190   20.7390 C   0  0  0  0  0  0  0  0  0  0  0  0
  -26.9590  -28.7090   20.6980 C   0  0  0  0  0  3  0  0  0  0  0  0
  -25.7080  -27.0090   19.4970 C   0  0  0  0  0  3  0  0  0  0  0  0
  -24.5520  -27.8090   19.5340 C   0  0  0  0  0  3  0  0  0  0  0  0
  -23.3800  -29.9610   20.2550 C   0  0  0  0  0  2  0  0  0  0  0  0
  -24.5100  -31.1670   22.1720 N   0  0  0  0  0  0  0  0  0  0  0  0
  -23.4340  -32.2510   23.8500 O   0  0  0  0  0  0  0  0  0  0  0  0
  -22.5510  -29.6030   22.6090 C   0  0  0  0  0  0  0  0  0  0  0  0
  -21.2240  -29.4310   22.4780 N   0  0  0  0  0  0  0  0  0  0  0  0
  -23.2240  -28.9750   23.4300 O   0  0  0  0  0  0  0  0  0  0  0  0
  -20.7400  -29.9880   21.7850 H   0  0  0  0  0  0  0  0  0  0  0  0
  -17.8420  -28.2400   22.9580 C   0  0  0  0  0  0  0  0  0  0  0  0
  -20.3990  -28.5010   23.2490 C   0  0  0  0  0  3  0  0  0  0  0  0
  -20.5050  -27.0650   22.6870 C   0  0  0  0  0  2  0  0  0  0  0  0
  -19.4130  -26.7350   21.6640 C   0  0  0  0  0  2  0  0  0  0  0  0
  -18.0250  -26.8860   22.2920 C   0  0  0  0  0  2  0  0  0  0  0  0
  -18.9590  -29.0040   23.3940 C   0  0  0  0  0  0  0  0  0  0  0  0
  -18.7340  -30.2710   23.9770 C   0  0  0  0  0  3  0  0  0  0  0  0
  -17.4290  -30.7760   24.1250 C   0  0  0  0  0  3  0  0  0  0  0  0
  -16.3280  -30.0110   23.7020 C   0  0  0  0  0  3  0  0  0  0  0  0
  -16.5360  -28.7440   23.1270 C   0  0  0  0  0  3  0  0  0  0  0  0
  -25.8120  -32.5400   23.8880 C   0  0  0  0  0  3  0  0  0  0  0  0
  -26.3300  -31.7380   25.1440 C   0  0  1  0  0  0  0  0  0  0  0  0
  -25.2490  -31.5120   26.2280 C   0  0  0  0  0  1  0  0  0  0  0  0
  -26.8680  -30.3500   24.7220 C   0  0  0  0  0  1  0  0  0  0  0  0
  -27.5170  -32.4920   25.7900 C   0  0  0  0  0  1  0  0  0  0  0  0
  -25.5510  -33.9410   24.2390 N   0  0  0  0  0  0  0  0  0  0  0  0
  -25.9220  -34.9930   23.4980 C   0  0  0  0  0  0  0  0  0  0  0  0
  -26.5860  -34.8830   22.4630 O   0  0  0  0  0  0  0  0  0  0  0  0
  -24.9590  -34.1040   25.0410 H   0  0  0  0  0  0  0  0  0  0  0  0
  -24.2850  -36.8720   23.1490 C   0  0  0  0  0  1  0  0  0  0  0  0
  -25.4860  -36.3920   23.9780 C   0  0  0  0  0  3  0  0  0  0  0  0
  -27.6320  -37.1630   24.8870 C   0  0  0  0  0  1  0  0  0  0  0  0
  -26.5690  -37.3980   23.9140 N   0  0  0  0  0  0  0  0  0  0  0  0
  -26.2010  -38.3330   24.0680 H   0  0  0  0  0  0  0  0  0  0  0  0
  1  5  1  0
  2  8  1  0
  3  1  2  0
  3  6  1  0
  4  2  1  0
  4 10  1  0
  5 11  1  0
  5  2  2  0
  6 54  1  0
  6  4  2  0
  7  1  1  0
  9  3  1  0
 11 12  1  0
 14 19  1  0
 15 16  1  0
 15 14  1  0
 17 16  1  0
 17 29  1  0
 17 18  1  0
 19 13  1  0
 19 18  1  0
 20 13  2  0
 21 22  1  0
 21 23  1  0
 22 24  1  0
 23 25  1  0
 24 12  1  0
 25 24  1  0
 25 13  1  0
 26 27  2  0
 27 46  1  0
 28 27  1  0
 28 31  1  0
 29 26  1  0
 29 30  1  0
 30 28  2  0
 31 32  1  0
 32 33  2  0
 34 37  1  0
 34 33  1  0
 35 34  2  0
 36 35  1  0
 36 31  2  0
 37 38  1  0
 38 39  1  0
 39 40  2  0
 41 40  1  0
 41 45  1  0
 42 41  2  0
 43 38  2  0
 43 42  1  0
 44 43  1  0
 46 47  1  0
 47 50  1  0
 47 49  1  0
 48 46  2  0
 51 52  1  0
 51 26  1  0
 53 51  1  0
 55 54  1  0
 56 67  2  0
 57 55  1  0
 57 62  1  0
 58 66  1  0
 58 68  1  0
 59 65  1  0
 59 61  1  0
 60 66  1  0
 61 60  1  0
 62 61  2  0
 63 64  1  0
 63 57  2  0
 64 59  2  0
 65 58  1  0
 66 56  1  0
 68 70  2  0
 69 68  1  0
 71 69  1  0
 72 81  2  0
 72 77  1  0
 73 69  1  0
 73 77  1  0
 74 73  1  0
 75 76  1  0
 75 74  1  0
 76 72  1  0
 77 78  2  0
 78 79  1  0
 80 79  2  0
 81 80  1  0
 82 56  1  0
 82 87  1  0
 82 83  1  0
 83 86  1  1
 83 84  1  0
 85 83  1  0
 87 90  1  0
 88 92  1  0
 88 87  1  0
 89 88  2  0
 92 91  1  0
 94 92  1  0
 94 95  1  0
 94 93  1  0
M  ISO  4  13 100  25 100  54 101  55 101
M  END
>  <TORSDO>  (7) 
F 19

>  <SCORE>  (7) 
-14.329

>  <name>  (7) 
6

>  <ligand_id>  (7) 
6

>  <original_smiles>  (7) 
[H]c1c([H])c([H])c2c(c1[H])C([H])([H])C([H])([H])C([H])([H])C2([H])N([H])C(=O)C1([H])N(C(=O)C([H])(N([H])C(=O)C([H])(N([H])C([H])([H])[H])C([H])([H])[H])C(C([H])([H])[H])(C([H])([H])[H])C([H])([H])[H])C([H])([H])c2c([H])c(OC([H])([H])c3c(C([H])([H])[H])c(C([H])([H])[H])c(C([H])([H])C([H])([H])C4([H])N(C(=O)N5C([H])([H])C([H])([H])C([H])([H])C([H])(n6nc(-c7c([H])c([H])c(Oc8c([H])c([H])c(F)c([H])c8F)c([H])c7[H])c(C(=O)N([H])[H])c6N([H])[H])C5([H])[H])C([H])([H])C([H])([H])C4([H])[H])c(C([H])([H])[H])c3C([H])([H])[H])c([H])c([H])c2C1([H])[H]

>  <smiles>  (7) 
[H]c1c([H])c([H])c2c(c1[H])C([H])([H])C([H])([H])C([H])([H])C2([H])N([H])C(=O)C1([H])N(C(=O)C([H])(N([H])C(=O)C([H])(N([H])C([H])([H])[H])C([H])([H])[H])C(C([H])([H])[H])(C([H])([H])[H])C([H])([H])[H])C([H])([H])c2c([H])c(OC([H])([H])c3c(C([H])([H])[H])c(C([H])([H])[H])c(C([H])([H])C([H])([H])C4([H])N(C(=O)N5C([H])([H])C([H])([H])C([H])([H])C([H])(n6nc(-c7c([H])c([H])c(Oc8c([H])c([H])c(F)c([H])c8F)c([H])c7[H])c(C(=O)N([H])[H])c6N([H])[H])C5([H])[H])C([H])([H])C([H])([H])C4([H])[H])c(C([H])([H])[H])c3C([H])([H])[H])c([H])c([H])c2C1([H])[H]

$$$$
7:0:0
     RDKit          3D

 95104  0  0  1  0  0  0  0  0999 V2000
  -28.6230  -21.5500   19.6630 C   0  0  0  0  0  3  0  0  0  0  0  0
  -29.4950  -23.7660   21.1440 C   0  0  0  0  0  3  0  0  0  0  0  0
  -28.2540  -22.8700   19.2720 C   0  0  0  0  0  0  0  0  0  0  0  0
  -28.7270  -24.0100   19.9830 C   0  0  0  0  0  0  0  0  0  0  0  0
  -29.4490  -21.3120   20.7870 C   0  0  0  0  0  0  0  0  0  0  0  0
  -29.8450  -22.4440   21.5590 C   0  0  0  0  0  0  0  0  0  0  0  0
  -27.3470  -23.0390   18.0640 C   0  0  0  0  0  1  0  0  0  0  0  0
  -30.5010  -23.1480   23.7600 C   0  0  0  0  0  1  0  0  0  0  0  0
  -30.5870  -22.2000   22.6970 O   0  0  0  0  0  0  0  0  0  0  0  0
  -29.9040  -20.0200   21.1880 N   0  0  0  0  0  0  0  0  0  0  0  0
  -30.5870  -20.0410   21.9420 H   0  0  0  0  0  0  0  0  0  0  0  0
  -30.6480  -14.5360   20.0320 C   0  0  0  0  0  0  0  0  0  0  0  0
  -30.3320  -12.3470   18.9020 C   0  0  0  0  0  2  0  0  0  0  0  0
  -29.3310  -12.5460   17.7440 C   0  0  0  0  0  2  0  0  0  0  0  0
  -27.8770  -12.4030   18.2370 C   0  0  0  0  0  2  0  0  0  0  0  0
  -27.6030  -13.1980   19.5420 C   0  0  0  0  0  3  0  0  0  0  0  0
  -28.7180  -12.9800   20.5850 C   0  0  0  0  0  2  0  0  0  0  0  0
  -29.9920  -13.3360   19.9460 N   0  0  0  0  0  0  0  0  0  0  0  0
  -31.7830  -14.6640   19.5580 O   0  0  0  0  0  0  0  0  0  0  0  0
  -29.6690  -17.6100   21.8740 C   0  0  0  0  0  2  0  0  0  0  0  0
  -30.1490  -18.1210   19.5170 C   0  0  0  0  0  2  0  0  0  0  0  0
  -29.3080  -16.1290   21.5000 C   0  0  0  0  0  2  0  0  0  0  0  0
  -29.7010  -16.6730   19.1430 C   0  0  0  0  0  2  0  0  0  0  0  0
  -29.4250  -18.6750   20.7650 C   0  0  0  0  0  3  0  0  0  0  0  0
  -29.8690  -15.6600   20.2140 N   0  0  0  0  0  0  0  0  0  0  0  0
  -25.2490  -13.7760   20.3880 C   0  0  0  0  0  0  0  0  0  0  0  0
  -24.2070  -12.9940   20.8070 C   0  0  0  0  0  0  0  0  0  0  0  0
  -24.6720  -11.6460   20.7340 C   0  0  0  0  0  0  0  0  0  0  0  0
  -26.2830  -12.9020   20.0880 N   0  0  0  0  0  0  0  0  0  0  0  0
  -25.9420  -11.6140   20.3520 N   0  0  0  0  0  0  0  0  0  0  0  0
  -23.9610  -10.3790   20.9490 C   0  0  0  0  0  0  0  0  0  0  0  0
  -24.3970   -9.4410   21.9110 C   0  0  0  0  0  3  0  0  0  0  0  0
  -23.6860   -8.2380   22.1130 C   0  0  0  0  0  3  0  0  0  0  0  0
  -22.5240   -7.9650   21.3530 C   0  0  0  0  0  0  0  0  0  0  0  0
  -22.1060   -8.8910   20.3810 C   0  0  0  0  0  3  0  0  0  0  0  0
  -22.8190  -10.0840   20.1780 C   0  0  0  0  0  3  0  0  0  0  0  0
  -21.7830   -6.8120   21.4640 O   0  0  0  0  0  0  0  0  0  0  0  0
  -21.6630   -6.1460   22.6560 C   0  0  0  0  0  0  0  0  0  0  0  0
  -21.1210   -6.7640   23.8050 C   0  0  0  0  0  3  0  0  0  0  0  0
  -20.9520   -6.0210   24.9900 C   0  0  0  0  0  3  0  0  0  0  0  0
  -21.3110   -4.6610   25.0270 C   0  0  0  0  0  0  0  0  0  0  0  0
  -21.8430   -4.0410   23.8830 C   0  0  0  0  0  3  0  0  0  0  0  0
  -22.0150   -4.7810   22.7010 C   0  0  0  0  0  0  0  0  0  0  0  0
  -22.5110   -4.1750   21.5950 F   0  0  0  0  0  0  0  0  0  0  0  0
  -21.1410   -3.9460   26.1630 F   0  0  0  0  0  0  0  0  0  0  0  0
  -22.8270  -13.4630   21.1620 C   0  0  0  0  0  0  0  0  0  0  0  0
  -22.1550  -12.7620   22.0690 N   0  0  0  0  0  0  0  0  0  0  0  0
  -22.3550  -14.4870   20.6700 O   0  0  0  0  0  0  0  0  0  0  0  0
  -22.5510  -11.9350   22.4890 H   0  0  0  0  0  0  0  0  0  0  0  0
  -21.2310  -13.0600   22.3460 H   0  0  0  0  0  0  0  0  0  0  0  0
  -25.4020  -15.1490   20.2230 N   0  0  0  0  0  0  0  0  0  0  0  0
  -24.6440  -15.8020   20.3890 H   0  0  0  0  0  0  0  0  0  0  0  0
  -26.2420  -15.5950   19.8770 H   0  0  0  0  0  0  0  0  0  0  0  0
  -28.5810  -25.4600   19.4210 C   0  0  0  0  0  2  0  0  0  0  0  0
  -28.3240  -26.5530   20.3400 O   0  0  0  0  0  0  0  0  0  0  0  0
  -24.5880  -31.8890   23.2610 C   0  0  0  0  0  0  0  0  0  0  0  0
  -27.1590  -27.3130   20.2650 C   0  0  0  0  0  0  0  0  0  0  0  0
  -23.3570  -30.4710   21.6500 C   0  0  0  0  0  3  0  0  0  0  0  0
  -24.7860  -28.8860   20.2460 C   0  0  0  0  0  0  0  0  0  0  0  0
  -25.8900  -30.7850   21.4380 C   0  0  0  0  0  2  0  0  0  0  0  0
  -25.9560  -29.3980   20.8210 C   0  0  0  0  0  0  0  0  0  0  0  0
  -27.1400  -28.6170   20.8280 C   0  0  0  0  0  3  0  0  0  0  0  0
  -25.9610  -26.8220   19.6940 C   0  0  0  0  0  3  0  0  0  0  0  0
  -24.7860  -27.5990   19.6800 C   0  0  0  0  0  3  0  0  0  0  0  0
  -23.5560  -29.7660   20.2810 C   0  0  0  0  0  2  0  0  0  0  0  0
  -24.6300  -31.0650   22.1740 N   0  0  0  0  0  0  0  0  0  0  0  0
  -23.5110  -32.1840   23.8010 O   0  0  0  0  0  0  0  0  0  0  0  0
  -22.6960  -29.4770   22.6330 C   0  0  0  0  0  0  0  0  0  0  0  0
  -21.3720  -29.2950   22.5030 N   0  0  0  0  0  0  0  0  0  0  0  0
  -23.3740  -28.8720   23.4680 O   0  0  0  0  0  0  0  0  0  0  0  0
  -20.8890  -29.8310   21.7950 H   0  0  0  0  0  0  0  0  0  0  0  0
  -17.9950  -28.1040   23.0030 C   0  0  0  0  0  0  0  0  0  0  0  0
  -20.5490  -28.3780   23.2920 C   0  0  0  0  0  3  0  0  0  0  0  0
  -20.6620  -26.9320   22.7560 C   0  0  0  0  0  2  0  0  0  0  0  0
  -19.5710  -26.5760   21.7420 C   0  0  0  0  0  2  0  0  0  0  0  0
  -18.1820  -26.7370   22.3680 C   0  0  0  0  0  2  0  0  0  0  0  0
  -19.1070  -28.8820   23.4220 C   0  0  0  0  0  0  0  0  0  0  0  0
  -18.8790  -30.1610   23.9730 C   0  0  0  0  0  3  0  0  0  0  0  0
  -17.5710  -30.6630   24.1100 C   0  0  0  0  0  3  0  0  0  0  0  0
  -16.4730  -29.8830   23.7090 C   0  0  0  0  0  3  0  0  0  0  0  0
  -16.6850  -28.6050   23.1610 C   0  0  0  0  0  3  0  0  0  0  0  0
  -25.8830  -32.5160   23.8650 C   0  0  0  0  0  3  0  0  0  0  0  0
  -26.4140  -31.7490   25.1390 C   0  0  1  0  0  0  0  0  0  0  0  0
  -25.3320  -31.5170   26.2200 C   0  0  0  0  0  1  0  0  0  0  0  0
  -26.9860  -30.3690   24.7440 C   0  0  0  0  0  1  0  0  0  0  0  0
  -27.5790  -32.5370   25.7820 C   0  0  0  0  0  1  0  0  0  0  0  0
  -25.5890  -33.9180   24.1920 N   0  0  0  0  0  0  0  0  0  0  0  0
  -25.9090  -34.9630   23.4170 C   0  0  0  0  0  0  0  0  0  0  0  0
  -26.5580  -34.8480   22.3750 O   0  0  0  0  0  0  0  0  0  0  0  0
  -25.0180  -34.0820   25.0090 H   0  0  0  0  0  0  0  0  0  0  0  0
  -24.1820  -36.7580   23.0790 C   0  0  0  0  0  1  0  0  0  0  0  0
  -25.4360  -36.3570   23.8730 C   0  0  0  0  0  3  0  0  0  0  0  0
  -27.5850  -37.2410   24.6620 C   0  0  0  0  0  1  0  0  0  0  0  0
  -26.4700  -37.4050   23.7340 N   0  0  0  0  0  0  0  0  0  0  0  0
  -26.0690  -38.3290   23.8790 H   0  0  0  0  0  0  0  0  0  0  0  0
  1  5  1  0
  2  6  1  0
  3  1  2  0
  3  4  1  0
  4  2  2  0
  5 10  1  0
  5  6  2  0
  6  9  1  0
  7  3  1  0
  9  8  1  0
 10 11  1  0
 12 25  1  0
 13 18  1  0
 14 15  1  0
 14 13  1  0
 16 15  1  0
 16 29  1  0
 16 17  1  0
 18 12  1  0
 18 17  1  0
 19 12  2  0
 21 24  1  0
 22 20  1  0
 23 21  1  0
 23 25  1  0
 24 10  1  0
 24 20  1  0
 25 22  1  0
 26 27  2  0
 27 46  1  0
 28 27  1  0
 28 31  1  0
 29 30  1  0
 29 26  1  0
 30 28  2  0
 31 32  1  0
 32 33  2  0
 34 37  1  0
 34 33  1  0
 35 34  2  0
 36 35  1  0
 36 31  2  0
 37 38  1  0
 38 43  2  0
 38 39  1  0
 39 40  2  0
 40 41  1  0
 41 45  1  0
 42 41  2  0
 43 42  1  0
 44 43  1  0
 46 47  1  0
 47 50  1  0
 47 49  1  0
 48 46  2  0
 51 26  1  0
 51 52  1  0
 53 51  1  0
 54  4  1  0
 54 55  1  0
 56 67  2  0
 57 55  1  0
 57 62  1  0
 58 66  1  0
 58 68  1  0
 59 65  1  0
 59 61  1  0
 60 66  1  0
 61 62  2  0
 61 60  1  0
 63 57  2  0
 64 63  1  0
 64 59  2  0
 65 58  1  0
 66 56  1  0
 68 70  2  0
 69 68  1  0
 71 69  1  0
 72 81  2  0
 72 77  1  0
 73 69  1  0
 73 77  1  0
 74 73  1  0
 75 76  1  0
 75 74  1  0
 76 72  1  0
 77 78  2  0
 78 79  1  0
 80 79  2  0
 81 80  1  0
 82 56  1  0
 82 87  1  0
 82 83  1  0
 83 86  1  1
 83 84  1  0
 85 83  1  0
 87 90  1  0
 88 92  1  0
 88 87  1  0
 89 88  2  0
 92 91  1  0
 94 92  1  0
 94 95  1  0
 94 93  1  0
M  ISO  4  12 100  25 100  54 101  55 101
M  END
>  <TORSDO>  (8) 
F 19

>  <SCORE>  (8) 
-13.313

>  <name>  (8) 
7

>  <ligand_id>  (8) 
7

>  <original_smiles>  (8) 
[H]c1c([H])c([H])c2c(c1[H])C([H])([H])C([H])([H])C([H])([H])C2([H])N([H])C(=O)C1([H])N(C(=O)C([H])(N([H])C(=O)C([H])(N([H])C([H])([H])[H])C([H])([H])[H])C(C([H])([H])[H])(C([H])([H])[H])C([H])([H])[H])C([H])([H])c2c([H])c(OC([H])([H])c3c([H])c(OC([H])([H])[H])c(N([H])C4([H])C([H])([H])C([H])([H])N(C(=O)N5C([H])([H])C([H])([H])C([H])([H])C([H])(n6nc(-c7c([H])c([H])c(Oc8c([H])c([H])c(F)c([H])c8F)c([H])c7[H])c(C(=O)N([H])[H])c6N([H])[H])C5([H])[H])C([H])([H])C4([H])[H])c([H])c3C([H])([H])[H])c([H])c([H])c2C1([H])[H]

>  <smiles>  (8) 
[H]c1c([H])c([H])c2c(c1[H])C([H])([H])C([H])([H])C([H])([H])C2([H])N([H])C(=O)C1([H])N(C(=O)C([H])(N([H])C(=O)C([H])(N([H])C([H])([H])[H])C([H])([H])[H])C(C([H])([H])[H])(C([H])([H])[H])C([H])([H])[H])C([H])([H])c2c([H])c(OC([H])([H])c3c([H])c(OC([H])([H])[H])c(N([H])C4([H])C([H])([H])C([H])([H])N(C(=O)N5C([H])([H])C([H])([H])C([H])([H])C([H])(n6nc(-c7c([H])c([H])c(Oc8c([H])c([H])c(F)c([H])c8F)c([H])c7[H])c(C(=O)N([H])[H])c6N([H])[H])C5([H])[H])C([H])([H])C4([H])[H])c([H])c3C([H])([H])[H])c([H])c([H])c2C1([H])[H]

$$$$
8:0:0
     RDKit          3D

 90 98  0  0  1  0  0  0  0  0999 V2000
  -29.6030  -21.7350   18.5000 C   0  0  0  0  0  1  0  0  0  0  0  0
  -29.3610  -22.3390   19.8340 N   0  0  2  0  0  4  0  0  0  0  0  0
  -30.2830  -22.6360   20.1270 H   0  0  0  0  0  0  0  0  0  0  0  0
  -27.4790  -21.2290   21.1480 C   0  0  0  0  0  1  0  0  0  0  0  0
  -28.9840  -21.1900   20.8320 C   0  0  0  0  0  3  0  0  0  0  0  0
  -30.9330  -15.0870   20.2300 C   0  0  0  0  0  0  0  0  0  0  0  0
  -30.6640  -12.7730   19.2520 C   0  0  0  0  0  2  0  0  0  0  0  0
  -29.7440  -12.7460   18.0130 C   0  0  0  0  0  2  0  0  0  0  0  0
  -28.2860  -12.5300   18.4530 C   0  0  0  0  0  2  0  0  0  0  0  0
  -27.8820  -13.4690   19.6180 C   0  0  0  0  0  3  0  0  0  0  0  0
  -28.9380  -13.5240   20.7460 C   0  0  0  0  0  2  0  0  0  0  0  0
  -30.2140  -13.8980   20.1250 N   0  0  0  0  0  0  0  0  0  0  0  0
  -32.1410  -14.9980   19.9820 O   0  0  0  0  0  0  0  0  0  0  0  0
  -28.7010  -18.4550   19.9890 C   0  0  0  0  0  3  0  0  0  0  0  0
  -30.9580  -19.0690   20.5660 C   0  0  0  0  0  3  0  0  0  0  0  0
  -28.9820  -16.9070   20.3510 C   0  0  0  0  0  2  0  0  0  0  0  0
  -31.2800  -17.5330   20.9210 C   0  0  0  0  0  3  0  0  0  0  0  0
  -29.4890  -19.5680   20.7720 C   0  0  0  0  0  0  0  0  0  0  0  0
  -30.3880  -16.3930   20.4720 N   0  0  0  0  0  0  0  0  0  0  0  0
  -25.5060  -14.0770   20.3450 C   0  0  0  0  0  0  0  0  0  0  0  0
  -24.4400  -13.3090   20.7220 C   0  0  0  0  0  0  0  0  0  0  0  0
  -24.9030  -11.9580   20.7200 C   0  0  0  0  0  0  0  0  0  0  0  0
  -26.5480  -13.1910   20.1260 N   0  0  0  0  0  0  0  0  0  0  0  0
  -26.1960  -11.9140   20.4200 N   0  0  0  0  0  0  0  0  0  0  0  0
  -24.1760  -10.6990   20.9250 C   0  0  0  0  0  0  0  0  0  0  0  0
  -24.5830   -9.7630   21.8990 C   0  0  0  0  0  3  0  0  0  0  0  0
  -23.8570   -8.5670   22.0930 C   0  0  0  0  0  3  0  0  0  0  0  0
  -22.7090   -8.3010   21.3100 C   0  0  0  0  0  0  0  0  0  0  0  0
  -22.3220   -9.2270   20.3250 C   0  0  0  0  0  3  0  0  0  0  0  0
  -23.0490  -10.4130   20.1290 C   0  0  0  0  0  3  0  0  0  0  0  0
  -21.9540   -7.1580   21.4120 O   0  0  0  0  0  0  0  0  0  0  0  0
  -21.8560   -6.4620   22.5900 C   0  0  0  0  0  0  0  0  0  0  0  0
  -21.3470   -7.0550   23.7650 C   0  0  0  0  0  3  0  0  0  0  0  0
  -21.2000   -6.2840   24.9360 C   0  0  0  0  0  3  0  0  0  0  0  0
  -21.5510   -4.9200   24.9310 C   0  0  0  0  0  0  0  0  0  0  0  0
  -22.0530   -4.3270   23.7600 C   0  0  0  0  0  3  0  0  0  0  0  0
  -22.2030   -5.0960   22.5910 C   0  0  0  0  0  0  0  0  0  0  0  0
  -22.6680   -4.5140   21.4600 F   0  0  0  0  0  0  0  0  0  0  0  0
  -21.4010   -4.1790   26.0530 F   0  0  0  0  0  0  0  0  0  0  0  0
  -23.0390  -13.7910   20.9710 C   0  0  0  0  0  0  0  0  0  0  0  0
  -22.3050  -13.1180   21.8480 N   0  0  0  0  0  0  0  0  0  0  0  0
  -22.6060  -14.8020   20.4180 O   0  0  0  0  0  0  0  0  0  0  0  0
  -22.6670  -12.2980   22.3150 H   0  0  0  0  0  0  0  0  0  0  0  0
  -21.3630  -13.4210   22.0560 H   0  0  0  0  0  0  0  0  0  0  0  0
  -25.6690  -15.4430   20.1450 N   0  0  0  0  0  0  0  0  0  0  0  0
  -24.8930  -16.0910   20.2260 H   0  0  0  0  0  0  0  0  0  0  0  0
  -26.5210  -15.8850   19.8290 H   0  0  0  0  0  0  0  0  0  0  0  0
  -28.5250  -23.6820   19.6520 C   0  0  0  0  0  2  0  0  0  0  0  0
  -28.6270  -25.0440   20.5810 C   0  0  0  0  0  2  0  0  0  0  0  0
  -28.5930  -26.4950   20.0720 O   0  0  0  0  0  0  0  0  0  0  0  0
  -24.6250  -31.8360   23.1470 C   0  0  0  0  0  0  0  0  0  0  0  0
  -27.4440  -27.3370   20.0920 C   0  0  0  0  0  0  0  0  0  0  0  0
  -23.5030  -30.4200   21.4640 C   0  0  0  0  0  3  0  0  0  0  0  0
  -25.0330  -28.9280   20.0420 C   0  0  0  0  0  0  0  0  0  0  0  0
  -26.0390  -30.8110   21.3330 C   0  0  0  0  0  2  0  0  0  0  0  0
  -26.1790  -29.4360   20.6680 C   0  0  0  0  0  0  0  0  0  0  0  0
  -27.3880  -28.6590   20.6690 C   0  0  0  0  0  3  0  0  0  0  0  0
  -26.2720  -26.9020   19.4430 C   0  0  0  0  0  3  0  0  0  0  0  0
  -25.0870  -27.6720   19.4150 C   0  0  0  0  0  3  0  0  0  0  0  0
  -23.7690  -29.7720   20.0780 C   0  0  0  0  0  2  0  0  0  0  0  0
  -24.7390  -31.0450   22.0370 N   0  0  0  0  0  0  0  0  0  0  0  0
  -23.5220  -32.0640   23.6680 O   0  0  0  0  0  0  0  0  0  0  0  0
  -22.8580  -29.3690   22.3990 C   0  0  0  0  0  0  0  0  0  0  0  0
  -21.5400  -29.1450   22.2520 N   0  0  0  0  0  0  0  0  0  0  0  0
  -23.5470  -28.7550   23.2190 O   0  0  0  0  0  0  0  0  0  0  0  0
  -21.0410  -29.6940   21.5670 H   0  0  0  0  0  0  0  0  0  0  0  0
  -18.2060  -27.8050   22.6870 C   0  0  0  0  0  0  0  0  0  0  0  0
  -20.7490  -28.1630   22.9950 C   0  0  0  0  0  3  0  0  0  0  0  0
  -20.9150  -26.7480   22.3990 C   0  0  0  0  0  2  0  0  0  0  0  0
  -19.8410  -26.3980   21.3640 C   0  0  0  0  0  2  0  0  0  0  0  0
  -18.4450  -26.4760   21.9900 C   0  0  0  0  0  2  0  0  0  0  0  0
  -19.2880  -28.6040   23.1450 C   0  0  0  0  0  0  0  0  0  0  0  0
  -19.0090  -29.8450   23.7590 C   0  0  0  0  0  3  0  0  0  0  0  0
  -17.6830  -30.2890   23.9160 C   0  0  0  0  0  3  0  0  0  0  0  0
  -16.6160  -29.4890   23.4720 C   0  0  0  0  0  3  0  0  0  0  0  0
  -16.8790  -28.2490   22.8630 C   0  0  0  0  0  3  0  0  0  0  0  0
  -25.8700  -32.5070   23.8040 C   0  0  0  0  0  3  0  0  0  0  0  0
  -26.3750  -31.7540   25.0950 C   0  0  1  0  0  0  0  0  0  0  0  0
  -25.2610  -31.4870   26.1330 C   0  0  0  0  0  1  0  0  0  0  0  0
  -27.0080  -30.3910   24.7240 C   0  0  0  0  0  1  0  0  0  0  0  0
  -27.4860  -32.5820   25.7850 C   0  0  0  0  0  1  0  0  0  0  0  0
  -25.5090  -33.8970   24.1270 N   0  0  0  0  0  0  0  0  0  0  0  0
  -25.8110  -34.9600   23.3690 C   0  0  0  0  0  0  0  0  0  0  0  0
  -26.4920  -34.8790   22.3430 O   0  0  0  0  0  0  0  0  0  0  0  0
  -24.9080  -34.0360   24.9260 H   0  0  0  0  0  0  0  0  0  0  0  0
  -24.0210  -36.6910   23.0090 C   0  0  0  0  0  1  0  0  0  0  0  0
  -25.2750  -36.3330   23.8220 C   0  0  0  0  0  3  0  0  0  0  0  0
  -27.3710  -37.3010   24.6580 C   0  0  0  0  0  1  0  0  0  0  0  0
  -26.2690  -37.4210   23.7070 N   0  0  0  0  0  0  0  0  0  0  0  0
  -25.8290  -38.3280   23.8430 H   0  0  0  0  0  0  0  0  0  0  0  0
  1  2  1  0
  2  3  1  1
  2  5  1  0
  5  4  1  0
  6 19  1  0
  7 12  1  0
  8  9  1  0
  8  7  1  0
 10  9  1  0
 10 23  1  0
 10 11  1  0
 12  6  1  0
 12 11  1  0
 13  6  2  0
 14 16  1  0
 14 18  2  0
 15 18  1  0
 15 17  2  0
 16 19  1  0
 18  5  1  0
 19 17  1  0
 20 21  2  0
 21 40  1  0
 22 21  1  0
 22 25  1  0
 23 20  1  0
 23 24  1  0
 24 22  2  0
 25 26  1  0
 26 27  2  0
 28 31  1  0
 28 27  1  0
 29 28  2  0
 30 29  1  0
 30 25  2  0
 31 32  1  0
 32 37  2  0
 32 33  1  0
 33 34  2  0
 35 34  1  0
 35 39  1  0
 36 35  2  0
 37 36  1  0
 38 37  1  0
 40 41  1  0
 41 44  1  0
 41 43  1  0
 42 40  2  0
 45 46  1  0
 45 20  1  0
 47 45  1  0
 48  2  1  0
 48 49  1  0
 50 52  1  0
 50 49  1  0
 51 62  2  0
 52 57  1  0
 53 61  1  0
 53 63  1  0
 54 60  1  0
 54 56  1  0
 55 61  1  0
 56 57  2  0
 56 55  1  0
 58 52  2  0
 59 58  1  0
 59 54  2  0
 60 53  1  0
 61 51  1  0
 63 65  2  0
 64 63  1  0
 66 64  1  0
 67 76  2  0
 67 72  1  0
 68 64  1  0
 68 72  1  0
 69 68  1  0
 70 71  1  0
 70 69  1  0
 71 67  1  0
 72 73  2  0
 73 74  1  0
 75 74  2  0
 76 75  1  0
 77 51  1  0
 77 82  1  0
 77 78  1  0
 78 81  1  1
 78 79  1  0
 80 78  1  0
 82 85  1  0
 83 87  1  0
 83 82  1  0
 84 83  2  0
 87 86  1  0
 89 87  1  0
 89 90  1  0
 89 88  1  0
M  ISO  4   6 100  19 100  49 101  50 101
M  END
>  <TORSDO>  (9) 
F 19

>  <SCORE>  (9) 
-13.915

>  <name>  (9) 
8

>  <ligand_id>  (9) 
8

>  <original_smiles>  (9) 
[H]c1c([H])c([H])c2c(c1[H])C([H])([H])C([H])([H])C([H])([H])C2([H])N([H])C(=O)C1([H])N(C(=O)C([H])(N([H])C(=O)C([H])(N([H])C([H])([H])[H])C([H])([H])[H])C(C([H])([H])[H])(C([H])([H])[H])C([H])([H])[H])C([H])([H])c2c([H])c(OC([H])([H])C([H])([H])[N+]([H])(C([H])([H])[H])C([H])(C([H])([H])[H])C3([H])C([H])([H])C([H])([H])N(C(=O)N4C([H])([H])C([H])([H])C([H])([H])C([H])(n5nc(-c6c([H])c([H])c(Oc7c([H])c([H])c(F)c([H])c7F)c([H])c6[H])c(C(=O)N([H])[H])c5N([H])[H])C4([H])[H])C([H])([H])C3([H])[H])c([H])c([H])c2C1([H])[H]

>  <smiles>  (9) 
[H]c1c([H])c([H])c2c(c1[H])C([H])([H])C([H])([H])C([H])([H])C2([H])N([H])C(=O)C1([H])N(C(=O)C([H])(N([H])C(=O)C([H])(N([H])C([H])([H])[H])C([H])([H])[H])C(C([H])([H])[H])(C([H])([H])[H])C([H])([H])[H])C([H])([H])c2c([H])c(OC([H])([H])C([H])([H])[N+]([H])(C([H])([H])[H])C([H])(C([H])([H])[H])C3([H])C([H])([H])C([H])([H])N(C(=O)N4C([H])([H])C([H])([H])C([H])([H])C([H])(n5nc(-c6c([H])c([H])c(Oc7c([H])c([H])c(F)c([H])c7F)c([H])c6[H])c(C(=O)N([H])[H])c5N([H])[H])C4([H])[H])C([H])([H])C3([H])[H])c([H])c([H])c2C1([H])[H]

$$$$
9:0:0
     RDKit          3D

 92101  0  0  1  0  0  0  0  0999 V2000
  -29.7870  -23.7490   21.2820 C   0  0  0  0  0  2  0  0  0  0  0  0
  -30.1410  -22.2330   21.2630 C   0  0  0  0  0  2  0  0  0  0  0  0
  -28.4510  -22.6300   19.6220 C   0  0  0  0  0  2  0  0  0  0  0  0
  -28.5300  -23.9740   20.4110 C   0  0  0  0  0  3  0  0  0  0  0  0
  -28.9990  -21.4930   20.5430 C   0  0  0  0  0  3  0  0  0  0  0  0
  -29.4200  -20.2450   19.8030 N   0  0  0  0  0  4  0  0  0  0  0  0
  -30.3290  -20.3740   19.3910 H   0  0  0  0  0  0  0  0  0  0  0  0
  -28.7740  -20.2060   19.0310 H   0  0  0  0  0  0  0  0  0  0  0  0
  -30.6820  -14.6580   20.3870 C   0  0  0  0  0  0  0  0  0  0  0  0
  -30.3750  -12.4260   19.3330 C   0  0  0  0  0  2  0  0  0  0  0  0
  -29.4260  -12.5120   18.1200 C   0  0  0  0  0  2  0  0  0  0  0  0
  -27.9670  -12.3190   18.5710 C   0  0  0  0  0  2  0  0  0  0  0  0
  -27.5950  -13.2220   19.7730 C   0  0  0  0  0  3  0  0  0  0  0  0
  -28.6680  -13.1850   20.8870 C   0  0  0  0  0  2  0  0  0  0  0  0
  -29.9720  -13.4870   20.2800 N   0  0  0  0  0  0  0  0  0  0  0  0
  -31.8820  -14.6960   20.1110 O   0  0  0  0  0  0  0  0  0  0  0  0
  -30.5970  -18.3540   21.1270 C   0  0  0  0  0  2  0  0  0  0  0  0
  -29.0330  -17.8090   19.3340 C   0  0  0  0  0  2  0  0  0  0  0  0
  -30.5420  -16.8600   21.6270 C   0  0  0  0  0  2  0  0  0  0  0  0
  -28.9180  -16.3420   19.8350 C   0  0  0  0  0  2  0  0  0  0  0  0
  -29.3120  -18.8660   20.4250 C   0  0  0  0  0  3  0  0  0  0  0  0
  -30.0160  -15.8330   20.6820 N   0  0  0  0  0  0  0  0  0  0  0  0
  -25.2180  -13.8410   20.5090 C   0  0  0  0  0  0  0  0  0  0  0  0
  -24.1510  -13.0730   20.8830 C   0  0  0  0  0  0  0  0  0  0  0  0
  -24.6120  -11.7210   20.8620 C   0  0  0  0  0  0  0  0  0  0  0  0
  -26.2580  -12.9530   20.2790 N   0  0  0  0  0  0  0  0  0  0  0  0
  -25.9020  -11.6760   20.5560 N   0  0  0  0  0  0  0  0  0  0  0  0
  -23.8880  -10.4630   21.0540 C   0  0  0  0  0  0  0  0  0  0  0  0
  -24.3340   -9.4910   21.9780 C   0  0  0  0  0  3  0  0  0  0  0  0
  -23.6110   -8.2940   22.1600 C   0  0  0  0  0  3  0  0  0  0  0  0
  -22.4290   -8.0600   21.4160 C   0  0  0  0  0  0  0  0  0  0  0  0
  -22.0050   -9.0190   20.4810 C   0  0  0  0  0  3  0  0  0  0  0  0
  -22.7280  -10.2090   20.2980 C   0  0  0  0  0  3  0  0  0  0  0  0
  -21.6750   -6.9160   21.5100 O   0  0  0  0  0  0  0  0  0  0  0  0
  -21.6540   -6.1600   22.6540 C   0  0  0  0  0  0  0  0  0  0  0  0
  -21.2730   -6.7050   23.9000 C   0  0  0  0  0  3  0  0  0  0  0  0
  -21.1990   -5.8760   25.0370 C   0  0  0  0  0  3  0  0  0  0  0  0
  -21.4950   -4.5040   24.9300 C   0  0  0  0  0  0  0  0  0  0  0  0
  -21.8720   -3.9600   23.6900 C   0  0  0  0  0  3  0  0  0  0  0  0
  -21.9480   -4.7850   22.5540 C   0  0  0  0  0  0  0  0  0  0  0  0
  -22.2910   -4.2510   21.3570 F   0  0  0  0  0  0  0  0  0  0  0  0
  -21.4160   -3.7060   26.0210 F   0  0  0  0  0  0  0  0  0  0  0  0
  -22.7540  -13.5530   21.1480 C   0  0  0  0  0  0  0  0  0  0  0  0
  -22.0260  -12.8640   22.0170 N   0  0  0  0  0  0  0  0  0  0  0  0
  -22.3180  -14.5740   20.6170 O   0  0  0  0  0  0  0  0  0  0  0  0
  -22.3920  -12.0370   22.4660 H   0  0  0  0  0  0  0  0  0  0  0  0
  -21.0880  -13.1650   22.2400 H   0  0  0  0  0  0  0  0  0  0  0  0
  -25.3800  -15.2110   20.3190 N   0  0  0  0  0  0  0  0  0  0  0  0
  -24.6080  -15.8620   20.4170 H   0  0  0  0  0  0  0  0  0  0  0  0
  -26.2220  -15.6460   19.9700 H   0  0  0  0  0  0  0  0  0  0  0  0
  -28.5270  -25.2880   19.5240 C   0  0  0  0  0  2  0  0  0  0  0  0
  -28.3990  -26.5970   20.1750 O   0  0  0  0  0  0  0  0  0  0  0  0
  -24.6170  -31.8820   23.2190 C   0  0  0  0  0  0  0  0  0  0  0  0
  -27.2260  -27.3590   20.1330 C   0  0  0  0  0  0  0  0  0  0  0  0
  -23.4020  -30.4840   21.5840 C   0  0  0  0  0  3  0  0  0  0  0  0
  -24.8440  -28.9350   20.1530 C   0  0  0  0  0  0  0  0  0  0  0  0
  -25.9330  -30.8170   21.3750 C   0  0  0  0  0  2  0  0  0  0  0  0
  -26.0110  -29.4370   20.7370 C   0  0  0  0  0  0  0  0  0  0  0  0
  -27.2010  -28.6570   20.7210 C   0  0  0  0  0  3  0  0  0  0  0  0
  -26.0240  -26.8870   19.5510 C   0  0  0  0  0  3  0  0  0  0  0  0
  -24.8490  -27.6640   19.5560 C   0  0  0  0  0  3  0  0  0  0  0  0
  -23.6060  -29.8060   20.2040 C   0  0  0  0  0  2  0  0  0  0  0  0
  -24.6700  -31.0780   22.1180 N   0  0  0  0  0  0  0  0  0  0  0  0
  -23.5370  -32.1560   23.7620 O   0  0  0  0  0  0  0  0  0  0  0  0
  -22.7490  -29.4640   22.5470 C   0  0  0  0  0  0  0  0  0  0  0  0
  -21.4220  -29.2850   22.4250 N   0  0  0  0  0  0  0  0  0  0  0  0
  -23.4330  -28.8390   23.3610 O   0  0  0  0  0  0  0  0  0  0  0  0
  -20.9280  -29.8460   21.7450 H   0  0  0  0  0  0  0  0  0  0  0  0
  -18.0530  -28.0770   22.9270 C   0  0  0  0  0  0  0  0  0  0  0  0
  -20.6090  -28.3470   23.2020 C   0  0  0  0  0  3  0  0  0  0  0  0
  -20.7170  -26.9140   22.6300 C   0  0  0  0  0  2  0  0  0  0  0  0
  -19.6180  -26.5840   21.6170 C   0  0  0  0  0  2  0  0  0  0  0  0
  -18.2360  -26.7260   22.2590 C   0  0  0  0  0  2  0  0  0  0  0  0
  -19.1680  -28.8450   23.3560 C   0  0  0  0  0  0  0  0  0  0  0  0
  -18.9420  -30.1100   23.9420 C   0  0  0  0  0  3  0  0  0  0  0  0
  -17.6350  -30.6060   24.1050 C   0  0  0  0  0  3  0  0  0  0  0  0
  -16.5350  -29.8360   23.6930 C   0  0  0  0  0  3  0  0  0  0  0  0
  -16.7450  -28.5740   23.1080 C   0  0  0  0  0  3  0  0  0  0  0  0
  -25.9030  -32.5130   23.8350 C   0  0  0  0  0  3  0  0  0  0  0  0
  -25.5930  -33.9090   24.1750 N   0  0  0  0  0  0  0  0  0  0  0  0
  -25.9200  -34.9660   23.4200 C   0  0  0  0  0  0  0  0  0  0  0  0
  -26.5850  -34.8680   22.3850 O   0  0  0  0  0  0  0  0  0  0  0  0
  -24.9960  -34.0580   24.9750 H   0  0  0  0  0  0  0  0  0  0  0  0
  -24.1870  -36.7590   23.0860 C   0  0  0  0  0  1  0  0  0  0  0  0
  -25.4340  -36.3520   23.8870 C   0  0  0  0  0  3  0  0  0  0  0  0
  -27.5720  -37.2360   24.7080 C   0  0  0  0  0  1  0  0  0  0  0  0
  -26.4640  -37.4070   23.7720 N   0  0  0  0  0  0  0  0  0  0  0  0
  -26.0560  -38.3260   23.9290 H   0  0  0  0  0  0  0  0  0  0  0  0
  -26.4330  -31.7360   25.1020 C   0  0  1  0  0  0  0  0  0  0  0  0
  -25.3490  -31.4830   26.1770 C   0  0  0  0  0  1  0  0  0  0  0  0
  -27.0130  -30.3630   24.6900 C   0  0  0  0  0  1  0  0  0  0  0  0
  -27.5890  -32.5250   25.7590 C   0  0  0  0  0  1  0  0  0  0  0  0
  2  1  1  0
  3  4  1  0
  3  5  1  0
  4 51  1  0
  4  1  1  0
  5  6  1  0
  5  2  1  0
  7  6  1  0
  8  6  1  0
  9 22  1  0
 10 15  1  0
 11 12  1  0
 11 10  1  0
 13 12  1  0
 13 26  1  0
 13 14  1  0
 15  9  1  0
 15 14  1  0
 16  9  2  0
 17 19  1  0
 18 20  1  0
 18 21  1  0
 20 22  1  0
 21  6  1  0
 21 17  1  0
 22 19  1  0
 23 24  2  0
 24 43  1  0
 25 24  1  0
 25 28  1  0
 26 23  1  0
 26 27  1  0
 27 25  2  0
 28 29  1  0
 29 30  2  0
 31 34  1  0
 31 30  1  0
 32 31  2  0
 33 32  1  0
 33 28  2  0
 34 35  1  0
 35 36  1  0
 36 37  2  0
 38 37  1  0
 38 42  1  0
 39 38  2  0
 40 35  2  0
 40 39  1  0
 41 40  1  0
 43 44  1  0
 44 47  1  0
 44 46  1  0
 45 43  2  0
 48 49  1  0
 48 23  1  0
 50 48  1  0
 51 52  1  0
 53 64  2  0
 54 52  1  0
 54 59  1  0
 55 63  1  0
 55 65  1  0
 56 62  1  0
 56 58  1  0
 57 63  1  0
 58 57  1  0
 59 58  2  0
 60 61  1  0
 60 54  2  0
 61 56  2  0
 62 55  1  0
 63 53  1  0
 65 67  2  0
 66 65  1  0
 68 66  1  0
 69 78  2  0
 69 74  1  0
 70 66  1  0
 70 74  1  0
 71 70  1  0
 72 73  1  0
 72 71  1  0
 73 69  1  0
 74 75  2  0
 75 76  1  0
 77 76  2  0
 78 77  1  0
 79 53  1  0
 79 80  1  0
 79 89  1  0
 80 83  1  0
 81 85  1  0
 81 80  1  0
 82 81  2  0
 85 84  1  0
 87 85  1  0
 87 88  1  0
 87 86  1  0
 89 92  1  1
 89 90  1  0
 91 89  1  0
M  ISO  4   9 100  22 100  51 101  52 101
M  END
>  <TORSDO>  (10) 
F 18

>  <SCORE>  (10) 
-14.898

>  <name>  (10) 
9

>  <ligand_id>  (10) 
9

>  <original_smiles>  (10) 
[H]c1c([H])c([H])c2c(c1[H])C([H])([H])C([H])([H])C([H])([H])C2([H])N([H])C(=O)C1([H])N(C(=O)C([H])(N([H])C(=O)C([H])(N([H])C([H])([H])[H])C([H])([H])[H])C(C([H])([H])[H])(C([H])([H])[H])C([H])([H])[H])C([H])([H])c2c([H])c(OC([H])([H])C3([H])C([H])([H])C([H])([H])C([H])([N+]([H])([H])C4([H])C([H])([H])C([H])([H])N(C(=O)N5C([H])([H])C([H])([H])C([H])([H])C([H])(n6nc(-c7c([H])c([H])c(Oc8c([H])c([H])c(F)c([H])c8F)c([H])c7[H])c(C(=O)N([H])[H])c6N([H])[H])C5([H])[H])C([H])([H])C4([H])[H])C3([H])[H])c([H])c([H])c2C1([H])[H]

>  <smiles>  (10) 
[H]c1c([H])c([H])c2c(c1[H])C([H])([H])C([H])([H])C([H])([H])C2([H])N([H])C(=O)C1([H])N(C(=O)C([H])(N([H])C(=O)C([H])(N([H])C([H])([H])[H])C([H])([H])[H])C(C([H])([H])[H])(C([H])([H])[H])C([H])([H])[H])C([H])([H])c2c([H])c(OC([H])([H])C3([H])C([H])([H])C([H])([H])C([H])([N+]([H])([H])C4([H])C([H])([H])C([H])([H])N(C(=O)N5C([H])([H])C([H])([H])C([H])([H])C([H])(n6nc(-c7c([H])c([H])c(Oc8c([H])c([H])c(F)c([H])c8F)c([H])c7[H])c(C(=O)N([H])[H])c6N([H])[H])C5([H])[H])C([H])([H])C4([H])[H])C3([H])[H])c([H])c([H])c2C1([H])[H]

$$$$
10:0:0
     RDKit          3D

 93102  0  0  1  0  0  0  0  0999 V2000
  -27.1920  -18.9440   18.2310 C   0  0  0  0  0  3  0  0  0  0  0  0
  -26.5320  -20.0270   18.8070 C   0  0  0  0  0  3  0  0  0  0  0  0
  -28.4720  -18.5990   18.6820 C   0  0  0  0  0  0  0  0  0  0  0  0
  -29.1050  -19.2830   19.7630 C   0  0  0  0  0  0  0  0  0  0  0  0
  -27.2380  -20.9190   19.6270 C   0  0  0  0  0  0  0  0  0  0  0  0
  -28.6240  -20.7440   19.9320 C   0  0  0  0  0  0  0  0  0  0  0  0
  -29.2110  -17.5010   17.9150 C   0  0  0  0  0  2  0  0  0  0  0  0
  -30.7590  -17.6550   17.9400 C   0  0  0  0  0  2  0  0  0  0  0  0
  -31.3250  -18.3010   19.2290 C   0  0  0  0  0  2  0  0  0  0  0  0
  -30.2790  -18.2520   20.3500 C   0  0  0  0  0  3  0  0  0  0  0  0
  -26.4180  -22.0630   20.2030 C   0  0  0  0  0  1  0  0  0  0  0  0
  -30.8110  -15.4640   20.7080 C   0  0  0  0  0  0  0  0  0  0  0  0
  -30.8210  -13.0110   19.9990 C   0  0  0  0  0  2  0  0  0  0  0  0
  -30.0190  -12.7970   18.6930 C   0  0  0  0  0  2  0  0  0  0  0  0
  -28.5260  -12.5830   19.0060 C   0  0  0  0  0  2  0  0  0  0  0  0
  -27.9870  -13.6070   20.0380 C   0  0  0  0  0  3  0  0  0  0  0  0
  -28.9260  -13.7830   21.2490 C   0  0  0  0  0  2  0  0  0  0  0  0
  -30.2340  -14.1850   20.7180 N   0  0  0  0  0  0  0  0  0  0  0  0
  -32.0380  -15.4850   20.5660 O   0  0  0  0  0  0  0  0  0  0  0  0
  -30.0240  -16.6740   20.6550 N   0  0  0  0  0  0  0  0  0  0  0  0
  -29.0440  -16.4780   20.7920 H   0  0  0  0  0  0  0  0  0  0  0  0
  -25.5580  -14.1990   20.5660 C   0  0  0  0  0  0  0  0  0  0  0  0
  -24.4660  -13.4340   20.8720 C   0  0  0  0  0  0  0  0  0  0  0  0
  -24.9310  -12.0830   20.9200 C   0  0  0  0  0  0  0  0  0  0  0  0
  -26.6150  -13.3160   20.4390 N   0  0  0  0  0  0  0  0  0  0  0  0
  -26.2430  -12.0400   20.7200 N   0  0  0  0  0  0  0  0  0  0  0  0
  -24.1870  -10.8270   21.0860 C   0  0  0  0  0  0  0  0  0  0  0  0
  -24.5480   -9.8800   22.0710 C   0  0  0  0  0  3  0  0  0  0  0  0
  -23.8050   -8.6900   22.2260 C   0  0  0  0  0  3  0  0  0  0  0  0
  -22.6860   -8.4380   21.3960 C   0  0  0  0  0  0  0  0  0  0  0  0
  -22.3450   -9.3740   20.4020 C   0  0  0  0  0  3  0  0  0  0  0  0
  -23.0890  -10.5550   20.2460 C   0  0  0  0  0  3  0  0  0  0  0  0
  -21.9210   -7.2990   21.4570 O   0  0  0  0  0  0  0  0  0  0  0  0
  -21.7950   -6.5790   22.6170 C   0  0  0  0  0  0  0  0  0  0  0  0
  -21.2730   -7.1520   23.7980 C   0  0  0  0  0  3  0  0  0  0  0  0
  -21.0930   -6.3560   24.9470 C   0  0  0  0  0  3  0  0  0  0  0  0
  -21.4250   -4.9880   24.9150 C   0  0  0  0  0  0  0  0  0  0  0  0
  -21.9410   -4.4140   23.7410 C   0  0  0  0  0  3  0  0  0  0  0  0
  -22.1210   -5.2070   22.5940 C   0  0  0  0  0  0  0  0  0  0  0  0
  -22.5970   -4.6430   21.4560 F   0  0  0  0  0  0  0  0  0  0  0  0
  -21.2470   -4.2230   26.0180 F   0  0  0  0  0  0  0  0  0  0  0  0
  -23.0530  -13.9190   21.0090 C   0  0  0  0  0  0  0  0  0  0  0  0
  -22.2540  -13.2510   21.8330 N   0  0  0  0  0  0  0  0  0  0  0  0
  -22.6640  -14.9290   20.4240 O   0  0  0  0  0  0  0  0  0  0  0  0
  -22.5800  -12.4350   22.3290 H   0  0  0  0  0  0  0  0  0  0  0  0
  -21.3030  -13.5640   21.9750 H   0  0  0  0  0  0  0  0  0  0  0  0
  -25.7350  -15.5640   20.3600 N   0  0  0  0  0  0  0  0  0  0  0  0
  -24.9540  -16.2100   20.3740 H   0  0  0  0  0  0  0  0  0  0  0  0
  -26.5940  -15.9970   20.0490 H   0  0  0  0  0  0  0  0  0  0  0  0
  -29.2270  -22.0310   20.3300 O   0  0  0  0  0  0  0  0  0  0  0  0
  -28.8900  -23.4630   19.7020 C   0  0  0  0  0  2  0  0  0  0  0  0
  -28.2240  -24.9190   20.3590 C   0  0  0  0  0  2  0  0  0  0  0  0
  -28.4020  -26.4470   19.9570 O   0  0  0  0  0  0  0  0  0  0  0  0
  -24.8090  -31.9860   23.3890 C   0  0  0  0  0  0  0  0  0  0  0  0
  -27.3470  -27.4460   20.0270 C   0  0  0  0  0  0  0  0  0  0  0  0
  -23.5900  -30.6980   21.6790 C   0  0  0  0  0  3  0  0  0  0  0  0
  -25.0220  -29.2170   20.1340 C   0  0  0  0  0  0  0  0  0  0  0  0
  -26.1430  -30.9710   21.4960 C   0  0  0  0  0  2  0  0  0  0  0  0
  -26.2110  -29.6190   20.7550 C   0  0  0  0  0  0  0  0  0  0  0  0
  -27.3760  -28.7550   20.6790 C   0  0  0  0  0  3  0  0  0  0  0  0
  -26.1300  -27.1630   19.3730 C   0  0  0  0  0  3  0  0  0  0  0  0
  -24.9960  -28.0050   19.4250 C   0  0  0  0  0  3  0  0  0  0  0  0
  -23.7950  -30.1140   20.2550 C   0  0  0  0  0  2  0  0  0  0  0  0
  -24.8690  -31.2390   22.2430 N   0  0  0  0  0  0  0  0  0  0  0  0
  -23.7300  -32.2320   23.9500 O   0  0  0  0  0  0  0  0  0  0  0  0
  -22.9250  -29.6290   22.5830 C   0  0  0  0  0  0  0  0  0  0  0  0
  -21.6030  -29.4320   22.4340 N   0  0  0  0  0  0  0  0  0  0  0  0
  -23.6040  -28.9800   23.3830 O   0  0  0  0  0  0  0  0  0  0  0  0
  -21.1090  -30.0100   21.7690 H   0  0  0  0  0  0  0  0  0  0  0  0
  -18.2580  -28.0900   22.8090 C   0  0  0  0  0  0  0  0  0  0  0  0
  -20.7990  -28.4360   23.1480 C   0  0  0  0  0  3  0  0  0  0  0  0
  -20.9680  -27.0320   22.5210 C   0  0  0  0  0  2  0  0  0  0  0  0
  -19.9020  -26.7100   21.4690 C   0  0  0  0  0  2  0  0  0  0  0  0
  -18.5010  -26.7770   22.0840 C   0  0  0  0  0  2  0  0  0  0  0  0
  -19.3370  -28.8760   23.2950 C   0  0  0  0  0  0  0  0  0  0  0  0
  -19.0550  -30.1030   23.9340 C   0  0  0  0  0  3  0  0  0  0  0  0
  -17.7280  -30.5450   24.0910 C   0  0  0  0  0  3  0  0  0  0  0  0
  -16.6640  -29.7570   23.6200 C   0  0  0  0  0  3  0  0  0  0  0  0
  -16.9300  -28.5310   22.9840 C   0  0  0  0  0  3  0  0  0  0  0  0
  -26.0930  -32.5850   24.0400 C   0  0  0  0  0  3  0  0  0  0  0  0
  -26.6130  -31.7440   25.2710 C   0  0  1  0  0  0  0  0  0  0  0  0
  -25.5240  -31.4540   26.3300 C   0  0  0  0  0  1  0  0  0  0  0  0
  -27.1890  -30.3870   24.8050 C   0  0  0  0  0  1  0  0  0  0  0  0
  -27.7700  -32.4970   25.9670 C   0  0  0  0  0  1  0  0  0  0  0  0
  -25.7850  -33.9630   24.4580 N   0  0  0  0  0  0  0  0  0  0  0  0
  -26.1390  -35.0650   23.7840 C   0  0  0  0  0  0  0  0  0  0  0  0
  -26.8260  -35.0270   22.7590 O   0  0  0  0  0  0  0  0  0  0  0  0
  -25.1760  -34.0650   25.2570 H   0  0  0  0  0  0  0  0  0  0  0  0
  -24.4510  -36.9130   23.5180 C   0  0  0  0  0  1  0  0  0  0  0  0
  -25.6590  -36.4240   24.3320 C   0  0  0  0  0  3  0  0  0  0  0  0
  -27.7780  -37.2110   25.2950 C   0  0  0  0  0  1  0  0  0  0  0  0
  -26.7110  -37.4650   24.3300 N   0  0  0  0  0  0  0  0  0  0  0  0
  -26.3130  -38.3790   24.5290 H   0  0  0  0  0  0  0  0  0  0  0  0
  1  3  2  0
  1  2  1  0
  2  5  2  0
  3  4  1  0
  4  6  2  0
  4 10  1  0
  5  6  1  0
  5 11  1  0
  6 50  1  0
  7  8  1  0
  7  3  1  0
  8  9  1  0
  9 10  1  0
 10 20  1  0
 12 18  1  0
 13 18  1  0
 14 15  1  0
 14 13  1  0
 16 15  1  0
 16 25  1  0
 16 17  1  0
 18 17  1  0
 19 12  2  0
 20 12  1  0
 20 21  1  0
 22 23  2  0
 23 24  1  0
 23 42  1  0
 24 27  1  0
 25 22  1  0
 25 26  1  0
 26 24  2  0
 27 28  1  0
 28 29  2  0
 30 33  1  0
 30 29  1  0
 31 30  2  0
 32 31  1  0
 32 27  2  0
 33 34  1  0
 34 35  1  0
 35 36  2  0
 37 36  1  0
 37 41  1  0
 38 37  2  0
 39 34  2  0
 39 38  1  0
 40 39  1  0
 42 43  1  0
 43 46  1  0
 43 45  1  0
 44 42  2  0
 47 48  1  0
 47 22  1  0
 49 47  1  0
 51 50  1  0
 51 52  1  0
 53 55  1  0
 53 52  1  0
 54 65  2  0
 55 60  1  0
 56 64  1  0
 56 66  1  0
 57 63  1  0
 57 59  1  0
 58 64  1  0
 59 58  1  0
 60 59  2  0
 61 62  1  0
 61 55  2  0
 62 57  2  0
 63 56  1  0
 64 54  1  0
 66 68  2  0
 67 66  1  0
 69 67  1  0
 70 79  2  0
 70 75  1  0
 71 67  1  0
 71 75  1  0
 72 71  1  0
 73 74  1  0
 73 72  1  0
 74 70  1  0
 75 76  2  0
 76 77  1  0
 78 77  2  0
 79 78  1  0
 80 54  1  0
 80 85  1  0
 80 81  1  0
 81 84  1  1
 81 82  1  0
 83 81  1  0
 85 88  1  0
 86 90  1  0
 86 85  1  0
 87 86  2  0
 90 89  1  0
 92 90  1  0
 92 93  1  0
 92 91  1  0
M  ISO  4  12 100  20 100  52 101  53 101
M  END
>  <TORSDO>  (11) 
F 19

>  <SCORE>  (11) 
-13.355

>  <name>  (11) 
10

>  <ligand_id>  (11) 
10

>  <original_smiles>  (11) 
[H]c1c([H])c([H])c2c(c1[H])C([H])([H])C([H])([H])C([H])([H])C2([H])N([H])C(=O)C1([H])N(C(=O)C([H])(N([H])C(=O)C([H])(N([H])C([H])([H])[H])C([H])([H])[H])C(C([H])([H])[H])(C([H])([H])[H])C([H])([H])[H])C([H])([H])c2c([H])c(OC([H])([H])C([H])([H])Oc3c(C([H])([H])[H])c([H])c([H])c4c3C([H])(N([H])C(=O)N3C([H])([H])C([H])([H])C([H])([H])C([H])(n5nc(-c6c([H])c([H])c(Oc7c([H])c([H])c(F)c([H])c7F)c([H])c6[H])c(C(=O)N([H])[H])c5N([H])[H])C3([H])[H])C([H])([H])C([H])([H])C4([H])[H])c([H])c([H])c2C1([H])[H]

>  <smiles>  (11) 
[H]c1c([H])c([H])c2c(c1[H])C([H])([H])C([H])([H])C([H])([H])C2([H])N([H])C(=O)C1([H])N(C(=O)C([H])(N([H])C(=O)C([H])(N([H])C([H])([H])[H])C([H])([H])[H])C(C([H])([H])[H])(C([H])([H])[H])C([H])([H])[H])C([H])([H])c2c([H])c(OC([H])([H])C([H])([H])Oc3c(C([H])([H])[H])c([H])c([H])c4c3C([H])(N([H])C(=O)N3C([H])([H])C([H])([H])C([H])([H])C([H])(n5nc(-c6c([H])c([H])c(Oc7c([H])c([H])c(F)c([H])c7F)c([H])c6[H])c(C(=O)N([H])[H])c5N([H])[H])C3([H])[H])C([H])([H])C([H])([H])C4([H])[H])c([H])c([H])c2C1([H])[H]

$$$$
11:0:0
     RDKit          3D

 93102  0  0  1  0  0  0  0  0999 V2000
  -28.0820  -24.0500   21.6100 C   0  0  0  0  0  2  0  0  0  0  0  0
  -28.5530  -22.5310   21.6450 C   0  0  0  0  0  2  0  0  0  0  0  0
  -29.4950  -23.5240   19.7970 C   0  0  0  0  0  2  0  0  0  0  0  0
  -28.4810  -24.7460   20.2800 C   0  0  0  0  0  3  0  0  0  0  0  0
  -28.9880  -21.9970   20.2420 C   0  0  1  0  0  0  0  0  0  0  0  0
  -31.3600  -20.8370   20.1740 C   0  0  0  0  0  3  0  0  0  0  0  0
  -29.6620  -19.1710   20.4640 C   0  0  0  0  0  3  0  0  0  0  0  0
  -29.9750  -20.6330   20.3000 C   0  0  0  0  0  0  0  0  0  0  0  0
  -32.2710  -19.7600   20.2070 C   0  0  0  0  0  0  0  0  0  0  0  0
  -30.6540  -18.0440   20.5000 C   0  0  0  0  0  0  0  0  0  0  0  0
  -33.7500  -20.0410   20.0490 C   0  0  0  0  0  1  0  0  0  0  0  0
  -31.9370  -18.4520   20.3610 N   0  0  0  0  0  0  0  0  0  0  0  0
  -31.1900  -15.3250   20.5870 C   0  0  0  0  0  0  0  0  0  0  0  0
  -31.1740  -12.9220   19.7290 C   0  0  0  0  0  2  0  0  0  0  0  0
  -30.3090  -12.7960   18.4530 C   0  0  0  0  0  2  0  0  0  0  0  0
  -28.8330  -12.5530   18.8230 C   0  0  0  0  0  2  0  0  0  0  0  0
  -28.3430  -13.5060   19.9450 C   0  0  0  0  0  3  0  0  0  0  0  0
  -29.3410  -13.6040   21.1190 C   0  0  0  0  0  2  0  0  0  0  0  0
  -30.6210  -14.0430   20.5520 N   0  0  0  0  0  0  0  0  0  0  0  0
  -32.4100  -15.3590   20.3800 O   0  0  0  0  0  0  0  0  0  0  0  0
  -30.3860  -16.5220   20.6610 N   0  0  0  0  0  0  0  0  0  0  0  0
  -29.4140  -16.3090   20.8190 H   0  0  0  0  0  0  0  0  0  0  0  0
  -25.9350  -14.0480   20.6010 C   0  0  0  0  0  0  0  0  0  0  0  0
  -24.8650  -13.2570   20.9190 C   0  0  0  0  0  0  0  0  0  0  0  0
  -25.3440  -11.9120   20.8880 C   0  0  0  0  0  0  0  0  0  0  0  0
  -26.9930  -13.1840   20.3890 N   0  0  0  0  0  0  0  0  0  0  0  0
  -26.6470  -11.8920   20.6300 N   0  0  0  0  0  0  0  0  0  0  0  0
  -24.6220  -10.6390   21.0300 C   0  0  0  0  0  0  0  0  0  0  0  0
  -24.9650   -9.7030   22.0300 C   0  0  0  0  0  3  0  0  0  0  0  0
  -24.2410   -8.4970   22.1590 C   0  0  0  0  0  3  0  0  0  0  0  0
  -23.1610   -8.2200   21.2880 C   0  0  0  0  0  0  0  0  0  0  0  0
  -22.8390   -9.1460   20.2790 C   0  0  0  0  0  3  0  0  0  0  0  0
  -23.5640  -10.3420   20.1480 C   0  0  0  0  0  3  0  0  0  0  0  0
  -22.4180   -7.0650   21.3220 O   0  0  0  0  0  0  0  0  0  0  0  0
  -22.1510   -6.4170   22.5010 C   0  0  0  0  0  0  0  0  0  0  0  0
  -21.4810   -7.0550   23.5670 C   0  0  0  0  0  3  0  0  0  0  0  0
  -21.1640   -6.3300   24.7340 C   0  0  0  0  0  3  0  0  0  0  0  0
  -21.5090   -4.9700   24.8330 C   0  0  0  0  0  0  0  0  0  0  0  0
  -22.1720   -4.3300   23.7720 C   0  0  0  0  0  3  0  0  0  0  0  0
  -22.4890   -5.0520   22.6070 C   0  0  0  0  0  0  0  0  0  0  0  0
  -23.1090   -4.4270   21.5770 F   0  0  0  0  0  0  0  0  0  0  0  0
  -21.1980   -4.2710   25.9510 F   0  0  0  0  0  0  0  0  0  0  0  0
  -23.4530  -13.7180   21.1370 C   0  0  0  0  0  0  0  0  0  0  0  0
  -22.7040  -13.0170   21.9800 N   0  0  0  0  0  0  0  0  0  0  0  0
  -23.0230  -14.7350   20.5950 O   0  0  0  0  0  0  0  0  0  0  0  0
  -23.0640  -12.1920   22.4360 H   0  0  0  0  0  0  0  0  0  0  0  0
  -21.7560  -13.3090   22.1720 H   0  0  0  0  0  0  0  0  0  0  0  0
  -26.0880  -15.4230   20.4450 N   0  0  0  0  0  0  0  0  0  0  0  0
  -25.2990  -16.0570   20.5130 H   0  0  0  0  0  0  0  0  0  0  0  0
  -26.9220  -15.8690   20.0850 H   0  0  0  0  0  0  0  0  0  0  0  0
  -26.5490  -21.0060   20.0310 C   0  0  0  0  0  1  0  0  0  0  0  0
  -27.7680  -21.6450   19.3390 C   0  0  0  0  0  2  0  0  0  0  0  0
  -28.7080  -26.3140   20.3820 O   0  0  0  0  0  0  0  0  0  0  0  0
  -24.9230  -31.9270   23.4490 C   0  0  0  0  0  0  0  0  0  0  0  0
  -27.6480  -27.3110   20.3450 C   0  0  0  0  0  0  0  0  0  0  0  0
  -23.8010  -30.5840   21.7160 C   0  0  0  0  0  3  0  0  0  0  0  0
  -25.3170  -29.0740   20.2870 C   0  0  0  0  0  0  0  0  0  0  0  0
  -26.3610  -30.8660   21.6590 C   0  0  0  0  0  2  0  0  0  0  0  0
  -26.4710  -29.4950   20.9600 C   0  0  0  0  0  0  0  0  0  0  0  0
  -27.6370  -28.6310   20.9690 C   0  0  0  0  0  3  0  0  0  0  0  0
  -26.4710  -27.0140   19.6250 C   0  0  0  0  0  3  0  0  0  0  0  0
  -25.3330  -27.8500   19.6030 C   0  0  0  0  0  3  0  0  0  0  0  0
  -24.0820  -29.9640   20.3220 C   0  0  0  0  0  2  0  0  0  0  0  0
  -25.0480  -31.1470   22.3300 N   0  0  0  0  0  0  0  0  0  0  0  0
  -23.8150  -32.1820   23.9430 O   0  0  0  0  0  0  0  0  0  0  0  0
  -23.0980  -29.5340   22.6130 C   0  0  0  0  0  0  0  0  0  0  0  0
  -21.7780  -29.3530   22.4300 N   0  0  0  0  0  0  0  0  0  0  0  0
  -23.7440  -28.8860   23.4400 O   0  0  0  0  0  0  0  0  0  0  0  0
  -21.3120  -29.9290   21.7420 H   0  0  0  0  0  0  0  0  0  0  0  0
  -18.3840  -28.1380   22.8050 C   0  0  0  0  0  0  0  0  0  0  0  0
  -20.9390  -28.3790   23.1340 C   0  0  0  0  0  3  0  0  0  0  0  0
  -21.0490  -26.9800   22.4880 C   0  0  0  0  0  2  0  0  0  0  0  0
  -19.9670  -26.7140   21.4360 C   0  0  0  0  0  2  0  0  0  0  0  0
  -18.5720  -26.8280   22.0600 C   0  0  0  0  0  2  0  0  0  0  0  0
  -19.4960  -28.8740   23.2960 C   0  0  0  0  0  0  0  0  0  0  0  0
  -19.2670  -30.1010   23.9540 C   0  0  0  0  0  3  0  0  0  0  0  0
  -17.9580  -30.5930   24.1260 C   0  0  0  0  0  3  0  0  0  0  0  0
  -16.8610  -29.8530   23.6510 C   0  0  0  0  0  3  0  0  0  0  0  0
  -17.0760  -28.6280   22.9960 C   0  0  0  0  0  3  0  0  0  0  0  0
  -26.1680  -32.5530   24.1480 C   0  0  0  0  0  3  0  0  0  0  0  0
  -25.8430  -33.9510   24.4770 N   0  0  0  0  0  0  0  0  0  0  0  0
  -26.1850  -35.0110   23.7330 C   0  0  0  0  0  0  0  0  0  0  0  0
  -26.8690  -34.9160   22.7110 O   0  0  0  0  0  0  0  0  0  0  0  0
  -25.2380  -34.0990   25.2710 H   0  0  0  0  0  0  0  0  0  0  0  0
  -24.4420  -36.7940   23.3840 C   0  0  0  0  0  1  0  0  0  0  0  0
  -25.6870  -36.3960   24.1930 C   0  0  0  0  0  3  0  0  0  0  0  0
  -27.8100  -37.3040   25.0280 C   0  0  0  0  0  1  0  0  0  0  0  0
  -26.7120  -37.4590   24.0780 N   0  0  0  0  0  0  0  0  0  0  0  0
  -26.2970  -38.3750   24.2200 H   0  0  0  0  0  0  0  0  0  0  0  0
  -26.6060  -31.7720   25.4480 C   0  0  1  0  0  0  0  0  0  0  0  0
  -25.4490  -31.5200   26.4420 C   0  0  0  0  0  1  0  0  0  0  0  0
  -27.2200  -30.4010   25.0840 C   0  0  0  0  0  1  0  0  0  0  0  0
  -27.7090  -32.5650   26.1880 C   0  0  0  0  0  1  0  0  0  0  0  0
  1  2  1  0
  3  5  1  0
  3  4  1  0
  4 53  1  0
  4  1  1  0
  5 52  1  6
  5  8  1  0
  5  2  1  0
  6  9  2  0
  6  8  1  0
  7 10  1  0
  8  7  2  0
  9 12  1  0
 10 21  1  0
 11  9  1  0
 12 10  2  0
 13 21  1  0
 14 19  1  0
 15 16  1  0
 15 14  1  0
 17 16  1  0
 17 26  1  0
 17 18  1  0
 19 13  1  0
 19 18  1  0
 20 13  2  0
 21 22  1  0
 23 24  2  0
 24 43  1  0
 25 24  1  0
 25 28  1  0
 26 23  1  0
 26 27  1  0
 27 25  2  0
 28 29  1  0
 29 30  2  0
 31 34  1  0
 31 30  1  0
 32 31  2  0
 33 32  1  0
 33 28  2  0
 34 35  1  0
 35 40  2  0
 35 36  1  0
 36 37  2  0
 37 38  1  0
 38 42  1  0
 39 38  2  0
 40 39  1  0
 41 40  1  0
 43 44  1  0
 44 47  1  0
 44 46  1  0
 45 43  2  0
 48 49  1  0
 48 23  1  0
 50 48  1  0
 52 51  1  0
 54 65  2  0
 55 53  1  0
 55 60  1  0
 56 64  1  0
 56 66  1  0
 57 63  1  0
 57 59  1  0
 58 64  1  0
 59 60  2  0
 59 58  1  0
 61 55  2  0
 62 61  1  0
 62 57  2  0
 63 56  1  0
 64 54  1  0
 66 68  2  0
 67 66  1  0
 69 67  1  0
 70 79  2  0
 70 75  1  0
 71 67  1  0
 71 75  1  0
 72 71  1  0
 73 74  1  0
 73 72  1  0
 74 70  1  0
 75 76  2  0
 76 77  1  0
 78 77  2  0
 79 78  1  0
 80 54  1  0
 80 81  1  0
 80 90  1  0
 81 84  1  0
 82 86  1  0
 82 81  1  0
 83 82  2  0
 86 85  1  0
 88 86  1  0
 88 89  1  0
 88 87  1  0
 90 93  1  1
 90 91  1  0
 92 90  1  0
M  ISO  4   4 101  13 100  21 100  53 101
M  END
>  <TORSDO>  (12) 
F 18

>  <SCORE>  (12) 
-12.729

>  <name>  (12) 
11

>  <ligand_id>  (12) 
11

>  <original_smiles>  (12) 
[H]c1c([H])c([H])c2c(c1[H])C([H])([H])C([H])([H])C([H])([H])C2([H])N([H])C(=O)C1([H])N(C(=O)C([H])(N([H])C(=O)C([H])(N([H])C([H])([H])[H])C([H])([H])[H])C(C([H])([H])[H])(C([H])([H])[H])C([H])([H])[H])C([H])([H])c2c([H])c(OC3([H])C([H])([H])C([H])([H])C(c4c([H])c(N([H])C(=O)N5C([H])([H])C([H])([H])C([H])([H])C([H])(n6nc(-c7c([H])c([H])c(Oc8c([H])c([H])c(F)c([H])c8F)c([H])c7[H])c(C(=O)N([H])[H])c6N([H])[H])C5([H])[H])nc(C([H])([H])[H])c4[H])(C([H])([H])C([H])([H])[H])C3([H])[H])c([H])c([H])c2C1([H])[H]

>  <smiles>  (12) 
[H]c1c([H])c([H])c2c(c1[H])C([H])([H])C([H])([H])C([H])([H])C2([H])N([H])C(=O)C1([H])N(C(=O)C([H])(N([H])C(=O)C([H])(N([H])C([H])([H])[H])C([H])([H])[H])C(C([H])([H])[H])(C([H])([H])[H])C([H])([H])[H])C([H])([H])c2c([H])c(OC3([H])C([H])([H])C([H])([H])C(c4c([H])c(N([H])C(=O)N5C([H])([H])C([H])([H])C([H])([H])C([H])(n6nc(-c7c([H])c([H])c(Oc8c([H])c([H])c(F)c([H])c8F)c([H])c7[H])c(C(=O)N([H])[H])c6N([H])[H])C5([H])[H])nc(C([H])([H])[H])c4[H])(C([H])([H])C([H])([H])[H])C3([H])[H])c([H])c([H])c2C1([H])[H]

$$$$
12:0:0
     RDKit          3D

 94103  0  0  1  0  0  0  0  0999 V2000
  -29.2010  -19.8530   20.5140 C   0  0  0  0  0  3  0  0  0  0  0  0
  -30.1380  -18.7400   20.5030 C   0  0  0  0  0  0  0  0  0  0  0  0
  -31.4430  -19.0450   20.1290 C   0  0  0  0  0  0  0  0  0  0  0  0
  -31.7930  -20.2540   19.4990 C   0  0  0  0  0  0  0  0  0  0  0  0
  -30.8270  -21.3010   19.3980 C   0  0  0  0  0  0  0  0  0  0  0  0
  -29.5450  -21.1940   20.0320 C   0  0  0  0  0  0  0  0  0  0  0  0
  -32.4150  -18.0090   20.6380 C   0  0  0  0  0  2  0  0  0  0  0  0
  -31.5920  -17.2430   21.6930 C   0  0  0  0  0  2  0  0  0  0  0  0
  -30.1280  -17.3010   21.1920 C   0  0  0  0  0  3  0  0  0  0  0  0
  -33.2060  -20.3690   18.9230 C   0  0  0  0  0  1  0  0  0  0  0  0
  -31.1660  -22.5060   18.5380 C   0  0  0  0  0  1  0  0  0  0  0  0
  -30.5000  -14.8510   20.1210 C   0  0  0  0  0  0  0  0  0  0  0  0
  -30.2620  -12.6100   19.0220 C   0  0  0  0  0  2  0  0  0  0  0  0
  -29.2650  -12.6950   17.8470 C   0  0  0  0  0  2  0  0  0  0  0  0
  -27.8110  -12.5200   18.3310 C   0  0  0  0  0  2  0  0  0  0  0  0
  -27.4920  -13.3500   19.6050 C   0  0  0  0  0  3  0  0  0  0  0  0
  -28.6060  -13.2390   20.6650 C   0  0  0  0  0  2  0  0  0  0  0  0
  -29.8610  -13.6350   20.0130 N   0  0  0  0  0  0  0  0  0  0  0  0
  -31.6690  -14.9450   19.7400 O   0  0  0  0  0  0  0  0  0  0  0  0
  -29.7630  -15.9640   20.5140 N   0  0  0  0  0  0  0  0  0  0  0  0
  -28.7770  -15.7650   20.5770 H   0  0  0  0  0  0  0  0  0  0  0  0
  -25.1420  -13.8970   20.4720 C   0  0  0  0  0  0  0  0  0  0  0  0
  -24.1020  -13.1080   20.8780 C   0  0  0  0  0  0  0  0  0  0  0  0
  -24.5690  -11.7610   20.7830 C   0  0  0  0  0  0  0  0  0  0  0  0
  -26.1770  -13.0340   20.1550 N   0  0  0  0  0  0  0  0  0  0  0  0
  -25.8420  -11.7400   20.4030 N   0  0  0  0  0  0  0  0  0  0  0  0
  -23.8600  -10.4900   20.9740 C   0  0  0  0  0  0  0  0  0  0  0  0
  -24.3000   -9.5290   21.9110 C   0  0  0  0  0  3  0  0  0  0  0  0
  -23.5880   -8.3250   22.0910 C   0  0  0  0  0  3  0  0  0  0  0  0
  -22.4190   -8.0700   21.3360 C   0  0  0  0  0  0  0  0  0  0  0  0
  -21.9970   -9.0190   20.3880 C   0  0  0  0  0  3  0  0  0  0  0  0
  -22.7100  -10.2150   20.2060 C   0  0  0  0  0  3  0  0  0  0  0  0
  -21.6780   -6.9160   21.4240 O   0  0  0  0  0  0  0  0  0  0  0  0
  -21.5910   -6.2050   22.5940 C   0  0  0  0  0  0  0  0  0  0  0  0
  -21.0370   -6.7630   23.7670 C   0  0  0  0  0  3  0  0  0  0  0  0
  -20.9010   -5.9750   24.9270 C   0  0  0  0  0  3  0  0  0  0  0  0
  -21.3100   -4.6270   24.9160 C   0  0  0  0  0  0  0  0  0  0  0  0
  -21.8540   -4.0670   23.7460 C   0  0  0  0  0  3  0  0  0  0  0  0
  -21.9930   -4.8540   22.5890 C   0  0  0  0  0  0  0  0  0  0  0  0
  -22.4980   -4.3020   21.4600 F   0  0  0  0  0  0  0  0  0  0  0  0
  -21.1730   -3.8680   26.0270 F   0  0  0  0  0  0  0  0  0  0  0  0
  -22.7180  -13.5680   21.2370 C   0  0  0  0  0  0  0  0  0  0  0  0
  -22.0340  -12.8360   22.1080 N   0  0  0  0  0  0  0  0  0  0  0  0
  -22.2530  -14.6110   20.7760 O   0  0  0  0  0  0  0  0  0  0  0  0
  -22.4270  -11.9970   22.5080 H   0  0  0  0  0  0  0  0  0  0  0  0
  -21.1030  -13.1190   22.3810 H   0  0  0  0  0  0  0  0  0  0  0  0
  -25.2830  -15.2740   20.3210 N   0  0  0  0  0  0  0  0  0  0  0  0
  -24.5050  -15.9070   20.4720 H   0  0  0  0  0  0  0  0  0  0  0  0
  -26.0880  -15.7320   19.9120 H   0  0  0  0  0  0  0  0  0  0  0  0
  -28.6170  -22.2950   20.0740 O   0  0  0  0  0  0  0  0  0  0  0  0
  -28.9400  -23.7240   20.4580 C   0  0  0  0  0  2  0  0  0  0  0  0
  -28.4640  -25.0110   18.2810 C   0  0  0  0  0  1  0  0  0  0  0  0
  -28.1090  -24.9660   19.7730 C   0  0  0  0  0  3  0  0  0  0  0  0
  -28.1960  -26.4170   20.2300 O   0  0  0  0  0  0  0  0  0  0  0  0
  -24.5610  -31.9770   23.2170 C   0  0  0  0  0  0  0  0  0  0  0  0
  -27.0920  -27.3200   20.1530 C   0  0  0  0  0  0  0  0  0  0  0  0
  -23.3200  -30.5690   21.6130 C   0  0  0  0  0  3  0  0  0  0  0  0
  -24.7390  -28.9970   20.1660 C   0  0  0  0  0  0  0  0  0  0  0  0
  -25.8630  -30.8570   21.3860 C   0  0  0  0  0  2  0  0  0  0  0  0
  -25.9230  -29.4690   20.7440 C   0  0  0  0  0  0  0  0  0  0  0  0
  -27.0970  -28.6410   20.7310 C   0  0  0  0  0  3  0  0  0  0  0  0
  -25.8810  -26.9330   19.5330 C   0  0  0  0  0  3  0  0  0  0  0  0
  -24.7240  -27.7390   19.5490 C   0  0  0  0  0  3  0  0  0  0  0  0
  -23.5040  -29.8760   20.2370 C   0  0  0  0  0  2  0  0  0  0  0  0
  -24.6020  -31.1550   22.1260 N   0  0  0  0  0  0  0  0  0  0  0  0
  -23.4890  -32.2660   23.7690 O   0  0  0  0  0  0  0  0  0  0  0  0
  -22.6680  -29.5690   22.5980 C   0  0  0  0  0  0  0  0  0  0  0  0
  -21.3450  -29.3640   22.4710 N   0  0  0  0  0  0  0  0  0  0  0  0
  -23.3530  -28.9770   23.4380 O   0  0  0  0  0  0  0  0  0  0  0  0
  -20.8510  -29.8910   21.7670 H   0  0  0  0  0  0  0  0  0  0  0  0
  -17.9920  -28.0980   22.9830 C   0  0  0  0  0  0  0  0  0  0  0  0
  -20.5430  -28.4280   23.2620 C   0  0  0  0  0  3  0  0  0  0  0  0
  -20.6840  -26.9850   22.7250 C   0  0  0  0  0  2  0  0  0  0  0  0
  -19.5980  -26.6080   21.7130 C   0  0  0  0  0  2  0  0  0  0  0  0
  -18.2070  -26.7360   22.3430 C   0  0  0  0  0  2  0  0  0  0  0  0
  -19.0900  -28.8990   23.3980 C   0  0  0  0  0  0  0  0  0  0  0  0
  -18.8360  -30.1720   23.9550 C   0  0  0  0  0  3  0  0  0  0  0  0
  -17.5180  -30.6440   24.1030 C   0  0  0  0  0  3  0  0  0  0  0  0
  -16.4360  -29.8390   23.7060 C   0  0  0  0  0  3  0  0  0  0  0  0
  -16.6740  -28.5700   23.1510 C   0  0  0  0  0  3  0  0  0  0  0  0
  -25.8590  -32.6130   23.8080 C   0  0  0  0  0  3  0  0  0  0  0  0
  -26.4180  -31.8300   25.0600 C   0  0  1  0  0  0  0  0  0  0  0  0
  -25.3500  -31.5490   26.1420 C   0  0  0  0  0  1  0  0  0  0  0  0
  -27.0300  -30.4750   24.6350 C   0  0  0  0  0  1  0  0  0  0  0  0
  -27.5600  -32.6420   25.7160 C   0  0  0  0  0  1  0  0  0  0  0  0
  -25.5510  -34.0040   24.1690 N   0  0  0  0  0  0  0  0  0  0  0  0
  -25.8330  -35.0710   23.4090 C   0  0  0  0  0  0  0  0  0  0  0  0
  -26.4470  -34.9880   22.3430 O   0  0  0  0  0  0  0  0  0  0  0  0
  -25.0080  -34.1430   25.0090 H   0  0  0  0  0  0  0  0  0  0  0  0
  -24.0750  -36.8540   23.1660 C   0  0  0  0  0  1  0  0  0  0  0  0
  -25.3560  -36.4480   23.9130 C   0  0  0  0  0  3  0  0  0  0  0  0
  -27.5100  -37.3470   24.6720 C   0  0  0  0  0  1  0  0  0  0  0  0
  -26.3720  -37.5130   23.7710 N   0  0  0  0  0  0  0  0  0  0  0  0
  -25.9620  -38.4260   23.9440 H   0  0  0  0  0  0  0  0  0  0  0  0
  2  1  1  0
  2  9  1  0
  3  2  2  0
  3  7  1  0
  4  3  1  0
  5  4  2  0
  5  6  1  0
  6 50  1  0
  6  1  2  0
  7  8  1  0
  9 20  1  0
  9  8  1  0
 10  4  1  0
 11  5  1  0
 12 20  1  0
 13 18  1  0
 14 15  1  0
 14 13  1  0
 16 15  1  0
 16 25  1  0
 16 17  1  0
 18 12  1  0
 18 17  1  0
 19 12  2  0
 20 21  1  0
 22 23  2  0
 23 42  1  0
 24 23  1  0
 24 27  1  0
 25 26  1  0
 25 22  1  0
 26 24  2  0
 27 28  1  0
 28 29  2  0
 30 33  1  0
 30 29  1  0
 31 30  2  0
 32 31  1  0
 32 27  2  0
 33 34  1  0
 34 35  1  0
 35 36  2  0
 37 36  1  0
 37 41  1  0
 38 37  2  0
 39 34  2  0
 39 38  1  0
 40 39  1  0
 42 43  1  0
 43 46  1  0
 43 45  1  0
 44 42  2  0
 47 22  1  0
 47 48  1  0
 49 47  1  0
 50 51  1  0
 53 52  1  0
 53 54  1  0
 53 51  1  0
 55 66  2  0
 56 54  1  0
 56 61  1  0
 57 65  1  0
 57 67  1  0
 58 64  1  0
 58 60  1  0
 59 65  1  0
 60 59  1  0
 61 60  2  0
 62 63  1  0
 62 56  2  0
 63 58  2  0
 64 57  1  0
 65 55  1  0
 67 69  2  0
 68 67  1  0
 70 68  1  0
 71 80  2  0
 71 76  1  0
 72 68  1  0
 72 76  1  0
 73 72  1  0
 74 75  1  0
 74 73  1  0
 75 71  1  0
 76 77  2  0
 77 78  1  0
 79 78  2  0
 80 79  1  0
 81 55  1  0
 81 86  1  0
 81 82  1  0
 82 85  1  1
 82 83  1  0
 84 82  1  0
 86 89  1  0
 87 91  1  0
 87 86  1  0
 88 87  2  0
 91 90  1  0
 93 91  1  0
 93 94  1  0
 93 92  1  0
M  ISO  4  12 100  20 100  53 101  54 101
M  END
>  <TORSDO>  (13) 
F 19

>  <SCORE>  (13) 
-14.177

>  <name>  (13) 
12

>  <ligand_id>  (13) 
12

>  <original_smiles>  (13) 
[H]c1c([H])c([H])c2c(c1[H])C([H])([H])C([H])([H])C([H])([H])C2([H])N([H])C(=O)C1([H])N(C(=O)C([H])(N([H])C(=O)C([H])(N([H])C([H])([H])[H])C([H])([H])[H])C(C([H])([H])[H])(C([H])([H])[H])C([H])([H])[H])C([H])([H])c2c([H])c(OC([H])(C([H])([H])[H])C([H])([H])Oc3c([H])c4c(c(C([H])([H])[H])c3C([H])([H])[H])C([H])([H])C([H])([H])C4([H])N([H])C(=O)N3C([H])([H])C([H])([H])C([H])([H])C([H])(n4nc(-c5c([H])c([H])c(Oc6c([H])c([H])c(F)c([H])c6F)c([H])c5[H])c(C(=O)N([H])[H])c4N([H])[H])C3([H])[H])c([H])c([H])c2C1([H])[H]

>  <smiles>  (13) 
[H]c1c([H])c([H])c2c(c1[H])C([H])([H])C([H])([H])C([H])([H])C2([H])N([H])C(=O)C1([H])N(C(=O)C([H])(N([H])C(=O)C([H])(N([H])C([H])([H])[H])C([H])([H])[H])C(C([H])([H])[H])(C([H])([H])[H])C([H])([H])[H])C([H])([H])c2c([H])c(OC([H])(C([H])([H])[H])C([H])([H])Oc3c([H])c4c(c(C([H])([H])[H])c3C([H])([H])[H])C([H])([H])C([H])([H])C4([H])N([H])C(=O)N3C([H])([H])C([H])([H])C([H])([H])C([H])(n4nc(-c5c([H])c([H])c(Oc6c([H])c([H])c(F)c([H])c6F)c([H])c5[H])c(C(=O)N([H])[H])c4N([H])[H])C3([H])[H])c([H])c([H])c2C1([H])[H]

$$$$
13:0:0
     RDKit          3D

 93102  0  0  1  0  0  0  0  0999 V2000
  -30.4880  -15.0290   20.3990 C   0  0  0  0  0  0  0  0  0  0  0  0
  -30.3960  -12.6420   19.5140 C   0  0  0  0  0  2  0  0  0  0  0  0
  -29.4850  -12.5470   18.2670 C   0  0  0  0  0  2  0  0  0  0  0  0
  -28.0240  -12.3190   18.6910 C   0  0  0  0  0  2  0  0  0  0  0  0
  -27.5850  -13.2810   19.8230 C   0  0  0  0  0  3  0  0  0  0  0  0
  -28.6190  -13.3480   20.9690 C   0  0  0  0  0  2  0  0  0  0  0  0
  -29.8940  -13.7610   20.3690 N   0  0  0  0  0  0  0  0  0  0  0  0
  -31.6990  -15.0520   20.1440 O   0  0  0  0  0  0  0  0  0  0  0  0
  -28.9670  -18.8460   20.4460 C   0  0  0  0  0  3  0  0  0  0  0  0
  -29.2540  -20.2950   20.2330 C   0  0  0  0  0  0  0  0  0  0  0  0
  -30.5920  -20.5690   19.9240 C   0  0  0  0  0  0  0  0  0  0  0  0
  -29.9710  -17.7480   20.3810 C   0  0  0  0  0  0  0  0  0  0  0  0
  -31.5360  -19.5080   19.9440 C   0  0  0  0  0  0  0  0  0  0  0  0
  -28.2570  -21.5960   20.2140 C   0  0  0  0  0  2  0  0  0  0  0  0
  -30.9730  -21.9890   19.4520 C   0  0  0  0  0  2  0  0  0  0  0  0
  -28.7820  -23.1830   20.4260 C   0  0  0  0  0  3  0  0  0  0  0  0
  -30.3150  -23.2360   20.1380 C   0  0  0  0  0  3  0  0  0  0  0  0
  -31.1070  -23.6180   21.4020 C   0  0  0  0  0  1  0  0  0  0  0  0
  -31.2340  -18.1920   20.1600 N   0  0  0  0  0  0  0  0  0  0  0  0
  -29.7040  -16.2290   20.5260 N   0  0  0  0  0  0  0  0  0  0  0  0
  -28.7370  -16.0170   20.7040 H   0  0  0  0  0  0  0  0  0  0  0  0
  -25.1980  -13.8650   20.5260 C   0  0  0  0  0  0  0  0  0  0  0  0
  -24.1280  -13.0930   20.8860 C   0  0  0  0  0  0  0  0  0  0  0  0
  -24.5920  -11.7420   20.8680 C   0  0  0  0  0  0  0  0  0  0  0  0
  -26.2430  -12.9850   20.3070 N   0  0  0  0  0  0  0  0  0  0  0  0
  -25.8870  -11.7040   20.5810 N   0  0  0  0  0  0  0  0  0  0  0  0
  -23.8600  -10.4800   21.0530 C   0  0  0  0  0  0  0  0  0  0  0  0
  -24.2800   -9.5120   21.9920 C   0  0  0  0  0  3  0  0  0  0  0  0
  -23.5470   -8.3180   22.1640 C   0  0  0  0  0  3  0  0  0  0  0  0
  -22.3810   -8.0840   21.3980 C   0  0  0  0  0  0  0  0  0  0  0  0
  -21.9820   -9.0390   20.4470 C   0  0  0  0  0  3  0  0  0  0  0  0
  -22.7160  -10.2250   20.2730 C   0  0  0  0  0  3  0  0  0  0  0  0
  -21.6220   -6.9420   21.4790 O   0  0  0  0  0  0  0  0  0  0  0  0
  -21.5570   -6.2030   22.6330 C   0  0  0  0  0  0  0  0  0  0  0  0
  -21.1290   -6.7670   23.8560 C   0  0  0  0  0  3  0  0  0  0  0  0
  -21.0080   -5.9560   25.0010 C   0  0  0  0  0  3  0  0  0  0  0  0
  -21.3030   -4.5820   24.9270 C   0  0  0  0  0  0  0  0  0  0  0  0
  -21.7210   -4.0170   23.7100 C   0  0  0  0  0  3  0  0  0  0  0  0
  -21.8430   -4.8240   22.5650 C   0  0  0  0  0  0  0  0  0  0  0  0
  -22.2270   -4.2710   21.3900 F   0  0  0  0  0  0  0  0  0  0  0  0
  -21.1770   -3.8010   26.0250 F   0  0  0  0  0  0  0  0  0  0  0  0
  -22.7280  -13.5730   21.1330 C   0  0  0  0  0  0  0  0  0  0  0  0
  -21.9870  -12.8860   21.9960 N   0  0  0  0  0  0  0  0  0  0  0  0
  -22.2990  -14.5950   20.5970 O   0  0  0  0  0  0  0  0  0  0  0  0
  -22.3460  -12.0590   22.4490 H   0  0  0  0  0  0  0  0  0  0  0  0
  -21.0470  -13.1920   22.2080 H   0  0  0  0  0  0  0  0  0  0  0  0
  -25.3650  -15.2360   20.3400 N   0  0  0  0  0  0  0  0  0  0  0  0
  -24.5880  -15.8840   20.4180 H   0  0  0  0  0  0  0  0  0  0  0  0
  -26.2030  -15.6670   19.9740 H   0  0  0  0  0  0  0  0  0  0  0  0
  -33.8540  -18.8450   20.0340 C   0  0  0  0  0  1  0  0  0  0  0  0
  -32.8610  -19.8160   19.7090 O   0  0  0  0  0  0  0  0  0  0  0  0
  -27.9350  -24.5770   19.8990 C   0  0  0  0  0  2  0  0  0  0  0  0
  -28.2070  -26.1080   20.1380 O   0  0  0  0  0  0  0  0  0  0  0  0
  -24.6440  -31.8460   23.1320 C   0  0  0  0  0  0  0  0  0  0  0  0
  -27.1680  -27.1210   20.0560 C   0  0  0  0  0  0  0  0  0  0  0  0
  -23.4220  -30.4600   21.5030 C   0  0  0  0  0  3  0  0  0  0  0  0
  -24.8530  -28.8930   20.0450 C   0  0  0  0  0  0  0  0  0  0  0  0
  -25.9760  -30.7160   21.3090 C   0  0  0  0  0  2  0  0  0  0  0  0
  -26.0400  -29.3260   20.6490 C   0  0  0  0  0  0  0  0  0  0  0  0
  -27.1970  -28.4560   20.6390 C   0  0  0  0  0  3  0  0  0  0  0  0
  -25.9600  -26.8030   19.3980 C   0  0  0  0  0  3  0  0  0  0  0  0
  -24.8270  -27.6480   19.4030 C   0  0  0  0  0  3  0  0  0  0  0  0
  -23.6260  -29.7930   20.1160 C   0  0  0  0  0  2  0  0  0  0  0  0
  -24.7030  -31.0290   22.0370 N   0  0  0  0  0  0  0  0  0  0  0  0
  -23.5640  -32.1300   23.6740 O   0  0  0  0  0  0  0  0  0  0  0  0
  -22.7570  -29.4460   22.4680 C   0  0  0  0  0  0  0  0  0  0  0  0
  -21.4260  -29.2850   22.3690 N   0  0  0  0  0  0  0  0  0  0  0  0
  -23.4400  -28.8080   23.2730 O   0  0  0  0  0  0  0  0  0  0  0  0
  -20.9290  -29.8540   21.6970 H   0  0  0  0  0  0  0  0  0  0  0  0
  -18.0490  -28.0940   22.9210 C   0  0  0  0  0  0  0  0  0  0  0  0
  -20.6140  -28.3470   23.1480 C   0  0  0  0  0  3  0  0  0  0  0  0
  -20.7030  -26.9190   22.5620 C   0  0  0  0  0  2  0  0  0  0  0  0
  -19.5820  -26.6050   21.5670 C   0  0  0  0  0  2  0  0  0  0  0  0
  -18.2110  -26.7510   22.2310 C   0  0  0  0  0  2  0  0  0  0  0  0
  -19.1790  -28.8500   23.3390 C   0  0  0  0  0  0  0  0  0  0  0  0
  -18.9750  -30.1050   23.9500 C   0  0  0  0  0  3  0  0  0  0  0  0
  -17.6760  -30.6080   24.1470 C   0  0  0  0  0  3  0  0  0  0  0  0
  -16.5620  -29.8510   23.7480 C   0  0  0  0  0  3  0  0  0  0  0  0
  -16.7500  -28.5970   23.1410 C   0  0  0  0  0  3  0  0  0  0  0  0
  -25.9280  -32.4830   23.7450 C   0  0  0  0  0  3  0  0  0  0  0  0
  -25.6090  -33.8710   24.1150 N   0  0  0  0  0  0  0  0  0  0  0  0
  -25.9170  -34.9500   23.3830 C   0  0  0  0  0  0  0  0  0  0  0  0
  -26.5660  -34.8800   22.3350 O   0  0  0  0  0  0  0  0  0  0  0  0
  -25.0320  -34.0000   24.9340 H   0  0  0  0  0  0  0  0  0  0  0  0
  -24.1650  -36.7400   23.1240 C   0  0  0  0  0  1  0  0  0  0  0  0
  -25.4280  -36.3210   23.8920 C   0  0  0  0  0  3  0  0  0  0  0  0
  -27.5770  -37.2020   24.6930 C   0  0  0  0  0  1  0  0  0  0  0  0
  -26.4480  -37.3870   23.7840 N   0  0  0  0  0  0  0  0  0  0  0  0
  -26.0400  -38.2990   23.9700 H   0  0  0  0  0  0  0  0  0  0  0  0
  -26.4720  -31.6920   25.0000 C   0  0  1  0  0  0  0  0  0  0  0  0
  -25.3990  -31.4340   26.0840 C   0  0  0  0  0  1  0  0  0  0  0  0
  -27.0560  -30.3240   24.5770 C   0  0  0  0  0  1  0  0  0  0  0  0
  -27.6300  -32.4830   25.6550 C   0  0  0  0  0  1  0  0  0  0  0  0
  1 20  1  0
  2  7  1  0
  3  4  1  0
  3  2  1  0
  5  4  1  0
  5 25  1  0
  5  6  1  0
  7  1  1  0
  7  6  1  0
  8  1  2  0
 10  9  1  0
 11 13  1  0
 11 10  2  0
 12  9  2  0
 12 20  1  0
 13 19  2  0
 14 10  1  0
 14 16  1  0
 15 11  1  0
 15 17  1  0
 16 52  1  0
 17 16  1  0
 17 18  1  0
 19 12  1  0
 20 21  1  0
 22 23  2  0
 23 42  1  0
 24 23  1  0
 24 27  1  0
 25 22  1  0
 25 26  1  0
 26 24  2  0
 27 28  1  0
 28 29  2  0
 30 33  1  0
 30 29  1  0
 31 30  2  0
 32 31  1  0
 32 27  2  0
 33 34  1  0
 34 35  1  0
 35 36  2  0
 37 36  1  0
 37 41  1  0
 38 37  2  0
 39 34  2  0
 39 38  1  0
 40 39  1  0
 42 43  1  0
 43 46  1  0
 43 45  1  0
 44 42  2  0
 47 48  1  0
 47 22  1  0
 49 47  1  0
 51 13  1  0
 51 50  1  0
 52 53  1  0
 54 65  2  0
 55 53  1  0
 55 60  1  0
 56 64  1  0
 56 66  1  0
 57 63  1  0
 57 59  1  0
 58 64  1  0
 59 58  1  0
 60 59  2  0
 61 62  1  0
 61 55  2  0
 62 57  2  0
 63 56  1  0
 64 54  1  0
 66 68  2  0
 67 66  1  0
 69 67  1  0
 70 79  2  0
 70 75  1  0
 71 67  1  0
 71 75  1  0
 72 71  1  0
 73 74  1  0
 73 72  1  0
 74 70  1  0
 75 76  2  0
 76 77  1  0
 78 77  2  0
 79 78  1  0
 80 54  1  0
 80 81  1  0
 80 90  1  0
 81 84  1  0
 82 86  1  0
 82 81  1  0
 83 82  2  0
 86 85  1  0
 88 86  1  0
 88 89  1  0
 88 87  1  0
 90 93  1  1
 90 91  1  0
 92 90  1  0
M  ISO  4   1 100  20 100  52 101  53 101
M  END
>  <TORSDO>  (14) 
F 17

>  <SCORE>  (14) 
-15.722

>  <name>  (14) 
13

>  <ligand_id>  (14) 
13

>  <original_smiles>  (14) 
[H]c1c([H])c([H])c2c(c1[H])C([H])([H])C([H])([H])C([H])([H])C2([H])N([H])C(=O)C1([H])N(C(=O)C([H])(N([H])C(=O)C([H])(N([H])C([H])([H])[H])C([H])([H])[H])C(C([H])([H])[H])(C([H])([H])[H])C([H])([H])[H])C([H])([H])c2c([H])c(OC([H])([H])C3([H])C([H])([H])c4c([H])c(N([H])C(=O)N5C([H])([H])C([H])([H])C([H])([H])C([H])(n6nc(-c7c([H])c([H])c(Oc8c([H])c([H])c(F)c([H])c8F)c([H])c7[H])c(C(=O)N([H])[H])c6N([H])[H])C5([H])[H])nc(OC([H])([H])[H])c4C([H])([H])C3([H])C([H])([H])[H])c([H])c([H])c2C1([H])[H]

>  <smiles>  (14) 
[H]c1c([H])c([H])c2c(c1[H])C([H])([H])C([H])([H])C([H])([H])C2([H])N([H])C(=O)C1([H])N(C(=O)C([H])(N([H])C(=O)C([H])(N([H])C([H])([H])[H])C([H])([H])[H])C(C([H])([H])[H])(C([H])([H])[H])C([H])([H])[H])C([H])([H])c2c([H])c(OC([H])([H])C3([H])C([H])([H])c4c([H])c(N([H])C(=O)N5C([H])([H])C([H])([H])C([H])([H])C([H])(n6nc(-c7c([H])c([H])c(Oc8c([H])c([H])c(F)c([H])c8F)c([H])c7[H])c(C(=O)N([H])[H])c6N([H])[H])C5([H])[H])nc(OC([H])([H])[H])c4C([H])([H])C3([H])C([H])([H])[H])c([H])c([H])c2C1([H])[H]

$$$$
14:0:0
     RDKit          3D

 99108  0  0  1  0  0  0  0  0999 V2000
  -29.5830  -21.3810   18.2710 C   0  0  0  0  0  2  0  0  0  0  0  0
  -31.0580  -21.9970   20.1920 C   0  0  0  0  0  2  0  0  0  0  0  0
  -29.8690  -22.7430   17.6250 C   0  0  0  0  0  2  0  0  0  0  0  0
  -31.3160  -23.3710   19.5310 C   0  0  0  0  0  2  0  0  0  0  0  0
  -30.7720  -20.9120   19.1400 C   0  0  0  0  0  3  0  0  0  0  0  0
  -30.1980  -23.7870   18.6340 N   0  0  1  0  0  4  0  0  0  0  0  0
  -29.3840  -23.9030   19.2230 H   0  0  0  0  0  0  0  0  0  0  0  0
  -31.7070  -18.8050   20.2430 C   0  0  0  0  0  3  0  0  0  0  0  0
  -29.3370  -18.8860   19.7690 C   0  0  0  0  0  3  0  0  0  0  0  0
  -30.5950  -19.5150   19.7430 C   0  0  0  0  0  0  0  0  0  0  0  0
  -31.5850  -17.4690   20.6870 C   0  0  0  0  0  0  0  0  0  0  0  0
  -29.2070  -17.5480   20.1800 C   0  0  0  0  0  0  0  0  0  0  0  0
  -30.3380  -16.7910   20.5750 C   0  0  0  0  0  0  0  0  0  0  0  0
  -32.8220  -16.8190   21.2800 C   0  0  0  0  0  1  0  0  0  0  0  0
  -27.8260  -16.9500   20.1260 C   0  0  0  0  0  1  0  0  0  0  0  0
  -30.6810  -14.4080   20.0780 C   0  0  0  0  0  0  0  0  0  0  0  0
  -30.1980  -12.3170   18.8700 C   0  0  0  0  0  2  0  0  0  0  0  0
  -29.2020  -12.6130   17.7340 C   0  0  0  0  0  2  0  0  0  0  0  0
  -27.7580  -12.4620   18.2420 C   0  0  0  0  0  2  0  0  0  0  0  0
  -27.5090  -13.2560   19.5520 C   0  0  0  0  0  3  0  0  0  0  0  0
  -28.6280  -13.0050   20.5910 C   0  0  0  0  0  2  0  0  0  0  0  0
  -29.9340  -13.2740   19.9570 N   0  0  0  0  0  0  0  0  0  0  0  0
  -31.7420  -14.5610   19.4710 O   0  0  0  0  0  0  0  0  0  0  0  0
  -30.1670  -15.3920   20.8440 N   0  0  0  0  0  0  0  0  0  0  0  0
  -29.2940  -15.1350   21.2780 H   0  0  0  0  0  0  0  0  0  0  0  0
  -25.1480  -13.8570   20.4030 C   0  0  0  0  0  0  0  0  0  0  0  0
  -24.1100  -13.0840   20.8410 C   0  0  0  0  0  0  0  0  0  0  0  0
  -24.5690  -11.7350   20.7700 C   0  0  0  0  0  0  0  0  0  0  0  0
  -26.1840  -12.9830   20.1090 N   0  0  0  0  0  0  0  0  0  0  0  0
  -25.8400  -11.7000   20.3870 N   0  0  0  0  0  0  0  0  0  0  0  0
  -23.8530  -10.4730   20.9890 C   0  0  0  0  0  0  0  0  0  0  0  0
  -24.3180   -9.5150   21.9140 C   0  0  0  0  0  3  0  0  0  0  0  0
  -23.5960   -8.3190   22.1240 C   0  0  0  0  0  3  0  0  0  0  0  0
  -22.4000   -8.0760   21.4100 C   0  0  0  0  0  0  0  0  0  0  0  0
  -21.9580   -9.0240   20.4730 C   0  0  0  0  0  3  0  0  0  0  0  0
  -22.6760  -10.2110   20.2600 C   0  0  0  0  0  3  0  0  0  0  0  0
  -21.6500   -6.9320   21.5280 O   0  0  0  0  0  0  0  0  0  0  0  0
  -21.6240   -6.2050   22.6930 C   0  0  0  0  0  0  0  0  0  0  0  0
  -21.2180   -6.7760   23.9190 C   0  0  0  0  0  3  0  0  0  0  0  0
  -21.1380   -5.9730   25.0740 C   0  0  0  0  0  3  0  0  0  0  0  0
  -21.4580   -4.6030   25.0060 C   0  0  0  0  0  0  0  0  0  0  0  0
  -21.8590   -4.0360   23.7850 C   0  0  0  0  0  3  0  0  0  0  0  0
  -21.9410   -4.8340   22.6310 C   0  0  0  0  0  0  0  0  0  0  0  0
  -22.3040   -4.2760   21.4500 F   0  0  0  0  0  0  0  0  0  0  0  0
  -21.3760   -3.8320   26.1140 F   0  0  0  0  0  0  0  0  0  0  0  0
  -22.7330  -13.5630   21.1990 C   0  0  0  0  0  0  0  0  0  0  0  0
  -22.0580  -12.8590   22.1010 N   0  0  0  0  0  0  0  0  0  0  0  0
  -22.2700  -14.5950   20.7150 O   0  0  0  0  0  0  0  0  0  0  0  0
  -22.4480  -12.0270   22.5180 H   0  0  0  0  0  0  0  0  0  0  0  0
  -21.1360  -13.1620   22.3820 H   0  0  0  0  0  0  0  0  0  0  0  0
  -25.2690  -15.2250   20.2040 N   0  0  0  0  0  0  0  0  0  0  0  0
  -24.4780  -15.8510   20.3170 H   0  0  0  0  0  0  0  0  0  0  0  0
  -26.0520  -15.6620   19.7390 H   0  0  0  0  0  0  0  0  0  0  0  0
  -30.4320  -25.1070   17.9890 C   0  0  0  0  0  2  0  0  0  0  0  0
  -29.1700  -26.0100   18.0090 C   0  0  0  0  0  3  0  0  0  0  0  0
  -28.9600  -26.5880   16.7260 O   0  0  0  0  0  0  0  0  0  0  0  0
  -29.7320  -27.0890   16.4830 H   0  0  0  0  0  0  0  0  0  0  0  0
  -29.2110  -27.1290   19.0840 C   0  0  0  0  0  2  0  0  0  0  0  0
  -28.3500  -26.7770   20.1610 O   0  0  0  0  0  0  0  0  0  0  0  0
  -24.5670  -31.9480   23.2320 C   0  0  0  0  0  0  0  0  0  0  0  0
  -27.1810  -27.4930   20.1950 C   0  0  0  0  0  0  0  0  0  0  0  0
  -23.3470  -30.5390   21.6040 C   0  0  0  0  0  3  0  0  0  0  0  0
  -24.7880  -28.9760   20.1960 C   0  0  0  0  0  0  0  0  0  0  0  0
  -25.8670  -30.8890   21.3940 C   0  0  0  0  0  2  0  0  0  0  0  0
  -25.9440  -29.5110   20.7780 C   0  0  0  0  0  0  0  0  0  0  0  0
  -27.1450  -28.7720   20.7790 C   0  0  0  0  0  3  0  0  0  0  0  0
  -26.0110  -26.9510   19.6270 C   0  0  0  0  0  3  0  0  0  0  0  0
  -24.8120  -27.6920   19.6220 C   0  0  0  0  0  3  0  0  0  0  0  0
  -23.5500  -29.8450   20.2300 C   0  0  0  0  0  2  0  0  0  0  0  0
  -24.6110  -31.1380   22.1380 N   0  0  0  0  0  0  0  0  0  0  0  0
  -23.4890  -32.2290   23.7750 O   0  0  0  0  0  0  0  0  0  0  0  0
  -22.6960  -29.5290   22.5740 C   0  0  0  0  0  0  0  0  0  0  0  0
  -21.3700  -29.3550   22.4520 N   0  0  0  0  0  0  0  0  0  0  0  0
  -23.3780  -28.9070   23.3930 O   0  0  0  0  0  0  0  0  0  0  0  0
  -20.8830  -29.9160   21.7670 H   0  0  0  0  0  0  0  0  0  0  0  0
  -17.9870  -28.1960   22.9740 C   0  0  0  0  0  0  0  0  0  0  0  0
  -20.5480  -28.4300   23.2320 C   0  0  0  0  0  3  0  0  0  0  0  0
  -20.6320  -26.9960   22.6650 C   0  0  0  0  0  2  0  0  0  0  0  0
  -19.5240  -26.6770   21.6570 C   0  0  0  0  0  2  0  0  0  0  0  0
  -18.1470  -26.8400   22.3070 C   0  0  0  0  0  2  0  0  0  0  0  0
  -19.1160  -28.9500   23.3950 C   0  0  0  0  0  0  0  0  0  0  0  0
  -18.9160  -30.2190   23.9810 C   0  0  0  0  0  3  0  0  0  0  0  0
  -17.6170  -30.7360   24.1460 C   0  0  0  0  0  3  0  0  0  0  0  0
  -16.5030  -29.9820   23.7410 C   0  0  0  0  0  3  0  0  0  0  0  0
  -16.6890  -28.7110   23.1660 C   0  0  0  0  0  3  0  0  0  0  0  0
  -25.8590  -32.5800   23.8400 C   0  0  0  0  0  3  0  0  0  0  0  0
  -25.5540  -33.9760   24.1710 N   0  0  0  0  0  0  0  0  0  0  0  0
  -25.8890  -35.0300   23.4140 C   0  0  0  0  0  0  0  0  0  0  0  0
  -26.5600  -34.9290   22.3830 O   0  0  0  0  0  0  0  0  0  0  0  0
  -24.9550  -34.1320   24.9690 H   0  0  0  0  0  0  0  0  0  0  0  0
  -24.1680  -36.8310   23.0540 C   0  0  0  0  0  1  0  0  0  0  0  0
  -25.4010  -36.4170   23.8740 C   0  0  0  0  0  3  0  0  0  0  0  0
  -27.5350  -37.2890   24.7250 C   0  0  0  0  0  1  0  0  0  0  0  0
  -26.4390  -37.4670   23.7760 N   0  0  0  0  0  0  0  0  0  0  0  0
  -26.0350  -38.3890   23.9270 H   0  0  0  0  0  0  0  0  0  0  0  0
  -26.3940  -31.8080   25.1080 C   0  0  1  0  0  0  0  0  0  0  0  0
  -25.3180  -31.5600   26.1910 C   0  0  0  0  0  1  0  0  0  0  0  0
  -26.9810  -30.4350   24.7050 C   0  0  0  0  0  1  0  0  0  0  0  0
  -27.5480  -32.6070   25.7600 C   0  0  0  0  0  1  0  0  0  0  0  0
  1  5  1  0
  3  1  1  0
  3  6  1  0
  4  2  1  0
  5 10  1  0
  5  2  1  0
  6  7  1  1
  6  4  1  0
  8 11  1  0
  9 12  2  0
 10  9  1  0
 10  8  2  0
 11 14  1  0
 12 13  1  0
 13 11  2  0
 13 24  1  0
 15 12  1  0
 16 24  1  0
 17 22  1  0
 18 19  1  0
 18 17  1  0
 20 19  1  0
 20 29  1  0
 20 21  1  0
 22 16  1  0
 22 21  1  0
 23 16  2  0
 24 25  1  0
 26 27  2  0
 27 46  1  0
 28 27  1  0
 28 31  1  0
 29 30  1  0
 29 26  1  0
 30 28  2  0
 31 32  1  0
 32 33  2  0
 34 37  1  0
 34 33  1  0
 35 34  2  0
 36 35  1  0
 36 31  2  0
 37 38  1  0
 38 39  1  0
 39 40  2  0
 41 40  1  0
 41 45  1  0
 42 41  2  0
 43 38  2  0
 43 42  1  0
 44 43  1  0
 46 47  1  0
 47 50  1  0
 47 49  1  0
 48 46  2  0
 51 52  1  0
 51 26  1  0
 53 51  1  0
 54  6  1  0
 55 54  1  0
 55 58  1  0
 56 55  1  0
 57 56  1  0
 58 59  1  0
 59 61  1  0
 60 71  2  0
 61 66  1  0
 62 70  1  0
 62 72  1  0
 63 69  1  0
 63 65  1  0
 64 70  1  0
 65 66  2  0
 65 64  1  0
 67 61  2  0
 68 67  1  0
 68 63  2  0
 69 62  1  0
 70 60  1  0
 72 74  2  0
 73 72  1  0
 75 73  1  0
 76 85  2  0
 76 81  1  0
 77 73  1  0
 77 81  1  0
 78 77  1  0
 79 80  1  0
 79 78  1  0
 80 76  1  0
 81 82  2  0
 82 83  1  0
 84 83  2  0
 85 84  1  0
 86 60  1  0
 86 87  1  0
 86 96  1  0
 87 90  1  0
 88 92  1  0
 88 87  1  0
 89 88  2  0
 92 91  1  0
 94 92  1  0
 94 95  1  0
 94 93  1  0
 96 99  1  1
 96 97  1  0
 98 96  1  0
M  ISO  4  16 100  24 100  58 101  59 101
M  END
>  <TORSDO>  (15) 
F 21

>  <SCORE>  (15) 
-12.396

>  <name>  (15) 
14

>  <ligand_id>  (15) 
14

>  <original_smiles>  (15) 
[H]OC([H])(C([H])([H])Oc1c([H])c([H])c2c(c1[H])C([H])([H])N(C(=O)C([H])(N([H])C(=O)C([H])(N([H])C([H])([H])[H])C([H])([H])[H])C(C([H])([H])[H])(C([H])([H])[H])C([H])([H])[H])C([H])(C(=O)N([H])C1([H])c3c([H])c([H])c([H])c([H])c3C([H])([H])C([H])([H])C1([H])[H])C2([H])[H])C([H])([H])[N+]1([H])C([H])([H])C([H])([H])C([H])(c2c([H])c(C([H])([H])[H])c(N([H])C(=O)N3C([H])([H])C([H])([H])C([H])([H])C([H])(n4nc(-c5c([H])c([H])c(Oc6c([H])c([H])c(F)c([H])c6F)c([H])c5[H])c(C(=O)N([H])[H])c4N([H])[H])C3([H])[H])c(C([H])([H])[H])c2[H])C([H])([H])C1([H])[H]

>  <smiles>  (15) 
[H]OC([H])(C([H])([H])Oc1c([H])c([H])c2c(c1[H])C([H])([H])N(C(=O)C([H])(N([H])C(=O)C([H])(N([H])C([H])([H])[H])C([H])([H])[H])C(C([H])([H])[H])(C([H])([H])[H])C([H])([H])[H])C([H])(C(=O)N([H])C1([H])c3c([H])c([H])c([H])c([H])c3C([H])([H])C([H])([H])C1([H])[H])C2([H])[H])C([H])([H])[N+]1([H])C([H])([H])C([H])([H])C([H])(c2c([H])c(C([H])([H])[H])c(N([H])C(=O)N3C([H])([H])C([H])([H])C([H])([H])C([H])(n4nc(-c5c([H])c([H])c(Oc6c([H])c([H])c(F)c([H])c6F)c([H])c5[H])c(C(=O)N([H])[H])c4N([H])[H])C3([H])[H])c(C([H])([H])[H])c2[H])C([H])([H])C1([H])[H]

$$$$
15:0:0
     RDKit          3D

 97107  0  0  1  0  0  0  0  0999 V2000
  -29.5020  -19.4310   17.9820 C   0  0  0  0  0  3  0  0  0  0  0  0
  -29.0650  -20.7170   17.6170 C   0  0  0  0  0  0  0  0  0  0  0  0
  -30.1940  -19.4900   19.1580 C   0  0  0  0  0  0  0  0  0  0  0  0
  -29.4640  -21.5580   18.6180 C   0  0  0  0  0  0  0  0  0  0  0  0
  -28.2560  -21.0410   16.3870 C   0  0  0  0  0  1  0  0  0  0  0  0
  -30.1940  -20.8270   19.5740 N   0  0  0  0  0  0  0  0  0  0  0  0
  -30.8150  -14.3660   20.6380 C   0  0  0  0  0  0  0  0  0  0  0  0
  -30.4860  -12.2110   19.5310 C   0  0  0  0  0  2  0  0  0  0  0  0
  -29.5830  -12.4010   18.2950 C   0  0  0  0  0  2  0  0  0  0  0  0
  -28.0960  -12.3050   18.6930 C   0  0  0  0  0  2  0  0  0  0  0  0
  -27.7290  -13.1640   19.9340 C   0  0  0  0  0  3  0  0  0  0  0  0
  -28.7580  -12.9860   21.0730 C   0  0  0  0  0  2  0  0  0  0  0  0
  -30.1000  -13.2210   20.5190 N   0  0  0  0  0  0  0  0  0  0  0  0
  -32.0190  -14.4390   20.3870 O   0  0  0  0  0  0  0  0  0  0  0  0
  -30.1230  -17.9740   21.2360 C   0  0  0  0  0  2  0  0  0  0  0  0
  -30.9220  -17.0940   18.9920 C   0  0  0  0  0  2  0  0  0  0  0  0
  -30.3770  -16.5160   21.7060 C   0  0  0  0  0  2  0  0  0  0  0  0
  -29.8070  -16.0900   19.3490 C   0  0  0  0  0  2  0  0  0  0  0  0
  -30.8390  -18.3410   19.9000 C   0  0  0  0  0  3  0  0  0  0  0  0
  -30.0810  -15.4990   20.6730 N   0  0  0  0  0  0  0  0  0  0  0  0
  -25.3210  -13.7710   20.6060 C   0  0  0  0  0  0  0  0  0  0  0  0
  -24.2470  -12.9980   20.9500 C   0  0  0  0  0  0  0  0  0  0  0  0
  -24.7080  -11.6460   20.9290 C   0  0  0  0  0  0  0  0  0  0  0  0
  -26.3700  -12.8900   20.3910 N   0  0  0  0  0  0  0  0  0  0  0  0
  -26.0050  -11.6070   20.6490 N   0  0  0  0  0  0  0  0  0  0  0  0
  -23.9810  -10.3820   21.1020 C   0  0  0  0  0  0  0  0  0  0  0  0
  -24.3740   -9.4320   22.0700 C   0  0  0  0  0  3  0  0  0  0  0  0
  -23.6490   -8.2310   22.2310 C   0  0  0  0  0  3  0  0  0  0  0  0
  -22.5170   -7.9720   21.4220 C   0  0  0  0  0  0  0  0  0  0  0  0
  -22.1450   -8.9090   20.4420 C   0  0  0  0  0  3  0  0  0  0  0  0
  -22.8710  -10.1010   20.2810 C   0  0  0  0  0  3  0  0  0  0  0  0
  -21.7690   -6.8210   21.4890 O   0  0  0  0  0  0  0  0  0  0  0  0
  -21.6510   -6.1070   22.6550 C   0  0  0  0  0  0  0  0  0  0  0  0
  -21.0760   -6.6670   23.8160 C   0  0  0  0  0  3  0  0  0  0  0  0
  -20.9110   -5.8750   24.9720 C   0  0  0  0  0  3  0  0  0  0  0  0
  -21.3100   -4.5240   24.9630 C   0  0  0  0  0  0  0  0  0  0  0  0
  -21.8780   -3.9650   23.8050 C   0  0  0  0  0  3  0  0  0  0  0  0
  -22.0460   -4.7540   22.6530 C   0  0  0  0  0  0  0  0  0  0  0  0
  -22.5740   -4.2060   21.5340 F   0  0  0  0  0  0  0  0  0  0  0  0
  -21.1450   -3.7620   26.0680 F   0  0  0  0  0  0  0  0  0  0  0  0
  -22.8420  -13.4710   21.1980 C   0  0  0  0  0  0  0  0  0  0  0  0
  -22.0950  -12.7620   22.0360 N   0  0  0  0  0  0  0  0  0  0  0  0
  -22.4140  -14.5020   20.6800 O   0  0  0  0  0  0  0  0  0  0  0  0
  -22.4520  -11.9260   22.4770 H   0  0  0  0  0  0  0  0  0  0  0  0
  -21.1490  -13.0540   22.2420 H   0  0  0  0  0  0  0  0  0  0  0  0
  -25.4970  -15.1420   20.4350 N   0  0  0  0  0  0  0  0  0  0  0  0
  -24.7420  -15.8110   20.5390 H   0  0  0  0  0  0  0  0  0  0  0  0
  -26.3730  -15.5690   20.1640 H   0  0  0  0  0  0  0  0  0  0  0  0
  -28.0690  -23.2130   19.8720 C   0  0  0  0  0  2  0  0  0  0  0  0
  -30.2310  -24.0300   18.4980 C   0  0  0  0  0  2  0  0  0  0  0  0
  -28.2310  -24.5110   20.6310 C   0  0  0  0  0  2  0  0  0  0  0  0
  -30.1070  -25.3670   19.2640 C   0  0  0  0  0  2  0  0  0  0  0  0
  -29.0850  -23.0010   18.7280 C   0  0  0  0  0  3  0  0  0  0  0  0
  -28.6580  -25.6200   19.6770 C   0  0  0  0  0  3  0  0  0  0  0  0
  -28.5140  -26.8280   20.3900 O   0  0  0  0  0  0  0  0  0  0  0  0
  -24.5730  -31.9100   23.3270 C   0  0  0  0  0  0  0  0  0  0  0  0
  -27.2810  -27.4450   20.3860 C   0  0  0  0  0  0  0  0  0  0  0  0
  -23.3930  -30.4910   21.6770 C   0  0  0  0  0  3  0  0  0  0  0  0
  -24.8680  -28.9130   20.3310 C   0  0  0  0  0  0  0  0  0  0  0  0
  -25.9210  -30.8360   21.5330 C   0  0  0  0  0  2  0  0  0  0  0  0
  -26.0110  -29.4560   20.9280 C   0  0  0  0  0  0  0  0  0  0  0  0
  -27.2150  -28.7280   20.9570 C   0  0  0  0  0  3  0  0  0  0  0  0
  -26.1030  -26.8860   19.8220 C   0  0  0  0  0  3  0  0  0  0  0  0
  -24.9050  -27.6200   19.7850 C   0  0  0  0  0  3  0  0  0  0  0  0
  -23.6260  -29.7740   20.3210 C   0  0  0  0  0  2  0  0  0  0  0  0
  -24.6450  -31.0960   22.2380 N   0  0  0  0  0  0  0  0  0  0  0  0
  -23.4820  -32.2020   23.8350 O   0  0  0  0  0  0  0  0  0  0  0  0
  -22.7050  -29.4970   22.6370 C   0  0  0  0  0  0  0  0  0  0  0  0
  -21.3810  -29.3370   22.4790 N   0  0  0  0  0  0  0  0  0  0  0  0
  -23.3590  -28.8700   23.4750 O   0  0  0  0  0  0  0  0  0  0  0  0
  -20.9200  -29.8930   21.7730 H   0  0  0  0  0  0  0  0  0  0  0  0
  -17.9650  -28.2710   22.9550 C   0  0  0  0  0  0  0  0  0  0  0  0
  -20.5280  -28.4280   23.2430 C   0  0  0  0  0  3  0  0  0  0  0  0
  -20.5770  -26.9960   22.6600 C   0  0  0  0  0  2  0  0  0  0  0  0
  -19.4690  -26.7210   21.6390 C   0  0  0  0  0  2  0  0  0  0  0  0
  -18.0920  -26.9160   22.2780 C   0  0  0  0  0  2  0  0  0  0  0  0
  -19.1100  -28.9870   23.3920 C   0  0  0  0  0  0  0  0  0  0  0  0
  -18.9390  -30.2580   23.9820 C   0  0  0  0  0  3  0  0  0  0  0  0
  -17.6540  -30.8090   24.1440 C   0  0  0  0  0  3  0  0  0  0  0  0
  -16.5220  -30.0880   23.7230 C   0  0  0  0  0  3  0  0  0  0  0  0
  -16.6790  -28.8210   23.1320 C   0  0  0  0  0  3  0  0  0  0  0  0
  -25.8510  -32.5340   23.9710 C   0  0  0  0  0  3  0  0  0  0  0  0
  -25.5550  -33.9430   24.2600 N   0  0  0  0  0  0  0  0  0  0  0  0
  -25.9130  -34.9690   23.4790 C   0  0  0  0  0  0  0  0  0  0  0  0
  -26.6000  -34.8300   22.4620 O   0  0  0  0  0  0  0  0  0  0  0  0
  -24.9370  -34.1250   25.0390 H   0  0  0  0  0  0  0  0  0  0  0  0
  -24.2190  -36.7740   23.0370 C   0  0  0  0  0  1  0  0  0  0  0  0
  -25.4340  -36.3740   23.8890 C   0  0  0  0  0  3  0  0  0  0  0  0
  -27.5510  -37.2610   24.7590 C   0  0  0  0  0  1  0  0  0  0  0  0
  -26.4850  -37.4090   23.7730 N   0  0  0  0  0  0  0  0  0  0  0  0
  -26.0880  -38.3390   23.8730 H   0  0  0  0  0  0  0  0  0  0  0  0
  -26.3190  -31.7780   25.2740 C   0  0  1  0  0  0  0  0  0  0  0  0
  -25.1930  -31.5610   26.3100 C   0  0  0  0  0  1  0  0  0  0  0  0
  -26.9050  -30.3910   24.9170 C   0  0  0  0  0  1  0  0  0  0  0  0
  -27.4530  -32.5770   25.9600 C   0  0  0  0  0  1  0  0  0  0  0  0
  -32.0740  -22.1330   20.7150 C   0  0  0  0  0  1  0  0  0  0  0  0
  -30.7850  -21.3120   20.8370 C   0  0  0  0  0  2  0  0  0  0  0  0
  1  3  2  0
  2  1  1  0
  2  4  2  0
  3  6  1  0
  4  6  1  0
  5  2  1  0
  6 97  1  0
  7 20  1  0
  8 13  1  0
  9 10  1  0
  9  8  1  0
 11 10  1  0
 11 24  1  0
 11 12  1  0
 13  7  1  0
 13 12  1  0
 14  7  2  0
 15 17  1  0
 16 18  1  0
 16 19  1  0
 18 20  1  0
 19  3  1  0
 19 15  1  0
 20 17  1  0
 21 22  2  0
 22 41  1  0
 23 22  1  0
 23 26  1  0
 24 21  1  0
 24 25  1  0
 25 23  2  0
 26 27  1  0
 27 28  2  0
 29 32  1  0
 29 28  1  0
 30 29  2  0
 31 30  1  0
 31 26  2  0
 32 33  1  0
 33 34  1  0
 34 35  2  0
 36 35  1  0
 36 40  1  0
 37 36  2  0
 38 33  2  0
 38 37  1  0
 39 38  1  0
 41 42  1  0
 42 45  1  0
 42 44  1  0
 43 41  2  0
 46 47  1  0
 46 21  1  0
 48 46  1  0
 49 51  1  0
 50 53  1  0
 50 52  1  0
 52 54  1  0
 53  4  1  0
 53 49  1  0
 54 55  1  0
 54 51  1  0
 56 67  2  0
 57 55  1  0
 57 62  1  0
 58 66  1  0
 58 68  1  0
 59 61  1  0
 60 66  1  0
 61 62  2  0
 61 60  1  0
 63 57  2  0
 64 63  1  0
 64 59  2  0
 65 59  1  0
 65 58  1  0
 66 56  1  0
 68 70  2  0
 69 68  1  0
 71 69  1  0
 72 81  2  0
 72 77  1  0
 73 69  1  0
 73 77  1  0
 74 73  1  0
 75 76  1  0
 75 74  1  0
 76 72  1  0
 77 78  2  0
 78 79  1  0
 80 79  2  0
 81 80  1  0
 82 56  1  0
 82 83  1  0
 82 92  1  0
 83 86  1  0
 84 88  1  0
 84 83  1  0
 85 84  2  0
 88 87  1  0
 90 91  1  0
 90 88  1  0
 90 89  1  0
 92 95  1  1
 92 93  1  0
 94 92  1  0
 96 97  1  0
M  ISO  4   7 100  20 100  54 101  55 101
M  END
>  <TORSDO>  (16) 
F 18

>  <SCORE>  (16) 
-14.191

>  <name>  (16) 
15

>  <ligand_id>  (16) 
15

>  <original_smiles>  (16) 
[H]c1c([H])c([H])c2c(c1[H])C([H])([H])C([H])([H])C([H])([H])C2([H])N([H])C(=O)C1([H])N(C(=O)C([H])(N([H])C(=O)C([H])(N([H])C([H])([H])[H])C([H])([H])[H])C(C([H])([H])[H])(C([H])([H])[H])C([H])([H])[H])C([H])([H])c2c([H])c(OC3([H])C([H])([H])C([H])([H])C([H])(c4c(C([H])([H])[H])c([H])c(C5([H])C([H])([H])C([H])([H])N(C(=O)N6C([H])([H])C([H])([H])C([H])([H])C([H])(n7nc(-c8c([H])c([H])c(Oc9c([H])c([H])c(F)c([H])c9F)c([H])c8[H])c(C(=O)N([H])[H])c7N([H])[H])C6([H])[H])C([H])([H])C5([H])[H])n4C([H])([H])C([H])([H])[H])C([H])([H])C3([H])[H])c([H])c([H])c2C1([H])[H]

>  <smiles>  (16) 
[H]c1c([H])c([H])c2c(c1[H])C([H])([H])C([H])([H])C([H])([H])C2([H])N([H])C(=O)C1([H])N(C(=O)C([H])(N([H])C(=O)C([H])(N([H])C([H])([H])[H])C([H])([H])[H])C(C([H])([H])[H])(C([H])([H])[H])C([H])([H])[H])C([H])([H])c2c([H])c(OC3([H])C([H])([H])C([H])([H])C([H])(c4c(C([H])([H])[H])c([H])c(C5([H])C([H])([H])C([H])([H])N(C(=O)N6C([H])([H])C([H])([H])C([H])([H])C([H])(n7nc(-c8c([H])c([H])c(Oc9c([H])c([H])c(F)c([H])c9F)c([H])c8[H])c(C(=O)N([H])[H])c7N([H])[H])C6([H])[H])C([H])([H])C5([H])[H])n4C([H])([H])C([H])([H])[H])C([H])([H])C3([H])[H])c([H])c([H])c2C1([H])[H]

$$$$
16:0:0
     RDKit          3D

 95104  0  0  1  0  0  0  0  0999 V2000
  -29.1820  -21.3430   19.3580 C   0  0  0  0  0  3  0  0  0  0  0  0
  -29.6590  -21.5280   21.6890 C   0  0  0  0  0  3  0  0  0  0  0  0
  -29.5220  -20.6690   20.5650 C   0  0  0  0  0  0  0  0  0  0  0  0
  -28.8950  -23.5770   20.4680 C   0  0  0  0  0  0  0  0  0  0  0  0
  -28.8760  -22.7540   19.2960 C   0  0  0  0  0  0  0  0  0  0  0  0
  -29.3320  -22.9330   21.6660 C   0  0  0  0  0  0  0  0  0  0  0  0
  -30.8780  -14.7750   20.3280 C   0  0  0  0  0  0  0  0  0  0  0  0
  -30.6210  -12.5100   19.3030 C   0  0  0  0  0  2  0  0  0  0  0  0
  -29.6720  -12.5480   18.0870 C   0  0  0  0  0  2  0  0  0  0  0  0
  -28.2120  -12.3590   18.5400 C   0  0  0  0  0  2  0  0  0  0  0  0
  -27.8340  -13.2720   19.7360 C   0  0  0  0  0  3  0  0  0  0  0  0
  -28.9050  -13.2380   20.8490 C   0  0  0  0  0  2  0  0  0  0  0  0
  -30.1940  -13.5810   20.2330 N   0  0  0  0  0  0  0  0  0  0  0  0
  -32.0730  -14.8130   20.0210 O   0  0  0  0  0  0  0  0  0  0  0  0
  -29.3950  -18.1770   19.4750 C   0  0  0  0  0  2  0  0  0  0  0  0
  -30.8130  -18.4370   21.4290 C   0  0  0  0  0  2  0  0  0  0  0  0
  -29.2250  -16.6270   19.7650 C   0  0  0  0  0  2  0  0  0  0  0  0
  -30.6930  -16.8820   21.7370 C   0  0  0  0  0  2  0  0  0  0  0  0
  -29.5800  -19.0740   20.7300 C   0  0  0  0  0  3  0  0  0  0  0  0
  -30.2160  -15.9590   20.6600 N   0  0  0  0  0  0  0  0  0  0  0  0
  -25.4580  -13.8640   20.5020 C   0  0  0  0  0  0  0  0  0  0  0  0
  -24.3940  -13.0900   20.8760 C   0  0  0  0  0  0  0  0  0  0  0  0
  -24.8520  -11.7380   20.8270 C   0  0  0  0  0  0  0  0  0  0  0  0
  -26.4970  -12.9830   20.2440 N   0  0  0  0  0  0  0  0  0  0  0  0
  -26.1390  -11.6990   20.5040 N   0  0  0  0  0  0  0  0  0  0  0  0
  -24.1240  -10.4760   21.0090 C   0  0  0  0  0  0  0  0  0  0  0  0
  -24.5440   -9.5100   21.9500 C   0  0  0  0  0  3  0  0  0  0  0  0
  -23.8140   -8.3130   22.1210 C   0  0  0  0  0  3  0  0  0  0  0  0
  -22.6510   -8.0750   21.3510 C   0  0  0  0  0  0  0  0  0  0  0  0
  -22.2500   -9.0290   20.3980 C   0  0  0  0  0  3  0  0  0  0  0  0
  -22.9810  -10.2170   20.2260 C   0  0  0  0  0  3  0  0  0  0  0  0
  -21.8930   -6.9320   21.4310 O   0  0  0  0  0  0  0  0  0  0  0  0
  -21.7910   -6.2170   22.5980 C   0  0  0  0  0  0  0  0  0  0  0  0
  -21.3100   -6.8020   23.7910 C   0  0  0  0  0  3  0  0  0  0  0  0
  -21.1580   -6.0130   24.9480 C   0  0  0  0  0  3  0  0  0  0  0  0
  -21.4740   -4.6410   24.9130 C   0  0  0  0  0  0  0  0  0  0  0  0
  -21.9450   -4.0570   23.7250 C   0  0  0  0  0  3  0  0  0  0  0  0
  -22.1020   -4.8430   22.5700 C   0  0  0  0  0  0  0  0  0  0  0  0
  -22.5380   -4.2700   21.4220 F   0  0  0  0  0  0  0  0  0  0  0  0
  -21.3180   -3.8820   26.0230 F   0  0  0  0  0  0  0  0  0  0  0  0
  -23.0010  -13.5690   21.1650 C   0  0  0  0  0  0  0  0  0  0  0  0
  -22.2780  -12.8740   22.0370 N   0  0  0  0  0  0  0  0  0  0  0  0
  -22.5600  -14.5970   20.6530 O   0  0  0  0  0  0  0  0  0  0  0  0
  -22.6450  -12.0440   22.4790 H   0  0  0  0  0  0  0  0  0  0  0  0
  -21.3420  -13.1790   22.2680 H   0  0  0  0  0  0  0  0  0  0  0  0
  -25.6220  -15.2360   20.3380 N   0  0  0  0  0  0  0  0  0  0  0  0
  -24.8570  -15.8880   20.4720 H   0  0  0  0  0  0  0  0  0  0  0  0
  -26.4700  -15.6800   20.0140 H   0  0  0  0  0  0  0  0  0  0  0  0
  -28.3610  -22.6090   16.9410 C   0  0  0  0  0  1  0  0  0  0  0  0
  -28.4670  -23.3760   18.1330 O   0  0  0  0  0  0  0  0  0  0  0  0
  -28.0640  -24.9460   20.5300 C   0  0  0  0  0  2  0  0  0  0  0  0
  -28.5250  -26.3580   20.2550 O   0  0  0  0  0  0  0  0  0  0  0  0
  -24.8430  -31.8330   23.3510 C   0  0  0  0  0  0  0  0  0  0  0  0
  -27.4730  -27.3120   20.1910 C   0  0  0  0  0  0  0  0  0  0  0  0
  -23.6620  -30.4930   21.6500 C   0  0  0  0  0  3  0  0  0  0  0  0
  -25.1300  -28.9890   20.1940 C   0  0  0  0  0  0  0  0  0  0  0  0
  -26.2130  -30.7890   21.5250 C   0  0  0  0  0  2  0  0  0  0  0  0
  -26.2960  -29.4290   20.8330 C   0  0  0  0  0  0  0  0  0  0  0  0
  -27.4710  -28.6020   20.8280 C   0  0  0  0  0  3  0  0  0  0  0  0
  -26.2910  -26.9770   19.4870 C   0  0  0  0  0  3  0  0  0  0  0  0
  -25.1330  -27.7700   19.5090 C   0  0  0  0  0  3  0  0  0  0  0  0
  -23.8980  -29.8690   20.2520 C   0  0  0  0  0  2  0  0  0  0  0  0
  -24.9240  -31.0550   22.2300 N   0  0  0  0  0  0  0  0  0  0  0  0
  -23.7500  -32.0990   23.8740 O   0  0  0  0  0  0  0  0  0  0  0  0
  -22.9780  -29.4470   22.5650 C   0  0  0  0  0  0  0  0  0  0  0  0
  -21.6510  -29.2850   22.4200 N   0  0  0  0  0  0  0  0  0  0  0  0
  -23.6430  -28.7880   23.3690 O   0  0  0  0  0  0  0  0  0  0  0  0
  -21.1730  -29.8750   21.7530 H   0  0  0  0  0  0  0  0  0  0  0  0
  -18.2560  -28.1090   22.8620 C   0  0  0  0  0  0  0  0  0  0  0  0
  -20.8170  -28.3280   23.1500 C   0  0  0  0  0  3  0  0  0  0  0  0
  -20.9020  -26.9170   22.5220 C   0  0  0  0  0  2  0  0  0  0  0  0
  -19.8020  -26.6460   21.4930 C   0  0  0  0  0  2  0  0  0  0  0  0
  -18.4190  -26.7840   22.1360 C   0  0  0  0  0  2  0  0  0  0  0  0
  -19.3820  -28.8410   23.3240 C   0  0  0  0  0  0  0  0  0  0  0  0
  -19.1740  -30.0820   23.9640 C   0  0  0  0  0  3  0  0  0  0  0  0
  -17.8750  -30.5910   24.1450 C   0  0  0  0  0  3  0  0  0  0  0  0
  -16.7630  -29.8570   23.6970 C   0  0  0  0  0  3  0  0  0  0  0  0
  -16.9550  -28.6170   23.0620 C   0  0  0  0  0  3  0  0  0  0  0  0
  -26.1160  -32.4420   24.0110 C   0  0  0  0  0  3  0  0  0  0  0  0
  -26.6110  -31.6270   25.2690 C   0  0  1  0  0  0  0  0  0  0  0  0
  -25.5070  -31.3690   26.3190 C   0  0  0  0  0  1  0  0  0  0  0  0
  -27.1860  -30.2550   24.8450 C   0  0  0  0  0  1  0  0  0  0  0  0
  -27.7610  -32.3940   25.9670 C   0  0  0  0  0  1  0  0  0  0  0  0
  -25.8050  -33.8290   24.3820 N   0  0  0  0  0  0  0  0  0  0  0  0
  -26.1230  -34.9060   23.6520 C   0  0  0  0  0  0  0  0  0  0  0  0
  -26.7820  -34.8360   22.6110 O   0  0  0  0  0  0  0  0  0  0  0  0
  -25.2210  -33.9560   25.1960 H   0  0  0  0  0  0  0  0  0  0  0  0
  -24.3710  -36.6920   23.3810 C   0  0  0  0  0  1  0  0  0  0  0  0
  -25.6320  -36.2780   24.1550 C   0  0  0  0  0  3  0  0  0  0  0  0
  -27.7830  -37.1560   24.9530 C   0  0  0  0  0  1  0  0  0  0  0  0
  -26.6500  -37.3460   24.0510 N   0  0  0  0  0  0  0  0  0  0  0  0
  -26.2380  -38.2540   24.2500 H   0  0  0  0  0  0  0  0  0  0  0  0
  -29.3210  -23.7140   22.8060 O   0  0  0  0  0  0  0  0  0  0  0  0
  -29.4380  -24.1430   25.1620 C   0  0  0  0  0  1  0  0  0  0  0  0
  -29.7420  -23.1480   24.0400 C   0  0  0  0  0  2  0  0  0  0  0  0
  1  3  1  0
  3  2  2  0
  4 51  1  0
  4  6  2  0
  5  1  2  0
  5  4  1  0
  6  2  1  0
  6 93  1  0
  7 20  1  0
  8 13  1  0
  9 10  1  0
  9  8  1  0
 11 10  1  0
 11 24  1  0
 11 12  1  0
 13  7  1  0
 13 12  1  0
 14  7  2  0
 15 17  1  0
 15 19  1  0
 16 18  1  0
 17 20  1  0
 19  3  1  0
 19 16  1  0
 20 18  1  0
 21 22  2  0
 22 41  1  0
 23 22  1  0
 23 26  1  0
 24 21  1  0
 24 25  1  0
 25 23  2  0
 26 27  1  0
 27 28  2  0
 29 32  1  0
 29 28  1  0
 30 29  2  0
 31 30  1  0
 31 26  2  0
 32 33  1  0
 33 34  1  0
 34 35  2  0
 36 35  1  0
 36 40  1  0
 37 36  2  0
 38 33  2  0
 38 37  1  0
 39 38  1  0
 41 42  1  0
 42 45  1  0
 42 44  1  0
 43 41  2  0
 46 47  1  0
 46 21  1  0
 48 46  1  0
 49 50  1  0
 50  5  1  0
 52 51  1  0
 53 64  2  0
 54 52  1  0
 54 59  1  0
 55 63  1  0
 55 65  1  0
 56 62  1  0
 56 58  1  0
 57 63  1  0
 58 57  1  0
 59 58  2  0
 60 61  1  0
 60 54  2  0
 61 56  2  0
 62 55  1  0
 63 53  1  0
 65 67  2  0
 66 65  1  0
 68 66  1  0
 69 78  2  0
 69 74  1  0
 70 66  1  0
 70 74  1  0
 71 70  1  0
 72 73  1  0
 72 71  1  0
 73 69  1  0
 74 75  2  0
 75 76  1  0
 77 76  2  0
 78 77  1  0
 79 53  1  0
 79 84  1  0
 79 80  1  0
 80 83  1  1
 80 81  1  0
 82 80  1  0
 84 87  1  0
 85 89  1  0
 85 84  1  0
 86 85  2  0
 89 88  1  0
 91 89  1  0
 91 92  1  0
 91 90  1  0
 93 95  1  0
 95 94  1  0
M  ISO  4   7 100  20 100  51 101  52 101
M  END
>  <TORSDO>  (17) 
F 20

>  <SCORE>  (17) 
-11.952

>  <name>  (17) 
16

>  <ligand_id>  (17) 
16

>  <original_smiles>  (17) 
[H]c1c([H])c([H])c2c(c1[H])C([H])([H])C([H])([H])C([H])([H])C2([H])N([H])C(=O)C1([H])N(C(=O)C([H])(N([H])C(=O)C([H])(N([H])C([H])([H])[H])C([H])([H])[H])C(C([H])([H])[H])(C([H])([H])[H])C([H])([H])[H])C([H])([H])c2c([H])c(OC([H])([H])c3c(OC([H])([H])[H])c([H])c(C4([H])C([H])([H])C([H])([H])N(C(=O)N5C([H])([H])C([H])([H])C([H])([H])C([H])(n6nc(-c7c([H])c([H])c(Oc8c([H])c([H])c(F)c([H])c8F)c([H])c7[H])c(C(=O)N([H])[H])c6N([H])[H])C5([H])[H])C([H])([H])C4([H])[H])c([H])c3OC([H])([H])C([H])([H])[H])c([H])c([H])c2C1([H])[H]

>  <smiles>  (17) 
[H]c1c([H])c([H])c2c(c1[H])C([H])([H])C([H])([H])C([H])([H])C2([H])N([H])C(=O)C1([H])N(C(=O)C([H])(N([H])C(=O)C([H])(N([H])C([H])([H])[H])C([H])([H])[H])C(C([H])([H])[H])(C([H])([H])[H])C([H])([H])[H])C([H])([H])c2c([H])c(OC([H])([H])c3c(OC([H])([H])[H])c([H])c(C4([H])C([H])([H])C([H])([H])N(C(=O)N5C([H])([H])C([H])([H])C([H])([H])C([H])(n6nc(-c7c([H])c([H])c(Oc8c([H])c([H])c(F)c([H])c8F)c([H])c7[H])c(C(=O)N([H])[H])c6N([H])[H])C5([H])[H])C([H])([H])C4([H])[H])c([H])c3OC([H])([H])C([H])([H])[H])c([H])c([H])c2C1([H])[H]

$$$$
17:0:0
     RDKit          3D

 97106  0  0  1  0  0  0  0  0999 V2000
  -30.1000  -22.0940   22.1910 C   0  0  0  0  0  2  0  0  0  0  0  0
  -30.0930  -23.6100   22.4180 C   0  0  0  0  0  2  0  0  0  0  0  0
  -30.0620  -23.1990   20.0670 C   0  0  0  0  0  2  0  0  0  0  0  0
  -30.6590  -21.9500   20.7730 C   0  0  0  0  0  3  0  0  0  0  0  0
  -29.7700  -24.2230   21.1080 N   0  0  2  0  0  4  0  0  0  0  0  0
  -28.7650  -24.3230   21.0770 H   0  0  0  0  0  0  0  0  0  0  0  0
  -30.5310  -19.3860   20.9170 C   0  0  0  0  0  3  0  0  0  0  0  0
  -30.0740  -19.0990   18.1960 C   0  0  0  0  0  3  0  0  0  0  0  0
  -30.4700  -20.5560   20.1150 C   0  0  0  0  0  0  0  0  0  0  0  0
  -30.3620  -18.0750   20.3990 C   0  0  0  0  0  0  0  0  0  0  0  0
  -30.0810  -17.9440   19.0080 C   0  0  0  0  0  0  0  0  0  0  0  0
  -30.2890  -20.3970   18.7180 C   0  0  0  0  0  0  0  0  0  0  0  0
  -29.7910  -16.6270   18.3030 C   0  0  0  0  0  1  0  0  0  0  0  0
  -30.1690  -21.3790   16.5130 C   0  0  0  0  0  1  0  0  0  0  0  0
  -30.3440  -21.5160   17.9160 O   0  0  0  0  0  0  0  0  0  0  0  0
  -30.5800  -16.9210   21.4080 C   0  0  0  0  0  2  0  0  0  0  0  0
  -30.7740  -14.5340   20.6870 C   0  0  0  0  0  0  0  0  0  0  0  0
  -30.4960  -12.3770   19.5340 C   0  0  0  0  0  2  0  0  0  0  0  0
  -29.5950  -12.5730   18.3000 C   0  0  0  0  0  2  0  0  0  0  0  0
  -28.1060  -12.4420   18.6740 C   0  0  0  0  0  2  0  0  0  0  0  0
  -27.7230  -13.2830   19.9240 C   0  0  0  0  0  3  0  0  0  0  0  0
  -28.7450  -13.0780   21.0670 C   0  0  0  0  0  2  0  0  0  0  0  0
  -30.0870  -13.3710   20.5360 N   0  0  0  0  0  0  0  0  0  0  0  0
  -31.9310  -14.6860   20.2980 O   0  0  0  0  0  0  0  0  0  0  0  0
  -30.0550  -15.5750   21.1380 N   0  0  0  0  0  0  0  0  0  0  0  0
  -29.0920  -15.4010   21.3820 H   0  0  0  0  0  0  0  0  0  0  0  0
  -25.3040  -13.8870   20.5550 C   0  0  0  0  0  0  0  0  0  0  0  0
  -24.2290  -13.1130   20.8960 C   0  0  0  0  0  0  0  0  0  0  0  0
  -24.6940  -11.7630   20.8850 C   0  0  0  0  0  0  0  0  0  0  0  0
  -26.3580  -13.0070   20.3610 N   0  0  0  0  0  0  0  0  0  0  0  0
  -25.9950  -11.7250   20.6210 N   0  0  0  0  0  0  0  0  0  0  0  0
  -23.9660  -10.5000   21.0540 C   0  0  0  0  0  0  0  0  0  0  0  0
  -24.3650   -9.5450   22.0140 C   0  0  0  0  0  3  0  0  0  0  0  0
  -23.6410   -8.3440   22.1750 C   0  0  0  0  0  3  0  0  0  0  0  0
  -22.5020   -8.0920   21.3750 C   0  0  0  0  0  0  0  0  0  0  0  0
  -22.1210   -9.0360   20.4050 C   0  0  0  0  0  3  0  0  0  0  0  0
  -22.8470  -10.2270   20.2420 C   0  0  0  0  0  3  0  0  0  0  0  0
  -21.7480   -6.9450   21.4450 O   0  0  0  0  0  0  0  0  0  0  0  0
  -21.6460   -6.2190   22.6040 C   0  0  0  0  0  0  0  0  0  0  0  0
  -21.1340   -6.7810   23.7950 C   0  0  0  0  0  3  0  0  0  0  0  0
  -20.9820   -5.9780   24.9440 C   0  0  0  0  0  3  0  0  0  0  0  0
  -21.3300   -4.6150   24.9030 C   0  0  0  0  0  0  0  0  0  0  0  0
  -21.8340   -4.0520   23.7170 C   0  0  0  0  0  3  0  0  0  0  0  0
  -21.9890   -4.8510   22.5710 C   0  0  0  0  0  0  0  0  0  0  0  0
  -22.4530   -4.2980   21.4240 F   0  0  0  0  0  0  0  0  0  0  0  0
  -21.1750   -3.8430   26.0030 F   0  0  0  0  0  0  0  0  0  0  0  0
  -22.8210  -13.5840   21.1180 C   0  0  0  0  0  0  0  0  0  0  0  0
  -22.0640  -12.8890   21.9600 N   0  0  0  0  0  0  0  0  0  0  0  0
  -22.3970  -14.6080   20.5810 O   0  0  0  0  0  0  0  0  0  0  0  0
  -22.4140  -12.0570   22.4130 H   0  0  0  0  0  0  0  0  0  0  0  0
  -21.1170  -13.1830   22.1480 H   0  0  0  0  0  0  0  0  0  0  0  0
  -25.4670  -15.2580   20.3720 N   0  0  0  0  0  0  0  0  0  0  0  0
  -24.6890  -15.9040   20.4540 H   0  0  0  0  0  0  0  0  0  0  0  0
  -26.3230  -15.7060   20.0700 H   0  0  0  0  0  0  0  0  0  0  0  0
  -30.3210  -25.5960   20.8840 C   0  0  0  0  0  2  0  0  0  0  0  0
  -29.2910  -26.7150   21.1720 C   0  0  0  0  0  2  0  0  0  0  0  0
  -28.3320  -26.6920   20.1160 O   0  0  0  0  0  0  0  0  0  0  0  0
  -24.5420  -31.9160   23.2660 C   0  0  0  0  0  0  0  0  0  0  0  0
  -27.2080  -27.4850   20.2010 C   0  0  0  0  0  0  0  0  0  0  0  0
  -23.3380  -30.5100   21.6230 C   0  0  0  0  0  3  0  0  0  0  0  0
  -24.8000  -28.9720   20.2070 C   0  0  0  0  0  0  0  0  0  0  0  0
  -25.8600  -30.8770   21.4260 C   0  0  0  0  0  2  0  0  0  0  0  0
  -25.9540  -29.5000   20.8010 C   0  0  0  0  0  0  0  0  0  0  0  0
  -27.1590  -28.7610   20.8100 C   0  0  0  0  0  3  0  0  0  0  0  0
  -26.0400  -26.9760   19.5970 C   0  0  0  0  0  3  0  0  0  0  0  0
  -24.8370  -27.7020   19.6050 C   0  0  0  0  0  3  0  0  0  0  0  0
  -23.5550  -29.8280   20.2450 C   0  0  0  0  0  2  0  0  0  0  0  0
  -24.5980  -31.1150   22.1650 N   0  0  0  0  0  0  0  0  0  0  0  0
  -23.4610  -32.1850   23.8080 O   0  0  0  0  0  0  0  0  0  0  0  0
  -22.6900  -29.4900   22.5850 C   0  0  0  0  0  0  0  0  0  0  0  0
  -21.3660  -29.2990   22.4550 N   0  0  0  0  0  0  0  0  0  0  0  0
  -23.3740  -28.8700   23.4050 O   0  0  0  0  0  0  0  0  0  0  0  0
  -20.8760  -29.8490   21.7640 H   0  0  0  0  0  0  0  0  0  0  0  0
  -17.9980  -28.0970   22.9540 C   0  0  0  0  0  0  0  0  0  0  0  0
  -20.5540  -28.3640   23.2310 C   0  0  0  0  0  3  0  0  0  0  0  0
  -20.6620  -26.9310   22.6590 C   0  0  0  0  0  2  0  0  0  0  0  0
  -19.5640  -26.6010   21.6450 C   0  0  0  0  0  2  0  0  0  0  0  0
  -18.1810  -26.7460   22.2850 C   0  0  0  0  0  2  0  0  0  0  0  0
  -19.1130  -28.8640   23.3840 C   0  0  0  0  0  0  0  0  0  0  0  0
  -18.8910  -30.1280   23.9710 C   0  0  0  0  0  3  0  0  0  0  0  0
  -17.5830  -30.6270   24.1330 C   0  0  0  0  0  3  0  0  0  0  0  0
  -16.4830  -29.8590   23.7170 C   0  0  0  0  0  3  0  0  0  0  0  0
  -16.6900  -28.5970   23.1330 C   0  0  0  0  0  3  0  0  0  0  0  0
  -25.8300  -32.5490   23.8800 C   0  0  0  0  0  3  0  0  0  0  0  0
  -25.5280  -33.9530   24.1840 N   0  0  0  0  0  0  0  0  0  0  0  0
  -25.8830  -34.9890   23.4120 C   0  0  0  0  0  0  0  0  0  0  0  0
  -26.5680  -34.8640   22.3930 O   0  0  0  0  0  0  0  0  0  0  0  0
  -24.9170  -34.1240   24.9700 H   0  0  0  0  0  0  0  0  0  0  0  0
  -24.1910  -36.8010   22.9840 C   0  0  0  0  0  1  0  0  0  0  0  0
  -25.3990  -36.3890   23.8390 C   0  0  0  0  0  3  0  0  0  0  0  0
  -27.5170  -37.2600   24.7300 C   0  0  0  0  0  1  0  0  0  0  0  0
  -26.4490  -37.4270   23.7470 N   0  0  0  0  0  0  0  0  0  0  0  0
  -26.0490  -38.3530   23.8700 H   0  0  0  0  0  0  0  0  0  0  0  0
  -26.3390  -31.7940   25.1690 C   0  0  1  0  0  0  0  0  0  0  0  0
  -25.2420  -31.5790   26.2370 C   0  0  0  0  0  1  0  0  0  0  0  0
  -26.9150  -30.4070   24.7970 C   0  0  0  0  0  1  0  0  0  0  0  0
  -27.4900  -32.5930   25.8240 C   0  0  0  0  0  1  0  0  0  0  0  0
  1  2  1  0
  3  4  1  0
  3  5  1  0
  4  9  1  0
  4  1  1  0
  5  2  1  0
  5  6  1  1
  8 12  2  0
  8 11  1  0
  9  7  2  0
 10  7  1  0
 10 16  1  0
 11 10  2  0
 12  9  1  0
 13 11  1  0
 14 15  1  0
 15 12  1  0
 17 25  1  0
 18 23  1  0
 19 20  1  0
 19 18  1  0
 21 20  1  0
 21 30  1  0
 21 22  1  0
 23 17  1  0
 23 22  1  0
 24 17  2  0
 25 26  1  0
 25 16  1  0
 27 28  2  0
 28 47  1  0
 29 28  1  0
 29 32  1  0
 30 27  1  0
 30 31  1  0
 31 29  2  0
 32 33  1  0
 33 34  2  0
 35 38  1  0
 35 34  1  0
 36 35  2  0
 37 36  1  0
 37 32  2  0
 38 39  1  0
 39 40  1  0
 40 41  2  0
 42 41  1  0
 42 46  1  0
 43 42  2  0
 44 39  2  0
 44 43  1  0
 45 44  1  0
 47 48  1  0
 48 51  1  0
 48 50  1  0
 49 47  2  0
 52 53  1  0
 52 27  1  0
 54 52  1  0
 55  5  1  0
 55 56  1  0
 57 59  1  0
 57 56  1  0
 58 69  2  0
 59 64  1  0
 60 68  1  0
 60 70  1  0
 61 67  1  0
 61 63  1  0
 62 68  1  0
 63 64  2  0
 63 62  1  0
 65 66  1  0
 65 59  2  0
 66 61  2  0
 67 60  1  0
 68 58  1  0
 70 72  2  0
 71 70  1  0
 73 71  1  0
 74 83  2  0
 74 79  1  0
 75 71  1  0
 75 79  1  0
 76 75  1  0
 77 78  1  0
 77 76  1  0
 78 74  1  0
 79 80  2  0
 80 81  1  0
 82 81  2  0
 83 82  1  0
 84 58  1  0
 84 85  1  0
 84 94  1  0
 85 88  1  0
 86 90  1  0
 86 85  1  0
 87 86  2  0
 90 89  1  0
 92 90  1  0
 92 93  1  0
 92 91  1  0
 94 97  1  1
 94 95  1  0
 96 94  1  0
M  ISO  4  17 100  25 100  56 101  57 101
M  END
>  <TORSDO>  (18) 
F 21

>  <SCORE>  (18) 
-13.493

>  <name>  (18) 
17

>  <ligand_id>  (18) 
17

>  <original_smiles>  (18) 
[H]c1c([H])c([H])c2c(c1[H])C([H])([H])C([H])([H])C([H])([H])C2([H])N([H])C(=O)C1([H])N(C(=O)C([H])(N([H])C(=O)C([H])(N([H])C([H])([H])[H])C([H])([H])[H])C(C([H])([H])[H])(C([H])([H])[H])C([H])([H])[H])C([H])([H])c2c([H])c(OC([H])([H])C([H])([H])[N+]3([H])C([H])([H])C([H])([H])C([H])(c4c([H])c(C([H])([H])N([H])C(=O)N5C([H])([H])C([H])([H])C([H])([H])C([H])(n6nc(-c7c([H])c([H])c(Oc8c([H])c([H])c(F)c([H])c8F)c([H])c7[H])c(C(=O)N([H])[H])c6N([H])[H])C5([H])[H])c(C([H])([H])[H])c([H])c4OC([H])([H])[H])C3([H])[H])c([H])c([H])c2C1([H])[H]

>  <smiles>  (18) 
[H]c1c([H])c([H])c2c(c1[H])C([H])([H])C([H])([H])C([H])([H])C2([H])N([H])C(=O)C1([H])N(C(=O)C([H])(N([H])C(=O)C([H])(N([H])C([H])([H])[H])C([H])([H])[H])C(C([H])([H])[H])(C([H])([H])[H])C([H])([H])[H])C([H])([H])c2c([H])c(OC([H])([H])C([H])([H])[N+]3([H])C([H])([H])C([H])([H])C([H])(c4c([H])c(C([H])([H])N([H])C(=O)N5C([H])([H])C([H])([H])C([H])([H])C([H])(n6nc(-c7c([H])c([H])c(Oc8c([H])c([H])c(F)c([H])c8F)c([H])c7[H])c(C(=O)N([H])[H])c6N([H])[H])C5([H])[H])c(C([H])([H])[H])c([H])c4OC([H])([H])[H])C3([H])[H])c([H])c([H])c2C1([H])[H]

$$$$
18:0:0
     RDKit          3D

 96105  0  0  1  0  0  0  0  0999 V2000
  -29.8010  -23.0820   19.1000 C   0  0  0  0  0  3  0  0  0  0  0  0
  -28.4920  -22.6360   20.9890 C   0  0  0  0  0  3  0  0  0  0  0  0
  -29.9030  -20.6940   20.0750 C   0  0  0  0  0  0  0  0  0  0  0  0
  -28.8700  -23.6250   20.0250 C   0  0  0  0  0  0  0  0  0  0  0  0
  -30.3100  -21.7210   19.1080 C   0  0  0  0  0  0  0  0  0  0  0  0
  -28.9670  -21.2620   21.0190 C   0  0  0  0  0  0  0  0  0  0  0  0
  -31.2940  -21.4840   17.9660 C   0  0  0  0  0  1  0  0  0  0  0  0
  -28.4190  -20.3820   22.1360 C   0  0  0  0  0  1  0  0  0  0  0  0
  -31.8830  -18.8870   19.7020 C   0  0  0  0  0  2  0  0  0  0  0  0
  -31.7000  -18.2800   18.2910 C   0  0  0  0  0  2  0  0  0  0  0  0
  -30.4820  -19.1330   20.2710 C   0  0  0  0  0  3  0  0  0  0  0  0
  -30.2570  -17.7310   18.2220 C   0  0  0  0  0  3  0  0  0  0  0  0
  -29.8090  -17.7370   19.6940 C   0  0  0  0  0  3  0  0  0  0  0  0
  -30.8120  -15.1620   20.0200 C   0  0  0  0  0  0  0  0  0  0  0  0
  -30.6310  -12.8350   19.0760 C   0  0  0  0  0  2  0  0  0  0  0  0
  -29.6470  -12.8590   17.8820 C   0  0  0  0  0  2  0  0  0  0  0  0
  -28.1960  -12.6780   18.3630 C   0  0  0  0  0  2  0  0  0  0  0  0
  -27.8590  -13.5700   19.5850 C   0  0  0  0  0  3  0  0  0  0  0  0
  -28.9590  -13.5180   20.6700 C   0  0  0  0  0  2  0  0  0  0  0  0
  -30.2250  -13.9050   20.0290 N   0  0  0  0  0  0  0  0  0  0  0  0
  -31.9600  -15.2630   19.5840 O   0  0  0  0  0  0  0  0  0  0  0  0
  -30.0220  -16.2960   20.3030 N   0  0  0  0  0  0  0  0  0  0  0  0
  -29.2090  -16.0130   20.8300 H   0  0  0  0  0  0  0  0  0  0  0  0
  -25.5180  -14.1600   20.4420 C   0  0  0  0  0  0  0  0  0  0  0  0
  -24.4600  -13.3890   20.8380 C   0  0  0  0  0  0  0  0  0  0  0  0
  -24.9020  -12.0330   20.7420 C   0  0  0  0  0  0  0  0  0  0  0  0
  -26.5370  -13.2760   20.1270 N   0  0  0  0  0  0  0  0  0  0  0  0
  -26.1770  -11.9890   20.3700 N   0  0  0  0  0  0  0  0  0  0  0  0
  -24.1630  -10.7760   20.9260 C   0  0  0  0  0  0  0  0  0  0  0  0
  -24.5750   -9.8120   21.8720 C   0  0  0  0  0  3  0  0  0  0  0  0
  -23.8410   -8.6180   22.0450 C   0  0  0  0  0  3  0  0  0  0  0  0
  -22.6800   -8.3830   21.2720 C   0  0  0  0  0  0  0  0  0  0  0  0
  -22.2870   -9.3350   20.3140 C   0  0  0  0  0  3  0  0  0  0  0  0
  -23.0220  -10.5200   20.1400 C   0  0  0  0  0  3  0  0  0  0  0  0
  -21.9140   -7.2450   21.3560 O   0  0  0  0  0  0  0  0  0  0  0  0
  -21.7740   -6.5580   22.5340 C   0  0  0  0  0  0  0  0  0  0  0  0
  -21.2070   -7.1550   23.6820 C   0  0  0  0  0  3  0  0  0  0  0  0
  -21.0180   -6.3920   24.8510 C   0  0  0  0  0  3  0  0  0  0  0  0
  -21.3810   -5.0310   24.8720 C   0  0  0  0  0  0  0  0  0  0  0  0
  -21.9360   -4.4330   23.7280 C   0  0  0  0  0  3  0  0  0  0  0  0
  -22.1290   -5.1940   22.5620 C   0  0  0  0  0  0  0  0  0  0  0  0
  -22.6470   -4.6060   21.4550 F   0  0  0  0  0  0  0  0  0  0  0  0
  -21.1890   -4.2970   25.9930 F   0  0  0  0  0  0  0  0  0  0  0  0
  -23.0850  -13.8760   21.1920 C   0  0  0  0  0  0  0  0  0  0  0  0
  -22.3940  -13.1700   22.0810 N   0  0  0  0  0  0  0  0  0  0  0  0
  -22.6340  -14.9170   20.7160 O   0  0  0  0  0  0  0  0  0  0  0  0
  -22.7750  -12.3300   22.4890 H   0  0  0  0  0  0  0  0  0  0  0  0
  -21.4710  -13.4740   22.3570 H   0  0  0  0  0  0  0  0  0  0  0  0
  -25.6940  -15.5340   20.2980 N   0  0  0  0  0  0  0  0  0  0  0  0
  -24.9380  -16.1920   20.4480 H   0  0  0  0  0  0  0  0  0  0  0  0
  -26.5230  -15.9660   19.9110 H   0  0  0  0  0  0  0  0  0  0  0  0
  -29.2790  -18.5440   17.3420 C   0  0  0  0  0  2  0  0  0  0  0  0
  -29.6920  -18.5340   15.9880 O   0  0  0  0  0  0  0  0  0  0  0  0
  -30.5590  -18.9210   15.9440 H   0  0  0  0  0  0  0  0  0  0  0  0
  -28.0440  -25.0140   19.7790 C   0  0  0  0  0  2  0  0  0  0  0  0
  -28.4010  -26.4740   20.0980 O   0  0  0  0  0  0  0  0  0  0  0  0
  -24.7150  -31.9830   23.2590 C   0  0  0  0  0  0  0  0  0  0  0  0
  -27.3410  -27.4480   20.0480 C   0  0  0  0  0  0  0  0  0  0  0  0
  -23.5200  -30.6240   21.5870 C   0  0  0  0  0  3  0  0  0  0  0  0
  -24.9810  -29.1350   20.0960 C   0  0  0  0  0  0  0  0  0  0  0  0
  -26.0640  -30.9490   21.4030 C   0  0  0  0  0  2  0  0  0  0  0  0
  -26.1570  -29.5820   20.7110 C   0  0  0  0  0  0  0  0  0  0  0  0
  -27.3380  -28.7510   20.6780 C   0  0  0  0  0  3  0  0  0  0  0  0
  -26.1370  -27.1110   19.3810 C   0  0  0  0  0  3  0  0  0  0  0  0
  -24.9810  -27.9110   19.4160 C   0  0  0  0  0  3  0  0  0  0  0  0
  -23.7380  -30.0010   20.1830 C   0  0  0  0  0  2  0  0  0  0  0  0
  -24.7870  -31.2030   22.1400 N   0  0  0  0  0  0  0  0  0  0  0  0
  -23.6300  -32.2310   23.8070 O   0  0  0  0  0  0  0  0  0  0  0  0
  -22.8700  -29.5700   22.5180 C   0  0  0  0  0  0  0  0  0  0  0  0
  -21.5460  -29.3730   22.3910 N   0  0  0  0  0  0  0  0  0  0  0  0
  -23.5580  -28.9340   23.3220 O   0  0  0  0  0  0  0  0  0  0  0  0
  -21.0470  -29.9400   21.7210 H   0  0  0  0  0  0  0  0  0  0  0  0
  -18.1900  -28.1000   22.8730 C   0  0  0  0  0  0  0  0  0  0  0  0
  -20.7450  -28.3990   23.1370 C   0  0  0  0  0  3  0  0  0  0  0  0
  -20.8690  -26.9860   22.5210 C   0  0  0  0  0  2  0  0  0  0  0  0
  -19.7670  -26.6750   21.5020 C   0  0  0  0  0  2  0  0  0  0  0  0
  -18.3870  -26.7750   22.1570 C   0  0  0  0  0  2  0  0  0  0  0  0
  -19.2970  -28.8690   23.3200 C   0  0  0  0  0  0  0  0  0  0  0  0
  -19.0560  -30.1090   23.9520 C   0  0  0  0  0  3  0  0  0  0  0  0
  -17.7420  -30.5780   24.1420 C   0  0  0  0  0  3  0  0  0  0  0  0
  -16.6510  -29.8050   23.7110 C   0  0  0  0  0  3  0  0  0  0  0  0
  -16.8750  -28.5680   23.0800 C   0  0  0  0  0  3  0  0  0  0  0  0
  -25.9890  -32.6180   23.8940 C   0  0  0  0  0  3  0  0  0  0  0  0
  -26.4990  -31.8370   25.1680 C   0  0  1  0  0  0  0  0  0  0  0  0
  -25.4000  -31.5830   26.2260 C   0  0  0  0  0  1  0  0  0  0  0  0
  -27.0910  -30.4650   24.7730 C   0  0  0  0  0  1  0  0  0  0  0  0
  -27.6430  -32.6290   25.8450 C   0  0  0  0  0  1  0  0  0  0  0  0
  -25.6740  -34.0120   24.2340 N   0  0  0  0  0  0  0  0  0  0  0  0
  -25.9700  -35.0710   23.4670 C   0  0  0  0  0  0  0  0  0  0  0  0
  -26.6080  -34.9750   22.4150 O   0  0  0  0  0  0  0  0  0  0  0  0
  -25.1100  -34.1600   25.0580 H   0  0  0  0  0  0  0  0  0  0  0  0
  -24.2020  -36.8380   23.1830 C   0  0  0  0  0  1  0  0  0  0  0  0
  -25.4830  -36.4530   23.9400 C   0  0  0  0  0  3  0  0  0  0  0  0
  -27.6320  -37.3820   24.6810 C   0  0  0  0  0  1  0  0  0  0  0  0
  -26.4930  -37.5220   23.7790 N   0  0  0  0  0  0  0  0  0  0  0  0
  -26.0770  -38.4360   23.9340 H   0  0  0  0  0  0  0  0  0  0  0  0
  1  5  2  0
  1  4  1  0
  2  6  1  0
  3  6  2  0
  4  2  2  0
  5  3  1  0
  6  8  1  0
  7  5  1  0
  9 11  1  0
 10  9  1  0
 11  3  1  0
 12 52  1  0
 12 10  1  0
 12 13  1  0
 13 11  1  0
 13 22  1  0
 14 20  1  0
 14 22  1  0
 15 20  1  0
 16 17  1  0
 16 15  1  0
 18 17  1  0
 18 27  1  0
 18 19  1  0
 20 19  1  0
 21 14  2  0
 22 23  1  0
 24 25  2  0
 25 44  1  0
 26 25  1  0
 26 29  1  0
 27 28  1  0
 27 24  1  0
 28 26  2  0
 29 30  1  0
 30 31  2  0
 32 35  1  0
 32 31  1  0
 33 32  2  0
 34 33  1  0
 34 29  2  0
 35 36  1  0
 36 41  2  0
 36 37  1  0
 37 38  2  0
 38 39  1  0
 39 43  1  0
 40 39  2  0
 41 40  1  0
 42 41  1  0
 44 45  1  0
 45 48  1  0
 45 47  1  0
 46 44  2  0
 49 24  1  0
 49 50  1  0
 51 49  1  0
 53 52  1  0
 54 53  1  0
 55  4  1  0
 55 56  1  0
 57 68  2  0
 58 56  1  0
 58 63  1  0
 59 67  1  0
 59 69  1  0
 60 66  1  0
 60 62  1  0
 61 67  1  0
 62 61  1  0
 63 62  2  0
 64 65  1  0
 64 58  2  0
 65 60  2  0
 66 59  1  0
 67 57  1  0
 69 71  2  0
 70 69  1  0
 72 70  1  0
 73 82  2  0
 73 78  1  0
 74 70  1  0
 74 78  1  0
 75 74  1  0
 76 77  1  0
 76 75  1  0
 77 73  1  0
 78 79  2  0
 79 80  1  0
 81 80  2  0
 82 81  1  0
 83 57  1  0
 83 88  1  0
 83 84  1  0
 84 87  1  1
 84 85  1  0
 86 84  1  0
 88 91  1  0
 89 93  1  0
 89 88  1  0
 90 89  2  0
 93 92  1  0
 95 96  1  0
 95 93  1  0
 95 94  1  0
M  ISO  4  14 100  22 100  55 101  56 101
M  END
>  <TORSDO>  (19) 
F 20

>  <SCORE>  (19) 
-12.406

>  <name>  (19) 
18

>  <ligand_id>  (19) 
18

>  <original_smiles>  (19) 
[H]OC([H])([H])C1([H])C([H])([H])C([H])([H])C([H])(c2c(C([H])([H])[H])c([H])c(C([H])([H])Oc3c([H])c([H])c4c(c3[H])C([H])([H])N(C(=O)C([H])(N([H])C(=O)C([H])(N([H])C([H])([H])[H])C([H])([H])[H])C(C([H])([H])[H])(C([H])([H])[H])C([H])([H])[H])C([H])(C(=O)N([H])C3([H])c5c([H])c([H])c([H])c([H])c5C([H])([H])C([H])([H])C3([H])[H])C4([H])[H])c([H])c2C([H])([H])[H])C1([H])N([H])C(=O)N1C([H])([H])C([H])([H])C([H])([H])C([H])(n2nc(-c3c([H])c([H])c(Oc4c([H])c([H])c(F)c([H])c4F)c([H])c3[H])c(C(=O)N([H])[H])c2N([H])[H])C1([H])[H]

>  <smiles>  (19) 
[H]OC([H])([H])C1([H])C([H])([H])C([H])([H])C([H])(c2c(C([H])([H])[H])c([H])c(C([H])([H])Oc3c([H])c([H])c4c(c3[H])C([H])([H])N(C(=O)C([H])(N([H])C(=O)C([H])(N([H])C([H])([H])[H])C([H])([H])[H])C(C([H])([H])[H])(C([H])([H])[H])C([H])([H])[H])C([H])(C(=O)N([H])C3([H])c5c([H])c([H])c([H])c([H])c5C([H])([H])C([H])([H])C3([H])[H])C4([H])[H])c([H])c2C([H])([H])[H])C1([H])N([H])C(=O)N1C([H])([H])C([H])([H])C([H])([H])C([H])(n2nc(-c3c([H])c([H])c(Oc4c([H])c([H])c(F)c([H])c4F)c([H])c3[H])c(C(=O)N([H])[H])c2N([H])[H])C1([H])[H]

$$$$
19:0:0
     RDKit          3D

 94103  0  0  1  0  0  0  0  0999 V2000
  -30.7110  -22.3600   20.1640 C   0  0  0  0  0  3  0  0  0  0  0  0
  -29.9520  -21.1650   20.1160 C   0  0  0  0  0  0  0  0  0  0  0  0
  -28.5450  -21.2840   20.1630 C   0  0  0  0  0  0  0  0  0  0  0  0
  -30.1150  -23.6440   20.3020 C   0  0  0  0  0  0  0  0  0  0  0  0
  -27.9280  -22.5880   20.2410 C   0  0  0  0  0  0  0  0  0  0  0  0
  -28.7040  -23.7990   20.3610 C   0  0  0  0  0  0  0  0  0  0  0  0
  -30.6830  -19.7880   20.0420 C   0  0  0  0  0  2  0  0  0  0  0  0
  -27.7270  -19.9810   20.1360 C   0  0  0  0  0  2  0  0  0  0  0  0
  -28.4880  -18.6890   20.5680 C   0  0  0  0  0  2  0  0  0  0  0  0
  -29.8500  -18.4520   19.8690 C   0  0  1  0  0  0  0  0  0  0  0  0
  -31.0250  -24.8540   20.4290 C   0  0  0  0  0  1  0  0  0  0  0  0
  -26.4050  -22.6860   20.2150 C   0  0  0  0  0  1  0  0  0  0  0  0
  -29.6290  -18.1870   18.3670 C   0  0  0  0  0  1  0  0  0  0  0  0
  -28.0480  -25.1850   20.7710 C   0  0  0  0  0  2  0  0  0  0  0  0
  -28.3040  -26.4390   20.0340 O   0  0  0  0  0  0  0  0  0  0  0  0
  -24.6130  -31.8110   23.1390 C   0  0  0  0  0  0  0  0  0  0  0  0
  -27.2180  -27.3180   20.0120 C   0  0  0  0  0  0  0  0  0  0  0  0
  -23.4070  -30.4380   21.4790 C   0  0  0  0  0  3  0  0  0  0  0  0
  -24.8560  -28.9130   20.0240 C   0  0  0  0  0  0  0  0  0  0  0  0
  -25.9430  -30.7660   21.2950 C   0  0  0  0  0  2  0  0  0  0  0  0
  -26.0250  -29.3990   20.6280 C   0  0  0  0  0  0  0  0  0  0  0  0
  -27.2140  -28.6120   20.6130 C   0  0  0  0  0  3  0  0  0  0  0  0
  -26.0340  -26.8820   19.3830 C   0  0  0  0  0  3  0  0  0  0  0  0
  -24.8620  -27.6600   19.3920 C   0  0  0  0  0  3  0  0  0  0  0  0
  -23.6170  -29.7830   20.0880 C   0  0  0  0  0  2  0  0  0  0  0  0
  -24.6740  -31.0210   22.0280 N   0  0  0  0  0  0  0  0  0  0  0  0
  -23.5320  -32.0820   23.6800 O   0  0  0  0  0  0  0  0  0  0  0  0
  -22.7450  -29.4080   22.4250 C   0  0  0  0  0  0  0  0  0  0  0  0
  -21.4150  -29.2560   22.3170 N   0  0  0  0  0  0  0  0  0  0  0  0
  -23.4280  -28.7490   23.2140 O   0  0  0  0  0  0  0  0  0  0  0  0
  -20.9250  -29.8390   21.6520 H   0  0  0  0  0  0  0  0  0  0  0  0
  -18.0220  -28.1320   22.8710 C   0  0  0  0  0  0  0  0  0  0  0  0
  -20.5920  -28.3120   23.0770 C   0  0  0  0  0  3  0  0  0  0  0  0
  -20.6390  -26.9010   22.4470 C   0  0  0  0  0  2  0  0  0  0  0  0
  -19.5010  -26.6450   21.4540 C   0  0  0  0  0  2  0  0  0  0  0  0
  -18.1410  -26.8040   22.1430 C   0  0  0  0  0  2  0  0  0  0  0  0
  -19.1730  -28.8480   23.2950 C   0  0  0  0  0  0  0  0  0  0  0  0
  -19.0050  -30.0940   23.9380 C   0  0  0  0  0  3  0  0  0  0  0  0
  -17.7200  -30.6230   24.1590 C   0  0  0  0  0  3  0  0  0  0  0  0
  -16.5850  -29.9040   23.7490 C   0  0  0  0  0  3  0  0  0  0  0  0
  -16.7350  -28.6600   23.1120 C   0  0  0  0  0  3  0  0  0  0  0  0
  -25.9000  -32.4310   23.7700 C   0  0  0  0  0  3  0  0  0  0  0  0
  -25.5910  -33.8230   24.1280 N   0  0  0  0  0  0  0  0  0  0  0  0
  -25.9200  -34.8900   23.3890 C   0  0  0  0  0  0  0  0  0  0  0  0
  -26.5850  -34.8070   22.3520 O   0  0  0  0  0  0  0  0  0  0  0  0
  -25.0000  -33.9620   24.9350 H   0  0  0  0  0  0  0  0  0  0  0  0
  -24.1870  -36.6880   23.0820 C   0  0  0  0  0  1  0  0  0  0  0  0
  -25.4350  -36.2700   23.8760 C   0  0  0  0  0  3  0  0  0  0  0  0
  -27.5740  -37.1430   24.7080 C   0  0  0  0  0  1  0  0  0  0  0  0
  -26.4660  -37.3260   23.7750 N   0  0  0  0  0  0  0  0  0  0  0  0
  -26.0600  -38.2420   23.9420 H   0  0  0  0  0  0  0  0  0  0  0  0
  -26.4200  -31.6360   25.0300 C   0  0  1  0  0  0  0  0  0  0  0  0
  -25.3290  -31.3760   26.0940 C   0  0  0  0  0  1  0  0  0  0  0  0
  -27.0040  -30.2670   24.6090 C   0  0  0  0  0  1  0  0  0  0  0  0
  -27.5720  -32.4170   25.7040 C   0  0  0  0  0  1  0  0  0  0  0  0
  -30.6440  -17.1950   20.4720 C   0  0  0  0  0  2  0  0  0  0  0  0
  -30.7690  -14.6660   20.0030 C   0  0  0  0  0  0  0  0  0  0  0  0
  -30.4130  -12.4510   18.9340 C   0  0  0  0  0  2  0  0  0  0  0  0
  -29.4100  -12.6050   17.7710 C   0  0  0  0  0  2  0  0  0  0  0  0
  -27.9650  -12.4640   18.2850 C   0  0  0  0  0  2  0  0  0  0  0  0
  -27.6890  -13.3280   19.5450 C   0  0  0  0  0  3  0  0  0  0  0  0
  -28.8070  -13.1730   20.5990 C   0  0  0  0  0  2  0  0  0  0  0  0
  -30.0820  -13.4820   19.9380 N   0  0  0  0  0  0  0  0  0  0  0  0
  -31.9250  -14.7450   19.5820 O   0  0  0  0  0  0  0  0  0  0  0  0
  -30.0830  -15.7970   20.3650 N   0  0  0  0  0  0  0  0  0  0  0  0
  -29.1210  -15.6690   20.6420 H   0  0  0  0  0  0  0  0  0  0  0  0
  -25.3550  -13.9520   20.4140 C   0  0  0  0  0  0  0  0  0  0  0  0
  -24.2980  -13.1910   20.8310 C   0  0  0  0  0  0  0  0  0  0  0  0
  -24.7340  -11.8320   20.7530 C   0  0  0  0  0  0  0  0  0  0  0  0
  -26.3680  -13.0590   20.1050 N   0  0  0  0  0  0  0  0  0  0  0  0
  -26.0040  -11.7780   20.3700 N   0  0  0  0  0  0  0  0  0  0  0  0
  -23.9960  -10.5800   20.9620 C   0  0  0  0  0  0  0  0  0  0  0  0
  -24.4450   -9.6010   21.8770 C   0  0  0  0  0  3  0  0  0  0  0  0
  -23.7070   -8.4140   22.0750 C   0  0  0  0  0  3  0  0  0  0  0  0
  -22.5070   -8.1970   21.3590 C   0  0  0  0  0  0  0  0  0  0  0  0
  -22.0750   -9.1640   20.4330 C   0  0  0  0  0  3  0  0  0  0  0  0
  -22.8140  -10.3420   20.2330 C   0  0  0  0  0  3  0  0  0  0  0  0
  -21.7390   -7.0630   21.4670 O   0  0  0  0  0  0  0  0  0  0  0  0
  -21.7030   -6.3250   22.6240 C   0  0  0  0  0  0  0  0  0  0  0  0
  -21.2970   -6.8870   23.8530 C   0  0  0  0  0  3  0  0  0  0  0  0
  -21.2080   -6.0770   25.0030 C   0  0  0  0  0  3  0  0  0  0  0  0
  -21.5150   -4.7060   24.9240 C   0  0  0  0  0  0  0  0  0  0  0  0
  -21.9150   -4.1430   23.6990 C   0  0  0  0  0  3  0  0  0  0  0  0
  -22.0050   -4.9510   22.5510 C   0  0  0  0  0  0  0  0  0  0  0  0
  -22.3700   -4.3980   21.3690 F   0  0  0  0  0  0  0  0  0  0  0  0
  -21.4220   -3.9250   26.0260 F   0  0  0  0  0  0  0  0  0  0  0  0
  -22.9270  -13.6870   21.1880 C   0  0  0  0  0  0  0  0  0  0  0  0
  -22.2340  -12.9870   22.0800 N   0  0  0  0  0  0  0  0  0  0  0  0
  -22.4810  -14.7310   20.7130 O   0  0  0  0  0  0  0  0  0  0  0  0
  -22.6080  -12.1420   22.4850 H   0  0  0  0  0  0  0  0  0  0  0  0
  -21.3170  -13.3020   22.3620 H   0  0  0  0  0  0  0  0  0  0  0  0
  -25.5330  -15.3220   20.2470 N   0  0  0  0  0  0  0  0  0  0  0  0
  -24.7810  -15.9840   20.4020 H   0  0  0  0  0  0  0  0  0  0  0  0
  -26.3590  -15.7510   19.8490 H   0  0  0  0  0  0  0  0  0  0  0  0
  1  4  1  0
  2  3  1  0
  2  1  2  0
  3  5  2  0
  4  6  2  0
  4 11  1  0
  5  6  1  0
  6 14  1  0
  7  2  1  0
  8  3  1  0
  8  9  1  0
 10 13  1  6
 10  7  1  0
 10 56  1  0
 10  9  1  0
 12  5  1  0
 15 14  1  0
 16 27  2  0
 17 15  1  0
 17 22  1  0
 18 26  1  0
 18 28  1  0
 19 25  1  0
 19 21  1  0
 20 26  1  0
 21 20  1  0
 22 21  2  0
 23 24  1  0
 23 17  2  0
 24 19  2  0
 25 18  1  0
 26 16  1  0
 28 30  2  0
 29 28  1  0
 31 29  1  0
 32 41  2  0
 32 37  1  0
 33 29  1  0
 33 37  1  0
 34 33  1  0
 35 36  1  0
 35 34  1  0
 36 32  1  0
 37 38  2  0
 38 39  1  0
 40 39  2  0
 41 40  1  0
 42 16  1  0
 42 43  1  0
 42 52  1  0
 43 46  1  0
 44 48  1  0
 44 43  1  0
 45 44  2  0
 48 47  1  0
 50 48  1  0
 50 51  1  0
 50 49  1  0
 52 55  1  1
 52 53  1  0
 54 52  1  0
 57 65  1  0
 58 63  1  0
 59 60  1  0
 59 58  1  0
 61 60  1  0
 61 70  1  0
 61 62  1  0
 63 57  1  0
 63 62  1  0
 64 57  2  0
 65 56  1  0
 65 66  1  0
 67 68  2  0
 68 87  1  0
 69 68  1  0
 69 72  1  0
 70 71  1  0
 70 67  1  0
 71 69  2  0
 72 73  1  0
 73 74  2  0
 75 78  1  0
 75 74  1  0
 76 75  2  0
 77 76  1  0
 77 72  2  0
 78 79  1  0
 79 80  1  0
 80 81  2  0
 82 81  1  0
 82 86  1  0
 83 82  2  0
 84 79  2  0
 84 83  1  0
 85 84  1  0
 87 88  1  0
 88 91  1  0
 88 90  1  0
 89 87  2  0
 92 93  1  0
 92 67  1  0
 94 92  1  0
M  ISO  4  14 101  15 101  57 100  65 100
M  END
>  <TORSDO>  (20) 
F 18

>  <SCORE>  (20) 
-14.471

>  <name>  (20) 
19

>  <ligand_id>  (20) 
19

>  <original_smiles>  (20) 
[H]c1c([H])c([H])c2c(c1[H])C([H])([H])C([H])([H])C([H])([H])C2([H])N([H])C(=O)C1([H])N(C(=O)C([H])(N([H])C(=O)C([H])(N([H])C([H])([H])[H])C([H])([H])[H])C(C([H])([H])[H])(C([H])([H])[H])C([H])([H])[H])C([H])([H])c2c([H])c(OC([H])([H])c3c(C([H])([H])[H])c([H])c4c(c3C([H])([H])[H])C([H])([H])C([H])([H])C(C([H])([H])[H])(C([H])([H])N([H])C(=O)N3C([H])([H])C([H])([H])C([H])([H])C([H])(n5nc(-c6c([H])c([H])c(Oc7c([H])c([H])c(F)c([H])c7F)c([H])c6[H])c(C(=O)N([H])[H])c5N([H])[H])C3([H])[H])C4([H])[H])c([H])c([H])c2C1([H])[H]

>  <smiles>  (20) 
[H]c1c([H])c([H])c2c(c1[H])C([H])([H])C([H])([H])C([H])([H])C2([H])N([H])C(=O)C1([H])N(C(=O)C([H])(N([H])C(=O)C([H])(N([H])C([H])([H])[H])C([H])([H])[H])C(C([H])([H])[H])(C([H])([H])[H])C([H])([H])[H])C([H])([H])c2c([H])c(OC([H])([H])c3c(C([H])([H])[H])c([H])c4c(c3C([H])([H])[H])C([H])([H])C([H])([H])C(C([H])([H])[H])(C([H])([H])N([H])C(=O)N3C([H])([H])C([H])([H])C([H])([H])C([H])(n5nc(-c6c([H])c([H])c(Oc7c([H])c([H])c(F)c([H])c7F)c([H])c6[H])c(C(=O)N([H])[H])c5N([H])[H])C3([H])[H])C4([H])[H])c([H])c([H])c2C1([H])[H]

$$$$
20:0:0
     RDKit          3D

 92101  0  0  1  0  0  0  0  0999 V2000
  -28.7190  -21.0910   19.6180 C   0  0  0  0  0  3  0  0  0  0  0  0
  -30.1730  -22.2400   21.1770 C   0  0  0  0  0  3  0  0  0  0  0  0
  -29.3080  -19.8260   20.0020 C   0  0  0  0  0  0  0  0  0  0  0  0
  -30.3280  -19.7870   20.9470 C   0  0  0  0  0  0  0  0  0  0  0  0
  -29.1540  -22.3490   20.1940 C   0  0  0  0  0  0  0  0  0  0  0  0
  -30.7460  -20.9950   21.5720 C   0  0  0  0  0  0  0  0  0  0  0  0
  -29.0170  -18.3770   19.5180 C   0  0  0  0  0  2  0  0  0  0  0  0
  -30.8820  -18.3570   21.1330 C   0  0  0  0  0  2  0  0  0  0  0  0
  -30.1950  -17.4380   20.0550 C   0  0  0  0  0  3  0  0  0  0  0  0
  -30.6300  -14.8190   20.0750 C   0  0  0  0  0  0  0  0  0  0  0  0
  -30.4170  -12.5850   18.9340 C   0  0  0  0  0  2  0  0  0  0  0  0
  -29.3950  -12.6740   17.7750 C   0  0  0  0  0  2  0  0  0  0  0  0
  -27.9480  -12.4790   18.2760 C   0  0  0  0  0  2  0  0  0  0  0  0
  -27.6550  -13.2970   19.5620 C   0  0  0  0  0  3  0  0  0  0  0  0
  -28.7790  -13.0790   20.5950 C   0  0  0  0  0  2  0  0  0  0  0  0
  -30.0180  -13.5730   19.9710 N   0  0  0  0  0  0  0  0  0  0  0  0
  -31.7630  -14.9410   19.5920 O   0  0  0  0  0  0  0  0  0  0  0  0
  -28.9630  -15.9590   21.5770 C   0  0  0  0  0  1  0  0  0  0  0  0
  -29.8980  -15.9710   20.4440 N   0  0  0  0  0  0  0  0  0  0  0  0
  -25.3050  -13.8800   20.4150 C   0  0  0  0  0  0  0  0  0  0  0  0
  -24.2610  -13.0990   20.8310 C   0  0  0  0  0  0  0  0  0  0  0  0
  -24.7210  -11.7500   20.7470 C   0  0  0  0  0  0  0  0  0  0  0  0
  -26.3360  -13.0050   20.1110 N   0  0  0  0  0  0  0  0  0  0  0  0
  -25.9930  -11.7170   20.3680 N   0  0  0  0  0  0  0  0  0  0  0  0
  -24.0050  -10.4840   20.9490 C   0  0  0  0  0  0  0  0  0  0  0  0
  -24.4610   -9.5180   21.8720 C   0  0  0  0  0  3  0  0  0  0  0  0
  -23.7450   -8.3160   22.0630 C   0  0  0  0  0  3  0  0  0  0  0  0
  -22.5580   -8.0740   21.3300 C   0  0  0  0  0  0  0  0  0  0  0  0
  -22.1220   -9.0300   20.3970 C   0  0  0  0  0  3  0  0  0  0  0  0
  -22.8390  -10.2230   20.2040 C   0  0  0  0  0  3  0  0  0  0  0  0
  -21.8120   -6.9250   21.4300 O   0  0  0  0  0  0  0  0  0  0  0  0
  -21.7490   -6.2080   22.5970 C   0  0  0  0  0  0  0  0  0  0  0  0
  -21.2950   -6.7840   23.8040 C   0  0  0  0  0  3  0  0  0  0  0  0
  -21.1790   -5.9910   24.9620 C   0  0  0  0  0  3  0  0  0  0  0  0
  -21.5090   -4.6230   24.9170 C   0  0  0  0  0  0  0  0  0  0  0  0
  -21.9580   -4.0470   23.7150 C   0  0  0  0  0  3  0  0  0  0  0  0
  -22.0750   -4.8370   22.5590 C   0  0  0  0  0  0  0  0  0  0  0  0
  -22.4860   -4.2700   21.3980 F   0  0  0  0  0  0  0  0  0  0  0  0
  -21.3910   -3.8600   26.0280 F   0  0  0  0  0  0  0  0  0  0  0  0
  -22.8810  -13.5720   21.1890 C   0  0  0  0  0  0  0  0  0  0  0  0
  -22.2060  -12.8620   22.0850 N   0  0  0  0  0  0  0  0  0  0  0  0
  -22.4150  -14.6060   20.7120 O   0  0  0  0  0  0  0  0  0  0  0  0
  -22.5980  -12.0260   22.4910 H   0  0  0  0  0  0  0  0  0  0  0  0
  -21.2820  -13.1590   22.3680 H   0  0  0  0  0  0  0  0  0  0  0  0
  -25.4510  -15.2540   20.2460 N   0  0  0  0  0  0  0  0  0  0  0  0
  -24.6830  -15.8980   20.4000 H   0  0  0  0  0  0  0  0  0  0  0  0
  -26.2710  -15.7000   19.8550 H   0  0  0  0  0  0  0  0  0  0  0  0
  -31.5420  -20.1810   23.6550 C   0  0  0  0  0  1  0  0  0  0  0  0
  -31.7240  -21.0410   22.5360 O   0  0  0  0  0  0  0  0  0  0  0  0
  -28.6780  -23.7920   19.6800 C   0  0  0  0  0  2  0  0  0  0  0  0
  -28.3620  -25.0370   20.6680 C   0  0  0  0  0  2  0  0  0  0  0  0
  -28.4540  -26.4710   20.2260 O   0  0  0  0  0  0  0  0  0  0  0  0
  -24.6310  -31.8970   23.2060 C   0  0  0  0  0  0  0  0  0  0  0  0
  -27.3210  -27.3070   20.2300 C   0  0  0  0  0  0  0  0  0  0  0  0
  -23.4620  -30.4740   21.5610 C   0  0  0  0  0  3  0  0  0  0  0  0
  -24.9450  -28.9140   20.1720 C   0  0  0  0  0  0  0  0  0  0  0  0
  -26.0020  -30.8070   21.4100 C   0  0  0  0  0  2  0  0  0  0  0  0
  -26.1030  -29.4190   20.7760 C   0  0  0  0  0  0  0  0  0  0  0  0
  -27.2980  -28.6300   20.7870 C   0  0  0  0  0  3  0  0  0  0  0  0
  -26.1370  -26.8540   19.6140 C   0  0  0  0  0  3  0  0  0  0  0  0
  -24.9640  -27.6380   19.5820 C   0  0  0  0  0  3  0  0  0  0  0  0
  -23.7030  -29.7850   20.1910 C   0  0  0  0  0  2  0  0  0  0  0  0
  -24.7170  -31.0780   22.1160 N   0  0  0  0  0  0  0  0  0  0  0  0
  -23.5370  -32.1700   23.7240 O   0  0  0  0  0  0  0  0  0  0  0  0
  -22.7920  -29.4630   22.5220 C   0  0  0  0  0  0  0  0  0  0  0  0
  -21.4660  -29.2860   22.3870 N   0  0  0  0  0  0  0  0  0  0  0  0
  -23.4640  -28.8400   23.3480 O   0  0  0  0  0  0  0  0  0  0  0  0
  -20.9850  -29.8380   21.6920 H   0  0  0  0  0  0  0  0  0  0  0  0
  -18.0840  -28.0940   22.8680 C   0  0  0  0  0  0  0  0  0  0  0  0
  -20.6410  -28.3500   23.1530 C   0  0  0  0  0  3  0  0  0  0  0  0
  -20.7450  -26.9190   22.5770 C   0  0  0  0  0  2  0  0  0  0  0  0
  -19.6470  -26.5990   21.5580 C   0  0  0  0  0  2  0  0  0  0  0  0
  -18.2620  -26.7450   22.1940 C   0  0  0  0  0  2  0  0  0  0  0  0
  -19.2010  -28.8550   23.3040 C   0  0  0  0  0  0  0  0  0  0  0  0
  -18.9800  -30.1190   23.8940 C   0  0  0  0  0  3  0  0  0  0  0  0
  -17.6750  -30.6210   24.0550 C   0  0  0  0  0  3  0  0  0  0  0  0
  -16.5720  -29.8560   23.6360 C   0  0  0  0  0  3  0  0  0  0  0  0
  -16.7780  -28.5950   23.0480 C   0  0  0  0  0  3  0  0  0  0  0  0
  -25.8980  -32.5460   23.8440 C   0  0  0  0  0  3  0  0  0  0  0  0
  -26.4030  -31.7840   25.1310 C   0  0  1  0  0  0  0  0  0  0  0  0
  -25.2960  -31.5410   26.1840 C   0  0  0  0  0  1  0  0  0  0  0  0
  -27.0050  -30.4110   24.7510 C   0  0  0  0  0  1  0  0  0  0  0  0
  -27.5360  -32.5930   25.8070 C   0  0  0  0  0  1  0  0  0  0  0  0
  -25.5690  -33.9410   24.1700 N   0  0  0  0  0  0  0  0  0  0  0  0
  -25.8900  -34.9970   23.4100 C   0  0  0  0  0  0  0  0  0  0  0  0
  -26.5630  -34.8990   22.3800 O   0  0  0  0  0  0  0  0  0  0  0  0
  -24.9710  -34.0890   24.9690 H   0  0  0  0  0  0  0  0  0  0  0  0
  -24.1350  -36.7640   23.0560 C   0  0  0  0  0  1  0  0  0  0  0  0
  -25.3860  -36.3810   23.8630 C   0  0  0  0  0  3  0  0  0  0  0  0
  -27.5120  -37.3010   24.6800 C   0  0  0  0  0  1  0  0  0  0  0  0
  -26.4040  -37.4470   23.7390 N   0  0  0  0  0  0  0  0  0  0  0  0
  -25.9860  -38.3630   23.8830 H   0  0  0  0  0  0  0  0  0  0  0  0
  1  3  2  0
  1  5  1  0
  2  6  1  0
  3  4  1  0
  4  8  1  0
  4  6  2  0
  5  2  2  0
  6 49  1  0
  7  3  1  0
  7  9  1  0
  9 19  1  0
  9  8  1  0
 10 19  1  0
 11 16  1  0
 12 13  1  0
 12 11  1  0
 14 13  1  0
 14 23  1  0
 14 15  1  0
 16 10  1  0
 16 15  1  0
 17 10  2  0
 19 18  1  0
 20 21  2  0
 21 40  1  0
 22 21  1  0
 22 25  1  0
 23 24  1  0
 23 20  1  0
 24 22  2  0
 25 26  1  0
 26 27  2  0
 28 31  1  0
 28 27  1  0
 29 28  2  0
 30 29  1  0
 30 25  2  0
 31 32  1  0
 32 33  1  0
 33 34  2  0
 35 34  1  0
 35 39  1  0
 36 35  2  0
 37 32  2  0
 37 36  1  0
 38 37  1  0
 40 41  1  0
 41 44  1  0
 41 43  1  0
 42 40  2  0
 45 46  1  0
 45 20  1  0
 47 45  1  0
 49 48  1  0
 50  5  1  0
 50 51  1  0
 52 54  1  0
 52 51  1  0
 53 64  2  0
 54 59  1  0
 55 63  1  0
 55 65  1  0
 56 62  1  0
 56 58  1  0
 57 63  1  0
 58 59  2  0
 58 57  1  0
 60 54  2  0
 61 60  1  0
 61 56  2  0
 62 55  1  0
 63 53  1  0
 65 67  2  0
 66 65  1  0
 68 66  1  0
 69 78  2  0
 69 74  1  0
 70 66  1  0
 70 74  1  0
 71 70  1  0
 72 73  1  0
 72 71  1  0
 73 69  1  0
 74 75  2  0
 75 76  1  0
 77 76  2  0
 78 77  1  0
 79 53  1  0
 79 84  1  0
 79 80  1  0
 80 83  1  1
 80 81  1  0
 82 80  1  0
 84 87  1  0
 85 89  1  0
 85 84  1  0
 86 85  2  0
 89 88  1  0
 91 89  1  0
 91 92  1  0
 91 90  1  0
M  ISO  4  10 100  19 100  51 101  52 101
M  END
>  <TORSDO>  (21) 
F 19

>  <SCORE>  (21) 
-14.121

>  <name>  (21) 
20

>  <ligand_id>  (21) 
20

>  <original_smiles>  (21) 
[H]c1c([H])c([H])c2c(c1[H])C([H])([H])C([H])([H])C([H])([H])C2([H])N([H])C(=O)C1([H])N(C(=O)C([H])(N([H])C(=O)C([H])(N([H])C([H])([H])[H])C([H])([H])[H])C(C([H])([H])[H])(C([H])([H])[H])C([H])([H])[H])C([H])([H])c2c([H])c(OC([H])([H])C([H])([H])c3c([H])c(OC([H])([H])[H])c4c(c3[H])C([H])([H])C([H])(N(C(=O)N3C([H])([H])C([H])([H])C([H])([H])C([H])(n5nc(-c6c([H])c([H])c(Oc7c([H])c([H])c(F)c([H])c7F)c([H])c6[H])c(C(=O)N([H])[H])c5N([H])[H])C3([H])[H])C([H])([H])[H])C4([H])[H])c([H])c([H])c2C1([H])[H]

>  <smiles>  (21) 
[H]c1c([H])c([H])c2c(c1[H])C([H])([H])C([H])([H])C([H])([H])C2([H])N([H])C(=O)C1([H])N(C(=O)C([H])(N([H])C(=O)C([H])(N([H])C([H])([H])[H])C([H])([H])[H])C(C([H])([H])[H])(C([H])([H])[H])C([H])([H])[H])C([H])([H])c2c([H])c(OC([H])([H])C([H])([H])c3c([H])c(OC([H])([H])[H])c4c(c3[H])C([H])([H])C([H])(N(C(=O)N3C([H])([H])C([H])([H])C([H])([H])C([H])(n5nc(-c6c([H])c([H])c(Oc7c([H])c([H])c(F)c([H])c7F)c([H])c6[H])c(C(=O)N([H])[H])c5N([H])[H])C3([H])[H])C([H])([H])[H])C4([H])[H])c([H])c([H])c2C1([H])[H]

$$$$
21:0:0
     RDKit          3D

 98107  0  0  1  0  0  0  0  0999 V2000
  -31.0210  -19.1500   19.1040 C   0  0  0  0  0  3  0  0  0  0  0  0
  -29.0360  -20.8770   20.1250 C   0  0  0  0  0  0  0  0  0  0  0  0
  -29.9540  -21.3890   19.1710 C   0  0  0  0  0  0  0  0  0  0  0  0
  -30.1360  -18.6060   20.0590 C   0  0  0  0  0  0  0  0  0  0  0  0
  -29.1130  -19.4930   20.5480 C   0  0  0  0  0  0  0  0  0  0  0  0
  -30.9530  -20.5030   18.6670 C   0  0  0  0  0  0  0  0  0  0  0  0
  -28.0290  -21.8740   20.7540 C   0  0  0  0  0  2  0  0  0  0  0  0
  -29.8260  -22.8670   18.6590 C   0  0  0  0  0  3  0  0  0  0  0  0
  -29.0640  -23.8800   19.6120 C   0  0  0  0  0  3  0  0  0  0  0  0
  -28.1100  -18.9740   21.5700 C   0  0  0  0  0  1  0  0  0  0  0  0
  -29.2110  -22.8430   17.2380 C   0  0  0  0  0  1  0  0  0  0  0  0
  -27.8240  -23.1770   20.0430 N   0  0  0  0  0  4  0  0  0  0  0  0
  -27.2910  -23.7760   20.6550 H   0  0  0  0  0  0  0  0  0  0  0  0
  -27.2520  -22.9910   19.2360 H   0  0  0  0  0  0  0  0  0  0  0  0
  -33.2470  -20.4370   17.7610 C   0  0  0  0  0  1  0  0  0  0  0  0
  -31.8940  -20.9790   17.7400 N   0  0  0  0  0  0  0  0  0  0  0  0
  -31.8040  -21.9500   17.4510 H   0  0  0  0  0  0  0  0  0  0  0  0
  -30.5090  -17.1970   20.6850 C   0  0  0  0  0  2  0  0  0  0  0  0
  -30.6030  -14.7680   19.8180 C   0  0  0  0  0  0  0  0  0  0  0  0
  -30.2320  -12.5790   18.6890 C   0  0  0  0  0  2  0  0  0  0  0  0
  -29.1840  -12.7440   17.5680 C   0  0  0  0  0  2  0  0  0  0  0  0
  -27.7590  -12.5780   18.1300 C   0  0  0  0  0  2  0  0  0  0  0  0
  -27.5220  -13.4100   19.4200 C   0  0  0  0  0  3  0  0  0  0  0  0
  -28.6790  -13.2330   20.4270 C   0  0  0  0  0  2  0  0  0  0  0  0
  -29.9220  -13.5810   19.7290 N   0  0  0  0  0  0  0  0  0  0  0  0
  -31.7530  -14.8660   19.3830 O   0  0  0  0  0  0  0  0  0  0  0  0
  -29.9190  -15.8800   20.2480 N   0  0  0  0  0  0  0  0  0  0  0  0
  -28.9480  -15.7360   20.4770 H   0  0  0  0  0  0  0  0  0  0  0  0
  -25.2150  -14.0000   20.3750 C   0  0  0  0  0  0  0  0  0  0  0  0
  -24.1780  -13.2220   20.8130 C   0  0  0  0  0  0  0  0  0  0  0  0
  -24.6220  -11.8680   20.6990 C   0  0  0  0  0  0  0  0  0  0  0  0
  -26.2240  -13.1190   20.0190 N   0  0  0  0  0  0  0  0  0  0  0  0
  -25.8790  -11.8300   20.2760 N   0  0  0  0  0  0  0  0  0  0  0  0
  -23.9010  -10.6060   20.9120 C   0  0  0  0  0  0  0  0  0  0  0  0
  -24.3740   -9.6290   21.8140 C   0  0  0  0  0  3  0  0  0  0  0  0
  -23.6540   -8.4320   22.0160 C   0  0  0  0  0  3  0  0  0  0  0  0
  -22.4460   -8.2040   21.3140 C   0  0  0  0  0  0  0  0  0  0  0  0
  -21.9920   -9.1690   20.3990 C   0  0  0  0  0  3  0  0  0  0  0  0
  -22.7120  -10.3580   20.1960 C   0  0  0  0  0  3  0  0  0  0  0  0
  -21.6940   -7.0600   21.4270 O   0  0  0  0  0  0  0  0  0  0  0  0
  -21.6690   -6.3250   22.5860 C   0  0  0  0  0  0  0  0  0  0  0  0
  -21.2390   -6.8810   23.8110 C   0  0  0  0  0  3  0  0  0  0  0  0
  -21.1640   -6.0710   24.9630 C   0  0  0  0  0  3  0  0  0  0  0  0
  -21.5080   -4.7090   24.8900 C   0  0  0  0  0  0  0  0  0  0  0  0
  -21.9310   -4.1520   23.6700 C   0  0  0  0  0  3  0  0  0  0  0  0
  -22.0080   -4.9590   22.5200 C   0  0  0  0  0  0  0  0  0  0  0  0
  -22.3960   -4.4140   21.3420 F   0  0  0  0  0  0  0  0  0  0  0  0
  -21.4280   -3.9290   25.9930 F   0  0  0  0  0  0  0  0  0  0  0  0
  -22.8140  -13.7010   21.2230 C   0  0  0  0  0  0  0  0  0  0  0  0
  -22.1590  -12.9820   22.1270 N   0  0  0  0  0  0  0  0  0  0  0  0
  -22.3440  -14.7460   20.7750 O   0  0  0  0  0  0  0  0  0  0  0  0
  -22.5550  -12.1350   22.5090 H   0  0  0  0  0  0  0  0  0  0  0  0
  -21.2470  -13.2820   22.4440 H   0  0  0  0  0  0  0  0  0  0  0  0
  -25.3750  -15.3740   20.2270 N   0  0  0  0  0  0  0  0  0  0  0  0
  -24.6220  -16.0240   20.4180 H   0  0  0  0  0  0  0  0  0  0  0  0
  -26.1840  -15.8180   19.8110 H   0  0  0  0  0  0  0  0  0  0  0  0
  -28.8070  -25.3420   18.9680 C   0  0  0  0  0  2  0  0  0  0  0  0
  -28.6090  -26.5830   19.7640 O   0  0  0  0  0  0  0  0  0  0  0  0
  -24.5680  -31.6300   22.9800 C   0  0  0  0  0  0  0  0  0  0  0  0
  -27.4270  -27.3480   19.7240 C   0  0  0  0  0  0  0  0  0  0  0  0
  -23.4430  -30.2430   21.2750 C   0  0  0  0  0  3  0  0  0  0  0  0
  -24.9750  -28.8380   19.7880 C   0  0  0  0  0  0  0  0  0  0  0  0
  -25.9630  -30.7000   21.1170 C   0  0  0  0  0  2  0  0  0  0  0  0
  -26.1150  -29.3580   20.4100 C   0  0  0  0  0  0  0  0  0  0  0  0
  -27.3390  -28.6220   20.3730 C   0  0  0  0  0  3  0  0  0  0  0  0
  -26.2470  -26.8750   19.1000 C   0  0  0  0  0  3  0  0  0  0  0  0
  -25.0430  -27.6020   19.1280 C   0  0  0  0  0  3  0  0  0  0  0  0
  -23.6940  -29.6420   19.8680 C   0  0  0  0  0  2  0  0  0  0  0  0
  -24.6760  -30.8740   21.8470 N   0  0  0  0  0  0  0  0  0  0  0  0
  -23.4700  -31.8270   23.5210 O   0  0  0  0  0  0  0  0  0  0  0  0
  -22.8340  -29.1510   22.1870 C   0  0  0  0  0  0  0  0  0  0  0  0
  -21.5110  -28.9410   22.0790 N   0  0  0  0  0  0  0  0  0  0  0  0
  -23.5500  -28.4980   22.9510 O   0  0  0  0  0  0  0  0  0  0  0  0
  -20.9900  -29.5230   21.4390 H   0  0  0  0  0  0  0  0  0  0  0  0
  -18.1720  -27.6620   22.6330 C   0  0  0  0  0  0  0  0  0  0  0  0
  -20.7380  -27.9350   22.8100 C   0  0  0  0  0  3  0  0  0  0  0  0
  -20.8280  -26.5530   22.1220 C   0  0  0  0  0  2  0  0  0  0  0  0
  -19.6860  -26.2940   21.1360 C   0  0  0  0  0  2  0  0  0  0  0  0
  -18.3330  -26.3710   21.8470 C   0  0  0  0  0  2  0  0  0  0  0  0
  -19.3020  -28.4050   23.0710 C   0  0  0  0  0  0  0  0  0  0  0  0
  -19.0970  -29.6150   23.7680 C   0  0  0  0  0  3  0  0  0  0  0  0
  -17.7960  -30.0840   24.0290 C   0  0  0  0  0  3  0  0  0  0  0  0
  -16.6820  -29.3380   23.6070 C   0  0  0  0  0  3  0  0  0  0  0  0
  -16.8710  -28.1290   22.9140 C   0  0  0  0  0  3  0  0  0  0  0  0
  -25.8140  -32.3020   23.6340 C   0  0  0  0  0  3  0  0  0  0  0  0
  -26.3590  -31.5110   24.8870 C   0  0  1  0  0  0  0  0  0  0  0  0
  -25.2720  -31.1840   25.9370 C   0  0  0  0  0  1  0  0  0  0  0  0
  -27.0110  -30.1790   24.4510 C   0  0  0  0  0  1  0  0  0  0  0  0
  -27.4650  -32.3380   25.5860 C   0  0  0  0  0  1  0  0  0  0  0  0
  -25.4330  -33.6690   24.0130 N   0  0  0  0  0  0  0  0  0  0  0  0
  -25.7230  -34.7670   23.3020 C   0  0  0  0  0  0  0  0  0  0  0  0
  -26.4100  -34.7370   22.2770 O   0  0  0  0  0  0  0  0  0  0  0  0
  -24.8230  -33.7640   24.8120 H   0  0  0  0  0  0  0  0  0  0  0  0
  -23.9160  -36.4890   22.9940 C   0  0  0  0  0  1  0  0  0  0  0  0
  -25.1640  -36.1100   23.8070 C   0  0  0  0  0  3  0  0  0  0  0  0
  -27.2370  -37.0650   24.7140 C   0  0  0  0  0  1  0  0  0  0  0  0
  -26.1460  -37.2150   23.7540 N   0  0  0  0  0  0  0  0  0  0  0  0
  -25.6940  -38.1080   23.9260 H   0  0  0  0  0  0  0  0  0  0  0  0
  1  4  1  0
  2  5  1  0
  2  7  1  0
  3  2  2  0
  4  5  2  0
  4 18  1  0
  5 10  1  0
  6  1  2  0
  6  3  1  0
  8 11  1  0
  8  3  1  0
  8  9  1  0
  9 57  1  0
  9 12  1  0
 12 13  1  0
 12  7  1  0
 14 12  1  0
 16 15  1  0
 16  6  1  0
 17 16  1  0
 19 27  1  0
 20 25  1  0
 21 22  1  0
 21 20  1  0
 23 22  1  0
 23 32  1  0
 23 24  1  0
 25 19  1  0
 25 24  1  0
 26 19  2  0
 27 28  1  0
 27 18  1  0
 29 30  2  0
 30 49  1  0
 31 30  1  0
 31 34  1  0
 32 33  1  0
 32 29  1  0
 33 31  2  0
 34 35  1  0
 35 36  2  0
 37 40  1  0
 37 36  1  0
 38 37  2  0
 39 38  1  0
 39 34  2  0
 40 41  1  0
 41 42  1  0
 42 43  2  0
 44 43  1  0
 44 48  1  0
 45 44  2  0
 46 41  2  0
 46 45  1  0
 47 46  1  0
 49 50  1  0
 50 53  1  0
 50 52  1  0
 51 49  2  0
 54 29  1  0
 54 55  1  0
 56 54  1  0
 57 58  1  0
 59 70  2  0
 60 58  1  0
 60 65  1  0
 61 69  1  0
 61 71  1  0
 62 68  1  0
 62 64  1  0
 63 69  1  0
 64 63  1  0
 65 64  2  0
 66 67  1  0
 66 60  2  0
 67 62  2  0
 68 61  1  0
 69 59  1  0
 71 73  2  0
 72 71  1  0
 74 72  1  0
 75 84  2  0
 75 80  1  0
 76 72  1  0
 76 80  1  0
 77 76  1  0
 78 79  1  0
 78 77  1  0
 79 75  1  0
 80 81  2  0
 81 82  1  0
 83 82  2  0
 84 83  1  0
 85 59  1  0
 85 90  1  0
 85 86  1  0
 86 89  1  1
 86 87  1  0
 88 86  1  0
 90 93  1  0
 91 95  1  0
 91 90  1  0
 92 91  2  0
 95 94  1  0
 97 95  1  0
 97 98  1  0
 97 96  1  0
M  ISO  4  19 100  27 100  57 101  58 101
M  END
>  <TORSDO>  (22) 
F 19

>  <SCORE>  (22) 
-11.499

>  <name>  (22) 
21

>  <ligand_id>  (22) 
21

>  <original_smiles>  (22) 
[H]c1c([H])c([H])c2c(c1[H])C([H])([H])C([H])([H])C([H])([H])C2([H])N([H])C(=O)C1([H])N(C(=O)C([H])(N([H])C(=O)C([H])(N([H])C([H])([H])[H])C([H])([H])[H])C(C([H])([H])[H])(C([H])([H])[H])C([H])([H])[H])C([H])([H])c2c([H])c(OC([H])([H])C3([H])C([H])(C([H])([H])[H])c4c(N([H])C([H])([H])[H])c([H])c(C([H])([H])N([H])C(=O)N5C([H])([H])C([H])([H])C([H])([H])C([H])(n6nc(-c7c([H])c([H])c(Oc8c([H])c([H])c(F)c([H])c8F)c([H])c7[H])c(C(=O)N([H])[H])c6N([H])[H])C5([H])[H])c(C([H])([H])[H])c4C([H])([H])[N+]3([H])[H])c([H])c([H])c2C1([H])[H]

>  <smiles>  (22) 
[H]c1c([H])c([H])c2c(c1[H])C([H])([H])C([H])([H])C([H])([H])C2([H])N([H])C(=O)C1([H])N(C(=O)C([H])(N([H])C(=O)C([H])(N([H])C([H])([H])[H])C([H])([H])[H])C(C([H])([H])[H])(C([H])([H])[H])C([H])([H])[H])C([H])([H])c2c([H])c(OC([H])([H])C3([H])C([H])(C([H])([H])[H])c4c(N([H])C([H])([H])[H])c([H])c(C([H])([H])N([H])C(=O)N5C([H])([H])C([H])([H])C([H])([H])C([H])(n6nc(-c7c([H])c([H])c(Oc8c([H])c([H])c(F)c([H])c8F)c([H])c7[H])c(C(=O)N([H])[H])c6N([H])[H])C5([H])[H])c(C([H])([H])[H])c4C([H])([H])[N+]3([H])[H])c([H])c([H])c2C1([H])[H]

$$$$
22:0:0
     RDKit          3D

 93102  0  0  1  0  0  0  0  0999 V2000
  -29.3280  -20.6020   21.5150 C   0  0  0  0  0  3  0  0  0  0  0  0
  -29.0150  -21.9830   21.3260 C   0  0  0  0  0  3  0  0  0  0  0  0
  -28.9720  -20.1960   19.1750 C   0  0  0  0  0  3  0  0  0  0  0  0
  -29.2760  -19.6610   20.4500 C   0  0  0  0  0  0  0  0  0  0  0  0
  -28.6300  -22.5020   20.0620 C   0  0  0  0  0  0  0  0  0  0  0  0
  -28.6510  -21.5800   18.9700 C   0  0  0  0  0  0  0  0  0  0  0  0
  -30.8460  -14.6790   19.9690 C   0  0  0  0  0  0  0  0  0  0  0  0
  -30.5100  -12.4970   18.8090 C   0  0  0  0  0  2  0  0  0  0  0  0
  -29.4690  -12.6710   17.6810 C   0  0  0  0  0  2  0  0  0  0  0  0
  -28.0350  -12.5080   18.2230 C   0  0  0  0  0  2  0  0  0  0  0  0
  -27.7940  -13.3220   19.5230 C   0  0  0  0  0  3  0  0  0  0  0  0
  -28.9370  -13.0890   20.5330 C   0  0  0  0  0  2  0  0  0  0  0  0
  -30.1910  -13.4740   19.8720 N   0  0  0  0  0  0  0  0  0  0  0  0
  -31.9370  -14.8380   19.4110 O   0  0  0  0  0  0  0  0  0  0  0  0
  -29.8130  -17.5910   22.0280 C   0  0  0  0  0  2  0  0  0  0  0  0
  -29.9130  -16.0580   21.8430 C   0  0  0  0  0  2  0  0  0  0  0  0
  -30.0930  -17.1190   19.7360 C   0  0  0  0  0  2  0  0  0  0  0  0
  -29.3200  -18.1000   20.6790 C   0  0  0  0  0  3  0  0  0  0  0  0
  -30.1290  -15.7760   20.4110 N   0  0  0  0  0  0  0  0  0  0  0  0
  -25.4820  -13.9200   20.4680 C   0  0  0  0  0  0  0  0  0  0  0  0
  -24.4360  -13.1440   20.8880 C   0  0  0  0  0  0  0  0  0  0  0  0
  -24.8680  -11.7890   20.7500 C   0  0  0  0  0  0  0  0  0  0  0  0
  -26.4860  -13.0370   20.1030 N   0  0  0  0  0  0  0  0  0  0  0  0
  -26.1270  -11.7480   20.3310 N   0  0  0  0  0  0  0  0  0  0  0  0
  -24.1390  -10.5300   20.9410 C   0  0  0  0  0  0  0  0  0  0  0  0
  -24.5780   -9.5540   21.8630 C   0  0  0  0  0  3  0  0  0  0  0  0
  -23.8480   -8.3580   22.0410 C   0  0  0  0  0  3  0  0  0  0  0  0
  -22.6670   -8.1300   21.2960 C   0  0  0  0  0  0  0  0  0  0  0  0
  -22.2470   -9.0940   20.3630 C   0  0  0  0  0  3  0  0  0  0  0  0
  -22.9760  -10.2820   20.1830 C   0  0  0  0  0  3  0  0  0  0  0  0
  -21.9090   -6.9870   21.3850 O   0  0  0  0  0  0  0  0  0  0  0  0
  -21.7860   -6.2940   22.5610 C   0  0  0  0  0  0  0  0  0  0  0  0
  -21.2720   -6.8960   23.7310 C   0  0  0  0  0  3  0  0  0  0  0  0
  -21.0970   -6.1300   24.8990 C   0  0  0  0  0  3  0  0  0  0  0  0
  -21.4260   -4.7610   24.9000 C   0  0  0  0  0  0  0  0  0  0  0  0
  -21.9330   -4.1580   23.7360 C   0  0  0  0  0  3  0  0  0  0  0  0
  -22.1090   -4.9220   22.5690 C   0  0  0  0  0  0  0  0  0  0  0  0
  -22.5780   -4.3320   21.4430 F   0  0  0  0  0  0  0  0  0  0  0  0
  -21.2510   -4.0210   26.0200 F   0  0  0  0  0  0  0  0  0  0  0  0
  -23.0750  -13.6250   21.3030 C   0  0  0  0  0  0  0  0  0  0  0  0
  -22.4280  -12.9140   22.2180 N   0  0  0  0  0  0  0  0  0  0  0  0
  -22.6000  -14.6670   20.8510 O   0  0  0  0  0  0  0  0  0  0  0  0
  -22.8280  -12.0720   22.6030 H   0  0  0  0  0  0  0  0  0  0  0  0
  -21.5190  -13.2160   22.5410 H   0  0  0  0  0  0  0  0  0  0  0  0
  -25.6580  -15.2960   20.3480 N   0  0  0  0  0  0  0  0  0  0  0  0
  -24.9210  -15.9560   20.5690 H   0  0  0  0  0  0  0  0  0  0  0  0
  -26.4980  -15.7360   19.9950 H   0  0  0  0  0  0  0  0  0  0  0  0
  -26.5050  -23.7460   20.3090 C   0  0  0  0  0  1  0  0  0  0  0  0
  -27.9790  -23.9360   19.8910 C   0  0  0  0  0  3  0  0  0  0  0  0
  -28.6050  -25.2120   20.6160 C   0  0  0  0  0  2  0  0  0  0  0  0
  -28.5480  -26.5790   20.0400 O   0  0  0  0  0  0  0  0  0  0  0  0
  -24.5500  -31.7440   23.1330 C   0  0  0  0  0  0  0  0  0  0  0  0
  -27.3810  -27.3420   20.0670 C   0  0  0  0  0  0  0  0  0  0  0  0
  -23.4240  -30.3140   21.4650 C   0  0  0  0  0  3  0  0  0  0  0  0
  -24.9540  -28.8420   20.0380 C   0  0  0  0  0  0  0  0  0  0  0  0
  -25.9470  -30.7410   21.3170 C   0  0  0  0  0  2  0  0  0  0  0  0
  -26.0900  -29.3740   20.6640 C   0  0  0  0  0  0  0  0  0  0  0  0
  -27.3060  -28.6320   20.6760 C   0  0  0  0  0  3  0  0  0  0  0  0
  -26.2400  -26.8800   19.3840 C   0  0  0  0  0  3  0  0  0  0  0  0
  -25.0290  -27.5980   19.3920 C   0  0  0  0  0  3  0  0  0  0  0  0
  -23.6800  -29.6620   20.0800 C   0  0  0  0  0  2  0  0  0  0  0  0
  -24.6570  -30.9510   22.0280 N   0  0  0  0  0  0  0  0  0  0  0  0
  -23.4500  -31.9710   23.6580 O   0  0  0  0  0  0  0  0  0  0  0  0
  -22.7970  -29.2590   22.4060 C   0  0  0  0  0  0  0  0  0  0  0  0
  -21.4810  -29.0270   22.2590 N   0  0  0  0  0  0  0  0  0  0  0  0
  -23.4910  -28.6530   23.2260 O   0  0  0  0  0  0  0  0  0  0  0  0
  -20.9800  -29.5710   21.5710 H   0  0  0  0  0  0  0  0  0  0  0  0
  -18.1440  -27.7120   22.7310 C   0  0  0  0  0  0  0  0  0  0  0  0
  -20.6930  -28.0490   23.0100 C   0  0  0  0  0  3  0  0  0  0  0  0
  -20.8420  -26.6340   22.4070 C   0  0  0  0  0  2  0  0  0  0  0  0
  -19.7520  -26.2950   21.3860 C   0  0  0  0  0  2  0  0  0  0  0  0
  -18.3640  -26.3830   22.0290 C   0  0  0  0  0  2  0  0  0  0  0  0
  -19.2370  -28.5020   23.1770 C   0  0  0  0  0  0  0  0  0  0  0  0
  -18.9780  -29.7450   23.7930 C   0  0  0  0  0  3  0  0  0  0  0  0
  -17.6580  -30.2020   23.9650 C   0  0  0  0  0  3  0  0  0  0  0  0
  -16.5800  -29.4110   23.5350 C   0  0  0  0  0  3  0  0  0  0  0  0
  -16.8240  -28.1660   22.9250 C   0  0  0  0  0  3  0  0  0  0  0  0
  -25.8000  -32.4200   23.7750 C   0  0  0  0  0  3  0  0  0  0  0  0
  -26.3370  -31.6550   25.0480 C   0  0  1  0  0  0  0  0  0  0  0  0
  -25.2410  -31.3470   26.0970 C   0  0  0  0  0  1  0  0  0  0  0  0
  -26.9920  -30.3130   24.6450 C   0  0  0  0  0  1  0  0  0  0  0  0
  -27.4390  -32.4940   25.7360 C   0  0  0  0  0  1  0  0  0  0  0  0
  -25.4280  -33.8000   24.1210 N   0  0  0  0  0  0  0  0  0  0  0  0
  -25.7190  -34.8750   23.3760 C   0  0  0  0  0  0  0  0  0  0  0  0
  -26.3990  -34.8130   22.3480 O   0  0  0  0  0  0  0  0  0  0  0  0
  -24.8160  -33.9170   24.9140 H   0  0  0  0  0  0  0  0  0  0  0  0
  -23.9150  -36.5950   23.0380 C   0  0  0  0  0  1  0  0  0  0  0  0
  -25.1700  -36.2340   23.8480 C   0  0  0  0  0  3  0  0  0  0  0  0
  -27.2580  -37.2010   24.7030 C   0  0  0  0  0  1  0  0  0  0  0  0
  -26.1560  -37.3310   23.7530 N   0  0  0  0  0  0  0  0  0  0  0  0
  -25.7090  -38.2320   23.9100 H   0  0  0  0  0  0  0  0  0  0  0  0
  -28.2460  -21.1890   16.6240 C   0  0  0  0  0  1  0  0  0  0  0  0
  -28.2790  -22.0740   17.7360 O   0  0  0  0  0  0  0  0  0  0  0  0
  2  1  1  0
  3  4  1  0
  4  1  2  0
  5  2  2  0
  6  3  2  0
  6  5  1  0
  7 19  1  0
  8 13  1  0
  9 10  1  0
  9  8  1  0
 11 10  1  0
 11 23  1  0
 11 12  1  0
 13  7  1  0
 13 12  1  0
 14  7  2  0
 16 15  1  0
 17 19  1  0
 17 18  1  0
 18  4  1  0
 18 15  1  0
 19 16  1  0
 20 21  2  0
 21 40  1  0
 22 21  1  0
 22 25  1  0
 23 24  1  0
 23 20  1  0
 24 22  2  0
 25 26  1  0
 26 27  2  0
 28 31  1  0
 28 27  1  0
 29 28  2  0
 30 29  1  0
 30 25  2  0
 31 32  1  0
 32 37  2  0
 32 33  1  0
 33 34  2  0
 34 35  1  0
 35 39  1  0
 36 35  2  0
 37 36  1  0
 38 37  1  0
 40 41  1  0
 41 44  1  0
 41 43  1  0
 42 40  2  0
 45 20  1  0
 45 46  1  0
 47 45  1  0
 49  5  1  0
 49 48  1  0
 49 50  1  0
 51 53  1  0
 51 50  1  0
 52 63  2  0
 53 58  1  0
 54 62  1  0
 54 64  1  0
 55 61  1  0
 55 57  1  0
 56 62  1  0
 57 58  2  0
 57 56  1  0
 59 60  1  0
 59 53  2  0
 60 55  2  0
 61 54  1  0
 62 52  1  0
 64 66  2  0
 65 64  1  0
 67 65  1  0
 68 77  2  0
 68 73  1  0
 69 65  1  0
 69 73  1  0
 70 69  1  0
 71 72  1  0
 71 70  1  0
 72 68  1  0
 73 74  2  0
 74 75  1  0
 76 75  2  0
 77 76  1  0
 78 52  1  0
 78 83  1  0
 78 79  1  0
 79 82  1  1
 79 80  1  0
 81 79  1  0
 83 86  1  0
 84 88  1  0
 84 83  1  0
 85 84  2  0
 88 87  1  0
 90 88  1  0
 90 91  1  0
 90 89  1  0
 92 93  1  0
 93  6  1  0
M  ISO  4   7 100  19 100  50 101  51 101
M  END
>  <TORSDO>  (23) 
F 19

>  <SCORE>  (23) 
-12.965

>  <name>  (23) 
22

>  <ligand_id>  (23) 
22

>  <original_smiles>  (23) 
[H]c1c([H])c([H])c2c(c1[H])C([H])([H])C([H])([H])C([H])([H])C2([H])N([H])C(=O)C1([H])N(C(=O)C([H])(N([H])C(=O)C([H])(N([H])C([H])([H])[H])C([H])([H])[H])C(C([H])([H])[H])(C([H])([H])[H])C([H])([H])[H])C([H])([H])c2c([H])c(OC([H])([H])C([H])(c3c([H])c([H])c(C4([H])C([H])([H])N(C(=O)N5C([H])([H])C([H])([H])C([H])([H])C([H])(n6nc(-c7c([H])c([H])c(Oc8c([H])c([H])c(F)c([H])c8F)c([H])c7[H])c(C(=O)N([H])[H])c6N([H])[H])C5([H])[H])C([H])([H])C4([H])[H])c([H])c3OC([H])([H])[H])C([H])([H])[H])c([H])c([H])c2C1([H])[H]

>  <smiles>  (23) 
[H]c1c([H])c([H])c2c(c1[H])C([H])([H])C([H])([H])C([H])([H])C2([H])N([H])C(=O)C1([H])N(C(=O)C([H])(N([H])C(=O)C([H])(N([H])C([H])([H])[H])C([H])([H])[H])C(C([H])([H])[H])(C([H])([H])[H])C([H])([H])[H])C([H])([H])c2c([H])c(OC([H])([H])C([H])(c3c([H])c([H])c(C4([H])C([H])([H])N(C(=O)N5C([H])([H])C([H])([H])C([H])([H])C([H])(n6nc(-c7c([H])c([H])c(Oc8c([H])c([H])c(F)c([H])c8F)c([H])c7[H])c(C(=O)N([H])[H])c6N([H])[H])C5([H])[H])C([H])([H])C4([H])[H])c([H])c3OC([H])([H])[H])C([H])([H])[H])c([H])c([H])c2C1([H])[H]

$$$$
23:0:0
     RDKit          3D

102111  0  0  1  0  0  0  0  0999 V2000
  -26.6950  -18.6820   18.9730 C   0  0  0  0  0  3  0  0  0  0  0  0
  -26.2660  -19.9990   19.0770 C   0  0  0  0  0  0  0  0  0  0  0  0
  -28.5170  -20.6870   19.8980 C   0  0  0  0  0  0  0  0  0  0  0  0
  -27.1490  -20.9900   19.5580 C   0  0  0  0  0  0  0  0  0  0  0  0
  -28.8310  -19.1930   20.1350 C   0  0  0  0  0  0  0  0  0  0  0  0
  -27.9330  -18.2760   19.4920 C   0  0  0  0  0  0  0  0  0  0  0  0
  -24.8440  -20.3110   18.6180 C   0  0  0  0  0  1  0  0  0  0  0  0
  -27.7550  -16.1800   18.2850 C   0  0  0  0  0  1  0  0  0  0  0  0
  -28.2860  -16.9470   19.3650 O   0  0  0  0  0  0  0  0  0  0  0  0
  -29.4000  -22.0830   19.9440 C   0  0  0  0  0  2  0  0  0  0  0  0
  -28.9370  -23.6040   19.2760 C   0  0  0  0  0  3  0  0  0  0  0  0
  -28.4650  -25.0600   20.0320 C   0  0  0  0  0  3  0  0  0  0  0  0
  -28.4360  -26.5310   19.4860 O   0  0  0  0  0  0  0  0  0  0  0  0
  -24.5890  -31.6320   23.2520 C   0  0  0  0  0  0  0  0  0  0  0  0
  -27.3200  -27.4360   19.6390 C   0  0  0  0  0  0  0  0  0  0  0  0
  -23.4200  -30.3840   21.4750 C   0  0  0  0  0  3  0  0  0  0  0  0
  -24.9100  -29.0570   19.8530 C   0  0  0  0  0  0  0  0  0  0  0  0
  -25.9530  -30.7940   21.3000 C   0  0  0  0  0  2  0  0  0  0  0  0
  -26.0810  -29.4900   20.4880 C   0  0  0  0  0  0  0  0  0  0  0  0
  -27.2890  -28.7010   20.3590 C   0  0  0  0  0  3  0  0  0  0  0  0
  -26.1150  -27.1000   18.9900 C   0  0  0  0  0  3  0  0  0  0  0  0
  -24.9400  -27.8790   19.0890 C   0  0  0  0  0  3  0  0  0  0  0  0
  -23.6440  -29.8840   20.0220 C   0  0  0  0  0  2  0  0  0  0  0  0
  -24.6740  -30.9530   22.0660 N   0  0  0  0  0  0  0  0  0  0  0  0
  -23.5040  -31.7970   23.8290 O   0  0  0  0  0  0  0  0  0  0  0  0
  -22.8100  -29.2380   22.3210 C   0  0  0  0  0  0  0  0  0  0  0  0
  -21.4950  -29.0030   22.1750 N   0  0  0  0  0  0  0  0  0  0  0  0
  -23.5240  -28.5670   23.0700 O   0  0  0  0  0  0  0  0  0  0  0  0
  -20.9710  -29.6000   21.5490 H   0  0  0  0  0  0  0  0  0  0  0  0
  -18.1990  -27.5440   22.5310 C   0  0  0  0  0  0  0  0  0  0  0  0
  -20.7370  -27.9380   22.8380 C   0  0  0  0  0  3  0  0  0  0  0  0
  -20.9280  -26.5860   22.1120 C   0  0  0  0  0  2  0  0  0  0  0  0
  -19.8480  -26.3050   21.0630 C   0  0  0  0  0  2  0  0  0  0  0  0
  -18.4610  -26.2910   21.7120 C   0  0  0  0  0  2  0  0  0  0  0  0
  -19.2670  -28.3260   23.0460 C   0  0  0  0  0  0  0  0  0  0  0  0
  -18.9670  -29.4990   23.7720 C   0  0  0  0  0  3  0  0  0  0  0  0
  -17.6320  -29.8910   23.9880 C   0  0  0  0  0  3  0  0  0  0  0  0
  -16.5800  -29.1060   23.4880 C   0  0  0  0  0  3  0  0  0  0  0  0
  -16.8630  -27.9350   22.7650 C   0  0  0  0  0  3  0  0  0  0  0  0
  -25.8500  -32.2500   23.9300 C   0  0  0  0  0  3  0  0  0  0  0  0
  -25.4910  -33.5980   24.4030 N   0  0  0  0  0  0  0  0  0  0  0  0
  -25.8130  -34.7370   23.7780 C   0  0  0  0  0  0  0  0  0  0  0  0
  -26.5090  -34.7660   22.7600 O   0  0  0  0  0  0  0  0  0  0  0  0
  -24.8760  -33.6460   25.2020 H   0  0  0  0  0  0  0  0  0  0  0  0
  -24.0660  -36.5360   23.5610 C   0  0  0  0  0  1  0  0  0  0  0  0
  -25.2780  -36.0550   24.3730 C   0  0  0  0  0  3  0  0  0  0  0  0
  -27.3550  -36.8730   25.4020 C   0  0  0  0  0  1  0  0  0  0  0  0
  -26.2930  -37.1300   24.4320 N   0  0  0  0  0  0  0  0  0  0  0  0
  -25.8630  -38.0210   24.6640 H   0  0  0  0  0  0  0  0  0  0  0  0
  -26.4000  -31.3770   25.1260 C   0  0  1  0  0  0  0  0  0  0  0  0
  -25.3250  -31.0090   26.1740 C   0  0  0  0  0  1  0  0  0  0  0  0
  -27.0180  -30.0580   24.6060 C   0  0  0  0  0  1  0  0  0  0  0  0
  -27.5330  -32.1380   25.8540 C   0  0  0  0  0  1  0  0  0  0  0  0
  -26.5260  -22.3800   19.7670 C   0  0  0  0  0  2  0  0  0  0  0  0
  -25.1020  -23.9610   18.7090 C   0  0  0  0  0  1  0  0  0  0  0  0
  -26.1440  -23.0050   18.5440 O   0  0  0  0  0  0  0  0  0  0  0  0
  -30.0480  -18.3480   20.9040 C   0  0  0  0  0  3  0  0  0  0  0  0
  -30.7610  -15.5640   21.3460 C   0  0  0  0  0  0  0  0  0  0  0  0
  -30.8900  -13.1380   20.5990 C   0  0  0  0  0  2  0  0  0  0  0  0
  -30.1980  -12.9390   19.2300 C   0  0  0  0  0  2  0  0  0  0  0  0
  -28.6860  -12.7060   19.4090 C   0  0  0  0  0  2  0  0  0  0  0  0
  -28.0420  -13.6880   20.4230 C   0  0  0  0  0  3  0  0  0  0  0  0
  -28.8770  -13.8460   21.7080 C   0  0  0  0  0  2  0  0  0  0  0  0
  -30.2130  -14.2800   21.2820 N   0  0  0  0  0  0  0  0  0  0  0  0
  -31.9910  -15.6080   21.4140 O   0  0  0  0  0  0  0  0  0  0  0  0
  -29.9550  -16.7380   21.1250 N   0  0  0  0  0  0  0  0  0  0  0  0
  -28.9950  -16.4520   21.0200 H   0  0  0  0  0  0  0  0  0  0  0  0
  -25.5560  -14.2160   20.6980 C   0  0  0  0  0  0  0  0  0  0  0  0
  -24.4630  -13.4260   20.9060 C   0  0  0  0  0  0  0  0  0  0  0  0
  -24.9590  -12.0900   21.0330 C   0  0  0  0  0  0  0  0  0  0  0  0
  -26.6480  -13.3650   20.6950 N   0  0  0  0  0  0  0  0  0  0  0  0
  -26.2850  -12.0840   20.9660 N   0  0  0  0  0  0  0  0  0  0  0  0
  -24.2400  -10.8130   21.1520 C   0  0  0  0  0  0  0  0  0  0  0  0
  -24.5390   -9.8900   22.1780 C   0  0  0  0  0  3  0  0  0  0  0  0
  -23.8160   -8.6810   22.2860 C   0  0  0  0  0  3  0  0  0  0  0  0
  -22.7830   -8.3860   21.3640 C   0  0  0  0  0  0  0  0  0  0  0  0
  -22.5070   -9.2980   20.3300 C   0  0  0  0  0  3  0  0  0  0  0  0
  -23.2300  -10.4980   20.2210 C   0  0  0  0  0  3  0  0  0  0  0  0
  -22.0520   -7.2230   21.3750 O   0  0  0  0  0  0  0  0  0  0  0  0
  -21.8340   -6.5230   22.5340 C   0  0  0  0  0  0  0  0  0  0  0  0
  -21.2060   -7.1100   23.6540 C   0  0  0  0  0  3  0  0  0  0  0  0
  -20.9370   -6.3320   24.7980 C   0  0  0  0  0  3  0  0  0  0  0  0
  -21.2880   -4.9690   24.8210 C   0  0  0  0  0  0  0  0  0  0  0  0
  -21.9110   -4.3820   23.7070 C   0  0  0  0  0  3  0  0  0  0  0  0
  -22.1810   -5.1570   22.5650 C   0  0  0  0  0  0  0  0  0  0  0  0
  -22.7630   -4.5820   21.4850 F   0  0  0  0  0  0  0  0  0  0  0  0
  -21.0250   -4.2200   25.9170 F   0  0  0  0  0  0  0  0  0  0  0  0
  -23.0280  -13.8680   20.8890 C   0  0  0  0  0  0  0  0  0  0  0  0
  -22.1770  -13.2170   21.6710 N   0  0  0  0  0  0  0  0  0  0  0  0
  -22.6660  -14.8310   20.2140 O   0  0  0  0  0  0  0  0  0  0  0  0
  -22.4800  -12.4420   22.2420 H   0  0  0  0  0  0  0  0  0  0  0  0
  -21.2100  -13.5060   21.7090 H   0  0  0  0  0  0  0  0  0  0  0  0
  -25.7120  -15.5820   20.4810 N   0  0  0  0  0  0  0  0  0  0  0  0
  -24.9110  -16.1970   20.4020 H   0  0  0  0  0  0  0  0  0  0  0  0
  -26.5870  -16.0480   20.2780 H   0  0  0  0  0  0  0  0  0  0  0  0
  -32.7480  -18.6010   20.7790 C   0  0  0  0  0  2  0  0  0  0  0  0
  -33.6600  -19.1410   19.6700 C   0  0  0  0  0  2  0  0  0  0  0  0
  -31.5230  -18.6110   18.7190 C   0  0  0  0  0  2  0  0  0  0  0  0
  -31.3510  -18.8840   20.2230 C   0  0  0  0  0  3  0  0  0  0  0  0
  -32.9290  -18.9380   18.4020 N   0  0  0  0  0  4  0  0  0  0  0  0
  -33.3410  -18.1890   17.8680 H   0  0  0  0  0  0  0  0  0  0  0  0
  -32.9840  -19.7750   17.8450 H   0  0  0  0  0  0  0  0  0  0  0  0
  1  2  2  0
  1  6  1  0
  2  4  1  0
  3 10  1  0
  3  5  1  0
  4 54  1  0
  4  3  2  0
  5 57  1  0
  6  5  2  0
  7  2  1  0
  8  9  1  0
  9  6  1  0
 11 10  1  0
 11 12  2  0
 13 15  1  0
 13 12  1  0
 14 25  2  0
 15 20  1  0
 16 24  1  0
 16 26  1  0
 17 23  1  0
 17 19  1  0
 18 24  1  0
 19 18  1  0
 20 19  2  0
 21 22  1  0
 21 15  2  0
 22 17  2  0
 23 16  1  0
 24 14  1  0
 26 28  2  0
 27 26  1  0
 29 27  1  0
 30 39  2  0
 30 35  1  0
 31 27  1  0
 31 35  1  0
 32 31  1  0
 33 34  1  0
 33 32  1  0
 34 30  1  0
 35 36  2  0
 36 37  1  0
 38 37  2  0
 39 38  1  0
 40 14  1  0
 40 41  1  0
 40 50  1  0
 41 44  1  0
 42 46  1  0
 42 41  1  0
 43 42  2  0
 46 45  1  0
 46 48  1  0
 48 49  1  0
 48 47  1  0
 50 53  1  1
 50 51  1  0
 52 50  1  0
 56 55  1  0
 56 54  1  0
 57 66  1  0
 58 65  2  0
 59 64  1  0
 60 61  1  0
 60 59  1  0
 62 61  1  0
 62 71  1  0
 62 63  1  0
 64 58  1  0
 64 63  1  0
 66 58  1  0
 67 66  1  0
 68 69  2  0
 69 70  1  0
 70 73  1  0
 71 68  1  0
 71 72  1  0
 72 70  2  0
 73 74  1  0
 74 75  2  0
 76 79  1  0
 76 75  1  0
 77 76  2  0
 78 77  1  0
 78 73  2  0
 79 80  1  0
 80 85  2  0
 80 81  1  0
 81 82  2  0
 82 83  1  0
 83 87  1  0
 84 83  2  0
 85 84  1  0
 86 85  1  0
 88 69  1  0
 88 89  1  0
 89 92  1  0
 89 91  1  0
 90 88  2  0
 93 68  1  0
 94 93  1  0
 95 93  1  0
 97 96  1  0
 98 99  1  0
 99 96  1  0
 99 57  1  0
100 98  1  0
100 97  1  0
101100  1  0
102100  1  0
M  ISO  4  12 101  13 101  58 100  66 100
M  END
>  <TORSDO>  (24) 
F 24

>  <SCORE>  (24) 
-10.158

>  <name>  (24) 
23

>  <ligand_id>  (24) 
23

>  <original_smiles>  (24) 
[H]c1c([H])c([H])c2c(c1[H])C([H])([H])C([H])([H])C([H])([H])C2([H])N([H])C(=O)C1([H])N(C(=O)C([H])(N([H])C(=O)C([H])(N([H])C([H])([H])[H])C([H])([H])[H])C(C([H])([H])[H])(C([H])([H])[H])C([H])([H])[H])C([H])([H])c2c([H])c(OC([H])([H])C([H])([H])C([H])([H])c3c(C([H])([H])OC([H])([H])[H])c(C([H])([H])[H])c([H])c(OC([H])([H])[H])c3C([H])(N([H])C(=O)N3C([H])([H])C([H])([H])C([H])([H])C([H])(n4nc(-c5c([H])c([H])c(Oc6c([H])c([H])c(F)c([H])c6F)c([H])c5[H])c(C(=O)N([H])[H])c4N([H])[H])C3([H])[H])C3([H])C([H])([H])C([H])([H])[N+]([H])([H])C3([H])[H])c([H])c([H])c2C1([H])[H]

>  <smiles>  (24) 
[H]c1c([H])c([H])c2c(c1[H])C([H])([H])C([H])([H])C([H])([H])C2([H])N([H])C(=O)C1([H])N(C(=O)C([H])(N([H])C(=O)C([H])(N([H])C([H])([H])[H])C([H])([H])[H])C(C([H])([H])[H])(C([H])([H])[H])C([H])([H])[H])C([H])([H])c2c([H])c(OC([H])([H])C([H])([H])C([H])([H])c3c(C([H])([H])OC([H])([H])[H])c(C([H])([H])[H])c([H])c(OC([H])([H])[H])c3C([H])(N([H])C(=O)N3C([H])([H])C([H])([H])C([H])([H])C([H])(n4nc(-c5c([H])c([H])c(Oc6c([H])c([H])c(F)c([H])c6F)c([H])c5[H])c(C(=O)N([H])[H])c4N([H])[H])C3([H])[H])C3([H])C([H])([H])C([H])([H])[N+]([H])([H])C3([H])[H])c([H])c([H])c2C1([H])[H]

$$$$
24:0:0
     RDKit          3D

 92101  0  0  1  0  0  0  0  0999 V2000
  -28.6360  -22.5470   20.3420 C   0  0  0  0  0  3  0  0  0  0  0  0
  -30.8610  -21.8210   20.8430 C   0  0  0  0  0  3  0  0  0  0  0  0
  -29.1050  -23.9060   20.2050 C   0  0  0  0  0  0  0  0  0  0  0  0
  -29.5160  -21.4500   20.6470 C   0  0  0  0  0  0  0  0  0  0  0  0
  -30.5030  -24.0860   20.3520 C   0  0  0  0  0  0  0  0  0  0  0  0
  -31.2010  -25.4180   20.1280 C   0  0  0  0  0  1  0  0  0  0  0  0
  -31.3380  -23.0770   20.6870 N   0  0  0  0  0  0  0  0  0  0  0  0
  -28.1030  -25.0570   19.8100 C   0  0  0  0  0  2  0  0  0  0  0  0
  -28.3090  -26.4780   20.1980 O   0  0  0  0  0  0  0  0  0  0  0  0
  -24.5660  -31.8930   23.2150 C   0  0  0  0  0  0  0  0  0  0  0  0
  -27.1920  -27.3410   20.1350 C   0  0  0  0  0  0  0  0  0  0  0  0
  -23.3680  -30.4970   21.5730 C   0  0  0  0  0  3  0  0  0  0  0  0
  -24.8210  -28.9590   20.1390 C   0  0  0  0  0  0  0  0  0  0  0  0
  -25.9110  -30.8130   21.3980 C   0  0  0  0  0  2  0  0  0  0  0  0
  -25.9910  -29.4390   20.7420 C   0  0  0  0  0  0  0  0  0  0  0  0
  -27.1760  -28.6410   20.7340 C   0  0  0  0  0  3  0  0  0  0  0  0
  -25.9960  -26.9300   19.4910 C   0  0  0  0  0  3  0  0  0  0  0  0
  -24.8260  -27.7110   19.5030 C   0  0  0  0  0  3  0  0  0  0  0  0
  -23.5850  -29.8320   20.1900 C   0  0  0  0  0  2  0  0  0  0  0  0
  -24.6340  -31.0850   22.1180 N   0  0  0  0  0  0  0  0  0  0  0  0
  -23.4810  -32.1680   23.7470 O   0  0  0  0  0  0  0  0  0  0  0  0
  -22.7070  -29.4740   22.5290 C   0  0  0  0  0  0  0  0  0  0  0  0
  -21.3830  -29.2910   22.3980 N   0  0  0  0  0  0  0  0  0  0  0  0
  -23.3870  -28.8490   23.3470 O   0  0  0  0  0  0  0  0  0  0  0  0
  -20.8960  -29.8420   21.7040 H   0  0  0  0  0  0  0  0  0  0  0  0
  -18.0030  -28.0960   22.8950 C   0  0  0  0  0  0  0  0  0  0  0  0
  -20.5620  -28.3540   23.1680 C   0  0  0  0  0  3  0  0  0  0  0  0
  -20.6640  -26.9240   22.5910 C   0  0  0  0  0  2  0  0  0  0  0  0
  -19.5620  -26.6020   21.5780 C   0  0  0  0  0  2  0  0  0  0  0  0
  -18.1790  -26.7470   22.2190 C   0  0  0  0  0  2  0  0  0  0  0  0
  -19.1210  -28.8570   23.3270 C   0  0  0  0  0  0  0  0  0  0  0  0
  -18.9010  -30.1190   23.9210 C   0  0  0  0  0  3  0  0  0  0  0  0
  -17.5960  -30.6200   24.0880 C   0  0  0  0  0  3  0  0  0  0  0  0
  -16.4930  -29.8560   23.6720 C   0  0  0  0  0  3  0  0  0  0  0  0
  -16.6960  -28.5970   23.0800 C   0  0  0  0  0  3  0  0  0  0  0  0
  -25.8470  -32.5280   23.8370 C   0  0  0  0  0  3  0  0  0  0  0  0
  -25.5380  -33.9280   24.1600 N   0  0  0  0  0  0  0  0  0  0  0  0
  -25.8790  -34.9790   23.4020 C   0  0  0  0  0  0  0  0  0  0  0  0
  -26.5590  -34.8730   22.3780 O   0  0  0  0  0  0  0  0  0  0  0  0
  -24.9370  -34.0840   24.9560 H   0  0  0  0  0  0  0  0  0  0  0  0
  -24.1710  -36.7850   23.0130 C   0  0  0  0  0  1  0  0  0  0  0  0
  -25.3870  -36.3690   23.8530 C   0  0  0  0  0  3  0  0  0  0  0  0
  -27.5050  -37.2390   24.7410 C   0  0  0  0  0  1  0  0  0  0  0  0
  -26.4280  -37.4170   23.7700 N   0  0  0  0  0  0  0  0  0  0  0  0
  -26.0230  -38.3380   23.9120 H   0  0  0  0  0  0  0  0  0  0  0  0
  -26.3550  -31.7650   25.1220 C   0  0  1  0  0  0  0  0  0  0  0  0
  -25.2520  -31.5380   26.1840 C   0  0  0  0  0  1  0  0  0  0  0  0
  -26.9370  -30.3830   24.7460 C   0  0  0  0  0  1  0  0  0  0  0  0
  -27.4990  -32.5630   25.7880 C   0  0  0  0  0  1  0  0  0  0  0  0
  -29.0730  -20.1270   20.8870 O   0  0  0  0  0  0  0  0  0  0  0  0
  -30.7070  -14.7700   20.3210 C   0  0  0  0  0  0  0  0  0  0  0  0
  -30.4070  -12.5190   19.2720 C   0  0  0  0  0  2  0  0  0  0  0  0
  -29.4860  -12.6180   18.0400 C   0  0  0  0  0  2  0  0  0  0  0  0
  -28.0210  -12.4110   18.4670 C   0  0  0  0  0  2  0  0  0  0  0  0
  -27.6440  -13.2790   19.6960 C   0  0  0  0  0  3  0  0  0  0  0  0
  -28.7100  -13.2220   20.8200 C   0  0  0  0  0  2  0  0  0  0  0  0
  -29.9970  -13.5890   20.2190 N   0  0  0  0  0  0  0  0  0  0  0  0
  -31.8820  -14.7660   19.9310 O   0  0  0  0  0  0  0  0  0  0  0  0
  -30.9090  -18.3750   20.2010 C   0  0  0  0  0  2  0  0  0  0  0  0
  -28.4430  -17.8120   20.0580 C   0  0  0  0  0  2  0  0  0  0  0  0
  -31.0240  -17.1430   21.1580 C   0  0  0  0  0  2  0  0  0  0  0  0
  -28.7740  -16.5040   20.8870 C   0  0  0  0  0  2  0  0  0  0  0  0
  -29.4820  -18.9940   20.0380 C   0  0  0  0  0  3  0  0  0  0  0  0
  -30.1670  -15.9890   20.7580 N   0  0  0  0  0  0  0  0  0  0  0  0
  -25.2610  -13.8580   20.4500 C   0  0  0  0  0  0  0  0  0  0  0  0
  -24.2080  -13.0780   20.8320 C   0  0  0  0  0  0  0  0  0  0  0  0
  -24.6810  -11.7310   20.7970 C   0  0  0  0  0  0  0  0  0  0  0  0
  -26.3090  -12.9860   20.2000 N   0  0  0  0  0  0  0  0  0  0  0  0
  -25.9670  -11.7010   20.4750 N   0  0  0  0  0  0  0  0  0  0  0  0
  -23.9660  -10.4640   20.9930 C   0  0  0  0  0  0  0  0  0  0  0  0
  -24.3990   -9.5140   21.9430 C   0  0  0  0  0  3  0  0  0  0  0  0
  -23.6880   -8.3080   22.1200 C   0  0  0  0  0  3  0  0  0  0  0  0
  -22.5300   -8.0470   21.3490 C   0  0  0  0  0  0  0  0  0  0  0  0
  -22.1170   -8.9880   20.3910 C   0  0  0  0  0  3  0  0  0  0  0  0
  -22.8280  -10.1840   20.2090 C   0  0  0  0  0  3  0  0  0  0  0  0
  -21.7850   -6.8960   21.4420 O   0  0  0  0  0  0  0  0  0  0  0  0
  -21.7070   -6.1780   22.6090 C   0  0  0  0  0  0  0  0  0  0  0  0
  -21.2050   -6.7470   23.8010 C   0  0  0  0  0  3  0  0  0  0  0  0
  -21.0790   -5.9550   24.9600 C   0  0  0  0  0  3  0  0  0  0  0  0
  -21.4410   -4.5940   24.9240 C   0  0  0  0  0  0  0  0  0  0  0  0
  -21.9340   -4.0240   23.7380 C   0  0  0  0  0  3  0  0  0  0  0  0
  -22.0620   -4.8140   22.5820 C   0  0  0  0  0  0  0  0  0  0  0  0
  -22.5200   -4.2570   21.4350 F   0  0  0  0  0  0  0  0  0  0  0  0
  -21.3120   -3.8310   26.0330 F   0  0  0  0  0  0  0  0  0  0  0  0
  -22.8110  -13.5460   21.1150 C   0  0  0  0  0  0  0  0  0  0  0  0
  -22.0910  -12.8440   21.9800 N   0  0  0  0  0  0  0  0  0  0  0  0
  -22.3690  -14.5740   20.6010 O   0  0  0  0  0  0  0  0  0  0  0  0
  -22.4600  -12.0100   22.4160 H   0  0  0  0  0  0  0  0  0  0  0  0
  -21.1520  -13.1400   22.2060 H   0  0  0  0  0  0  0  0  0  0  0  0
  -25.4010  -15.2320   20.2720 N   0  0  0  0  0  0  0  0  0  0  0  0
  -24.6240  -15.8700   20.3970 H   0  0  0  0  0  0  0  0  0  0  0  0
  -26.2400  -15.6930   19.9460 H   0  0  0  0  0  0  0  0  0  0  0  0
  1  4  1  0
  3  1  2  0
  3  5  1  0
  4  2  2  0
  4 50  1  0
  5  7  2  0
  6  5  1  0
  7  2  1  0
  8  9  1  0
  8  3  1  0
 10 21  2  0
 11  9  1  0
 11 16  1  0
 12 20  1  0
 12 22  1  0
 13 19  1  0
 13 15  1  0
 14 20  1  0
 15 14  1  0
 16 15  2  0
 17 18  1  0
 17 11  2  0
 18 13  2  0
 19 12  1  0
 20 10  1  0
 22 24  2  0
 23 22  1  0
 25 23  1  0
 26 35  2  0
 26 31  1  0
 27 23  1  0
 27 31  1  0
 28 27  1  0
 29 30  1  0
 29 28  1  0
 30 26  1  0
 31 32  2  0
 32 33  1  0
 34 33  2  0
 35 34  1  0
 36 10  1  0
 36 37  1  0
 36 46  1  0
 37 40  1  0
 38 42  1  0
 38 37  1  0
 39 38  2  0
 42 41  1  0
 44 42  1  0
 44 45  1  0
 44 43  1  0
 46 49  1  1
 46 47  1  0
 48 46  1  0
 51 64  1  0
 52 57  1  0
 53 54  1  0
 53 52  1  0
 55 54  1  0
 55 68  1  0
 55 56  1  0
 57 51  1  0
 57 56  1  0
 58 51  2  0
 59 61  1  0
 60 62  1  0
 63 60  1  0
 63 59  1  0
 63 50  1  0
 64 62  1  0
 64 61  1  0
 65 66  2  0
 66 85  1  0
 67 66  1  0
 67 70  1  0
 68 65  1  0
 68 69  1  0
 69 67  2  0
 70 71  1  0
 71 72  2  0
 73 76  1  0
 73 72  1  0
 74 73  2  0
 75 74  1  0
 75 70  2  0
 76 77  1  0
 77 78  1  0
 78 79  2  0
 80 79  1  0
 80 84  1  0
 81 80  2  0
 82 77  2  0
 82 81  1  0
 83 82  1  0
 85 86  1  0
 86 89  1  0
 86 88  1  0
 87 85  2  0
 90 91  1  0
 90 65  1  0
 92 90  1  0
M  ISO  4   8 101   9 101  51 100  64 100
M  END
>  <TORSDO>  (25) 
F 18

>  <SCORE>  (25) 
-14.985

>  <name>  (25) 
24

>  <ligand_id>  (25) 
24

>  <original_smiles>  (25) 
[H]c1nc(C([H])([H])[H])c(C([H])([H])Oc2c([H])c([H])c3c(c2[H])C([H])([H])N(C(=O)C([H])(N([H])C(=O)C([H])(N([H])C([H])([H])[H])C([H])([H])[H])C(C([H])([H])[H])(C([H])([H])[H])C([H])([H])[H])C([H])(C(=O)N([H])C2([H])c4c([H])c([H])c([H])c([H])c4C([H])([H])C([H])([H])C2([H])[H])C3([H])[H])c([H])c1OC1([H])C([H])([H])C([H])([H])N(C(=O)N2C([H])([H])C([H])([H])C([H])([H])C([H])(n3nc(-c4c([H])c([H])c(Oc5c([H])c([H])c(F)c([H])c5F)c([H])c4[H])c(C(=O)N([H])[H])c3N([H])[H])C2([H])[H])C([H])([H])C1([H])[H]

>  <smiles>  (25) 
[H]c1nc(C([H])([H])[H])c(C([H])([H])Oc2c([H])c([H])c3c(c2[H])C([H])([H])N(C(=O)C([H])(N([H])C(=O)C([H])(N([H])C([H])([H])[H])C([H])([H])[H])C(C([H])([H])[H])(C([H])([H])[H])C([H])([H])[H])C([H])(C(=O)N([H])C2([H])c4c([H])c([H])c([H])c([H])c4C([H])([H])C([H])([H])C2([H])[H])C3([H])[H])c([H])c1OC1([H])C([H])([H])C([H])([H])N(C(=O)N2C([H])([H])C([H])([H])C([H])([H])C([H])(n3nc(-c4c([H])c([H])c(Oc5c([H])c([H])c(F)c([H])c5F)c([H])c4[H])c(C(=O)N([H])[H])c3N([H])[H])C2([H])[H])C([H])([H])C1([H])[H]

$$$$
25:0:0
     RDKit          3D

 98107  0  0  1  0  0  0  0  0999 V2000
  -29.5470  -22.0840   18.7860 C   0  0  0  0  0  2  0  0  0  0  0  0
  -31.7920  -22.6870   19.7360 C   0  0  0  0  0  2  0  0  0  0  0  0
  -29.5060  -23.4590   18.0840 C   0  0  0  0  0  2  0  0  0  0  0  0
  -31.7270  -24.0350   18.9940 C   0  0  0  0  0  2  0  0  0  0  0  0
  -31.0030  -21.6110   18.9750 C   0  0  0  0  0  3  0  0  0  0  0  0
  -30.3250  -24.4890   18.7920 N   0  0  1  0  0  4  0  0  0  0  0  0
  -29.9330  -24.6180   19.7150 H   0  0  0  0  0  0  0  0  0  0  0  0
  -31.0330  -18.6360   21.4440 C   0  0  0  0  0  3  0  0  0  0  0  0
  -31.1850  -20.2100   19.5950 C   0  0  0  0  0  0  0  0  0  0  0  0
  -30.7480  -19.9140   20.9110 C   0  0  0  0  0  0  0  0  0  0  0  0
  -31.7680  -17.7210   20.6760 C   0  0  0  0  0  0  0  0  0  0  0  0
  -31.8750  -19.1910   18.8850 C   0  0  0  0  0  0  0  0  0  0  0  0
  -32.4030  -19.3800   17.4730 C   0  0  0  0  0  1  0  0  0  0  0  0
  -32.1600  -17.9880   19.4180 N   0  0  0  0  0  0  0  0  0  0  0  0
  -29.8050  -20.6590   22.9980 C   0  0  0  0  0  1  0  0  0  0  0  0
  -30.0990  -20.8970   21.6290 O   0  0  0  0  0  0  0  0  0  0  0  0
  -32.2110  -16.3870   21.2560 C   0  0  0  0  0  2  0  0  0  0  0  0
  -31.6290  -14.4390   19.8420 C   0  0  0  0  0  0  0  0  0  0  0  0
  -31.0580  -12.2910   18.7740 C   0  0  0  0  0  2  0  0  0  0  0  0
  -30.0540  -12.4670   17.6210 C   0  0  0  0  0  2  0  0  0  0  0  0
  -28.6100  -12.4360   18.1550 C   0  0  0  0  0  2  0  0  0  0  0  0
  -28.4020  -13.3900   19.3590 C   0  0  0  0  0  3  0  0  0  0  0  0
  -29.5080  -13.1940   20.4190 C   0  0  0  0  0  2  0  0  0  0  0  0
  -30.8210  -13.3510   19.7640 N   0  0  0  0  0  0  0  0  0  0  0  0
  -32.5970  -14.6110   19.0970 O   0  0  0  0  0  0  0  0  0  0  0  0
  -31.3670  -15.2700   20.8550 N   0  0  0  0  0  0  0  0  0  0  0  0
  -30.5750  -15.0590   21.4420 H   0  0  0  0  0  0  0  0  0  0  0  0
  -26.1480  -14.2100   20.3000 C   0  0  0  0  0  0  0  0  0  0  0  0
  -25.0320  -13.5350   20.7190 C   0  0  0  0  0  0  0  0  0  0  0  0
  -25.3350  -12.1460   20.5790 C   0  0  0  0  0  0  0  0  0  0  0  0
  -27.0670  -13.2380   19.9350 N   0  0  0  0  0  0  0  0  0  0  0  0
  -26.5840  -11.9880   20.1570 N   0  0  0  0  0  0  0  0  0  0  0  0
  -24.4900  -10.9590   20.7660 C   0  0  0  0  0  0  0  0  0  0  0  0
  -24.8460   -9.9380   21.6750 C   0  0  0  0  0  3  0  0  0  0  0  0
  -24.0100   -8.8140   21.8510 C   0  0  0  0  0  3  0  0  0  0  0  0
  -22.8040   -8.7050   21.1190 C   0  0  0  0  0  0  0  0  0  0  0  0
  -22.4670   -9.7130   20.1980 C   0  0  0  0  0  3  0  0  0  0  0  0
  -23.3020  -10.8280   20.0190 C   0  0  0  0  0  3  0  0  0  0  0  0
  -21.9410   -7.6400   21.2070 O   0  0  0  0  0  0  0  0  0  0  0  0
  -21.7780   -6.9410   22.3760 C   0  0  0  0  0  0  0  0  0  0  0  0
  -21.3390   -7.5660   23.5630 C   0  0  0  0  0  3  0  0  0  0  0  0
  -21.1170   -6.7950   24.7230 C   0  0  0  0  0  3  0  0  0  0  0  0
  -21.3250   -5.4040   24.6950 C   0  0  0  0  0  0  0  0  0  0  0  0
  -21.7570   -4.7800   23.5120 C   0  0  0  0  0  3  0  0  0  0  0  0
  -21.9800   -5.5460   22.3540 C   0  0  0  0  0  0  0  0  0  0  0  0
  -22.3770   -4.9360   21.2110 F   0  0  0  0  0  0  0  0  0  0  0  0
  -21.1040   -4.6630   25.8060 F   0  0  0  0  0  0  0  0  0  0  0  0
  -23.7230  -14.1410   21.1400 C   0  0  0  0  0  0  0  0  0  0  0  0
  -22.9990  -13.4780   22.0380 N   0  0  0  0  0  0  0  0  0  0  0  0
  -23.3560  -15.2320   20.7080 O   0  0  0  0  0  0  0  0  0  0  0  0
  -23.3090  -12.5930   22.4100 H   0  0  0  0  0  0  0  0  0  0  0  0
  -22.1230  -13.8640   22.3570 H   0  0  0  0  0  0  0  0  0  0  0  0
  -26.4510  -15.5630   20.1840 N   0  0  0  0  0  0  0  0  0  0  0  0
  -25.7810  -16.2920   20.4040 H   0  0  0  0  0  0  0  0  0  0  0  0
  -27.3350  -15.9250   19.8460 H   0  0  0  0  0  0  0  0  0  0  0  0
  -30.2770  -25.8260   18.1360 C   0  0  0  0  0  2  0  0  0  0  0  0
  -28.8720  -26.4430   18.1370 C   0  0  0  0  0  2  0  0  0  0  0  0
  -28.5190  -26.8070   19.4730 O   0  0  0  0  0  0  0  0  0  0  0  0
  -24.6600  -31.6340   23.0190 C   0  0  0  0  0  0  0  0  0  0  0  0
  -27.3190  -27.4650   19.5910 C   0  0  0  0  0  0  0  0  0  0  0  0
  -23.4340  -30.2920   21.3400 C   0  0  0  0  0  3  0  0  0  0  0  0
  -24.8790  -28.8700   19.7930 C   0  0  0  0  0  0  0  0  0  0  0  0
  -25.9420  -30.7280   21.0860 C   0  0  0  0  0  2  0  0  0  0  0  0
  -26.0390  -29.3960   20.3740 C   0  0  0  0  0  0  0  0  0  0  0  0
  -27.2590  -28.6910   20.2870 C   0  0  0  0  0  3  0  0  0  0  0  0
  -26.1360  -26.9340   19.0310 C   0  0  0  0  0  3  0  0  0  0  0  0
  -24.9190  -27.6340   19.1280 C   0  0  0  0  0  3  0  0  0  0  0  0
  -23.6150  -29.6900   19.9200 C   0  0  0  0  0  2  0  0  0  0  0  0
  -24.6980  -30.8970   21.8730 N   0  0  0  0  0  0  0  0  0  0  0  0
  -23.5910  -31.8500   23.6060 O   0  0  0  0  0  0  0  0  0  0  0  0
  -22.8410  -29.2050   22.2620 C   0  0  0  0  0  0  0  0  0  0  0  0
  -21.5210  -28.9830   22.1510 N   0  0  0  0  0  0  0  0  0  0  0  0
  -23.5630  -28.5640   23.0310 O   0  0  0  0  0  0  0  0  0  0  0  0
  -20.9980  -29.5550   21.5030 H   0  0  0  0  0  0  0  0  0  0  0  0
  -18.2050  -27.6290   22.6190 C   0  0  0  0  0  0  0  0  0  0  0  0
  -20.7520  -27.9810   22.8880 C   0  0  0  0  0  3  0  0  0  0  0  0
  -20.9090  -26.5800   22.2540 C   0  0  0  0  0  2  0  0  0  0  0  0
  -19.8150  -26.2510   21.2350 C   0  0  0  0  0  2  0  0  0  0  0  0
  -18.4320  -26.3150   21.8910 C   0  0  0  0  0  2  0  0  0  0  0  0
  -19.2940  -28.4180   23.0730 C   0  0  0  0  0  0  0  0  0  0  0  0
  -19.0300  -29.6500   23.7100 C   0  0  0  0  0  3  0  0  0  0  0  0
  -17.7060  -30.0920   23.9020 C   0  0  0  0  0  3  0  0  0  0  0  0
  -16.6310  -29.2980   23.4680 C   0  0  0  0  0  3  0  0  0  0  0  0
  -16.8810  -28.0680   22.8320 C   0  0  0  0  0  3  0  0  0  0  0  0
  -25.9520  -32.2610   23.6320 C   0  0  0  0  0  3  0  0  0  0  0  0
  -25.6260  -33.6320   24.0430 N   0  0  0  0  0  0  0  0  0  0  0  0
  -25.9080  -34.7280   23.3270 C   0  0  0  0  0  0  0  0  0  0  0  0
  -26.5450  -34.6930   22.2700 O   0  0  0  0  0  0  0  0  0  0  0  0
  -25.0550  -33.7320   24.8700 H   0  0  0  0  0  0  0  0  0  0  0  0
  -24.1260  -36.4900   23.1220 C   0  0  0  0  0  1  0  0  0  0  0  0
  -25.4050  -36.0800   23.8690 C   0  0  0  0  0  3  0  0  0  0  0  0
  -27.5400  -36.9830   24.6770 C   0  0  0  0  0  1  0  0  0  0  0  0
  -26.4090  -37.1620   23.7710 N   0  0  0  0  0  0  0  0  0  0  0  0
  -25.9850  -38.0650   23.9630 H   0  0  0  0  0  0  0  0  0  0  0  0
  -26.5290  -31.4350   24.8460 C   0  0  1  0  0  0  0  0  0  0  0  0
  -25.4790  -31.1240   25.9390 C   0  0  0  0  0  1  0  0  0  0  0  0
  -27.1210  -30.0910   24.3610 C   0  0  0  0  0  1  0  0  0  0  0  0
  -27.6890  -32.2150   25.5080 C   0  0  0  0  0  1  0  0  0  0  0  0
  1  5  1  0
  3  1  1  0
  3  6  1  0
  4  2  1  0
  5  9  1  0
  5  2  1  0
  6  4  1  0
  6  7  1  1
  9 10  2  0
 10  8  1  0
 10 16  1  0
 11 17  1  0
 11  8  2  0
 12 14  2  0
 12  9  1  0
 13 12  1  0
 14 11  1  0
 16 15  1  0
 18 26  1  0
 19 24  1  0
 20 21  1  0
 20 19  1  0
 22 21  1  0
 22 31  1  0
 22 23  1  0
 24 18  1  0
 24 23  1  0
 25 18  2  0
 26 17  1  0
 26 27  1  0
 28 29  2  0
 29 48  1  0
 30 29  1  0
 30 33  1  0
 31 32  1  0
 31 28  1  0
 32 30  2  0
 33 34  1  0
 34 35  2  0
 36 39  1  0
 36 35  1  0
 37 36  2  0
 38 37  1  0
 38 33  2  0
 39 40  1  0
 40 41  1  0
 41 42  2  0
 43 42  1  0
 43 47  1  0
 44 43  2  0
 45 40  2  0
 45 44  1  0
 46 45  1  0
 48 49  1  0
 49 52  1  0
 49 51  1  0
 50 48  2  0
 53 28  1  0
 53 54  1  0
 55 53  1  0
 56 57  1  0
 56  6  1  0
 57 58  1  0
 58 60  1  0
 59 70  2  0
 60 65  1  0
 61 69  1  0
 61 71  1  0
 62 68  1  0
 62 64  1  0
 63 69  1  0
 64 63  1  0
 65 64  2  0
 66 67  1  0
 66 60  2  0
 67 62  2  0
 68 61  1  0
 69 59  1  0
 71 73  2  0
 72 71  1  0
 74 72  1  0
 75 84  2  0
 75 80  1  0
 76 72  1  0
 76 80  1  0
 77 76  1  0
 78 79  1  0
 78 77  1  0
 79 75  1  0
 80 81  2  0
 81 82  1  0
 83 82  2  0
 84 83  1  0
 85 59  1  0
 85 86  1  0
 85 95  1  0
 86 89  1  0
 87 91  1  0
 87 86  1  0
 88 87  2  0
 91 90  1  0
 93 91  1  0
 93 94  1  0
 93 92  1  0
 95 98  1  1
 95 96  1  0
 97 95  1  0
M  ISO  4  18 100  26 100  57 101  58 101
M  END
>  <TORSDO>  (26) 
F 21

>  <SCORE>  (26) 
-11.132

>  <name>  (26) 
25

>  <ligand_id>  (26) 
25

>  <original_smiles>  (26) 
[H]c1c([H])c([H])c2c(c1[H])C([H])([H])C([H])([H])C([H])([H])C2([H])N([H])C(=O)C1([H])N(C(=O)C([H])(N([H])C(=O)C([H])(N([H])C([H])([H])[H])C([H])([H])[H])C(C([H])([H])[H])(C([H])([H])[H])C([H])([H])[H])C([H])([H])c2c([H])c(OC([H])([H])C([H])([H])[N+]3([H])C([H])([H])C([H])([H])C([H])(c4c(C([H])([H])[H])nc(C([H])([H])N([H])C(=O)N5C([H])([H])C([H])([H])C([H])([H])C([H])(n6nc(-c7c([H])c([H])c(Oc8c([H])c([H])c(F)c([H])c8F)c([H])c7[H])c(C(=O)N([H])[H])c6N([H])[H])C5([H])[H])c([H])c4OC([H])([H])[H])C([H])([H])C3([H])[H])c([H])c([H])c2C1([H])[H]

>  <smiles>  (26) 
[H]c1c([H])c([H])c2c(c1[H])C([H])([H])C([H])([H])C([H])([H])C2([H])N([H])C(=O)C1([H])N(C(=O)C([H])(N([H])C(=O)C([H])(N([H])C([H])([H])[H])C([H])([H])[H])C(C([H])([H])[H])(C([H])([H])[H])C([H])([H])[H])C([H])([H])c2c([H])c(OC([H])([H])C([H])([H])[N+]3([H])C([H])([H])C([H])([H])C([H])(c4c(C([H])([H])[H])nc(C([H])([H])N([H])C(=O)N5C([H])([H])C([H])([H])C([H])([H])C([H])(n6nc(-c7c([H])c([H])c(Oc8c([H])c([H])c(F)c([H])c8F)c([H])c7[H])c(C(=O)N([H])[H])c6N([H])[H])C5([H])[H])c([H])c4OC([H])([H])[H])C([H])([H])C3([H])[H])c([H])c([H])c2C1([H])[H]

$$$$
26:0:0
     RDKit          3D

100109  0  0  1  0  0  0  0  0999 V2000
  -30.5390  -20.5950   19.2550 C   0  0  0  0  0  2  0  0  0  0  0  0
  -30.6360  -23.1800   19.3160 C   0  0  0  0  0  2  0  0  0  0  0  0
  -29.5970  -24.0470   20.0870 C   0  0  0  0  0  3  0  0  0  0  0  0
  -28.9560  -22.6290   20.2870 C   0  0  0  0  0  3  0  0  0  0  0  0
  -30.2550  -21.9200   20.0410 N   0  0  1  0  0  4  0  0  0  0  0  0
  -30.7500  -21.8830   20.9200 H   0  0  0  0  0  0  0  0  0  0  0  0
  -29.2190  -22.2940   22.8300 C   0  0  0  0  0  1  0  0  0  0  0  0
  -27.0640  -23.1760   21.8730 C   0  0  0  0  0  1  0  0  0  0  0  0
  -28.2740  -22.2630   21.6180 C   0  0  0  0  0  3  0  0  0  0  0  0
  -28.7220  -25.2360   19.4280 C   0  0  0  0  0  2  0  0  0  0  0  0
  -28.7690  -26.6760   19.8520 O   0  0  0  0  0  0  0  0  0  0  0  0
  -24.5200  -31.6510   23.0040 C   0  0  0  0  0  0  0  0  0  0  0  0
  -27.5880  -27.4590   19.7960 C   0  0  0  0  0  0  0  0  0  0  0  0
  -23.4850  -30.2610   21.2500 C   0  0  0  0  0  3  0  0  0  0  0  0
  -25.0990  -28.9060   19.7950 C   0  0  0  0  0  0  0  0  0  0  0  0
  -26.0020  -30.7630   21.1900 C   0  0  0  0  0  2  0  0  0  0  0  0
  -26.2070  -29.4360   20.4670 C   0  0  0  0  0  0  0  0  0  0  0  0
  -27.4500  -28.7240   20.4590 C   0  0  0  0  0  3  0  0  0  0  0  0
  -26.4470  -27.0020   19.0870 C   0  0  0  0  0  3  0  0  0  0  0  0
  -25.2230  -27.6940   19.1000 C   0  0  0  0  0  3  0  0  0  0  0  0
  -23.7980  -29.6800   19.8460 C   0  0  0  0  0  2  0  0  0  0  0  0
  -24.6830  -30.9080   21.8700 N   0  0  0  0  0  0  0  0  0  0  0  0
  -23.3980  -31.8170   23.5070 O   0  0  0  0  0  0  0  0  0  0  0  0
  -22.8690  -29.1440   22.1290 C   0  0  0  0  0  0  0  0  0  0  0  0
  -21.5420  -28.9450   22.0130 N   0  0  0  0  0  0  0  0  0  0  0  0
  -23.5800  -28.4700   22.8760 O   0  0  0  0  0  0  0  0  0  0  0  0
  -21.0220  -29.5510   21.3960 H   0  0  0  0  0  0  0  0  0  0  0  0
  -18.2040  -27.6480   22.5130 C   0  0  0  0  0  0  0  0  0  0  0  0
  -20.7680  -27.9140   22.7040 C   0  0  0  0  0  3  0  0  0  0  0  0
  -20.8620  -26.5560   21.9690 C   0  0  0  0  0  2  0  0  0  0  0  0
  -19.7210  -26.3350   20.9730 C   0  0  0  0  0  2  0  0  0  0  0  0
  -18.3670  -26.3820   21.6900 C   0  0  0  0  0  2  0  0  0  0  0  0
  -19.3310  -28.3720   22.9820 C   0  0  0  0  0  0  0  0  0  0  0  0
  -19.1270  -29.5510   23.7310 C   0  0  0  0  0  3  0  0  0  0  0  0
  -17.8260  -30.0090   24.0030 C   0  0  0  0  0  3  0  0  0  0  0  0
  -16.7120  -29.2860   23.5420 C   0  0  0  0  0  3  0  0  0  0  0  0
  -16.9010  -28.1040   22.8000 C   0  0  0  0  0  3  0  0  0  0  0  0
  -25.7240  -32.3420   23.7080 C   0  0  0  0  0  3  0  0  0  0  0  0
  -25.3220  -33.7210   24.0290 N   0  0  0  0  0  0  0  0  0  0  0  0
  -25.6680  -34.7990   23.3170 C   0  0  0  0  0  0  0  0  0  0  0  0
  -26.4190  -34.7460   22.3400 O   0  0  0  0  0  0  0  0  0  0  0  0
  -24.6610  -33.8330   24.7850 H   0  0  0  0  0  0  0  0  0  0  0  0
  -23.8850  -36.5160   22.8510 C   0  0  0  0  0  1  0  0  0  0  0  0
  -25.0780  -36.1580   23.7530 C   0  0  0  0  0  3  0  0  0  0  0  0
  -27.0940  -37.1320   24.7590 C   0  0  0  0  0  1  0  0  0  0  0  0
  -26.0630  -37.2600   23.7320 N   0  0  0  0  0  0  0  0  0  0  0  0
  -25.6040  -38.1590   23.8530 H   0  0  0  0  0  0  0  0  0  0  0  0
  -26.1980  -31.5890   25.0120 C   0  0  1  0  0  0  0  0  0  0  0  0
  -25.0560  -31.2980   26.0140 C   0  0  0  0  0  1  0  0  0  0  0  0
  -26.8640  -30.2400   24.6540 C   0  0  0  0  0  1  0  0  0  0  0  0
  -27.2730  -32.4290   25.7420 C   0  0  0  0  0  1  0  0  0  0  0  0
  -29.7210  -19.1570   19.2310 C   0  0  0  0  0  3  0  0  0  0  0  0
  -26.1340  -19.9760   19.2780 C   0  0  0  0  0  3  0  0  0  0  0  0
  -26.8800  -20.5810   17.0570 C   0  0  0  0  0  3  0  0  0  0  0  0
  -25.9880  -20.7900   18.1300 C   0  0  0  0  0  0  0  0  0  0  0  0
  -27.1200  -18.9650   19.2270 C   0  0  0  0  0  3  0  0  0  0  0  0
  -28.0440  -19.7940   17.2540 C   0  0  0  0  0  0  0  0  0  0  0  0
  -28.3130  -19.3230   18.5790 C   0  0  0  0  0  3  0  0  0  0  0  0
  -24.8510  -21.7870   18.0020 C   0  0  0  0  0  1  0  0  0  0  0  0
  -26.5350  -17.7220   18.5380 C   0  0  0  0  0  1  0  0  0  0  0  0
  -28.8100  -19.3860   15.9970 C   0  0  0  0  0  1  0  0  0  0  0  0
  -30.0070  -18.0470   20.4620 C   0  0  0  0  0  2  0  0  0  0  0  0
  -30.7080  -15.4100   20.5950 C   0  0  0  0  0  0  0  0  0  0  0  0
  -30.8140  -13.0150   19.8860 C   0  0  0  0  0  2  0  0  0  0  0  0
  -29.9700  -12.8570   18.6010 C   0  0  0  0  0  2  0  0  0  0  0  0
  -28.4820  -12.6290   18.9390 C   0  0  0  0  0  2  0  0  0  0  0  0
  -27.9410  -13.6030   20.0190 C   0  0  0  0  0  3  0  0  0  0  0  0
  -28.9030  -13.7240   21.2140 C   0  0  0  0  0  2  0  0  0  0  0  0
  -30.2110  -14.1240   20.6650 N   0  0  0  0  0  0  0  0  0  0  0  0
  -31.9290  -15.5550   20.4600 O   0  0  0  0  0  0  0  0  0  0  0  0
  -29.8120  -16.4920   20.4560 N   0  0  0  0  0  0  0  0  0  0  0  0
  -28.8440  -16.2170   20.4620 H   0  0  0  0  0  0  0  0  0  0  0  0
  -25.5510  -14.1230   20.7760 C   0  0  0  0  0  0  0  0  0  0  0  0
  -24.4430  -13.3580   20.9560 C   0  0  0  0  0  0  0  0  0  0  0  0
  -24.8880  -12.0140   20.7800 C   0  0  0  0  0  0  0  0  0  0  0  0
  -26.5810  -13.2720   20.4320 N   0  0  0  0  0  0  0  0  0  0  0  0
  -26.1900  -11.9780   20.5060 N   0  0  0  0  0  0  0  0  0  0  0  0
  -24.1260  -10.7690   20.8080 C   0  0  0  0  0  0  0  0  0  0  0  0
  -24.5470   -9.6700   21.5870 C   0  0  0  0  0  3  0  0  0  0  0  0
  -23.7850   -8.4840   21.6110 C   0  0  0  0  0  3  0  0  0  0  0  0
  -22.5910   -8.3940   20.8600 C   0  0  0  0  0  0  0  0  0  0  0  0
  -22.1830   -9.4870   20.0750 C   0  0  0  0  0  3  0  0  0  0  0  0
  -22.9450  -10.6660   20.0480 C   0  0  0  0  0  3  0  0  0  0  0  0
  -21.8020   -7.2710   20.8020 O   0  0  0  0  0  0  0  0  0  0  0  0
  -21.8150   -6.3340   21.8010 C   0  0  0  0  0  0  0  0  0  0  0  0
  -21.5120   -6.6690   23.1410 C   0  0  0  0  0  3  0  0  0  0  0  0
  -21.4740   -5.6620   24.1230 C   0  0  0  0  0  3  0  0  0  0  0  0
  -21.7230   -4.3220   23.7710 C   0  0  0  0  0  0  0  0  0  0  0  0
  -22.0230   -3.9880   22.4380 C   0  0  0  0  0  3  0  0  0  0  0  0
  -22.0660   -4.9910   21.4550 C   0  0  0  0  0  0  0  0  0  0  0  0
  -22.3360   -4.6640   20.1680 F   0  0  0  0  0  0  0  0  0  0  0  0
  -21.6740   -3.3520   24.7120 F   0  0  0  0  0  0  0  0  0  0  0  0
  -23.0500  -13.8550   21.2140 C   0  0  0  0  0  0  0  0  0  0  0  0
  -22.2710  -13.1240   21.9990 N   0  0  0  0  0  0  0  0  0  0  0  0
  -22.6520  -14.9300   20.7540 O   0  0  0  0  0  0  0  0  0  0  0  0
  -22.5930  -12.2520   22.3880 H   0  0  0  0  0  0  0  0  0  0  0  0
  -21.3340  -13.4390   22.2110 H   0  0  0  0  0  0  0  0  0  0  0  0
  -25.7600  -15.4700   20.8910 N   0  0  0  0  0  0  0  0  0  0  0  0
  -25.0120  -16.0930   21.1680 H   0  0  0  0  0  0  0  0  0  0  0  0
  -26.6260  -15.9580   20.7280 H   0  0  0  0  0  0  0  0  0  0  0  0
  1  5  1  0
  2  5  1  0
  2  3  1  0
  3 10  1  0
  3  4  1  0
  4  9  1  0
  5  4  1  0
  5  6  1  1
  9  8  1  0
  9  7  1  0
 10 11  1  0
 12 23  2  0
 13 11  1  0
 13 18  1  0
 14 22  1  0
 14 24  1  0
 15 21  1  0
 15 17  1  0
 16 22  1  0
 17 16  1  0
 18 17  2  0
 19 20  1  0
 19 13  2  0
 20 15  2  0
 21 14  1  0
 22 12  1  0
 24 26  2  0
 25 24  1  0
 27 25  1  0
 28 37  2  0
 28 33  1  0
 29 25  1  0
 29 33  1  0
 30 29  1  0
 31 32  1  0
 31 30  1  0
 32 28  1  0
 33 34  2  0
 34 35  1  0
 36 35  2  0
 37 36  1  0
 38 12  1  0
 38 39  1  0
 38 48  1  0
 39 42  1  0
 40 44  1  0
 40 39  1  0
 41 40  2  0
 44 43  1  0
 46 44  1  0
 46 47  1  0
 46 45  1  0
 48 51  1  1
 48 49  1  0
 50 48  1  0
 52  1  1  0
 52 62  1  0
 54 57  2  0
 54 55  1  0
 55 53  2  0
 56 60  1  0
 56 53  1  0
 57 58  1  0
 58 56  1  0
 58 52  1  0
 59 55  1  0
 61 57  1  0
 63 69  1  0
 64 69  1  0
 65 66  1  0
 65 64  1  0
 67 66  1  0
 67 76  1  0
 67 68  1  0
 69 68  1  0
 70 63  2  0
 71 62  1  0
 71 72  1  0
 71 63  1  0
 73 98  1  0
 73 74  2  0
 74 93  1  0
 75 78  1  0
 75 74  1  0
 76 77  1  0
 76 73  1  0
 77 75  2  0
 78 79  1  0
 79 80  2  0
 81 80  1  0
 82 81  2  0
 83 82  1  0
 83 78  2  0
 84 81  1  0
 84 85  1  0
 85 86  1  0
 86 87  2  0
 88 87  1  0
 88 92  1  0
 89 88  2  0
 90 85  2  0
 90 89  1  0
 91 90  1  0
 93 94  1  0
 94 97  1  0
 94 96  1  0
 95 93  2  0
 98 99  1  0
100 98  1  0
M  ISO  4  10 101  11 101  63 100  71 100
M  END
>  <TORSDO>  (27) 
F 22

>  <SCORE>  (27) 
-10.899

>  <name>  (27) 
26

>  <ligand_id>  (27) 
26

>  <original_smiles>  (27) 
[H]c1c([H])c([H])c2c(c1[H])C([H])([H])C([H])([H])C([H])([H])C2([H])N([H])C(=O)C1([H])N(C(=O)C([H])(N([H])C(=O)C([H])(N([H])C([H])([H])[H])C([H])([H])[H])C(C([H])([H])[H])(C([H])([H])[H])C([H])([H])[H])C([H])([H])c2c([H])c(OC([H])([H])C3([H])C([H])([H])[N+]([H])(C([H])([H])C([H])(c4c(C([H])([H])[H])c([H])c(C([H])([H])[H])c([H])c4C([H])([H])[H])C([H])([H])N([H])C(=O)N4C([H])([H])C([H])([H])C([H])([H])C([H])(n5nc(-c6c([H])c([H])c(Oc7c([H])c([H])c(F)c([H])c7F)c([H])c6[H])c(C(=O)N([H])[H])c5N([H])[H])C4([H])[H])C3([H])C([H])(C([H])([H])[H])C([H])([H])[H])c([H])c([H])c2C1([H])[H]

>  <smiles>  (27) 
[H]c1c([H])c([H])c2c(c1[H])C([H])([H])C([H])([H])C([H])([H])C2([H])N([H])C(=O)C1([H])N(C(=O)C([H])(N([H])C(=O)C([H])(N([H])C([H])([H])[H])C([H])([H])[H])C(C([H])([H])[H])(C([H])([H])[H])C([H])([H])[H])C([H])([H])c2c([H])c(OC([H])([H])C3([H])C([H])([H])[N+]([H])(C([H])([H])C([H])(c4c(C([H])([H])[H])c([H])c(C([H])([H])[H])c([H])c4C([H])([H])[H])C([H])([H])N([H])C(=O)N4C([H])([H])C([H])([H])C([H])([H])C([H])(n5nc(-c6c([H])c([H])c(Oc7c([H])c([H])c(F)c([H])c7F)c([H])c6[H])c(C(=O)N([H])[H])c5N([H])[H])C4([H])[H])C3([H])C([H])(C([H])([H])[H])C([H])([H])[H])c([H])c([H])c2C1([H])[H]

$$$$
27:0:0
     RDKit          3D

 96104  0  0  1  0  0  0  0  0999 V2000
  -28.1190  -23.7610   20.7500 C   0  0  0  0  0  3  0  0  0  0  0  0
  -29.9960  -23.0270   19.4080 C   0  0  0  0  0  3  0  0  0  0  0  0
  -29.2060  -24.1270   19.9470 C   0  0  0  0  0  0  0  0  0  0  0  0
  -27.8090  -22.4060   21.0040 C   0  0  0  0  0  0  0  0  0  0  0  0
  -28.5760  -21.3320   20.4460 C   0  0  0  0  0  0  0  0  0  0  0  0
  -29.7180  -21.6120   19.6270 C   0  0  0  0  0  0  0  0  0  0  0  0
  -26.6200  -22.1410   21.9170 C   0  0  0  0  0  1  0  0  0  0  0  0
  -30.6040  -20.5610   19.1330 N   0  0  0  0  0  0  0  0  0  0  0  0
  -31.4420  -20.9140   18.6750 H   0  0  0  0  0  0  0  0  0  0  0  0
  -30.3380  -19.0960   18.7990 C   0  0  0  0  0  2  0  0  0  0  0  0
  -31.4220  -17.9820   19.2570 C   0  0  0  0  0  2  0  0  0  0  0  0
  -31.7260  -15.4080   19.6840 C   0  0  0  0  0  0  0  0  0  0  0  0
  -31.5080  -12.9870   19.1250 C   0  0  0  0  0  2  0  0  0  0  0  0
  -30.5800  -12.8390   17.9010 C   0  0  0  0  0  2  0  0  0  0  0  0
  -29.1050  -12.7600   18.3420 C   0  0  0  0  0  2  0  0  0  0  0  0
  -28.7290  -13.8620   19.3700 C   0  0  0  0  0  3  0  0  0  0  0  0
  -29.7780  -13.9860   20.4960 C   0  0  0  0  0  2  0  0  0  0  0  0
  -31.0830  -14.2040   19.8550 N   0  0  0  0  0  0  0  0  0  0  0  0
  -32.9220  -15.4320   19.3850 O   0  0  0  0  0  0  0  0  0  0  0  0
  -30.9700  -16.5670   19.6240 N   0  0  0  0  0  0  0  0  0  0  0  0
  -29.9910  -16.4520   19.8370 H   0  0  0  0  0  0  0  0  0  0  0  0
  -26.4330  -14.6420   20.2090 C   0  0  0  0  0  0  0  0  0  0  0  0
  -25.3070  -13.9530   20.5690 C   0  0  0  0  0  0  0  0  0  0  0  0
  -25.6350  -12.5680   20.4520 C   0  0  0  0  0  0  0  0  0  0  0  0
  -27.3790  -13.6800   19.8940 N   0  0  0  0  0  0  0  0  0  0  0  0
  -26.9070  -12.4230   20.1020 N   0  0  0  0  0  0  0  0  0  0  0  0
  -24.7950  -11.3720   20.5960 C   0  0  0  0  0  0  0  0  0  0  0  0
  -25.1510  -10.3200   21.4680 C   0  0  0  0  0  3  0  0  0  0  0  0
  -24.3170   -9.1880   21.6050 C   0  0  0  0  0  3  0  0  0  0  0  0
  -23.1110   -9.1030   20.8680 C   0  0  0  0  0  0  0  0  0  0  0  0
  -22.7740  -10.1430   19.9840 C   0  0  0  0  0  3  0  0  0  0  0  0
  -23.6070  -11.2650   19.8460 C   0  0  0  0  0  3  0  0  0  0  0  0
  -22.2520   -8.0320   20.9160 O   0  0  0  0  0  0  0  0  0  0  0  0
  -22.1020   -7.2800   22.0540 C   0  0  0  0  0  0  0  0  0  0  0  0
  -21.7270   -7.8580   23.2870 C   0  0  0  0  0  3  0  0  0  0  0  0
  -21.5160   -7.0380   24.4130 C   0  0  0  0  0  3  0  0  0  0  0  0
  -21.6720   -5.6430   24.3090 C   0  0  0  0  0  0  0  0  0  0  0  0
  -22.0400   -5.0660   23.0810 C   0  0  0  0  0  3  0  0  0  0  0  0
  -22.2530   -5.8810   21.9570 C   0  0  0  0  0  0  0  0  0  0  0  0
  -22.5870   -5.3180   20.7710 F   0  0  0  0  0  0  0  0  0  0  0  0
  -21.4640   -4.8550   25.3890 F   0  0  0  0  0  0  0  0  0  0  0  0
  -23.9690  -14.5460   20.9070 C   0  0  0  0  0  0  0  0  0  0  0  0
  -23.2090  -13.8900   21.7770 N   0  0  0  0  0  0  0  0  0  0  0  0
  -23.6120  -15.6240   20.4360 O   0  0  0  0  0  0  0  0  0  0  0  0
  -23.5110  -13.0150   22.1810 H   0  0  0  0  0  0  0  0  0  0  0  0
  -22.3120  -14.2690   22.0440 H   0  0  0  0  0  0  0  0  0  0  0  0
  -26.7210  -15.9990   20.0990 N   0  0  0  0  0  0  0  0  0  0  0  0
  -25.9890  -16.6930   20.2070 H   0  0  0  0  0  0  0  0  0  0  0  0
  -27.5580  -16.3750   19.6750 H   0  0  0  0  0  0  0  0  0  0  0  0
  -28.1690  -19.8960   20.8020 C   0  0  0  0  0  2  0  0  0  0  0  0
  -27.6170  -17.7330   19.7070 C   0  0  0  0  0  1  0  0  0  0  0  0
  -27.5440  -19.2070   19.6510 N   0  0  0  0  0  4  0  0  0  0  0  0
  -26.5760  -19.4750   19.6080 H   0  0  0  0  0  0  0  0  0  0  0  0
  -27.9800  -19.5290   18.8030 H   0  0  0  0  0  0  0  0  0  0  0  0
  -29.4480  -25.6730   19.6360 C   0  0  0  0  0  2  0  0  0  0  0  0
  -29.0390  -26.7710   20.5820 O   0  0  0  0  0  0  0  0  0  0  0  0
  -25.0420  -32.0960   23.4440 C   0  0  0  0  0  0  0  0  0  0  0  0
  -27.8770  -27.5730   20.4670 C   0  0  0  0  0  0  0  0  0  0  0  0
  -23.9200  -30.6420   21.7890 C   0  0  0  0  0  3  0  0  0  0  0  0
  -25.4580  -29.1310   20.3970 C   0  0  0  0  0  0  0  0  0  0  0  0
  -26.4540  -31.0390   21.6610 C   0  0  0  0  0  2  0  0  0  0  0  0
  -26.5960  -29.6590   21.0170 C   0  0  0  0  0  0  0  0  0  0  0  0
  -27.8020  -28.8890   21.0420 C   0  0  0  0  0  3  0  0  0  0  0  0
  -26.7070  -27.1030   19.8300 C   0  0  0  0  0  3  0  0  0  0  0  0
  -25.5210  -27.8650   19.7930 C   0  0  0  0  0  3  0  0  0  0  0  0
  -24.1830  -29.9510   20.4240 C   0  0  0  0  0  2  0  0  0  0  0  0
  -25.1560  -31.2800   22.3540 N   0  0  0  0  0  0  0  0  0  0  0  0
  -23.9380  -32.3460   23.9490 O   0  0  0  0  0  0  0  0  0  0  0  0
  -23.2690  -29.6190   22.7510 C   0  0  0  0  0  0  0  0  0  0  0  0
  -21.9570  -29.3850   22.5870 N   0  0  0  0  0  0  0  0  0  0  0  0
  -23.9480  -29.0330   23.5960 O   0  0  0  0  0  0  0  0  0  0  0  0
  -21.4690  -29.9170   21.8810 H   0  0  0  0  0  0  0  0  0  0  0  0
  -18.6140  -28.0640   23.0070 C   0  0  0  0  0  0  0  0  0  0  0  0
  -21.1530  -28.4220   23.3410 C   0  0  0  0  0  3  0  0  0  0  0  0
  -21.3250  -26.9930   22.7760 C   0  0  0  0  0  2  0  0  0  0  0  0
  -20.2610  -26.6210   21.7380 C   0  0  0  0  0  2  0  0  0  0  0  0
  -18.8590  -26.7190   22.3450 C   0  0  0  0  0  2  0  0  0  0  0  0
  -19.6910  -28.8720   23.4570 C   0  0  0  0  0  0  0  0  0  0  0  0
  -19.4070  -30.1310   24.0310 C   0  0  0  0  0  3  0  0  0  0  0  0
  -18.0790  -30.5810   24.1590 C   0  0  0  0  0  3  0  0  0  0  0  0
  -17.0160  -29.7680   23.7280 C   0  0  0  0  0  3  0  0  0  0  0  0
  -17.2850  -28.5120   23.1550 C   0  0  0  0  0  3  0  0  0  0  0  0
  -26.2880  -32.7750   24.0920 C   0  0  0  0  0  3  0  0  0  0  0  0
  -25.9430  -34.1800   24.3550 N   0  0  0  0  0  0  0  0  0  0  0  0
  -26.2490  -35.2060   23.5500 C   0  0  0  0  0  0  0  0  0  0  0  0
  -26.9180  -35.0710   22.5220 O   0  0  0  0  0  0  0  0  0  0  0  0
  -25.3520  -34.3570   25.1530 H   0  0  0  0  0  0  0  0  0  0  0  0
  -24.4550  -36.9240   23.1520 C   0  0  0  0  0  1  0  0  0  0  0  0
  -25.7290  -36.6010   23.9490 C   0  0  0  0  0  3  0  0  0  0  0  0
  -27.8570  -37.5920   24.6690 C   0  0  0  0  0  1  0  0  0  0  0  0
  -26.7230  -37.6790   23.7540 N   0  0  0  0  0  0  0  0  0  0  0  0
  -26.2920  -38.5920   23.8650 H   0  0  0  0  0  0  0  0  0  0  0  0
  -26.7630  -32.0690   25.4230 C   0  0  1  0  0  0  0  0  0  0  0  0
  -25.6170  -31.8070   26.4260 C   0  0  0  0  0  1  0  0  0  0  0  0
  -27.4380  -30.7140   25.1110 C   0  0  0  0  0  1  0  0  0  0  0  0
  -27.8290  -32.9430   26.1270 C   0  0  0  0  0  1  0  0  0  0  0  0
  1  4  1  0
  2  6  2  0
  2  3  1  0
  3  1  2  0
  4  7  1  0
  5 50  1  0
  5  4  2  0
  6  5  1  0
  8  6  1  0
  9  8  1  0
 10  8  1  0
 10 11  1  0
 11 20  1  0
 12 18  1  0
 13 18  1  0
 14 15  1  0
 14 13  1  0
 16 15  1  0
 16 25  1  0
 16 17  1  0
 18 17  1  0
 19 12  2  0
 20 12  1  0
 20 21  1  0
 22 23  2  0
 23 42  1  0
 24 23  1  0
 24 27  1  0
 25 26  1  0
 25 22  1  0
 26 24  2  0
 27 28  1  0
 28 29  2  0
 30 33  1  0
 30 29  1  0
 31 30  2  0
 32 31  1  0
 32 27  2  0
 33 34  1  0
 34 35  1  0
 35 36  2  0
 37 36  1  0
 37 41  1  0
 38 37  2  0
 39 34  2  0
 39 38  1  0
 40 39  1  0
 42 43  1  0
 43 46  1  0
 43 45  1  0
 44 42  2  0
 47 48  1  0
 47 22  1  0
 49 47  1  0
 52 51  1  0
 52 50  1  0
 53 52  1  0
 54 52  1  0
 55  3  1  0
 55 56  1  0
 57 68  2  0
 58 56  1  0
 58 63  1  0
 59 67  1  0
 59 69  1  0
 60 66  1  0
 60 62  1  0
 61 67  1  0
 62 63  2  0
 62 61  1  0
 64 58  2  0
 65 64  1  0
 65 60  2  0
 66 59  1  0
 67 57  1  0
 69 71  2  0
 70 69  1  0
 72 70  1  0
 73 82  2  0
 73 78  1  0
 74 70  1  0
 74 78  1  0
 75 74  1  0
 76 77  1  0
 76 75  1  0
 77 73  1  0
 78 79  2  0
 79 80  1  0
 81 80  2  0
 82 81  1  0
 83 57  1  0
 83 84  1  0
 83 93  1  0
 84 87  1  0
 85 89  1  0
 85 84  1  0
 86 85  2  0
 89 88  1  0
 91 92  1  0
 91 89  1  0
 91 90  1  0
 93 96  1  1
 93 94  1  0
 95 93  1  0
M  ISO  4  12 100  20 100  55 101  56 101
M  END
>  <TORSDO>  (28) 
F 22

>  <SCORE>  (28) 
-9.774

>  <name>  (28) 
27

>  <ligand_id>  (28) 
27

>  <original_smiles>  (28) 
[H]c1c([H])c([H])c2c(c1[H])C([H])([H])C([H])([H])C([H])([H])C2([H])N([H])C(=O)C1([H])N(C(=O)C([H])(N([H])C(=O)C([H])(N([H])C([H])([H])[H])C([H])([H])[H])C(C([H])([H])[H])(C([H])([H])[H])C([H])([H])[H])C([H])([H])c2c([H])c(OC([H])([H])c3c([H])c(N([H])C([H])([H])C([H])([H])N([H])C(=O)N4C([H])([H])C([H])([H])C([H])([H])C([H])(n5nc(-c6c([H])c([H])c(Oc7c([H])c([H])c(F)c([H])c7F)c([H])c6[H])c(C(=O)N([H])[H])c5N([H])[H])C4([H])[H])c(C([H])([H])[N+]([H])([H])C([H])([H])[H])c(C([H])([H])[H])c3[H])c([H])c([H])c2C1([H])[H]

>  <smiles>  (28) 
[H]c1c([H])c([H])c2c(c1[H])C([H])([H])C([H])([H])C([H])([H])C2([H])N([H])C(=O)C1([H])N(C(=O)C([H])(N([H])C(=O)C([H])(N([H])C([H])([H])[H])C([H])([H])[H])C(C([H])([H])[H])(C([H])([H])[H])C([H])([H])[H])C([H])([H])c2c([H])c(OC([H])([H])c3c([H])c(N([H])C([H])([H])C([H])([H])N([H])C(=O)N4C([H])([H])C([H])([H])C([H])([H])C([H])(n5nc(-c6c([H])c([H])c(Oc7c([H])c([H])c(F)c([H])c7F)c([H])c6[H])c(C(=O)N([H])[H])c5N([H])[H])C4([H])[H])c(C([H])([H])[N+]([H])([H])C([H])([H])[H])c(C([H])([H])[H])c3[H])c([H])c([H])c2C1([H])[H]

$$$$
28:0:0
     RDKit          3D

 95104  0  0  1  0  0  0  0  0999 V2000
  -28.9540  -21.8140   19.4110 C   0  0  0  0  0  3  0  0  0  0  0  0
  -31.0850  -20.2060   20.2660 C   0  0  0  0  0  3  0  0  0  0  0  0
  -30.2230  -22.4030   19.5930 C   0  0  0  0  0  0  0  0  0  0  0  0
  -31.3030  -21.5750   19.9990 C   0  0  0  0  0  0  0  0  0  0  0  0
  -28.7420  -20.4440   19.6760 C   0  0  0  0  0  0  0  0  0  0  0  0
  -29.7980  -19.6300   20.1440 C   0  0  0  0  0  0  0  0  0  0  0  0
  -32.7200  -22.1190   20.1320 C   0  0  0  0  0  2  0  0  0  0  0  0
  -32.7920  -23.6480   20.1940 C   0  0  0  0  0  2  0  0  0  0  0  0
  -31.8810  -24.2830   19.1380 C   0  0  0  0  0  2  0  0  0  0  0  0
  -30.4030  -23.9140   19.3660 C   0  0  0  0  0  3  0  0  0  0  0  0
  -27.3570  -19.8540   19.4750 C   0  0  0  0  0  1  0  0  0  0  0  0
  -29.8030  -24.7440   20.5310 C   0  0  0  0  0  2  0  0  0  0  0  0
  -28.4050  -25.3380   20.2710 C   0  0  0  0  0  2  0  0  0  0  0  0
  -28.5100  -26.7030   19.8540 O   0  0  0  0  0  0  0  0  0  0  0  0
  -24.6470  -31.6730   23.1390 C   0  0  0  0  0  0  0  0  0  0  0  0
  -27.3260  -27.4050   19.8720 C   0  0  0  0  0  0  0  0  0  0  0  0
  -23.4400  -30.3050   21.4670 C   0  0  0  0  0  3  0  0  0  0  0  0
  -24.9000  -28.8490   19.9660 C   0  0  0  0  0  0  0  0  0  0  0  0
  -25.9530  -30.7270   21.2390 C   0  0  0  0  0  2  0  0  0  0  0  0
  -26.0570  -29.3830   20.5500 C   0  0  0  0  0  0  0  0  0  0  0  0
  -27.2760  -28.6720   20.4930 C   0  0  0  0  0  3  0  0  0  0  0  0
  -26.1530  -26.8810   19.2840 C   0  0  0  0  0  3  0  0  0  0  0  0
  -24.9440  -27.5980   19.3260 C   0  0  0  0  0  3  0  0  0  0  0  0
  -23.6380  -29.6770   20.0620 C   0  0  0  0  0  2  0  0  0  0  0  0
  -24.6990  -30.9140   22.0080 N   0  0  0  0  0  0  0  0  0  0  0  0
  -23.5710  -31.9060   23.7060 O   0  0  0  0  0  0  0  0  0  0  0  0
  -22.8250  -29.2380   22.4010 C   0  0  0  0  0  0  0  0  0  0  0  0
  -21.5080  -29.0140   22.2670 N   0  0  0  0  0  0  0  0  0  0  0  0
  -23.5290  -28.6180   23.2030 O   0  0  0  0  0  0  0  0  0  0  0  0
  -21.0010  -29.5670   21.5900 H   0  0  0  0  0  0  0  0  0  0  0  0
  -18.1800  -27.6780   22.7020 C   0  0  0  0  0  0  0  0  0  0  0  0
  -20.7220  -28.0320   23.0130 C   0  0  0  0  0  3  0  0  0  0  0  0
  -20.8880  -26.6140   22.4180 C   0  0  0  0  0  2  0  0  0  0  0  0
  -19.8160  -26.2670   21.3810 C   0  0  0  0  0  2  0  0  0  0  0  0
  -18.4180  -26.3500   22.0020 C   0  0  0  0  0  2  0  0  0  0  0  0
  -19.2640  -28.4750   23.1610 C   0  0  0  0  0  0  0  0  0  0  0  0
  -18.9880  -29.7190   23.7700 C   0  0  0  0  0  3  0  0  0  0  0  0
  -17.6630  -30.1660   23.9280 C   0  0  0  0  0  3  0  0  0  0  0  0
  -16.5950  -29.3660   23.4890 C   0  0  0  0  0  3  0  0  0  0  0  0
  -16.8540  -28.1240   22.8800 C   0  0  0  0  0  3  0  0  0  0  0  0
  -25.9340  -32.3040   23.7580 C   0  0  0  0  0  3  0  0  0  0  0  0
  -25.6130  -33.6890   24.1300 N   0  0  0  0  0  0  0  0  0  0  0  0
  -25.9220  -34.7650   23.3930 C   0  0  0  0  0  0  0  0  0  0  0  0
  -26.5830  -34.6980   22.3530 O   0  0  0  0  0  0  0  0  0  0  0  0
  -25.0320  -33.8170   24.9450 H   0  0  0  0  0  0  0  0  0  0  0  0
  -24.1680  -36.5400   23.0920 C   0  0  0  0  0  1  0  0  0  0  0  0
  -25.4170  -36.1320   23.8900 C   0  0  0  0  0  3  0  0  0  0  0  0
  -27.5400  -37.0230   24.7420 C   0  0  0  0  0  1  0  0  0  0  0  0
  -26.4340  -37.2030   23.8040 N   0  0  0  0  0  0  0  0  0  0  0  0
  -26.0130  -38.1110   23.9800 H   0  0  0  0  0  0  0  0  0  0  0  0
  -26.4790  -31.5050   25.0040 C   0  0  1  0  0  0  0  0  0  0  0  0
  -25.4070  -31.2390   26.0850 C   0  0  0  0  0  1  0  0  0  0  0  0
  -27.0610  -30.1390   24.5670 C   0  0  0  0  0  1  0  0  0  0  0  0
  -27.6420  -32.2880   25.6610 C   0  0  0  0  0  1  0  0  0  0  0  0
  -29.5260  -18.3060   20.4450 O   0  0  0  0  0  0  0  0  0  0  0  0
  -30.2380  -17.6940   21.5270 C   0  0  0  0  0  2  0  0  0  0  0  0
  -31.2690  -16.6600   21.0370 C   0  0  0  0  0  2  0  0  0  0  0  0
  -31.1880  -14.3630   20.0610 C   0  0  0  0  0  0  0  0  0  0  0  0
  -30.7460  -12.1970   18.9670 C   0  0  0  0  0  2  0  0  0  0  0  0
  -29.7630  -12.3840   17.7930 C   0  0  0  0  0  2  0  0  0  0  0  0
  -28.3040  -12.3160   18.2850 C   0  0  0  0  0  2  0  0  0  0  0  0
  -28.0430  -13.2170   19.5210 C   0  0  0  0  0  3  0  0  0  0  0  0
  -29.1310  -12.9990   20.5970 C   0  0  0  0  0  2  0  0  0  0  0  0
  -30.4470  -13.2270   19.9730 N   0  0  0  0  0  0  0  0  0  0  0  0
  -32.2550  -14.5240   19.4650 O   0  0  0  0  0  0  0  0  0  0  0  0
  -30.6600  -15.3470   20.7980 N   0  0  0  0  0  0  0  0  0  0  0  0
  -29.7720  -15.1570   21.2390 H   0  0  0  0  0  0  0  0  0  0  0  0
  -25.7120  -13.9400   20.3410 C   0  0  0  0  0  0  0  0  0  0  0  0
  -24.6200  -13.2190   20.7470 C   0  0  0  0  0  0  0  0  0  0  0  0
  -25.0080  -11.8460   20.6810 C   0  0  0  0  0  0  0  0  0  0  0  0
  -26.6990  -13.0090   20.0590 N   0  0  0  0  0  0  0  0  0  0  0  0
  -26.2800  -11.7440   20.3170 N   0  0  0  0  0  0  0  0  0  0  0  0
  -24.2250  -10.6200   20.8900 C   0  0  0  0  0  0  0  0  0  0  0  0
  -24.6120   -9.6480   21.8390 C   0  0  0  0  0  3  0  0  0  0  0  0
  -23.8320   -8.4880   22.0330 C   0  0  0  0  0  3  0  0  0  0  0  0
  -22.6510   -8.2910   21.2780 C   0  0  0  0  0  0  0  0  0  0  0  0
  -22.2820   -9.2510   20.3190 C   0  0  0  0  0  3  0  0  0  0  0  0
  -23.0640  -10.4020   20.1230 C   0  0  0  0  0  3  0  0  0  0  0  0
  -21.8450   -7.1830   21.3820 O   0  0  0  0  0  0  0  0  0  0  0  0
  -21.7190   -6.4910   22.5600 C   0  0  0  0  0  0  0  0  0  0  0  0
  -21.2340   -7.1050   23.7360 C   0  0  0  0  0  3  0  0  0  0  0  0
  -21.0550   -6.3410   24.9060 C   0  0  0  0  0  3  0  0  0  0  0  0
  -21.3500   -4.9630   24.9000 C   0  0  0  0  0  0  0  0  0  0  0  0
  -21.8270   -4.3500   23.7290 C   0  0  0  0  0  3  0  0  0  0  0  0
  -22.0090   -5.1120   22.5620 C   0  0  0  0  0  0  0  0  0  0  0  0
  -22.4470   -4.5110   21.4290 F   0  0  0  0  0  0  0  0  0  0  0  0
  -21.1710   -4.2280   26.0220 F   0  0  0  0  0  0  0  0  0  0  0  0
  -23.2640  -13.7650   21.0890 C   0  0  0  0  0  0  0  0  0  0  0  0
  -22.5420  -13.1010   21.9850 N   0  0  0  0  0  0  0  0  0  0  0  0
  -22.8550  -14.8170   20.5970 O   0  0  0  0  0  0  0  0  0  0  0  0
  -22.8850  -12.2490   22.4030 H   0  0  0  0  0  0  0  0  0  0  0  0
  -21.6320  -13.4480   22.2550 H   0  0  0  0  0  0  0  0  0  0  0  0
  -25.9420  -15.3010   20.1720 N   0  0  0  0  0  0  0  0  0  0  0  0
  -25.2200  -15.9980   20.3250 H   0  0  0  0  0  0  0  0  0  0  0  0
  -26.8060  -15.7000   19.8260 H   0  0  0  0  0  0  0  0  0  0  0  0
  1  3  2  0
  1  5  1  0
  3  4  1  0
  4  7  1  0
  4  2  2  0
  5  6  2  0
  6  2  1  0
  6 55  1  0
  7  8  1  0
  9 10  1  0
  9  8  1  0
 10  3  1  0
 10 12  1  0
 11  5  1  0
 13 12  1  0
 14 16  1  0
 14 13  1  0
 15 26  2  0
 16 21  1  0
 17 25  1  0
 17 27  1  0
 18 24  1  0
 18 20  1  0
 19 25  1  0
 20 19  1  0
 21 20  2  0
 22 23  1  0
 22 16  2  0
 23 18  2  0
 24 17  1  0
 25 15  1  0
 27 29  2  0
 28 27  1  0
 30 28  1  0
 31 40  2  0
 31 36  1  0
 32 28  1  0
 32 36  1  0
 33 32  1  0
 34 35  1  0
 34 33  1  0
 35 31  1  0
 36 37  2  0
 37 38  1  0
 39 38  2  0
 40 39  1  0
 41 15  1  0
 41 42  1  0
 41 51  1  0
 42 45  1  0
 43 47  1  0
 43 42  1  0
 44 43  2  0
 47 46  1  0
 49 47  1  0
 49 50  1  0
 49 48  1  0
 51 54  1  1
 51 52  1  0
 53 51  1  0
 55 56  1  0
 57 56  1  0
 58 66  1  0
 59 64  1  0
 60 61  1  0
 60 59  1  0
 62 61  1  0
 62 71  1  0
 62 63  1  0
 64 58  1  0
 64 63  1  0
 65 58  2  0
 66 57  1  0
 66 67  1  0
 68 69  2  0
 69 88  1  0
 70 69  1  0
 70 73  1  0
 71 72  1  0
 71 68  1  0
 72 70  2  0
 73 74  1  0
 74 75  2  0
 76 79  1  0
 76 75  1  0
 77 76  2  0
 78 77  1  0
 78 73  2  0
 79 80  1  0
 80 85  2  0
 80 81  1  0
 81 82  2  0
 83 82  1  0
 83 87  1  0
 84 83  2  0
 85 84  1  0
 86 85  1  0
 88 89  1  0
 89 92  1  0
 89 91  1  0
 90 88  2  0
 93 94  1  0
 93 68  1  0
 95 93  1  0
M  ISO  4  13 101  14 101  58 100  66 100
M  END
>  <TORSDO>  (29) 
F 21

>  <SCORE>  (29) 
-12.848

>  <name>  (29) 
28

>  <ligand_id>  (29) 
28

>  <original_smiles>  (29) 
[H]c1c([H])c([H])c2c(c1[H])C([H])([H])C([H])([H])C([H])([H])C2([H])N([H])C(=O)C1([H])N(C(=O)C([H])(N([H])C(=O)C([H])(N([H])C([H])([H])[H])C([H])([H])[H])C(C([H])([H])[H])(C([H])([H])[H])C([H])([H])[H])C([H])([H])c2c([H])c(OC([H])([H])C([H])([H])C3([H])c4c([H])c(C([H])([H])[H])c(OC([H])([H])C([H])([H])N([H])C(=O)N5C([H])([H])C([H])([H])C([H])([H])C([H])(n6nc(-c7c([H])c([H])c(Oc8c([H])c([H])c(F)c([H])c8F)c([H])c7[H])c(C(=O)N([H])[H])c6N([H])[H])C5([H])[H])c([H])c4C([H])([H])C([H])([H])C3([H])[H])c([H])c([H])c2C1([H])[H]

>  <smiles>  (29) 
[H]c1c([H])c([H])c2c(c1[H])C([H])([H])C([H])([H])C([H])([H])C2([H])N([H])C(=O)C1([H])N(C(=O)C([H])(N([H])C(=O)C([H])(N([H])C([H])([H])[H])C([H])([H])[H])C(C([H])([H])[H])(C([H])([H])[H])C([H])([H])[H])C([H])([H])c2c([H])c(OC([H])([H])C([H])([H])C3([H])c4c([H])c(C([H])([H])[H])c(OC([H])([H])C([H])([H])N([H])C(=O)N5C([H])([H])C([H])([H])C([H])([H])C([H])(n6nc(-c7c([H])c([H])c(Oc8c([H])c([H])c(F)c([H])c8F)c([H])c7[H])c(C(=O)N([H])[H])c6N([H])[H])C5([H])[H])c([H])c4C([H])([H])C([H])([H])C3([H])[H])c([H])c([H])c2C1([H])[H]

$$$$
29:0:0
     RDKit          3D

 97106  0  0  1  0  0  0  0  0999 V2000
  -30.8090  -21.2840   19.7980 C   0  0  0  0  0  2  0  0  0  0  0  0
  -30.0770  -21.3600   22.2170 C   0  0  0  0  0  2  0  0  0  0  0  0
  -30.8670  -22.8200   19.8030 C   0  0  0  0  0  2  0  0  0  0  0  0
  -30.1520  -22.8950   22.1480 C   0  0  0  0  0  2  0  0  0  0  0  0
  -31.0330  -20.6930   21.2030 C   0  0  0  0  0  3  0  0  0  0  0  0
  -29.8900  -23.3830   20.7690 N   0  0  1  0  0  4  0  0  0  0  0  0
  -28.9890  -23.0130   20.4990 H   0  0  0  0  0  0  0  0  0  0  0  0
  -29.6460  -18.5750   21.4050 C   0  0  0  0  0  3  0  0  0  0  0  0
  -32.0000  -18.3590   20.8400 C   0  0  0  0  0  3  0  0  0  0  0  0
  -30.8950  -19.1750   21.1640 C   0  0  0  0  0  0  0  0  0  0  0  0
  -29.4830  -17.1850   21.2980 C   0  0  0  0  0  0  0  0  0  0  0  0
  -30.5750  -16.3750   20.9080 C   0  0  0  0  0  0  0  0  0  0  0  0
  -31.8580  -16.9520   20.7170 C   0  0  0  0  0  0  0  0  0  0  0  0
  -28.1110  -16.5980   21.5560 C   0  0  0  0  0  1  0  0  0  0  0  0
  -30.5920  -14.3290   19.5810 C   0  0  0  0  0  0  0  0  0  0  0  0
  -29.9660  -12.3920   18.1840 C   0  0  0  0  0  2  0  0  0  0  0  0
  -28.8330  -12.7550   17.2050 C   0  0  0  0  0  2  0  0  0  0  0  0
  -27.4570  -12.5680   17.8700 C   0  0  0  0  0  2  0  0  0  0  0  0
  -27.3700  -13.2570   19.2560 C   0  0  0  0  0  3  0  0  0  0  0  0
  -28.5910  -12.8860   20.1300 C   0  0  0  0  0  2  0  0  0  0  0  0
  -29.8250  -13.2220   19.3910 N   0  0  0  0  0  0  0  0  0  0  0  0
  -31.4670  -14.6830   18.7840 O   0  0  0  0  0  0  0  0  0  0  0  0
  -30.3580  -14.9850   20.7270 N   0  0  0  0  0  0  0  0  0  0  0  0
  -29.6360  -14.5710   21.2940 H   0  0  0  0  0  0  0  0  0  0  0  0
  -25.1000  -13.7980   20.3560 C   0  0  0  0  0  0  0  0  0  0  0  0
  -24.1150  -12.9960   20.8630 C   0  0  0  0  0  0  0  0  0  0  0  0
  -24.5770  -11.6550   20.6930 C   0  0  0  0  0  0  0  0  0  0  0  0
  -26.1080  -12.9470   19.9270 N   0  0  0  0  0  0  0  0  0  0  0  0
  -25.8000  -11.6490   20.1810 N   0  0  0  0  0  0  0  0  0  0  0  0
  -23.9000  -10.3750   20.9360 C   0  0  0  0  0  0  0  0  0  0  0  0
  -24.4110   -9.4320   21.8550 C   0  0  0  0  0  3  0  0  0  0  0  0
  -23.7320   -8.2170   22.0850 C   0  0  0  0  0  3  0  0  0  0  0  0
  -22.5280   -7.9350   21.3960 C   0  0  0  0  0  0  0  0  0  0  0  0
  -22.0350   -8.8670   20.4670 C   0  0  0  0  0  3  0  0  0  0  0  0
  -22.7150  -10.0750   20.2350 C   0  0  0  0  0  3  0  0  0  0  0  0
  -21.8140   -6.7700   21.5370 O   0  0  0  0  0  0  0  0  0  0  0  0
  -21.7680   -6.0940   22.7300 C   0  0  0  0  0  0  0  0  0  0  0  0
  -21.3050   -6.7060   23.9150 C   0  0  0  0  0  3  0  0  0  0  0  0
  -21.2090   -5.9540   25.1030 C   0  0  0  0  0  3  0  0  0  0  0  0
  -21.5660   -4.5920   25.1080 C   0  0  0  0  0  0  0  0  0  0  0  0
  -22.0220   -3.9800   23.9270 C   0  0  0  0  0  3  0  0  0  0  0  0
  -22.1200   -4.7290   22.7400 C   0  0  0  0  0  0  0  0  0  0  0  0
  -22.5400   -4.1300   21.6000 F   0  0  0  0  0  0  0  0  0  0  0  0
  -21.4660   -3.8680   26.2460 F   0  0  0  0  0  0  0  0  0  0  0  0
  -22.7780  -13.4400   21.3810 C   0  0  0  0  0  0  0  0  0  0  0  0
  -22.2210  -12.7120   22.3430 N   0  0  0  0  0  0  0  0  0  0  0  0
  -22.2400  -14.4670   20.9670 O   0  0  0  0  0  0  0  0  0  0  0  0
  -22.6720  -11.8820   22.6970 H   0  0  0  0  0  0  0  0  0  0  0  0
  -21.3320  -12.9900   22.7320 H   0  0  0  0  0  0  0  0  0  0  0  0
  -25.2050  -15.1760   20.2030 N   0  0  0  0  0  0  0  0  0  0  0  0
  -24.4390  -15.7980   20.4360 H   0  0  0  0  0  0  0  0  0  0  0  0
  -25.9490  -15.6350   19.6960 H   0  0  0  0  0  0  0  0  0  0  0  0
  -34.1220  -16.6670   19.9490 C   0  0  0  0  0  1  0  0  0  0  0  0
  -32.9060  -16.1030   20.4240 O   0  0  0  0  0  0  0  0  0  0  0  0
  -29.7720  -24.8620   20.6840 C   0  0  0  0  0  2  0  0  0  0  0  0
  -28.3710  -25.3010   20.2330 C   0  0  0  0  0  2  0  0  0  0  0  0
  -28.3780  -26.7220   20.2210 O   0  0  0  0  0  0  0  0  0  0  0  0
  -24.5060  -31.8430   23.2050 C   0  0  0  0  0  0  0  0  0  0  0  0
  -27.1680  -27.3730   20.2130 C   0  0  0  0  0  0  0  0  0  0  0  0
  -23.2990  -30.4010   21.5940 C   0  0  0  0  0  3  0  0  0  0  0  0
  -24.7540  -28.8350   20.2040 C   0  0  0  0  0  0  0  0  0  0  0  0
  -25.8180  -30.7740   21.3780 C   0  0  0  0  0  2  0  0  0  0  0  0
  -25.9070  -29.3900   20.7710 C   0  0  0  0  0  0  0  0  0  0  0  0
  -27.1160  -28.6670   20.7690 C   0  0  0  0  0  3  0  0  0  0  0  0
  -25.9960  -26.8150   19.6520 C   0  0  0  0  0  3  0  0  0  0  0  0
  -24.7920  -27.5460   19.6430 C   0  0  0  0  0  3  0  0  0  0  0  0
  -23.5050  -29.6870   20.2300 C   0  0  0  0  0  2  0  0  0  0  0  0
  -24.5600  -31.0210   22.1170 N   0  0  0  0  0  0  0  0  0  0  0  0
  -23.4260  -32.1230   23.7420 O   0  0  0  0  0  0  0  0  0  0  0  0
  -22.6540  -29.4000   22.5780 C   0  0  0  0  0  0  0  0  0  0  0  0
  -21.3400  -29.1740   22.4230 N   0  0  0  0  0  0  0  0  0  0  0  0
  -23.3340  -28.8270   23.4330 O   0  0  0  0  0  0  0  0  0  0  0  0
  -20.8520  -29.6910   21.7040 H   0  0  0  0  0  0  0  0  0  0  0  0
  -17.9910  -27.8940   22.8580 C   0  0  0  0  0  0  0  0  0  0  0  0
  -20.5280  -28.2450   23.2070 C   0  0  0  0  0  3  0  0  0  0  0  0
  -20.6950  -26.7950   22.6960 C   0  0  0  0  0  2  0  0  0  0  0  0
  -19.6390  -26.3930   21.6610 C   0  0  0  0  0  2  0  0  0  0  0  0
  -18.2320  -26.5220   22.2520 C   0  0  0  0  0  2  0  0  0  0  0  0
  -19.0700  -28.7090   23.2930 C   0  0  0  0  0  0  0  0  0  0  0  0
  -18.7940  -29.9910   23.8170 C   0  0  0  0  0  3  0  0  0  0  0  0
  -17.4690  -30.4570   23.9150 C   0  0  0  0  0  3  0  0  0  0  0  0
  -16.4040  -29.6400   23.5010 C   0  0  0  0  0  3  0  0  0  0  0  0
  -16.6650  -28.3610   22.9770 C   0  0  0  0  0  3  0  0  0  0  0  0
  -25.7940  -32.4870   23.8080 C   0  0  0  0  0  3  0  0  0  0  0  0
  -26.3380  -31.7210   25.0750 C   0  0  1  0  0  0  0  0  0  0  0  0
  -25.2560  -31.4390   26.1430 C   0  0  0  0  0  1  0  0  0  0  0  0
  -26.9660  -30.3680   24.6660 C   0  0  0  0  0  1  0  0  0  0  0  0
  -27.4630  -32.5470   25.7450 C   0  0  0  0  0  1  0  0  0  0  0  0
  -25.4770  -33.8820   24.1380 N   0  0  0  0  0  0  0  0  0  0  0  0
  -25.7670  -34.9330   23.3610 C   0  0  0  0  0  0  0  0  0  0  0  0
  -26.4020  -34.8310   22.3070 O   0  0  0  0  0  0  0  0  0  0  0  0
  -24.9100  -34.0340   24.9590 H   0  0  0  0  0  0  0  0  0  0  0  0
  -23.9880  -36.6850   23.0630 C   0  0  0  0  0  1  0  0  0  0  0  0
  -25.2720  -36.3170   23.8220 C   0  0  0  0  0  3  0  0  0  0  0  0
  -27.4240  -37.2520   24.5440 C   0  0  0  0  0  1  0  0  0  0  0  0
  -26.2770  -37.3870   23.6510 N   0  0  0  0  0  0  0  0  0  0  0  0
  -25.8590  -38.3010   23.8080 H   0  0  0  0  0  0  0  0  0  0  0  0
  1  3  1  0
  1  5  1  0
  3  6  1  0
  4  2  1  0
  5 10  1  0
  5  2  1  0
  6  4  1  0
  6  7  1  6
  9 10  1  0
 10  8  2  0
 11  8  1  0
 11 14  1  0
 12 11  2  0
 13  9  2  0
 13 12  1  0
 15 23  1  0
 16 21  1  0
 17 18  1  0
 17 16  1  0
 19 18  1  0
 19 28  1  0
 19 20  1  0
 21 15  1  0
 21 20  1  0
 22 15  2  0
 23 12  1  0
 23 24  1  0
 25 26  2  0
 26 45  1  0
 27 26  1  0
 27 30  1  0
 28 29  1  0
 28 25  1  0
 29 27  2  0
 30 31  1  0
 31 32  2  0
 33 36  1  0
 33 32  1  0
 34 33  2  0
 35 34  1  0
 35 30  2  0
 36 37  1  0
 37 42  2  0
 37 38  1  0
 38 39  2  0
 39 40  1  0
 40 44  1  0
 41 40  2  0
 42 41  1  0
 43 42  1  0
 45 46  1  0
 46 48  1  0
 46 49  1  0
 47 45  2  0
 50 25  1  0
 50 51  1  0
 52 50  1  0
 53 54  1  0
 54 13  1  0
 55  6  1  0
 56 55  1  0
 57 56  1  0
 58 69  2  0
 59 57  1  0
 59 64  1  0
 60 68  1  0
 60 70  1  0
 61 67  1  0
 61 63  1  0
 62 68  1  0
 63 62  1  0
 64 63  2  0
 65 59  2  0
 66 65  1  0
 66 61  2  0
 67 60  1  0
 68 58  1  0
 70 72  2  0
 71 70  1  0
 73 71  1  0
 74 83  2  0
 74 79  1  0
 75 71  1  0
 75 79  1  0
 76 75  1  0
 77 78  1  0
 77 76  1  0
 78 74  1  0
 79 80  2  0
 80 81  1  0
 82 81  2  0
 83 82  1  0
 84 58  1  0
 84 89  1  0
 84 85  1  0
 85 88  1  1
 85 86  1  0
 87 85  1  0
 89 92  1  0
 90 94  1  0
 90 89  1  0
 91 90  2  0
 94 93  1  0
 96 97  1  0
 96 94  1  0
 96 95  1  0
M  ISO  4  15 100  23 100  56 101  57 101
M  END
>  <TORSDO>  (30) 
F 20

>  <SCORE>  (30) 
-10.578

>  <name>  (30) 
29

>  <ligand_id>  (30) 
29

>  <original_smiles>  (30) 
[H]c1c([H])c([H])c2c(c1[H])C([H])([H])C([H])([H])C([H])([H])C2([H])N([H])C(=O)C1([H])N(C(=O)C([H])(N([H])C(=O)C([H])(N([H])C([H])([H])[H])C([H])([H])[H])C(C([H])([H])[H])(C([H])([H])[H])C([H])([H])[H])C([H])([H])c2c([H])c(OC([H])([H])C([H])([H])[N+]3([H])C([H])([H])C([H])([H])C([H])(c4c([H])c(OC([H])([H])[H])c(N([H])C(=O)N5C([H])([H])C([H])([H])C([H])([H])C([H])(n6nc(-c7c([H])c([H])c(Oc8c([H])c([H])c(F)c([H])c8F)c([H])c7[H])c(C(=O)N([H])[H])c6N([H])[H])C5([H])[H])c(C([H])([H])[H])c4[H])C([H])([H])C3([H])[H])c([H])c([H])c2C1([H])[H]

>  <smiles>  (30) 
[H]c1c([H])c([H])c2c(c1[H])C([H])([H])C([H])([H])C([H])([H])C2([H])N([H])C(=O)C1([H])N(C(=O)C([H])(N([H])C(=O)C([H])(N([H])C([H])([H])[H])C([H])([H])[H])C(C([H])([H])[H])(C([H])([H])[H])C([H])([H])[H])C([H])([H])c2c([H])c(OC([H])([H])C([H])([H])[N+]3([H])C([H])([H])C([H])([H])C([H])(c4c([H])c(OC([H])([H])[H])c(N([H])C(=O)N5C([H])([H])C([H])([H])C([H])([H])C([H])(n6nc(-c7c([H])c([H])c(Oc8c([H])c([H])c(F)c([H])c8F)c([H])c7[H])c(C(=O)N([H])[H])c6N([H])[H])C5([H])[H])c(C([H])([H])[H])c4[H])C([H])([H])C3([H])[H])c([H])c([H])c2C1([H])[H]

$$$$
30:0:0
     RDKit          3D

 93102  0  0  1  0  0  0  0  0999 V2000
  -33.2690  -21.7460   20.1590 C   0  0  0  0  0  3  0  0  0  0  0  0
  -32.2990  -22.6180   18.1120 C   0  0  0  0  0  3  0  0  0  0  0  0
  -33.1010  -22.8370   19.2810 C   0  0  0  0  0  0  0  0  0  0  0  0
  -31.9970  -20.2610   18.6730 C   0  0  0  0  0  0  0  0  0  0  0  0
  -32.7360  -20.4810   19.8610 C   0  0  0  0  0  0  0  0  0  0  0  0
  -31.7020  -21.3480   17.8000 C   0  0  0  0  0  0  0  0  0  0  0  0
  -31.6330  -18.8240   18.3300 C   0  0  0  0  0  1  0  0  0  0  0  0
  -34.8540  -27.3020   19.3990 C   0  0  0  0  0  0  0  0  0  0  0  0
  -34.6540  -29.7710   19.2650 C   0  0  0  0  0  2  0  0  0  0  0  0
  -33.1650  -30.1350   19.4400 C   0  0  0  0  0  2  0  0  0  0  0  0
  -32.4360  -30.1060   18.0780 C   0  0  0  0  0  2  0  0  0  0  0  0
  -32.7230  -28.8090   17.2720 C   0  0  0  0  0  3  0  0  0  0  0  0
  -34.2360  -28.4920   17.2520 C   0  0  0  0  0  2  0  0  0  0  0  0
  -34.7030  -28.4350   18.6460 N   0  0  0  0  0  0  0  0  0  0  0  0
  -35.3400  -27.3290   20.5320 O   0  0  0  0  0  0  0  0  0  0  0  0
  -34.9150  -24.8560   18.7890 C   0  0  0  0  0  2  0  0  0  0  0  0
  -33.0640  -25.5460   19.5520 C   0  0  0  0  0  2  0  0  0  0  0  0
  -33.7920  -24.1940   19.6290 C   0  0  0  0  0  3  0  0  0  0  0  0
  -34.2540  -26.1760   18.9190 N   0  0  0  0  0  0  0  0  0  0  0  0
  -30.8530  -28.6530   15.5110 C   0  0  0  0  0  0  0  0  0  0  0  0
  -30.8330  -28.9030   14.1660 C   0  0  0  0  0  0  0  0  0  0  0  0
  -32.1660  -29.2760   13.8150 C   0  0  0  0  0  0  0  0  0  0  0  0
  -32.1580  -28.8720   15.9240 N   0  0  0  0  0  0  0  0  0  0  0  0
  -32.9610  -29.1980   14.8770 N   0  0  0  0  0  0  0  0  0  0  0  0
  -32.7210  -29.7600   12.5440 C   0  0  0  0  0  0  0  0  0  0  0  0
  -32.9410  -28.8890   11.4550 C   0  0  0  0  0  3  0  0  0  0  0  0
  -33.4610  -29.3810   10.2380 C   0  0  0  0  0  3  0  0  0  0  0  0
  -33.7600  -30.7570   10.0990 C   0  0  0  0  0  0  0  0  0  0  0  0
  -33.5570  -31.6160   11.1930 C   0  0  0  0  0  3  0  0  0  0  0  0
  -33.0470  -31.1230   12.4050 C   0  0  0  0  0  3  0  0  0  0  0  0
  -34.2870  -31.3220    8.9630 O   0  0  0  0  0  0  0  0  0  0  0  0
  -33.5720  -31.3890    7.7940 C   0  0  0  0  0  0  0  0  0  0  0  0
  -32.5290  -32.3240    7.6100 C   0  0  0  0  0  3  0  0  0  0  0  0
  -31.8660  -32.4030    6.3690 C   0  0  0  0  0  3  0  0  0  0  0  0
  -32.2510  -31.5600    5.3100 C   0  0  0  0  0  0  0  0  0  0  0  0
  -33.2950  -30.6370    5.4880 C   0  0  0  0  0  3  0  0  0  0  0  0
  -33.9550  -30.5530    6.7250 C   0  0  0  0  0  0  0  0  0  0  0  0
  -34.9730  -29.6730    6.8860 F   0  0  0  0  0  0  0  0  0  0  0  0
  -31.6200  -31.6430    4.1140 F   0  0  0  0  0  0  0  0  0  0  0  0
  -29.6260  -28.8940   13.2740 C   0  0  0  0  0  0  0  0  0  0  0  0
  -29.6120  -28.0370   12.2580 N   0  0  0  0  0  0  0  0  0  0  0  0
  -28.6600  -29.6210   13.5000 O   0  0  0  0  0  0  0  0  0  0  0  0
  -30.3890  -27.4190   12.0810 H   0  0  0  0  0  0  0  0  0  0  0  0
  -28.8040  -27.9980   11.6530 H   0  0  0  0  0  0  0  0  0  0  0  0
  -29.8690  -28.2740   16.4210 N   0  0  0  0  0  0  0  0  0  0  0  0
  -28.9030  -28.1390   16.1450 H   0  0  0  0  0  0  0  0  0  0  0  0
  -30.0330  -28.1080   17.4060 H   0  0  0  0  0  0  0  0  0  0  0  0
  -32.2970  -19.4750   21.9230 C   0  0  0  0  0  1  0  0  0  0  0  0
  -33.0260  -19.4420   20.7050 O   0  0  0  0  0  0  0  0  0  0  0  0
  -30.9770  -21.1950   16.6060 O   0  0  0  0  0  0  0  0  0  0  0  0
  -29.5490  -21.5140   16.4980 C   0  0  0  0  0  2  0  0  0  0  0  0
  -28.5910  -20.4950   17.2300 C   0  0  0  0  0  2  0  0  0  0  0  0
  -27.1290  -20.6770   17.1710 O   0  0  0  0  0  0  0  0  0  0  0  0
  -22.5130  -26.0210   18.5410 C   0  0  0  0  0  0  0  0  0  0  0  0
  -26.5460  -21.5110   18.1340 C   0  0  0  0  0  0  0  0  0  0  0  0
  -24.2140  -25.5640   20.2720 C   0  0  0  0  0  3  0  0  0  0  0  0
  -25.4860  -23.3620   20.0320 C   0  0  0  0  0  0  0  0  0  0  0  0
  -23.3770  -23.6840   18.7410 C   0  0  0  0  0  2  0  0  0  0  0  0
  -24.7330  -23.0160   18.9020 C   0  0  0  0  0  0  0  0  0  0  0  0
  -25.2560  -22.0900   17.9550 C   0  0  0  0  0  3  0  0  0  0  0  0
  -27.2440  -21.8430   19.3220 C   0  0  0  0  0  3  0  0  0  0  0  0
  -26.7370  -22.7710   20.2470 C   0  0  0  0  0  3  0  0  0  0  0  0
  -24.8950  -24.3730   20.9910 C   0  0  0  0  0  2  0  0  0  0  0  0
  -23.3440  -25.1170   19.1350 N   0  0  0  0  0  0  0  0  0  0  0  0
  -22.4420  -27.1910   18.9420 O   0  0  0  0  0  0  0  0  0  0  0  0
  -25.3000  -26.5800   19.8490 C   0  0  0  0  0  0  0  0  0  0  0  0
  -25.7630  -27.4030   20.8050 N   0  0  0  0  0  0  0  0  0  0  0  0
  -25.7250  -26.6010   18.6910 O   0  0  0  0  0  0  0  0  0  0  0  0
  -25.3570  -27.3290   21.7270 H   0  0  0  0  0  0  0  0  0  0  0  0
  -27.2410  -30.3440   22.2980 C   0  0  0  0  0  0  0  0  0  0  0  0
  -26.8100  -28.4110   20.6380 C   0  0  0  0  0  3  0  0  0  0  0  0
  -28.1860  -27.8640   21.0790 C   0  0  0  0  0  2  0  0  0  0  0  0
  -28.5200  -28.1740   22.5410 C   0  0  0  0  0  2  0  0  0  0  0  0
  -28.5210  -29.6860   22.7830 C   0  0  0  0  0  2  0  0  0  0  0  0
  -26.4280  -29.7370   21.3050 C   0  0  0  0  0  0  0  0  0  0  0  0
  -25.2290  -30.3730   20.9190 C   0  0  0  0  0  3  0  0  0  0  0  0
  -24.8380  -31.5910   21.5050 C   0  0  0  0  0  3  0  0  0  0  0  0
  -25.6540  -32.1960   22.4760 C   0  0  0  0  0  3  0  0  0  0  0  0
  -26.8550  -31.5760   22.8680 C   0  0  0  0  0  3  0  0  0  0  0  0
  -21.5980  -25.6210   17.3430 C   0  0  0  0  0  3  0  0  0  0  0  0
  -22.2630  -25.8840   15.9370 C   0  0  1  0  0  0  0  0  0  0  0  0
  -23.4330  -26.8940   15.9830 C   0  0  0  0  0  1  0  0  0  0  0  0
  -22.7980  -24.5690   15.3270 C   0  0  0  0  0  1  0  0  0  0  0  0
  -21.2010  -26.4240   14.9490 C   0  0  0  0  0  1  0  0  0  0  0  0
  -20.3450  -26.3750   17.4740 N   0  0  0  0  0  0  0  0  0  0  0  0
  -19.2180  -25.8950   18.0170 C   0  0  0  0  0  0  0  0  0  0  0  0
  -19.1050  -24.7270   18.4020 O   0  0  0  0  0  0  0  0  0  0  0  0
  -20.3790  -27.3560   17.2320 H   0  0  0  0  0  0  0  0  0  0  0  0
  -17.6930  -27.0590   19.6430 C   0  0  0  0  0  1  0  0  0  0  0  0
  -18.0250  -26.8600   18.1560 C   0  0  0  0  0  3  0  0  0  0  0  0
  -17.0170  -26.2860   15.9910 C   0  0  0  0  0  1  0  0  0  0  0  0
  -16.8150  -26.4090   17.4320 N   0  0  0  0  0  0  0  0  0  0  0  0
  -16.0390  -27.0470   17.5910 H   0  0  0  0  0  0  0  0  0  0  0  0
  2  3  1  0
  3  1  2  0
  4  5  2  0
  5  1  1  0
  5 49  1  0
  6  2  2  0
  6  4  1  0
  7  4  1  0
  8 15  2  0
  9 10  1  0
 11 10  1  0
 12 23  1  0
 12 11  1  0
 13 12  1  0
 13 14  1  0
 14  9  1  0
 14  8  1  0
 16 19  1  0
 16 18  1  0
 17 18  1  0
 18  3  1  0
 19  8  1  0
 19 17  1  0
 20 23  1  0
 20 45  1  0
 21 20  2  0
 22 21  1  0
 22 24  2  0
 24 23  1  0
 25 22  1  0
 26 25  2  0
 27 26  1  0
 28 27  2  0
 28 29  1  0
 29 30  2  0
 30 25  1  0
 31 28  1  0
 32 31  1  0
 33 32  1  0
 34 33  2  0
 35 36  2  0
 35 34  1  0
 36 37  1  0
 37 38  1  0
 37 32  2  0
 39 35  1  0
 40 42  2  0
 40 21  1  0
 41 40  1  0
 43 41  1  0
 44 41  1  0
 45 47  1  0
 46 45  1  0
 49 48  1  0
 50  6  1  0
 51 50  1  0
 51 52  1  0
 53 52  1  0
 53 55  1  0
 54 65  2  0
 54 64  1  0
 55 61  1  0
 56 66  1  0
 56 63  1  0
 57 62  1  0
 57 63  1  0
 58 59  1  0
 58 64  1  0
 59 57  2  0
 60 55  2  0
 60 59  1  0
 61 62  2  0
 64 56  1  0
 66 67  1  0
 67 69  1  0
 68 66  2  0
 70 74  1  0
 70 79  1  0
 71 67  1  0
 71 72  1  0
 71 75  1  0
 72 73  1  0
 73 74  1  0
 75 70  2  0
 76 75  1  0
 76 77  2  0
 77 78  1  0
 78 79  2  0
 80 85  1  0
 80 54  1  0
 81 82  1  1
 81 80  1  0
 83 81  1  0
 84 81  1  0
 85 86  1  0
 86 90  1  0
 86 87  2  0
 88 85  1  0
 90 89  1  0
 91 92  1  0
 92 93  1  0
 92 90  1  0
M  ISO  4   8 100  19 100  52 101  53 101
M  END
>  <TORSDO>  (31) 
F 20

>  <SCORE>  (31) 
-6.706

>  <name>  (31) 
30

>  <ligand_id>  (31) 
30

>  <original_smiles>  (31) 
[H]c1c([H])c([H])c2c(c1[H])C([H])([H])C([H])([H])C([H])([H])C2([H])N([H])C(=O)C1([H])N(C(=O)C([H])(N([H])C(=O)C([H])(N([H])C([H])([H])[H])C([H])([H])[H])C(C([H])([H])[H])(C([H])([H])[H])C([H])([H])[H])C([H])([H])c2c([H])c(OC([H])([H])C([H])([H])Oc3c([H])c(C4([H])C([H])([H])N(C(=O)N5C([H])([H])C([H])([H])C([H])([H])C([H])(n6nc(-c7c([H])c([H])c(Oc8c([H])c([H])c(F)c([H])c8F)c([H])c7[H])c(C(=O)N([H])[H])c6N([H])[H])C5([H])[H])C4([H])[H])c([H])c(OC([H])([H])[H])c3C([H])([H])[H])c([H])c([H])c2C1([H])[H]

>  <smiles>  (31) 
[H]c1c([H])c([H])c2c(c1[H])C([H])([H])C([H])([H])C([H])([H])C2([H])N([H])C(=O)C1([H])N(C(=O)C([H])(N([H])C(=O)C([H])(N([H])C([H])([H])[H])C([H])([H])[H])C(C([H])([H])[H])(C([H])([H])[H])C([H])([H])[H])C([H])([H])c2c([H])c(OC([H])([H])C([H])([H])Oc3c([H])c(C4([H])C([H])([H])N(C(=O)N5C([H])([H])C([H])([H])C([H])([H])C([H])(n6nc(-c7c([H])c([H])c(Oc8c([H])c([H])c(F)c([H])c8F)c([H])c7[H])c(C(=O)N([H])[H])c6N([H])[H])C5([H])[H])C4([H])[H])c([H])c(OC([H])([H])[H])c3C([H])([H])[H])c([H])c([H])c2C1([H])[H]

$$$$
31:0:0
     RDKit          3D

 95104  0  0  1  0  0  0  0  0999 V2000
  -27.4980  -23.3490   19.4030 C   0  0  0  0  0  3  0  0  0  0  0  0
  -28.6480  -24.0970   19.7320 C   0  0  0  0  0  0  0  0  0  0  0  0
  -27.4120  -21.9540   19.6260 C   0  0  0  0  0  0  0  0  0  0  0  0
  -29.7230  -23.3910   20.3500 C   0  0  0  0  0  0  0  0  0  0  0  0
  -29.6530  -21.9700   20.5680 C   0  0  0  0  0  0  0  0  0  0  0  0
  -28.4920  -21.2170   20.1870 C   0  0  0  0  0  0  0  0  0  0  0  0
  -26.1150  -21.2560   19.2380 C   0  0  0  0  0  1  0  0  0  0  0  0
  -30.9750  -24.1640   20.7680 C   0  0  0  0  0  1  0  0  0  0  0  0
  -30.8250  -21.2540   21.2320 C   0  0  0  0  0  1  0  0  0  0  0  0
  -28.2770  -19.8140   20.3720 N   0  0  0  0  0  0  0  0  0  0  0  0
  -27.3220  -19.5290   20.1830 H   0  0  0  0  0  0  0  0  0  0  0  0
  -30.7490  -14.5710   19.6410 C   0  0  0  0  0  0  0  0  0  0  0  0
  -30.3490  -12.3610   18.5860 C   0  0  0  0  0  2  0  0  0  0  0  0
  -29.2870  -12.5030   17.4770 C   0  0  0  0  0  2  0  0  0  0  0  0
  -27.8630  -12.3780   18.0560 C   0  0  0  0  0  2  0  0  0  0  0  0
  -27.6500  -13.2390   19.3310 C   0  0  0  0  0  3  0  0  0  0  0  0
  -28.8180  -13.0510   20.3190 C   0  0  0  0  0  2  0  0  0  0  0  0
  -30.0530  -13.3920   19.6060 N   0  0  0  0  0  0  0  0  0  0  0  0
  -31.8840  -14.6230   19.1500 O   0  0  0  0  0  0  0  0  0  0  0  0
  -29.5030  -18.1330   18.9360 C   0  0  0  0  0  2  0  0  0  0  0  0
  -28.7020  -17.4520   21.1540 C   0  0  0  0  0  2  0  0  0  0  0  0
  -30.4560  -16.8970   18.9520 C   0  0  0  0  0  2  0  0  0  0  0  0
  -29.7150  -16.2650   21.1660 C   0  0  0  0  0  2  0  0  0  0  0  0
  -29.2220  -18.6690   20.3490 C   0  0  0  0  0  3  0  0  0  0  0  0
  -30.0510  -15.7510   19.8180 N   0  0  0  0  0  0  0  0  0  0  0  0
  -25.3810  -13.8580   20.3660 C   0  0  0  0  0  0  0  0  0  0  0  0
  -24.3410  -13.0960   20.8220 C   0  0  0  0  0  0  0  0  0  0  0  0
  -24.7490  -11.7360   20.6600 C   0  0  0  0  0  0  0  0  0  0  0  0
  -26.3600  -12.9660   19.9600 N   0  0  0  0  0  0  0  0  0  0  0  0
  -25.9910  -11.6790   20.1930 N   0  0  0  0  0  0  0  0  0  0  0  0
  -24.0100  -10.4870   20.8670 C   0  0  0  0  0  0  0  0  0  0  0  0
  -24.4470   -9.5100   21.7880 C   0  0  0  0  0  3  0  0  0  0  0  0
  -23.7060   -8.3250   21.9820 C   0  0  0  0  0  3  0  0  0  0  0  0
  -22.5120   -8.1080   21.2520 C   0  0  0  0  0  0  0  0  0  0  0  0
  -22.0970   -9.0730   20.3170 C   0  0  0  0  0  3  0  0  0  0  0  0
  -22.8390  -10.2480   20.1220 C   0  0  0  0  0  3  0  0  0  0  0  0
  -21.7390   -6.9770   21.3540 O   0  0  0  0  0  0  0  0  0  0  0  0
  -21.6110   -6.2980   22.5400 C   0  0  0  0  0  0  0  0  0  0  0  0
  -21.0980   -6.9170   23.7030 C   0  0  0  0  0  3  0  0  0  0  0  0
  -20.9230   -6.1620   24.8810 C   0  0  0  0  0  3  0  0  0  0  0  0
  -21.2490   -4.7930   24.8970 C   0  0  0  0  0  0  0  0  0  0  0  0
  -21.7520   -4.1750   23.7390 C   0  0  0  0  0  3  0  0  0  0  0  0
  -21.9320   -4.9270   22.5640 C   0  0  0  0  0  0  0  0  0  0  0  0
  -22.4000   -4.3230   21.4440 F   0  0  0  0  0  0  0  0  0  0  0  0
  -21.0710   -4.0650   26.0250 F   0  0  0  0  0  0  0  0  0  0  0  0
  -23.0030  -13.5940   21.2910 C   0  0  0  0  0  0  0  0  0  0  0  0
  -22.3760  -12.8870   22.2240 N   0  0  0  0  0  0  0  0  0  0  0  0
  -22.5270  -14.6450   20.8600 O   0  0  0  0  0  0  0  0  0  0  0  0
  -22.7800  -12.0410   22.5970 H   0  0  0  0  0  0  0  0  0  0  0  0
  -21.4820  -13.2000   22.5770 H   0  0  0  0  0  0  0  0  0  0  0  0
  -25.5650  -15.2320   20.2380 N   0  0  0  0  0  0  0  0  0  0  0  0
  -24.8430  -15.8990   20.4850 H   0  0  0  0  0  0  0  0  0  0  0  0
  -26.3850  -15.6600   19.8260 H   0  0  0  0  0  0  0  0  0  0  0  0
  -28.7450  -25.5770   19.2440 C   0  0  0  0  0  2  0  0  0  0  0  0
  -28.4890  -26.6600   20.1870 O   0  0  0  0  0  0  0  0  0  0  0  0
  -24.4990  -31.7880   23.2250 C   0  0  0  0  0  0  0  0  0  0  0  0
  -27.3050  -27.3930   20.1400 C   0  0  0  0  0  0  0  0  0  0  0  0
  -23.3640  -30.3770   21.5460 C   0  0  0  0  0  3  0  0  0  0  0  0
  -24.8800  -28.8910   20.1280 C   0  0  0  0  0  0  0  0  0  0  0  0
  -25.8900  -30.7850   21.4050 C   0  0  0  0  0  2  0  0  0  0  0  0
  -26.0200  -29.4190   20.7470 C   0  0  0  0  0  0  0  0  0  0  0  0
  -27.2310  -28.6780   20.7500 C   0  0  0  0  0  3  0  0  0  0  0  0
  -26.1320  -26.8930   19.5270 C   0  0  0  0  0  3  0  0  0  0  0  0
  -24.9360  -27.6310   19.5160 C   0  0  0  0  0  3  0  0  0  0  0  0
  -23.6160  -29.7210   20.1630 C   0  0  0  0  0  2  0  0  0  0  0  0
  -24.6020  -30.9980   22.1170 N   0  0  0  0  0  0  0  0  0  0  0  0
  -23.4010  -32.0280   23.7450 O   0  0  0  0  0  0  0  0  0  0  0  0
  -22.7190  -29.3290   22.4820 C   0  0  0  0  0  0  0  0  0  0  0  0
  -21.3980  -29.1290   22.3420 N   0  0  0  0  0  0  0  0  0  0  0  0
  -23.4030  -28.6980   23.2910 O   0  0  0  0  0  0  0  0  0  0  0  0
  -20.9040  -29.6880   21.6600 H   0  0  0  0  0  0  0  0  0  0  0  0
  -18.0310  -27.9040   22.8310 C   0  0  0  0  0  0  0  0  0  0  0  0
  -20.5910  -28.1640   23.0890 C   0  0  0  0  0  3  0  0  0  0  0  0
  -20.6940  -26.7520   22.4680 C   0  0  0  0  0  2  0  0  0  0  0  0
  -19.5850  -26.4560   21.4530 C   0  0  0  0  0  2  0  0  0  0  0  0
  -18.2080  -26.5760   22.1120 C   0  0  0  0  0  2  0  0  0  0  0  0
  -19.1520  -28.6550   23.2760 C   0  0  0  0  0  0  0  0  0  0  0  0
  -18.9330  -29.8990   23.9100 C   0  0  0  0  0  3  0  0  0  0  0  0
  -17.6280  -30.3910   24.1000 C   0  0  0  0  0  3  0  0  0  0  0  0
  -16.5240  -29.6360   23.6690 C   0  0  0  0  0  3  0  0  0  0  0  0
  -16.7260  -28.3930   23.0430 C   0  0  0  0  0  3  0  0  0  0  0  0
  -25.7550  -32.4470   23.8770 C   0  0  0  0  0  3  0  0  0  0  0  0
  -25.4130  -33.8430   24.1840 N   0  0  0  0  0  0  0  0  0  0  0  0
  -25.7430  -34.8930   23.4210 C   0  0  0  0  0  0  0  0  0  0  0  0
  -26.4410  -34.7900   22.4070 O   0  0  0  0  0  0  0  0  0  0  0  0
  -24.7920  -33.9950   24.9640 H   0  0  0  0  0  0  0  0  0  0  0  0
  -23.9960  -36.6530   23.0000 C   0  0  0  0  0  1  0  0  0  0  0  0
  -25.2180  -36.2750   23.8520 C   0  0  0  0  0  3  0  0  0  0  0  0
  -27.3060  -37.2060   24.7480 C   0  0  0  0  0  1  0  0  0  0  0  0
  -26.2360  -37.3450   23.7640 N   0  0  0  0  0  0  0  0  0  0  0  0
  -25.8090  -38.2580   23.8880 H   0  0  0  0  0  0  0  0  0  0  0  0
  -26.2480  -31.6950   25.1730 C   0  0  1  0  0  0  0  0  0  0  0  0
  -25.1280  -31.4400   26.2080 C   0  0  0  0  0  1  0  0  0  0  0  0
  -26.8730  -30.3280   24.8100 C   0  0  0  0  0  1  0  0  0  0  0  0
  -27.3620  -32.5180   25.8620 C   0  0  0  0  0  1  0  0  0  0  0  0
  1  3  2  0
  1  2  1  0
  2  4  2  0
  3  6  1  0
  4  5  1  0
  4  8  1  0
  5  9  1  0
  6 10  1  0
  6  5  2  0
  7  3  1  0
 11 10  1  0
 12 25  1  0
 13 18  1  0
 14 15  1  0
 14 13  1  0
 16 15  1  0
 16 29  1  0
 16 17  1  0
 18 12  1  0
 18 17  1  0
 19 12  2  0
 20 22  1  0
 20 24  1  0
 21 23  1  0
 22 25  1  0
 24 10  1  0
 24 21  1  0
 25 23  1  0
 26 27  2  0
 27 46  1  0
 28 27  1  0
 28 31  1  0
 29 30  1  0
 29 26  1  0
 30 28  2  0
 31 32  1  0
 32 33  2  0
 34 37  1  0
 34 33  1  0
 35 34  2  0
 36 35  1  0
 36 31  2  0
 37 38  1  0
 38 43  2  0
 38 39  1  0
 39 40  2  0
 40 41  1  0
 41 45  1  0
 42 41  2  0
 43 42  1  0
 44 43  1  0
 46 47  1  0
 47 50  1  0
 47 49  1  0
 48 46  2  0
 51 26  1  0
 51 52  1  0
 53 51  1  0
 54  2  1  0
 54 55  1  0
 56 67  2  0
 57 55  1  0
 57 62  1  0
 58 66  1  0
 58 68  1  0
 59 65  1  0
 59 61  1  0
 60 66  1  0
 61 62  2  0
 61 60  1  0
 63 57  2  0
 64 63  1  0
 64 59  2  0
 65 58  1  0
 66 56  1  0
 68 70  2  0
 69 68  1  0
 71 69  1  0
 72 81  2  0
 72 77  1  0
 73 69  1  0
 73 77  1  0
 74 73  1  0
 75 76  1  0
 75 74  1  0
 76 72  1  0
 77 78  2  0
 78 79  1  0
 80 79  2  0
 81 80  1  0
 82 56  1  0
 82 83  1  0
 82 92  1  0
 83 86  1  0
 84 88  1  0
 84 83  1  0
 85 84  2  0
 88 87  1  0
 90 88  1  0
 90 91  1  0
 90 89  1  0
 92 95  1  1
 92 93  1  0
 94 92  1  0
M  ISO  4  12 100  25 100  54 101  55 101
M  END
>  <TORSDO>  (32) 
F 18

>  <SCORE>  (32) 
-13.668

>  <name>  (32) 
31

>  <ligand_id>  (32) 
31

>  <original_smiles>  (32) 
[H]c1c([H])c([H])c2c(c1[H])C([H])([H])C([H])([H])C([H])([H])C2([H])N([H])C(=O)C1([H])N(C(=O)C([H])(N([H])C(=O)C([H])(N([H])C([H])([H])[H])C([H])([H])[H])C(C([H])([H])[H])(C([H])([H])[H])C([H])([H])[H])C([H])([H])c2c([H])c(OC([H])([H])c3c([H])c(C([H])([H])[H])c(N([H])C4([H])C([H])([H])C([H])([H])N(C(=O)N5C([H])([H])C([H])([H])C([H])([H])C([H])(n6nc(-c7c([H])c([H])c(Oc8c([H])c([H])c(F)c([H])c8F)c([H])c7[H])c(C(=O)N([H])[H])c6N([H])[H])C5([H])[H])C([H])([H])C4([H])[H])c(C([H])([H])[H])c3C([H])([H])[H])c([H])c([H])c2C1([H])[H]

>  <smiles>  (32) 
[H]c1c([H])c([H])c2c(c1[H])C([H])([H])C([H])([H])C([H])([H])C2([H])N([H])C(=O)C1([H])N(C(=O)C([H])(N([H])C(=O)C([H])(N([H])C([H])([H])[H])C([H])([H])[H])C(C([H])([H])[H])(C([H])([H])[H])C([H])([H])[H])C([H])([H])c2c([H])c(OC([H])([H])c3c([H])c(C([H])([H])[H])c(N([H])C4([H])C([H])([H])C([H])([H])N(C(=O)N5C([H])([H])C([H])([H])C([H])([H])C([H])(n6nc(-c7c([H])c([H])c(Oc8c([H])c([H])c(F)c([H])c8F)c([H])c7[H])c(C(=O)N([H])[H])c6N([H])[H])C5([H])[H])C([H])([H])C4([H])[H])c(C([H])([H])[H])c3C([H])([H])[H])c([H])c([H])c2C1([H])[H]

$$$$
32:0:0
     RDKit          3D

 94103  0  0  1  0  0  0  0  0999 V2000
  -29.4960  -21.5880   21.1310 C   0  0  0  0  0  3  0  0  0  0  0  0
  -29.1600  -22.9900   21.0030 C   0  0  0  0  0  0  0  0  0  0  0  0
  -27.8210  -22.4430   19.0860 C   0  0  0  0  0  0  0  0  0  0  0  0
  -28.2970  -23.4750   19.9740 C   0  0  0  0  0  0  0  0  0  0  0  0
  -28.2200  -21.0560   19.1830 C   0  0  0  0  0  0  0  0  0  0  0  0
  -29.0320  -20.5560   20.2490 C   0  0  0  0  0  0  0  0  0  0  0  0
  -29.7130  -23.9790   22.0100 C   0  0  0  0  0  1  0  0  0  0  0  0
  -26.8150  -22.8240   17.9910 C   0  0  0  0  0  1  0  0  0  0  0  0
  -27.7910  -20.0930   18.0750 C   0  0  0  0  0  1  0  0  0  0  0  0
  -30.5160  -14.8350   20.1410 C   0  0  0  0  0  0  0  0  0  0  0  0
  -30.1750  -12.5770   19.1010 C   0  0  0  0  0  2  0  0  0  0  0  0
  -29.2120  -12.6480   17.9000 C   0  0  0  0  0  2  0  0  0  0  0  0
  -27.7630  -12.4480   18.3810 C   0  0  0  0  0  2  0  0  0  0  0  0
  -27.4240  -13.3330   19.6080 C   0  0  0  0  0  3  0  0  0  0  0  0
  -28.5220  -13.3020   20.6980 C   0  0  0  0  0  2  0  0  0  0  0  0
  -29.7910  -13.6570   20.0520 N   0  0  0  0  0  0  0  0  0  0  0  0
  -31.6890  -14.7950   19.7570 O   0  0  0  0  0  0  0  0  0  0  0  0
  -28.3110  -18.1190   20.5470 C   0  0  0  0  0  2  0  0  0  0  0  0
  -28.6980  -16.6440   20.1190 C   0  0  0  0  0  2  0  0  0  0  0  0
  -30.5130  -18.6840   21.1640 C   0  0  0  0  0  2  0  0  0  0  0  0
  -30.9570  -17.1560   21.0270 C   0  0  0  0  0  3  0  0  0  0  0  0
  -31.6600  -16.7490   22.3370 C   0  0  0  0  0  1  0  0  0  0  0  0
  -29.3670  -19.1320   20.3720 N   0  0  0  0  0  0  0  0  0  0  0  0
  -29.9940  -16.0700   20.5860 N   0  0  0  0  0  0  0  0  0  0  0  0
  -25.0640  -13.9030   20.4230 C   0  0  0  0  0  0  0  0  0  0  0  0
  -24.0160  -13.1210   20.8240 C   0  0  0  0  0  0  0  0  0  0  0  0
  -24.4860  -11.7740   20.7700 C   0  0  0  0  0  0  0  0  0  0  0  0
  -26.1040  -13.0320   20.1480 N   0  0  0  0  0  0  0  0  0  0  0  0
  -25.7680  -11.7460   20.4230 N   0  0  0  0  0  0  0  0  0  0  0  0
  -23.7730  -10.5070   20.9720 C   0  0  0  0  0  0  0  0  0  0  0  0
  -24.2230   -9.5530   21.9090 C   0  0  0  0  0  3  0  0  0  0  0  0
  -23.5130   -8.3480   22.1020 C   0  0  0  0  0  3  0  0  0  0  0  0
  -22.3370   -8.0910   21.3580 C   0  0  0  0  0  0  0  0  0  0  0  0
  -21.9070   -9.0350   20.4080 C   0  0  0  0  0  3  0  0  0  0  0  0
  -22.6190  -10.2310   20.2140 C   0  0  0  0  0  3  0  0  0  0  0  0
  -21.5960   -6.9400   21.4600 O   0  0  0  0  0  0  0  0  0  0  0  0
  -21.5530   -6.2110   22.6200 C   0  0  0  0  0  0  0  0  0  0  0  0
  -21.0960   -6.7680   23.8360 C   0  0  0  0  0  3  0  0  0  0  0  0
  -21.0020   -5.9620   24.9870 C   0  0  0  0  0  3  0  0  0  0  0  0
  -21.3570   -4.6010   24.9260 C   0  0  0  0  0  0  0  0  0  0  0  0
  -21.8070   -4.0430   23.7150 C   0  0  0  0  0  3  0  0  0  0  0  0
  -21.9020   -4.8460   22.5650 C   0  0  0  0  0  0  0  0  0  0  0  0
  -22.3140   -4.2990   21.3970 F   0  0  0  0  0  0  0  0  0  0  0  0
  -21.2610   -3.8240   26.0290 F   0  0  0  0  0  0  0  0  0  0  0  0
  -22.6250  -13.5910   21.1370 C   0  0  0  0  0  0  0  0  0  0  0  0
  -21.9150  -12.8790   22.0050 N   0  0  0  0  0  0  0  0  0  0  0  0
  -22.1750  -14.6250   20.6460 O   0  0  0  0  0  0  0  0  0  0  0  0
  -22.2920  -12.0450   22.4310 H   0  0  0  0  0  0  0  0  0  0  0  0
  -20.9810  -13.1750   22.2490 H   0  0  0  0  0  0  0  0  0  0  0  0
  -25.2070  -15.2750   20.2420 N   0  0  0  0  0  0  0  0  0  0  0  0
  -24.4300  -15.9140   20.3720 H   0  0  0  0  0  0  0  0  0  0  0  0
  -26.0230  -15.7180   19.8420 H   0  0  0  0  0  0  0  0  0  0  0  0
  -27.6700  -24.9560   19.8130 C   0  0  0  0  0  2  0  0  0  0  0  0
  -28.0730  -26.3220   20.3230 O   0  0  0  0  0  0  0  0  0  0  0  0
  -24.5940  -31.9820   23.3530 C   0  0  0  0  0  0  0  0  0  0  0  0
  -27.0490  -27.3210   20.2400 C   0  0  0  0  0  0  0  0  0  0  0  0
  -23.3440  -30.6190   21.7260 C   0  0  0  0  0  3  0  0  0  0  0  0
  -24.7460  -29.0660   20.2590 C   0  0  0  0  0  0  0  0  0  0  0  0
  -25.8970  -30.8650   21.5240 C   0  0  0  0  0  2  0  0  0  0  0  0
  -25.9380  -29.4870   20.8630 C   0  0  0  0  0  0  0  0  0  0  0  0
  -27.0900  -28.6240   20.8580 C   0  0  0  0  0  3  0  0  0  0  0  0
  -25.8390  -27.0190   19.5600 C   0  0  0  0  0  3  0  0  0  0  0  0
  -24.7060  -27.8410   19.5930 C   0  0  0  0  0  3  0  0  0  0  0  0
  -23.5290  -29.9650   20.3360 C   0  0  0  0  0  2  0  0  0  0  0  0
  -24.6330  -31.1730   22.2550 N   0  0  0  0  0  0  0  0  0  0  0  0
  -23.5210  -32.2790   23.8990 O   0  0  0  0  0  0  0  0  0  0  0  0
  -22.6740  -29.6040   22.6850 C   0  0  0  0  0  0  0  0  0  0  0  0
  -21.3490  -29.4180   22.5470 N   0  0  0  0  0  0  0  0  0  0  0  0
  -23.3450  -28.9890   23.5180 O   0  0  0  0  0  0  0  0  0  0  0  0
  -20.8650  -29.9640   21.8480 H   0  0  0  0  0  0  0  0  0  0  0  0
  -17.9750  -28.1880   22.9990 C   0  0  0  0  0  0  0  0  0  0  0  0
  -20.5230  -28.4870   23.3200 C   0  0  0  0  0  3  0  0  0  0  0  0
  -20.6580  -27.0460   22.7780 C   0  0  0  0  0  2  0  0  0  0  0  0
  -19.5820  -26.6860   21.7490 C   0  0  0  0  0  2  0  0  0  0  0  0
  -18.1840  -26.8270   22.3570 C   0  0  0  0  0  2  0  0  0  0  0  0
  -19.0740  -28.9750   23.4360 C   0  0  0  0  0  0  0  0  0  0  0  0
  -18.8230  -30.2480   23.9930 C   0  0  0  0  0  3  0  0  0  0  0  0
  -17.5070  -30.7330   24.1200 C   0  0  0  0  0  3  0  0  0  0  0  0
  -16.4230  -29.9410   23.7030 C   0  0  0  0  0  3  0  0  0  0  0  0
  -16.6570  -28.6720   23.1460 C   0  0  0  0  0  3  0  0  0  0  0  0
  -25.8960  -32.5900   23.9590 C   0  0  0  0  0  3  0  0  0  0  0  0
  -25.6180  -33.9960   24.2850 N   0  0  0  0  0  0  0  0  0  0  0  0
  -25.9240  -35.0360   23.4980 C   0  0  0  0  0  0  0  0  0  0  0  0
  -26.5430  -34.9130   22.4380 O   0  0  0  0  0  0  0  0  0  0  0  0
  -25.0680  -34.1670   25.1140 H   0  0  0  0  0  0  0  0  0  0  0  0
  -24.1850  -36.8340   23.2270 C   0  0  0  0  0  1  0  0  0  0  0  0
  -25.4740  -36.4350   23.9630 C   0  0  0  0  0  3  0  0  0  0  0  0
  -27.6590  -37.3280   24.6420 C   0  0  0  0  0  1  0  0  0  0  0  0
  -26.5020  -37.4800   23.7650 N   0  0  0  0  0  0  0  0  0  0  0  0
  -26.1070  -38.4050   23.9180 H   0  0  0  0  0  0  0  0  0  0  0  0
  -26.4050  -31.8130   25.2360 C   0  0  1  0  0  0  0  0  0  0  0  0
  -25.3130  -31.5970   26.3100 C   0  0  0  0  0  1  0  0  0  0  0  0
  -26.9650  -30.4240   24.8500 C   0  0  0  0  0  1  0  0  0  0  0  0
  -27.5690  -32.5910   25.8890 C   0  0  0  0  0  1  0  0  0  0  0  0
  2  1  1  0
  2  7  1  0
  3  5  2  0
  3  4  1  0
  4  2  2  0
  5  6  1  0
  6 23  1  0
  6  1  2  0
  8  3  1  0
  9  5  1  0
 10 24  1  0
 11 16  1  0
 12 13  1  0
 12 11  1  0
 14 13  1  0
 14 28  1  0
 14 15  1  0
 16 10  1  0
 16 15  1  0
 17 10  2  0
 19 18  1  0
 19 24  1  0
 21 20  1  0
 21 22  1  0
 23 18  1  0
 23 20  1  0
 24 21  1  0
 25 26  2  0
 26 45  1  0
 27 26  1  0
 27 30  1  0
 28 25  1  0
 28 29  1  0
 29 27  2  0
 30 31  1  0
 31 32  2  0
 33 36  1  0
 33 32  1  0
 34 33  2  0
 35 34  1  0
 35 30  2  0
 36 37  1  0
 37 38  1  0
 38 39  2  0
 40 39  1  0
 40 44  1  0
 41 40  2  0
 42 37  2  0
 42 41  1  0
 43 42  1  0
 45 46  1  0
 46 49  1  0
 46 48  1  0
 47 45  2  0
 50 51  1  0
 50 25  1  0
 52 50  1  0
 53  4  1  0
 53 54  1  0
 55 66  2  0
 56 54  1  0
 56 61  1  0
 57 65  1  0
 57 67  1  0
 58 64  1  0
 58 60  1  0
 59 65  1  0
 60 59  1  0
 61 60  2  0
 62 63  1  0
 62 56  2  0
 63 58  2  0
 64 57  1  0
 65 55  1  0
 67 69  2  0
 68 67  1  0
 70 68  1  0
 71 80  2  0
 71 76  1  0
 72 68  1  0
 72 76  1  0
 73 72  1  0
 74 75  1  0
 74 73  1  0
 75 71  1  0
 76 77  2  0
 77 78  1  0
 79 78  2  0
 80 79  1  0
 81 55  1  0
 81 82  1  0
 81 91  1  0
 82 85  1  0
 83 87  1  0
 83 82  1  0
 84 83  2  0
 87 86  1  0
 89 90  1  0
 89 87  1  0
 89 88  1  0
 91 94  1  1
 91 92  1  0
 93 91  1  0
M  ISO  4  10 100  24 100  53 101  54 101
M  END
>  <TORSDO>  (33) 
F 17

>  <SCORE>  (33) 
-14.510

>  <name>  (33) 
32

>  <ligand_id>  (33) 
32

>  <original_smiles>  (33) 
[H]c1c([H])c([H])c2c(c1[H])C([H])([H])C([H])([H])C([H])([H])C2([H])N([H])C(=O)C1([H])N(C(=O)C([H])(N([H])C(=O)C([H])(N([H])C([H])([H])[H])C([H])([H])[H])C(C([H])([H])[H])(C([H])([H])[H])C([H])([H])[H])C([H])([H])c2c([H])c(OC([H])([H])c3c(C([H])([H])[H])c([H])c(N4C([H])([H])C([H])([H])N(C(=O)N5C([H])([H])C([H])([H])C([H])([H])C([H])(n6nc(-c7c([H])c([H])c(Oc8c([H])c([H])c(F)c([H])c8F)c([H])c7[H])c(C(=O)N([H])[H])c6N([H])[H])C5([H])[H])C([H])(C([H])([H])[H])C4([H])[H])c(C([H])([H])[H])c3C([H])([H])[H])c([H])c([H])c2C1([H])[H]

>  <smiles>  (33) 
[H]c1c([H])c([H])c2c(c1[H])C([H])([H])C([H])([H])C([H])([H])C2([H])N([H])C(=O)C1([H])N(C(=O)C([H])(N([H])C(=O)C([H])(N([H])C([H])([H])[H])C([H])([H])[H])C(C([H])([H])[H])(C([H])([H])[H])C([H])([H])[H])C([H])([H])c2c([H])c(OC([H])([H])c3c(C([H])([H])[H])c([H])c(N4C([H])([H])C([H])([H])N(C(=O)N5C([H])([H])C([H])([H])C([H])([H])C([H])(n6nc(-c7c([H])c([H])c(Oc8c([H])c([H])c(F)c([H])c8F)c([H])c7[H])c(C(=O)N([H])[H])c6N([H])[H])C5([H])[H])C([H])(C([H])([H])[H])C4([H])[H])c(C([H])([H])[H])c3C([H])([H])[H])c([H])c([H])c2C1([H])[H]

$$$$
33:0:0
     RDKit          3D

 96105  0  0  1  0  0  0  0  0999 V2000
  -29.2290  -23.4310   21.5260 C   0  0  0  0  0  0  0  0  0  0  0  0
  -28.9310  -23.2280   19.1060 C   0  0  0  0  0  0  0  0  0  0  0  0
  -29.3110  -22.6350   20.3460 C   0  0  0  0  0  0  0  0  0  0  0  0
  -28.8600  -24.8060   21.4460 C   0  0  0  0  0  0  0  0  0  0  0  0
  -28.6200  -24.6160   19.0280 C   0  0  0  0  0  0  0  0  0  0  0  0
  -28.5900  -25.4170   20.1970 C   0  0  0  0  0  0  0  0  0  0  0  0
  -29.5620  -22.8500   22.9010 C   0  0  0  0  0  1  0  0  0  0  0  0
  -28.9020  -22.3840   17.8320 C   0  0  0  0  0  1  0  0  0  0  0  0
  -28.8220  -25.6520   22.7140 C   0  0  0  0  0  1  0  0  0  0  0  0
  -28.3750  -25.2710   17.6720 C   0  0  0  0  0  1  0  0  0  0  0  0
  -28.4790  -26.7980   20.1020 O   0  0  0  0  0  0  0  0  0  0  0  0
  -24.6560  -31.9140   23.2890 C   0  0  0  0  0  0  0  0  0  0  0  0
  -27.2750  -27.4750   20.1680 C   0  0  0  0  0  0  0  0  0  0  0  0
  -23.4370  -30.5270   21.6420 C   0  0  0  0  0  3  0  0  0  0  0  0
  -24.8780  -28.9870   20.2040 C   0  0  0  0  0  0  0  0  0  0  0  0
  -25.9610  -30.8790   21.4320 C   0  0  0  0  0  2  0  0  0  0  0  0
  -26.0390  -29.5070   20.7880 C   0  0  0  0  0  0  0  0  0  0  0  0
  -27.2380  -28.7580   20.7640 C   0  0  0  0  0  3  0  0  0  0  0  0
  -26.0920  -26.9630   19.5910 C   0  0  0  0  0  3  0  0  0  0  0  0
  -24.8990  -27.7140   19.6060 C   0  0  0  0  0  3  0  0  0  0  0  0
  -23.6380  -29.8530   20.2580 C   0  0  0  0  0  2  0  0  0  0  0  0
  -24.7030  -31.1210   22.1790 N   0  0  0  0  0  0  0  0  0  0  0  0
  -23.5790  -32.1840   23.8380 O   0  0  0  0  0  0  0  0  0  0  0  0
  -22.7870  -29.5020   22.5990 C   0  0  0  0  0  0  0  0  0  0  0  0
  -21.4630  -29.3160   22.4700 N   0  0  0  0  0  0  0  0  0  0  0  0
  -23.4710  -28.8770   23.4140 O   0  0  0  0  0  0  0  0  0  0  0  0
  -20.9720  -29.8740   21.7840 H   0  0  0  0  0  0  0  0  0  0  0  0
  -18.0920  -28.1090   22.9560 C   0  0  0  0  0  0  0  0  0  0  0  0
  -20.6480  -28.3720   23.2350 C   0  0  0  0  0  3  0  0  0  0  0  0
  -20.7560  -26.9450   22.6520 C   0  0  0  0  0  2  0  0  0  0  0  0
  -19.6580  -26.6230   21.6350 C   0  0  0  0  0  2  0  0  0  0  0  0
  -18.2740  -26.7620   22.2760 C   0  0  0  0  0  2  0  0  0  0  0  0
  -19.2080  -28.8710   23.3920 C   0  0  0  0  0  0  0  0  0  0  0  0
  -18.9860  -30.1320   23.9880 C   0  0  0  0  0  3  0  0  0  0  0  0
  -17.6800  -30.6310   24.1510 C   0  0  0  0  0  3  0  0  0  0  0  0
  -16.5790  -29.8650   23.7320 C   0  0  0  0  0  3  0  0  0  0  0  0
  -16.7850  -28.6060   23.1410 C   0  0  0  0  0  3  0  0  0  0  0  0
  -25.9480  -32.5360   23.9060 C   0  0  0  0  0  3  0  0  0  0  0  0
  -25.6450  -33.9310   24.2520 N   0  0  0  0  0  0  0  0  0  0  0  0
  -25.9540  -34.9880   23.4910 C   0  0  0  0  0  0  0  0  0  0  0  0
  -26.5990  -34.8920   22.4420 O   0  0  0  0  0  0  0  0  0  0  0  0
  -25.0680  -34.0800   25.0680 H   0  0  0  0  0  0  0  0  0  0  0  0
  -24.2020  -36.7700   23.2030 C   0  0  0  0  0  1  0  0  0  0  0  0
  -25.4750  -36.3730   23.9680 C   0  0  0  0  0  3  0  0  0  0  0  0
  -27.6320  -37.2710   24.7220 C   0  0  0  0  0  1  0  0  0  0  0  0
  -26.4960  -37.4330   23.8180 N   0  0  0  0  0  0  0  0  0  0  0  0
  -26.0890  -38.3510   23.9810 H   0  0  0  0  0  0  0  0  0  0  0  0
  -26.4760  -31.7490   25.1690 C   0  0  1  0  0  0  0  0  0  0  0  0
  -25.3920  -31.4980   26.2430 C   0  0  0  0  0  1  0  0  0  0  0  0
  -27.0550  -30.3760   24.7530 C   0  0  0  0  0  1  0  0  0  0  0  0
  -27.6320  -32.5350   25.8300 C   0  0  0  0  0  1  0  0  0  0  0  0
  -29.9070  -21.2000   20.3740 C   0  0  0  0  0  2  0  0  0  0  0  0
  -28.9530  -20.0630   20.8370 C   0  0  0  0  0  2  0  0  0  0  0  0
  -30.7510  -14.6220   20.1350 C   0  0  0  0  0  0  0  0  0  0  0  0
  -30.3790  -12.4500   19.0000 C   0  0  0  0  0  2  0  0  0  0  0  0
  -29.3840  -12.6080   17.8330 C   0  0  0  0  0  2  0  0  0  0  0  0
  -27.9390  -12.4070   18.3300 C   0  0  0  0  0  2  0  0  0  0  0  0
  -27.6360  -13.2480   19.5930 C   0  0  0  0  0  3  0  0  0  0  0  0
  -28.7550  -13.0970   20.6600 C   0  0  0  0  0  2  0  0  0  0  0  0
  -30.0270  -13.4600   20.0230 N   0  0  0  0  0  0  0  0  0  0  0  0
  -31.8980  -14.6660   19.6840 O   0  0  0  0  0  0  0  0  0  0  0  0
  -28.8380  -16.2310   20.3330 C   0  0  0  0  0  2  0  0  0  0  0  0
  -31.1600  -16.8530   21.0650 C   0  0  0  0  0  2  0  0  0  0  0  0
  -28.4000  -17.6600   20.7310 C   0  0  0  0  0  2  0  0  0  0  0  0
  -30.5910  -18.2430   21.4700 C   0  0  0  0  0  2  0  0  0  0  0  0
  -30.2050  -15.7720   20.6760 N   0  0  0  0  0  0  0  0  0  0  0  0
  -29.4680  -18.6690   20.6040 N   0  0  2  0  0  4  0  0  0  0  0  0
  -29.7890  -18.6380   19.6490 H   0  0  0  0  0  0  0  0  0  0  0  0
  -25.2860  -13.8500   20.4400 C   0  0  0  0  0  0  0  0  0  0  0  0
  -24.2380  -13.0720   20.8520 C   0  0  0  0  0  0  0  0  0  0  0  0
  -24.6990  -11.7220   20.7710 C   0  0  0  0  0  0  0  0  0  0  0  0
  -26.3150  -12.9700   20.1400 N   0  0  0  0  0  0  0  0  0  0  0  0
  -25.9710  -11.6870   20.4000 N   0  0  0  0  0  0  0  0  0  0  0  0
  -23.9850  -10.4570   20.9640 C   0  0  0  0  0  0  0  0  0  0  0  0
  -24.4340   -9.4940   21.8930 C   0  0  0  0  0  3  0  0  0  0  0  0
  -23.7220   -8.2890   22.0740 C   0  0  0  0  0  3  0  0  0  0  0  0
  -22.5480   -8.0410   21.3240 C   0  0  0  0  0  0  0  0  0  0  0  0
  -22.1190   -8.9930   20.3820 C   0  0  0  0  0  3  0  0  0  0  0  0
  -22.8320  -10.1890   20.1990 C   0  0  0  0  0  3  0  0  0  0  0  0
  -21.8050   -6.8890   21.4150 O   0  0  0  0  0  0  0  0  0  0  0  0
  -21.7190   -6.1800   22.5870 C   0  0  0  0  0  0  0  0  0  0  0  0
  -21.2380   -6.7640   23.7790 C   0  0  0  0  0  3  0  0  0  0  0  0
  -21.1030   -5.9790   24.9420 C   0  0  0  0  0  3  0  0  0  0  0  0
  -21.4390   -4.6120   24.9120 C   0  0  0  0  0  0  0  0  0  0  0  0
  -21.9130   -4.0280   23.7250 C   0  0  0  0  0  3  0  0  0  0  0  0
  -22.0500   -4.8100   22.5640 C   0  0  0  0  0  0  0  0  0  0  0  0
  -22.4880   -4.2390   21.4160 F   0  0  0  0  0  0  0  0  0  0  0  0
  -21.3020   -3.8550   26.0250 F   0  0  0  0  0  0  0  0  0  0  0  0
  -22.8560  -13.5430   21.1960 C   0  0  0  0  0  0  0  0  0  0  0  0
  -22.1710  -12.8320   22.0850 N   0  0  0  0  0  0  0  0  0  0  0  0
  -22.3930  -14.5750   20.7120 O   0  0  0  0  0  0  0  0  0  0  0  0
  -22.5590  -11.9960   22.4950 H   0  0  0  0  0  0  0  0  0  0  0  0
  -21.2460  -13.1300   22.3620 H   0  0  0  0  0  0  0  0  0  0  0  0
  -25.4330  -15.2240   20.2690 N   0  0  0  0  0  0  0  0  0  0  0  0
  -24.6400  -15.8470   20.3790 H   0  0  0  0  0  0  0  0  0  0  0  0
  -26.1890  -15.6340   19.7410 H   0  0  0  0  0  0  0  0  0  0  0  0
  1  7  1  0
  2  3  1  0
  3 52  1  0
  3  1  2  0
  4  1  1  0
  4  9  1  0
  5  2  2  0
  5  6  1  0
  6  4  2  0
  8  2  1  0
 10  5  1  0
 11 13  1  0
 11  6  1  0
 12 23  2  0
 13 18  1  0
 14 22  1  0
 14 24  1  0
 15 21  1  0
 15 17  1  0
 16 22  1  0
 17 16  1  0
 18 17  2  0
 19 20  1  0
 19 13  2  0
 20 15  2  0
 21 14  1  0
 22 12  1  0
 24 26  2  0
 25 24  1  0
 27 25  1  0
 28 37  2  0
 28 33  1  0
 29 25  1  0
 29 33  1  0
 30 29  1  0
 31 32  1  0
 31 30  1  0
 32 28  1  0
 33 34  2  0
 34 35  1  0
 36 35  2  0
 37 36  1  0
 38 12  1  0
 38 39  1  0
 38 48  1  0
 39 42  1  0
 40 44  1  0
 40 39  1  0
 41 40  2  0
 44 43  1  0
 46 44  1  0
 46 47  1  0
 46 45  1  0
 48 51  1  1
 48 49  1  0
 50 48  1  0
 52 53  1  0
 54 66  1  0
 55 60  1  0
 56 57  1  0
 56 55  1  0
 58 57  1  0
 58 72  1  0
 58 59  1  0
 60 54  1  0
 60 59  1  0
 61 54  2  0
 62 66  1  0
 62 64  1  0
 63 65  1  0
 66 63  1  0
 67 64  1  0
 67 53  1  0
 67 65  1  0
 67 68  1  6
 69 70  2  0
 70 89  1  0
 71 70  1  0
 71 74  1  0
 72 73  1  0
 72 69  1  0
 73 71  2  0
 74 75  1  0
 75 76  2  0
 77 80  1  0
 77 76  1  0
 78 77  2  0
 79 78  1  0
 79 74  2  0
 80 81  1  0
 81 82  1  0
 82 83  2  0
 84 83  1  0
 84 88  1  0
 85 84  2  0
 86 81  2  0
 86 85  1  0
 87 86  1  0
 89 90  1  0
 90 93  1  0
 90 92  1  0
 91 89  2  0
 94 95  1  0
 94 69  1  0
 96 94  1  0
M  ISO  4   6 101  11 101  54 100  66 100
M  END
>  <TORSDO>  (34) 
F 18

>  <SCORE>  (34) 
-14.939

>  <name>  (34) 
33

>  <ligand_id>  (34) 
33

>  <original_smiles>  (34) 
[H]c1c([H])c([H])c2c(c1[H])C([H])([H])C([H])([H])C([H])([H])C2([H])N([H])C(=O)C1([H])N(C(=O)C([H])(N([H])C(=O)C([H])(N([H])C([H])([H])[H])C([H])([H])[H])C(C([H])([H])[H])(C([H])([H])[H])C([H])([H])[H])C([H])([H])c2c([H])c(Oc3c(C([H])([H])[H])c(C([H])([H])[H])c(C([H])([H])C([H])([H])[N+]4([H])C([H])([H])C([H])([H])N(C(=O)N5C([H])([H])C([H])([H])C([H])([H])C([H])(n6nc(-c7c([H])c([H])c(Oc8c([H])c([H])c(F)c([H])c8F)c([H])c7[H])c(C(=O)N([H])[H])c6N([H])[H])C5([H])[H])C([H])([H])C4([H])[H])c(C([H])([H])[H])c3C([H])([H])[H])c([H])c([H])c2C1([H])[H]

>  <smiles>  (34) 
[H]c1c([H])c([H])c2c(c1[H])C([H])([H])C([H])([H])C([H])([H])C2([H])N([H])C(=O)C1([H])N(C(=O)C([H])(N([H])C(=O)C([H])(N([H])C([H])([H])[H])C([H])([H])[H])C(C([H])([H])[H])(C([H])([H])[H])C([H])([H])[H])C([H])([H])c2c([H])c(Oc3c(C([H])([H])[H])c(C([H])([H])[H])c(C([H])([H])C([H])([H])[N+]4([H])C([H])([H])C([H])([H])N(C(=O)N5C([H])([H])C([H])([H])C([H])([H])C([H])(n6nc(-c7c([H])c([H])c(Oc8c([H])c([H])c(F)c([H])c8F)c([H])c7[H])c(C(=O)N([H])[H])c6N([H])[H])C5([H])[H])C([H])([H])C4([H])[H])c(C([H])([H])[H])c3C([H])([H])[H])c([H])c([H])c2C1([H])[H]

$$$$
34:0:0
     RDKit          3D

 97106  0  0  1  0  0  0  0  0999 V2000
  -29.3450  -24.2340   19.4480 C   0  0  0  0  0  3  0  0  0  0  0  0
  -29.3900  -22.8270   19.3600 C   0  0  0  0  0  3  0  0  0  0  0  0
  -29.1430  -24.8830   20.6840 C   0  0  0  0  0  0  0  0  0  0  0  0
  -28.9810  -24.0800   21.8510 C   0  0  0  0  0  0  0  0  0  0  0  0
  -29.0570  -22.6560   21.7640 C   0  0  0  0  0  0  0  0  0  0  0  0
  -29.2730  -22.0210   20.5130 C   0  0  0  0  0  0  0  0  0  0  0  0
  -28.7080  -24.7660   23.1880 C   0  0  0  0  0  1  0  0  0  0  0  0
  -28.9010  -21.7890   23.0070 C   0  0  0  0  0  1  0  0  0  0  0  0
  -29.1870  -26.4250   20.7350 C   0  0  0  0  0  2  0  0  0  0  0  0
  -28.7530  -27.0770   19.5310 O   0  0  0  0  0  0  0  0  0  0  0  0
  -24.7370  -31.7780   23.1020 C   0  0  0  0  0  0  0  0  0  0  0  0
  -27.5620  -27.7550   19.6390 C   0  0  0  0  0  0  0  0  0  0  0  0
  -23.5700  -30.4170   21.3950 C   0  0  0  0  0  3  0  0  0  0  0  0
  -25.0770  -29.0880   19.8190 C   0  0  0  0  0  0  0  0  0  0  0  0
  -26.0590  -30.9590   21.1560 C   0  0  0  0  0  2  0  0  0  0  0  0
  -26.2140  -29.6430   20.4200 C   0  0  0  0  0  0  0  0  0  0  0  0
  -27.4600  -28.9790   20.3370 C   0  0  0  0  0  3  0  0  0  0  0  0
  -26.4150  -27.2140   19.0250 C   0  0  0  0  0  3  0  0  0  0  0  0
  -25.1700  -27.8690   19.1230 C   0  0  0  0  0  3  0  0  0  0  0  0
  -23.7790  -29.8530   19.9640 C   0  0  0  0  0  2  0  0  0  0  0  0
  -24.8070  -31.0650   21.9430 N   0  0  0  0  0  0  0  0  0  0  0  0
  -23.6600  -31.9380   23.6930 O   0  0  0  0  0  0  0  0  0  0  0  0
  -23.0230  -29.2870   22.2950 C   0  0  0  0  0  0  0  0  0  0  0  0
  -21.7190  -28.9940   22.1630 N   0  0  0  0  0  0  0  0  0  0  0  0
  -23.7680  -28.6780   23.0680 O   0  0  0  0  0  0  0  0  0  0  0  0
  -21.1770  -29.5470   21.5150 H   0  0  0  0  0  0  0  0  0  0  0  0
  -18.4810  -27.4390   22.5490 C   0  0  0  0  0  0  0  0  0  0  0  0
  -20.9940  -27.9430   22.8770 C   0  0  0  0  0  3  0  0  0  0  0  0
  -21.2520  -26.5570   22.2400 C   0  0  0  0  0  2  0  0  0  0  0  0
  -20.2010  -26.1700   21.1950 C   0  0  0  0  0  2  0  0  0  0  0  0
  -18.8020  -26.1460   21.8190 C   0  0  0  0  0  2  0  0  0  0  0  0
  -19.5090  -28.2900   23.0300 C   0  0  0  0  0  0  0  0  0  0  0  0
  -19.1550  -29.4990   23.6690 C   0  0  0  0  0  3  0  0  0  0  0  0
  -17.8040  -29.8580   23.8330 C   0  0  0  0  0  3  0  0  0  0  0  0
  -16.7900  -29.0010   23.3720 C   0  0  0  0  0  3  0  0  0  0  0  0
  -17.1280  -27.7940   22.7350 C   0  0  0  0  0  3  0  0  0  0  0  0
  -26.0010  -32.4480   23.7270 C   0  0  0  0  0  3  0  0  0  0  0  0
  -25.6310  -33.8160   24.1130 N   0  0  0  0  0  0  0  0  0  0  0  0
  -25.9130  -34.9110   23.3930 C   0  0  0  0  0  0  0  0  0  0  0  0
  -26.5850  -34.8780   22.3580 O   0  0  0  0  0  0  0  0  0  0  0  0
  -25.0370  -33.9130   24.9230 H   0  0  0  0  0  0  0  0  0  0  0  0
  -24.1000  -36.6310   23.1060 C   0  0  0  0  0  1  0  0  0  0  0  0
  -25.3610  -36.2570   23.9010 C   0  0  0  0  0  3  0  0  0  0  0  0
  -27.4510  -37.2110   24.7660 C   0  0  0  0  0  1  0  0  0  0  0  0
  -26.3420  -37.3630   23.8280 N   0  0  0  0  0  0  0  0  0  0  0  0
  -25.8930  -38.2550   24.0110 H   0  0  0  0  0  0  0  0  0  0  0  0
  -26.5790  -31.6570   24.9640 C   0  0  1  0  0  0  0  0  0  0  0  0
  -25.5180  -31.3200   26.0380 C   0  0  0  0  0  1  0  0  0  0  0  0
  -27.2270  -30.3290   24.5080 C   0  0  0  0  0  1  0  0  0  0  0  0
  -27.7000  -32.4830   25.6380 C   0  0  0  0  0  1  0  0  0  0  0  0
  -29.2400  -20.6410   20.3820 O   0  0  0  0  0  0  0  0  0  0  0  0
  -31.3170  -14.9690   20.0190 C   0  0  0  0  0  0  0  0  0  0  0  0
  -31.0240  -12.7660   18.9280 C   0  0  0  0  0  2  0  0  0  0  0  0
  -30.0140  -12.9180   17.7720 C   0  0  0  0  0  2  0  0  0  0  0  0
  -28.5670  -12.7670   18.2820 C   0  0  0  0  0  2  0  0  0  0  0  0
  -28.2810  -13.6230   19.5450 C   0  0  0  0  0  3  0  0  0  0  0  0
  -29.3970  -13.4410   20.5980 C   0  0  0  0  0  2  0  0  0  0  0  0
  -30.6760  -13.7680   19.9500 N   0  0  0  0  0  0  0  0  0  0  0  0
  -32.4300  -15.1360   19.5050 O   0  0  0  0  0  0  0  0  0  0  0  0
  -29.9680  -18.3750   20.5070 C   0  0  0  0  0  3  0  0  0  0  0  0
  -31.6160  -20.0710   21.0510 C   0  0  0  0  0  0  0  0  0  0  0  0
  -30.2820  -19.7520   20.6580 C   0  0  0  0  0  0  0  0  0  0  0  0
  -32.5190  -18.9970   21.2520 C   0  0  0  0  0  0  0  0  0  0  0  0
  -30.9420  -17.3630   20.6920 C   0  0  0  0  0  0  0  0  0  0  0  0
  -32.0930  -21.5080   21.2550 C   0  0  0  0  0  1  0  0  0  0  0  0
  -33.9660  -19.1980   21.6720 C   0  0  0  0  0  1  0  0  0  0  0  0
  -32.1850  -17.7050   21.0780 N   0  0  0  0  0  0  0  0  0  0  0  0
  -30.5680  -15.9950   20.4980 N   0  0  0  0  0  0  0  0  0  0  0  0
  -29.6110  -15.7610   20.7080 H   0  0  0  0  0  0  0  0  0  0  0  0
  -25.9510  -14.2230   20.4520 C   0  0  0  0  0  0  0  0  0  0  0  0
  -24.8990  -13.4470   20.8580 C   0  0  0  0  0  0  0  0  0  0  0  0
  -25.3340  -12.0930   20.7230 C   0  0  0  0  0  0  0  0  0  0  0  0
  -26.9610  -13.3420   20.1010 N   0  0  0  0  0  0  0  0  0  0  0  0
  -26.5980  -12.0520   20.3200 N   0  0  0  0  0  0  0  0  0  0  0  0
  -24.6010  -10.8320   20.8980 C   0  0  0  0  0  0  0  0  0  0  0  0
  -24.9830   -9.8860   21.8740 C   0  0  0  0  0  3  0  0  0  0  0  0
  -24.2510   -8.6890   22.0340 C   0  0  0  0  0  3  0  0  0  0  0  0
  -23.1250   -8.4300   21.2180 C   0  0  0  0  0  0  0  0  0  0  0  0
  -22.7650   -9.3650   20.2320 C   0  0  0  0  0  3  0  0  0  0  0  0
  -23.4970  -10.5530   20.0690 C   0  0  0  0  0  3  0  0  0  0  0  0
  -22.3700   -7.2840   21.2860 O   0  0  0  0  0  0  0  0  0  0  0  0
  -22.1130   -6.6620   22.4800 C   0  0  0  0  0  0  0  0  0  0  0  0
  -21.4400   -7.3190   23.5330 C   0  0  0  0  0  3  0  0  0  0  0  0
  -21.1340   -6.6210   24.7170 C   0  0  0  0  0  3  0  0  0  0  0  0
  -21.4900   -5.2660   24.8490 C   0  0  0  0  0  0  0  0  0  0  0  0
  -22.1540   -4.6070   23.7990 C   0  0  0  0  0  3  0  0  0  0  0  0
  -22.4620   -5.3020   22.6170 C   0  0  0  0  0  0  0  0  0  0  0  0
  -23.0840   -4.6580   21.6010 F   0  0  0  0  0  0  0  0  0  0  0  0
  -21.1880   -4.5910   25.9830 F   0  0  0  0  0  0  0  0  0  0  0  0
  -23.5320  -13.9270   21.2530 C   0  0  0  0  0  0  0  0  0  0  0  0
  -22.8630  -13.2080   22.1480 N   0  0  0  0  0  0  0  0  0  0  0  0
  -23.0670  -14.9740   20.8030 O   0  0  0  0  0  0  0  0  0  0  0  0
  -23.2520  -12.3600   22.5320 H   0  0  0  0  0  0  0  0  0  0  0  0
  -21.9500  -13.5100   22.4540 H   0  0  0  0  0  0  0  0  0  0  0  0
  -26.1220  -15.6000   20.3330 N   0  0  0  0  0  0  0  0  0  0  0  0
  -25.3650  -16.2480   20.5240 H   0  0  0  0  0  0  0  0  0  0  0  0
  -26.9260  -16.0470   19.9130 H   0  0  0  0  0  0  0  0  0  0  0  0
  1  3  1  0
  2  1  2  0
  2  6  1  0
  3  9  1  0
  3  4  2  0
  4  7  1  0
  5  4  1  0
  5  8  1  0
  6  5  2  0
 10 12  1  0
 10  9  1  0
 11 22  2  0
 12 17  1  0
 13 21  1  0
 13 23  1  0
 14 20  1  0
 14 16  1  0
 15 21  1  0
 16 15  1  0
 17 16  2  0
 18 19  1  0
 18 12  2  0
 19 14  2  0
 20 13  1  0
 21 11  1  0
 23 25  2  0
 24 23  1  0
 26 24  1  0
 27 36  2  0
 27 32  1  0
 28 24  1  0
 28 32  1  0
 29 28  1  0
 30 31  1  0
 30 29  1  0
 31 27  1  0
 32 33  2  0
 33 34  1  0
 35 34  2  0
 36 35  1  0
 37 11  1  0
 37 38  1  0
 37 47  1  0
 38 41  1  0
 39 43  1  0
 39 38  1  0
 40 39  2  0
 43 42  1  0
 45 43  1  0
 45 46  1  0
 45 44  1  0
 47 50  1  1
 47 48  1  0
 49 47  1  0
 51  6  1  0
 51 62  1  0
 52 68  1  0
 53 58  1  0
 54 55  1  0
 54 53  1  0
 56 55  1  0
 56 73  1  0
 56 57  1  0
 58 52  1  0
 58 57  1  0
 59 52  2  0
 60 62  2  0
 60 64  1  0
 61 63  2  0
 61 65  1  0
 62 61  1  0
 63 66  1  0
 64 67  2  0
 67 63  1  0
 68 64  1  0
 68 69  1  0
 70 71  2  0
 71 90  1  0
 72 71  1  0
 72 75  1  0
 73 74  1  0
 73 70  1  0
 74 72  2  0
 75 76  1  0
 76 77  2  0
 78 81  1  0
 78 77  1  0
 79 78  2  0
 80 79  1  0
 80 75  2  0
 81 82  1  0
 82 87  2  0
 82 83  1  0
 83 84  2  0
 84 85  1  0
 85 89  1  0
 86 85  2  0
 87 86  1  0
 88 87  1  0
 90 91  1  0
 91 94  1  0
 91 93  1  0
 92 90  2  0
 95 70  1  0
 95 96  1  0
 97 95  1  0
M  ISO  4   9 101  10 101  52 100  68 100
M  END
>  <TORSDO>  (35) 
F 18

>  <SCORE>  (35) 
-12.281

>  <name>  (35) 
34

>  <ligand_id>  (35) 
34

>  <original_smiles>  (35) 
[H]c1c([H])c([H])c2c(c1[H])C([H])([H])C([H])([H])C([H])([H])C2([H])N([H])C(=O)C1([H])N(C(=O)C([H])(N([H])C(=O)C([H])(N([H])C([H])([H])[H])C([H])([H])[H])C(C([H])([H])[H])(C([H])([H])[H])C([H])([H])[H])C([H])([H])c2c([H])c(OC([H])([H])c3c([H])c([H])c(Oc4c([H])c(N([H])C(=O)N5C([H])([H])C([H])([H])C([H])([H])C([H])(n6nc(-c7c([H])c([H])c(Oc8c([H])c([H])c(F)c([H])c8F)c([H])c7[H])c(C(=O)N([H])[H])c6N([H])[H])C5([H])[H])nc(C([H])([H])[H])c4C([H])([H])[H])c(C([H])([H])[H])c3C([H])([H])[H])c([H])c([H])c2C1([H])[H]

>  <smiles>  (35) 
[H]c1c([H])c([H])c2c(c1[H])C([H])([H])C([H])([H])C([H])([H])C2([H])N([H])C(=O)C1([H])N(C(=O)C([H])(N([H])C(=O)C([H])(N([H])C([H])([H])[H])C([H])([H])[H])C(C([H])([H])[H])(C([H])([H])[H])C([H])([H])[H])C([H])([H])c2c([H])c(OC([H])([H])c3c([H])c([H])c(Oc4c([H])c(N([H])C(=O)N5C([H])([H])C([H])([H])C([H])([H])C([H])(n6nc(-c7c([H])c([H])c(Oc8c([H])c([H])c(F)c([H])c8F)c([H])c7[H])c(C(=O)N([H])[H])c6N([H])[H])C5([H])[H])nc(C([H])([H])[H])c4C([H])([H])[H])c(C([H])([H])[H])c3C([H])([H])[H])c([H])c([H])c2C1([H])[H]

$$$$
35:0:0
     RDKit          3D

 96106  0  0  1  0  0  0  0  0999 V2000
  -30.2690  -20.1660   20.0170 C   0  0  0  0  0  3  0  0  0  0  0  0
  -30.2140  -20.6600   22.3850 C   0  0  0  0  0  3  0  0  0  0  0  0
  -30.3310  -19.7160   21.3480 C   0  0  0  0  0  0  0  0  0  0  0  0
  -29.9320  -22.4900   20.7630 C   0  0  0  0  0  0  0  0  0  0  0  0
  -30.0550  -21.5300   19.7140 C   0  0  0  0  0  0  0  0  0  0  0  0
  -30.0110  -22.0370   22.1110 C   0  0  0  0  0  0  0  0  0  0  0  0
  -29.9270  -21.8840   18.2430 C   0  0  0  0  0  1  0  0  0  0  0  0
  -30.9820  -14.4980   20.0140 C   0  0  0  0  0  0  0  0  0  0  0  0
  -30.5260  -12.4210   18.7380 C   0  0  0  0  0  2  0  0  0  0  0  0
  -29.4780  -12.6590   17.6310 C   0  0  0  0  0  2  0  0  0  0  0  0
  -28.0480  -12.5000   18.1820 C   0  0  0  0  0  2  0  0  0  0  0  0
  -27.8350  -13.2950   19.4950 C   0  0  0  0  0  3  0  0  0  0  0  0
  -28.9790  -12.9830   20.4940 C   0  0  0  0  0  2  0  0  0  0  0  0
  -30.2500  -13.3520   19.8510 N   0  0  0  0  0  0  0  0  0  0  0  0
  -31.9870  -14.7070   19.3230 O   0  0  0  0  0  0  0  0  0  0  0  0
  -29.3200  -17.4180   20.9910 C   0  0  0  0  0  2  0  0  0  0  0  0
  -31.7900  -17.5770   21.3540 C   0  0  0  0  0  2  0  0  0  0  0  0
  -29.3870  -15.9310   21.3770 C   0  0  0  0  0  2  0  0  0  0  0  0
  -31.7850  -16.0750   21.7380 C   0  0  0  0  0  2  0  0  0  0  0  0
  -30.4300  -18.2250   21.6770 C   0  0  0  0  0  3  0  0  0  0  0  0
  -30.7010  -15.3290   21.0640 N   0  0  0  0  0  0  0  0  0  0  0  0
  -25.5240  -13.9340   20.4370 C   0  0  0  0  0  0  0  0  0  0  0  0
  -24.4720  -13.1710   20.8650 C   0  0  0  0  0  0  0  0  0  0  0  0
  -24.8900  -11.8120   20.7290 C   0  0  0  0  0  0  0  0  0  0  0  0
  -26.5210  -13.0390   20.0760 N   0  0  0  0  0  0  0  0  0  0  0  0
  -26.1460  -11.7560   20.3060 N   0  0  0  0  0  0  0  0  0  0  0  0
  -24.1520  -10.5590   20.9230 C   0  0  0  0  0  0  0  0  0  0  0  0
  -24.5940   -9.5770   21.8370 C   0  0  0  0  0  3  0  0  0  0  0  0
  -23.8590   -8.3870   22.0180 C   0  0  0  0  0  3  0  0  0  0  0  0
  -22.6680   -8.1700   21.2850 C   0  0  0  0  0  0  0  0  0  0  0  0
  -22.2450   -9.1400   20.3600 C   0  0  0  0  0  3  0  0  0  0  0  0
  -22.9800  -10.3230   20.1770 C   0  0  0  0  0  3  0  0  0  0  0  0
  -21.9030   -7.0320   21.3770 O   0  0  0  0  0  0  0  0  0  0  0  0
  -21.8010   -6.3260   22.5480 C   0  0  0  0  0  0  0  0  0  0  0  0
  -21.3220   -6.9200   23.7370 C   0  0  0  0  0  3  0  0  0  0  0  0
  -21.1670   -6.1400   24.9000 C   0  0  0  0  0  3  0  0  0  0  0  0
  -21.4810   -4.7680   24.8760 C   0  0  0  0  0  0  0  0  0  0  0  0
  -21.9530   -4.1740   23.6930 C   0  0  0  0  0  3  0  0  0  0  0  0
  -22.1100   -4.9510   22.5320 C   0  0  0  0  0  0  0  0  0  0  0  0
  -22.5450   -4.3690   21.3880 F   0  0  0  0  0  0  0  0  0  0  0  0
  -21.3250   -4.0160   25.9910 F   0  0  0  0  0  0  0  0  0  0  0  0
  -23.1160  -13.6640   21.2830 C   0  0  0  0  0  0  0  0  0  0  0  0
  -22.4560  -12.9480   22.1860 N   0  0  0  0  0  0  0  0  0  0  0  0
  -22.6560  -14.7180   20.8450 O   0  0  0  0  0  0  0  0  0  0  0  0
  -22.8430  -12.0950   22.5620 H   0  0  0  0  0  0  0  0  0  0  0  0
  -21.5490  -13.2590   22.5060 H   0  0  0  0  0  0  0  0  0  0  0  0
  -25.7070  -15.3080   20.3080 N   0  0  0  0  0  0  0  0  0  0  0  0
  -24.9680  -15.9710   20.5110 H   0  0  0  0  0  0  0  0  0  0  0  0
  -26.5320  -15.7440   19.9150 H   0  0  0  0  0  0  0  0  0  0  0  0
  -30.3630  -24.9820   19.5820 C   0  0  0  0  0  2  0  0  0  0  0  0
  -28.3260  -24.4120   19.8490 C   0  0  0  0  0  2  0  0  0  0  0  0
  -29.6380  -23.9920   20.5210 C   0  0  0  0  0  3  0  0  0  0  0  0
  -29.0170  -25.6770   19.3090 C   0  0  0  0  0  3  0  0  0  0  0  0
  -28.8560  -26.8490   20.1130 O   0  0  0  0  0  0  0  0  0  0  0  0
  -24.8030  -31.6980   23.3650 C   0  0  0  0  0  0  0  0  0  0  0  0
  -27.6420  -27.5090   20.1020 C   0  0  0  0  0  0  0  0  0  0  0  0
  -23.6730  -30.3570   21.6200 C   0  0  0  0  0  3  0  0  0  0  0  0
  -25.1990  -28.9410   20.1500 C   0  0  0  0  0  0  0  0  0  0  0  0
  -26.1900  -30.7930   21.5040 C   0  0  0  0  0  2  0  0  0  0  0  0
  -26.3270  -29.4610   20.7950 C   0  0  0  0  0  0  0  0  0  0  0  0
  -27.5470  -28.7480   20.7750 C   0  0  0  0  0  3  0  0  0  0  0  0
  -26.4900  -27.0010   19.4550 C   0  0  0  0  0  3  0  0  0  0  0  0
  -25.2740  -27.7070   19.4810 C   0  0  0  0  0  3  0  0  0  0  0  0
  -23.9310  -29.7620   20.2120 C   0  0  0  0  0  2  0  0  0  0  0  0
  -24.9060  -30.9620   22.2230 N   0  0  0  0  0  0  0  0  0  0  0  0
  -23.7030  -31.9110   23.8930 O   0  0  0  0  0  0  0  0  0  0  0  0
  -23.0300  -29.2680   22.5070 C   0  0  0  0  0  0  0  0  0  0  0  0
  -21.7180  -29.0460   22.3250 N   0  0  0  0  0  0  0  0  0  0  0  0
  -23.7080  -28.6260   23.3140 O   0  0  0  0  0  0  0  0  0  0  0  0
  -21.2300  -29.6190   21.6510 H   0  0  0  0  0  0  0  0  0  0  0  0
  -18.3760  -27.7140   22.6460 C   0  0  0  0  0  0  0  0  0  0  0  0
  -20.9110  -28.0440   23.0200 C   0  0  0  0  0  3  0  0  0  0  0  0
  -21.0840  -26.6470   22.3790 C   0  0  0  0  0  2  0  0  0  0  0  0
  -20.0290  -26.3380   21.3130 C   0  0  0  0  0  2  0  0  0  0  0  0
  -18.6220  -26.4060   21.9130 C   0  0  0  0  0  2  0  0  0  0  0  0
  -19.4500  -28.4910   23.1520 C   0  0  0  0  0  0  0  0  0  0  0  0
  -19.1680  -29.7170   23.7920 C   0  0  0  0  0  3  0  0  0  0  0  0
  -17.8410  -30.1660   23.9330 C   0  0  0  0  0  3  0  0  0  0  0  0
  -16.7790  -29.3870   23.4440 C   0  0  0  0  0  3  0  0  0  0  0  0
  -17.0480  -28.1610   22.8070 C   0  0  0  0  0  3  0  0  0  0  0  0
  -26.0580  -32.3250   24.0480 C   0  0  0  0  0  3  0  0  0  0  0  0
  -25.7190  -33.7080   24.4100 N   0  0  0  0  0  0  0  0  0  0  0  0
  -26.0360  -34.7850   23.6790 C   0  0  0  0  0  0  0  0  0  0  0  0
  -26.7170  -34.7200   22.6510 O   0  0  0  0  0  0  0  0  0  0  0  0
  -25.1150  -33.8310   25.2100 H   0  0  0  0  0  0  0  0  0  0  0  0
  -24.2630  -36.5400   23.3590 C   0  0  0  0  0  1  0  0  0  0  0  0
  -25.5140  -36.1520   24.1630 C   0  0  0  0  0  3  0  0  0  0  0  0
  -27.6250  -37.0710   25.0180 C   0  0  0  0  0  1  0  0  0  0  0  0
  -26.5220  -37.2300   24.0730 N   0  0  0  0  0  0  0  0  0  0  0  0
  -26.0940  -38.1380   24.2360 H   0  0  0  0  0  0  0  0  0  0  0  0
  -26.5460  -31.5190   25.3140 C   0  0  1  0  0  0  0  0  0  0  0  0
  -25.4210  -31.2240   26.3320 C   0  0  0  0  0  1  0  0  0  0  0  0
  -27.1660  -30.1670   24.8920 C   0  0  0  0  0  1  0  0  0  0  0  0
  -27.6590  -32.3080   26.0430 C   0  0  0  0  0  1  0  0  0  0  0  0
  -30.0590  -22.5750   24.4680 C   0  0  0  0  0  1  0  0  0  0  0  0
  -29.8530  -22.9710   23.1170 O   0  0  0  0  0  0  0  0  0  0  0  0
  1  3  1  0
  3  2  2  0
  4  6  2  0
  5  1  2  0
  5  4  1  0
  6  2  1  0
  6 96  1  0
  7  5  1  0
  8 21  1  0
  9 14  1  0
 10 11  1  0
 10  9  1  0
 12 11  1  0
 12 25  1  0
 12 13  1  0
 14  8  1  0
 14 13  1  0
 15  8  2  0
 16 18  1  0
 16 20  1  0
 17 20  1  0
 17 19  1  0
 20  3  1  0
 21 18  1  0
 21 19  1  0
 22 23  2  0
 23 42  1  0
 24 23  1  0
 24 27  1  0
 25 26  1  0
 25 22  1  0
 26 24  2  0
 27 28  1  0
 28 29  2  0
 30 33  1  0
 30 29  1  0
 31 30  2  0
 32 31  1  0
 32 27  2  0
 33 34  1  0
 34 35  1  0
 35 36  2  0
 37 36  1  0
 37 41  1  0
 38 37  2  0
 39 34  2  0
 39 38  1  0
 40 39  1  0
 42 43  1  0
 43 46  1  0
 43 45  1  0
 44 42  2  0
 47 22  1  0
 47 48  1  0
 49 47  1  0
 50 52  1  0
 51 52  1  0
 52  4  1  0
 53 50  1  0
 53 51  1  0
 53 54  1  0
 55 66  2  0
 56 54  1  0
 56 61  1  0
 57 65  1  0
 57 67  1  0
 58 64  1  0
 58 60  1  0
 59 65  1  0
 60 59  1  0
 61 60  2  0
 62 63  1  0
 62 56  2  0
 63 58  2  0
 64 57  1  0
 65 55  1  0
 67 69  2  0
 68 67  1  0
 70 68  1  0
 71 80  2  0
 71 76  1  0
 72 68  1  0
 72 76  1  0
 73 72  1  0
 74 75  1  0
 74 73  1  0
 75 71  1  0
 76 77  2  0
 77 78  1  0
 79 78  2  0
 80 79  1  0
 81 55  1  0
 81 82  1  0
 81 91  1  0
 82 85  1  0
 83 87  1  0
 83 82  1  0
 84 83  2  0
 87 86  1  0
 89 87  1  0
 89 90  1  0
 89 88  1  0
 91 94  1  1
 91 92  1  0
 93 91  1  0
 96 95  1  0
M  ISO  4   8 100  21 100  53 101  54 101
M  END
>  <TORSDO>  (36) 
F 18

>  <SCORE>  (36) 
-13.185

>  <name>  (36) 
35

>  <ligand_id>  (36) 
35

>  <original_smiles>  (36) 
[H]c1c([H])c([H])c2c(c1[H])C([H])([H])C([H])([H])C([H])([H])C2([H])N([H])C(=O)C1([H])N(C(=O)C([H])(N([H])C(=O)C([H])(N([H])C([H])([H])[H])C([H])([H])[H])C(C([H])([H])[H])(C([H])([H])[H])C([H])([H])[H])C([H])([H])c2c([H])c(OC3([H])C([H])([H])C([H])(c4c(OC([H])([H])[H])c([H])c(C5([H])C([H])([H])C([H])([H])N(C(=O)N6C([H])([H])C([H])([H])C([H])([H])C([H])(n7nc(-c8c([H])c([H])c(Oc9c([H])c([H])c(F)c([H])c9F)c([H])c8[H])c(C(=O)N([H])[H])c7N([H])[H])C6([H])[H])C([H])([H])C5([H])[H])c([H])c4C([H])([H])[H])C3([H])[H])c([H])c([H])c2C1([H])[H]

>  <smiles>  (36) 
[H]c1c([H])c([H])c2c(c1[H])C([H])([H])C([H])([H])C([H])([H])C2([H])N([H])C(=O)C1([H])N(C(=O)C([H])(N([H])C(=O)C([H])(N([H])C([H])([H])[H])C([H])([H])[H])C(C([H])([H])[H])(C([H])([H])[H])C([H])([H])[H])C([H])([H])c2c([H])c(OC3([H])C([H])([H])C([H])(c4c(OC([H])([H])[H])c([H])c(C5([H])C([H])([H])C([H])([H])N(C(=O)N6C([H])([H])C([H])([H])C([H])([H])C([H])(n7nc(-c8c([H])c([H])c(Oc9c([H])c([H])c(F)c([H])c9F)c([H])c8[H])c(C(=O)N([H])[H])c7N([H])[H])C6([H])[H])C([H])([H])C5([H])[H])c([H])c4C([H])([H])[H])C3([H])[H])c([H])c([H])c2C1([H])[H]

$$$$
36:0:0
     RDKit          3D

 99108  0  0  1  0  0  0  0  0999 V2000
  -31.7850  -21.1760   20.0480 N   0  0  0  0  0  4  0  0  0  0  0  0
  -32.7510  -21.0270   20.2960 H   0  0  0  0  0  0  0  0  0  0  0  0
  -31.2670  -21.2640   20.9060 H   0  0  0  0  0  0  0  0  0  0  0  0
  -31.0250  -17.9040   20.9220 C   0  0  0  0  0  2  0  0  0  0  0  0
  -31.9160  -18.7070   19.9530 C   0  0  0  0  0  2  0  0  0  0  0  0
  -29.7540  -19.9770   19.2040 C   0  0  0  0  0  2  0  0  0  0  0  0
  -29.1190  -18.7180   18.5940 C   0  0  0  0  0  2  0  0  0  0  0  0
  -30.0640  -16.9530   20.1790 C   0  0  0  0  0  3  0  0  0  0  0  0
  -31.3030  -19.9780   19.3200 C   0  0  0  0  0  3  0  0  0  0  0  0
  -28.7900  -17.6250   19.6340 C   0  0  0  0  0  3  0  0  0  0  0  0
  -30.5540  -14.7600   21.1370 C   0  0  0  0  0  0  0  0  0  0  0  0
  -30.4780  -12.4980   20.2390 C   0  0  0  0  0  2  0  0  0  0  0  0
  -29.6600  -12.5620   18.9320 C   0  0  0  0  0  2  0  0  0  0  0  0
  -28.1610  -12.3620   19.2270 C   0  0  0  0  0  2  0  0  0  0  0  0
  -27.6430  -13.2680   20.3780 C   0  0  0  0  0  3  0  0  0  0  0  0
  -28.5960  -13.2460   21.5970 C   0  0  0  0  0  2  0  0  0  0  0  0
  -29.9550  -13.5460   21.1210 N   0  0  0  0  0  0  0  0  0  0  0  0
  -31.7570  -14.9290   20.9350 O   0  0  0  0  0  0  0  0  0  0  0  0
  -29.7120  -15.7910   21.0040 N   0  0  0  0  0  0  0  0  0  0  0  0
  -28.7300  -15.5770   21.0830 H   0  0  0  0  0  0  0  0  0  0  0  0
  -25.1780  -13.7660   20.9120 C   0  0  0  0  0  0  0  0  0  0  0  0
  -24.1170  -12.9460   21.1810 C   0  0  0  0  0  0  0  0  0  0  0  0
  -24.6360  -11.6140   21.1650 C   0  0  0  0  0  0  0  0  0  0  0  0
  -26.2720  -12.9330   20.7480 N   0  0  0  0  0  0  0  0  0  0  0  0
  -25.9460  -11.6320   20.9590 N   0  0  0  0  0  0  0  0  0  0  0  0
  -23.9510  -10.3210   21.2780 C   0  0  0  0  0  0  0  0  0  0  0  0
  -24.3480   -9.3580   22.2330 C   0  0  0  0  0  3  0  0  0  0  0  0
  -23.6640   -8.1280   22.3340 C   0  0  0  0  0  3  0  0  0  0  0  0
  -22.5700   -7.8510   21.4790 C   0  0  0  0  0  0  0  0  0  0  0  0
  -22.1950   -8.8040   20.5150 C   0  0  0  0  0  3  0  0  0  0  0  0
  -22.8800  -10.0260   20.4120 C   0  0  0  0  0  3  0  0  0  0  0  0
  -21.8630   -6.6730   21.4880 O   0  0  0  0  0  0  0  0  0  0  0  0
  -21.7490   -5.9130   22.6240 C   0  0  0  0  0  0  0  0  0  0  0  0
  -21.1690   -6.4220   23.8070 C   0  0  0  0  0  3  0  0  0  0  0  0
  -21.0080   -5.5830   24.9280 C   0  0  0  0  0  3  0  0  0  0  0  0
  -21.4150   -4.2370   24.8670 C   0  0  0  0  0  0  0  0  0  0  0  0
  -21.9880   -3.7280   23.6880 C   0  0  0  0  0  3  0  0  0  0  0  0
  -22.1510   -4.5630   22.5690 C   0  0  0  0  0  0  0  0  0  0  0  0
  -22.6830   -4.0630   21.4280 F   0  0  0  0  0  0  0  0  0  0  0  0
  -21.2530   -3.4300   25.9410 F   0  0  0  0  0  0  0  0  0  0  0  0
  -22.6840  -13.3610   21.3520 C   0  0  0  0  0  0  0  0  0  0  0  0
  -21.9260  -12.6270   22.1600 N   0  0  0  0  0  0  0  0  0  0  0  0
  -22.2400  -14.3710   20.8060 O   0  0  0  0  0  0  0  0  0  0  0  0
  -22.2960  -11.8110   22.6230 H   0  0  0  0  0  0  0  0  0  0  0  0
  -20.9620  -12.8860   22.3180 H   0  0  0  0  0  0  0  0  0  0  0  0
  -25.3000  -15.1460   20.7760 N   0  0  0  0  0  0  0  0  0  0  0  0
  -24.5010  -15.7680   20.8380 H   0  0  0  0  0  0  0  0  0  0  0  0
  -26.1620  -15.6220   20.5490 H   0  0  0  0  0  0  0  0  0  0  0  0
  -26.6570  -16.8810   18.7830 C   0  0  0  0  0  1  0  0  0  0  0  0
  -28.0250  -16.5790   19.0370 O   0  0  0  0  0  0  0  0  0  0  0  0
  -31.7160  -22.4490   19.3000 C   0  0  0  0  0  2  0  0  0  0  0  0
  -31.7230  -23.6540   20.2560 C   0  0  0  0  0  2  0  0  0  0  0  0
  -30.1350  -25.0190   18.7710 C   0  0  0  0  0  2  0  0  0  0  0  0
  -31.4110  -26.1100   20.6950 C   0  0  0  0  0  2  0  0  0  0  0  0
  -29.7430  -26.4140   18.2610 C   0  0  0  0  0  2  0  0  0  0  0  0
  -30.9780  -27.4870   20.1720 C   0  0  0  0  0  2  0  0  0  0  0  0
  -31.4470  -25.0220   19.5960 C   0  0  0  0  0  3  0  0  0  0  0  0
  -29.6420  -27.4090   19.4220 C   0  0  0  0  0  3  0  0  0  0  0  0
  -28.6350  -26.9170   20.3020 O   0  0  0  0  0  0  0  0  0  0  0  0
  -24.6820  -31.9910   23.2960 C   0  0  0  0  0  0  0  0  0  0  0  0
  -27.4630  -27.6190   20.2940 C   0  0  0  0  0  0  0  0  0  0  0  0
  -23.5240  -30.5500   21.6500 C   0  0  0  0  0  3  0  0  0  0  0  0
  -25.0290  -29.0270   20.2630 C   0  0  0  0  0  0  0  0  0  0  0  0
  -26.0370  -30.9700   21.4780 C   0  0  0  0  0  2  0  0  0  0  0  0
  -26.1620  -29.5970   20.8590 C   0  0  0  0  0  0  0  0  0  0  0  0
  -27.3820  -28.8970   20.8800 C   0  0  0  0  0  3  0  0  0  0  0  0
  -26.3180  -27.0410   19.7140 C   0  0  0  0  0  3  0  0  0  0  0  0
  -25.0980  -27.7450   19.6890 C   0  0  0  0  0  3  0  0  0  0  0  0
  -23.7640  -29.8550   20.2810 C   0  0  0  0  0  2  0  0  0  0  0  0
  -24.7650  -31.1840   22.2000 N   0  0  0  0  0  0  0  0  0  0  0  0
  -23.5900  -32.2470   23.8210 O   0  0  0  0  0  0  0  0  0  0  0  0
  -22.8790  -29.5280   22.6110 C   0  0  0  0  0  0  0  0  0  0  0  0
  -21.5620  -29.3160   22.4610 N   0  0  0  0  0  0  0  0  0  0  0  0
  -23.5600  -28.9270   23.4460 O   0  0  0  0  0  0  0  0  0  0  0  0
  -21.0730  -29.8540   21.7590 H   0  0  0  0  0  0  0  0  0  0  0  0
  -18.2050  -28.0580   22.8990 C   0  0  0  0  0  0  0  0  0  0  0  0
  -20.7500  -28.3710   23.2240 C   0  0  0  0  0  3  0  0  0  0  0  0
  -20.8950  -26.9350   22.6680 C   0  0  0  0  0  2  0  0  0  0  0  0
  -19.8230  -26.5780   21.6340 C   0  0  0  0  0  2  0  0  0  0  0  0
  -18.4240  -26.7040   22.2460 C   0  0  0  0  0  2  0  0  0  0  0  0
  -19.2980  -28.8470   23.3440 C   0  0  0  0  0  0  0  0  0  0  0  0
  -19.0420  -30.1150   23.9120 C   0  0  0  0  0  3  0  0  0  0  0  0
  -17.7240  -30.5940   24.0380 C   0  0  0  0  0  3  0  0  0  0  0  0
  -16.6440  -29.8000   23.6120 C   0  0  0  0  0  3  0  0  0  0  0  0
  -16.8860  -28.5340   23.0510 C   0  0  0  0  0  3  0  0  0  0  0  0
  -25.9500  -32.6490   23.9280 C   0  0  0  0  0  3  0  0  0  0  0  0
  -25.6100  -34.0390   24.2560 N   0  0  0  0  0  0  0  0  0  0  0  0
  -25.9250  -35.0980   23.4970 C   0  0  0  0  0  0  0  0  0  0  0  0
  -26.6080  -35.0060   22.4720 O   0  0  0  0  0  0  0  0  0  0  0  0
  -25.0050  -34.1830   25.0520 H   0  0  0  0  0  0  0  0  0  0  0  0
  -24.1600  -36.8490   23.1200 C   0  0  0  0  0  1  0  0  0  0  0  0
  -25.4020  -36.4750   23.9460 C   0  0  0  0  0  3  0  0  0  0  0  0
  -27.5070  -37.4080   24.7970 C   0  0  0  0  0  1  0  0  0  0  0  0
  -26.4130  -37.5510   23.8410 N   0  0  0  0  0  0  0  0  0  0  0  0
  -25.9840  -38.4620   23.9830 H   0  0  0  0  0  0  0  0  0  0  0  0
  -26.4780  -31.8850   25.2030 C   0  0  1  0  0  0  0  0  0  0  0  0
  -25.3810  -31.5880   26.2510 C   0  0  0  0  0  1  0  0  0  0  0  0
  -27.1210  -30.5360   24.8030 C   0  0  0  0  0  1  0  0  0  0  0  0
  -27.5850  -32.7160   25.8930 C   0  0  0  0  0  1  0  0  0  0  0  0
  1  2  1  0
  1  3  1  0
  5  4  1  0
  6  9  1  0
  7  6  1  0
  7 10  1  0
  8  4  1  0
  8 19  1  0
  9  5  1  0
  9  1  1  0
 10 50  1  0
 10  8  1  0
 12 17  1  0
 13 14  1  0
 13 12  1  0
 15 14  1  0
 15 24  1  0
 15 16  1  0
 17 11  1  0
 17 16  1  0
 18 11  2  0
 19 20  1  0
 19 11  1  0
 21 22  2  0
 22 41  1  0
 23 22  1  0
 23 26  1  0
 24 21  1  0
 24 25  1  0
 25 23  2  0
 26 27  1  0
 27 28  2  0
 29 32  1  0
 29 28  1  0
 30 29  2  0
 31 30  1  0
 31 26  2  0
 32 33  1  0
 33 34  1  0
 34 35  2  0
 36 35  1  0
 36 40  1  0
 37 36  2  0
 38 33  2  0
 38 37  1  0
 39 38  1  0
 41 42  1  0
 42 45  1  0
 42 44  1  0
 43 41  2  0
 46 47  1  0
 46 21  1  0
 48 46  1  0
 49 50  1  0
 51  1  1  0
 51 52  1  0
 53 57  1  0
 55 53  1  0
 55 58  1  0
 56 54  1  0
 57 52  1  0
 57 54  1  0
 58 56  1  0
 58 59  1  0
 60 71  2  0
 61 59  1  0
 61 66  1  0
 62 70  1  0
 62 72  1  0
 63 69  1  0
 63 65  1  0
 64 70  1  0
 65 66  2  0
 65 64  1  0
 67 61  2  0
 68 67  1  0
 68 63  2  0
 69 62  1  0
 70 60  1  0
 72 74  2  0
 73 72  1  0
 75 73  1  0
 76 85  2  0
 76 81  1  0
 77 73  1  0
 77 81  1  0
 78 77  1  0
 79 80  1  0
 79 78  1  0
 80 76  1  0
 81 82  2  0
 82 83  1  0
 84 83  2  0
 85 84  1  0
 86 60  1  0
 86 87  1  0
 86 96  1  0
 87 90  1  0
 88 92  1  0
 88 87  1  0
 89 88  2  0
 92 91  1  0
 94 92  1  0
 94 95  1  0
 94 93  1  0
 96 99  1  1
 96 97  1  0
 98 96  1  0
M  ISO  4  11 100  19 100  58 101  59 101
M  END
>  <TORSDO>  (37) 
F 21

>  <SCORE>  (37) 
-12.620

>  <name>  (37) 
36

>  <ligand_id>  (37) 
36

>  <original_smiles>  (37) 
[H]c1c([H])c([H])c2c(c1[H])C([H])([H])C([H])([H])C([H])([H])C2([H])N([H])C(=O)C1([H])N(C(=O)C([H])(N([H])C(=O)C([H])(N([H])C([H])([H])[H])C([H])([H])[H])C(C([H])([H])[H])(C([H])([H])[H])C([H])([H])[H])C([H])([H])c2c([H])c(OC3([H])C([H])([H])C([H])([H])C([H])(C([H])([H])C([H])([H])[N+]([H])([H])C4([H])C([H])([H])C([H])([H])C([H])(OC([H])([H])[H])C([H])(N([H])C(=O)N5C([H])([H])C([H])([H])C([H])([H])C([H])(n6nc(-c7c([H])c([H])c(Oc8c([H])c([H])c(F)c([H])c8F)c([H])c7[H])c(C(=O)N([H])[H])c6N([H])[H])C5([H])[H])C([H])([H])C4([H])[H])C([H])([H])C3([H])[H])c([H])c([H])c2C1([H])[H]

>  <smiles>  (37) 
[H]c1c([H])c([H])c2c(c1[H])C([H])([H])C([H])([H])C([H])([H])C2([H])N([H])C(=O)C1([H])N(C(=O)C([H])(N([H])C(=O)C([H])(N([H])C([H])([H])[H])C([H])([H])[H])C(C([H])([H])[H])(C([H])([H])[H])C([H])([H])[H])C([H])([H])c2c([H])c(OC3([H])C([H])([H])C([H])([H])C([H])(C([H])([H])C([H])([H])[N+]([H])([H])C4([H])C([H])([H])C([H])([H])C([H])(OC([H])([H])[H])C([H])(N([H])C(=O)N5C([H])([H])C([H])([H])C([H])([H])C([H])(n6nc(-c7c([H])c([H])c(Oc8c([H])c([H])c(F)c([H])c8F)c([H])c7[H])c(C(=O)N([H])[H])c6N([H])[H])C5([H])[H])C([H])([H])C4([H])[H])C([H])([H])C3([H])[H])c([H])c([H])c2C1([H])[H]

$$$$
37:0:0
     RDKit          3D

103111  0  0  1  0  0  0  0  0999 V2000
  -30.5010  -19.5360   23.5620 C   0  0  0  0  0  3  0  0  0  0  0  0
  -31.1790  -19.5380   21.2260 C   0  0  0  0  0  3  0  0  0  0  0  0
  -30.8780  -18.8150   22.4050 C   0  0  0  0  0  0  0  0  0  0  0  0
  -30.4730  -20.9450   23.5540 C   0  0  0  0  0  0  0  0  0  0  0  0
  -31.1050  -20.9560   21.1830 C   0  0  0  0  0  0  0  0  0  0  0  0
  -30.7880  -21.6530   22.3760 C   0  0  0  0  0  0  0  0  0  0  0  0
  -30.1030  -21.6870   24.8260 C   0  0  0  0  0  1  0  0  0  0  0  0
  -32.2230  -20.9610   18.8510 C   0  0  0  0  0  1  0  0  0  0  0  0
  -31.3690  -21.7320   19.8790 C   0  0  0  0  0  3  0  0  0  0  0  0
  -30.0700  -22.2290   19.1920 C   0  0  0  0  0  2  0  0  0  0  0  0
  -29.2860  -23.1750   20.0210 N   0  0  0  0  0  4  0  0  0  0  0  0
  -29.6070  -23.0930   20.9880 H   0  0  0  0  0  0  0  0  0  0  0  0
  -28.3320  -22.8460   19.9830 H   0  0  0  0  0  0  0  0  0  0  0  0
  -30.6990  -25.2450   19.6370 C   0  0  0  0  0  1  0  0  0  0  0  0
  -29.2940  -24.5920   19.5720 C   0  0  0  0  0  3  0  0  0  0  0  0
  -28.2350  -25.4190   20.3360 C   0  0  0  0  0  2  0  0  0  0  0  0
  -28.1250  -26.6650   19.6660 O   0  0  0  0  0  0  0  0  0  0  0  0
  -24.4250  -31.6890   23.0660 C   0  0  0  0  0  0  0  0  0  0  0  0
  -26.9350  -27.3250   19.7990 C   0  0  0  0  0  0  0  0  0  0  0  0
  -23.1500  -30.3250   21.4400 C   0  0  0  0  0  3  0  0  0  0  0  0
  -24.5390  -28.7990   19.9490 C   0  0  0  0  0  0  0  0  0  0  0  0
  -25.6650  -30.6830   21.1520 C   0  0  0  0  0  2  0  0  0  0  0  0
  -25.7200  -29.3220   20.4920 C   0  0  0  0  0  0  0  0  0  0  0  0
  -26.9210  -28.5930   20.4140 C   0  0  0  0  0  3  0  0  0  0  0  0
  -25.7420  -26.8010   19.2590 C   0  0  0  0  0  3  0  0  0  0  0  0
  -24.5420  -27.5330   19.3360 C   0  0  0  0  0  3  0  0  0  0  0  0
  -23.3030  -29.6610   20.0480 C   0  0  0  0  0  2  0  0  0  0  0  0
  -24.4350  -30.9120   21.9450 N   0  0  0  0  0  0  0  0  0  0  0  0
  -23.3670  -31.9630   23.6480 O   0  0  0  0  0  0  0  0  0  0  0  0
  -22.5260  -29.2910   22.4050 C   0  0  0  0  0  0  0  0  0  0  0  0
  -21.2000  -29.1170   22.3090 N   0  0  0  0  0  0  0  0  0  0  0  0
  -23.2310  -28.6500   23.1890 O   0  0  0  0  0  0  0  0  0  0  0  0
  -20.6930  -29.6810   21.6400 H   0  0  0  0  0  0  0  0  0  0  0  0
  -17.8340  -27.9310   22.8690 C   0  0  0  0  0  0  0  0  0  0  0  0
  -20.3990  -28.1700   23.0850 C   0  0  0  0  0  3  0  0  0  0  0  0
  -20.4800  -26.7480   22.4810 C   0  0  0  0  0  2  0  0  0  0  0  0
  -19.3520  -26.4490   21.4880 C   0  0  0  0  0  2  0  0  0  0  0  0
  -17.9870  -26.5910   22.1690 C   0  0  0  0  0  2  0  0  0  0  0  0
  -18.9680  -28.6800   23.2820 C   0  0  0  0  0  0  0  0  0  0  0  0
  -18.7700  -29.9380   23.8940 C   0  0  0  0  0  3  0  0  0  0  0  0
  -17.4740  -30.4410   24.1020 C   0  0  0  0  0  3  0  0  0  0  0  0
  -16.3550  -29.6890   23.7070 C   0  0  0  0  0  3  0  0  0  0  0  0
  -16.5380  -28.4350   23.0950 C   0  0  0  0  0  3  0  0  0  0  0  0
  -25.7400  -32.2970   23.6500 C   0  0  0  0  0  3  0  0  0  0  0  0
  -26.3020  -31.4900   24.8840 C   0  0  1  0  0  0  0  0  0  0  0  0
  -25.2480  -31.2380   25.9850 C   0  0  0  0  0  1  0  0  0  0  0  0
  -26.8500  -30.1190   24.4280 C   0  0  0  0  0  1  0  0  0  0  0  0
  -27.4870  -32.2610   25.5160 C   0  0  0  0  0  1  0  0  0  0  0  0
  -25.4570  -33.6900   24.0160 N   0  0  0  0  0  0  0  0  0  0  0  0
  -25.7810  -34.7530   23.2670 C   0  0  0  0  0  0  0  0  0  0  0  0
  -26.4180  -34.6620   22.2140 O   0  0  0  0  0  0  0  0  0  0  0  0
  -24.8950  -33.8370   24.8390 H   0  0  0  0  0  0  0  0  0  0  0  0
  -24.0690  -36.5710   22.9940 C   0  0  0  0  0  1  0  0  0  0  0  0
  -25.3240  -36.1340   23.7670 C   0  0  0  0  0  3  0  0  0  0  0  0
  -27.4840  -36.9760   24.5720 C   0  0  0  0  0  1  0  0  0  0  0  0
  -26.3650  -37.1780   23.6550 N   0  0  0  0  0  0  0  0  0  0  0  0
  -25.9720  -38.0970   23.8360 H   0  0  0  0  0  0  0  0  0  0  0  0
  -30.7740  -23.0230   22.3930 O   0  0  0  0  0  0  0  0  0  0  0  0
  -30.9280  -23.3710   23.2670 H   0  0  0  0  0  0  0  0  0  0  0  0
  -30.9040  -17.2770   22.3620 C   0  0  0  0  0  3  0  0  0  0  0  0
  -31.6970  -16.6560   24.6530 C   0  0  0  0  0  1  0  0  0  0  0  0
  -30.5970  -16.6420   23.6650 N   0  0  0  0  0  4  0  0  0  0  0  0
  -29.7790  -17.0770   24.0600 H   0  0  0  0  0  0  0  0  0  0  0  0
  -30.3670  -15.6790   23.4850 H   0  0  0  0  0  0  0  0  0  0  0  0
  -29.9720  -16.7600   21.2410 C   0  0  0  0  0  2  0  0  0  0  0  0
  -30.3840  -14.5860   20.0710 C   0  0  0  0  0  0  0  0  0  0  0  0
  -29.9980  -12.6100   18.6350 C   0  0  0  0  0  2  0  0  0  0  0  0
  -28.9380  -12.9290   17.5610 C   0  0  0  0  0  2  0  0  0  0  0  0
  -27.5100  -12.7050   18.1000 C   0  0  0  0  0  2  0  0  0  0  0  0
  -27.2850  -13.3860   19.4770 C   0  0  0  0  0  3  0  0  0  0  0  0
  -28.4340  -13.0320   20.4480 C   0  0  0  0  0  2  0  0  0  0  0  0
  -29.7130  -13.4290   19.8230 N   0  0  0  0  0  0  0  0  0  0  0  0
  -31.3390  -14.9850   19.4000 O   0  0  0  0  0  0  0  0  0  0  0  0
  -29.8870  -15.3000   21.0930 N   0  0  0  0  0  0  0  0  0  0  0  0
  -29.1350  -14.8460   21.5870 H   0  0  0  0  0  0  0  0  0  0  0  0
  -24.9230  -13.8740   20.3830 C   0  0  0  0  0  0  0  0  0  0  0  0
  -23.9120  -13.0440   20.7970 C   0  0  0  0  0  0  0  0  0  0  0  0
  -24.4150  -11.7140   20.6640 C   0  0  0  0  0  0  0  0  0  0  0  0
  -25.9760  -13.0420   20.0360 N   0  0  0  0  0  0  0  0  0  0  0  0
  -25.6760  -11.7350   20.2540 N   0  0  0  0  0  0  0  0  0  0  0  0
  -23.7490  -10.4180   20.8490 C   0  0  0  0  0  0  0  0  0  0  0  0
  -24.2420   -9.4600   21.7620 C   0  0  0  0  0  3  0  0  0  0  0  0
  -23.5770   -8.2290   21.9370 C   0  0  0  0  0  3  0  0  0  0  0  0
  -22.4030   -7.9460   21.1990 C   0  0  0  0  0  0  0  0  0  0  0  0
  -21.9270   -8.8940   20.2760 C   0  0  0  0  0  3  0  0  0  0  0  0
  -22.5940  -10.1180   20.0990 C   0  0  0  0  0  3  0  0  0  0  0  0
  -21.7030   -6.7650   21.2810 O   0  0  0  0  0  0  0  0  0  0  0  0
  -21.6670   -6.0310   22.4390 C   0  0  0  0  0  0  0  0  0  0  0  0
  -21.1870   -6.5750   23.6520 C   0  0  0  0  0  3  0  0  0  0  0  0
  -21.1010   -5.7640   24.8010 C   0  0  0  0  0  3  0  0  0  0  0  0
  -21.4870   -4.4110   24.7410 C   0  0  0  0  0  0  0  0  0  0  0  0
  -21.9610   -3.8680   23.5320 C   0  0  0  0  0  3  0  0  0  0  0  0
  -22.0480   -4.6760   22.3860 C   0  0  0  0  0  0  0  0  0  0  0  0
  -22.4850   -4.1420   21.2210 F   0  0  0  0  0  0  0  0  0  0  0  0
  -21.3970   -3.6310   25.8430 F   0  0  0  0  0  0  0  0  0  0  0  0
  -22.5270  -13.4580   21.2070 C   0  0  0  0  0  0  0  0  0  0  0  0
  -21.9080  -12.7080   22.1140 N   0  0  0  0  0  0  0  0  0  0  0  0
  -22.0040  -14.4750   20.7580 O   0  0  0  0  0  0  0  0  0  0  0  0
  -22.3480  -11.8850   22.4970 H   0  0  0  0  0  0  0  0  0  0  0  0
  -20.9840  -12.9630   22.4290 H   0  0  0  0  0  0  0  0  0  0  0  0
  -25.0260  -15.2560   20.2590 N   0  0  0  0  0  0  0  0  0  0  0  0
  -24.2410  -15.8720   20.4400 H   0  0  0  0  0  0  0  0  0  0  0  0
  -25.8320  -15.7360   19.8820 H   0  0  0  0  0  0  0  0  0  0  0  0
  2  3  1  0
  3  1  2  0
  4  1  1  0
  4  7  1  0
  5  2  2  0
  5  6  1  0
  6 58  1  0
  6  4  2  0
  9  8  1  0
  9  5  1  0
 10  9  1  0
 10 11  1  0
 11 12  1  0
 13 11  1  0
 15 14  1  0
 15 11  1  0
 15 16  1  0
 17 19  1  0
 17 16  1  0
 18 29  2  0
 19 24  1  0
 20 28  1  0
 20 30  1  0
 21 27  1  0
 21 23  1  0
 22 28  1  0
 23 22  1  0
 24 23  2  0
 25 26  1  0
 25 19  2  0
 26 21  2  0
 27 20  1  0
 28 18  1  0
 30 32  2  0
 31 30  1  0
 33 31  1  0
 34 43  2  0
 34 39  1  0
 35 31  1  0
 35 39  1  0
 36 35  1  0
 37 38  1  0
 37 36  1  0
 38 34  1  0
 39 40  2  0
 40 41  1  0
 42 41  2  0
 43 42  1  0
 44 18  1  0
 44 49  1  0
 44 45  1  0
 45 48  1  1
 45 46  1  0
 47 45  1  0
 49 52  1  0
 50 54  1  0
 50 49  1  0
 51 50  2  0
 54 53  1  0
 56 54  1  0
 56 57  1  0
 56 55  1  0
 58 59  1  0
 60 65  1  0
 60  3  1  0
 60 62  1  0
 62 63  1  0
 62 61  1  0
 64 62  1  0
 66 74  1  0
 67 72  1  0
 68 69  1  0
 68 67  1  0
 70 69  1  0
 70 79  1  0
 70 71  1  0
 72 66  1  0
 72 71  1  0
 73 66  2  0
 74 65  1  0
 74 75  1  0
 76 77  2  0
 77 96  1  0
 78 77  1  0
 78 81  1  0
 79 80  1  0
 79 76  1  0
 80 78  2  0
 81 82  1  0
 82 83  2  0
 84 87  1  0
 84 83  1  0
 85 84  2  0
 86 85  1  0
 86 81  2  0
 87 88  1  0
 88 89  1  0
 89 90  2  0
 91 90  1  0
 91 95  1  0
 92 91  2  0
 93 88  2  0
 93 92  1  0
 94 93  1  0
 96 97  1  0
 97100  1  0
 97 99  1  0
 98 96  2  0
101 76  1  0
101102  1  0
103101  1  0
M  ISO  4  16 101  17 101  66 100  74 100
M  END
>  <TORSDO>  (38) 
F 25

>  <SCORE>  (38) 
-6.946

>  <name>  (38) 
37

>  <ligand_id>  (38) 
37

>  <original_smiles>  (38) 
[H]Oc1c(C([H])([H])[H])c([H])c(C([H])(C([H])([H])N([H])C(=O)N2C([H])([H])C([H])([H])C([H])([H])C([H])(n3nc(-c4c([H])c([H])c(Oc5c([H])c([H])c(F)c([H])c5F)c([H])c4[H])c(C(=O)N([H])[H])c3N([H])[H])C2([H])[H])[N+]([H])([H])C([H])([H])[H])c([H])c1C([H])(C([H])([H])[H])C([H])([H])[N+]([H])([H])C([H])(C([H])([H])[H])C([H])([H])Oc1c([H])c([H])c2c(c1[H])C([H])([H])N(C(=O)C([H])(N([H])C(=O)C([H])(N([H])C([H])([H])[H])C([H])([H])[H])C(C([H])([H])[H])(C([H])([H])[H])C([H])([H])[H])C([H])(C(=O)N([H])C1([H])c3c([H])c([H])c([H])c([H])c3C([H])([H])C([H])([H])C1([H])[H])C2([H])[H]

>  <smiles>  (38) 
[H]Oc1c(C([H])([H])[H])c([H])c(C([H])(C([H])([H])N([H])C(=O)N2C([H])([H])C([H])([H])C([H])([H])C([H])(n3nc(-c4c([H])c([H])c(Oc5c([H])c([H])c(F)c([H])c5F)c([H])c4[H])c(C(=O)N([H])[H])c3N([H])[H])C2([H])[H])[N+]([H])([H])C([H])([H])[H])c([H])c1C([H])(C([H])([H])[H])C([H])([H])[N+]([H])([H])C([H])(C([H])([H])[H])C([H])([H])Oc1c([H])c([H])c2c(c1[H])C([H])([H])N(C(=O)C([H])(N([H])C(=O)C([H])(N([H])C([H])([H])[H])C([H])([H])[H])C(C([H])([H])[H])(C([H])([H])[H])C([H])([H])[H])C([H])(C(=O)N([H])C1([H])c3c([H])c([H])c([H])c([H])c3C([H])([H])C([H])([H])C1([H])[H])C2([H])[H]

$$$$
38:0:0
     RDKit          3D

 94103  0  0  1  0  0  0  0  0999 V2000
  -31.3130  -21.5860   21.1510 C   0  0  0  0  0  3  0  0  0  0  0  0
  -30.5030  -21.4300   23.4210 C   0  0  0  0  0  0  0  0  0  0  0  0
  -30.4290  -20.0240   23.2410 C   0  0  0  0  0  0  0  0  0  0  0  0
  -30.9300  -22.2460   22.3470 C   0  0  0  0  0  0  0  0  0  0  0  0
  -30.8260  -19.4710   21.9940 C   0  0  0  0  0  0  0  0  0  0  0  0
  -30.0890  -22.0740   24.7410 C   0  0  0  0  0  1  0  0  0  0  0  0
  -29.8830  -19.1290   24.3560 C   0  0  0  0  0  1  0  0  0  0  0  0
  -31.2760  -20.2440   20.9830 N   0  0  0  0  0  0  0  0  0  0  0  0
  -31.8000  -14.6170   20.6940 C   0  0  0  0  0  0  0  0  0  0  0  0
  -31.4870  -12.3740   19.6870 C   0  0  0  0  0  2  0  0  0  0  0  0
  -30.6270  -12.4540   18.4090 C   0  0  0  0  0  2  0  0  0  0  0  0
  -29.1290  -12.3490   18.7530 C   0  0  0  0  0  2  0  0  0  0  0  0
  -28.7190  -13.3210   19.8820 C   0  0  0  0  0  3  0  0  0  0  0  0
  -29.7000  -13.2430   21.0800 C   0  0  0  0  0  2  0  0  0  0  0  0
  -31.0660  -13.4680   20.5760 N   0  0  0  0  0  0  0  0  0  0  0  0
  -33.0010  -14.6590   20.4140 O   0  0  0  0  0  0  0  0  0  0  0  0
  -30.1010  -17.7980   20.2150 C   0  0  0  0  0  2  0  0  0  0  0  0
  -30.0910  -16.2820   20.1260 C   0  0  0  0  0  2  0  0  0  0  0  0
  -31.6690  -16.9210   21.7670 C   0  0  0  0  0  2  0  0  0  0  0  0
  -30.5660  -17.9950   21.6370 C   0  0  0  0  0  3  0  0  0  0  0  0
  -31.1240  -15.7540   21.0290 N   0  0  0  0  0  0  0  0  0  0  0  0
  -26.3360  -14.1080   20.4480 C   0  0  0  0  0  0  0  0  0  0  0  0
  -25.2030  -13.4120   20.7760 C   0  0  0  0  0  0  0  0  0  0  0  0
  -25.5860  -12.0360   20.8070 C   0  0  0  0  0  0  0  0  0  0  0  0
  -27.3330  -13.1530   20.2970 N   0  0  0  0  0  0  0  0  0  0  0  0
  -26.8850  -11.9080   20.5790 N   0  0  0  0  0  0  0  0  0  0  0  0
  -24.7770  -10.8240   20.9740 C   0  0  0  0  0  0  0  0  0  0  0  0
  -25.0660   -9.8830   21.9860 C   0  0  0  0  0  3  0  0  0  0  0  0
  -24.2690   -8.7300   22.1350 C   0  0  0  0  0  3  0  0  0  0  0  0
  -23.1690   -8.5130   21.2720 C   0  0  0  0  0  0  0  0  0  0  0  0
  -22.9030   -9.4390   20.2480 C   0  0  0  0  0  3  0  0  0  0  0  0
  -23.7020  -10.5840   20.0960 C   0  0  0  0  0  3  0  0  0  0  0  0
  -22.3490   -7.4120   21.3320 O   0  0  0  0  0  0  0  0  0  0  0  0
  -22.0710   -6.7850   22.5210 C   0  0  0  0  0  0  0  0  0  0  0  0
  -21.4640   -7.4650   23.5980 C   0  0  0  0  0  3  0  0  0  0  0  0
  -21.1370   -6.7680   24.7770 C   0  0  0  0  0  3  0  0  0  0  0  0
  -21.4040   -5.3890   24.8770 C   0  0  0  0  0  0  0  0  0  0  0  0
  -22.0020   -4.7070   23.8020 C   0  0  0  0  0  3  0  0  0  0  0  0
  -22.3350   -5.4030   22.6270 C   0  0  0  0  0  0  0  0  0  0  0  0
  -22.8930   -4.7390   21.5860 F   0  0  0  0  0  0  0  0  0  0  0  0
  -21.0790   -4.7130   26.0040 F   0  0  0  0  0  0  0  0  0  0  0  0
  -23.8210  -13.9760   20.9440 C   0  0  0  0  0  0  0  0  0  0  0  0
  -23.0070  -13.3660   21.7990 N   0  0  0  0  0  0  0  0  0  0  0  0
  -23.4680  -14.9950   20.3490 O   0  0  0  0  0  0  0  0  0  0  0  0
  -23.2950  -12.5390   22.2980 H   0  0  0  0  0  0  0  0  0  0  0  0
  -22.0790  -13.7320   21.9540 H   0  0  0  0  0  0  0  0  0  0  0  0
  -26.5840  -15.4610   20.2400 N   0  0  0  0  0  0  0  0  0  0  0  0
  -25.8470  -16.1550   20.2790 H   0  0  0  0  0  0  0  0  0  0  0  0
  -27.4580  -15.8380   19.8970 H   0  0  0  0  0  0  0  0  0  0  0  0
  -30.9500  -23.6180   22.5510 O   0  0  0  0  0  0  0  0  0  0  0  0
  -31.4080  -24.5220   21.5450 C   0  0  0  0  0  2  0  0  0  0  0  0
  -30.2890  -24.9130   20.5560 C   0  0  0  0  0  2  0  0  0  0  0  0
  -29.3380  -26.0390   21.0280 C   0  0  0  0  0  2  0  0  0  0  0  0
  -28.8720  -26.7290   19.8670 O   0  0  0  0  0  0  0  0  0  0  0  0
  -24.8560  -31.5090   23.3490 C   0  0  0  0  0  0  0  0  0  0  0  0
  -27.6930  -27.4240   19.9880 C   0  0  0  0  0  0  0  0  0  0  0  0
  -23.7280  -30.2310   21.5560 C   0  0  0  0  0  3  0  0  0  0  0  0
  -25.2600  -28.8570   20.0470 C   0  0  0  0  0  0  0  0  0  0  0  0
  -26.2450  -30.6660   21.4630 C   0  0  0  0  0  2  0  0  0  0  0  0
  -26.3820  -29.3520   20.7240 C   0  0  0  0  0  0  0  0  0  0  0  0
  -27.6020  -28.6380   20.7030 C   0  0  0  0  0  3  0  0  0  0  0  0
  -26.5620  -26.9410   19.3020 C   0  0  0  0  0  3  0  0  0  0  0  0
  -25.3430  -27.6480   19.3350 C   0  0  0  0  0  3  0  0  0  0  0  0
  -23.9920  -29.6810   20.1280 C   0  0  0  0  0  2  0  0  0  0  0  0
  -24.9580  -30.8130   22.1820 N   0  0  0  0  0  0  0  0  0  0  0  0
  -23.7550  -31.7080   23.8800 O   0  0  0  0  0  0  0  0  0  0  0  0
  -23.0780  -29.1140   22.4040 C   0  0  0  0  0  0  0  0  0  0  0  0
  -21.7770  -28.8680   22.1770 N   0  0  0  0  0  0  0  0  0  0  0  0
  -23.7450  -28.4770   23.2240 O   0  0  0  0  0  0  0  0  0  0  0  0
  -21.2960  -29.4460   21.5010 H   0  0  0  0  0  0  0  0  0  0  0  0
  -18.4780  -27.4020   22.3010 C   0  0  0  0  0  0  0  0  0  0  0  0
  -20.9700  -27.8360   22.8300 C   0  0  0  0  0  3  0  0  0  0  0  0
  -21.2390  -26.4450   22.2100 C   0  0  0  0  0  2  0  0  0  0  0  0
  -20.2650  -26.0870   21.0840 C   0  0  0  0  0  2  0  0  0  0  0  0
  -18.8210  -26.1010   21.5960 C   0  0  0  0  0  2  0  0  0  0  0  0
  -19.4890  -28.2230   22.8670 C   0  0  0  0  0  0  0  0  0  0  0  0
  -19.1180  -29.4400   23.4810 C   0  0  0  0  0  3  0  0  0  0  0  0
  -17.7690  -29.8360   23.5380 C   0  0  0  0  0  3  0  0  0  0  0  0
  -16.7710  -29.0120   22.9900 C   0  0  0  0  0  3  0  0  0  0  0  0
  -17.1260  -27.7970   22.3770 C   0  0  0  0  0  3  0  0  0  0  0  0
  -26.1110  -32.1090   24.0570 C   0  0  0  0  0  3  0  0  0  0  0  0
  -26.5910  -31.2620   25.2990 C   0  0  1  0  0  0  0  0  0  0  0  0
  -25.4670  -30.9570   26.3150 C   0  0  0  0  0  1  0  0  0  0  0  0
  -27.1950  -29.9120   24.8400 C   0  0  0  0  0  1  0  0  0  0  0  0
  -27.7150  -32.0180   26.0460 C   0  0  0  0  0  1  0  0  0  0  0  0
  -25.7780  -33.4820   24.4600 N   0  0  0  0  0  0  0  0  0  0  0  0
  -26.1280  -34.5800   23.7760 C   0  0  0  0  0  0  0  0  0  0  0  0
  -26.8370  -34.5430   22.7670 O   0  0  0  0  0  0  0  0  0  0  0  0
  -25.1570  -33.5840   25.2480 H   0  0  0  0  0  0  0  0  0  0  0  0
  -24.3900  -36.3700   23.4740 C   0  0  0  0  0  1  0  0  0  0  0  0
  -25.6110  -35.9330   24.2990 C   0  0  0  0  0  3  0  0  0  0  0  0
  -27.7050  -36.7950   25.2450 C   0  0  0  0  0  1  0  0  0  0  0  0
  -26.6310  -37.0030   24.2770 N   0  0  0  0  0  0  0  0  0  0  0  0
  -26.2070  -37.9070   24.4620 H   0  0  0  0  0  0  0  0  0  0  0  0
  1  4  1  0
  2  6  1  0
  3  2  1  0
  3  7  1  0
  4 50  1  0
  4  2  2  0
  5  3  2  0
  8  1  2  0
  8  5  1  0
  9 21  1  0
 10 15  1  0
 11 12  1  0
 11 10  1  0
 13 12  1  0
 13 25  1  0
 13 14  1  0
 15  9  1  0
 15 14  1  0
 16  9  2  0
 17 20  1  0
 18 17  1  0
 18 21  1  0
 20 19  1  0
 20  5  1  0
 21 19  1  0
 22 23  2  0
 23 24  1  0
 23 42  1  0
 24 27  1  0
 25 22  1  0
 25 26  1  0
 26 24  2  0
 27 28  1  0
 28 29  2  0
 30 33  1  0
 30 29  1  0
 31 30  2  0
 32 31  1  0
 32 27  2  0
 33 34  1  0
 34 39  2  0
 34 35  1  0
 35 36  2  0
 36 37  1  0
 37 41  1  0
 38 37  2  0
 39 38  1  0
 40 39  1  0
 42 43  1  0
 43 46  1  0
 43 45  1  0
 44 42  2  0
 47 48  1  0
 47 22  1  0
 49 47  1  0
 51 50  1  0
 52 53  1  0
 52 51  1  0
 54 56  1  0
 54 53  1  0
 55 66  2  0
 56 61  1  0
 57 65  1  0
 57 67  1  0
 58 64  1  0
 58 60  1  0
 59 65  1  0
 60 59  1  0
 61 60  2  0
 62 63  1  0
 62 56  2  0
 63 58  2  0
 64 57  1  0
 65 55  1  0
 67 69  2  0
 68 67  1  0
 70 68  1  0
 71 80  2  0
 71 76  1  0
 72 68  1  0
 72 76  1  0
 73 72  1  0
 74 75  1  0
 74 73  1  0
 75 71  1  0
 76 77  2  0
 77 78  1  0
 79 78  2  0
 80 79  1  0
 81 55  1  0
 81 86  1  0
 81 82  1  0
 82 85  1  1
 82 83  1  0
 84 82  1  0
 86 89  1  0
 87 91  1  0
 87 86  1  0
 88 87  2  0
 91 90  1  0
 93 91  1  0
 93 94  1  0
 93 92  1  0
M  ISO  4   9 100  21 100  53 101  54 101
M  END
>  <TORSDO>  (39) 
F 20

>  <SCORE>  (39) 
-8.988

>  <name>  (39) 
38

>  <ligand_id>  (39) 
38

>  <original_smiles>  (39) 
[H]c1nc(C2([H])C([H])([H])N(C(=O)N3C([H])([H])C([H])([H])C([H])([H])C([H])(n4nc(-c5c([H])c([H])c(Oc6c([H])c([H])c(F)c([H])c6F)c([H])c5[H])c(C(=O)N([H])[H])c4N([H])[H])C3([H])[H])C([H])([H])C2([H])[H])c(C([H])([H])[H])c(C([H])([H])[H])c1OC([H])([H])C([H])([H])C([H])([H])Oc1c([H])c([H])c2c(c1[H])C([H])([H])N(C(=O)C([H])(N([H])C(=O)C([H])(N([H])C([H])([H])[H])C([H])([H])[H])C(C([H])([H])[H])(C([H])([H])[H])C([H])([H])[H])C([H])(C(=O)N([H])C1([H])c3c([H])c([H])c([H])c([H])c3C([H])([H])C([H])([H])C1([H])[H])C2([H])[H]

>  <smiles>  (39) 
[H]c1nc(C2([H])C([H])([H])N(C(=O)N3C([H])([H])C([H])([H])C([H])([H])C([H])(n4nc(-c5c([H])c([H])c(Oc6c([H])c([H])c(F)c([H])c6F)c([H])c5[H])c(C(=O)N([H])[H])c4N([H])[H])C3([H])[H])C([H])([H])C2([H])[H])c(C([H])([H])[H])c(C([H])([H])[H])c1OC([H])([H])C([H])([H])C([H])([H])Oc1c([H])c([H])c2c(c1[H])C([H])([H])N(C(=O)C([H])(N([H])C(=O)C([H])(N([H])C([H])([H])[H])C([H])([H])[H])C(C([H])([H])[H])(C([H])([H])[H])C([H])([H])[H])C([H])(C(=O)N([H])C1([H])c3c([H])c([H])c([H])c([H])c3C([H])([H])C([H])([H])C1([H])[H])C2([H])[H]

$$$$
39:0:0
     RDKit          3D

 96105  0  0  1  0  0  0  0  0999 V2000
  -30.1590  -21.6130   23.6160 C   0  0  0  0  0  3  0  0  0  0  0  0
  -29.8920  -22.9430   23.2270 C   0  0  0  0  0  0  0  0  0  0  0  0
  -29.3810  -23.1820   21.9290 C   0  0  0  0  0  0  0  0  0  0  0  0
  -29.1770  -22.0630   21.0900 C   0  0  0  0  0  0  0  0  0  0  0  0
  -29.9170  -20.5640   22.7110 C   0  0  0  0  0  0  0  0  0  0  0  0
  -30.1250  -24.0810   24.2030 C   0  0  0  0  0  1  0  0  0  0  0  0
  -28.6010  -22.2260   19.6990 C   0  0  0  0  0  1  0  0  0  0  0  0
  -29.4550  -20.7930   21.4650 N   0  0  0  0  0  0  0  0  0  0  0  0
  -30.1210  -19.2370   23.1180 N   0  0  0  0  0  0  0  0  0  0  0  0
  -30.4710  -19.1130   24.0610 H   0  0  0  0  0  0  0  0  0  0  0  0
  -31.0590  -14.6050   19.9470 C   0  0  0  0  0  0  0  0  0  0  0  0
  -30.5750  -12.5100   18.7420 C   0  0  0  0  0  2  0  0  0  0  0  0
  -29.5400  -12.7300   17.6240 C   0  0  0  0  0  2  0  0  0  0  0  0
  -28.1130  -12.5640   18.1740 C   0  0  0  0  0  2  0  0  0  0  0  0
  -27.8760  -13.3950   19.4610 C   0  0  0  0  0  3  0  0  0  0  0  0
  -29.0210  -13.1910   20.4850 C   0  0  0  0  0  2  0  0  0  0  0  0
  -30.3040  -13.4770   19.8200 N   0  0  0  0  0  0  0  0  0  0  0  0
  -32.0640  -14.8060   19.2560 O   0  0  0  0  0  0  0  0  0  0  0  0
  -29.3170  -17.5580   21.4330 C   0  0  0  0  0  2  0  0  0  0  0  0
  -31.3110  -17.0720   22.7940 C   0  0  0  0  0  2  0  0  0  0  0  0
  -29.8310  -16.5990   20.3470 C   0  0  0  0  0  2  0  0  0  0  0  0
  -31.7770  -16.0480   21.7340 C   0  0  0  0  0  2  0  0  0  0  0  0
  -30.5100  -18.2130   22.1460 C   0  0  0  0  0  3  0  0  0  0  0  0
  -30.6890  -15.5210   20.8760 N   0  0  0  0  0  0  0  0  0  0  0  0
  -25.5560  -13.9890   20.4060 C   0  0  0  0  0  0  0  0  0  0  0  0
  -24.5150  -13.2090   20.8280 C   0  0  0  0  0  0  0  0  0  0  0  0
  -24.9560  -11.8570   20.6950 C   0  0  0  0  0  0  0  0  0  0  0  0
  -26.5670  -13.1120   20.0450 N   0  0  0  0  0  0  0  0  0  0  0  0
  -26.2140  -11.8220   20.2730 N   0  0  0  0  0  0  0  0  0  0  0  0
  -24.2350  -10.5930   20.8870 C   0  0  0  0  0  0  0  0  0  0  0  0
  -24.6800   -9.6220   21.8110 C   0  0  0  0  0  3  0  0  0  0  0  0
  -23.9580   -8.4220   21.9930 C   0  0  0  0  0  3  0  0  0  0  0  0
  -22.7780   -8.1860   21.2490 C   0  0  0  0  0  0  0  0  0  0  0  0
  -22.3530   -9.1450   20.3130 C   0  0  0  0  0  3  0  0  0  0  0  0
  -23.0750  -10.3360   20.1300 C   0  0  0  0  0  3  0  0  0  0  0  0
  -22.0270   -7.0380   21.3400 O   0  0  0  0  0  0  0  0  0  0  0  0
  -21.8980   -6.3550   22.5220 C   0  0  0  0  0  0  0  0  0  0  0  0
  -21.3780   -6.9660   23.6830 C   0  0  0  0  0  3  0  0  0  0  0  0
  -21.1970   -6.2080   24.8580 C   0  0  0  0  0  3  0  0  0  0  0  0
  -21.5260   -4.8400   24.8710 C   0  0  0  0  0  0  0  0  0  0  0  0
  -22.0380   -4.2270   23.7140 C   0  0  0  0  0  3  0  0  0  0  0  0
  -22.2210   -4.9820   22.5420 C   0  0  0  0  0  0  0  0  0  0  0  0
  -22.6950   -4.3830   21.4230 F   0  0  0  0  0  0  0  0  0  0  0  0
  -21.3440   -4.1090   25.9960 F   0  0  0  0  0  0  0  0  0  0  0  0
  -23.1510  -13.6820   21.2450 C   0  0  0  0  0  0  0  0  0  0  0  0
  -22.5090  -12.9660   22.1610 N   0  0  0  0  0  0  0  0  0  0  0  0
  -22.6680  -14.7210   20.7940 O   0  0  0  0  0  0  0  0  0  0  0  0
  -22.9160  -12.1270   22.5460 H   0  0  0  0  0  0  0  0  0  0  0  0
  -21.5990  -13.2590   22.4830 H   0  0  0  0  0  0  0  0  0  0  0  0
  -25.7190  -15.3670   20.2800 N   0  0  0  0  0  0  0  0  0  0  0  0
  -24.9710  -16.0190   20.4860 H   0  0  0  0  0  0  0  0  0  0  0  0
  -26.5550  -15.8200   19.9340 H   0  0  0  0  0  0  0  0  0  0  0  0
  -29.0060  -24.4420   21.5210 O   0  0  0  0  0  0  0  0  0  0  0  0
  -30.0580  -25.2910   21.0650 C   0  0  0  0  0  2  0  0  0  0  0  0
  -29.5280  -26.7310   20.9040 C   0  0  0  0  0  2  0  0  0  0  0  0
  -28.7660  -26.8410   19.7020 O   0  0  0  0  0  0  0  0  0  0  0  0
  -24.6890  -31.6080   23.1200 C   0  0  0  0  0  0  0  0  0  0  0  0
  -27.5880  -27.5410   19.7880 C   0  0  0  0  0  0  0  0  0  0  0  0
  -23.5610  -30.2330   21.3980 C   0  0  0  0  0  3  0  0  0  0  0  0
  -25.1000  -28.8740   19.8840 C   0  0  0  0  0  0  0  0  0  0  0  0
  -26.0550  -30.7640   21.2170 C   0  0  0  0  0  2  0  0  0  0  0  0
  -26.2230  -29.4370   20.5070 C   0  0  0  0  0  0  0  0  0  0  0  0
  -27.4680  -28.7750   20.4660 C   0  0  0  0  0  3  0  0  0  0  0  0
  -26.4580  -26.9950   19.1480 C   0  0  0  0  0  3  0  0  0  0  0  0
  -25.2110  -27.6490   19.2030 C   0  0  0  0  0  3  0  0  0  0  0  0
  -23.8050  -29.6480   19.9810 C   0  0  0  0  0  2  0  0  0  0  0  0
  -24.7860  -30.8810   21.9710 N   0  0  0  0  0  0  0  0  0  0  0  0
  -23.5980  -31.7810   23.6790 O   0  0  0  0  0  0  0  0  0  0  0  0
  -22.9790  -29.1210   22.3000 C   0  0  0  0  0  0  0  0  0  0  0  0
  -21.6730  -28.8500   22.1440 N   0  0  0  0  0  0  0  0  0  0  0  0
  -23.6980  -28.5060   23.0910 O   0  0  0  0  0  0  0  0  0  0  0  0
  -21.1500  -29.4050   21.4820 H   0  0  0  0  0  0  0  0  0  0  0  0
  -18.3950  -27.3780   22.5190 C   0  0  0  0  0  0  0  0  0  0  0  0
  -20.9200  -27.8160   22.8540 C   0  0  0  0  0  3  0  0  0  0  0  0
  -21.1430  -26.4260   22.2160 C   0  0  0  0  0  2  0  0  0  0  0  0
  -20.0870  -26.0680   21.1650 C   0  0  0  0  0  2  0  0  0  0  0  0
  -18.6880  -26.0780   21.7870 C   0  0  0  0  0  2  0  0  0  0  0  0
  -19.4440  -28.2010   23.0060 C   0  0  0  0  0  0  0  0  0  0  0  0
  -19.1180  -29.4170   23.6480 C   0  0  0  0  0  3  0  0  0  0  0  0
  -17.7770  -29.8100   23.8070 C   0  0  0  0  0  3  0  0  0  0  0  0
  -16.7410  -28.9820   23.3370 C   0  0  0  0  0  3  0  0  0  0  0  0
  -17.0500  -27.7680   22.6990 C   0  0  0  0  0  3  0  0  0  0  0  0
  -25.9410  -32.2760   23.7730 C   0  0  0  0  0  3  0  0  0  0  0  0
  -26.4750  -31.4990   25.0370 C   0  0  1  0  0  0  0  0  0  0  0  0
  -25.3760  -31.1810   26.0780 C   0  0  0  0  0  1  0  0  0  0  0  0
  -27.1310  -30.1620   24.6170 C   0  0  0  0  0  1  0  0  0  0  0  0
  -27.5740  -32.3300   25.7420 C   0  0  0  0  0  1  0  0  0  0  0  0
  -25.5740  -33.6530   24.1250 N   0  0  0  0  0  0  0  0  0  0  0  0
  -25.8930  -34.7330   23.4000 C   0  0  0  0  0  0  0  0  0  0  0  0
  -26.5980  -34.6770   22.3880 O   0  0  0  0  0  0  0  0  0  0  0  0
  -24.9500  -33.7680   24.9090 H   0  0  0  0  0  0  0  0  0  0  0  0
  -24.1180  -36.4740   23.0240 C   0  0  0  0  0  1  0  0  0  0  0  0
  -25.3420  -36.0910   23.8720 C   0  0  0  0  0  3  0  0  0  0  0  0
  -27.4120  -37.0270   24.8030 C   0  0  0  0  0  1  0  0  0  0  0  0
  -26.3410  -37.1810   23.8230 N   0  0  0  0  0  0  0  0  0  0  0  0
  -25.8980  -38.0820   23.9770 H   0  0  0  0  0  0  0  0  0  0  0  0
  2  1  1  0
  2  6  1  0
  3  2  2  0
  4  8  2  0
  4  3  1  0
  5  9  1  0
  5  1  2  0
  7  4  1  0
  8  5  1  0
  9 10  1  0
 11 24  1  0
 12 17  1  0
 13 14  1  0
 13 12  1  0
 15 14  1  0
 15 28  1  0
 15 16  1  0
 17 11  1  0
 17 16  1  0
 18 11  2  0
 19 23  1  0
 21 24  1  0
 21 19  1  0
 22 20  1  0
 23 20  1  0
 23  9  1  0
 24 22  1  0
 25 26  2  0
 26 45  1  0
 27 26  1  0
 27 30  1  0
 28 29  1  0
 28 25  1  0
 29 27  2  0
 30 31  1  0
 31 32  2  0
 33 36  1  0
 33 32  1  0
 34 33  2  0
 35 34  1  0
 35 30  2  0
 36 37  1  0
 37 42  2  0
 37 38  1  0
 38 39  2  0
 39 40  1  0
 40 44  1  0
 41 40  2  0
 42 41  1  0
 43 42  1  0
 45 46  1  0
 46 49  1  0
 46 48  1  0
 47 45  2  0
 50 25  1  0
 50 51  1  0
 52 50  1  0
 53  3  1  0
 54 53  1  0
 55 54  1  0
 56 58  1  0
 56 55  1  0
 57 68  2  0
 58 63  1  0
 59 67  1  0
 59 69  1  0
 60 66  1  0
 60 62  1  0
 61 67  1  0
 62 61  1  0
 63 62  2  0
 64 65  1  0
 64 58  2  0
 65 60  2  0
 66 59  1  0
 67 57  1  0
 69 71  2  0
 70 69  1  0
 72 70  1  0
 73 82  2  0
 73 78  1  0
 74 70  1  0
 74 78  1  0
 75 74  1  0
 76 77  1  0
 76 75  1  0
 77 73  1  0
 78 79  2  0
 79 80  1  0
 81 80  2  0
 82 81  1  0
 83 57  1  0
 83 88  1  0
 83 84  1  0
 84 87  1  1
 84 85  1  0
 86 84  1  0
 88 91  1  0
 89 93  1  0
 89 88  1  0
 90 89  2  0
 93 92  1  0
 95 93  1  0
 95 96  1  0
 95 94  1  0
M  ISO  4  11 100  24 100  55 101  56 101
M  END
>  <TORSDO>  (40) 
F 19

>  <SCORE>  (40) 
-9.954

>  <name>  (40) 
39

>  <ligand_id>  (40) 
39

>  <original_smiles>  (40) 
[H]c1c([H])c([H])c2c(c1[H])C([H])([H])C([H])([H])C([H])([H])C2([H])N([H])C(=O)C1([H])N(C(=O)C([H])(N([H])C(=O)C([H])(N([H])C([H])([H])[H])C([H])([H])[H])C(C([H])([H])[H])(C([H])([H])[H])C([H])([H])[H])C([H])([H])c2c([H])c(OC([H])([H])C([H])([H])Oc3c(C([H])([H])[H])nc(N([H])C4([H])C([H])([H])C([H])([H])N(C(=O)N5C([H])([H])C([H])([H])C([H])([H])C([H])(n6nc(-c7c([H])c([H])c(Oc8c([H])c([H])c(F)c([H])c8F)c([H])c7[H])c(C(=O)N([H])[H])c6N([H])[H])C5([H])[H])C([H])([H])C4([H])[H])c([H])c3C([H])([H])[H])c([H])c([H])c2C1([H])[H]

>  <smiles>  (40) 
[H]c1c([H])c([H])c2c(c1[H])C([H])([H])C([H])([H])C([H])([H])C2([H])N([H])C(=O)C1([H])N(C(=O)C([H])(N([H])C(=O)C([H])(N([H])C([H])([H])[H])C([H])([H])[H])C(C([H])([H])[H])(C([H])([H])[H])C([H])([H])[H])C([H])([H])c2c([H])c(OC([H])([H])C([H])([H])Oc3c(C([H])([H])[H])nc(N([H])C4([H])C([H])([H])C([H])([H])N(C(=O)N5C([H])([H])C([H])([H])C([H])([H])C([H])(n6nc(-c7c([H])c([H])c(Oc8c([H])c([H])c(F)c([H])c8F)c([H])c7[H])c(C(=O)N([H])[H])c6N([H])[H])C5([H])[H])C([H])([H])C4([H])[H])c([H])c3C([H])([H])[H])c([H])c([H])c2C1([H])[H]

$$$$
40:0:0
     RDKit          3D

 90 99  0  0  1  0  0  0  0  0999 V2000
  -27.0270  -21.4260   19.8680 C   0  0  0  0  0  0  0  0  0  0  0  0
  -28.2030  -23.8840   21.6430 C   0  0  0  0  0  2  0  0  0  0  0  0
  -28.5970  -22.3130   21.6570 C   0  0  0  0  0  2  0  0  0  0  0  0
  -28.8510  -23.1380   19.5070 C   0  0  0  0  0  2  0  0  0  0  0  0
  -27.9830  -19.5750   18.8260 C   0  0  0  0  0  2  0  0  0  0  0  0
  -28.8590  -19.8340   20.0470 C   0  0  0  0  0  3  0  0  0  0  0  0
  -28.1100  -24.5280   20.2130 C   0  0  0  0  0  3  0  0  0  0  0  0
  -28.5210  -21.6200   20.2490 C   0  0  2  0  0  0  0  0  0  0  0  0
  -26.0990  -22.1320   20.2680 O   0  0  0  0  0  0  0  0  0  0  0  0
  -26.8440  -20.3830   19.0490 O   0  0  0  0  0  0  0  0  0  0  0  0
  -28.3230  -26.1670   20.1490 O   0  0  0  0  0  0  0  0  0  0  0  0
  -24.7260  -32.0020   23.3490 C   0  0  0  0  0  0  0  0  0  0  0  0
  -27.2980  -27.2470   20.1680 C   0  0  0  0  0  0  0  0  0  0  0  0
  -23.5410  -30.6630   21.6590 C   0  0  0  0  0  3  0  0  0  0  0  0
  -24.9940  -29.1140   20.1880 C   0  0  0  0  0  0  0  0  0  0  0  0
  -26.1050  -30.8890   21.5250 C   0  0  0  0  0  2  0  0  0  0  0  0
  -26.1800  -29.5030   20.8230 C   0  0  0  0  0  0  0  0  0  0  0  0
  -27.3280  -28.5910   20.7880 C   0  0  0  0  0  3  0  0  0  0  0  0
  -26.0820  -27.0130   19.4870 C   0  0  0  0  0  3  0  0  0  0  0  0
  -24.9680  -27.8910   19.5000 C   0  0  0  0  0  3  0  0  0  0  0  0
  -23.7750  -30.0320   20.2590 C   0  0  0  0  0  2  0  0  0  0  0  0
  -24.8120  -31.2090   22.2330 N   0  0  0  0  0  0  0  0  0  0  0  0
  -23.6330  -32.2680   23.8780 O   0  0  0  0  0  0  0  0  0  0  0  0
  -22.8480  -29.6290   22.5860 C   0  0  0  0  0  0  0  0  0  0  0  0
  -21.5250  -29.4410   22.4300 N   0  0  0  0  0  0  0  0  0  0  0  0
  -23.5100  -28.9970   23.4120 O   0  0  0  0  0  0  0  0  0  0  0  0
  -21.0420  -30.0030   21.7450 H   0  0  0  0  0  0  0  0  0  0  0  0
  -18.1530  -28.1710   22.8710 C   0  0  0  0  0  0  0  0  0  0  0  0
  -20.7070  -28.4660   23.1620 C   0  0  0  0  0  3  0  0  0  0  0  0
  -20.8330  -27.0540   22.5440 C   0  0  0  0  0  2  0  0  0  0  0  0
  -19.7440  -26.7480   21.5100 C   0  0  0  0  0  2  0  0  0  0  0  0
  -18.3560  -26.8490   22.1480 C   0  0  0  0  0  2  0  0  0  0  0  0
  -19.2570  -28.9360   23.3330 C   0  0  0  0  0  0  0  0  0  0  0  0
  -19.0120  -30.1710   23.9730 C   0  0  0  0  0  3  0  0  0  0  0  0
  -17.6970  -30.6410   24.1510 C   0  0  0  0  0  3  0  0  0  0  0  0
  -16.6080  -29.8750   23.7010 C   0  0  0  0  0  3  0  0  0  0  0  0
  -16.8370  -28.6390   23.0670 C   0  0  0  0  0  3  0  0  0  0  0  0
  -25.9920  -32.6270   24.0080 C   0  0  0  0  0  3  0  0  0  0  0  0
  -25.6850  -34.0300   24.3410 N   0  0  0  0  0  0  0  0  0  0  0  0
  -25.9920  -35.0850   23.5740 C   0  0  0  0  0  0  0  0  0  0  0  0
  -26.6260  -34.9790   22.5210 O   0  0  0  0  0  0  0  0  0  0  0  0
  -25.1190  -34.1850   25.1620 H   0  0  0  0  0  0  0  0  0  0  0  0
  -24.2340  -36.8680   23.3080 C   0  0  0  0  0  1  0  0  0  0  0  0
  -25.5250  -36.4780   24.0460 C   0  0  0  0  0  3  0  0  0  0  0  0
  -27.6910  -37.4000   24.7480 C   0  0  0  0  0  1  0  0  0  0  0  0
  -26.5430  -37.5380   23.8560 N   0  0  0  0  0  0  0  0  0  0  0  0
  -26.1370  -38.4590   23.9990 H   0  0  0  0  0  0  0  0  0  0  0  0
  -26.4600  -31.8530   25.3030 C   0  0  1  0  0  0  0  0  0  0  0  0
  -25.3320  -31.6250   26.3380 C   0  0  0  0  0  1  0  0  0  0  0  0
  -27.0440  -30.4690   24.9390 C   0  0  0  0  0  1  0  0  0  0  0  0
  -27.6000  -32.6360   25.9970 C   0  0  0  0  0  1  0  0  0  0  0  0
  -30.0740  -18.5160   20.1290 C   0  0  0  0  0  2  0  0  0  0  0  0
  -30.6630  -15.6070   20.1060 C   0  0  0  0  0  0  0  0  0  0  0  0
  -30.6680  -13.1530   19.2650 C   0  0  0  0  0  2  0  0  0  0  0  0
  -29.7230  -12.9200   18.0600 C   0  0  0  0  0  2  0  0  0  0  0  0
  -28.2890  -12.6310   18.5360 C   0  0  0  0  0  2  0  0  0  0  0  0
  -27.8470  -13.5950   19.6660 C   0  0  0  0  0  3  0  0  0  0  0  0
  -28.9190  -13.7750   20.7610 C   0  0  0  0  0  2  0  0  0  0  0  0
  -30.1230  -14.2920   20.0910 N   0  0  0  0  0  0  0  0  0  0  0  0
  -31.8770  -15.6360   19.8590 O   0  0  0  0  0  0  0  0  0  0  0  0
  -29.8630  -16.8540   20.1980 N   0  0  0  0  0  0  0  0  0  0  0  0
  -28.8940  -16.6120   20.3420 H   0  0  0  0  0  0  0  0  0  0  0  0
  -25.5080  -14.1290   20.5250 C   0  0  0  0  0  0  0  0  0  0  0  0
  -24.4580  -13.3420   20.9090 C   0  0  0  0  0  0  0  0  0  0  0  0
  -24.9210  -11.9940   20.8150 C   0  0  0  0  0  0  0  0  0  0  0  0
  -26.5390  -13.2620   20.2120 N   0  0  0  0  0  0  0  0  0  0  0  0
  -26.2010  -11.9690   20.4560 N   0  0  0  0  0  0  0  0  0  0  0  0
  -24.1980  -10.7260   20.9850 C   0  0  0  0  0  0  0  0  0  0  0  0
  -24.6040   -9.7680   21.9370 C   0  0  0  0  0  3  0  0  0  0  0  0
  -23.8810   -8.5670   22.0990 C   0  0  0  0  0  3  0  0  0  0  0  0
  -22.7320   -8.3190   21.3080 C   0  0  0  0  0  0  0  0  0  0  0  0
  -22.3440   -9.2670   20.3450 C   0  0  0  0  0  3  0  0  0  0  0  0
  -23.0700  -10.4590   20.1820 C   0  0  0  0  0  3  0  0  0  0  0  0
  -21.9830   -7.1700   21.3770 O   0  0  0  0  0  0  0  0  0  0  0  0
  -21.8170   -6.4880   22.5540 C   0  0  0  0  0  0  0  0  0  0  0  0
  -21.1880   -7.0740   23.6750 C   0  0  0  0  0  3  0  0  0  0  0  0
  -20.9770   -6.3150   24.8420 C   0  0  0  0  0  3  0  0  0  0  0  0
  -21.3830   -4.9670   24.8910 C   0  0  0  0  0  0  0  0  0  0  0  0
  -22.0040   -4.3800   23.7740 C   0  0  0  0  0  3  0  0  0  0  0  0
  -22.2160   -5.1380   22.6100 C   0  0  0  0  0  0  0  0  0  0  0  0
  -22.7960   -4.5590   21.5300 F   0  0  0  0  0  0  0  0  0  0  0  0
  -21.1740   -4.2360   26.0080 F   0  0  0  0  0  0  0  0  0  0  0  0
  -23.0730  -13.8140   21.2390 C   0  0  0  0  0  0  0  0  0  0  0  0
  -22.3770  -13.1030   22.1200 N   0  0  0  0  0  0  0  0  0  0  0  0
  -22.6160  -14.8460   20.7500 O   0  0  0  0  0  0  0  0  0  0  0  0
  -22.7570  -12.2680   22.5400 H   0  0  0  0  0  0  0  0  0  0  0  0
  -21.4460  -13.3990   22.3770 H   0  0  0  0  0  0  0  0  0  0  0  0
  -25.6650  -15.5060   20.3860 N   0  0  0  0  0  0  0  0  0  0  0  0
  -24.8940  -16.1500   20.5330 H   0  0  0  0  0  0  0  0  0  0  0  0
  -26.4780  -15.9540   19.9900 H   0  0  0  0  0  0  0  0  0  0  0  0
  1  8  1  0
  1  9  2  0
  2  3  1  0
  4  7  1  0
  5 10  1  0
  5  6  1  0
  6 52  1  0
  6  8  1  0
  7 11  1  0
  7  2  1  0
  8  4  1  6
  8  3  1  0
 10  1  1  0
 11 13  1  0
 12 23  2  0
 13 18  1  0
 14 22  1  0
 14 24  1  0
 15 21  1  0
 15 17  1  0
 16 22  1  0
 17 16  1  0
 18 17  2  0
 19 20  1  0
 19 13  2  0
 20 15  2  0
 21 14  1  0
 22 12  1  0
 24 26  2  0
 25 24  1  0
 27 25  1  0
 28 37  2  0
 28 33  1  0
 29 25  1  0
 29 33  1  0
 30 29  1  0
 31 32  1  0
 31 30  1  0
 32 28  1  0
 33 34  2  0
 34 35  1  0
 36 35  2  0
 37 36  1  0
 38 12  1  0
 38 39  1  0
 38 48  1  0
 39 42  1  0
 40 44  1  0
 40 39  1  0
 41 40  2  0
 44 43  1  0
 46 47  1  0
 46 44  1  0
 46 45  1  0
 48 51  1  1
 48 49  1  0
 50 48  1  0
 52 61  1  0
 53 61  1  0
 54 59  1  0
 55 56  1  0
 55 54  1  0
 57 56  1  0
 57 66  1  0
 57 58  1  0
 59 53  1  0
 59 58  1  0
 60 53  2  0
 61 62  1  0
 63 64  2  0
 64 83  1  0
 65 64  1  0
 65 68  1  0
 66 67  1  0
 66 63  1  0
 67 65  2  0
 68 69  1  0
 69 70  2  0
 71 74  1  0
 71 70  1  0
 72 71  2  0
 73 72  1  0
 73 68  2  0
 74 75  1  0
 75 80  2  0
 75 76  1  0
 76 77  2  0
 77 78  1  0
 78 82  1  0
 79 78  2  0
 80 79  1  0
 81 80  1  0
 83 84  1  0
 84 87  1  0
 84 86  1  0
 85 83  2  0
 88 63  1  0
 88 89  1  0
 90 88  1  0
M  ISO  4   7 101  11 101  53 100  61 100
M  END
>  <TORSDO>  (41) 
F 17

>  <SCORE>  (41) 
-15.666

>  <name>  (41) 
40

>  <ligand_id>  (41) 
40

>  <original_smiles>  (41) 
[H]c1c([H])c([H])c2c(c1[H])C([H])([H])C([H])([H])C([H])([H])C2([H])N([H])C(=O)C1([H])N(C(=O)C([H])(N([H])C(=O)C([H])(N([H])C([H])([H])[H])C([H])([H])[H])C(C([H])([H])[H])(C([H])([H])[H])C([H])([H])[H])C([H])([H])c2c([H])c(OC3([H])C([H])([H])C([H])([H])C4(C(=O)OC([H])([H])C4([H])C([H])([H])N([H])C(=O)N4C([H])([H])C([H])([H])C([H])([H])C([H])(n5nc(-c6c([H])c([H])c(Oc7c([H])c([H])c(F)c([H])c7F)c([H])c6[H])c(C(=O)N([H])[H])c5N([H])[H])C4([H])[H])C3([H])[H])c([H])c([H])c2C1([H])[H]

>  <smiles>  (41) 
[H]c1c([H])c([H])c2c(c1[H])C([H])([H])C([H])([H])C([H])([H])C2([H])N([H])C(=O)C1([H])N(C(=O)C([H])(N([H])C(=O)C([H])(N([H])C([H])([H])[H])C([H])([H])[H])C(C([H])([H])[H])(C([H])([H])[H])C([H])([H])[H])C([H])([H])c2c([H])c(OC3([H])C([H])([H])C([H])([H])C4(C(=O)OC([H])([H])C4([H])C([H])([H])N([H])C(=O)N4C([H])([H])C([H])([H])C([H])([H])C([H])(n5nc(-c6c([H])c([H])c(Oc7c([H])c([H])c(F)c([H])c7F)c([H])c6[H])c(C(=O)N([H])[H])c5N([H])[H])C4([H])[H])C3([H])[H])c([H])c([H])c2C1([H])[H]

$$$$
41:0:0
     RDKit          3D

 96106  0  0  1  0  0  0  0  0999 V2000
  -30.3170  -21.9920   20.7500 C   0  0  0  0  0  3  0  0  0  0  0  0
  -28.0840  -21.9290   19.8800 C   0  0  0  0  0  3  0  0  0  0  0  0
  -29.1450  -22.7020   20.4020 C   0  0  0  0  0  0  0  0  0  0  0  0
  -29.4280  -19.8270   19.9250 C   0  0  0  0  0  0  0  0  0  0  0  0
  -30.4660  -20.5970   20.5310 C   0  0  0  0  0  0  0  0  0  0  0  0
  -28.2050  -20.5190   19.6480 C   0  0  0  0  0  0  0  0  0  0  0  0
  -31.7890  -19.9600   20.9280 C   0  0  0  0  0  1  0  0  0  0  0  0
  -29.1590  -18.0010   18.0270 C   0  0  0  0  0  2  0  0  0  0  0  0
  -28.2480  -16.9780   18.7100 C   0  0  0  0  0  2  0  0  0  0  0  0
  -29.7280  -18.3620   19.4080 C   0  0  0  0  0  3  0  0  0  0  0  0
  -29.2370  -16.9210   19.8910 C   0  0  0  0  0  3  0  0  0  0  0  0
  -30.7610  -14.7830   20.2690 C   0  0  0  0  0  0  0  0  0  0  0  0
  -30.4930  -12.5250   19.3210 C   0  0  0  0  0  2  0  0  0  0  0  0
  -29.5710  -12.5930   18.0900 C   0  0  0  0  0  2  0  0  0  0  0  0
  -28.0990  -12.4320   18.5180 C   0  0  0  0  0  2  0  0  0  0  0  0
  -27.7120  -13.3370   19.7210 C   0  0  0  0  0  3  0  0  0  0  0  0
  -28.7710  -13.3170   20.8420 C   0  0  0  0  0  2  0  0  0  0  0  0
  -30.0610  -13.6130   20.2130 N   0  0  0  0  0  0  0  0  0  0  0  0
  -31.9860  -14.7850   20.1850 O   0  0  0  0  0  0  0  0  0  0  0  0
  -30.2240  -15.8380   19.6040 N   0  0  0  0  0  0  0  0  0  0  0  0
  -30.9700  -16.2230   19.0430 H   0  0  0  0  0  0  0  0  0  0  0  0
  -25.3130  -13.9310   20.4050 C   0  0  0  0  0  0  0  0  0  0  0  0
  -24.2460  -13.1550   20.7670 C   0  0  0  0  0  0  0  0  0  0  0  0
  -24.7210  -11.8070   20.7630 C   0  0  0  0  0  0  0  0  0  0  0  0
  -26.3670  -13.0540   20.2030 N   0  0  0  0  0  0  0  0  0  0  0  0
  -26.0170  -11.7740   20.4810 N   0  0  0  0  0  0  0  0  0  0  0  0
  -24.0050  -10.5410   20.9560 C   0  0  0  0  0  0  0  0  0  0  0  0
  -24.4250   -9.5970   21.9180 C   0  0  0  0  0  3  0  0  0  0  0  0
  -23.7090   -8.3940   22.0980 C   0  0  0  0  0  3  0  0  0  0  0  0
  -22.5600   -8.1280   21.3160 C   0  0  0  0  0  0  0  0  0  0  0  0
  -22.1610   -9.0610   20.3430 C   0  0  0  0  0  3  0  0  0  0  0  0
  -22.8780  -10.2560   20.1600 C   0  0  0  0  0  3  0  0  0  0  0  0
  -21.8160   -6.9770   21.4050 O   0  0  0  0  0  0  0  0  0  0  0  0
  -21.7320   -6.2640   22.5740 C   0  0  0  0  0  0  0  0  0  0  0  0
  -21.2330   -6.8400   23.7620 C   0  0  0  0  0  3  0  0  0  0  0  0
  -21.0970   -6.0510   24.9220 C   0  0  0  0  0  3  0  0  0  0  0  0
  -21.4510   -4.6900   24.8950 C   0  0  0  0  0  0  0  0  0  0  0  0
  -21.9440   -4.1140   23.7100 C   0  0  0  0  0  3  0  0  0  0  0  0
  -22.0790   -4.8980   22.5530 C   0  0  0  0  0  0  0  0  0  0  0  0
  -22.5340   -4.3340   21.4080 F   0  0  0  0  0  0  0  0  0  0  0  0
  -21.3140   -3.9300   26.0070 F   0  0  0  0  0  0  0  0  0  0  0  0
  -22.8400  -13.6240   21.0060 C   0  0  0  0  0  0  0  0  0  0  0  0
  -22.1080  -12.9340   21.8740 N   0  0  0  0  0  0  0  0  0  0  0  0
  -22.4010  -14.6350   20.4620 O   0  0  0  0  0  0  0  0  0  0  0  0
  -22.4800  -12.1170   22.3340 H   0  0  0  0  0  0  0  0  0  0  0  0
  -21.1630  -13.2250   22.0800 H   0  0  0  0  0  0  0  0  0  0  0  0
  -25.4700  -15.2990   20.2080 N   0  0  0  0  0  0  0  0  0  0  0  0
  -24.7000  -15.9520   20.2920 H   0  0  0  0  0  0  0  0  0  0  0  0
  -26.3310  -15.7310   19.9010 H   0  0  0  0  0  0  0  0  0  0  0  0
  -30.0270  -25.0590   19.8210 C   0  0  0  0  0  2  0  0  0  0  0  0
  -29.0800  -24.2260   20.6440 C   0  0  0  0  0  3  0  0  0  0  0  0
  -28.5530  -25.3740   19.7210 C   0  0  0  0  0  3  0  0  0  0  0  0
  -28.4970  -26.7620   20.1820 O   0  0  0  0  0  0  0  0  0  0  0  0
  -24.7050  -31.9390   23.3480 C   0  0  0  0  0  0  0  0  0  0  0  0
  -27.3210  -27.5070   20.1620 C   0  0  0  0  0  0  0  0  0  0  0  0
  -23.4920  -30.5760   21.6830 C   0  0  0  0  0  3  0  0  0  0  0  0
  -24.9350  -29.0630   20.2130 C   0  0  0  0  0  0  0  0  0  0  0  0
  -26.0210  -30.9220   21.4810 C   0  0  0  0  0  2  0  0  0  0  0  0
  -26.1000  -29.5600   20.8060 C   0  0  0  0  0  0  0  0  0  0  0  0
  -27.2930  -28.7920   20.7730 C   0  0  0  0  0  3  0  0  0  0  0  0
  -26.1310  -27.0350   19.5650 C   0  0  0  0  0  3  0  0  0  0  0  0
  -24.9480  -27.8040   19.5880 C   0  0  0  0  0  3  0  0  0  0  0  0
  -23.6950  -29.9280   20.2860 C   0  0  0  0  0  2  0  0  0  0  0  0
  -24.7590  -31.1610   22.2290 N   0  0  0  0  0  0  0  0  0  0  0  0
  -23.6270  -32.1980   23.9010 O   0  0  0  0  0  0  0  0  0  0  0  0
  -22.8430  -29.5340   22.6250 C   0  0  0  0  0  0  0  0  0  0  0  0
  -21.5200  -29.3420   22.4900 N   0  0  0  0  0  0  0  0  0  0  0  0
  -23.5280  -28.9030   23.4340 O   0  0  0  0  0  0  0  0  0  0  0  0
  -21.0270  -29.9040   21.8100 H   0  0  0  0  0  0  0  0  0  0  0  0
  -18.1580  -28.0930   22.9440 C   0  0  0  0  0  0  0  0  0  0  0  0
  -20.7100  -28.3830   23.2420 C   0  0  0  0  0  3  0  0  0  0  0  0
  -20.8380  -26.9610   22.6490 C   0  0  0  0  0  2  0  0  0  0  0  0
  -19.7500  -26.6360   21.6210 C   0  0  0  0  0  2  0  0  0  0  0  0
  -18.3600  -26.7550   22.2540 C   0  0  0  0  0  2  0  0  0  0  0  0
  -19.2620  -28.8650   23.3940 C   0  0  0  0  0  0  0  0  0  0  0  0
  -19.0210  -30.1180   23.9980 C   0  0  0  0  0  3  0  0  0  0  0  0
  -17.7080  -30.6000   24.1580 C   0  0  0  0  0  3  0  0  0  0  0  0
  -16.6180  -29.8250   23.7250 C   0  0  0  0  0  3  0  0  0  0  0  0
  -16.8440  -28.5740   23.1230 C   0  0  0  0  0  3  0  0  0  0  0  0
  -25.9940  -32.5590   23.9750 C   0  0  0  0  0  3  0  0  0  0  0  0
  -26.5140  -31.7660   25.2370 C   0  0  1  0  0  0  0  0  0  0  0  0
  -25.4270  -31.5120   26.3060 C   0  0  0  0  0  1  0  0  0  0  0  0
  -27.0920  -30.3960   24.8160 C   0  0  0  0  0  1  0  0  0  0  0  0
  -27.6690  -32.5480   25.9070 C   0  0  0  0  0  1  0  0  0  0  0  0
  -25.6900  -33.9520   24.3300 N   0  0  0  0  0  0  0  0  0  0  0  0
  -25.9840  -35.0140   23.5670 C   0  0  0  0  0  0  0  0  0  0  0  0
  -26.6130  -34.9240   22.5080 O   0  0  0  0  0  0  0  0  0  0  0  0
  -25.1300  -34.0960   25.1570 H   0  0  0  0  0  0  0  0  0  0  0  0
  -24.2140  -36.7830   23.3210 C   0  0  0  0  0  1  0  0  0  0  0  0
  -25.5070  -36.3940   24.0560 C   0  0  0  0  0  3  0  0  0  0  0  0
  -27.6720  -37.3100   24.7650 C   0  0  0  0  0  1  0  0  0  0  0  0
  -26.5150  -37.4620   23.8860 N   0  0  0  0  0  0  0  0  0  0  0  0
  -26.1050  -38.3760   24.0580 H   0  0  0  0  0  0  0  0  0  0  0  0
  -27.1610  -19.7790   19.1400 O   0  0  0  0  0  0  0  0  0  0  0  0
  -25.1680  -19.3830   17.8880 C   0  0  0  0  0  1  0  0  0  0  0  0
  -26.0630  -20.4440   18.5330 C   0  0  0  0  0  2  0  0  0  0  0  0
  2  3  1  0
  3  1  2  0
  4  5  2  0
  5  1  1  0
  5  7  1  0
  6  2  2  0
  6  4  1  0
  8  9  1  0
  8 10  1  0
  9 11  1  0
 10 11  1  0
 10  4  1  0
 11 20  1  0
 13 18  1  0
 14 15  1  0
 14 13  1  0
 16 15  1  0
 16 25  1  0
 16 17  1  0
 18 12  1  0
 18 17  1  0
 19 12  2  0
 20 12  1  0
 21 20  1  0
 22 23  2  0
 23 42  1  0
 24 23  1  0
 24 27  1  0
 25 22  1  0
 25 26  1  0
 26 24  2  0
 27 28  1  0
 28 29  2  0
 30 33  1  0
 30 29  1  0
 31 30  2  0
 32 31  1  0
 32 27  2  0
 33 34  1  0
 34 35  1  0
 35 36  2  0
 37 36  1  0
 37 41  1  0
 38 37  2  0
 39 34  2  0
 39 38  1  0
 40 39  1  0
 42 43  1  0
 43 46  1  0
 43 45  1  0
 44 42  2  0
 47 48  1  0
 47 22  1  0
 49 47  1  0
 50 51  1  0
 51  3  1  0
 52 50  1  0
 52 53  1  0
 52 51  1  0
 54 65  2  0
 55 53  1  0
 55 60  1  0
 56 64  1  0
 56 66  1  0
 57 63  1  0
 57 59  1  0
 58 64  1  0
 59 58  1  0
 60 59  2  0
 61 62  1  0
 61 55  2  0
 62 57  2  0
 63 56  1  0
 64 54  1  0
 66 68  2  0
 67 66  1  0
 69 67  1  0
 70 79  2  0
 70 75  1  0
 71 67  1  0
 71 75  1  0
 72 71  1  0
 73 74  1  0
 73 72  1  0
 74 70  1  0
 75 76  2  0
 76 77  1  0
 78 77  2  0
 79 78  1  0
 80 54  1  0
 80 85  1  0
 80 81  1  0
 81 84  1  1
 81 82  1  0
 83 81  1  0
 85 88  1  0
 86 90  1  0
 86 85  1  0
 87 86  2  0
 90 89  1  0
 92 90  1  0
 92 93  1  0
 92 91  1  0
 94  6  1  0
 95 96  1  0
 96 94  1  0
M  ISO  4  12 100  20 100  52 101  53 101
M  END
>  <TORSDO>  (42) 
F 20

>  <SCORE>  (42) 
-13.276

>  <name>  (42) 
41

>  <ligand_id>  (42) 
41

>  <original_smiles>  (42) 
[H]c1c([H])c([H])c2c(c1[H])C([H])([H])C([H])([H])C([H])([H])C2([H])N([H])C(=O)C1([H])N(C(=O)C([H])(N([H])C(=O)C([H])(N([H])C([H])([H])[H])C([H])([H])[H])C(C([H])([H])[H])(C([H])([H])[H])C([H])([H])[H])C([H])([H])c2c([H])c(OC3([H])C([H])([H])C3([H])c3c([H])c(OC([H])([H])C([H])([H])[H])c(C4([H])C([H])([H])C([H])([H])C4([H])N([H])C(=O)N4C([H])([H])C([H])([H])C([H])([H])C([H])(n5nc(-c6c([H])c([H])c(Oc7c([H])c([H])c(F)c([H])c7F)c([H])c6[H])c(C(=O)N([H])[H])c5N([H])[H])C4([H])[H])c(C([H])([H])[H])c3[H])c([H])c([H])c2C1([H])[H]

>  <smiles>  (42) 
[H]c1c([H])c([H])c2c(c1[H])C([H])([H])C([H])([H])C([H])([H])C2([H])N([H])C(=O)C1([H])N(C(=O)C([H])(N([H])C(=O)C([H])(N([H])C([H])([H])[H])C([H])([H])[H])C(C([H])([H])[H])(C([H])([H])[H])C([H])([H])[H])C([H])([H])c2c([H])c(OC3([H])C([H])([H])C3([H])c3c([H])c(OC([H])([H])C([H])([H])[H])c(C4([H])C([H])([H])C([H])([H])C4([H])N([H])C(=O)N4C([H])([H])C([H])([H])C([H])([H])C([H])(n5nc(-c6c([H])c([H])c(Oc7c([H])c([H])c(F)c([H])c7F)c([H])c6[H])c(C(=O)N([H])[H])c5N([H])[H])C4([H])[H])c(C([H])([H])[H])c3[H])c([H])c([H])c2C1([H])[H]

$$$$
42:0:0
     RDKit          3D

 97107  0  0  1  0  0  0  0  0999 V2000
  -31.4260  -20.3040   19.4670 C   0  0  0  0  0  3  0  0  0  0  0  0
  -29.1830  -19.7610   20.1550 C   0  0  0  0  0  3  0  0  0  0  0  0
  -30.1230  -20.7490   19.7690 C   0  0  0  0  0  0  0  0  0  0  0  0
  -30.9140  -17.9820   20.1500 C   0  0  0  0  0  0  0  0  0  0  0  0
  -31.8260  -18.9590   19.6500 C   0  0  0  0  0  0  0  0  0  0  0  0
  -29.5610  -18.3890   20.3380 C   0  0  0  0  0  0  0  0  0  0  0  0
  -33.2830  -18.6240   19.3640 C   0  0  0  0  0  1  0  0  0  0  0  0
  -30.9120  -14.3910   19.6720 C   0  0  0  0  0  0  0  0  0  0  0  0
  -30.2940  -12.2980   18.4750 C   0  0  0  0  0  2  0  0  0  0  0  0
  -29.2670  -12.5520   17.3530 C   0  0  0  0  0  2  0  0  0  0  0  0
  -27.8340  -12.4690   17.9080 C   0  0  0  0  0  2  0  0  0  0  0  0
  -27.6540  -13.3170   19.1900 C   0  0  0  0  0  3  0  0  0  0  0  0
  -28.7850  -13.0560   20.2020 C   0  0  0  0  0  2  0  0  0  0  0  0
  -30.0850  -13.2970   19.5490 N   0  0  0  0  0  0  0  0  0  0  0  0
  -31.8500  -14.5430   18.8820 O   0  0  0  0  0  0  0  0  0  0  0  0
  -31.6760  -15.4800   22.8440 C   0  0  0  0  0  2  0  0  0  0  0  0
  -31.8410  -16.8350   22.1960 C   0  0  0  0  0  2  0  0  0  0  0  0
  -30.5340  -14.8670   22.0470 C   0  0  0  0  0  2  0  0  0  0  0  0
  -31.4560  -16.6240   20.7200 C   0  0  0  0  0  3  0  0  0  0  0  0
  -30.6800  -15.3290   20.6530 N   0  0  0  0  0  0  0  0  0  0  0  0
  -25.3860  -14.0470   20.1570 C   0  0  0  0  0  0  0  0  0  0  0  0
  -24.3130  -13.3320   20.6170 C   0  0  0  0  0  0  0  0  0  0  0  0
  -24.6830  -11.9550   20.5140 C   0  0  0  0  0  0  0  0  0  0  0  0
  -26.3420  -13.1090   19.7980 N   0  0  0  0  0  0  0  0  0  0  0  0
  -25.9290  -11.8450   20.0730 N   0  0  0  0  0  0  0  0  0  0  0  0
  -23.8990  -10.7360   20.7530 C   0  0  0  0  0  0  0  0  0  0  0  0
  -24.3500   -9.7270   21.6330 C   0  0  0  0  0  3  0  0  0  0  0  0
  -23.5700   -8.5720   21.8580 C   0  0  0  0  0  3  0  0  0  0  0  0
  -22.3240   -8.4190   21.2040 C   0  0  0  0  0  0  0  0  0  0  0  0
  -21.8910   -9.4160   20.3120 C   0  0  0  0  0  3  0  0  0  0  0  0
  -22.6710  -10.5620   20.0840 C   0  0  0  0  0  3  0  0  0  0  0  0
  -21.5100   -7.3200   21.3420 O   0  0  0  0  0  0  0  0  0  0  0  0
  -21.5330   -6.5450   22.4740 C   0  0  0  0  0  0  0  0  0  0  0  0
  -21.2930   -7.0890   23.7550 C   0  0  0  0  0  3  0  0  0  0  0  0
  -21.2580   -6.2450   24.8830 C   0  0  0  0  0  3  0  0  0  0  0  0
  -21.4510   -4.8590   24.7320 C   0  0  0  0  0  0  0  0  0  0  0  0
  -21.6840   -4.3150   23.4570 C   0  0  0  0  0  3  0  0  0  0  0  0
  -21.7210   -5.1560   22.3310 C   0  0  0  0  0  0  0  0  0  0  0  0
  -21.9250   -4.6230   21.1010 F   0  0  0  0  0  0  0  0  0  0  0  0
  -21.4090   -4.0460   25.8140 F   0  0  0  0  0  0  0  0  0  0  0  0
  -22.9840  -13.8870   21.0380 C   0  0  0  0  0  0  0  0  0  0  0  0
  -22.3120  -13.2270   21.9740 N   0  0  0  0  0  0  0  0  0  0  0  0
  -22.5550  -14.9410   20.5700 O   0  0  0  0  0  0  0  0  0  0  0  0
  -22.6730  -12.3730   22.3740 H   0  0  0  0  0  0  0  0  0  0  0  0
  -21.4220  -13.5820   22.2980 H   0  0  0  0  0  0  0  0  0  0  0  0
  -25.6220  -15.4090   19.9960 N   0  0  0  0  0  0  0  0  0  0  0  0
  -24.9170  -16.1080   20.1980 H   0  0  0  0  0  0  0  0  0  0  0  0
  -26.4740  -15.8020   19.6170 H   0  0  0  0  0  0  0  0  0  0  0  0
  -29.4150  -22.8840   21.1010 C   0  0  0  0  0  2  0  0  0  0  0  0
  -28.8040  -22.7630   18.6740 C   0  0  0  0  0  2  0  0  0  0  0  0
  -29.3390  -24.4380   21.0550 C   0  0  0  0  0  2  0  0  0  0  0  0
  -28.7250  -24.3230   18.6170 C   0  0  0  0  0  2  0  0  0  0  0  0
  -29.8180  -22.2770   19.7370 C   0  0  0  0  0  3  0  0  0  0  0  0
  -28.3670  -24.9800   19.9780 C   0  0  0  0  0  3  0  0  0  0  0  0
  -28.4330  -26.4390   19.9580 O   0  0  0  0  0  0  0  0  0  0  0  0
  -24.4780  -31.5980   22.9660 C   0  0  0  0  0  0  0  0  0  0  0  0
  -27.2460  -27.1630   19.9370 C   0  0  0  0  0  0  0  0  0  0  0  0
  -23.3100  -30.1260   21.3620 C   0  0  0  0  0  3  0  0  0  0  0  0
  -24.8040  -28.6190   19.9410 C   0  0  0  0  0  0  0  0  0  0  0  0
  -25.8220  -30.5660   21.1310 C   0  0  0  0  0  2  0  0  0  0  0  0
  -25.9530  -29.1860   20.5070 C   0  0  0  0  0  0  0  0  0  0  0  0
  -27.1780  -28.4690   20.4920 C   0  0  0  0  0  3  0  0  0  0  0  0
  -26.0750  -26.6260   19.3590 C   0  0  0  0  0  3  0  0  0  0  0  0
  -24.8620  -27.3410   19.3610 C   0  0  0  0  0  3  0  0  0  0  0  0
  -23.5300  -29.4350   19.9900 C   0  0  0  0  0  2  0  0  0  0  0  0
  -24.5560  -30.7800   21.8770 N   0  0  0  0  0  0  0  0  0  0  0  0
  -23.3930  -31.8380   23.5140 O   0  0  0  0  0  0  0  0  0  0  0  0
  -22.7070  -29.0960   22.3460 C   0  0  0  0  0  0  0  0  0  0  0  0
  -21.3890  -28.8600   22.2370 N   0  0  0  0  0  0  0  0  0  0  0  0
  -23.4220  -28.5120   23.1650 O   0  0  0  0  0  0  0  0  0  0  0  0
  -20.8700  -29.3850   21.5460 H   0  0  0  0  0  0  0  0  0  0  0  0
  -18.0810  -27.4950   22.7480 C   0  0  0  0  0  0  0  0  0  0  0  0
  -20.6190  -27.9030   23.0310 C   0  0  0  0  0  3  0  0  0  0  0  0
  -20.8050  -26.4620   22.5000 C   0  0  0  0  0  2  0  0  0  0  0  0
  -19.7320  -26.0470   21.4890 C   0  0  0  0  0  2  0  0  0  0  0  0
  -18.3390  -26.1360   22.1180 C   0  0  0  0  0  2  0  0  0  0  0  0
  -19.1520  -28.3310   23.1620 C   0  0  0  0  0  0  0  0  0  0  0  0
  -18.8580  -29.5980   23.7100 C   0  0  0  0  0  3  0  0  0  0  0  0
  -17.5270  -30.0320   23.8490 C   0  0  0  0  0  3  0  0  0  0  0  0
  -16.4700  -29.1940   23.4520 C   0  0  0  0  0  3  0  0  0  0  0  0
  -16.7480  -27.9270   22.9080 C   0  0  0  0  0  3  0  0  0  0  0  0
  -25.7440  -32.2890   23.5610 C   0  0  0  0  0  3  0  0  0  0  0  0
  -25.3630  -33.6550   23.9470 N   0  0  0  0  0  0  0  0  0  0  0  0
  -25.6940  -34.7590   23.2660 C   0  0  0  0  0  0  0  0  0  0  0  0
  -26.4230  -34.7370   22.2700 O   0  0  0  0  0  0  0  0  0  0  0  0
  -24.7200  -33.7420   24.7210 H   0  0  0  0  0  0  0  0  0  0  0  0
  -23.9210  -36.5070   22.9080 C   0  0  0  0  0  1  0  0  0  0  0  0
  -25.1280  -36.1010   23.7680 C   0  0  0  0  0  3  0  0  0  0  0  0
  -27.1790  -37.0090   24.7670 C   0  0  0  0  0  1  0  0  0  0  0  0
  -26.1240  -37.1950   23.7750 N   0  0  0  0  0  0  0  0  0  0  0  0
  -25.6750  -38.0890   23.9520 H   0  0  0  0  0  0  0  0  0  0  0  0
  -26.3570  -31.5120   24.7920 C   0  0  1  0  0  0  0  0  0  0  0  0
  -25.3190  -31.1540   25.8810 C   0  0  0  0  0  1  0  0  0  0  0  0
  -27.0270  -30.1990   24.3280 C   0  0  0  0  0  1  0  0  0  0  0  0
  -27.4670  -32.3650   25.4490 C   0  0  0  0  0  1  0  0  0  0  0  0
  -27.2850  -17.6790   20.6880 C   0  0  0  0  0  1  0  0  0  0  0  0
  -28.6800  -17.4190   20.7690 O   0  0  0  0  0  0  0  0  0  0  0  0
  1  5  2  0
  1  3  1  0
  2  6  1  0
  3  2  2  0
  4  6  2  0
  5  4  1  0
  6 97  1  0
  7  5  1  0
  8 20  1  0
  9 14  1  0
 10 11  1  0
 10  9  1  0
 12 11  1  0
 12 24  1  0
 12 13  1  0
 14  8  1  0
 14 13  1  0
 15  8  2  0
 17 16  1  0
 18 16  1  0
 19  4  1  0
 19 17  1  0
 20 19  1  0
 20 18  1  0
 21 22  2  0
 22 41  1  0
 23 22  1  0
 23 26  1  0
 24 25  1  0
 24 21  1  0
 25 23  2  0
 26 27  1  0
 27 28  2  0
 29 32  1  0
 29 28  1  0
 30 29  2  0
 31 30  1  0
 31 26  2  0
 32 33  1  0
 33 34  1  0
 34 35  2  0
 36 35  1  0
 36 40  1  0
 37 36  2  0
 38 33  2  0
 38 37  1  0
 39 38  1  0
 41 42  1  0
 42 45  1  0
 42 44  1  0
 43 41  2  0
 46 21  1  0
 46 47  1  0
 48 46  1  0
 50 53  1  0
 51 49  1  0
 52 50  1  0
 52 54  1  0
 53  3  1  0
 53 49  1  0
 54 55  1  0
 54 51  1  0
 56 67  2  0
 57 55  1  0
 57 62  1  0
 58 66  1  0
 58 68  1  0
 59 65  1  0
 59 61  1  0
 60 66  1  0
 61 60  1  0
 62 61  2  0
 63 64  1  0
 63 57  2  0
 64 59  2  0
 65 58  1  0
 66 56  1  0
 68 70  2  0
 69 68  1  0
 71 69  1  0
 72 81  2  0
 72 77  1  0
 73 69  1  0
 73 77  1  0
 74 73  1  0
 75 76  1  0
 75 74  1  0
 76 72  1  0
 77 78  2  0
 78 79  1  0
 80 79  2  0
 81 80  1  0
 82 56  1  0
 82 83  1  0
 82 92  1  0
 83 86  1  0
 84 88  1  0
 84 83  1  0
 85 84  2  0
 88 87  1  0
 88 90  1  0
 90 91  1  0
 90 89  1  0
 92 95  1  1
 92 93  1  0
 94 92  1  0
 96 97  1  0
M  ISO  4   8 100  20 100  54 101  55 101
M  END
>  <TORSDO>  (43) 
F 18

>  <SCORE>  (43) 
-9.703

>  <name>  (43) 
42

>  <ligand_id>  (43) 
42

>  <original_smiles>  (43) 
[H]c1c([H])c([H])c2c(c1[H])C([H])([H])C([H])([H])C([H])([H])C2([H])N([H])C(=O)C1([H])N(C(=O)C([H])(N([H])C(=O)C([H])(N([H])C([H])([H])[H])C([H])([H])[H])C(C([H])([H])[H])(C([H])([H])[H])C([H])([H])[H])C([H])([H])c2c([H])c(OC3([H])C([H])([H])C([H])([H])C([H])(c4c([H])c(OC([H])([H])[H])c(C5([H])N(C(=O)N6C([H])([H])C([H])([H])C([H])([H])C([H])(n7nc(-c8c([H])c([H])c(Oc9c([H])c([H])c(F)c([H])c9F)c([H])c8[H])c(C(=O)N([H])[H])c7N([H])[H])C6([H])[H])C([H])([H])C([H])([H])C5([H])[H])c(C([H])([H])[H])c4[H])C([H])([H])C3([H])[H])c([H])c([H])c2C1([H])[H]

>  <smiles>  (43) 
[H]c1c([H])c([H])c2c(c1[H])C([H])([H])C([H])([H])C([H])([H])C2([H])N([H])C(=O)C1([H])N(C(=O)C([H])(N([H])C(=O)C([H])(N([H])C([H])([H])[H])C([H])([H])[H])C(C([H])([H])[H])(C([H])([H])[H])C([H])([H])[H])C([H])([H])c2c([H])c(OC3([H])C([H])([H])C([H])([H])C([H])(c4c([H])c(OC([H])([H])[H])c(C5([H])N(C(=O)N6C([H])([H])C([H])([H])C([H])([H])C([H])(n7nc(-c8c([H])c([H])c(Oc9c([H])c([H])c(F)c([H])c9F)c([H])c8[H])c(C(=O)N([H])[H])c7N([H])[H])C6([H])[H])C([H])([H])C([H])([H])C5([H])[H])c(C([H])([H])[H])c4[H])C([H])([H])C3([H])[H])c([H])c([H])c2C1([H])[H]

$$$$
43:0:0
     RDKit          3D

 92101  0  0  1  0  0  0  0  0999 V2000
  -30.1980  -23.4330   19.1640 C   0  0  0  0  0  3  0  0  0  0  0  0
  -30.3410  -22.0400   19.4230 C   0  0  0  0  0  3  0  0  0  0  0  0
  -28.1510  -23.4830   20.4150 C   0  0  0  0  0  3  0  0  0  0  0  0
  -29.0960  -24.1920   19.6370 C   0  0  0  0  0  0  0  0  0  0  0  0
  -28.2920  -22.0860   20.6850 C   0  0  0  0  0  0  0  0  0  0  0  0
  -29.3830  -21.3150   20.1830 C   0  0  0  0  0  0  0  0  0  0  0  0
  -27.2280  -21.3960   21.5170 C   0  0  0  0  0  1  0  0  0  0  0  0
  -28.8830  -25.6650   19.1400 C   0  0  0  0  0  2  0  0  0  0  0  0
  -28.6210  -26.7530   20.0870 O   0  0  0  0  0  0  0  0  0  0  0  0
  -24.7140  -31.9160   23.2030 C   0  0  0  0  0  0  0  0  0  0  0  0
  -27.4490  -27.5170   20.0370 C   0  0  0  0  0  0  0  0  0  0  0  0
  -23.5400  -30.5170   21.5390 C   0  0  0  0  0  3  0  0  0  0  0  0
  -25.0270  -29.0310   20.0800 C   0  0  0  0  0  0  0  0  0  0  0  0
  -26.0650  -30.9140   21.3500 C   0  0  0  0  0  2  0  0  0  0  0  0
  -26.1800  -29.5520   20.6790 C   0  0  0  0  0  0  0  0  0  0  0  0
  -27.3890  -28.8020   20.6560 C   0  0  0  0  0  3  0  0  0  0  0  0
  -26.2630  -27.0280   19.4400 C   0  0  0  0  0  3  0  0  0  0  0  0
  -25.0670  -27.7730   19.4580 C   0  0  0  0  0  3  0  0  0  0  0  0
  -23.7640  -29.8660   20.1490 C   0  0  0  0  0  2  0  0  0  0  0  0
  -24.7920  -31.1320   22.0880 N   0  0  0  0  0  0  0  0  0  0  0  0
  -23.6250  -32.1550   23.7460 O   0  0  0  0  0  0  0  0  0  0  0  0
  -22.9090  -29.4660   22.4840 C   0  0  0  0  0  0  0  0  0  0  0  0
  -21.5870  -29.2590   22.3580 N   0  0  0  0  0  0  0  0  0  0  0  0
  -23.6060  -28.8430   23.2880 O   0  0  0  0  0  0  0  0  0  0  0  0
  -21.0830  -29.8180   21.6850 H   0  0  0  0  0  0  0  0  0  0  0  0
  -18.2420  -27.9750   22.8480 C   0  0  0  0  0  0  0  0  0  0  0  0
  -20.7940  -28.2870   23.1130 C   0  0  0  0  0  3  0  0  0  0  0  0
  -20.9260  -26.8710   22.5090 C   0  0  0  0  0  2  0  0  0  0  0  0
  -19.8270  -26.5430   21.4920 C   0  0  0  0  0  2  0  0  0  0  0  0
  -18.4450  -26.6440   22.1450 C   0  0  0  0  0  2  0  0  0  0  0  0
  -19.3450  -28.7540   23.2880 C   0  0  0  0  0  0  0  0  0  0  0  0
  -19.1000  -30.0000   23.9050 C   0  0  0  0  0  3  0  0  0  0  0  0
  -17.7850  -30.4680   24.0870 C   0  0  0  0  0  3  0  0  0  0  0  0
  -16.6970  -29.6850   23.6630 C   0  0  0  0  0  3  0  0  0  0  0  0
  -16.9260  -28.4410   23.0500 C   0  0  0  0  0  3  0  0  0  0  0  0
  -25.9830  -32.5700   23.8320 C   0  0  0  0  0  3  0  0  0  0  0  0
  -25.6490  -33.9630   24.1620 N   0  0  0  0  0  0  0  0  0  0  0  0
  -25.9710  -35.0230   23.4070 C   0  0  0  0  0  0  0  0  0  0  0  0
  -26.6510  -34.9310   22.3810 O   0  0  0  0  0  0  0  0  0  0  0  0
  -25.0470  -34.1080   24.9590 H   0  0  0  0  0  0  0  0  0  0  0  0
  -24.2260  -36.7950   23.0310 C   0  0  0  0  0  1  0  0  0  0  0  0
  -25.4580  -36.4030   23.8620 C   0  0  0  0  0  3  0  0  0  0  0  0
  -27.5640  -37.3150   24.7380 C   0  0  0  0  0  1  0  0  0  0  0  0
  -26.4790  -37.4700   23.7720 N   0  0  0  0  0  0  0  0  0  0  0  0
  -26.0580  -38.3840   23.9110 H   0  0  0  0  0  0  0  0  0  0  0  0
  -26.5040  -31.8080   25.1120 C   0  0  1  0  0  0  0  0  0  0  0  0
  -25.4080  -31.5490   26.1720 C   0  0  0  0  0  1  0  0  0  0  0  0
  -27.1140  -30.4420   24.7240 C   0  0  0  0  0  1  0  0  0  0  0  0
  -27.6350  -32.6220   25.7840 C   0  0  0  0  0  1  0  0  0  0  0  0
  -29.4180  -19.9270   20.4590 O   0  0  0  0  0  0  0  0  0  0  0  0
  -30.9070  -14.8300   20.0220 C   0  0  0  0  0  0  0  0  0  0  0  0
  -30.5900  -12.6200   18.9420 C   0  0  0  0  0  2  0  0  0  0  0  0
  -29.5800  -12.7820   17.7880 C   0  0  0  0  0  2  0  0  0  0  0  0
  -28.1330  -12.6340   18.3010 C   0  0  0  0  0  2  0  0  0  0  0  0
  -27.8560  -13.4720   19.5770 C   0  0  0  0  0  3  0  0  0  0  0  0
  -28.9810  -13.3080   20.6210 C   0  0  0  0  0  2  0  0  0  0  0  0
  -30.2500  -13.6320   19.9590 N   0  0  0  0  0  0  0  0  0  0  0  0
  -32.0710  -14.9480   19.6240 O   0  0  0  0  0  0  0  0  0  0  0  0
  -31.0760  -18.1560   21.1830 C   0  0  0  0  0  2  0  0  0  0  0  0
  -30.1190  -18.0690   18.8650 C   0  0  0  0  0  2  0  0  0  0  0  0
  -30.3530  -16.8060   21.4880 C   0  0  0  0  0  2  0  0  0  0  0  0
  -29.4360  -16.7200   19.2640 C   0  0  0  0  0  2  0  0  0  0  0  0
  -30.4900  -19.0260   20.0320 C   0  0  0  0  0  3  0  0  0  0  0  0
  -30.1540  -15.9460   20.3040 N   0  0  0  0  0  0  0  0  0  0  0  0
  -25.5250  -14.0750   20.4630 C   0  0  0  0  0  0  0  0  0  0  0  0
  -24.4710  -13.3020   20.8670 C   0  0  0  0  0  0  0  0  0  0  0  0
  -24.9130  -11.9480   20.7670 C   0  0  0  0  0  0  0  0  0  0  0  0
  -26.5390  -13.1900   20.1370 N   0  0  0  0  0  0  0  0  0  0  0  0
  -26.1810  -11.9030   20.3800 N   0  0  0  0  0  0  0  0  0  0  0  0
  -24.1830  -10.6890   20.9580 C   0  0  0  0  0  0  0  0  0  0  0  0
  -24.6150   -9.7190   21.8890 C   0  0  0  0  0  3  0  0  0  0  0  0
  -23.8840   -8.5250   22.0690 C   0  0  0  0  0  3  0  0  0  0  0  0
  -22.7100   -8.2910   21.3160 C   0  0  0  0  0  0  0  0  0  0  0  0
  -22.2990   -9.2480   20.3710 C   0  0  0  0  0  3  0  0  0  0  0  0
  -23.0290  -10.4350   20.1910 C   0  0  0  0  0  3  0  0  0  0  0  0
  -21.9510   -7.1500   21.4050 O   0  0  0  0  0  0  0  0  0  0  0  0
  -21.8500   -6.4430   22.5760 C   0  0  0  0  0  0  0  0  0  0  0  0
  -21.3280   -7.0230   23.7530 C   0  0  0  0  0  3  0  0  0  0  0  0
  -21.1760   -6.2410   24.9160 C   0  0  0  0  0  3  0  0  0  0  0  0
  -21.5370   -4.8800   24.9020 C   0  0  0  0  0  0  0  0  0  0  0  0
  -22.0520   -4.2990   23.7300 C   0  0  0  0  0  3  0  0  0  0  0  0
  -22.2050   -5.0790   22.5700 C   0  0  0  0  0  0  0  0  0  0  0  0
  -22.6810   -4.5100   21.4370 F   0  0  0  0  0  0  0  0  0  0  0  0
  -21.3810   -4.1270   26.0150 F   0  0  0  0  0  0  0  0  0  0  0  0
  -23.0990  -13.7860   21.2360 C   0  0  0  0  0  0  0  0  0  0  0  0
  -22.4130  -13.0670   22.1160 N   0  0  0  0  0  0  0  0  0  0  0  0
  -22.6480  -14.8360   20.7810 O   0  0  0  0  0  0  0  0  0  0  0  0
  -22.7950  -12.2170   22.5050 H   0  0  0  0  0  0  0  0  0  0  0  0
  -21.4940  -13.3690   22.4070 H   0  0  0  0  0  0  0  0  0  0  0  0
  -25.6970  -15.4490   20.3200 N   0  0  0  0  0  0  0  0  0  0  0  0
  -24.9490  -16.1110   20.4920 H   0  0  0  0  0  0  0  0  0  0  0  0
  -26.5410  -15.8850   19.9700 H   0  0  0  0  0  0  0  0  0  0  0  0
  1  2  2  0
  1  4  1  0
  2  6  1  0
  3  5  1  0
  4  3  2  0
  5  7  1  0
  6 50  1  0
  6  5  2  0
  8  4  1  0
  8  9  1  0
 10 21  2  0
 11  9  1  0
 11 16  1  0
 12 20  1  0
 12 22  1  0
 13 19  1  0
 13 15  1  0
 14 20  1  0
 15 14  1  0
 16 15  2  0
 17 18  1  0
 17 11  2  0
 18 13  2  0
 19 12  1  0
 20 10  1  0
 22 24  2  0
 23 22  1  0
 25 23  1  0
 26 35  2  0
 26 31  1  0
 27 23  1  0
 27 31  1  0
 28 27  1  0
 29 30  1  0
 29 28  1  0
 30 26  1  0
 31 32  2  0
 32 33  1  0
 34 33  2  0
 35 34  1  0
 36 10  1  0
 36 37  1  0
 36 46  1  0
 37 40  1  0
 38 42  1  0
 38 37  1  0
 39 38  2  0
 42 41  1  0
 44 42  1  0
 44 45  1  0
 44 43  1  0
 46 49  1  1
 46 47  1  0
 48 46  1  0
 51 64  1  0
 52 57  1  0
 53 54  1  0
 53 52  1  0
 55 54  1  0
 55 68  1  0
 55 56  1  0
 57 51  1  0
 57 56  1  0
 58 51  2  0
 59 61  1  0
 60 62  1  0
 60 63  1  0
 62 64  1  0
 63 50  1  0
 63 59  1  0
 64 61  1  0
 65 66  2  0
 66 85  1  0
 67 66  1  0
 67 70  1  0
 68 69  1  0
 68 65  1  0
 69 67  2  0
 70 71  1  0
 71 72  2  0
 73 76  1  0
 73 72  1  0
 74 73  2  0
 75 74  1  0
 75 70  2  0
 76 77  1  0
 77 78  1  0
 78 79  2  0
 80 79  1  0
 80 84  1  0
 81 80  2  0
 82 77  2  0
 82 81  1  0
 83 82  1  0
 85 86  1  0
 86 89  1  0
 86 88  1  0
 87 85  2  0
 90 65  1  0
 90 91  1  0
 92 90  1  0
M  ISO  4   8 101   9 101  51 100  64 100
M  END
>  <TORSDO>  (44) 
F 18

>  <SCORE>  (44) 
-13.401

>  <name>  (44) 
43

>  <ligand_id>  (44) 
43

>  <original_smiles>  (44) 
[H]c1c([H])c([H])c2c(c1[H])C([H])([H])C([H])([H])C([H])([H])C2([H])N([H])C(=O)C1([H])N(C(=O)C([H])(N([H])C(=O)C([H])(N([H])C([H])([H])[H])C([H])([H])[H])C(C([H])([H])[H])(C([H])([H])[H])C([H])([H])[H])C([H])([H])c2c([H])c(OC([H])([H])c3c([H])c([H])c(OC4([H])C([H])([H])C([H])([H])N(C(=O)N5C([H])([H])C([H])([H])C([H])([H])C([H])(n6nc(-c7c([H])c([H])c(Oc8c([H])c([H])c(F)c([H])c8F)c([H])c7[H])c(C(=O)N([H])[H])c6N([H])[H])C5([H])[H])C([H])([H])C4([H])[H])c(C([H])([H])[H])c3[H])c([H])c([H])c2C1([H])[H]

>  <smiles>  (44) 
[H]c1c([H])c([H])c2c(c1[H])C([H])([H])C([H])([H])C([H])([H])C2([H])N([H])C(=O)C1([H])N(C(=O)C([H])(N([H])C(=O)C([H])(N([H])C([H])([H])[H])C([H])([H])[H])C(C([H])([H])[H])(C([H])([H])[H])C([H])([H])[H])C([H])([H])c2c([H])c(OC([H])([H])c3c([H])c([H])c(OC4([H])C([H])([H])C([H])([H])N(C(=O)N5C([H])([H])C([H])([H])C([H])([H])C([H])(n6nc(-c7c([H])c([H])c(Oc8c([H])c([H])c(F)c([H])c8F)c([H])c7[H])c(C(=O)N([H])[H])c6N([H])[H])C5([H])[H])C([H])([H])C4([H])[H])c(C([H])([H])[H])c3[H])c([H])c([H])c2C1([H])[H]

$$$$
44:0:0
     RDKit          3D

 94103  0  0  1  0  0  0  0  0999 V2000
  -29.1870  -21.6000   20.0710 C   0  0  0  0  0  3  0  0  0  0  0  0
  -28.5980  -22.8790   19.8680 C   0  0  0  0  0  0  0  0  0  0  0  0
  -29.8240  -21.2420   21.2790 C   0  0  0  0  0  0  0  0  0  0  0  0
  -29.9000  -22.2550   22.2860 C   0  0  0  0  0  0  0  0  0  0  0  0
  -29.3800  -23.5770   22.0570 C   0  0  0  0  0  0  0  0  0  0  0  0
  -28.6540  -23.8900   20.8720 C   0  0  0  0  0  0  0  0  0  0  0  0
  -27.8990  -23.1300   18.5420 C   0  0  0  0  0  1  0  0  0  0  0  0
  -30.5420  -21.9110   23.6280 C   0  0  0  0  0  1  0  0  0  0  0  0
  -29.6090  -24.6830   23.0860 C   0  0  0  0  0  1  0  0  0  0  0  0
  -30.5790  -19.8670   21.3840 C   0  0  0  0  0  2  0  0  0  0  0  0
  -29.8290  -18.4740   21.2190 C   0  0  0  0  0  2  0  0  0  0  0  0
  -30.6150  -14.7450   20.3000 C   0  0  0  0  0  0  0  0  0  0  0  0
  -30.2870  -12.5090   19.2570 C   0  0  0  0  0  2  0  0  0  0  0  0
  -29.3600  -12.6350   18.0310 C   0  0  0  0  0  2  0  0  0  0  0  0
  -27.8830  -12.5120   18.4630 C   0  0  0  0  0  2  0  0  0  0  0  0
  -27.5260  -13.3290   19.7400 C   0  0  0  0  0  3  0  0  0  0  0  0
  -28.6140  -13.2450   20.8350 C   0  0  0  0  0  2  0  0  0  0  0  0
  -29.9010  -13.5700   20.2110 N   0  0  0  0  0  0  0  0  0  0  0  0
  -31.8350  -14.7310   20.1350 O   0  0  0  0  0  0  0  0  0  0  0  0
  -29.7750  -17.4540   18.3190 C   0  0  0  0  0  2  0  0  0  0  0  0
  -31.0470  -17.7360   19.0920 C   0  0  0  0  0  2  0  0  0  0  0  0
  -29.1660  -16.2490   19.0500 C   0  0  0  0  0  2  0  0  0  0  0  0
  -30.6620  -17.2970   20.5150 C   0  0  0  0  0  3  0  0  0  0  0  0
  -29.9520  -15.9730   20.2760 N   0  0  0  0  0  0  0  0  0  0  0  0
  -25.1400  -13.8820   20.4990 C   0  0  0  0  0  0  0  0  0  0  0  0
  -24.0860  -13.0890   20.8620 C   0  0  0  0  0  0  0  0  0  0  0  0
  -24.5670  -11.7460   20.8130 C   0  0  0  0  0  0  0  0  0  0  0  0
  -26.1940  -13.0170   20.2460 N   0  0  0  0  0  0  0  0  0  0  0  0
  -25.8580  -11.7270   20.5000 N   0  0  0  0  0  0  0  0  0  0  0  0
  -23.8600  -10.4710   20.9890 C   0  0  0  0  0  0  0  0  0  0  0  0
  -24.2880   -9.5160   21.9360 C   0  0  0  0  0  3  0  0  0  0  0  0
  -23.5800   -8.3060   22.1030 C   0  0  0  0  0  3  0  0  0  0  0  0
  -22.4300   -8.0430   21.3210 C   0  0  0  0  0  0  0  0  0  0  0  0
  -22.0210   -8.9880   20.3630 C   0  0  0  0  0  3  0  0  0  0  0  0
  -22.7300  -10.1890   20.1950 C   0  0  0  0  0  3  0  0  0  0  0  0
  -21.6950   -6.8850   21.3950 O   0  0  0  0  0  0  0  0  0  0  0  0
  -21.6100   -6.1600   22.5570 C   0  0  0  0  0  0  0  0  0  0  0  0
  -21.0860   -6.7180   23.7450 C   0  0  0  0  0  3  0  0  0  0  0  0
  -20.9520   -5.9160   24.8980 C   0  0  0  0  0  3  0  0  0  0  0  0
  -21.3300   -4.5600   24.8630 C   0  0  0  0  0  0  0  0  0  0  0  0
  -21.8460   -4.0050   23.6790 C   0  0  0  0  0  3  0  0  0  0  0  0
  -21.9830   -4.8010   22.5290 C   0  0  0  0  0  0  0  0  0  0  0  0
  -22.4630   -4.2560   21.3850 F   0  0  0  0  0  0  0  0  0  0  0  0
  -21.1930   -3.7890   25.9660 F   0  0  0  0  0  0  0  0  0  0  0  0
  -22.6840  -13.5450   21.1440 C   0  0  0  0  0  0  0  0  0  0  0  0
  -21.9670  -12.8210   21.9970 N   0  0  0  0  0  0  0  0  0  0  0  0
  -22.2330  -14.5740   20.6470 O   0  0  0  0  0  0  0  0  0  0  0  0
  -22.3510  -11.9890   22.4200 H   0  0  0  0  0  0  0  0  0  0  0  0
  -21.0260  -13.1040   22.2300 H   0  0  0  0  0  0  0  0  0  0  0  0
  -25.2820  -15.2570   20.3410 N   0  0  0  0  0  0  0  0  0  0  0  0
  -24.5050  -15.8950   20.4770 H   0  0  0  0  0  0  0  0  0  0  0  0
  -26.1300  -15.7170   20.0340 H   0  0  0  0  0  0  0  0  0  0  0  0
  -27.7300  -25.1570   20.8030 C   0  0  0  0  0  2  0  0  0  0  0  0
  -28.1700  -26.4520   20.2500 O   0  0  0  0  0  0  0  0  0  0  0  0
  -24.5640  -31.9400   23.2020 C   0  0  0  0  0  0  0  0  0  0  0  0
  -27.1110  -27.3620   20.1550 C   0  0  0  0  0  0  0  0  0  0  0  0
  -23.3350  -30.5450   21.5740 C   0  0  0  0  0  3  0  0  0  0  0  0
  -24.7680  -28.9870   20.1400 C   0  0  0  0  0  0  0  0  0  0  0  0
  -25.8760  -30.8410   21.3810 C   0  0  0  0  0  2  0  0  0  0  0  0
  -25.9410  -29.4610   20.7430 C   0  0  0  0  0  0  0  0  0  0  0  0
  -27.1170  -28.6550   20.7540 C   0  0  0  0  0  3  0  0  0  0  0  0
  -25.9330  -26.9590   19.4860 C   0  0  0  0  0  3  0  0  0  0  0  0
  -24.7630  -27.7380   19.5020 C   0  0  0  0  0  3  0  0  0  0  0  0
  -23.5350  -29.8630   20.1960 C   0  0  0  0  0  2  0  0  0  0  0  0
  -24.6090  -31.1260   22.1070 N   0  0  0  0  0  0  0  0  0  0  0  0
  -23.4880  -32.2350   23.7420 O   0  0  0  0  0  0  0  0  0  0  0  0
  -22.6710  -29.5380   22.5430 C   0  0  0  0  0  0  0  0  0  0  0  0
  -21.3480  -29.3510   22.4050 N   0  0  0  0  0  0  0  0  0  0  0  0
  -23.3460  -28.9280   23.3760 O   0  0  0  0  0  0  0  0  0  0  0  0
  -20.8660  -29.8960   21.7040 H   0  0  0  0  0  0  0  0  0  0  0  0
  -17.9740  -28.1390   22.8760 C   0  0  0  0  0  0  0  0  0  0  0  0
  -20.5240  -28.4230   23.1820 C   0  0  0  0  0  3  0  0  0  0  0  0
  -20.6470  -26.9810   22.6400 C   0  0  0  0  0  2  0  0  0  0  0  0
  -19.5670  -26.6270   21.6140 C   0  0  0  0  0  2  0  0  0  0  0  0
  -18.1720  -26.7770   22.2300 C   0  0  0  0  0  2  0  0  0  0  0  0
  -19.0790  -28.9190   23.3060 C   0  0  0  0  0  0  0  0  0  0  0  0
  -18.8430  -30.1920   23.8680 C   0  0  0  0  0  3  0  0  0  0  0  0
  -17.5330  -30.6910   23.9970 C   0  0  0  0  0  3  0  0  0  0  0  0
  -16.4420  -29.9080   23.5830 C   0  0  0  0  0  3  0  0  0  0  0  0
  -16.6610  -28.6340   23.0300 C   0  0  0  0  0  3  0  0  0  0  0  0
  -25.8590  -32.5600   23.8110 C   0  0  0  0  0  3  0  0  0  0  0  0
  -26.3810  -31.7880   25.0840 C   0  0  1  0  0  0  0  0  0  0  0  0
  -25.2940  -31.5540   26.1600 C   0  0  0  0  0  1  0  0  0  0  0  0
  -26.9590  -30.4110   24.6870 C   0  0  0  0  0  1  0  0  0  0  0  0
  -27.5390  -32.5790   25.7390 C   0  0  0  0  0  1  0  0  0  0  0  0
  -25.5670  -33.9620   24.1400 N   0  0  0  0  0  0  0  0  0  0  0  0
  -25.9140  -35.0100   23.3820 C   0  0  0  0  0  0  0  0  0  0  0  0
  -26.5860  -34.9010   22.3520 O   0  0  0  0  0  0  0  0  0  0  0  0
  -24.9740  -34.1230   24.9400 H   0  0  0  0  0  0  0  0  0  0  0  0
  -24.2270  -36.8370   23.0010 C   0  0  0  0  0  1  0  0  0  0  0  0
  -25.4420  -36.4040   23.8390 C   0  0  0  0  0  3  0  0  0  0  0  0
  -27.5680  -37.2430   24.7320 C   0  0  0  0  0  1  0  0  0  0  0  0
  -26.4960  -37.4390   23.7600 N   0  0  0  0  0  0  0  0  0  0  0  0
  -26.1020  -38.3650   23.9020 H   0  0  0  0  0  0  0  0  0  0  0  0
  1  3  1  0
  2  1  2  0
  2  6  1  0
  3 10  1  0
  3  4  2  0
  4  8  1  0
  5  4  1  0
  5  9  1  0
  6  5  2  0
  7  2  1  0
 11 10  1  0
 13 18  1  0
 14 15  1  0
 14 13  1  0
 16 15  1  0
 16 28  1  0
 16 17  1  0
 18 12  1  0
 18 17  1  0
 19 12  2  0
 20 22  1  0
 20 21  1  0
 21 23  1  0
 22 24  1  0
 23 11  1  0
 24 12  1  0
 24 23  1  0
 25 26  2  0
 26 45  1  0
 27 26  1  0
 27 30  1  0
 28 25  1  0
 28 29  1  0
 29 27  2  0
 30 31  1  0
 31 32  2  0
 33 36  1  0
 33 32  1  0
 34 33  2  0
 35 34  1  0
 35 30  2  0
 36 37  1  0
 37 38  1  0
 38 39  2  0
 40 39  1  0
 40 44  1  0
 41 40  2  0
 42 37  2  0
 42 41  1  0
 43 42  1  0
 45 46  1  0
 46 49  1  0
 46 48  1  0
 47 45  2  0
 50 51  1  0
 50 25  1  0
 52 50  1  0
 53  6  1  0
 54 53  1  0
 55 66  2  0
 56 54  1  0
 56 61  1  0
 57 65  1  0
 57 67  1  0
 58 64  1  0
 58 60  1  0
 59 65  1  0
 60 61  2  0
 60 59  1  0
 62 63  1  0
 62 56  2  0
 63 58  2  0
 64 57  1  0
 65 55  1  0
 67 69  2  0
 68 67  1  0
 70 68  1  0
 71 80  2  0
 71 76  1  0
 72 68  1  0
 72 76  1  0
 73 72  1  0
 74 75  1  0
 74 73  1  0
 75 71  1  0
 76 77  2  0
 77 78  1  0
 79 78  2  0
 80 79  1  0
 81 55  1  0
 81 86  1  0
 81 82  1  0
 82 85  1  1
 82 83  1  0
 84 82  1  0
 86 89  1  0
 87 91  1  0
 87 86  1  0
 88 87  2  0
 91 90  1  0
 93 91  1  0
 93 94  1  0
 93 92  1  0
M  ISO  4  12 100  24 100  53 101  54 101
M  END
>  <TORSDO>  (45) 
F 19

>  <SCORE>  (45) 
-14.450

>  <name>  (45) 
44

>  <ligand_id>  (45) 
44

>  <original_smiles>  (45) 
[H]c1c([H])c([H])c2c(c1[H])C([H])([H])C([H])([H])C([H])([H])C2([H])N([H])C(=O)C1([H])N(C(=O)C([H])(N([H])C(=O)C([H])(N([H])C([H])([H])[H])C([H])([H])[H])C(C([H])([H])[H])(C([H])([H])[H])C([H])([H])[H])C([H])([H])c2c([H])c(OC([H])([H])c3c(C([H])([H])[H])c([H])c(C([H])([H])C([H])([H])C4([H])N(C(=O)N5C([H])([H])C([H])([H])C([H])([H])C([H])(n6nc(-c7c([H])c([H])c(Oc8c([H])c([H])c(F)c([H])c8F)c([H])c7[H])c(C(=O)N([H])[H])c6N([H])[H])C5([H])[H])C([H])([H])C([H])([H])C4([H])[H])c(C([H])([H])[H])c3C([H])([H])[H])c([H])c([H])c2C1([H])[H]

>  <smiles>  (45) 
[H]c1c([H])c([H])c2c(c1[H])C([H])([H])C([H])([H])C([H])([H])C2([H])N([H])C(=O)C1([H])N(C(=O)C([H])(N([H])C(=O)C([H])(N([H])C([H])([H])[H])C([H])([H])[H])C(C([H])([H])[H])(C([H])([H])[H])C([H])([H])[H])C([H])([H])c2c([H])c(OC([H])([H])c3c(C([H])([H])[H])c([H])c(C([H])([H])C([H])([H])C4([H])N(C(=O)N5C([H])([H])C([H])([H])C([H])([H])C([H])(n6nc(-c7c([H])c([H])c(Oc8c([H])c([H])c(F)c([H])c8F)c([H])c7[H])c(C(=O)N([H])[H])c6N([H])[H])C5([H])[H])C([H])([H])C([H])([H])C4([H])[H])c(C([H])([H])[H])c3C([H])([H])[H])c([H])c([H])c2C1([H])[H]

$$$$
45:0:0
     RDKit          3D

 95104  0  0  1  0  0  0  0  0999 V2000
  -28.5400  -19.4090   20.2580 C   0  0  0  0  0  3  0  0  0  0  0  0
  -29.5470  -20.3570   19.9340 C   0  0  0  0  0  0  0  0  0  0  0  0
  -28.7640  -17.9950   20.3710 C   0  0  0  0  0  0  0  0  0  0  0  0
  -30.8190  -19.7460   19.6480 C   0  0  0  0  0  0  0  0  0  0  0  0
  -31.0760  -18.3200   19.8180 C   0  0  0  0  0  0  0  0  0  0  0  0
  -30.0400  -17.3700   20.1530 C   0  0  0  0  0  0  0  0  0  0  0  0
  -27.5770  -17.1790   20.8440 C   0  0  0  0  0  1  0  0  0  0  0  0
  -31.9290  -20.6570   19.1240 C   0  0  0  0  0  1  0  0  0  0  0  0
  -32.5210  -17.8290   19.7280 C   0  0  0  0  0  1  0  0  0  0  0  0
  -30.6270  -14.8490   19.6200 C   0  0  0  0  0  0  0  0  0  0  0  0
  -30.1810  -12.6350   18.5190 C   0  0  0  0  0  2  0  0  0  0  0  0
  -29.1270  -12.7710   17.4020 C   0  0  0  0  0  2  0  0  0  0  0  0
  -27.7190  -12.5760   17.9850 C   0  0  0  0  0  2  0  0  0  0  0  0
  -27.4860  -13.4300   19.2590 C   0  0  0  0  0  3  0  0  0  0  0  0
  -28.6580  -13.3130   20.2600 C   0  0  0  0  0  2  0  0  0  0  0  0
  -29.9060  -13.6640   19.5590 N   0  0  0  0  0  0  0  0  0  0  0  0
  -31.6360  -14.9420   18.9200 O   0  0  0  0  0  0  0  0  0  0  0  0
  -30.2490  -15.9020   20.4660 N   0  0  0  0  0  0  0  0  0  0  0  0
  -25.1930  -13.9900   20.2720 C   0  0  0  0  0  0  0  0  0  0  0  0
  -24.1750  -13.2050   20.7380 C   0  0  0  0  0  0  0  0  0  0  0  0
  -24.6210  -11.8570   20.5940 C   0  0  0  0  0  0  0  0  0  0  0  0
  -26.2020  -13.1220   19.8850 N   0  0  0  0  0  0  0  0  0  0  0  0
  -25.8670  -11.8280   20.1370 N   0  0  0  0  0  0  0  0  0  0  0  0
  -23.9040  -10.5940   20.8050 C   0  0  0  0  0  0  0  0  0  0  0  0
  -24.3560   -9.6330   21.7360 C   0  0  0  0  0  3  0  0  0  0  0  0
  -23.6370   -8.4360   21.9380 C   0  0  0  0  0  3  0  0  0  0  0  0
  -22.4500   -8.1900   21.2060 C   0  0  0  0  0  0  0  0  0  0  0  0
  -22.0190   -9.1370   20.2610 C   0  0  0  0  0  3  0  0  0  0  0  0
  -22.7390  -10.3250   20.0590 C   0  0  0  0  0  3  0  0  0  0  0  0
  -21.7030   -7.0420   21.3170 O   0  0  0  0  0  0  0  0  0  0  0  0
  -21.5800   -6.3760   22.5090 C   0  0  0  0  0  0  0  0  0  0  0  0
  -21.0560   -6.9990   23.6620 C   0  0  0  0  0  3  0  0  0  0  0  0
  -20.8820   -6.2560   24.8470 C   0  0  0  0  0  3  0  0  0  0  0  0
  -21.2230   -4.8910   24.8780 C   0  0  0  0  0  0  0  0  0  0  0  0
  -21.7390   -4.2670   23.7300 C   0  0  0  0  0  3  0  0  0  0  0  0
  -21.9150   -5.0070   22.5470 C   0  0  0  0  0  0  0  0  0  0  0  0
  -22.3940   -4.3950   21.4370 F   0  0  0  0  0  0  0  0  0  0  0  0
  -21.0490   -4.1750   26.0130 F   0  0  0  0  0  0  0  0  0  0  0  0
  -22.8240  -13.6810   21.1890 C   0  0  0  0  0  0  0  0  0  0  0  0
  -22.1970  -12.9560   22.1100 N   0  0  0  0  0  0  0  0  0  0  0  0
  -22.3390  -14.7300   20.7660 O   0  0  0  0  0  0  0  0  0  0  0  0
  -22.6020  -12.1060   22.4740 H   0  0  0  0  0  0  0  0  0  0  0  0
  -21.2970  -13.2560   22.4550 H   0  0  0  0  0  0  0  0  0  0  0  0
  -25.3240  -15.3610   20.1120 N   0  0  0  0  0  0  0  0  0  0  0  0
  -24.5690  -16.0010   20.3330 H   0  0  0  0  0  0  0  0  0  0  0  0
  -26.1120  -15.8120   19.6670 H   0  0  0  0  0  0  0  0  0  0  0  0
  -31.5910  -16.3830   22.5530 C   0  0  0  0  0  1  0  0  0  0  0  0
  -30.4320  -15.6030   21.9040 C   0  0  0  0  0  2  0  0  0  0  0  0
  -27.8880  -22.4670   20.5590 C   0  0  0  0  0  2  0  0  0  0  0  0
  -29.6100  -22.9400   18.8820 C   0  0  0  0  0  2  0  0  0  0  0  0
  -27.7760  -24.0230   20.8900 C   0  0  0  0  0  2  0  0  0  0  0  0
  -29.5440  -24.4820   19.2490 C   0  0  0  0  0  2  0  0  0  0  0  0
  -29.2960  -21.9590   20.0700 C   0  0  0  0  0  3  0  0  0  0  0  0
  -28.1690  -25.0260   19.7460 C   0  0  0  0  0  3  0  0  0  0  0  0
  -28.2240  -26.4920   20.1110 O   0  0  0  0  0  0  0  0  0  0  0  0
  -24.5520  -31.9440   23.2200 C   0  0  0  0  0  0  0  0  0  0  0  0
  -27.0960  -27.3470   20.1010 C   0  0  0  0  0  0  0  0  0  0  0  0
  -23.3210  -30.5490   21.6020 C   0  0  0  0  0  3  0  0  0  0  0  0
  -24.7400  -29.0000   20.1450 C   0  0  0  0  0  0  0  0  0  0  0  0
  -25.8610  -30.8570   21.3720 C   0  0  0  0  0  2  0  0  0  0  0  0
  -25.9260  -29.4750   20.7200 C   0  0  0  0  0  0  0  0  0  0  0  0
  -27.1040  -28.6630   20.6810 C   0  0  0  0  0  3  0  0  0  0  0  0
  -25.8770  -26.9360   19.5150 C   0  0  0  0  0  3  0  0  0  0  0  0
  -24.7220  -27.7390   19.5320 C   0  0  0  0  0  3  0  0  0  0  0  0
  -23.5130  -29.8860   20.2150 C   0  0  0  0  0  2  0  0  0  0  0  0
  -24.5990  -31.1350   22.1220 N   0  0  0  0  0  0  0  0  0  0  0  0
  -23.4780  -32.2200   23.7740 O   0  0  0  0  0  0  0  0  0  0  0  0
  -22.6750  -29.5290   22.5720 C   0  0  0  0  0  0  0  0  0  0  0  0
  -21.3550  -29.3090   22.4320 N   0  0  0  0  0  0  0  0  0  0  0  0
  -23.3590  -28.9400   23.4110 O   0  0  0  0  0  0  0  0  0  0  0  0
  -20.8600  -29.8390   21.7290 H   0  0  0  0  0  0  0  0  0  0  0  0
  -18.0140  -27.9890   22.8860 C   0  0  0  0  0  0  0  0  0  0  0  0
  -20.5520  -28.3630   23.2110 C   0  0  0  0  0  3  0  0  0  0  0  0
  -20.7290  -26.9190   22.6840 C   0  0  0  0  0  2  0  0  0  0  0  0
  -19.6660  -26.5220   21.6530 C   0  0  0  0  0  2  0  0  0  0  0  0
  -18.2630  -26.6280   22.2570 C   0  0  0  0  0  2  0  0  0  0  0  0
  -19.0890  -28.8100   23.3190 C   0  0  0  0  0  0  0  0  0  0  0  0
  -18.8010  -30.0800   23.8650 C   0  0  0  0  0  3  0  0  0  0  0  0
  -17.4720  -30.5280   23.9830 C   0  0  0  0  0  3  0  0  0  0  0  0
  -16.4120  -29.7050   23.5640 C   0  0  0  0  0  3  0  0  0  0  0  0
  -16.6840  -28.4370   23.0200 C   0  0  0  0  0  3  0  0  0  0  0  0
  -25.8440  -32.5800   23.8190 C   0  0  0  0  0  3  0  0  0  0  0  0
  -25.5430  -33.9840   24.1360 N   0  0  0  0  0  0  0  0  0  0  0  0
  -25.8510  -35.0250   23.3510 C   0  0  0  0  0  0  0  0  0  0  0  0
  -26.4870  -34.9050   22.3010 O   0  0  0  0  0  0  0  0  0  0  0  0
  -24.9730  -34.1520   24.9520 H   0  0  0  0  0  0  0  0  0  0  0  0
  -24.1060  -36.8110   23.0340 C   0  0  0  0  0  1  0  0  0  0  0  0
  -25.3790  -36.4220   23.8020 C   0  0  0  0  0  3  0  0  0  0  0  0
  -27.5430  -37.3260   24.5320 C   0  0  0  0  0  1  0  0  0  0  0  0
  -26.4050  -37.4740   23.6290 N   0  0  0  0  0  0  0  0  0  0  0  0
  -26.0020  -38.3960   23.7760 H   0  0  0  0  0  0  0  0  0  0  0  0
  -26.3680  -31.8230   25.1010 C   0  0  1  0  0  0  0  0  0  0  0  0
  -25.2810  -31.5850   26.1760 C   0  0  0  0  0  1  0  0  0  0  0  0
  -26.9600  -30.4470   24.7180 C   0  0  0  0  0  1  0  0  0  0  0  0
  -27.5140  -32.6300   25.7530 C   0  0  0  0  0  1  0  0  0  0  0  0
  1  3  1  0
  2  1  2  0
  3  7  1  0
  4  5  2  0
  4  2  1  0
  5  6  1  0
  6  3  2  0
  6 18  1  0
  8  4  1  0
  9  5  1  0
 10 18  1  0
 11 16  1  0
 12 13  1  0
 12 11  1  0
 14 13  1  0
 14 22  1  0
 14 15  1  0
 16 10  1  0
 16 15  1  0
 17 10  2  0
 18 48  1  0
 19 20  2  0
 20 39  1  0
 21 20  1  0
 21 24  1  0
 22 23  1  0
 22 19  1  0
 23 21  2  0
 24 25  1  0
 25 26  2  0
 27 30  1  0
 27 26  1  0
 28 27  2  0
 29 28  1  0
 29 24  2  0
 30 31  1  0
 31 36  2  0
 31 32  1  0
 32 33  2  0
 33 34  1  0
 34 38  1  0
 35 34  2  0
 36 35  1  0
 37 36  1  0
 39 40  1  0
 40 43  1  0
 40 42  1  0
 41 39  2  0
 44 19  1  0
 44 45  1  0
 46 44  1  0
 48 47  1  0
 49 51  1  0
 50 52  1  0
 50 53  1  0
 52 54  1  0
 53  2  1  0
 53 49  1  0
 54 55  1  0
 54 51  1  0
 56 67  2  0
 57 55  1  0
 57 62  1  0
 58 66  1  0
 58 68  1  0
 59 65  1  0
 59 61  1  0
 60 66  1  0
 61 60  1  0
 62 61  2  0
 63 64  1  0
 63 57  2  0
 64 59  2  0
 65 58  1  0
 66 56  1  0
 68 70  2  0
 69 68  1  0
 71 69  1  0
 72 81  2  0
 72 77  1  0
 73 69  1  0
 73 77  1  0
 74 73  1  0
 75 76  1  0
 75 74  1  0
 76 72  1  0
 77 78  2  0
 78 79  1  0
 80 79  2  0
 81 80  1  0
 82 56  1  0
 82 83  1  0
 82 92  1  0
 83 86  1  0
 84 88  1  0
 84 83  1  0
 85 84  2  0
 88 87  1  0
 90 91  1  0
 90 88  1  0
 90 89  1  0
 92 95  1  1
 92 93  1  0
 94 92  1  0
M  ISO  4  10 100  18 100  54 101  55 101
M  END
>  <TORSDO>  (46) 
F 18

>  <SCORE>  (46) 
-12.404

>  <name>  (46) 
45

>  <ligand_id>  (46) 
45

>  <original_smiles>  (46) 
[H]c1c([H])c([H])c2c(c1[H])C([H])([H])C([H])([H])C([H])([H])C2([H])N([H])C(=O)C1([H])N(C(=O)C([H])(N([H])C(=O)C([H])(N([H])C([H])([H])[H])C([H])([H])[H])C(C([H])([H])[H])(C([H])([H])[H])C([H])([H])[H])C([H])([H])c2c([H])c(OC3([H])C([H])([H])C([H])([H])C([H])(c4c([H])c(C([H])([H])[H])c(N(C(=O)N5C([H])([H])C([H])([H])C([H])([H])C([H])(n6nc(-c7c([H])c([H])c(Oc8c([H])c([H])c(F)c([H])c8F)c([H])c7[H])c(C(=O)N([H])[H])c6N([H])[H])C5([H])[H])C([H])([H])C([H])([H])[H])c(C([H])([H])[H])c4C([H])([H])[H])C([H])([H])C3([H])[H])c([H])c([H])c2C1([H])[H]

>  <smiles>  (46) 
[H]c1c([H])c([H])c2c(c1[H])C([H])([H])C([H])([H])C([H])([H])C2([H])N([H])C(=O)C1([H])N(C(=O)C([H])(N([H])C(=O)C([H])(N([H])C([H])([H])[H])C([H])([H])[H])C(C([H])([H])[H])(C([H])([H])[H])C([H])([H])[H])C([H])([H])c2c([H])c(OC3([H])C([H])([H])C([H])([H])C([H])(c4c([H])c(C([H])([H])[H])c(N(C(=O)N5C([H])([H])C([H])([H])C([H])([H])C([H])(n6nc(-c7c([H])c([H])c(Oc8c([H])c([H])c(F)c([H])c8F)c([H])c7[H])c(C(=O)N([H])[H])c6N([H])[H])C5([H])[H])C([H])([H])C([H])([H])[H])c(C([H])([H])[H])c4C([H])([H])[H])C([H])([H])C3([H])[H])c([H])c([H])c2C1([H])[H]

$$$$
46:0:0
     RDKit          3D

 92101  0  0  1  0  0  0  0  0999 V2000
  -29.0120  -20.7640   18.3130 C   0  0  0  0  0  3  0  0  0  0  0  0
  -29.2010  -19.7900   20.5110 C   0  0  0  0  0  3  0  0  0  0  0  0
  -28.8570  -20.9430   19.7020 C   0  0  0  0  0  0  0  0  0  0  0  0
  -29.4850  -19.5490   17.7570 C   0  0  0  0  0  0  0  0  0  0  0  0
  -29.6760  -18.5150   19.9890 C   0  0  0  0  0  0  0  0  0  0  0  0
  -29.8800  -18.4550   18.5820 C   0  0  0  0  0  0  0  0  0  0  0  0
  -29.4750  -19.4350   16.2380 C   0  0  0  0  0  1  0  0  0  0  0  0
  -30.5620  -17.2360   17.9690 C   0  0  0  0  0  1  0  0  0  0  0  0
  -27.0060  -22.9030   19.6280 C   0  0  0  0  0  2  0  0  0  0  0  0
  -28.2570  -22.3050   20.2530 C   0  0  0  0  0  3  0  0  0  0  0  0
  -28.2390  -23.7880   19.6510 C   0  0  0  0  0  3  0  0  0  0  0  0
  -28.2250  -25.0930   20.5590 C   0  0  0  0  0  2  0  0  0  0  0  0
  -28.3170  -26.5050   20.0960 O   0  0  0  0  0  0  0  0  0  0  0  0
  -24.5520  -31.8760   23.2530 C   0  0  0  0  0  0  0  0  0  0  0  0
  -27.1870  -27.3330   20.1580 C   0  0  0  0  0  0  0  0  0  0  0  0
  -23.3550  -30.4790   21.6070 C   0  0  0  0  0  3  0  0  0  0  0  0
  -24.8130  -28.9250   20.1830 C   0  0  0  0  0  0  0  0  0  0  0  0
  -25.8910  -30.8000   21.4240 C   0  0  0  0  0  2  0  0  0  0  0  0
  -25.9800  -29.4180   20.7830 C   0  0  0  0  0  0  0  0  0  0  0  0
  -27.1730  -28.6340   20.7600 C   0  0  0  0  0  3  0  0  0  0  0  0
  -26.0000  -26.8880   19.5490 C   0  0  0  0  0  3  0  0  0  0  0  0
  -24.8250  -27.6660   19.5590 C   0  0  0  0  0  3  0  0  0  0  0  0
  -23.5730  -29.8000   20.2280 C   0  0  0  0  0  2  0  0  0  0  0  0
  -24.6190  -31.0680   22.1530 N   0  0  0  0  0  0  0  0  0  0  0  0
  -23.4650  -32.1530   23.7820 O   0  0  0  0  0  0  0  0  0  0  0  0
  -22.6890  -29.4620   22.5600 C   0  0  0  0  0  0  0  0  0  0  0  0
  -21.3630  -29.2860   22.4250 N   0  0  0  0  0  0  0  0  0  0  0  0
  -23.3630  -28.8340   23.3830 O   0  0  0  0  0  0  0  0  0  0  0  0
  -20.8760  -29.8540   21.7460 H   0  0  0  0  0  0  0  0  0  0  0  0
  -17.9840  -28.0840   22.8870 C   0  0  0  0  0  0  0  0  0  0  0  0
  -20.5390  -28.3440   23.1850 C   0  0  0  0  0  3  0  0  0  0  0  0
  -20.6460  -26.9110   22.6100 C   0  0  0  0  0  2  0  0  0  0  0  0
  -19.5540  -26.5890   21.5840 C   0  0  0  0  0  2  0  0  0  0  0  0
  -18.1680  -26.7330   22.2150 C   0  0  0  0  0  2  0  0  0  0  0  0
  -19.0980  -28.8470   23.3290 C   0  0  0  0  0  0  0  0  0  0  0  0
  -18.8730  -30.1120   23.9150 C   0  0  0  0  0  3  0  0  0  0  0  0
  -17.5650  -30.6100   24.0680 C   0  0  0  0  0  3  0  0  0  0  0  0
  -16.4650  -29.8450   23.6420 C   0  0  0  0  0  3  0  0  0  0  0  0
  -16.6760  -28.5830   23.0560 C   0  0  0  0  0  3  0  0  0  0  0  0
  -25.8300  -32.5090   23.8850 C   0  0  0  0  0  3  0  0  0  0  0  0
  -26.3260  -31.7460   25.1730 C   0  0  1  0  0  0  0  0  0  0  0  0
  -25.2190  -31.5250   26.2320 C   0  0  0  0  0  1  0  0  0  0  0  0
  -26.9020  -30.3630   24.7940 C   0  0  0  0  0  1  0  0  0  0  0  0
  -27.4750  -32.5350   25.8400 C   0  0  0  0  0  1  0  0  0  0  0  0
  -25.5240  -33.9130   24.1980 N   0  0  0  0  0  0  0  0  0  0  0  0
  -25.8810  -34.9570   23.4380 C   0  0  0  0  0  0  0  0  0  0  0  0
  -26.5670  -34.8400   22.4200 O   0  0  0  0  0  0  0  0  0  0  0  0
  -24.9110  -34.0790   24.9820 H   0  0  0  0  0  0  0  0  0  0  0  0
  -24.1760  -36.7640   23.0350 C   0  0  0  0  0  1  0  0  0  0  0  0
  -25.3960  -36.3540   23.8750 C   0  0  0  0  0  3  0  0  0  0  0  0
  -27.5240  -37.2230   24.7380 C   0  0  0  0  0  1  0  0  0  0  0  0
  -26.4390  -37.3980   23.7770 N   0  0  0  0  0  0  0  0  0  0  0  0
  -26.0380  -38.3210   23.9190 H   0  0  0  0  0  0  0  0  0  0  0  0
  -30.0440  -17.2880   20.9480 C   0  0  0  0  0  2  0  0  0  0  0  0
  -30.5890  -14.7170   20.4860 C   0  0  0  0  0  0  0  0  0  0  0  0
  -30.4300  -12.4580   19.4270 C   0  0  0  0  0  2  0  0  0  0  0  0
  -29.5070  -12.5660   18.1950 C   0  0  0  0  0  2  0  0  0  0  0  0
  -28.0170  -12.4200   18.5800 C   0  0  0  0  0  2  0  0  0  0  0  0
  -27.6360  -13.2780   19.8170 C   0  0  0  0  0  3  0  0  0  0  0  0
  -28.6740  -13.1340   20.9490 C   0  0  0  0  0  2  0  0  0  0  0  0
  -29.9820  -13.4910   20.3870 N   0  0  0  0  0  0  0  0  0  0  0  0
  -31.7990  -14.8370   20.2620 O   0  0  0  0  0  0  0  0  0  0  0  0
  -29.7630  -15.8160   20.6400 N   0  0  0  0  0  0  0  0  0  0  0  0
  -28.7900  -15.5650   20.7120 H   0  0  0  0  0  0  0  0  0  0  0  0
  -25.2330  -13.8830   20.4900 C   0  0  0  0  0  0  0  0  0  0  0  0
  -24.1600  -13.1100   20.8550 C   0  0  0  0  0  0  0  0  0  0  0  0
  -24.6230  -11.7620   20.8450 C   0  0  0  0  0  0  0  0  0  0  0  0
  -26.2810  -12.9980   20.2830 N   0  0  0  0  0  0  0  0  0  0  0  0
  -25.9190  -11.7200   20.5610 N   0  0  0  0  0  0  0  0  0  0  0  0
  -23.8920  -10.5010   21.0290 C   0  0  0  0  0  0  0  0  0  0  0  0
  -24.3010   -9.5430   21.9810 C   0  0  0  0  0  3  0  0  0  0  0  0
  -23.5700   -8.3480   22.1520 C   0  0  0  0  0  3  0  0  0  0  0  0
  -22.4110   -8.1070   21.3790 C   0  0  0  0  0  0  0  0  0  0  0  0
  -22.0220   -9.0540   20.4160 C   0  0  0  0  0  3  0  0  0  0  0  0
  -22.7530  -10.2400   20.2410 C   0  0  0  0  0  3  0  0  0  0  0  0
  -21.6470   -6.9670   21.4660 O   0  0  0  0  0  0  0  0  0  0  0  0
  -21.5700   -6.2380   22.6260 C   0  0  0  0  0  0  0  0  0  0  0  0
  -21.1200   -6.8040   23.8390 C   0  0  0  0  0  3  0  0  0  0  0  0
  -20.9940   -5.9970   24.9870 C   0  0  0  0  0  3  0  0  0  0  0  0
  -21.3030   -4.6260   24.9230 C   0  0  0  0  0  0  0  0  0  0  0  0
  -21.7480   -4.0600   23.7150 C   0  0  0  0  0  3  0  0  0  0  0  0
  -21.8770   -4.8620   22.5690 C   0  0  0  0  0  0  0  0  0  0  0  0
  -22.2820   -4.3070   21.4020 F   0  0  0  0  0  0  0  0  0  0  0  0
  -21.1740   -3.8490   26.0220 F   0  0  0  0  0  0  0  0  0  0  0  0
  -22.7590  -13.5920   21.0900 C   0  0  0  0  0  0  0  0  0  0  0  0
  -22.0080  -12.9050   21.9450 N   0  0  0  0  0  0  0  0  0  0  0  0
  -22.3380  -14.6110   20.5500 O   0  0  0  0  0  0  0  0  0  0  0  0
  -22.3520  -12.0720   22.4010 H   0  0  0  0  0  0  0  0  0  0  0  0
  -21.0660  -13.2140   22.1480 H   0  0  0  0  0  0  0  0  0  0  0  0
  -25.3880  -15.2510   20.2960 N   0  0  0  0  0  0  0  0  0  0  0  0
  -24.5960  -15.8780   20.3740 H   0  0  0  0  0  0  0  0  0  0  0  0
  -26.2110  -15.7060   19.9170 H   0  0  0  0  0  0  0  0  0  0  0  0
  1  3  1  0
  3  2  2  0
  4  1  2  0
  4  6  1  0
  5  2  1  0
  5 54  1  0
  6  5  2  0
  7  4  1  0
  8  6  1  0
  9 11  1  0
  9 10  1  0
 10  3  1  0
 11 10  1  0
 11 12  1  0
 13 15  1  0
 13 12  1  0
 14 25  2  0
 15 20  1  0
 16 24  1  0
 16 26  1  0
 17 23  1  0
 17 19  1  0
 18 24  1  0
 19 18  1  0
 20 19  2  0
 21 22  1  0
 21 15  2  0
 22 17  2  0
 23 16  1  0
 24 14  1  0
 26 28  2  0
 27 26  1  0
 29 27  1  0
 30 39  2  0
 30 35  1  0
 31 27  1  0
 31 35  1  0
 32 31  1  0
 33 34  1  0
 33 32  1  0
 34 30  1  0
 35 36  2  0
 36 37  1  0
 38 37  2  0
 39 38  1  0
 40 14  1  0
 40 45  1  0
 40 41  1  0
 41 44  1  1
 41 42  1  0
 43 41  1  0
 45 48  1  0
 46 50  1  0
 46 45  1  0
 47 46  2  0
 50 49  1  0
 52 50  1  0
 52 53  1  0
 52 51  1  0
 55 63  1  0
 56 61  1  0
 57 58  1  0
 57 56  1  0
 59 58  1  0
 59 68  1  0
 59 60  1  0
 61 55  1  0
 61 60  1  0
 62 55  2  0
 63 64  1  0
 63 54  1  0
 65 66  2  0
 66 85  1  0
 67 66  1  0
 67 70  1  0
 68 65  1  0
 68 69  1  0
 69 67  2  0
 70 71  1  0
 71 72  2  0
 73 76  1  0
 73 72  1  0
 74 73  2  0
 75 74  1  0
 75 70  2  0
 76 77  1  0
 77 78  1  0
 78 79  2  0
 80 79  1  0
 80 84  1  0
 81 80  2  0
 82 77  2  0
 82 81  1  0
 83 82  1  0
 85 86  1  0
 86 89  1  0
 86 88  1  0
 87 85  2  0
 90 91  1  0
 90 65  1  0
 92 90  1  0
M  ISO  4  12 101  13 101  55 100  63 100
M  END
>  <TORSDO>  (47) 
F 19

>  <SCORE>  (47) 
-14.213

>  <name>  (47) 
46

>  <ligand_id>  (47) 
46

>  <original_smiles>  (47) 
[H]c1c([H])c([H])c2c(c1[H])C([H])([H])C([H])([H])C([H])([H])C2([H])N([H])C(=O)C1([H])N(C(=O)C([H])(N([H])C(=O)C([H])(N([H])C([H])([H])[H])C([H])([H])[H])C(C([H])([H])[H])(C([H])([H])[H])C([H])([H])[H])C([H])([H])c2c([H])c(OC([H])([H])C3([H])C([H])([H])C3([H])c3c([H])c(C([H])([H])[H])c(C([H])([H])[H])c(C([H])([H])N([H])C(=O)N4C([H])([H])C([H])([H])C([H])([H])C([H])(n5nc(-c6c([H])c([H])c(Oc7c([H])c([H])c(F)c([H])c7F)c([H])c6[H])c(C(=O)N([H])[H])c5N([H])[H])C4([H])[H])c3[H])c([H])c([H])c2C1([H])[H]

>  <smiles>  (47) 
[H]c1c([H])c([H])c2c(c1[H])C([H])([H])C([H])([H])C([H])([H])C2([H])N([H])C(=O)C1([H])N(C(=O)C([H])(N([H])C(=O)C([H])(N([H])C([H])([H])[H])C([H])([H])[H])C(C([H])([H])[H])(C([H])([H])[H])C([H])([H])[H])C([H])([H])c2c([H])c(OC([H])([H])C3([H])C([H])([H])C3([H])c3c([H])c(C([H])([H])[H])c(C([H])([H])[H])c(C([H])([H])N([H])C(=O)N4C([H])([H])C([H])([H])C([H])([H])C([H])(n5nc(-c6c([H])c([H])c(Oc7c([H])c([H])c(F)c([H])c7F)c([H])c6[H])c(C(=O)N([H])[H])c5N([H])[H])C4([H])[H])c3[H])c([H])c([H])c2C1([H])[H]

$$$$
47:0:0
     RDKit          3D

 97106  0  0  1  0  0  0  0  0999 V2000
  -30.5930  -14.8190   20.3750 C   0  0  0  0  0  0  0  0  0  0  0  0
  -30.3780  -12.5250   19.4300 C   0  0  0  0  0  2  0  0  0  0  0  0
  -29.4410  -12.5320   18.2040 C   0  0  0  0  0  2  0  0  0  0  0  0
  -27.9710  -12.3660   18.6430 C   0  0  0  0  0  2  0  0  0  0  0  0
  -27.5830  -13.3030   19.8190 C   0  0  0  0  0  3  0  0  0  0  0  0
  -28.6440  -13.3000   20.9390 C   0  0  0  0  0  2  0  0  0  0  0  0
  -29.9310  -13.6210   20.3150 N   0  0  0  0  0  0  0  0  0  0  0  0
  -31.8030  -14.8870   20.1360 O   0  0  0  0  0  0  0  0  0  0  0  0
  -29.5090  -21.1790   21.0010 C   0  0  0  0  0  3  0  0  0  0  0  0
  -29.6590  -18.7360   20.4160 C   0  0  0  0  0  0  0  0  0  0  0  0
  -29.9120  -19.8380   21.2930 C   0  0  0  0  0  0  0  0  0  0  0  0
  -28.9890  -19.0830   19.1990 C   0  0  0  0  0  0  0  0  0  0  0  0
  -28.8740  -21.5410   19.7900 C   0  0  0  0  0  0  0  0  0  0  0  0
  -28.5990  -20.4440   18.9010 C   0  0  0  0  0  0  0  0  0  0  0  0
  -30.3000  -17.3630   20.7390 C   0  0  0  0  0  3  0  0  0  0  0  0
  -30.7940  -19.6100   22.5090 C   0  0  0  0  0  2  0  0  0  0  0  0
  -31.9350  -18.6190   22.1910 C   0  0  0  0  0  3  0  0  0  0  0  0
  -28.7470  -18.0050   18.1430 C   0  0  0  0  0  1  0  0  0  0  0  0
  -33.0980  -19.2880   21.4410 C   0  0  0  0  0  1  0  0  0  0  0  0
  -31.4450  -17.4370   21.4520 N   0  0  0  0  0  0  0  0  0  0  0  0
  -29.8270  -16.0940   20.4290 N   0  0  0  0  0  0  0  0  0  0  0  0
  -32.0360  -16.6110   21.4710 H   0  0  0  0  0  0  0  0  0  0  0  0
  -28.8280  -16.0900   20.3420 H   0  0  0  0  0  0  0  0  0  0  0  0
  -25.2130  -13.8930   20.6040 C   0  0  0  0  0  0  0  0  0  0  0  0
  -24.1500  -13.1190   20.9810 C   0  0  0  0  0  0  0  0  0  0  0  0
  -24.6040  -11.7660   20.9140 C   0  0  0  0  0  0  0  0  0  0  0  0
  -26.2480  -13.0120   20.3290 N   0  0  0  0  0  0  0  0  0  0  0  0
  -25.8890  -11.7270   20.5800 N   0  0  0  0  0  0  0  0  0  0  0  0
  -23.8710  -10.5050   21.0880 C   0  0  0  0  0  0  0  0  0  0  0  0
  -24.2970   -9.5240   22.0100 C   0  0  0  0  0  3  0  0  0  0  0  0
  -23.5630   -8.3290   22.1740 C   0  0  0  0  0  3  0  0  0  0  0  0
  -22.3900   -8.1060   21.4150 C   0  0  0  0  0  0  0  0  0  0  0  0
  -21.9830   -9.0760   20.4810 C   0  0  0  0  0  3  0  0  0  0  0  0
  -22.7180  -10.2630   20.3150 C   0  0  0  0  0  3  0  0  0  0  0  0
  -21.6310   -6.9640   21.4870 O   0  0  0  0  0  0  0  0  0  0  0  0
  -21.5560   -6.2210   22.6390 C   0  0  0  0  0  0  0  0  0  0  0  0
  -21.0980   -6.7760   23.8550 C   0  0  0  0  0  3  0  0  0  0  0  0
  -20.9690   -5.9600   24.9950 C   0  0  0  0  0  3  0  0  0  0  0  0
  -21.2890   -4.5910   24.9240 C   0  0  0  0  0  0  0  0  0  0  0  0
  -21.7380   -4.0360   23.7120 C   0  0  0  0  0  3  0  0  0  0  0  0
  -21.8700   -4.8490   22.5740 C   0  0  0  0  0  0  0  0  0  0  0  0
  -22.2830   -4.3050   21.4040 F   0  0  0  0  0  0  0  0  0  0  0  0
  -21.1580   -3.8050   26.0180 F   0  0  0  0  0  0  0  0  0  0  0  0
  -22.7590  -13.6000   21.2790 C   0  0  0  0  0  0  0  0  0  0  0  0
  -22.0390  -12.8980   22.1460 N   0  0  0  0  0  0  0  0  0  0  0  0
  -22.3220  -14.6360   20.7790 O   0  0  0  0  0  0  0  0  0  0  0  0
  -22.4070  -12.0610   22.5750 H   0  0  0  0  0  0  0  0  0  0  0  0
  -21.1060  -13.2010   22.3840 H   0  0  0  0  0  0  0  0  0  0  0  0
  -25.3760  -15.2650   20.4480 N   0  0  0  0  0  0  0  0  0  0  0  0
  -24.5900  -15.8960   20.5550 H   0  0  0  0  0  0  0  0  0  0  0  0
  -26.1620  -15.7000   19.9840 H   0  0  0  0  0  0  0  0  0  0  0  0
  -26.8510  -21.4600   17.6320 C   0  0  0  0  0  1  0  0  0  0  0  0
  -28.0180  -20.6540   17.6690 O   0  0  0  0  0  0  0  0  0  0  0  0
  -28.7950  -22.9080   19.4060 O   0  0  0  0  0  0  0  0  0  0  0  0
  -27.7850  -23.8480   19.9230 C   0  0  0  0  0  2  0  0  0  0  0  0
  -28.2060  -25.3010   20.4680 C   0  0  0  0  0  2  0  0  0  0  0  0
  -28.1640  -26.5660   19.6940 O   0  0  0  0  0  0  0  0  0  0  0  0
  -24.5570  -31.8370   23.1160 C   0  0  0  0  0  0  0  0  0  0  0  0
  -27.0470  -27.4030   19.7990 C   0  0  0  0  0  0  0  0  0  0  0  0
  -23.2950  -30.5170   21.4520 C   0  0  0  0  0  3  0  0  0  0  0  0
  -24.6930  -29.0160   19.9230 C   0  0  0  0  0  0  0  0  0  0  0  0
  -25.8290  -30.8340   21.2030 C   0  0  0  0  0  2  0  0  0  0  0  0
  -25.8820  -29.4820   20.5010 C   0  0  0  0  0  0  0  0  0  0  0  0
  -27.0650  -28.6880   20.4240 C   0  0  0  0  0  3  0  0  0  0  0  0
  -25.8390  -26.9820   19.2100 C   0  0  0  0  0  3  0  0  0  0  0  0
  -24.6730  -27.7720   19.2680 C   0  0  0  0  0  3  0  0  0  0  0  0
  -23.4640  -29.8960   20.0400 C   0  0  0  0  0  2  0  0  0  0  0  0
  -24.5810  -31.0780   21.9810 N   0  0  0  0  0  0  0  0  0  0  0  0
  -23.4930  -32.0950   23.6950 O   0  0  0  0  0  0  0  0  0  0  0  0
  -22.6550  -29.4640   22.3890 C   0  0  0  0  0  0  0  0  0  0  0  0
  -21.3250  -29.3010   22.2990 N   0  0  0  0  0  0  0  0  0  0  0  0
  -23.3550  -28.7960   23.1540 O   0  0  0  0  0  0  0  0  0  0  0  0
  -20.8180  -29.8920   21.6550 H   0  0  0  0  0  0  0  0  0  0  0  0
  -17.9570  -28.1030   22.8490 C   0  0  0  0  0  0  0  0  0  0  0  0
  -20.5240  -28.3360   23.0530 C   0  0  0  0  0  3  0  0  0  0  0  0
  -20.6000  -26.9300   22.4150 C   0  0  0  0  0  2  0  0  0  0  0  0
  -19.4660  -26.6570   21.4210 C   0  0  0  0  0  2  0  0  0  0  0  0
  -18.1050  -26.7820   22.1110 C   0  0  0  0  0  2  0  0  0  0  0  0
  -19.0930  -28.8390   23.2770 C   0  0  0  0  0  0  0  0  0  0  0  0
  -18.8990  -30.0780   23.9280 C   0  0  0  0  0  3  0  0  0  0  0  0
  -17.6030  -30.5780   24.1540 C   0  0  0  0  0  3  0  0  0  0  0  0
  -16.4820  -29.8370   23.7390 C   0  0  0  0  0  3  0  0  0  0  0  0
  -16.6610  -28.6000   23.0930 C   0  0  0  0  0  3  0  0  0  0  0  0
  -25.8630  -32.4340   23.7250 C   0  0  0  0  0  3  0  0  0  0  0  0
  -26.4090  -31.6090   24.9540 C   0  0  1  0  0  0  0  0  0  0  0  0
  -25.3470  -31.3430   26.0460 C   0  0  0  0  0  1  0  0  0  0  0  0
  -26.9630  -30.2410   24.4920 C   0  0  0  0  0  1  0  0  0  0  0  0
  -27.5890  -32.3640   25.6100 C   0  0  0  0  0  1  0  0  0  0  0  0
  -25.5730  -33.8200   24.1220 N   0  0  0  0  0  0  0  0  0  0  0  0
  -25.8970  -34.9020   23.4020 C   0  0  0  0  0  0  0  0  0  0  0  0
  -26.5410  -34.8390   22.3510 O   0  0  0  0  0  0  0  0  0  0  0  0
  -24.9980  -33.9440   24.9430 H   0  0  0  0  0  0  0  0  0  0  0  0
  -24.1800  -36.7260   23.1660 C   0  0  0  0  0  1  0  0  0  0  0  0
  -25.4340  -36.2740   23.9310 C   0  0  0  0  0  3  0  0  0  0  0  0
  -27.5950  -37.1020   24.7510 C   0  0  0  0  0  1  0  0  0  0  0  0
  -26.4740  -37.3210   23.8410 N   0  0  0  0  0  0  0  0  0  0  0  0
  -26.0790  -38.2380   24.0390 H   0  0  0  0  0  0  0  0  0  0  0  0
  1 21  1  0
  2  7  1  0
  3  4  1  0
  3  2  1  0
  5  4  1  0
  5 27  1  0
  5  6  1  0
  7  1  1  0
  7  6  1  0
  8  1  2  0
  9 11  1  0
 10 15  1  0
 10 11  2  0
 11 16  1  0
 12 10  1  0
 13  9  2  0
 14 12  2  0
 14 13  1  0
 15 21  1  0
 15 20  1  0
 17 19  1  0
 17 16  1  0
 18 12  1  0
 20 22  1  0
 20 17  1  0
 23 21  1  0
 24 25  2  0
 25 44  1  0
 26 25  1  0
 26 29  1  0
 27 28  1  0
 27 24  1  0
 28 26  2  0
 29 30  1  0
 30 31  2  0
 32 35  1  0
 32 31  1  0
 33 32  2  0
 34 33  1  0
 34 29  2  0
 35 36  1  0
 36 37  1  0
 37 38  2  0
 39 38  1  0
 39 43  1  0
 40 39  2  0
 41 36  2  0
 41 40  1  0
 42 41  1  0
 44 45  1  0
 45 48  1  0
 45 47  1  0
 46 44  2  0
 49 50  1  0
 49 24  1  0
 51 49  1  0
 52 53  1  0
 53 14  1  0
 54 13  1  0
 54 55  1  0
 55 56  1  0
 57 59  1  0
 57 56  1  0
 58 69  2  0
 59 64  1  0
 60 68  1  0
 60 70  1  0
 61 67  1  0
 61 63  1  0
 62 68  1  0
 63 62  1  0
 64 63  2  0
 65 66  1  0
 65 59  2  0
 66 61  2  0
 67 60  1  0
 68 58  1  0
 70 72  2  0
 71 70  1  0
 73 71  1  0
 74 83  2  0
 74 79  1  0
 75 71  1  0
 75 79  1  0
 76 75  1  0
 77 78  1  0
 77 76  1  0
 78 74  1  0
 79 80  2  0
 80 81  1  0
 82 81  2  0
 83 82  1  0
 84 58  1  0
 84 89  1  0
 84 85  1  0
 85 88  1  1
 85 86  1  0
 87 85  1  0
 89 92  1  0
 90 94  1  0
 90 89  1  0
 91 90  2  0
 94 93  1  0
 96 94  1  0
 96 97  1  0
 96 95  1  0
M  ISO  4   1 100  21 100  56 101  57 101
M  END
>  <TORSDO>  (48) 
F 19

>  <SCORE>  (48) 
-14.014

>  <name>  (48) 
47

>  <ligand_id>  (48) 
47

>  <original_smiles>  (48) 
[H]c1c([H])c([H])c2c(c1[H])C([H])([H])C([H])([H])C([H])([H])C2([H])N([H])C(=O)C1([H])N(C(=O)C([H])(N([H])C(=O)C([H])(N([H])C([H])([H])[H])C([H])([H])[H])C(C([H])([H])[H])(C([H])([H])[H])C([H])([H])[H])C([H])([H])c2c([H])c(OC([H])([H])C([H])([H])Oc3c([H])c4c(c(C([H])([H])[H])c3OC([H])([H])[H])C(N([H])C(=O)N3C([H])([H])C([H])([H])C([H])([H])C([H])(n5nc(-c6c([H])c([H])c(Oc7c([H])c([H])c(F)c([H])c7F)c([H])c6[H])c(C(=O)N([H])[H])c5N([H])[H])C3([H])[H])=[N+]([H])C([H])(C([H])([H])[H])C4([H])[H])c([H])c([H])c2C1([H])[H]

>  <smiles>  (48) 
[H]c1c([H])c([H])c2c(c1[H])C([H])([H])C([H])([H])C([H])([H])C2([H])N([H])C(=O)C1([H])N(C(=O)C([H])(N([H])C(=O)C([H])(N([H])C([H])([H])[H])C([H])([H])[H])C(C([H])([H])[H])(C([H])([H])[H])C([H])([H])[H])C([H])([H])c2c([H])c(OC([H])([H])C([H])([H])Oc3c([H])c4c(c(C([H])([H])[H])c3OC([H])([H])[H])C(N([H])C(=O)N3C([H])([H])C([H])([H])C([H])([H])C([H])(n5nc(-c6c([H])c([H])c(Oc7c([H])c([H])c(F)c([H])c7F)c([H])c6[H])c(C(=O)N([H])[H])c5N([H])[H])C3([H])[H])=[N+]([H])C([H])(C([H])([H])[H])C4([H])[H])c([H])c([H])c2C1([H])[H]

$$$$
48:0:0
     RDKit          3D

 95105  0  0  1  0  0  0  0  0999 V2000
  -27.8710  -22.9880   19.2910 C   0  0  0  0  0  3  0  0  0  0  0  0
  -30.1420  -21.5910   20.1200 C   0  0  0  0  0  3  0  0  0  0  0  0
  -28.1110  -21.6510   18.8410 C   0  0  0  0  0  0  0  0  0  0  0  0
  -28.7220  -23.6710   20.1970 C   0  0  0  0  0  0  0  0  0  0  0  0
  -29.8910  -22.9330   20.5800 C   0  0  0  0  0  0  0  0  0  0  0  0
  -29.2490  -20.8980   19.2570 C   0  0  0  0  0  0  0  0  0  0  0  0
  -30.8850  -23.5500   21.5490 C   0  0  0  0  0  1  0  0  0  0  0  0
  -25.6200  -21.1740   18.1220 C   0  0  0  0  0  2  0  0  0  0  0  0
  -26.2760  -19.8380   18.3740 C   0  0  0  0  0  2  0  0  0  0  0  0
  -27.1110  -21.0130   17.9200 C   0  0  0  0  0  3  0  0  0  0  0  0
  -28.2160  -24.9990   20.9210 C   0  0  0  0  0  2  0  0  0  0  0  0
  -28.5300  -26.3780   20.4640 O   0  0  0  0  0  0  0  0  0  0  0  0
  -24.5990  -31.7980   23.2560 C   0  0  0  0  0  0  0  0  0  0  0  0
  -27.4350  -27.2540   20.3830 C   0  0  0  0  0  0  0  0  0  0  0  0
  -23.5080  -30.3790   21.5540 C   0  0  0  0  0  3  0  0  0  0  0  0
  -25.0590  -28.8380   20.2220 C   0  0  0  0  0  0  0  0  0  0  0  0
  -26.0500  -30.7270   21.5150 C   0  0  0  0  0  2  0  0  0  0  0  0
  -26.1870  -29.3460   20.8820 C   0  0  0  0  0  0  0  0  0  0  0  0
  -27.3820  -28.5660   20.9510 C   0  0  0  0  0  3  0  0  0  0  0  0
  -26.2890  -26.7990   19.6990 C   0  0  0  0  0  3  0  0  0  0  0  0
  -25.1130  -27.5710   19.6190 C   0  0  0  0  0  3  0  0  0  0  0  0
  -23.8110  -29.6990   20.1930 C   0  0  0  0  0  2  0  0  0  0  0  0
  -24.7350  -30.9860   22.1670 N   0  0  0  0  0  0  0  0  0  0  0  0
  -23.4830  -32.0650   23.7260 O   0  0  0  0  0  0  0  0  0  0  0  0
  -22.8010  -29.3600   22.4800 C   0  0  0  0  0  0  0  0  0  0  0  0
  -21.4780  -29.1970   22.3040 N   0  0  0  0  0  0  0  0  0  0  0  0
  -23.4440  -28.7190   23.3150 O   0  0  0  0  0  0  0  0  0  0  0  0
  -21.0210  -29.7660   21.6060 H   0  0  0  0  0  0  0  0  0  0  0  0
  -18.0650  -28.0700   22.7140 C   0  0  0  0  0  0  0  0  0  0  0  0
  -20.6240  -28.2610   23.0350 C   0  0  0  0  0  3  0  0  0  0  0  0
  -20.7020  -26.8430   22.4230 C   0  0  0  0  0  2  0  0  0  0  0  0
  -19.6110  -26.5740   21.3810 C   0  0  0  0  0  2  0  0  0  0  0  0
  -18.2210  -26.7350   22.0050 C   0  0  0  0  0  2  0  0  0  0  0  0
  -19.1930  -28.7930   23.1830 C   0  0  0  0  0  0  0  0  0  0  0  0
  -18.9940  -30.0440   23.8060 C   0  0  0  0  0  3  0  0  0  0  0  0
  -17.6990  -30.5720   23.9640 C   0  0  0  0  0  3  0  0  0  0  0  0
  -16.5850  -29.8450   23.5110 C   0  0  0  0  0  3  0  0  0  0  0  0
  -16.7690  -28.5960   22.8910 C   0  0  0  0  0  3  0  0  0  0  0  0
  -25.8360  -32.4480   23.9490 C   0  0  0  0  0  3  0  0  0  0  0  0
  -26.2710  -31.7010   25.2700 C   0  0  1  0  0  0  0  0  0  0  0  0
  -25.1070  -31.4590   26.2600 C   0  0  0  0  0  1  0  0  0  0  0  0
  -26.9020  -30.3280   24.9410 C   0  0  0  0  0  1  0  0  0  0  0  0
  -27.3580  -32.5230   26.0010 C   0  0  0  0  0  1  0  0  0  0  0  0
  -25.5010  -33.8500   24.2350 N   0  0  0  0  0  0  0  0  0  0  0  0
  -25.8570  -34.8900   23.4690 C   0  0  0  0  0  0  0  0  0  0  0  0
  -26.5720  -34.7710   22.4710 O   0  0  0  0  0  0  0  0  0  0  0  0
  -24.8710  -34.0160   25.0060 H   0  0  0  0  0  0  0  0  0  0  0  0
  -24.1270  -36.6560   23.0100 C   0  0  0  0  0  1  0  0  0  0  0  0
  -25.3400  -36.2830   23.8760 C   0  0  0  0  0  3  0  0  0  0  0  0
  -27.4350  -37.2080   24.7630 C   0  0  0  0  0  1  0  0  0  0  0  0
  -26.3670  -37.3440   23.7770 N   0  0  0  0  0  0  0  0  0  0  0  0
  -25.9470  -38.2640   23.8910 H   0  0  0  0  0  0  0  0  0  0  0  0
  -29.3610  -19.5630   18.7820 O   0  0  0  0  0  0  0  0  0  0  0  0
  -30.4280  -18.5780   19.0510 C   0  0  0  0  0  2  0  0  0  0  0  0
  -31.2510  -14.8970   19.5280 C   0  0  0  0  0  0  0  0  0  0  0  0
  -30.9720  -12.5100   18.8220 C   0  0  0  0  0  2  0  0  0  0  0  0
  -29.9710  -12.4070   17.6520 C   0  0  0  0  0  2  0  0  0  0  0  0
  -28.5280  -12.2960   18.1780 C   0  0  0  0  0  2  0  0  0  0  0  0
  -28.2120  -13.3550   19.2670 C   0  0  0  0  0  3  0  0  0  0  0  0
  -29.3260  -13.4220   20.3350 C   0  0  0  0  0  2  0  0  0  0  0  0
  -30.6030  -13.6840   19.6490 N   0  0  0  0  0  0  0  0  0  0  0  0
  -32.3150  -14.9710   18.9040 O   0  0  0  0  0  0  0  0  0  0  0  0
  -29.6310  -17.2550   21.8470 C   0  0  0  0  0  2  0  0  0  0  0  0
  -28.8060  -17.3530   20.5680 C   0  0  0  0  0  2  0  0  0  0  0  0
  -30.7740  -16.2910   21.5030 C   0  0  0  0  0  2  0  0  0  0  0  0
  -29.8230  -17.1310   19.4430 C   0  0  0  0  0  3  0  0  0  0  0  0
  -30.6790  -16.0380   20.0630 N   0  0  0  0  0  0  0  0  0  0  0  0
  -25.9340  -14.0760   20.2100 C   0  0  0  0  0  0  0  0  0  0  0  0
  -24.8600  -13.3620   20.6650 C   0  0  0  0  0  0  0  0  0  0  0  0
  -25.2280  -11.9870   20.5570 C   0  0  0  0  0  0  0  0  0  0  0  0
  -26.8970  -13.1420   19.8650 N   0  0  0  0  0  0  0  0  0  0  0  0
  -26.4810  -11.8760   20.1320 N   0  0  0  0  0  0  0  0  0  0  0  0
  -24.4360  -10.7690   20.7780 C   0  0  0  0  0  0  0  0  0  0  0  0
  -24.8140   -9.8070   21.7390 C   0  0  0  0  0  3  0  0  0  0  0  0
  -24.0240   -8.6550   21.9470 C   0  0  0  0  0  3  0  0  0  0  0  0
  -22.8430   -8.4590   21.1930 C   0  0  0  0  0  0  0  0  0  0  0  0
  -22.4840   -9.4090   20.2210 C   0  0  0  0  0  3  0  0  0  0  0  0
  -23.2730  -10.5520   20.0120 C   0  0  0  0  0  3  0  0  0  0  0  0
  -22.0280   -7.3580   21.3070 O   0  0  0  0  0  0  0  0  0  0  0  0
  -21.8590   -6.7100   22.5040 C   0  0  0  0  0  0  0  0  0  0  0  0
  -21.3750   -7.3760   23.6510 C   0  0  0  0  0  3  0  0  0  0  0  0
  -21.1510   -6.6560   24.8410 C   0  0  0  0  0  3  0  0  0  0  0  0
  -21.4010   -5.2710   24.8850 C   0  0  0  0  0  0  0  0  0  0  0  0
  -21.8790   -4.6050   23.7440 C   0  0  0  0  0  3  0  0  0  0  0  0
  -22.1040   -5.3220   22.5550 C   0  0  0  0  0  0  0  0  0  0  0  0
  -22.5450   -4.6720   21.4510 F   0  0  0  0  0  0  0  0  0  0  0  0
  -21.1790   -4.5780   26.0270 F   0  0  0  0  0  0  0  0  0  0  0  0
  -23.5290  -13.9210   21.0780 C   0  0  0  0  0  0  0  0  0  0  0  0
  -22.8580  -13.2730   22.0230 N   0  0  0  0  0  0  0  0  0  0  0  0
  -23.1000  -14.9700   20.5990 O   0  0  0  0  0  0  0  0  0  0  0  0
  -23.2190  -12.4240   22.4340 H   0  0  0  0  0  0  0  0  0  0  0  0
  -21.9690  -13.6310   22.3420 H   0  0  0  0  0  0  0  0  0  0  0  0
  -26.1560  -15.4370   20.0350 N   0  0  0  0  0  0  0  0  0  0  0  0
  -25.4370  -16.1260   20.2270 H   0  0  0  0  0  0  0  0  0  0  0  0
  -26.9880  -15.8370   19.6220 H   0  0  0  0  0  0  0  0  0  0  0  0
  1  4  1  0
  2  5  1  0
  3  6  1  0
  3  1  2  0
  4  5  2  0
  4 11  1  0
  5  7  1  0
  6  2  2  0
  8  9  1  0
 10  8  1  0
 10  9  1  0
 10  3  1  0
 12 11  1  0
 13 24  2  0
 14 12  1  0
 14 19  1  0
 15 23  1  0
 15 25  1  0
 16 18  1  0
 17 23  1  0
 18 19  2  0
 18 17  1  0
 20 14  2  0
 21 20  1  0
 21 16  2  0
 22 16  1  0
 22 15  1  0
 23 13  1  0
 25 27  2  0
 26 25  1  0
 28 26  1  0
 29 38  2  0
 29 34  1  0
 30 26  1  0
 30 34  1  0
 31 30  1  0
 32 33  1  0
 32 31  1  0
 33 29  1  0
 34 35  2  0
 35 36  1  0
 37 36  2  0
 38 37  1  0
 39 13  1  0
 39 44  1  0
 39 40  1  0
 40 43  1  1
 40 41  1  0
 42 40  1  0
 44 47  1  0
 45 49  1  0
 45 44  1  0
 46 45  2  0
 49 48  1  0
 51 49  1  0
 51 52  1  0
 51 50  1  0
 53 54  1  0
 53  6  1  0
 55 61  1  0
 55 67  1  0
 56 61  1  0
 57 58  1  0
 57 56  1  0
 59 58  1  0
 59 71  1  0
 59 60  1  0
 61 60  1  0
 62 55  2  0
 64 63  1  0
 65 63  1  0
 66 54  1  0
 66 67  1  0
 66 64  1  0
 67 65  1  0
 68 69  2  0
 69 88  1  0
 70 69  1  0
 70 73  1  0
 71 72  1  0
 71 68  1  0
 72 70  2  0
 73 74  1  0
 74 75  2  0
 76 79  1  0
 76 75  1  0
 77 76  2  0
 78 77  1  0
 78 73  2  0
 79 80  1  0
 80 85  2  0
 80 81  1  0
 81 82  2  0
 82 83  1  0
 83 87  1  0
 84 83  2  0
 85 84  1  0
 86 85  1  0
 88 89  1  0
 89 92  1  0
 89 91  1  0
 90 88  2  0
 93 68  1  0
 93 94  1  0
 95 93  1  0
M  ISO  4  11 101  12 101  55 100  67 100
M  END
>  <TORSDO>  (49) 
F 20

>  <SCORE>  (49) 
-13.316

>  <name>  (49) 
48

>  <ligand_id>  (49) 
48

>  <original_smiles>  (49) 
[H]c1c([H])c([H])c2c(c1[H])C([H])([H])C([H])([H])C([H])([H])C2([H])N([H])C(=O)C1([H])N(C(=O)C([H])(N([H])C(=O)C([H])(N([H])C([H])([H])[H])C([H])([H])[H])C(C([H])([H])[H])(C([H])([H])[H])C([H])([H])[H])C([H])([H])c2c([H])c(OC([H])([H])c3c([H])c(C4([H])C([H])([H])C4([H])[H])c(OC([H])([H])C4([H])N(C(=O)N5C([H])([H])C([H])([H])C([H])([H])C([H])(n6nc(-c7c([H])c([H])c(Oc8c([H])c([H])c(F)c([H])c8F)c([H])c7[H])c(C(=O)N([H])[H])c6N([H])[H])C5([H])[H])C([H])([H])C([H])([H])C4([H])[H])c([H])c3C([H])([H])[H])c([H])c([H])c2C1([H])[H]

>  <smiles>  (49) 
[H]c1c([H])c([H])c2c(c1[H])C([H])([H])C([H])([H])C([H])([H])C2([H])N([H])C(=O)C1([H])N(C(=O)C([H])(N([H])C(=O)C([H])(N([H])C([H])([H])[H])C([H])([H])[H])C(C([H])([H])[H])(C([H])([H])[H])C([H])([H])[H])C([H])([H])c2c([H])c(OC([H])([H])c3c([H])c(C4([H])C([H])([H])C4([H])[H])c(OC([H])([H])C4([H])N(C(=O)N5C([H])([H])C([H])([H])C([H])([H])C([H])(n6nc(-c7c([H])c([H])c(Oc8c([H])c([H])c(F)c([H])c8F)c([H])c7[H])c(C(=O)N([H])[H])c6N([H])[H])C5([H])[H])C([H])([H])C([H])([H])C4([H])[H])c([H])c3C([H])([H])[H])c([H])c([H])c2C1([H])[H]

$$$$
49:0:0
     RDKit          3D

 98107  0  0  1  0  0  0  0  0999 V2000
  -29.2310  -20.4880   20.6050 C   0  0  0  0  0  0  0  0  0  0  0  0
  -28.4630  -21.6150   20.0340 C   0  0  0  0  0  0  0  0  0  0  0  0
  -30.1510  -20.8730   21.6460 C   0  0  0  0  0  0  0  0  0  0  0  0
  -29.3770  -23.2410   21.6280 C   0  0  0  0  0  0  0  0  0  0  0  0
  -28.5460  -23.0270   20.4990 C   0  0  0  0  0  0  0  0  0  0  0  0
  -30.2570  -22.2270   22.1190 C   0  0  0  0  0  0  0  0  0  0  0  0
  -27.5000  -21.2820   18.9090 C   0  0  0  0  0  1  0  0  0  0  0  0
  -29.2720  -24.5880   22.3550 C   0  0  0  0  0  1  0  0  0  0  0  0
  -30.0220  -14.4200   19.4180 C   0  0  0  0  0  0  0  0  0  0  0  0
  -29.6800  -12.1580   18.3600 C   0  0  0  0  0  2  0  0  0  0  0  0
  -28.5470  -12.2150   17.3130 C   0  0  0  0  0  2  0  0  0  0  0  0
  -27.1840  -11.9690   17.9850 C   0  0  0  0  0  2  0  0  0  0  0  0
  -27.0010  -12.8000   19.2830 C   0  0  0  0  0  3  0  0  0  0  0  0
  -28.2400  -12.7480   20.2000 C   0  0  0  0  0  2  0  0  0  0  0  0
  -29.3830  -13.1890   19.3930 N   0  0  0  0  0  0  0  0  0  0  0  0
  -31.1470  -14.4780   18.9080 O   0  0  0  0  0  0  0  0  0  0  0  0
  -28.8300  -17.7730   21.2430 C   0  0  0  0  0  2  0  0  0  0  0  0
  -28.7010  -18.2050   18.9060 C   0  0  0  0  0  2  0  0  0  0  0  0
  -29.4510  -16.3100   21.0170 C   0  0  0  0  0  2  0  0  0  0  0  0
  -29.2810  -16.7200   18.6170 C   0  0  0  0  0  2  0  0  0  0  0  0
  -29.2490  -18.8730   20.2020 C   0  0  0  0  0  3  0  0  0  0  0  0
  -29.3230  -15.6330   19.6820 N   0  0  0  0  0  0  0  0  0  0  0  0
  -24.7750  -13.2750   20.4520 C   0  0  0  0  0  0  0  0  0  0  0  0
  -23.8090  -12.4530   20.9620 C   0  0  0  0  0  0  0  0  0  0  0  0
  -24.2910  -11.1200   20.7880 C   0  0  0  0  0  0  0  0  0  0  0  0
  -25.7790  -12.4400   19.9930 N   0  0  0  0  0  0  0  0  0  0  0  0
  -25.5080  -11.1350   20.2580 N   0  0  0  0  0  0  0  0  0  0  0  0
  -23.6350   -9.8290   21.0410 C   0  0  0  0  0  0  0  0  0  0  0  0
  -24.1880   -8.8790   21.9260 C   0  0  0  0  0  3  0  0  0  0  0  0
  -23.5280   -7.6550   22.1680 C   0  0  0  0  0  3  0  0  0  0  0  0
  -22.2980   -7.3730   21.5260 C   0  0  0  0  0  0  0  0  0  0  0  0
  -21.7630   -8.3130   20.6280 C   0  0  0  0  0  3  0  0  0  0  0  0
  -22.4250   -9.5280   20.3840 C   0  0  0  0  0  3  0  0  0  0  0  0
  -21.5980   -6.2010   21.6810 O   0  0  0  0  0  0  0  0  0  0  0  0
  -21.6210   -5.4990   22.8590 C   0  0  0  0  0  0  0  0  0  0  0  0
  -21.1840   -6.0680   24.0750 C   0  0  0  0  0  3  0  0  0  0  0  0
  -21.1600   -5.2890   25.2500 C   0  0  0  0  0  3  0  0  0  0  0  0
  -21.5620   -3.9410   25.2090 C   0  0  0  0  0  0  0  0  0  0  0  0
  -21.9910   -3.3700   23.9970 C   0  0  0  0  0  3  0  0  0  0  0  0
  -22.0170   -4.1470   22.8250 C   0  0  0  0  0  0  0  0  0  0  0  0
  -22.4120   -3.5870   21.6570 F   0  0  0  0  0  0  0  0  0  0  0  0
  -21.5320   -3.1890   26.3340 F   0  0  0  0  0  0  0  0  0  0  0  0
  -22.4700  -12.8770   21.4920 C   0  0  0  0  0  0  0  0  0  0  0  0
  -21.9180  -12.1240   22.4360 N   0  0  0  0  0  0  0  0  0  0  0  0
  -21.9280  -13.9110   21.1030 O   0  0  0  0  0  0  0  0  0  0  0  0
  -22.3730  -11.2880   22.7710 H   0  0  0  0  0  0  0  0  0  0  0  0
  -21.0260  -12.3870   22.8310 H   0  0  0  0  0  0  0  0  0  0  0  0
  -24.8780  -14.6570   20.3170 N   0  0  0  0  0  0  0  0  0  0  0  0
  -24.1330  -15.2850   20.6010 H   0  0  0  0  0  0  0  0  0  0  0  0
  -25.6640  -15.1370   19.8990 H   0  0  0  0  0  0  0  0  0  0  0  0
  -32.7780  -22.2230   22.8960 C   0  0  0  0  0  1  0  0  0  0  0  0
  -30.8640  -22.4390   24.6290 C   0  0  0  0  0  1  0  0  0  0  0  0
  -31.3210  -22.6560   23.1700 C   0  0  0  0  0  3  0  0  0  0  0  0
  -31.0420  -19.7930   22.2880 C   0  0  0  0  0  2  0  0  0  0  0  0
  -33.0130  -18.5040   22.0710 C   0  0  0  0  0  1  0  0  0  0  0  0
  -32.2190  -19.5470   21.5250 O   0  0  0  0  0  0  0  0  0  0  0  0
  -27.7030  -24.3070   19.9060 C   0  0  0  0  0  2  0  0  0  0  0  0
  -28.0150  -25.7950   20.1850 O   0  0  0  0  0  0  0  0  0  0  0  0
  -24.5590  -31.5190   23.1740 C   0  0  0  0  0  0  0  0  0  0  0  0
  -26.9960  -26.7980   20.0960 C   0  0  0  0  0  0  0  0  0  0  0  0
  -23.3290  -30.2050   21.4900 C   0  0  0  0  0  3  0  0  0  0  0  0
  -24.7360  -28.6060   20.0560 C   0  0  0  0  0  0  0  0  0  0  0  0
  -25.8910  -30.3810   21.3660 C   0  0  0  0  0  2  0  0  0  0  0  0
  -25.9200  -29.0040   20.6900 C   0  0  0  0  0  0  0  0  0  0  0  0
  -27.0520  -28.1140   20.6960 C   0  0  0  0  0  3  0  0  0  0  0  0
  -25.7950  -26.4960   19.4170 C   0  0  0  0  0  3  0  0  0  0  0  0
  -24.6850  -27.3640   19.4040 C   0  0  0  0  0  3  0  0  0  0  0  0
  -23.5420  -29.5450   20.1000 C   0  0  0  0  0  2  0  0  0  0  0  0
  -24.6120  -30.7200   22.0650 N   0  0  0  0  0  0  0  0  0  0  0  0
  -23.4770  -31.8380   23.6910 O   0  0  0  0  0  0  0  0  0  0  0  0
  -22.5970  -29.2060   22.4200 C   0  0  0  0  0  0  0  0  0  0  0  0
  -21.2680  -29.0840   22.2630 N   0  0  0  0  0  0  0  0  0  0  0  0
  -23.2300  -28.5440   23.2480 O   0  0  0  0  0  0  0  0  0  0  0  0
  -20.8170  -29.6670   21.5710 H   0  0  0  0  0  0  0  0  0  0  0  0
  -17.8310  -28.0280   22.6980 C   0  0  0  0  0  0  0  0  0  0  0  0
  -20.3960  -28.1680   23.0010 C   0  0  0  0  0  3  0  0  0  0  0  0
  -20.4390  -26.7450   22.3950 C   0  0  0  0  0  2  0  0  0  0  0  0
  -19.3370  -26.4970   21.3600 C   0  0  0  0  0  2  0  0  0  0  0  0
  -17.9550  -26.6890   21.9910 C   0  0  0  0  0  2  0  0  0  0  0  0
  -18.9770  -28.7300   23.1590 C   0  0  0  0  0  0  0  0  0  0  0  0
  -18.8080  -29.9860   23.7810 C   0  0  0  0  0  3  0  0  0  0  0  0
  -17.5240  -30.5400   23.9450 C   0  0  0  0  0  3  0  0  0  0  0  0
  -16.3920  -29.8360   23.5000 C   0  0  0  0  0  3  0  0  0  0  0  0
  -16.5460  -28.5820   22.8830 C   0  0  0  0  0  3  0  0  0  0  0  0
  -25.8530  -32.0880   23.8330 C   0  0  0  0  0  3  0  0  0  0  0  0
  -26.3040  -31.2790   25.1110 C   0  0  1  0  0  0  0  0  0  0  0  0
  -25.1750  -31.0760   26.1500 C   0  0  0  0  0  1  0  0  0  0  0  0
  -26.8380  -29.8820   24.7190 C   0  0  0  0  0  1  0  0  0  0  0  0
  -27.4710  -32.0160   25.8110 C   0  0  0  0  0  1  0  0  0  0  0  0
  -25.5960  -33.4950   24.1780 N   0  0  0  0  0  0  0  0  0  0  0  0
  -25.9510  -34.5440   23.4240 C   0  0  0  0  0  0  0  0  0  0  0  0
  -26.5970  -34.4260   22.3790 O   0  0  0  0  0  0  0  0  0  0  0  0
  -25.0210  -33.6620   24.9910 H   0  0  0  0  0  0  0  0  0  0  0  0
  -24.2690  -36.3930   23.1390 C   0  0  0  0  0  1  0  0  0  0  0  0
  -25.5240  -35.9440   23.9040 C   0  0  0  0  0  3  0  0  0  0  0  0
  -27.7090  -36.7660   24.6690 C   0  0  0  0  0  1  0  0  0  0  0  0
  -26.5850  -36.9660   23.7590 N   0  0  0  0  0  0  0  0  0  0  0  0
  -26.2120  -37.8980   23.9160 H   0  0  0  0  0  0  0  0  0  0  0  0
  1  3  1  0
  2  5  1  0
  2  1  2  0
  3  6  2  0
  3 54  1  0
  4  6  1  0
  4  8  1  0
  5  4  2  0
  6 53  1  0
  7  2  1  0
  9 22  1  0
 10 15  1  0
 11 12  1  0
 11 10  1  0
 13 12  1  0
 13 26  1  0
 13 14  1  0
 15  9  1  0
 15 14  1  0
 16  9  2  0
 18 21  1  0
 19 17  1  0
 20 18  1  0
 20 22  1  0
 21  1  1  0
 21 17  1  0
 22 19  1  0
 23 24  2  0
 24 43  1  0
 25 24  1  0
 25 28  1  0
 26 27  1  0
 26 23  1  0
 27 25  2  0
 28 29  1  0
 29 30  2  0
 31 34  1  0
 31 30  1  0
 32 31  2  0
 33 32  1  0
 33 28  2  0
 34 35  1  0
 35 36  1  0
 36 37  2  0
 38 37  1  0
 38 42  1  0
 39 38  2  0
 40 35  2  0
 40 39  1  0
 41 40  1  0
 43 44  1  0
 44 46  1  0
 44 47  1  0
 45 43  2  0
 48 23  1  0
 48 49  1  0
 50 48  1  0
 51 53  1  0
 53 52  1  0
 56 55  1  0
 56 54  1  0
 57 58  1  0
 57  5  1  0
 59 70  2  0
 60 58  1  0
 60 65  1  0
 61 69  1  0
 61 71  1  0
 62 68  1  0
 62 64  1  0
 63 69  1  0
 64 65  2  0
 64 63  1  0
 66 60  2  0
 67 66  1  0
 67 62  2  0
 68 61  1  0
 69 59  1  0
 71 73  2  0
 72 71  1  0
 74 72  1  0
 75 84  2  0
 75 80  1  0
 76 72  1  0
 76 80  1  0
 77 76  1  0
 78 79  1  0
 78 77  1  0
 79 75  1  0
 80 81  2  0
 81 82  1  0
 83 82  2  0
 84 83  1  0
 85 59  1  0
 85 90  1  0
 85 86  1  0
 86 89  1  1
 86 87  1  0
 88 86  1  0
 90 93  1  0
 91 95  1  0
 91 90  1  0
 92 91  2  0
 95 94  1  0
 97 95  1  0
 97 98  1  0
 97 96  1  0
M  ISO  4   9 100  22 100  57 101  58 101
M  END
>  <TORSDO>  (50) 
F 20

>  <SCORE>  (50) 
-7.683

>  <name>  (50) 
49

>  <ligand_id>  (50) 
49

>  <original_smiles>  (50) 
[H]c1c([H])c([H])c2c(c1[H])C([H])([H])C([H])([H])C([H])([H])C2([H])N([H])C(=O)C1([H])N(C(=O)C([H])(N([H])C(=O)C([H])(N([H])C([H])([H])[H])C([H])([H])[H])C(C([H])([H])[H])(C([H])([H])[H])C([H])([H])[H])C([H])([H])c2c([H])c(OC([H])([H])c3c(C([H])([H])[H])c(C([H])(C([H])([H])[H])C([H])([H])[H])c(C([H])([H])OC([H])([H])[H])c(C4([H])C([H])([H])C([H])([H])N(C(=O)N5C([H])([H])C([H])([H])C([H])([H])C([H])(n6nc(-c7c([H])c([H])c(Oc8c([H])c([H])c(F)c([H])c8F)c([H])c7[H])c(C(=O)N([H])[H])c6N([H])[H])C5([H])[H])C([H])([H])C4([H])[H])c3C([H])([H])[H])c([H])c([H])c2C1([H])[H]

>  <smiles>  (50) 
[H]c1c([H])c([H])c2c(c1[H])C([H])([H])C([H])([H])C([H])([H])C2([H])N([H])C(=O)C1([H])N(C(=O)C([H])(N([H])C(=O)C([H])(N([H])C([H])([H])[H])C([H])([H])[H])C(C([H])([H])[H])(C([H])([H])[H])C([H])([H])[H])C([H])([H])c2c([H])c(OC([H])([H])c3c(C([H])([H])[H])c(C([H])(C([H])([H])[H])C([H])([H])[H])c(C([H])([H])OC([H])([H])[H])c(C4([H])C([H])([H])C([H])([H])N(C(=O)N5C([H])([H])C([H])([H])C([H])([H])C([H])(n6nc(-c7c([H])c([H])c(Oc8c([H])c([H])c(F)c([H])c8F)c([H])c7[H])c(C(=O)N([H])[H])c6N([H])[H])C5([H])[H])C([H])([H])C4([H])[H])c3C([H])([H])[H])c([H])c([H])c2C1([H])[H]

$$$$
50:0:0
     RDKit          3D

 97106  0  0  1  0  0  0  0  0999 V2000
  -29.2390  -23.4980   21.3180 C   0  0  0  0  0  3  0  0  0  0  0  0
  -29.0950  -21.3960   19.4760 C   0  0  0  0  0  3  0  0  0  0  0  0
  -29.6340  -22.1760   21.7110 C   0  0  0  0  0  0  0  0  0  0  0  0
  -28.7570  -23.7950   20.0210 C   0  0  0  0  0  0  0  0  0  0  0  0
  -28.6920  -22.7040   19.1050 C   0  0  0  0  0  0  0  0  0  0  0  0
  -29.5570  -21.0840   20.7750 C   0  0  0  0  0  0  0  0  0  0  0  0
  -28.1150  -22.8850   17.7060 C   0  0  0  0  0  1  0  0  0  0  0  0
  -30.1430  -22.0020   23.1270 C   0  0  0  0  0  0  0  0  0  0  0  0
  -30.2570  -20.7690   23.5960 N   0  0  0  0  0  0  0  0  0  0  0  0
  -30.4020  -22.9710   23.8450 O   0  0  0  0  0  0  0  0  0  0  0  0
  -30.0780  -20.0050   22.9540 H   0  0  0  0  0  0  0  0  0  0  0  0
  -30.5780  -20.5950   24.5360 H   0  0  0  0  0  0  0  0  0  0  0  0
  -28.0790  -25.1460   19.6280 C   0  0  0  0  0  2  0  0  0  0  0  0
  -28.3200  -26.4650   20.2490 O   0  0  0  0  0  0  0  0  0  0  0  0
  -24.5900  -31.8810   23.2430 C   0  0  0  0  0  0  0  0  0  0  0  0
  -27.2330  -27.3600   20.1550 C   0  0  0  0  0  0  0  0  0  0  0  0
  -23.4070  -30.4940   21.5830 C   0  0  0  0  0  3  0  0  0  0  0  0
  -24.8740  -28.9820   20.1510 C   0  0  0  0  0  0  0  0  0  0  0  0
  -25.9510  -30.8160   21.4360 C   0  0  0  0  0  2  0  0  0  0  0  0
  -26.0360  -29.4480   20.7750 C   0  0  0  0  0  0  0  0  0  0  0  0
  -27.2180  -28.6450   20.7820 C   0  0  0  0  0  3  0  0  0  0  0  0
  -26.0500  -26.9880   19.4610 C   0  0  0  0  0  3  0  0  0  0  0  0
  -24.8820  -27.7550   19.4870 C   0  0  0  0  0  3  0  0  0  0  0  0
  -23.6340  -29.8470   20.1970 C   0  0  0  0  0  2  0  0  0  0  0  0
  -24.6670  -31.0800   22.1420 N   0  0  0  0  0  0  0  0  0  0  0  0
  -23.4990  -32.1510   23.7660 O   0  0  0  0  0  0  0  0  0  0  0  0
  -22.7420  -29.4580   22.5220 C   0  0  0  0  0  0  0  0  0  0  0  0
  -21.4170  -29.2780   22.3780 N   0  0  0  0  0  0  0  0  0  0  0  0
  -23.4130  -28.8260   23.3400 O   0  0  0  0  0  0  0  0  0  0  0  0
  -20.9360  -29.8440   21.6930 H   0  0  0  0  0  0  0  0  0  0  0  0
  -18.0310  -28.0910   22.8510 C   0  0  0  0  0  0  0  0  0  0  0  0
  -20.5900  -28.3320   23.1290 C   0  0  0  0  0  3  0  0  0  0  0  0
  -20.6860  -26.9090   22.5330 C   0  0  0  0  0  2  0  0  0  0  0  0
  -19.5850  -26.6060   21.5130 C   0  0  0  0  0  2  0  0  0  0  0  0
  -18.2020  -26.7510   22.1560 C   0  0  0  0  0  2  0  0  0  0  0  0
  -19.1530  -28.8410   23.2940 C   0  0  0  0  0  0  0  0  0  0  0  0
  -18.9420  -30.0950   23.9050 C   0  0  0  0  0  3  0  0  0  0  0  0
  -17.6400  -30.6030   24.0740 C   0  0  0  0  0  3  0  0  0  0  0  0
  -16.5320  -29.8500   23.6500 C   0  0  0  0  0  3  0  0  0  0  0  0
  -16.7280  -28.5950   23.0450 C   0  0  0  0  0  3  0  0  0  0  0  0
  -25.8640  -32.5110   23.8820 C   0  0  0  0  0  3  0  0  0  0  0  0
  -26.3550  -31.7470   25.1730 C   0  0  1  0  0  0  0  0  0  0  0  0
  -25.2400  -31.5110   26.2180 C   0  0  0  0  0  1  0  0  0  0  0  0
  -26.9480  -30.3660   24.8030 C   0  0  0  0  0  1  0  0  0  0  0  0
  -27.4910  -32.5460   25.8520 C   0  0  0  0  0  1  0  0  0  0  0  0
  -25.5530  -33.9120   24.1960 N   0  0  0  0  0  0  0  0  0  0  0  0
  -25.8810  -34.9560   23.4230 C   0  0  0  0  0  0  0  0  0  0  0  0
  -26.5490  -34.8440   22.3920 O   0  0  0  0  0  0  0  0  0  0  0  0
  -24.9620  -34.0740   24.9980 H   0  0  0  0  0  0  0  0  0  0  0  0
  -24.1440  -36.7390   23.0520 C   0  0  0  0  0  1  0  0  0  0  0  0
  -25.3900  -36.3500   23.8650 C   0  0  0  0  0  3  0  0  0  0  0  0
  -27.5240  -37.2510   24.6780 C   0  0  0  0  0  1  0  0  0  0  0  0
  -26.4180  -37.4050   23.7380 N   0  0  0  0  0  0  0  0  0  0  0  0
  -26.0080  -38.3230   23.8820 H   0  0  0  0  0  0  0  0  0  0  0  0
  -29.8560  -19.7580   21.1430 O   0  0  0  0  0  0  0  0  0  0  0  0
  -30.6200  -14.6190   20.1820 C   0  0  0  0  0  0  0  0  0  0  0  0
  -30.2450  -12.4170   19.0870 C   0  0  0  0  0  2  0  0  0  0  0  0
  -29.2610  -12.5330   17.9060 C   0  0  0  0  0  2  0  0  0  0  0  0
  -27.8170  -12.3330   18.4010 C   0  0  0  0  0  2  0  0  0  0  0  0
  -27.4950  -13.2060   19.6390 C   0  0  0  0  0  3  0  0  0  0  0  0
  -28.6070  -13.1270   20.7180 C   0  0  0  0  0  2  0  0  0  0  0  0
  -29.8900  -13.4560   20.0810 N   0  0  0  0  0  0  0  0  0  0  0  0
  -31.7420  -14.6730   19.6710 O   0  0  0  0  0  0  0  0  0  0  0  0
  -31.3930  -17.9090   20.5590 C   0  0  0  0  0  2  0  0  0  0  0  0
  -28.9880  -17.7360   19.8220 C   0  0  0  0  0  2  0  0  0  0  0  0
  -31.1050  -16.6910   21.4820 C   0  0  0  0  0  2  0  0  0  0  0  0
  -28.8800  -16.4530   20.7120 C   0  0  0  0  0  2  0  0  0  0  0  0
  -30.1440  -18.7290   20.1530 C   0  0  0  0  0  3  0  0  0  0  0  0
  -30.1610  -15.7260   20.8730 N   0  0  0  0  0  0  0  0  0  0  0  0
  -25.1460  -13.7830   20.4990 C   0  0  0  0  0  0  0  0  0  0  0  0
  -24.1020  -12.9980   20.9040 C   0  0  0  0  0  0  0  0  0  0  0  0
  -24.5670  -11.6510   20.8150 C   0  0  0  0  0  0  0  0  0  0  0  0
  -26.1790  -12.9120   20.1900 N   0  0  0  0  0  0  0  0  0  0  0  0
  -25.8410  -11.6230   20.4430 N   0  0  0  0  0  0  0  0  0  0  0  0
  -23.8550  -10.3820   21.0040 C   0  0  0  0  0  0  0  0  0  0  0  0
  -24.3170   -9.4060   21.9150 C   0  0  0  0  0  3  0  0  0  0  0  0
  -23.6050   -8.2010   22.0950 C   0  0  0  0  0  3  0  0  0  0  0  0
  -22.4170   -7.9630   21.3650 C   0  0  0  0  0  0  0  0  0  0  0  0
  -21.9750   -8.9260   20.4400 C   0  0  0  0  0  3  0  0  0  0  0  0
  -22.6880  -10.1240   20.2580 C   0  0  0  0  0  3  0  0  0  0  0  0
  -21.6750   -6.8120   21.4550 O   0  0  0  0  0  0  0  0  0  0  0  0
  -21.6470   -6.0620   22.6030 C   0  0  0  0  0  0  0  0  0  0  0  0
  -21.1980   -6.5930   23.8310 C   0  0  0  0  0  3  0  0  0  0  0  0
  -21.1220   -5.7660   24.9700 C   0  0  0  0  0  3  0  0  0  0  0  0
  -21.4860   -4.4090   24.8820 C   0  0  0  0  0  0  0  0  0  0  0  0
  -21.9270   -3.8760   23.6580 C   0  0  0  0  0  3  0  0  0  0  0  0
  -22.0060   -4.7000   22.5220 C   0  0  0  0  0  0  0  0  0  0  0  0
  -22.4120   -4.1770   21.3400 F   0  0  0  0  0  0  0  0  0  0  0  0
  -21.4030   -3.6130   25.9730 F   0  0  0  0  0  0  0  0  0  0  0  0
  -22.7170  -13.4620   21.2510 C   0  0  0  0  0  0  0  0  0  0  0  0
  -22.0270  -12.7340   22.1220 N   0  0  0  0  0  0  0  0  0  0  0  0
  -22.2560  -14.5040   20.7830 O   0  0  0  0  0  0  0  0  0  0  0  0
  -22.4130  -11.8920   22.5230 H   0  0  0  0  0  0  0  0  0  0  0  0
  -21.0970  -13.0220   22.3930 H   0  0  0  0  0  0  0  0  0  0  0  0
  -25.2890  -15.1580   20.3420 N   0  0  0  0  0  0  0  0  0  0  0  0
  -24.5180  -15.7970   20.5100 H   0  0  0  0  0  0  0  0  0  0  0  0
  -26.1060  -15.6130   19.9580 H   0  0  0  0  0  0  0  0  0  0  0  0
  1  3  1  0
  2  6  1  0
  3  8  1  0
  4  1  2  0
  5  2  2  0
  5  4  1  0
  6 55  1  0
  6  3  2  0
  7  5  1  0
  8  9  1  0
  8 10  2  0
  9 12  1  0
 11  9  1  0
 13  4  1  0
 13 14  1  0
 15 26  2  0
 16 14  1  0
 16 21  1  0
 17 25  1  0
 17 27  1  0
 18 24  1  0
 18 20  1  0
 19 25  1  0
 20 21  2  0
 20 19  1  0
 22 23  1  0
 22 16  2  0
 23 18  2  0
 24 17  1  0
 25 15  1  0
 27 29  2  0
 28 27  1  0
 30 28  1  0
 31 40  2  0
 31 36  1  0
 32 28  1  0
 32 36  1  0
 33 32  1  0
 34 35  1  0
 34 33  1  0
 35 31  1  0
 36 37  2  0
 37 38  1  0
 39 38  2  0
 40 39  1  0
 41 15  1  0
 41 46  1  0
 41 42  1  0
 42 45  1  1
 42 43  1  0
 44 42  1  0
 46 49  1  0
 47 51  1  0
 47 46  1  0
 48 47  2  0
 51 50  1  0
 53 51  1  0
 53 54  1  0
 53 52  1  0
 56 69  1  0
 57 62  1  0
 58 59  1  0
 58 57  1  0
 60 59  1  0
 60 73  1  0
 60 61  1  0
 62 56  1  0
 62 61  1  0
 63 56  2  0
 64 66  1  0
 65 68  1  0
 65 67  1  0
 67 69  1  0
 68 64  1  0
 68 55  1  0
 69 66  1  0
 70 71  2  0
 71 90  1  0
 72 71  1  0
 72 75  1  0
 73 74  1  0
 73 70  1  0
 74 72  2  0
 75 76  1  0
 76 77  2  0
 78 81  1  0
 78 77  1  0
 79 78  2  0
 80 79  1  0
 80 75  2  0
 81 82  1  0
 82 83  1  0
 83 84  2  0
 85 84  1  0
 85 89  1  0
 86 85  2  0
 87 82  2  0
 87 86  1  0
 88 87  1  0
 90 91  1  0
 91 94  1  0
 91 93  1  0
 92 90  2  0
 95 70  1  0
 95 96  1  0
 97 95  1  0
M  ISO  4  13 101  14 101  56 100  69 100
M  END
>  <TORSDO>  (51) 
F 19

>  <SCORE>  (51) 
-14.925

>  <name>  (51) 
50

>  <ligand_id>  (51) 
50

>  <original_smiles>  (51) 
[H]c1c([H])c([H])c2c(c1[H])C([H])([H])C([H])([H])C([H])([H])C2([H])N([H])C(=O)C1([H])N(C(=O)C([H])(N([H])C(=O)C([H])(N([H])C([H])([H])[H])C([H])([H])[H])C(C([H])([H])[H])(C([H])([H])[H])C([H])([H])[H])C([H])([H])c2c([H])c(OC([H])([H])c3c([H])c(C(=O)N([H])[H])c(OC4([H])C([H])([H])C([H])([H])N(C(=O)N5C([H])([H])C([H])([H])C([H])([H])C([H])(n6nc(-c7c([H])c([H])c(Oc8c([H])c([H])c(F)c([H])c8F)c([H])c7[H])c(C(=O)N([H])[H])c6N([H])[H])C5([H])[H])C([H])([H])C4([H])[H])c([H])c3C([H])([H])[H])c([H])c([H])c2C1([H])[H]

>  <smiles>  (51) 
[H]c1c([H])c([H])c2c(c1[H])C([H])([H])C([H])([H])C([H])([H])C2([H])N([H])C(=O)C1([H])N(C(=O)C([H])(N([H])C(=O)C([H])(N([H])C([H])([H])[H])C([H])([H])[H])C(C([H])([H])[H])(C([H])([H])[H])C([H])([H])[H])C([H])([H])c2c([H])c(OC([H])([H])c3c([H])c(C(=O)N([H])[H])c(OC4([H])C([H])([H])C([H])([H])N(C(=O)N5C([H])([H])C([H])([H])C([H])([H])C([H])(n6nc(-c7c([H])c([H])c(Oc8c([H])c([H])c(F)c([H])c8F)c([H])c7[H])c(C(=O)N([H])[H])c6N([H])[H])C5([H])[H])C([H])([H])C4([H])[H])c([H])c3C([H])([H])[H])c([H])c([H])c2C1([H])[H]

$$$$
51:0:0
     RDKit          3D

 98107  0  0  1  0  0  0  0  0999 V2000
  -28.3070  -20.4080   19.6590 C   0  0  0  0  0  0  0  0  0  0  0  0
  -28.8980  -19.1130   19.8190 C   0  0  0  0  0  0  0  0  0  0  0  0
  -30.4880  -20.0900   21.3880 C   0  0  0  0  0  0  0  0  0  0  0  0
  -30.0140  -18.9220   20.6900 C   0  0  0  0  0  0  0  0  0  0  0  0
  -29.8430  -21.3700   21.2620 C   0  0  0  0  0  0  0  0  0  0  0  0
  -28.7810  -21.5730   20.3330 C   0  0  0  0  0  0  0  0  0  0  0  0
  -27.0680  -20.5960   18.7950 C   0  0  0  0  0  2  0  0  0  0  0  0
  -26.0680  -21.3910   19.6190 C   0  0  0  0  0  2  0  0  0  0  0  0
  -26.6340  -22.7650   20.0140 C   0  0  0  0  0  3  0  0  0  0  0  0
  -28.3340  -17.9560   18.9940 C   0  0  0  0  0  1  0  0  0  0  0  0
  -30.2410  -22.5230   22.1850 C   0  0  0  0  0  1  0  0  0  0  0  0
  -25.9800  -23.2760   21.3070 C   0  0  0  0  0  1  0  0  0  0  0  0
  -28.1100  -22.8350   20.0920 N   0  0  0  0  0  0  0  0  0  0  0  0
  -31.4160  -19.5450   23.7050 C   0  0  0  0  0  1  0  0  0  0  0  0
  -31.7410  -19.9930   22.2710 C   0  0  0  0  0  2  0  0  0  0  0  0
  -31.6820  -17.5270   19.4390 C   0  0  0  0  0  1  0  0  0  0  0  0
  -30.8250  -17.5630   20.7320 C   0  0  0  0  0  3  0  0  0  0  0  0
  -30.8430  -15.0480   21.0990 C   0  0  0  0  0  0  0  0  0  0  0  0
  -30.6540  -12.7620   20.1940 C   0  0  0  0  0  2  0  0  0  0  0  0
  -29.8830  -12.7990   18.8610 C   0  0  0  0  0  2  0  0  0  0  0  0
  -28.3720  -12.6620   19.1210 C   0  0  0  0  0  2  0  0  0  0  0  0
  -27.8600  -13.6220   20.2290 C   0  0  0  0  0  3  0  0  0  0  0  0
  -28.7760  -13.6170   21.4730 C   0  0  0  0  0  2  0  0  0  0  0  0
  -30.1460  -13.8770   21.0160 N   0  0  0  0  0  0  0  0  0  0  0  0
  -32.0690  -15.0500   20.9940 O   0  0  0  0  0  0  0  0  0  0  0  0
  -30.1630  -16.2350   21.0160 N   0  0  0  0  0  0  0  0  0  0  0  0
  -29.1580  -16.2130   21.0740 H   0  0  0  0  0  0  0  0  0  0  0  0
  -25.4150  -14.2390   20.7130 C   0  0  0  0  0  0  0  0  0  0  0  0
  -24.3060  -13.4750   20.9520 C   0  0  0  0  0  0  0  0  0  0  0  0
  -24.7510  -12.1190   20.9460 C   0  0  0  0  0  0  0  0  0  0  0  0
  -26.4680  -13.3480   20.5740 N   0  0  0  0  0  0  0  0  0  0  0  0
  -26.0670  -12.0660   20.7770 N   0  0  0  0  0  0  0  0  0  0  0  0
  -23.9900  -10.8660   21.0320 C   0  0  0  0  0  0  0  0  0  0  0  0
  -24.3560   -9.8390   21.9310 C   0  0  0  0  0  3  0  0  0  0  0  0
  -23.5960   -8.6510   22.0090 C   0  0  0  0  0  3  0  0  0  0  0  0
  -22.4570   -8.4820   21.1860 C   0  0  0  0  0  0  0  0  0  0  0  0
  -22.1120   -9.4970   20.2760 C   0  0  0  0  0  3  0  0  0  0  0  0
  -22.8730  -10.6760   20.1960 C   0  0  0  0  0  3  0  0  0  0  0  0
  -21.6750   -7.3520   21.1750 O   0  0  0  0  0  0  0  0  0  0  0  0
  -21.6180   -6.5060   22.2530 C   0  0  0  0  0  0  0  0  0  0  0  0
  -21.2300   -6.9550   23.5340 C   0  0  0  0  0  3  0  0  0  0  0  0
  -21.1180   -6.0370   24.5970 C   0  0  0  0  0  3  0  0  0  0  0  0
  -21.3850   -4.6720   24.3810 C   0  0  0  0  0  0  0  0  0  0  0  0
  -21.7680   -4.2220   23.1050 C   0  0  0  0  0  3  0  0  0  0  0  0
  -21.8820   -5.1370   22.0440 C   0  0  0  0  0  0  0  0  0  0  0  0
  -22.2290   -4.6940   20.8110 F   0  0  0  0  0  0  0  0  0  0  0  0
  -21.2710   -3.7890   25.4010 F   0  0  0  0  0  0  0  0  0  0  0  0
  -22.8940  -13.9710   21.0820 C   0  0  0  0  0  0  0  0  0  0  0  0
  -22.0740  -13.2830   21.8670 N   0  0  0  0  0  0  0  0  0  0  0  0
  -22.5270  -15.0030   20.5220 O   0  0  0  0  0  0  0  0  0  0  0  0
  -22.3840  -12.4480   22.3420 H   0  0  0  0  0  0  0  0  0  0  0  0
  -21.1230  -13.5980   21.9970 H   0  0  0  0  0  0  0  0  0  0  0  0
  -25.6150  -15.6080   20.5770 N   0  0  0  0  0  0  0  0  0  0  0  0
  -24.8480  -16.2700   20.6100 H   0  0  0  0  0  0  0  0  0  0  0  0
  -26.4970  -16.0340   20.3290 H   0  0  0  0  0  0  0  0  0  0  0  0
  -28.7550  -24.2030   20.0990 C   0  0  0  0  0  3  0  0  0  0  0  0
  -27.8960  -25.3700   19.4480 C   0  0  0  0  0  3  0  0  0  0  0  0
  -28.2100  -26.8120   19.5530 O   0  0  0  0  0  0  0  0  0  0  0  0
  -24.4800  -31.8490   23.0970 C   0  0  0  0  0  0  0  0  0  0  0  0
  -27.0870  -27.6560   19.5770 C   0  0  0  0  0  0  0  0  0  0  0  0
  -23.2450  -30.5340   21.4120 C   0  0  0  0  0  3  0  0  0  0  0  0
  -24.6760  -29.1700   19.7990 C   0  0  0  0  0  0  0  0  0  0  0  0
  -25.7610  -30.9660   21.1380 C   0  0  0  0  0  2  0  0  0  0  0  0
  -25.8550  -29.6500   20.3820 C   0  0  0  0  0  0  0  0  0  0  0  0
  -27.0650  -28.9020   20.2700 C   0  0  0  0  0  3  0  0  0  0  0  0
  -25.8840  -27.2520   18.9440 C   0  0  0  0  0  3  0  0  0  0  0  0
  -24.6900  -27.9740   19.0710 C   0  0  0  0  0  3  0  0  0  0  0  0
  -23.4130  -29.9830   19.9740 C   0  0  0  0  0  2  0  0  0  0  0  0
  -24.5170  -31.1290   21.9380 N   0  0  0  0  0  0  0  0  0  0  0  0
  -23.4150  -32.0440   23.7000 O   0  0  0  0  0  0  0  0  0  0  0  0
  -22.6700  -29.4180   22.3170 C   0  0  0  0  0  0  0  0  0  0  0  0
  -21.3520  -29.1790   22.2150 N   0  0  0  0  0  0  0  0  0  0  0  0
  -23.4050  -28.7760   23.0710 O   0  0  0  0  0  0  0  0  0  0  0  0
  -20.8150  -29.7560   21.5830 H   0  0  0  0  0  0  0  0  0  0  0  0
  -18.0630  -27.7470   22.6880 C   0  0  0  0  0  0  0  0  0  0  0  0
  -20.6030  -28.1530   22.9440 C   0  0  0  0  0  3  0  0  0  0  0  0
  -20.7870  -26.7620   22.2940 C   0  0  0  0  0  2  0  0  0  0  0  0
  -19.6930  -26.4220   21.2780 C   0  0  0  0  0  2  0  0  0  0  0  0
  -18.3130  -26.4470   21.9430 C   0  0  0  0  0  2  0  0  0  0  0  0
  -19.1380  -28.5550   23.1450 C   0  0  0  0  0  0  0  0  0  0  0  0
  -18.8490  -29.7710   23.8030 C   0  0  0  0  0  3  0  0  0  0  0  0
  -17.5180  -30.1800   24.0070 C   0  0  0  0  0  3  0  0  0  0  0  0
  -16.4580  -29.3690   23.5670 C   0  0  0  0  0  3  0  0  0  0  0  0
  -16.7310  -28.1540   22.9140 C   0  0  0  0  0  3  0  0  0  0  0  0
  -25.7700  -32.4800   23.7040 C   0  0  0  0  0  3  0  0  0  0  0  0
  -26.3220  -31.6860   24.9510 C   0  0  1  0  0  0  0  0  0  0  0  0
  -25.2580  -31.4190   26.0400 C   0  0  0  0  0  1  0  0  0  0  0  0
  -26.9040  -30.3200   24.5160 C   0  0  0  0  0  1  0  0  0  0  0  0
  -27.4830  -32.4750   25.6010 C   0  0  0  0  0  1  0  0  0  0  0  0
  -25.4510  -33.8670   24.0720 N   0  0  0  0  0  0  0  0  0  0  0  0
  -25.7700  -34.9420   23.3380 C   0  0  0  0  0  0  0  0  0  0  0  0
  -26.4320  -34.8690   22.2990 O   0  0  0  0  0  0  0  0  0  0  0  0
  -24.8640  -33.9960   24.8820 H   0  0  0  0  0  0  0  0  0  0  0  0
  -24.0210  -36.7270   23.0480 C   0  0  0  0  0  1  0  0  0  0  0  0
  -25.2740  -36.3130   23.8350 C   0  0  0  0  0  3  0  0  0  0  0  0
  -27.4070  -37.2020   24.6670 C   0  0  0  0  0  1  0  0  0  0  0  0
  -26.2960  -37.3780   23.7360 N   0  0  0  0  0  0  0  0  0  0  0  0
  -25.8830  -38.2920   23.9060 H   0  0  0  0  0  0  0  0  0  0  0  0
  1  2  2  0
  1  6  1  0
  2  4  1  0
  3 15  1  0
  4 17  1  0
  4  3  2  0
  5  3  1  0
  5 11  1  0
  6  5  2  0
  7  8  1  0
  7  1  1  0
  8  9  1  0
  9 13  1  0
  9 12  1  0
 10  2  1  0
 13 56  1  0
 13  6  1  0
 15 14  1  0
 17 16  1  0
 17 26  1  0
 19 24  1  0
 20 21  1  0
 20 19  1  0
 22 21  1  0
 22 31  1  0
 22 23  1  0
 24 18  1  0
 24 23  1  0
 25 18  2  0
 26 27  1  0
 26 18  1  0
 28 29  2  0
 29 48  1  0
 30 29  1  0
 30 33  1  0
 31 28  1  0
 31 32  1  0
 32 30  2  0
 33 34  1  0
 34 35  2  0
 36 35  1  0
 37 36  2  0
 38 37  1  0
 38 33  2  0
 39 36  1  0
 39 40  1  0
 40 41  1  0
 41 42  2  0
 43 42  1  0
 43 47  1  0
 44 43  2  0
 45 40  2  0
 45 44  1  0
 46 45  1  0
 48 49  1  0
 49 52  1  0
 49 51  1  0
 50 48  2  0
 53 54  1  0
 53 28  1  0
 55 53  1  0
 57 58  1  0
 57 56  2  0
 58 60  1  0
 59 70  2  0
 60 65  1  0
 61 69  1  0
 61 71  1  0
 62 68  1  0
 62 64  1  0
 63 69  1  0
 64 63  1  0
 65 64  2  0
 66 67  1  0
 66 60  2  0
 67 62  2  0
 68 61  1  0
 69 59  1  0
 71 73  2  0
 72 71  1  0
 74 72  1  0
 75 84  2  0
 75 80  1  0
 76 72  1  0
 76 80  1  0
 77 76  1  0
 78 79  1  0
 78 77  1  0
 79 75  1  0
 80 81  2  0
 81 82  1  0
 83 82  2  0
 84 83  1  0
 85 59  1  0
 85 90  1  0
 85 86  1  0
 86 89  1  1
 86 87  1  0
 88 86  1  0
 90 93  1  0
 91 95  1  0
 91 90  1  0
 92 91  2  0
 95 94  1  0
 97 95  1  0
 97 98  1  0
 97 96  1  0
M  ISO  4  18 100  26 100  57 101  58 101
M  END
>  <TORSDO>  (52) 
F 20

>  <SCORE>  (52) 
-13.035

>  <name>  (52) 
51

>  <ligand_id>  (52) 
51

>  <original_smiles>  (52) 
[H]c1c([H])c([H])c2c(c1[H])C([H])([H])C([H])([H])C([H])([H])C2([H])N([H])C(=O)C1([H])N(C(=O)C([H])(N([H])C(=O)C([H])(N([H])C([H])([H])[H])C([H])([H])[H])C(C([H])([H])[H])(C([H])([H])[H])C([H])([H])[H])C([H])([H])c2c([H])c(OC([H])([H])C([H])([H])N3c4c(C([H])([H])[H])c(C([H])([H])C([H])([H])[H])c(C([H])(N([H])C(=O)N5C([H])([H])C([H])([H])C([H])([H])C([H])(n6nc(-c7c([H])c([H])c(Oc8c([H])c([H])c(F)c([H])c8F)c([H])c7[H])c(C(=O)N([H])[H])c6N([H])[H])C5([H])[H])C([H])([H])[H])c(C([H])([H])[H])c4C([H])([H])C([H])([H])C3([H])C([H])([H])[H])c([H])c([H])c2C1([H])[H]

>  <smiles>  (52) 
[H]c1c([H])c([H])c2c(c1[H])C([H])([H])C([H])([H])C([H])([H])C2([H])N([H])C(=O)C1([H])N(C(=O)C([H])(N([H])C(=O)C([H])(N([H])C([H])([H])[H])C([H])([H])[H])C(C([H])([H])[H])(C([H])([H])[H])C([H])([H])[H])C([H])([H])c2c([H])c(OC([H])([H])C([H])([H])N3c4c(C([H])([H])[H])c(C([H])([H])C([H])([H])[H])c(C([H])(N([H])C(=O)N5C([H])([H])C([H])([H])C([H])([H])C([H])(n6nc(-c7c([H])c([H])c(Oc8c([H])c([H])c(F)c([H])c8F)c([H])c7[H])c(C(=O)N([H])[H])c6N([H])[H])C5([H])[H])C([H])([H])[H])c(C([H])([H])[H])c4C([H])([H])C([H])([H])C3([H])C([H])([H])[H])c([H])c([H])c2C1([H])[H]

$$$$
52:0:0
     RDKit          3D

 97106  0  0  1  0  0  0  0  0999 V2000
  -31.2930  -20.6710   20.2460 C   0  0  0  0  0  3  0  0  0  0  0  0
  -29.1270  -21.7610   20.1410 C   0  0  0  0  0  3  0  0  0  0  0  0
  -31.9050  -21.8690   19.8350 C   0  0  0  0  0  0  0  0  0  0  0  0
  -31.1330  -23.0320   19.5670 C   0  0  0  0  0  0  0  0  0  0  0  0
  -29.7160  -23.0070   19.7430 C   0  0  0  0  0  0  0  0  0  0  0  0
  -29.8920  -20.5760   20.3710 C   0  0  0  0  0  0  0  0  0  0  0  0
  -31.8390  -24.2440   18.9400 C   0  0  0  0  0  2  0  0  0  0  0  0
  -33.4140  -21.8540   19.6000 C   0  0  0  0  0  2  0  0  0  0  0  0
  -33.3710  -24.1340   18.8250 C   0  0  0  0  0  2  0  0  0  0  0  0
  -35.1890  -22.6250   18.0780 C   0  0  0  0  0  1  0  0  0  0  0  0
  -33.7730  -22.7520   18.4890 N   0  0  1  0  0  4  0  0  0  0  0  0
  -33.2160  -22.4590   17.7010 H   0  0  0  0  0  0  0  0  0  0  0  0
  -27.6180  -23.8130   18.5080 C   0  0  0  0  0  1  0  0  0  0  0  0
  -28.8360  -24.2470   19.3420 C   0  0  0  0  0  3  0  0  0  0  0  0
  -28.4310  -25.2370   20.4950 C   0  0  0  0  0  2  0  0  0  0  0  0
  -28.4350  -26.6560   20.1540 O   0  0  0  0  0  0  0  0  0  0  0  0
  -24.6170  -31.8910   23.2600 C   0  0  0  0  0  0  0  0  0  0  0  0
  -27.2550  -27.3890   20.1940 C   0  0  0  0  0  0  0  0  0  0  0  0
  -23.4110  -30.4850   21.6220 C   0  0  0  0  0  3  0  0  0  0  0  0
  -24.8650  -28.9320   20.2050 C   0  0  0  0  0  0  0  0  0  0  0  0
  -25.9430  -30.8250   21.4300 C   0  0  0  0  0  2  0  0  0  0  0  0
  -26.0270  -29.4490   20.7890 C   0  0  0  0  0  0  0  0  0  0  0  0
  -27.2250  -28.6870   20.7720 C   0  0  0  0  0  3  0  0  0  0  0  0
  -26.0630  -26.8920   19.6210 C   0  0  0  0  0  3  0  0  0  0  0  0
  -24.8790  -27.6550   19.6180 C   0  0  0  0  0  3  0  0  0  0  0  0
  -23.6230  -29.7950   20.2480 C   0  0  0  0  0  2  0  0  0  0  0  0
  -24.6760  -31.0820   22.1620 N   0  0  0  0  0  0  0  0  0  0  0  0
  -23.5350  -32.1670   23.7970 O   0  0  0  0  0  0  0  0  0  0  0  0
  -22.7520  -29.4710   22.5890 C   0  0  0  0  0  0  0  0  0  0  0  0
  -21.4260  -29.2910   22.4650 N   0  0  0  0  0  0  0  0  0  0  0  0
  -23.4340  -28.8470   23.4060 O   0  0  0  0  0  0  0  0  0  0  0  0
  -20.9340  -29.8410   21.7740 H   0  0  0  0  0  0  0  0  0  0  0  0
  -18.0520  -28.0980   22.9640 C   0  0  0  0  0  0  0  0  0  0  0  0
  -20.6090  -28.3550   23.2390 C   0  0  0  0  0  3  0  0  0  0  0  0
  -20.7130  -26.9220   22.6670 C   0  0  0  0  0  2  0  0  0  0  0  0
  -19.6140  -26.5980   21.6510 C   0  0  0  0  0  2  0  0  0  0  0  0
  -18.2310  -26.7460   22.2910 C   0  0  0  0  0  2  0  0  0  0  0  0
  -19.1700  -28.8610   23.3950 C   0  0  0  0  0  0  0  0  0  0  0  0
  -18.9500  -30.1260   23.9810 C   0  0  0  0  0  3  0  0  0  0  0  0
  -17.6450  -30.6300   24.1390 C   0  0  0  0  0  3  0  0  0  0  0  0
  -16.5420  -29.8620   23.7300 C   0  0  0  0  0  3  0  0  0  0  0  0
  -16.7450  -28.5980   23.1480 C   0  0  0  0  0  3  0  0  0  0  0  0
  -25.9040  -32.5230   23.8770 C   0  0  0  0  0  3  0  0  0  0  0  0
  -25.5990  -33.9230   24.2030 N   0  0  0  0  0  0  0  0  0  0  0  0
  -25.9330  -34.9720   23.4400 C   0  0  0  0  0  0  0  0  0  0  0  0
  -26.5970  -34.8620   22.4050 O   0  0  0  0  0  0  0  0  0  0  0  0
  -25.0090  -34.0830   25.0070 H   0  0  0  0  0  0  0  0  0  0  0  0
  -24.2060  -36.7620   23.0860 C   0  0  0  0  0  1  0  0  0  0  0  0
  -25.4510  -36.3620   23.8940 C   0  0  0  0  0  3  0  0  0  0  0  0
  -27.5910  -37.2440   24.7110 C   0  0  0  0  0  1  0  0  0  0  0  0
  -26.4840  -37.4120   23.7720 N   0  0  0  0  0  0  0  0  0  0  0  0
  -26.0820  -38.3330   23.9230 H   0  0  0  0  0  0  0  0  0  0  0  0
  -26.4250  -31.7560   25.1540 C   0  0  1  0  0  0  0  0  0  0  0  0
  -25.3330  -31.5230   26.2220 C   0  0  0  0  0  1  0  0  0  0  0  0
  -27.0060  -30.3770   24.7660 C   0  0  0  0  0  1  0  0  0  0  0  0
  -27.5810  -32.5480   25.8070 C   0  0  0  0  0  1  0  0  0  0  0  0
  -29.2440  -19.3710   20.6470 O   0  0  0  0  0  0  0  0  0  0  0  0
  -29.9480  -18.1760   21.1000 C   0  0  0  0  0  2  0  0  0  0  0  0
  -30.0170  -17.0020   20.0690 C   0  0  0  0  0  2  0  0  0  0  0  0
  -30.6450  -14.5570   20.3670 C   0  0  0  0  0  0  0  0  0  0  0  0
  -30.3720  -12.3610   19.2880 C   0  0  0  0  0  2  0  0  0  0  0  0
  -29.4200  -12.5530   18.0880 C   0  0  0  0  0  2  0  0  0  0  0  0
  -27.9510  -12.4040   18.5300 C   0  0  0  0  0  2  0  0  0  0  0  0
  -27.6160  -13.2470   19.7900 C   0  0  0  0  0  3  0  0  0  0  0  0
  -28.6850  -13.0520   20.8920 C   0  0  0  0  0  2  0  0  0  0  0  0
  -29.9990  -13.3590   20.3050 N   0  0  0  0  0  0  0  0  0  0  0  0
  -31.7990  -14.7100   19.9620 O   0  0  0  0  0  0  0  0  0  0  0  0
  -29.8650  -15.6300   20.6340 N   0  0  0  0  0  0  0  0  0  0  0  0
  -28.9510  -15.4080   20.9970 H   0  0  0  0  0  0  0  0  0  0  0  0
  -25.2170  -13.8500   20.4960 C   0  0  0  0  0  0  0  0  0  0  0  0
  -24.1490  -13.0750   20.8650 C   0  0  0  0  0  0  0  0  0  0  0  0
  -24.6130  -11.7240   20.8430 C   0  0  0  0  0  0  0  0  0  0  0  0
  -26.2660  -12.9680   20.2760 N   0  0  0  0  0  0  0  0  0  0  0  0
  -25.9060  -11.6860   20.5400 N   0  0  0  0  0  0  0  0  0  0  0  0
  -23.8900  -10.4620   21.0420 C   0  0  0  0  0  0  0  0  0  0  0  0
  -24.3320   -9.4940   21.9690 C   0  0  0  0  0  3  0  0  0  0  0  0
  -23.6080   -8.2970   22.1540 C   0  0  0  0  0  3  0  0  0  0  0  0
  -22.4290   -8.0580   21.4110 C   0  0  0  0  0  0  0  0  0  0  0  0
  -22.0040   -9.0140   20.4720 C   0  0  0  0  0  3  0  0  0  0  0  0
  -22.7280  -10.2040   20.2860 C   0  0  0  0  0  3  0  0  0  0  0  0
  -21.6750   -6.9130   21.5070 O   0  0  0  0  0  0  0  0  0  0  0  0
  -21.6490   -6.1620   22.6550 C   0  0  0  0  0  0  0  0  0  0  0  0
  -21.2560   -6.7090   23.8940 C   0  0  0  0  0  3  0  0  0  0  0  0
  -21.1760   -5.8860   25.0350 C   0  0  0  0  0  3  0  0  0  0  0  0
  -21.4820   -4.5140   24.9370 C   0  0  0  0  0  0  0  0  0  0  0  0
  -21.8680   -3.9660   23.7000 C   0  0  0  0  0  3  0  0  0  0  0  0
  -21.9490   -4.7870   22.5630 C   0  0  0  0  0  0  0  0  0  0  0  0
  -22.3020   -4.2500   21.3690 F   0  0  0  0  0  0  0  0  0  0  0  0
  -21.3970   -3.7190   26.0300 F   0  0  0  0  0  0  0  0  0  0  0  0
  -22.7500  -13.5480   21.1340 C   0  0  0  0  0  0  0  0  0  0  0  0
  -22.0270  -12.8570   22.0060 N   0  0  0  0  0  0  0  0  0  0  0  0
  -22.3080  -14.5690   20.6060 O   0  0  0  0  0  0  0  0  0  0  0  0
  -22.3950  -12.0300   22.4540 H   0  0  0  0  0  0  0  0  0  0  0  0
  -21.0880  -13.1570   22.2300 H   0  0  0  0  0  0  0  0  0  0  0  0
  -25.3710  -15.2180   20.3050 N   0  0  0  0  0  0  0  0  0  0  0  0
  -24.5950  -15.8630   20.3940 H   0  0  0  0  0  0  0  0  0  0  0  0
  -26.2150  -15.6640   19.9650 H   0  0  0  0  0  0  0  0  0  0  0  0
  1  6  1  0
  2  6  2  0
  3  1  2  0
  4  5  2  0
  4  3  1  0
  5  2  1  0
  6 57  1  0
  7  4  1  0
  8  3  1  0
  9  7  1  0
 10 11  1  0
 11  9  1  0
 11  8  1  0
 11 12  1  6
 14 13  1  0
 14  5  1  0
 14 15  1  0
 16 18  1  0
 16 15  1  0
 17 28  2  0
 18 23  1  0
 19 27  1  0
 19 29  1  0
 20 26  1  0
 20 22  1  0
 21 27  1  0
 22 21  1  0
 23 22  2  0
 24 18  2  0
 25 24  1  0
 25 20  2  0
 26 19  1  0
 27 17  1  0
 29 31  2  0
 30 29  1  0
 32 30  1  0
 33 42  2  0
 33 38  1  0
 34 30  1  0
 34 38  1  0
 35 34  1  0
 36 37  1  0
 36 35  1  0
 37 33  1  0
 38 39  2  0
 39 40  1  0
 41 40  2  0
 42 41  1  0
 43 17  1  0
 43 44  1  0
 43 53  1  0
 44 47  1  0
 45 49  1  0
 45 44  1  0
 46 45  2  0
 49 48  1  0
 51 49  1  0
 51 52  1  0
 51 50  1  0
 53 56  1  1
 53 54  1  0
 55 53  1  0
 57 58  1  0
 59 68  1  0
 59 58  1  0
 60 68  1  0
 61 66  1  0
 62 63  1  0
 62 61  1  0
 64 63  1  0
 64 73  1  0
 64 65  1  0
 66 60  1  0
 66 65  1  0
 67 60  2  0
 68 69  1  0
 70 71  2  0
 71 90  1  0
 72 71  1  0
 72 75  1  0
 73 70  1  0
 73 74  1  0
 74 72  2  0
 75 76  1  0
 76 77  2  0
 78 81  1  0
 78 77  1  0
 79 78  2  0
 80 79  1  0
 80 75  2  0
 81 82  1  0
 82 83  1  0
 83 84  2  0
 85 84  1  0
 85 89  1  0
 86 85  2  0
 87 82  2  0
 87 86  1  0
 88 87  1  0
 90 91  1  0
 91 94  1  0
 91 93  1  0
 92 90  2  0
 95 96  1  0
 95 70  1  0
 97 95  1  0
M  ISO  4  15 101  16 101  60 100  68 100
M  END
>  <TORSDO>  (53) 
F 21

>  <SCORE>  (53) 
-13.503

>  <name>  (53) 
52

>  <ligand_id>  (53) 
52

>  <original_smiles>  (53) 
[H]c1c([H])c([H])c2c(c1[H])C([H])([H])C([H])([H])C([H])([H])C2([H])N([H])C(=O)C1([H])N(C(=O)C([H])(N([H])C(=O)C([H])(N([H])C([H])([H])[H])C([H])([H])[H])C(C([H])([H])[H])(C([H])([H])[H])C([H])([H])[H])C([H])([H])c2c([H])c(OC([H])([H])C([H])(c3c([H])c(OC([H])([H])C([H])([H])N([H])C(=O)N4C([H])([H])C([H])([H])C([H])([H])C([H])(n5nc(-c6c([H])c([H])c(Oc7c([H])c([H])c(F)c([H])c7F)c([H])c6[H])c(C(=O)N([H])[H])c5N([H])[H])C4([H])[H])c([H])c4c3C([H])([H])C([H])([H])[N+]([H])(C([H])([H])[H])C4([H])[H])C([H])([H])[H])c([H])c([H])c2C1([H])[H]

>  <smiles>  (53) 
[H]c1c([H])c([H])c2c(c1[H])C([H])([H])C([H])([H])C([H])([H])C2([H])N([H])C(=O)C1([H])N(C(=O)C([H])(N([H])C(=O)C([H])(N([H])C([H])([H])[H])C([H])([H])[H])C(C([H])([H])[H])(C([H])([H])[H])C([H])([H])[H])C([H])([H])c2c([H])c(OC([H])([H])C([H])(c3c([H])c(OC([H])([H])C([H])([H])N([H])C(=O)N4C([H])([H])C([H])([H])C([H])([H])C([H])(n5nc(-c6c([H])c([H])c(Oc7c([H])c([H])c(F)c([H])c7F)c([H])c6[H])c(C(=O)N([H])[H])c5N([H])[H])C4([H])[H])c([H])c4c3C([H])([H])C([H])([H])[N+]([H])(C([H])([H])[H])C4([H])[H])C([H])([H])[H])c([H])c([H])c2C1([H])[H]

$$$$
53:0:0
     RDKit          3D

 94103  0  0  1  0  0  0  0  0999 V2000
  -28.8440  -23.0380   19.4620 C   0  0  0  0  0  3  0  0  0  0  0  0
  -29.4290  -21.3040   21.5430 C   0  0  0  0  0  3  0  0  0  0  0  0
  -29.0290  -21.6160   19.2270 C   0  0  0  0  0  0  0  0  0  0  0  0
  -28.9230  -23.6610   20.7440 C   0  0  0  0  0  0  0  0  0  0  0  0
  -29.3460  -20.6660   20.2690 C   0  0  0  0  0  0  0  0  0  0  0  0
  -29.2170  -22.7120   21.7860 C   0  0  0  0  0  0  0  0  0  0  0  0
  -28.8160  -21.1470   17.7990 C   0  0  0  0  0  1  0  0  0  0  0  0
  -30.8090  -14.8660   19.9390 C   0  0  0  0  0  0  0  0  0  0  0  0
  -30.5290  -12.5730   18.9560 C   0  0  0  0  0  2  0  0  0  0  0  0
  -29.5360  -12.6220   17.7760 C   0  0  0  0  0  2  0  0  0  0  0  0
  -28.0920  -12.4430   18.2850 C   0  0  0  0  0  2  0  0  0  0  0  0
  -27.7780  -13.3330   19.5180 C   0  0  0  0  0  3  0  0  0  0  0  0
  -28.8950  -13.2840   20.5800 C   0  0  0  0  0  2  0  0  0  0  0  0
  -30.1430  -13.6530   19.9030 N   0  0  0  0  0  0  0  0  0  0  0  0
  -31.9890  -14.8750   19.5640 O   0  0  0  0  0  0  0  0  0  0  0  0
  -30.5220  -18.6110   19.2180 C   0  0  0  0  0  2  0  0  0  0  0  0
  -29.3910  -18.2750   21.2730 C   0  0  0  0  0  2  0  0  0  0  0  0
  -30.2540  -17.0980   18.8180 C   0  0  0  0  0  2  0  0  0  0  0  0
  -29.2410  -16.7040   20.9720 C   0  0  0  0  0  2  0  0  0  0  0  0
  -29.5070  -19.2030   20.1150 N   0  0  0  0  0  0  0  0  0  0  0  0
  -30.0970  -16.0860   19.9130 N   0  0  0  0  0  0  0  0  0  0  0  0
  -25.4510  -13.9170   20.4070 C   0  0  0  0  0  0  0  0  0  0  0  0
  -24.4020  -13.1440   20.8200 C   0  0  0  0  0  0  0  0  0  0  0  0
  -24.8470  -11.7900   20.7250 C   0  0  0  0  0  0  0  0  0  0  0  0
  -26.4670  -13.0370   20.0840 N   0  0  0  0  0  0  0  0  0  0  0  0
  -26.1170  -11.7480   20.3380 N   0  0  0  0  0  0  0  0  0  0  0  0
  -24.1170  -10.5300   20.9250 C   0  0  0  0  0  0  0  0  0  0  0  0
  -24.5620   -9.5550   21.8440 C   0  0  0  0  0  3  0  0  0  0  0  0
  -23.8310   -8.3610   22.0310 C   0  0  0  0  0  3  0  0  0  0  0  0
  -22.6410   -8.1340   21.3000 C   0  0  0  0  0  0  0  0  0  0  0  0
  -22.2140   -9.0980   20.3700 C   0  0  0  0  0  3  0  0  0  0  0  0
  -22.9470  -10.2830   20.1810 C   0  0  0  0  0  3  0  0  0  0  0  0
  -21.8790   -6.9960   21.4010 O   0  0  0  0  0  0  0  0  0  0  0  0
  -21.8120   -6.2740   22.5660 C   0  0  0  0  0  0  0  0  0  0  0  0
  -21.3690   -6.8510   23.7760 C   0  0  0  0  0  3  0  0  0  0  0  0
  -21.2480   -6.0550   24.9320 C   0  0  0  0  0  3  0  0  0  0  0  0
  -21.5590   -4.6840   24.8810 C   0  0  0  0  0  0  0  0  0  0  0  0
  -21.9940   -4.1060   23.6760 C   0  0  0  0  0  3  0  0  0  0  0  0
  -22.1180   -4.8990   22.5200 C   0  0  0  0  0  0  0  0  0  0  0  0
  -22.5180   -4.3300   21.3580 F   0  0  0  0  0  0  0  0  0  0  0  0
  -21.4360   -3.9190   25.9900 F   0  0  0  0  0  0  0  0  0  0  0  0
  -23.0290  -13.6300   21.1820 C   0  0  0  0  0  0  0  0  0  0  0  0
  -22.3450  -12.9250   22.0750 N   0  0  0  0  0  0  0  0  0  0  0  0
  -22.5750  -14.6710   20.7090 O   0  0  0  0  0  0  0  0  0  0  0  0
  -22.7280  -12.0830   22.4780 H   0  0  0  0  0  0  0  0  0  0  0  0
  -21.4260  -13.2330   22.3610 H   0  0  0  0  0  0  0  0  0  0  0  0
  -25.6210  -15.2900   20.2520 N   0  0  0  0  0  0  0  0  0  0  0  0
  -24.8630  -15.9430   20.4120 H   0  0  0  0  0  0  0  0  0  0  0  0
  -26.4480  -15.7240   19.8630 H   0  0  0  0  0  0  0  0  0  0  0  0
  -29.6120  -25.7890   22.1470 C   0  0  0  0  0  1  0  0  0  0  0  0
  -28.6400  -25.2370   21.0810 C   0  0  0  0  0  3  0  0  0  0  0  0
  -28.6690  -26.3700   20.0940 O   0  0  0  0  0  0  0  0  0  0  0  0
  -24.7550  -31.7220   23.1760 C   0  0  0  0  0  0  0  0  0  0  0  0
  -27.5740  -27.2690   20.1000 C   0  0  0  0  0  0  0  0  0  0  0  0
  -23.6320  -30.3060   21.4940 C   0  0  0  0  0  3  0  0  0  0  0  0
  -25.1650  -28.8290   20.0670 C   0  0  0  0  0  0  0  0  0  0  0  0
  -26.1630  -30.7160   21.3560 C   0  0  0  0  0  2  0  0  0  0  0  0
  -26.3090  -29.3450   20.6910 C   0  0  0  0  0  0  0  0  0  0  0  0
  -27.5210  -28.5790   20.6940 C   0  0  0  0  0  3  0  0  0  0  0  0
  -26.4080  -26.8210   19.4520 C   0  0  0  0  0  3  0  0  0  0  0  0
  -25.2180  -27.5750   19.4380 C   0  0  0  0  0  3  0  0  0  0  0  0
  -23.8970  -29.6630   20.1070 C   0  0  0  0  0  2  0  0  0  0  0  0
  -24.8680  -30.9340   22.0660 N   0  0  0  0  0  0  0  0  0  0  0  0
  -23.6530  -31.9460   23.6980 O   0  0  0  0  0  0  0  0  0  0  0  0
  -22.9920  -29.2490   22.4290 C   0  0  0  0  0  0  0  0  0  0  0  0
  -21.6740  -29.0240   22.2840 N   0  0  0  0  0  0  0  0  0  0  0  0
  -23.6840  -28.6360   23.2460 O   0  0  0  0  0  0  0  0  0  0  0  0
  -21.1740  -29.5720   21.5980 H   0  0  0  0  0  0  0  0  0  0  0  0
  -18.3430  -27.6700   22.7070 C   0  0  0  0  0  0  0  0  0  0  0  0
  -20.8840  -28.0430   23.0280 C   0  0  0  0  0  3  0  0  0  0  0  0
  -21.0600  -26.6240   22.4420 C   0  0  0  0  0  2  0  0  0  0  0  0
  -19.9940  -26.2630   21.4020 C   0  0  0  0  0  2  0  0  0  0  0  0
  -18.5950  -26.3380   22.0200 C   0  0  0  0  0  2  0  0  0  0  0  0
  -19.4200  -28.4770   23.1680 C   0  0  0  0  0  0  0  0  0  0  0  0
  -19.1320  -29.7190   23.7730 C   0  0  0  0  0  3  0  0  0  0  0  0
  -17.8030  -30.1580   23.9190 C   0  0  0  0  0  3  0  0  0  0  0  0
  -16.7420  -29.3510   23.4730 C   0  0  0  0  0  3  0  0  0  0  0  0
  -17.0140  -28.1090   22.8740 C   0  0  0  0  0  3  0  0  0  0  0  0
  -25.9990  -32.3950   23.8290 C   0  0  0  0  0  3  0  0  0  0  0  0
  -25.6340  -33.7820   24.1570 N   0  0  0  0  0  0  0  0  0  0  0  0
  -25.9420  -34.8500   23.4100 C   0  0  0  0  0  0  0  0  0  0  0  0
  -26.6320  -34.7750   22.3900 O   0  0  0  0  0  0  0  0  0  0  0  0
  -25.0160  -33.9100   24.9460 H   0  0  0  0  0  0  0  0  0  0  0  0
  -24.1560  -36.5830   23.0380 C   0  0  0  0  0  1  0  0  0  0  0  0
  -25.3990  -36.2170   23.8650 C   0  0  0  0  0  3  0  0  0  0  0  0
  -27.4920  -37.1710   24.7290 C   0  0  0  0  0  1  0  0  0  0  0  0
  -26.3940  -37.3090   23.7720 N   0  0  0  0  0  0  0  0  0  0  0  0
  -25.9530  -38.2120   23.9240 H   0  0  0  0  0  0  0  0  0  0  0  0
  -26.5110  -31.6390   25.1170 C   0  0  1  0  0  0  0  0  0  0  0  0
  -25.4030  -31.3690   26.1600 C   0  0  0  0  0  1  0  0  0  0  0  0
  -27.1420  -30.2780   24.7370 C   0  0  0  0  0  1  0  0  0  0  0  0
  -27.6240  -32.4660   25.8030 C   0  0  0  0  0  1  0  0  0  0  0  0
  -30.1880  -22.6330   23.9830 C   0  0  0  0  0  1  0  0  0  0  0  0
  -29.2320  -23.1820   23.0800 O   0  0  0  0  0  0  0  0  0  0  0  0
  1  4  1  0
  2  6  1  0
  3  1  2  0
  3  5  1  0
  4 51  1  0
  4  6  2  0
  5  2  2  0
  6 94  1  0
  7  3  1  0
  9 14  1  0
 10 11  1  0
 10  9  1  0
 12 11  1  0
 12 25  1  0
 12 13  1  0
 14  8  1  0
 14 13  1  0
 15  8  2  0
 16 20  1  0
 18 16  1  0
 18 21  1  0
 19 17  1  0
 20  5  1  0
 20 17  1  0
 21  8  1  0
 21 19  1  0
 22 23  2  0
 23 42  1  0
 24 23  1  0
 24 27  1  0
 25 26  1  0
 25 22  1  0
 26 24  2  0
 27 28  1  0
 28 29  2  0
 30 33  1  0
 30 29  1  0
 31 30  2  0
 32 31  1  0
 32 27  2  0
 33 34  1  0
 34 35  1  0
 35 36  2  0
 37 36  1  0
 37 41  1  0
 38 37  2  0
 39 34  2  0
 39 38  1  0
 40 39  1  0
 42 43  1  0
 43 46  1  0
 43 45  1  0
 44 42  2  0
 47 22  1  0
 47 48  1  0
 49 47  1  0
 51 50  1  0
 52 54  1  0
 52 51  1  0
 53 64  2  0
 54 59  1  0
 55 63  1  0
 55 65  1  0
 56 62  1  0
 56 58  1  0
 57 63  1  0
 58 59  2  0
 58 57  1  0
 60 54  2  0
 61 60  1  0
 61 56  2  0
 62 55  1  0
 63 53  1  0
 65 67  2  0
 66 65  1  0
 68 66  1  0
 69 78  2  0
 69 74  1  0
 70 66  1  0
 70 74  1  0
 71 70  1  0
 72 73  1  0
 72 71  1  0
 73 69  1  0
 74 75  2  0
 75 76  1  0
 77 76  2  0
 78 77  1  0
 79 53  1  0
 79 80  1  0
 79 89  1  0
 80 83  1  0
 81 85  1  0
 81 80  1  0
 82 81  2  0
 85 84  1  0
 87 85  1  0
 87 88  1  0
 87 86  1  0
 89 92  1  1
 89 90  1  0
 91 89  1  0
 94 93  1  0
M  ISO  4   8 100  21 100  51 101  52 101
M  END
>  <TORSDO>  (54) 
F 18

>  <SCORE>  (54) 
-14.252

>  <name>  (54) 
53

>  <ligand_id>  (54) 
53

>  <original_smiles>  (54) 
[H]c1c([H])c([H])c2c(c1[H])C([H])([H])C([H])([H])C([H])([H])C2([H])N([H])C(=O)C1([H])N(C(=O)C([H])(N([H])C(=O)C([H])(N([H])C([H])([H])[H])C([H])([H])[H])C(C([H])([H])[H])(C([H])([H])[H])C([H])([H])[H])C([H])([H])c2c([H])c(OC([H])(c3c([H])c(C([H])([H])[H])c(N4C([H])([H])C([H])([H])N(C(=O)N5C([H])([H])C([H])([H])C([H])([H])C([H])(n6nc(-c7c([H])c([H])c(Oc8c([H])c([H])c(F)c([H])c8F)c([H])c7[H])c(C(=O)N([H])[H])c6N([H])[H])C5([H])[H])C([H])([H])C4([H])[H])c([H])c3OC([H])([H])[H])C([H])([H])[H])c([H])c([H])c2C1([H])[H]

>  <smiles>  (54) 
[H]c1c([H])c([H])c2c(c1[H])C([H])([H])C([H])([H])C([H])([H])C2([H])N([H])C(=O)C1([H])N(C(=O)C([H])(N([H])C(=O)C([H])(N([H])C([H])([H])[H])C([H])([H])[H])C(C([H])([H])[H])(C([H])([H])[H])C([H])([H])[H])C([H])([H])c2c([H])c(OC([H])(c3c([H])c(C([H])([H])[H])c(N4C([H])([H])C([H])([H])N(C(=O)N5C([H])([H])C([H])([H])C([H])([H])C([H])(n6nc(-c7c([H])c([H])c(Oc8c([H])c([H])c(F)c([H])c8F)c([H])c7[H])c(C(=O)N([H])[H])c6N([H])[H])C5([H])[H])C([H])([H])C4([H])[H])c([H])c3OC([H])([H])[H])C([H])([H])[H])c([H])c([H])c2C1([H])[H]

$$$$
54:0:0
     RDKit          3D

 97106  0  0  1  0  0  0  0  0999 V2000
  -30.5920  -18.1820   19.5270 C   0  0  0  0  0  3  0  0  0  0  0  0
  -30.4960  -19.4800   18.9750 C   0  0  0  0  0  3  0  0  0  0  0  0
  -29.5030  -17.6530   20.2560 C   0  0  0  0  0  0  0  0  0  0  0  0
  -29.3140  -20.2330   19.1500 C   0  0  0  0  0  0  0  0  0  0  0  0
  -28.3680  -18.4970   20.3770 C   0  0  0  0  0  0  0  0  0  0  0  0
  -28.2660  -19.7350   19.8480 N   0  0  0  0  0  0  0  0  0  0  0  0
  -30.7870  -14.4000   19.5420 C   0  0  0  0  0  0  0  0  0  0  0  0
  -30.2550  -12.2930   18.3470 C   0  0  0  0  0  2  0  0  0  0  0  0
  -29.1560  -12.5230   17.2930 C   0  0  0  0  0  2  0  0  0  0  0  0
  -27.7560  -12.3940   17.9250 C   0  0  0  0  0  2  0  0  0  0  0  0
  -27.6170  -13.2100   19.2370 C   0  0  0  0  0  3  0  0  0  0  0  0
  -28.8100  -12.9470   20.1790 C   0  0  0  0  0  2  0  0  0  0  0  0
  -30.0470  -13.2560   19.4420 N   0  0  0  0  0  0  0  0  0  0  0  0
  -31.7720  -14.6090   18.8280 O   0  0  0  0  0  0  0  0  0  0  0  0
  -30.2410  -16.2370   22.3000 C   0  0  0  0  0  2  0  0  0  0  0  0
  -31.4860  -15.7850   21.5380 C   0  0  0  0  0  2  0  0  0  0  0  0
  -29.5300  -16.2530   20.9420 C   0  0  0  0  0  3  0  0  0  0  0  0
  -30.5320  -15.2010   20.6030 N   0  0  0  0  0  0  0  0  0  0  0  0
  -25.3770  -13.8470   20.3290 C   0  0  0  0  0  0  0  0  0  0  0  0
  -24.3430  -13.0880   20.8070 C   0  0  0  0  0  0  0  0  0  0  0  0
  -24.7380  -11.7260   20.6300 C   0  0  0  0  0  0  0  0  0  0  0  0
  -26.3390  -12.9490   19.8950 N   0  0  0  0  0  0  0  0  0  0  0  0
  -25.9670  -11.6640   20.1320 N   0  0  0  0  0  0  0  0  0  0  0  0
  -23.9950  -10.4790   20.8530 C   0  0  0  0  0  0  0  0  0  0  0  0
  -24.4790   -9.4760   21.7230 C   0  0  0  0  0  3  0  0  0  0  0  0
  -23.7380   -8.2940   21.9360 C   0  0  0  0  0  3  0  0  0  0  0  0
  -22.4970   -8.1070   21.2810 C   0  0  0  0  0  0  0  0  0  0  0  0
  -22.0310   -9.0980   20.3990 C   0  0  0  0  0  3  0  0  0  0  0  0
  -22.7730  -10.2720   20.1840 C   0  0  0  0  0  3  0  0  0  0  0  0
  -21.7210   -6.9800   21.4060 O   0  0  0  0  0  0  0  0  0  0  0  0
  -21.6990   -6.2470   22.5660 C   0  0  0  0  0  0  0  0  0  0  0  0
  -21.3240   -6.8200   23.8020 C   0  0  0  0  0  3  0  0  0  0  0  0
  -21.2470   -6.0150   24.9560 C   0  0  0  0  0  3  0  0  0  0  0  0
  -21.5330   -4.6390   24.8770 C   0  0  0  0  0  0  0  0  0  0  0  0
  -21.9000   -4.0670   23.6460 C   0  0  0  0  0  3  0  0  0  0  0  0
  -21.9790   -4.8680   22.4940 C   0  0  0  0  0  0  0  0  0  0  0  0
  -22.3130   -4.3070   21.3070 F   0  0  0  0  0  0  0  0  0  0  0  0
  -21.4520   -3.8640   25.9830 F   0  0  0  0  0  0  0  0  0  0  0  0
  -23.0220  -13.5930   21.3090 C   0  0  0  0  0  0  0  0  0  0  0  0
  -22.4170  -12.8890   22.2600 N   0  0  0  0  0  0  0  0  0  0  0  0
  -22.5400  -14.6460   20.8930 O   0  0  0  0  0  0  0  0  0  0  0  0
  -22.8220  -12.0380   22.6180 H   0  0  0  0  0  0  0  0  0  0  0  0
  -21.5360  -13.2100   22.6370 H   0  0  0  0  0  0  0  0  0  0  0  0
  -25.5720  -15.2200   20.2080 N   0  0  0  0  0  0  0  0  0  0  0  0
  -24.8660  -15.8910   20.4890 H   0  0  0  0  0  0  0  0  0  0  0  0
  -26.3880  -15.6540   19.7970 H   0  0  0  0  0  0  0  0  0  0  0  0
  -27.2430  -18.1060   21.0830 N   0  0  0  0  0  0  0  0  0  0  0  0
  -27.3100  -17.3310   21.7290 H   0  0  0  0  0  0  0  0  0  0  0  0
  -26.5700  -18.8130   21.3490 H   0  0  0  0  0  0  0  0  0  0  0  0
  -28.3540  -21.3830   17.1340 C   0  0  0  0  0  1  0  0  0  0  0  0
  -29.1190  -21.5990   18.4540 C   0  0  0  0  0  3  0  0  0  0  0  0
  -28.4540  -22.6190   19.3230 N   0  0  0  0  0  4  0  0  0  0  0  0
  -27.5220  -22.2750   19.5020 H   0  0  0  0  0  0  0  0  0  0  0  0
  -28.9400  -22.5830   20.2040 H   0  0  0  0  0  0  0  0  0  0  0  0
  -28.4300  -24.0390   18.8120 C   0  0  0  0  0  2  0  0  0  0  0  0
  -27.9690  -25.1050   19.8550 C   0  0  0  0  0  2  0  0  0  0  0  0
  -28.0830  -26.4840   19.4040 O   0  0  0  0  0  0  0  0  0  0  0  0
  -24.5460  -31.5700   22.9800 C   0  0  0  0  0  0  0  0  0  0  0  0
  -26.9480  -27.2690   19.5000 C   0  0  0  0  0  0  0  0  0  0  0  0
  -23.2420  -30.3110   21.2990 C   0  0  0  0  0  3  0  0  0  0  0  0
  -24.5990  -28.8440   19.7110 C   0  0  0  0  0  0  0  0  0  0  0  0
  -25.7680  -30.6240   21.0200 C   0  0  0  0  0  2  0  0  0  0  0  0
  -25.7950  -29.2980   20.2810 C   0  0  0  0  0  0  0  0  0  0  0  0
  -26.9750  -28.5210   20.1660 C   0  0  0  0  0  3  0  0  0  0  0  0
  -25.7360  -26.8420   18.9180 C   0  0  0  0  0  3  0  0  0  0  0  0
  -24.5660  -27.6180   19.0230 C   0  0  0  0  0  3  0  0  0  0  0  0
  -23.3800  -29.7250   19.8690 C   0  0  0  0  0  2  0  0  0  0  0  0
  -24.5400  -30.8460   21.8240 N   0  0  0  0  0  0  0  0  0  0  0  0
  -23.4940  -31.8270   23.5820 O   0  0  0  0  0  0  0  0  0  0  0  0
  -22.6050  -29.2410   22.2150 C   0  0  0  0  0  0  0  0  0  0  0  0
  -21.2730  -29.0920   22.1280 N   0  0  0  0  0  0  0  0  0  0  0  0
  -23.3050  -28.5480   22.9580 O   0  0  0  0  0  0  0  0  0  0  0  0
  -20.7680  -29.7050   21.5030 H   0  0  0  0  0  0  0  0  0  0  0  0
  -17.8960  -27.9180   22.6650 C   0  0  0  0  0  0  0  0  0  0  0  0
  -20.4660  -28.1190   22.8640 C   0  0  0  0  0  3  0  0  0  0  0  0
  -20.5240  -26.7260   22.1930 C   0  0  0  0  0  2  0  0  0  0  0  0
  -19.3830  -26.4870   21.1990 C   0  0  0  0  0  2  0  0  0  0  0  0
  -18.0270  -26.6120   21.8980 C   0  0  0  0  0  2  0  0  0  0  0  0
  -19.0420  -28.6330   23.1030 C   0  0  0  0  0  0  0  0  0  0  0  0
  -18.8660  -29.8600   23.7800 C   0  0  0  0  0  3  0  0  0  0  0  0
  -17.5770  -30.3700   24.0230 C   0  0  0  0  0  3  0  0  0  0  0  0
  -16.4460  -29.6500   23.6000 C   0  0  0  0  0  3  0  0  0  0  0  0
  -16.6070  -28.4260   22.9270 C   0  0  0  0  0  3  0  0  0  0  0  0
  -25.8700  -32.1310   23.5870 C   0  0  0  0  0  3  0  0  0  0  0  0
  -25.6060  -33.5070   24.0280 N   0  0  0  0  0  0  0  0  0  0  0  0
  -25.9350  -34.6060   23.3330 C   0  0  0  0  0  0  0  0  0  0  0  0
  -26.5620  -34.5620   22.2720 O   0  0  0  0  0  0  0  0  0  0  0  0
  -25.0470  -33.6160   24.8620 H   0  0  0  0  0  0  0  0  0  0  0  0
  -24.2300  -36.4480   23.1850 C   0  0  0  0  0  1  0  0  0  0  0  0
  -25.4970  -35.9650   23.9080 C   0  0  0  0  0  3  0  0  0  0  0  0
  -27.6830  -36.7550   24.7000 C   0  0  0  0  0  1  0  0  0  0  0  0
  -26.5450  -37.0060   23.8210 N   0  0  0  0  0  0  0  0  0  0  0  0
  -26.1650  -37.9210   24.0480 H   0  0  0  0  0  0  0  0  0  0  0  0
  -26.4250  -31.2600   24.7810 C   0  0  1  0  0  0  0  0  0  0  0  0
  -25.3770  -30.9730   25.8810 C   0  0  0  0  0  1  0  0  0  0  0  0
  -26.9510  -29.9000   24.2630 C   0  0  0  0  0  1  0  0  0  0  0  0
  -27.6250  -31.9790   25.4400 C   0  0  0  0  0  1  0  0  0  0  0  0
  1  3  1  0
  2  4  1  0
  2  1  2  0
  3  5  2  0
  4  6  2  0
  5 47  1  0
  6  5  1  0
  7 18  1  0
  8 13  1  0
  9 10  1  0
  9  8  1  0
 11 10  1  0
 11 22  1  0
 11 12  1  0
 13  7  1  0
 13 12  1  0
 14  7  2  0
 16 15  1  0
 17  3  1  0
 17 15  1  0
 18 17  1  0
 18 16  1  0
 19 20  2  0
 20 39  1  0
 21 20  1  0
 21 24  1  0
 22 23  1  0
 22 19  1  0
 23 21  2  0
 24 25  1  0
 25 26  2  0
 27 30  1  0
 27 26  1  0
 28 27  2  0
 29 28  1  0
 29 24  2  0
 30 31  1  0
 31 32  1  0
 32 33  2  0
 34 33  1  0
 34 38  1  0
 35 34  2  0
 36 31  2  0
 36 35  1  0
 37 36  1  0
 39 40  1  0
 40 42  1  0
 40 43  1  0
 41 39  2  0
 44 19  1  0
 44 45  1  0
 46 44  1  0
 47 49  1  0
 47 48  1  0
 51 50  1  0
 51  4  1  0
 51 52  1  0
 52 53  1  0
 52 54  1  0
 55 52  1  0
 55 56  1  0
 57 59  1  0
 57 56  1  0
 58 69  2  0
 59 64  1  0
 60 68  1  0
 60 70  1  0
 61 67  1  0
 61 63  1  0
 62 68  1  0
 63 62  1  0
 64 63  2  0
 65 66  1  0
 65 59  2  0
 66 61  2  0
 67 60  1  0
 68 58  1  0
 70 72  2  0
 71 70  1  0
 73 71  1  0
 74 83  2  0
 74 79  1  0
 75 71  1  0
 75 79  1  0
 76 75  1  0
 77 78  1  0
 77 76  1  0
 78 74  1  0
 79 80  2  0
 80 81  1  0
 82 81  2  0
 83 82  1  0
 84 58  1  0
 84 85  1  0
 84 94  1  0
 85 88  1  0
 86 90  1  0
 86 85  1  0
 87 86  2  0
 90 89  1  0
 92 90  1  0
 92 93  1  0
 92 91  1  0
 94 97  1  1
 94 95  1  0
 96 94  1  0
M  ISO  4   7 100  18 100  56 101  57 101
M  END
>  <TORSDO>  (55) 
F 21

>  <SCORE>  (55) 
-11.415

>  <name>  (55) 
54

>  <ligand_id>  (55) 
54

>  <original_smiles>  (55) 
[H]c1c(C([H])(C([H])([H])[H])[N+]([H])([H])C([H])([H])C([H])([H])Oc2c([H])c([H])c3c(c2[H])C([H])([H])N(C(=O)C([H])(N([H])C(=O)C([H])(N([H])C([H])([H])[H])C([H])([H])[H])C(C([H])([H])[H])(C([H])([H])[H])C([H])([H])[H])C([H])(C(=O)N([H])C2([H])c4c([H])c([H])c([H])c([H])c4C([H])([H])C([H])([H])C2([H])[H])C3([H])[H])nc(N([H])[H])c(C2([H])N(C(=O)N3C([H])([H])C([H])([H])C([H])([H])C([H])(n4nc(-c5c([H])c([H])c(Oc6c([H])c([H])c(F)c([H])c6F)c([H])c5[H])c(C(=O)N([H])[H])c4N([H])[H])C3([H])[H])C([H])([H])C2([H])[H])c1[H]

>  <smiles>  (55) 
[H]c1c(C([H])(C([H])([H])[H])[N+]([H])([H])C([H])([H])C([H])([H])Oc2c([H])c([H])c3c(c2[H])C([H])([H])N(C(=O)C([H])(N([H])C(=O)C([H])(N([H])C([H])([H])[H])C([H])([H])[H])C(C([H])([H])[H])(C([H])([H])[H])C([H])([H])[H])C([H])(C(=O)N([H])C2([H])c4c([H])c([H])c([H])c([H])c4C([H])([H])C([H])([H])C2([H])[H])C3([H])[H])nc(N([H])[H])c(C2([H])N(C(=O)N3C([H])([H])C([H])([H])C([H])([H])C([H])(n4nc(-c5c([H])c([H])c(Oc6c([H])c([H])c(F)c([H])c6F)c([H])c5[H])c(C(=O)N([H])[H])c4N([H])[H])C3([H])[H])C([H])([H])C2([H])[H])c1[H]

$$$$
55:0:0
     RDKit          3D

100110  0  0  1  0  0  0  0  0999 V2000
  -32.0570  -20.5790   16.7050 C   0  0  0  0  0  3  0  0  0  0  0  0
  -30.1320  -20.8710   18.7120 C   0  0  0  0  0  0  0  0  0  0  0  0
  -30.3740  -21.9260   17.8180 C   0  0  0  0  0  0  0  0  0  0  0  0
  -30.7840  -19.6130   18.5850 C   0  0  0  0  0  0  0  0  0  0  0  0
  -31.3310  -21.7860   16.7810 C   0  0  0  0  0  0  0  0  0  0  0  0
  -31.7740  -19.4860   17.5660 C   0  0  0  0  0  0  0  0  0  0  0  0
  -29.0220  -21.2190   19.6880 C   0  0  0  0  0  3  0  0  0  0  0  0
  -28.5560  -22.6270   19.2730 C   0  0  0  0  0  3  0  0  0  0  0  0
  -29.3400  -23.0350   18.0040 C   0  0  0  0  0  3  0  0  0  0  0  0
  -31.5800  -22.8280   15.7020 C   0  0  0  0  0  1  0  0  0  0  0  0
  -30.6800  -14.5390   20.4820 C   0  0  0  0  0  0  0  0  0  0  0  0
  -30.3630  -12.3380   19.4610 C   0  0  0  0  0  2  0  0  0  0  0  0
  -29.4400  -12.4740   18.2340 C   0  0  0  0  0  2  0  0  0  0  0  0
  -27.9550  -12.3670   18.6480 C   0  0  0  0  0  2  0  0  0  0  0  0
  -27.5820  -13.2380   19.8850 C   0  0  0  0  0  3  0  0  0  0  0  0
  -28.6450  -13.1250   21.0050 C   0  0  0  0  0  2  0  0  0  0  0  0
  -29.9690  -13.3800   20.4140 N   0  0  0  0  0  0  0  0  0  0  0  0
  -31.8890  -14.6010   20.2750 O   0  0  0  0  0  0  0  0  0  0  0  0
  -29.9520  -17.1780   18.5480 C   0  0  0  0  0  2  0  0  0  0  0  0
  -31.1610  -17.9280   20.5790 C   0  0  0  0  0  2  0  0  0  0  0  0
  -29.1980  -16.1330   19.3760 C   0  0  0  0  0  2  0  0  0  0  0  0
  -30.4220  -16.8170   21.3920 C   0  0  0  0  0  2  0  0  0  0  0  0
  -30.2850  -18.4020   19.4070 C   0  0  0  0  0  3  0  0  0  0  0  0
  -29.9620  -15.6870   20.5590 N   0  0  0  0  0  0  0  0  0  0  0  0
  -25.1970  -13.8730   20.5730 C   0  0  0  0  0  0  0  0  0  0  0  0
  -24.1150  -13.1120   20.9200 C   0  0  0  0  0  0  0  0  0  0  0  0
  -24.5650  -11.7570   20.9010 C   0  0  0  0  0  0  0  0  0  0  0  0
  -26.2340  -12.9780   20.3630 N   0  0  0  0  0  0  0  0  0  0  0  0
  -25.8610  -11.7010   20.6170 N   0  0  0  0  0  0  0  0  0  0  0  0
  -23.8340  -10.5020   21.0810 C   0  0  0  0  0  0  0  0  0  0  0  0
  -24.2570   -9.5270   22.0110 C   0  0  0  0  0  3  0  0  0  0  0  0
  -23.5240   -8.3330   22.1670 C   0  0  0  0  0  3  0  0  0  0  0  0
  -22.3580   -8.1060   21.3980 C   0  0  0  0  0  0  0  0  0  0  0  0
  -21.9610   -9.0680   20.4560 C   0  0  0  0  0  3  0  0  0  0  0  0
  -22.6920  -10.2570   20.2950 C   0  0  0  0  0  3  0  0  0  0  0  0
  -21.5920   -6.9690   21.4800 O   0  0  0  0  0  0  0  0  0  0  0  0
  -21.5350   -6.2200   22.6270 C   0  0  0  0  0  0  0  0  0  0  0  0
  -21.1020   -6.7670   23.8550 C   0  0  0  0  0  3  0  0  0  0  0  0
  -20.9950   -5.9440   24.9950 C   0  0  0  0  0  3  0  0  0  0  0  0
  -21.3050   -4.5740   24.9010 C   0  0  0  0  0  0  0  0  0  0  0  0
  -21.7270   -4.0230   23.6780 C   0  0  0  0  0  3  0  0  0  0  0  0
  -21.8410   -4.8460   22.5420 C   0  0  0  0  0  0  0  0  0  0  0  0
  -22.2290   -4.3110   21.3590 F   0  0  0  0  0  0  0  0  0  0  0  0
  -21.1900   -3.7760   25.9890 F   0  0  0  0  0  0  0  0  0  0  0  0
  -22.7180  -13.6010   21.1630 C   0  0  0  0  0  0  0  0  0  0  0  0
  -21.9610  -12.9140   22.0110 N   0  0  0  0  0  0  0  0  0  0  0  0
  -22.3090  -14.6340   20.6340 O   0  0  0  0  0  0  0  0  0  0  0  0
  -22.3030  -12.0800   22.4660 H   0  0  0  0  0  0  0  0  0  0  0  0
  -21.0150  -13.2210   22.1980 H   0  0  0  0  0  0  0  0  0  0  0  0
  -25.3770  -15.2390   20.3950 N   0  0  0  0  0  0  0  0  0  0  0  0
  -24.6110  -15.8970   20.4880 H   0  0  0  0  0  0  0  0  0  0  0  0
  -26.2480  -15.6770   20.1150 H   0  0  0  0  0  0  0  0  0  0  0  0
  -29.8310  -24.4250   18.1360 N   0  0  0  0  0  4  0  0  0  0  0  0
  -30.5770  -24.5880   17.4770 H   0  0  0  0  0  0  0  0  0  0  0  0
  -30.2210  -24.5430   19.0580 H   0  0  0  0  0  0  0  0  0  0  0  0
  -28.7430  -25.4220   17.9090 C   0  0  0  0  0  2  0  0  0  0  0  0
  -28.9560  -26.7800   18.6090 C   0  0  0  0  0  2  0  0  0  0  0  0
  -28.4660  -26.8140   19.9650 O   0  0  0  0  0  0  0  0  0  0  0  0
  -24.5980  -31.8990   23.2420 C   0  0  0  0  0  0  0  0  0  0  0  0
  -27.2700  -27.4830   20.1080 C   0  0  0  0  0  0  0  0  0  0  0  0
  -23.4000  -30.4820   21.6050 C   0  0  0  0  0  3  0  0  0  0  0  0
  -24.8560  -28.9470   20.1940 C   0  0  0  0  0  0  0  0  0  0  0  0
  -25.9200  -30.8520   21.4070 C   0  0  0  0  0  2  0  0  0  0  0  0
  -26.0140  -29.4790   20.7770 C   0  0  0  0  0  0  0  0  0  0  0  0
  -27.2240  -28.7440   20.7500 C   0  0  0  0  0  3  0  0  0  0  0  0
  -26.0830  -26.9490   19.5620 C   0  0  0  0  0  3  0  0  0  0  0  0
  -24.8820  -27.6750   19.6010 C   0  0  0  0  0  3  0  0  0  0  0  0
  -23.6020  -29.7870   20.2360 C   0  0  0  0  0  2  0  0  0  0  0  0
  -24.6570  -31.0920   22.1440 N   0  0  0  0  0  0  0  0  0  0  0  0
  -23.5120  -32.1670   23.7800 O   0  0  0  0  0  0  0  0  0  0  0  0
  -22.7490  -29.4680   22.5700 C   0  0  0  0  0  0  0  0  0  0  0  0
  -21.4270  -29.2860   22.4390 N   0  0  0  0  0  0  0  0  0  0  0  0
  -23.4300  -28.8410   23.3870 O   0  0  0  0  0  0  0  0  0  0  0  0
  -20.9440  -29.8310   21.7380 H   0  0  0  0  0  0  0  0  0  0  0  0
  -18.0500  -28.0840   22.9390 C   0  0  0  0  0  0  0  0  0  0  0  0
  -20.6080  -28.3470   23.2090 C   0  0  0  0  0  3  0  0  0  0  0  0
  -20.7150  -26.9160   22.6330 C   0  0  0  0  0  2  0  0  0  0  0  0
  -19.6120  -26.5880   21.6220 C   0  0  0  0  0  2  0  0  0  0  0  0
  -18.2300  -26.7360   22.2630 C   0  0  0  0  0  2  0  0  0  0  0  0
  -19.1670  -28.8470   23.3690 C   0  0  0  0  0  0  0  0  0  0  0  0
  -18.9410  -30.1120   23.9580 C   0  0  0  0  0  3  0  0  0  0  0  0
  -17.6360  -30.6140   24.1150 C   0  0  0  0  0  3  0  0  0  0  0  0
  -16.5340  -29.8440   23.7070 C   0  0  0  0  0  3  0  0  0  0  0  0
  -16.7420  -28.5790   23.1270 C   0  0  0  0  0  3  0  0  0  0  0  0
  -25.8790  -32.5380   23.8620 C   0  0  0  0  0  3  0  0  0  0  0  0
  -26.4000  -31.7790   25.1440 C   0  0  1  0  0  0  0  0  0  0  0  0
  -25.3060  -31.5460   26.2120 C   0  0  0  0  0  1  0  0  0  0  0  0
  -26.9820  -30.3980   24.7620 C   0  0  0  0  0  1  0  0  0  0  0  0
  -27.5480  -32.5870   25.8000 C   0  0  0  0  0  1  0  0  0  0  0  0
  -25.5720  -33.9400   24.1770 N   0  0  0  0  0  0  0  0  0  0  0  0
  -25.9070  -34.9840   23.4070 C   0  0  0  0  0  0  0  0  0  0  0  0
  -26.5870  -34.8720   22.3830 O   0  0  0  0  0  0  0  0  0  0  0  0
  -24.9850  -34.1150   24.9790 H   0  0  0  0  0  0  0  0  0  0  0  0
  -24.1910  -36.7760   23.0220 C   0  0  0  0  0  1  0  0  0  0  0  0
  -25.4220  -36.3770   23.8490 C   0  0  0  0  0  3  0  0  0  0  0  0
  -27.5500  -37.2570   24.7000 C   0  0  0  0  0  1  0  0  0  0  0  0
  -26.4600  -37.4250   23.7410 N   0  0  0  0  0  0  0  0  0  0  0  0
  -26.0570  -38.3490   23.8760 H   0  0  0  0  0  0  0  0  0  0  0  0
  -32.6830  -17.8660   16.0610 C   0  0  0  0  0  1  0  0  0  0  0  0
  -32.4270  -18.2860   17.4040 O   0  0  0  0  0  0  0  0  0  0  0  0
  1  5  2  0
  1  6  1  0
  2  7  1  0
  3  9  1  0
  3  2  2  0
  4  2  1  0
  5  3  1  0
  6  4  2  0
  8  7  2  0
  9 53  1  0
  9  8  1  0
 10  5  1  0
 11 24  1  0
 12 17  1  0
 13 14  1  0
 13 12  1  0
 15 14  1  0
 15 28  1  0
 15 16  1  0
 17 11  1  0
 17 16  1  0
 18 11  2  0
 19 21  1  0
 19 23  1  0
 20 22  1  0
 21 24  1  0
 23  4  1  0
 23 20  1  0
 24 22  1  0
 25 26  2  0
 26 45  1  0
 27 26  1  0
 27 30  1  0
 28 25  1  0
 28 29  1  0
 29 27  2  0
 30 31  1  0
 31 32  2  0
 33 36  1  0
 33 32  1  0
 34 33  2  0
 35 34  1  0
 35 30  2  0
 36 37  1  0
 37 38  1  0
 38 39  2  0
 40 39  1  0
 40 44  1  0
 41 40  2  0
 42 37  2  0
 42 41  1  0
 43 42  1  0
 45 46  1  0
 46 49  1  0
 46 48  1  0
 47 45  2  0
 50 51  1  0
 50 25  1  0
 52 50  1  0
 53 55  1  0
 54 53  1  0
 56 53  1  0
 56 57  1  0
 57 58  1  0
 58 60  1  0
 59 70  2  0
 60 65  1  0
 61 69  1  0
 61 71  1  0
 62 68  1  0
 62 64  1  0
 63 69  1  0
 64 63  1  0
 65 64  2  0
 66 67  1  0
 66 60  2  0
 67 62  2  0
 68 61  1  0
 69 59  1  0
 71 73  2  0
 72 71  1  0
 74 72  1  0
 75 84  2  0
 75 80  1  0
 76 72  1  0
 76 80  1  0
 77 76  1  0
 78 79  1  0
 78 77  1  0
 79 75  1  0
 80 81  2  0
 81 82  1  0
 83 82  2  0
 84 83  1  0
 85 59  1  0
 85 90  1  0
 85 86  1  0
 86 89  1  1
 86 87  1  0
 88 86  1  0
 90 93  1  0
 91 95  1  0
 91 90  1  0
 92 91  2  0
 95 94  1  0
 97 95  1  0
 97 98  1  0
 97 96  1  0
 99100  1  0
100  6  1  0
M  ISO  4  11 100  24 100  57 101  58 101
M  END
>  <TORSDO>  (56) 
F 20

>  <SCORE>  (56) 
-13.924

>  <name>  (56) 
55

>  <ligand_id>  (56) 
55

>  <original_smiles>  (56) 
[H]c1c([H])c([H])c2c(c1[H])C([H])([H])C([H])([H])C([H])([H])C2([H])N([H])C(=O)C1([H])N(C(=O)C([H])(N([H])C(=O)C([H])(N([H])C([H])([H])[H])C([H])([H])[H])C(C([H])([H])[H])(C([H])([H])[H])C([H])([H])[H])C([H])([H])c2c([H])c(OC([H])([H])C([H])([H])[N+]([H])([H])C3([H])c4c(C([H])([H])[H])c([H])c(OC([H])([H])[H])c(C5([H])C([H])([H])C([H])([H])N(C(=O)N6C([H])([H])C([H])([H])C([H])([H])C([H])(n7nc(-c8c([H])c([H])c(Oc9c([H])c([H])c(F)c([H])c9F)c([H])c8[H])c(C(=O)N([H])[H])c7N([H])[H])C6([H])[H])C([H])([H])C5([H])[H])c4C([H])([H])C3([H])[H])c([H])c([H])c2C1([H])[H]

>  <smiles>  (56) 
[H]c1c([H])c([H])c2c(c1[H])C([H])([H])C([H])([H])C([H])([H])C2([H])N([H])C(=O)C1([H])N(C(=O)C([H])(N([H])C(=O)C([H])(N([H])C([H])([H])[H])C([H])([H])[H])C(C([H])([H])[H])(C([H])([H])[H])C([H])([H])[H])C([H])([H])c2c([H])c(OC([H])([H])C([H])([H])[N+]([H])([H])C3([H])c4c(C([H])([H])[H])c([H])c(OC([H])([H])[H])c(C5([H])C([H])([H])C([H])([H])N(C(=O)N6C([H])([H])C([H])([H])C([H])([H])C([H])(n7nc(-c8c([H])c([H])c(Oc9c([H])c([H])c(F)c([H])c9F)c([H])c8[H])c(C(=O)N([H])[H])c7N([H])[H])C6([H])[H])C([H])([H])C5([H])[H])c4C([H])([H])C3([H])[H])c([H])c([H])c2C1([H])[H]

$$$$
56:0:0
     RDKit          3D

 97106  0  0  1  0  0  0  0  0999 V2000
  -30.3420  -19.1780   20.3100 C   0  0  0  0  0  3  0  0  0  0  0  0
  -28.4200  -17.7190   19.8380 C   0  0  0  0  0  3  0  0  0  0  0  0
  -29.4420  -20.2290   20.5100 C   0  0  0  0  0  0  0  0  0  0  0  0
  -28.0760  -20.0420   20.3970 C   0  0  0  0  0  0  0  0  0  0  0  0
  -29.8250  -17.9090   19.9680 C   0  0  0  0  0  0  0  0  0  0  0  0
  -27.5200  -18.7950   20.0660 C   0  0  0  0  0  0  0  0  0  0  0  0
  -29.7640  -21.6700   20.7770 C   0  0  0  0  0  2  0  0  0  0  0  0
  -27.3550  -21.3480   20.5870 C   0  0  0  0  0  2  0  0  0  0  0  0
  -28.4670  -22.3330   20.4700 N   0  0  1  0  0  4  0  0  0  0  0  0
  -28.5170  -22.4670   19.4720 H   0  0  0  0  0  0  0  0  0  0  0  0
  -30.9410  -16.5440   18.1800 C   0  0  0  0  0  1  0  0  0  0  0  0
  -30.8240  -16.8010   19.6980 C   0  0  0  0  0  3  0  0  0  0  0  0
  -31.2590  -14.4530   20.2110 C   0  0  0  0  0  0  0  0  0  0  0  0
  -30.8840  -12.2250   19.2860 C   0  0  0  0  0  2  0  0  0  0  0  0
  -29.9790  -12.3980   18.0490 C   0  0  0  0  0  2  0  0  0  0  0  0
  -28.4910  -12.3560   18.4520 C   0  0  0  0  0  2  0  0  0  0  0  0
  -28.1640  -13.2930   19.6480 C   0  0  0  0  0  3  0  0  0  0  0  0
  -29.1980  -13.1300   20.7900 C   0  0  0  0  0  2  0  0  0  0  0  0
  -30.5460  -13.3020   20.2240 N   0  0  0  0  0  0  0  0  0  0  0  0
  -32.4170  -14.5390   19.7900 O   0  0  0  0  0  0  0  0  0  0  0  0
  -30.5200  -15.5500   20.3860 N   0  0  0  0  0  0  0  0  0  0  0  0
  -29.5830  -15.4190   20.7330 H   0  0  0  0  0  0  0  0  0  0  0  0
  -25.8120  -14.0400   20.3840 C   0  0  0  0  0  0  0  0  0  0  0  0
  -24.6990  -13.3300   20.7470 C   0  0  0  0  0  0  0  0  0  0  0  0
  -25.0710  -11.9520   20.6820 C   0  0  0  0  0  0  0  0  0  0  0  0
  -26.7950  -13.0990   20.1270 N   0  0  0  0  0  0  0  0  0  0  0  0
  -26.3530  -11.8360   20.3630 N   0  0  0  0  0  0  0  0  0  0  0  0
  -24.2670  -10.7350   20.8520 C   0  0  0  0  0  0  0  0  0  0  0  0
  -24.6550   -9.7120   21.7440 C   0  0  0  0  0  3  0  0  0  0  0  0
  -23.8550   -8.5600   21.9040 C   0  0  0  0  0  3  0  0  0  0  0  0
  -22.6530   -8.4230   21.1710 C   0  0  0  0  0  0  0  0  0  0  0  0
  -22.2830   -9.4340   20.2670 C   0  0  0  0  0  3  0  0  0  0  0  0
  -23.0820  -10.5780   20.1050 C   0  0  0  0  0  3  0  0  0  0  0  0
  -21.8250   -7.3280   21.2420 O   0  0  0  0  0  0  0  0  0  0  0  0
  -21.7630   -6.5450   22.3670 C   0  0  0  0  0  0  0  0  0  0  0  0
  -21.4290   -7.0810   23.6300 C   0  0  0  0  0  3  0  0  0  0  0  0
  -21.3080   -6.2300   24.7470 C   0  0  0  0  0  3  0  0  0  0  0  0
  -21.5090   -4.8440   24.6020 C   0  0  0  0  0  0  0  0  0  0  0  0
  -21.8340   -4.3080   23.3440 C   0  0  0  0  0  3  0  0  0  0  0  0
  -21.9590   -5.1570   22.2300 C   0  0  0  0  0  0  0  0  0  0  0  0
  -22.2530   -4.6320   21.0150 F   0  0  0  0  0  0  0  0  0  0  0  0
  -21.3840   -4.0250   25.6720 F   0  0  0  0  0  0  0  0  0  0  0  0
  -23.3380  -13.8910   21.0420 C   0  0  0  0  0  0  0  0  0  0  0  0
  -22.5780  -13.2340   21.9110 N   0  0  0  0  0  0  0  0  0  0  0  0
  -22.9580  -14.9450   20.5350 O   0  0  0  0  0  0  0  0  0  0  0  0
  -22.8930  -12.3780   22.3440 H   0  0  0  0  0  0  0  0  0  0  0  0
  -21.6650  -13.5940   22.1480 H   0  0  0  0  0  0  0  0  0  0  0  0
  -26.0610  -15.4010   20.2340 N   0  0  0  0  0  0  0  0  0  0  0  0
  -25.3230  -16.0850   20.3480 H   0  0  0  0  0  0  0  0  0  0  0  0
  -26.9140  -15.7980   19.8620 H   0  0  0  0  0  0  0  0  0  0  0  0
  -28.7010  -23.8390   22.4980 C   0  0  0  0  0  1  0  0  0  0  0  0
  -28.2320  -23.6880   21.0350 C   0  0  0  0  0  3  0  0  0  0  0  0
  -28.8240  -24.7450   20.0830 C   0  0  0  0  0  2  0  0  0  0  0  0
  -28.6440  -26.2020   20.5190 C   0  0  0  0  0  2  0  0  0  0  0  0
  -28.2910  -26.9290   19.3470 O   0  0  0  0  0  0  0  0  0  0  0  0
  -24.4890  -31.6470   23.0230 C   0  0  0  0  0  0  0  0  0  0  0  0
  -27.1090  -27.6070   19.4670 C   0  0  0  0  0  0  0  0  0  0  0  0
  -23.2470  -30.3720   21.3010 C   0  0  0  0  0  3  0  0  0  0  0  0
  -24.6780  -29.0010   19.6960 C   0  0  0  0  0  0  0  0  0  0  0  0
  -25.7490  -30.8180   21.0450 C   0  0  0  0  0  2  0  0  0  0  0  0
  -25.8380  -29.5110   20.2920 C   0  0  0  0  0  0  0  0  0  0  0  0
  -27.0580  -28.8160   20.1850 C   0  0  0  0  0  3  0  0  0  0  0  0
  -25.9420  -27.0950   18.8660 C   0  0  0  0  0  3  0  0  0  0  0  0
  -24.7200  -27.7880   18.9840 C   0  0  0  0  0  3  0  0  0  0  0  0
  -23.4170  -29.8180   19.8600 C   0  0  0  0  0  2  0  0  0  0  0  0
  -24.5150  -30.9550   21.8510 N   0  0  0  0  0  0  0  0  0  0  0  0
  -23.4240  -31.8450   23.6250 O   0  0  0  0  0  0  0  0  0  0  0  0
  -22.6510  -29.2580   22.1890 C   0  0  0  0  0  0  0  0  0  0  0  0
  -21.3250  -29.0670   22.0970 N   0  0  0  0  0  0  0  0  0  0  0  0
  -23.3750  -28.5700   22.9140 O   0  0  0  0  0  0  0  0  0  0  0  0
  -20.8020  -29.6720   21.4760 H   0  0  0  0  0  0  0  0  0  0  0  0
  -17.9850  -27.7940   22.6150 C   0  0  0  0  0  0  0  0  0  0  0  0
  -20.5500  -28.0510   22.8080 C   0  0  0  0  0  3  0  0  0  0  0  0
  -20.6410  -26.6840   22.0940 C   0  0  0  0  0  2  0  0  0  0  0  0
  -19.5010  -26.4460   21.1010 C   0  0  0  0  0  2  0  0  0  0  0  0
  -18.1450  -26.5160   21.8090 C   0  0  0  0  0  2  0  0  0  0  0  0
  -19.1150  -28.5230   23.0710 C   0  0  0  0  0  0  0  0  0  0  0  0
  -18.9140  -29.7230   23.7860 C   0  0  0  0  0  3  0  0  0  0  0  0
  -17.6130  -30.1950   24.0490 C   0  0  0  0  0  3  0  0  0  0  0  0
  -16.4980  -29.4600   23.6110 C   0  0  0  0  0  3  0  0  0  0  0  0
  -16.6850  -28.2610   22.9020 C   0  0  0  0  0  3  0  0  0  0  0  0
  -25.7860  -32.2470   23.6510 C   0  0  0  0  0  3  0  0  0  0  0  0
  -25.4830  -33.6230   24.0620 N   0  0  0  0  0  0  0  0  0  0  0  0
  -25.8190  -34.7160   23.3630 C   0  0  0  0  0  0  0  0  0  0  0  0
  -26.4890  -34.6700   22.3270 O   0  0  0  0  0  0  0  0  0  0  0  0
  -24.8860  -33.7350   24.8690 H   0  0  0  0  0  0  0  0  0  0  0  0
  -24.0890  -36.5250   23.1200 C   0  0  0  0  0  1  0  0  0  0  0  0
  -25.3370  -36.0780   23.8990 C   0  0  0  0  0  3  0  0  0  0  0  0
  -27.4790  -36.9120   24.7600 C   0  0  0  0  0  1  0  0  0  0  0  0
  -26.3690  -37.1350   23.8370 N   0  0  0  0  0  0  0  0  0  0  0  0
  -25.9670  -38.0470   24.0410 H   0  0  0  0  0  0  0  0  0  0  0  0
  -26.3320  -31.4050   24.8690 C   0  0  1  0  0  0  0  0  0  0  0  0
  -25.2620  -31.1130   25.9460 C   0  0  0  0  0  1  0  0  0  0  0  0
  -26.9000  -30.0500   24.3850 C   0  0  0  0  0  1  0  0  0  0  0  0
  -27.5040  -32.1570   25.5430 C   0  0  0  0  0  1  0  0  0  0  0  0
  -25.5850  -17.5770   19.3410 C   0  0  0  0  0  1  0  0  0  0  0  0
  -26.1490  -18.7180   19.9730 O   0  0  0  0  0  0  0  0  0  0  0  0
  1  3  1  0
  2  5  1  0
  2  6  2  0
  3  7  1  0
  4  3  2  0
  4  8  1  0
  5  1  2  0
  6  4  1  0
  9  8  1  0
  9  7  1  0
  9 52  1  0
  9 10  1  6
 12 11  1  0
 12  5  1  0
 12 21  1  0
 13 19  1  0
 13 21  1  0
 14 19  1  0
 15 16  1  0
 15 14  1  0
 17 16  1  0
 17 26  1  0
 17 18  1  0
 19 18  1  0
 20 13  2  0
 21 22  1  0
 23 24  2  0
 24 43  1  0
 25 24  1  0
 25 28  1  0
 26 27  1  0
 26 23  1  0
 27 25  2  0
 28 29  1  0
 29 30  2  0
 31 34  1  0
 31 30  1  0
 32 31  2  0
 33 32  1  0
 33 28  2  0
 34 35  1  0
 35 36  1  0
 36 37  2  0
 38 37  1  0
 38 42  1  0
 39 38  2  0
 40 35  2  0
 40 39  1  0
 41 40  1  0
 43 44  1  0
 44 47  1  0
 44 46  1  0
 45 43  2  0
 48 49  1  0
 48 23  1  0
 50 48  1  0
 52 51  1  0
 53 54  1  0
 53 52  1  0
 55 57  1  0
 55 54  1  0
 56 67  2  0
 57 62  1  0
 58 66  1  0
 58 68  1  0
 59 65  1  0
 59 61  1  0
 60 66  1  0
 61 60  1  0
 62 61  2  0
 63 64  1  0
 63 57  2  0
 64 59  2  0
 65 58  1  0
 66 56  1  0
 68 70  2  0
 69 68  1  0
 71 69  1  0
 72 81  2  0
 72 77  1  0
 73 69  1  0
 73 77  1  0
 74 73  1  0
 75 76  1  0
 75 74  1  0
 76 72  1  0
 77 78  2  0
 78 79  1  0
 80 79  2  0
 81 80  1  0
 82 56  1  0
 82 83  1  0
 82 92  1  0
 83 86  1  0
 84 88  1  0
 84 83  1  0
 85 84  2  0
 88 87  1  0
 90 88  1  0
 90 91  1  0
 90 89  1  0
 92 95  1  1
 92 93  1  0
 94 92  1  0
 96 97  1  0
 97  6  1  0
M  ISO  4  13 100  21 100  54 101  55 101
M  END
>  <TORSDO>  (57) 
F 21

>  <SCORE>  (57) 
-11.449

>  <name>  (57) 
56

>  <ligand_id>  (57) 
56

>  <original_smiles>  (57) 
[H]c1c([H])c([H])c2c(c1[H])C([H])([H])C([H])([H])C([H])([H])C2([H])N([H])C(=O)C1([H])N(C(=O)C([H])(N([H])C(=O)C([H])(N([H])C([H])([H])[H])C([H])([H])[H])C(C([H])([H])[H])(C([H])([H])[H])C([H])([H])[H])C([H])([H])c2c([H])c(OC([H])([H])C([H])([H])C([H])(C([H])([H])[H])[N+]3([H])C([H])([H])c4c([H])c(C([H])(N([H])C(=O)N5C([H])([H])C([H])([H])C([H])([H])C([H])(n6nc(-c7c([H])c([H])c(Oc8c([H])c([H])c(F)c([H])c8F)c([H])c7[H])c(C(=O)N([H])[H])c6N([H])[H])C5([H])[H])C([H])([H])[H])c([H])c(OC([H])([H])[H])c4C3([H])[H])c([H])c([H])c2C1([H])[H]

>  <smiles>  (57) 
[H]c1c([H])c([H])c2c(c1[H])C([H])([H])C([H])([H])C([H])([H])C2([H])N([H])C(=O)C1([H])N(C(=O)C([H])(N([H])C(=O)C([H])(N([H])C([H])([H])[H])C([H])([H])[H])C(C([H])([H])[H])(C([H])([H])[H])C([H])([H])[H])C([H])([H])c2c([H])c(OC([H])([H])C([H])([H])C([H])(C([H])([H])[H])[N+]3([H])C([H])([H])c4c([H])c(C([H])(N([H])C(=O)N5C([H])([H])C([H])([H])C([H])([H])C([H])(n6nc(-c7c([H])c([H])c(Oc8c([H])c([H])c(F)c([H])c8F)c([H])c7[H])c(C(=O)N([H])[H])c6N([H])[H])C5([H])[H])C([H])([H])[H])c([H])c(OC([H])([H])[H])c4C3([H])[H])c([H])c([H])c2C1([H])[H]

$$$$
57:0:0
     RDKit          3D

 93103  0  0  1  0  0  0  0  0999 V2000
  -28.1480  -21.8490   19.9950 C   0  0  0  0  0  3  0  0  0  0  0  0
  -30.4640  -21.8800   20.5900 C   0  0  0  0  0  3  0  0  0  0  0  0
  -29.2850  -22.6160   20.3210 C   0  0  0  0  0  0  0  0  0  0  0  0
  -29.3690  -19.6760   20.2440 C   0  0  0  0  0  0  0  0  0  0  0  0
  -28.1780  -20.4240   19.9600 C   0  0  0  0  0  0  0  0  0  0  0  0
  -30.5220  -20.4570   20.5670 C   0  0  0  0  0  0  0  0  0  0  0  0
  -26.8630  -19.7260   19.6410 C   0  0  0  0  0  1  0  0  0  0  0  0
  -31.8520  -19.8200   20.9340 C   0  0  0  0  0  1  0  0  0  0  0  0
  -30.8720  -14.6630   19.7870 C   0  0  0  0  0  0  0  0  0  0  0  0
  -30.5260  -12.4900   18.6290 C   0  0  0  0  0  2  0  0  0  0  0  0
  -29.4300  -12.6610   17.5530 C   0  0  0  0  0  2  0  0  0  0  0  0
  -28.0220  -12.4720   18.1570 C   0  0  0  0  0  2  0  0  0  0  0  0
  -27.8290  -13.2600   19.4800 C   0  0  0  0  0  3  0  0  0  0  0  0
  -29.0230  -13.0120   20.4280 C   0  0  0  0  0  2  0  0  0  0  0  0
  -30.2330  -13.4480   19.7160 N   0  0  0  0  0  0  0  0  0  0  0  0
  -31.9570  -14.8210   19.2140 O   0  0  0  0  0  0  0  0  0  0  0  0
  -29.2750  -17.4780   21.6800 C   0  0  0  0  0  2  0  0  0  0  0  0
  -29.4120  -15.9640   21.4200 C   0  0  0  0  0  2  0  0  0  0  0  0
  -30.3460  -17.1450   19.5830 C   0  0  0  0  0  2  0  0  0  0  0  0
  -29.3230  -18.0930   20.2900 C   0  0  0  0  0  3  0  0  0  0  0  0
  -30.1420  -15.7770   20.1540 N   0  0  0  0  0  0  0  0  0  0  0  0
  -25.5590  -13.8100   20.5520 C   0  0  0  0  0  0  0  0  0  0  0  0
  -24.5400  -13.0130   20.9990 C   0  0  0  0  0  0  0  0  0  0  0  0
  -24.9740  -11.6680   20.7950 C   0  0  0  0  0  0  0  0  0  0  0  0
  -26.5510  -12.9480   20.1140 N   0  0  0  0  0  0  0  0  0  0  0  0
  -26.2100  -11.6490   20.3130 N   0  0  0  0  0  0  0  0  0  0  0  0
  -24.2630  -10.3960   20.9780 C   0  0  0  0  0  0  0  0  0  0  0  0
  -24.7340   -9.4070   21.8700 C   0  0  0  0  0  3  0  0  0  0  0  0
  -24.0230   -8.2010   22.0410 C   0  0  0  0  0  3  0  0  0  0  0  0
  -22.8260   -7.9740   21.3210 C   0  0  0  0  0  0  0  0  0  0  0  0
  -22.3740   -8.9510   20.4160 C   0  0  0  0  0  3  0  0  0  0  0  0
  -23.0870  -10.1500   20.2430 C   0  0  0  0  0  3  0  0  0  0  0  0
  -22.0820   -6.8210   21.4040 O   0  0  0  0  0  0  0  0  0  0  0  0
  -21.9660   -6.1240   22.5790 C   0  0  0  0  0  0  0  0  0  0  0  0
  -21.4430   -6.7180   23.7490 C   0  0  0  0  0  3  0  0  0  0  0  0
  -21.2750   -5.9450   24.9160 C   0  0  0  0  0  3  0  0  0  0  0  0
  -21.6210   -4.5800   24.9130 C   0  0  0  0  0  0  0  0  0  0  0  0
  -22.1360   -3.9860   23.7480 C   0  0  0  0  0  3  0  0  0  0  0  0
  -22.3050   -4.7560   22.5830 C   0  0  0  0  0  0  0  0  0  0  0  0
  -22.7830   -4.1740   21.4570 F   0  0  0  0  0  0  0  0  0  0  0  0
  -21.4520   -3.8360   26.0310 F   0  0  0  0  0  0  0  0  0  0  0  0
  -23.2000  -13.4710   21.4970 C   0  0  0  0  0  0  0  0  0  0  0  0
  -22.5990  -12.7220   22.4150 N   0  0  0  0  0  0  0  0  0  0  0  0
  -22.6980  -14.5240   21.1080 O   0  0  0  0  0  0  0  0  0  0  0  0
  -23.0200  -11.8690   22.7510 H   0  0  0  0  0  0  0  0  0  0  0  0
  -21.7050  -13.0080   22.7890 H   0  0  0  0  0  0  0  0  0  0  0  0
  -25.7160  -15.1910   20.4640 N   0  0  0  0  0  0  0  0  0  0  0  0
  -24.9770  -15.8350   20.7240 H   0  0  0  0  0  0  0  0  0  0  0  0
  -26.5180  -15.6500   20.0520 H   0  0  0  0  0  0  0  0  0  0  0  0
  -30.0900  -24.9510   19.4750 C   0  0  0  0  0  2  0  0  0  0  0  0
  -29.2820  -24.1560   20.4660 C   0  0  0  0  0  3  0  0  0  0  0  0
  -28.6110  -25.2510   19.5790 C   0  0  0  0  0  3  0  0  0  0  0  0
  -28.5500  -26.6410   20.0360 O   0  0  0  0  0  0  0  0  0  0  0  0
  -24.7060  -31.8170   23.1690 C   0  0  0  0  0  0  0  0  0  0  0  0
  -27.3680  -27.3820   20.0170 C   0  0  0  0  0  0  0  0  0  0  0  0
  -23.5090  -30.4360   21.5050 C   0  0  0  0  0  3  0  0  0  0  0  0
  -24.9700  -28.9250   20.0520 C   0  0  0  0  0  0  0  0  0  0  0  0
  -26.0390  -30.7960   21.3150 C   0  0  0  0  0  2  0  0  0  0  0  0
  -26.1300  -29.4320   20.6480 C   0  0  0  0  0  0  0  0  0  0  0  0
  -27.3290  -28.6700   20.6210 C   0  0  0  0  0  3  0  0  0  0  0  0
  -26.1800  -26.9020   19.4190 C   0  0  0  0  0  3  0  0  0  0  0  0
  -24.9940  -27.6630   19.4330 C   0  0  0  0  0  3  0  0  0  0  0  0
  -23.7230  -29.7810   20.1140 C   0  0  0  0  0  2  0  0  0  0  0  0
  -24.7700  -31.0320   22.0540 N   0  0  0  0  0  0  0  0  0  0  0  0
  -23.6230  -32.0740   23.7120 O   0  0  0  0  0  0  0  0  0  0  0  0
  -22.8620  -29.3960   22.4500 C   0  0  0  0  0  0  0  0  0  0  0  0
  -21.5380  -29.2060   22.3180 N   0  0  0  0  0  0  0  0  0  0  0  0
  -23.5490  -28.7650   23.2570 O   0  0  0  0  0  0  0  0  0  0  0  0
  -21.0440  -29.7680   21.6400 H   0  0  0  0  0  0  0  0  0  0  0  0
  -18.1720  -27.9810   22.8040 C   0  0  0  0  0  0  0  0  0  0  0  0
  -20.7290  -28.2490   23.0730 C   0  0  0  0  0  3  0  0  0  0  0  0
  -20.8380  -26.8300   22.4680 C   0  0  0  0  0  2  0  0  0  0  0  0
  -19.7350  -26.5210   21.4500 C   0  0  0  0  0  2  0  0  0  0  0  0
  -18.3530  -26.6460   22.1010 C   0  0  0  0  0  2  0  0  0  0  0  0
  -19.2880  -28.7400   23.2460 C   0  0  0  0  0  0  0  0  0  0  0  0
  -19.0630  -29.9910   23.8630 C   0  0  0  0  0  3  0  0  0  0  0  0
  -17.7570  -30.4820   24.0410 C   0  0  0  0  0  3  0  0  0  0  0  0
  -16.6560  -29.7190   23.6160 C   0  0  0  0  0  3  0  0  0  0  0  0
  -16.8640  -28.4700   23.0030 C   0  0  0  0  0  3  0  0  0  0  0  0
  -25.9870  -32.4470   23.7990 C   0  0  0  0  0  3  0  0  0  0  0  0
  -25.6670  -33.8360   24.1590 N   0  0  0  0  0  0  0  0  0  0  0  0
  -25.9710  -34.9050   23.4110 C   0  0  0  0  0  0  0  0  0  0  0  0
  -26.6220  -34.8270   22.3660 O   0  0  0  0  0  0  0  0  0  0  0  0
  -25.0850  -33.9700   24.9730 H   0  0  0  0  0  0  0  0  0  0  0  0
  -24.2130  -36.6800   23.1230 C   0  0  0  0  0  1  0  0  0  0  0  0
  -25.4760  -36.2800   23.9010 C   0  0  0  0  0  3  0  0  0  0  0  0
  -27.6120  -37.1840   24.7070 C   0  0  0  0  0  1  0  0  0  0  0  0
  -26.4930  -37.3480   23.7830 N   0  0  0  0  0  0  0  0  0  0  0  0
  -26.0770  -38.2600   23.9460 H   0  0  0  0  0  0  0  0  0  0  0  0
  -26.5160  -31.6560   25.0580 C   0  0  1  0  0  0  0  0  0  0  0  0
  -25.4280  -31.3820   26.1230 C   0  0  0  0  0  1  0  0  0  0  0  0
  -27.1140  -30.2940   24.6340 C   0  0  0  0  0  1  0  0  0  0  0  0
  -27.6590  -32.4480   25.7340 C   0  0  0  0  0  1  0  0  0  0  0  0
  1  3  1  0
  3  2  2  0
  4  6  2  0
  5  1  2  0
  5  4  1  0
  6  2  1  0
  6  8  1  0
  7  5  1  0
  9 21  1  0
 10 15  1  0
 11 12  1  0
 11 10  1  0
 13 12  1  0
 13 25  1  0
 13 14  1  0
 15  9  1  0
 15 14  1  0
 16  9  2  0
 18 17  1  0
 19 21  1  0
 19 20  1  0
 20  4  1  0
 20 17  1  0
 21 18  1  0
 22 23  2  0
 23 42  1  0
 24 27  1  0
 24 23  1  0
 25 26  1  0
 25 22  1  0
 26 24  2  0
 27 28  1  0
 28 29  2  0
 30 33  1  0
 30 29  1  0
 31 30  2  0
 32 31  1  0
 32 27  2  0
 33 34  1  0
 34 39  2  0
 34 35  1  0
 35 36  2  0
 37 36  1  0
 37 41  1  0
 38 37  2  0
 39 38  1  0
 40 39  1  0
 42 43  1  0
 43 45  1  0
 43 46  1  0
 44 42  2  0
 47 22  1  0
 47 48  1  0
 49 47  1  0
 50 52  1  0
 50 51  1  0
 51  3  1  0
 52 53  1  0
 52 51  1  0
 54 65  2  0
 55 53  1  0
 55 60  1  0
 56 64  1  0
 56 66  1  0
 57 63  1  0
 57 59  1  0
 58 64  1  0
 59 58  1  0
 60 59  2  0
 61 62  1  0
 61 55  2  0
 62 57  2  0
 63 56  1  0
 64 54  1  0
 66 68  2  0
 67 66  1  0
 69 67  1  0
 70 79  2  0
 70 75  1  0
 71 67  1  0
 71 75  1  0
 72 71  1  0
 73 74  1  0
 73 72  1  0
 74 70  1  0
 75 76  2  0
 76 77  1  0
 78 77  2  0
 79 78  1  0
 80 54  1  0
 80 81  1  0
 80 90  1  0
 81 84  1  0
 82 86  1  0
 82 81  1  0
 83 82  2  0
 86 85  1  0
 88 86  1  0
 88 89  1  0
 88 87  1  0
 90 93  1  1
 90 91  1  0
 92 90  1  0
M  ISO  4   9 100  21 100  52 101  53 101
M  END
>  <TORSDO>  (58) 
F 17

>  <SCORE>  (58) 
-13.274

>  <name>  (58) 
57

>  <ligand_id>  (58) 
57

>  <original_smiles>  (58) 
[H]c1c([H])c([H])c2c(c1[H])C([H])([H])C([H])([H])C([H])([H])C2([H])N([H])C(=O)C1([H])N(C(=O)C([H])(N([H])C(=O)C([H])(N([H])C([H])([H])[H])C([H])([H])[H])C(C([H])([H])[H])(C([H])([H])[H])C([H])([H])[H])C([H])([H])c2c([H])c(OC3([H])C([H])([H])C3([H])c3c([H])c(C([H])([H])[H])c(C4([H])C([H])([H])N(C(=O)N5C([H])([H])C([H])([H])C([H])([H])C([H])(n6nc(-c7c([H])c([H])c(Oc8c([H])c([H])c(F)c([H])c8F)c([H])c7[H])c(C(=O)N([H])[H])c6N([H])[H])C5([H])[H])C([H])([H])C4([H])[H])c(C([H])([H])[H])c3[H])c([H])c([H])c2C1([H])[H]

>  <smiles>  (58) 
[H]c1c([H])c([H])c2c(c1[H])C([H])([H])C([H])([H])C([H])([H])C2([H])N([H])C(=O)C1([H])N(C(=O)C([H])(N([H])C(=O)C([H])(N([H])C([H])([H])[H])C([H])([H])[H])C(C([H])([H])[H])(C([H])([H])[H])C([H])([H])[H])C([H])([H])c2c([H])c(OC3([H])C([H])([H])C3([H])c3c([H])c(C([H])([H])[H])c(C4([H])C([H])([H])N(C(=O)N5C([H])([H])C([H])([H])C([H])([H])C([H])(n6nc(-c7c([H])c([H])c(Oc8c([H])c([H])c(F)c([H])c8F)c([H])c7[H])c(C(=O)N([H])[H])c6N([H])[H])C5([H])[H])C([H])([H])C4([H])[H])c(C([H])([H])[H])c3[H])c([H])c([H])c2C1([H])[H]

$$$$
58:0:0
     RDKit          3D

 94103  0  0  1  0  0  0  0  0999 V2000
  -28.5460  -22.9460   20.2400 C   0  0  0  0  0  3  0  0  0  0  0  0
  -29.8450  -20.9090   21.6350 C   0  0  0  0  0  3  0  0  0  0  0  0
  -29.2220  -23.2970   21.4400 C   0  0  0  0  0  0  0  0  0  0  0  0
  -29.8630  -22.2330   22.1350 C   0  0  0  0  0  0  0  0  0  0  0  0
  -28.4840  -21.6070   19.7580 C   0  0  0  0  0  0  0  0  0  0  0  0
  -29.1740  -20.5530   20.4470 C   0  0  0  0  0  0  0  0  0  0  0  0
  -30.5540  -22.4380   23.4780 C   0  0  0  0  0  1  0  0  0  0  0  0
  -30.2250  -25.7630   21.5800 C   0  0  0  0  0  2  0  0  0  0  0  0
  -29.2420  -24.7150   22.0560 C   0  0  0  0  0  3  0  0  0  0  0  0
  -28.7540  -26.1220   21.6350 C   0  0  0  0  0  3  0  0  0  0  0  0
  -28.3170  -26.5240   20.3260 O   0  0  0  0  0  0  0  0  0  0  0  0
  -24.5710  -31.9070   23.2610 C   0  0  0  0  0  0  0  0  0  0  0  0
  -27.2190  -27.3680   20.3070 C   0  0  0  0  0  0  0  0  0  0  0  0
  -23.3790  -30.5020   21.6100 C   0  0  0  0  0  3  0  0  0  0  0  0
  -24.8490  -28.9250   20.2360 C   0  0  0  0  0  0  0  0  0  0  0  0
  -25.9170  -30.8140   21.4720 C   0  0  0  0  0  2  0  0  0  0  0  0
  -25.9980  -29.4340   20.8480 C   0  0  0  0  0  0  0  0  0  0  0  0
  -27.1890  -28.6600   20.8880 C   0  0  0  0  0  3  0  0  0  0  0  0
  -26.0580  -26.8890   19.6660 C   0  0  0  0  0  3  0  0  0  0  0  0
  -24.8750  -27.6470   19.6430 C   0  0  0  0  0  3  0  0  0  0  0  0
  -23.6150  -29.8020   20.2440 C   0  0  0  0  0  2  0  0  0  0  0  0
  -24.6370  -31.0950   22.1690 N   0  0  0  0  0  0  0  0  0  0  0  0
  -23.4830  -32.2000   23.7770 O   0  0  0  0  0  0  0  0  0  0  0  0
  -22.6920  -29.5030   22.5720 C   0  0  0  0  0  0  0  0  0  0  0  0
  -21.3630  -29.3520   22.4330 N   0  0  0  0  0  0  0  0  0  0  0  0
  -23.3530  -28.8690   23.3990 O   0  0  0  0  0  0  0  0  0  0  0  0
  -20.8930  -29.9090   21.7330 H   0  0  0  0  0  0  0  0  0  0  0  0
  -17.9580  -28.2590   22.9480 C   0  0  0  0  0  0  0  0  0  0  0  0
  -20.5220  -28.4380   23.2050 C   0  0  0  0  0  3  0  0  0  0  0  0
  -20.5800  -27.0060   22.6280 C   0  0  0  0  0  2  0  0  0  0  0  0
  -19.4600  -26.7090   21.6260 C   0  0  0  0  0  2  0  0  0  0  0  0
  -18.0920  -26.8970   22.2860 C   0  0  0  0  0  2  0  0  0  0  0  0
  -19.1010  -28.9840   23.3750 C   0  0  0  0  0  0  0  0  0  0  0  0
  -18.9250  -30.2510   23.9740 C   0  0  0  0  0  3  0  0  0  0  0  0
  -17.6380  -30.7910   24.1490 C   0  0  0  0  0  3  0  0  0  0  0  0
  -16.5090  -30.0640   23.7370 C   0  0  0  0  0  3  0  0  0  0  0  0
  -16.6690  -28.7990   23.1420 C   0  0  0  0  0  3  0  0  0  0  0  0
  -25.8540  -32.5280   23.8990 C   0  0  0  0  0  3  0  0  0  0  0  0
  -25.5600  -33.9320   24.2100 N   0  0  0  0  0  0  0  0  0  0  0  0
  -25.9080  -34.9720   23.4390 C   0  0  0  0  0  0  0  0  0  0  0  0
  -26.5890  -34.8480   22.4170 O   0  0  0  0  0  0  0  0  0  0  0  0
  -24.9720  -34.1050   25.0110 H   0  0  0  0  0  0  0  0  0  0  0  0
  -24.2070  -36.7790   23.0350 C   0  0  0  0  0  1  0  0  0  0  0  0
  -25.4290  -36.3700   23.8740 C   0  0  0  0  0  3  0  0  0  0  0  0
  -27.5600  -37.2430   24.7310 C   0  0  0  0  0  1  0  0  0  0  0  0
  -26.4760  -37.4120   23.7670 N   0  0  0  0  0  0  0  0  0  0  0  0
  -26.0750  -38.3360   23.8980 H   0  0  0  0  0  0  0  0  0  0  0  0
  -26.3390  -31.7660   25.1920 C   0  0  1  0  0  0  0  0  0  0  0  0
  -25.2250  -31.5580   26.2430 C   0  0  0  0  0  1  0  0  0  0  0  0
  -26.9210  -30.3790   24.8300 C   0  0  0  0  0  1  0  0  0  0  0  0
  -27.4870  -32.5570   25.8670 C   0  0  0  0  0  1  0  0  0  0  0  0
  -27.2600  -20.1330   18.2620 C   0  0  0  0  0  1  0  0  0  0  0  0
  -27.7220  -21.4340   18.6160 O   0  0  0  0  0  0  0  0  0  0  0  0
  -29.2120  -19.2470   19.9440 O   0  0  0  0  0  0  0  0  0  0  0  0
  -29.7730  -18.1480   20.7030 C   0  0  0  0  0  2  0  0  0  0  0  0
  -29.7680  -16.8360   19.8540 C   0  0  0  0  0  2  0  0  0  0  0  0
  -30.6030  -14.4940   20.0600 C   0  0  0  0  0  0  0  0  0  0  0  0
  -30.2500  -12.3570   18.8970 C   0  0  0  0  0  2  0  0  0  0  0  0
  -29.2280  -12.6120   17.7670 C   0  0  0  0  0  2  0  0  0  0  0  0
  -27.7840  -12.4710   18.2820 C   0  0  0  0  0  2  0  0  0  0  0  0
  -27.5420  -13.2220   19.6170 C   0  0  0  0  0  3  0  0  0  0  0  0
  -28.6770  -12.9520   20.6350 C   0  0  0  0  0  2  0  0  0  0  0  0
  -29.9540  -13.2940   19.9900 N   0  0  0  0  0  0  0  0  0  0  0  0
  -31.6800  -14.6940   19.4910 O   0  0  0  0  0  0  0  0  0  0  0  0
  -29.8910  -15.5280   20.5630 N   0  0  0  0  0  0  0  0  0  0  0  0
  -29.1300  -15.3010   21.1840 H   0  0  0  0  0  0  0  0  0  0  0  0
  -25.1880  -13.7970   20.4690 C   0  0  0  0  0  0  0  0  0  0  0  0
  -24.1360  -13.0160   20.8660 C   0  0  0  0  0  0  0  0  0  0  0  0
  -24.5920  -11.6640   20.7760 C   0  0  0  0  0  0  0  0  0  0  0  0
  -26.2170  -12.9240   20.1620 N   0  0  0  0  0  0  0  0  0  0  0  0
  -25.8650  -11.6320   20.3940 N   0  0  0  0  0  0  0  0  0  0  0  0
  -23.8790  -10.3990   20.9820 C   0  0  0  0  0  0  0  0  0  0  0  0
  -24.3570   -9.4220   21.8850 C   0  0  0  0  0  3  0  0  0  0  0  0
  -23.6440   -8.2210   22.0800 C   0  0  0  0  0  3  0  0  0  0  0  0
  -22.4380   -7.9860   21.3780 C   0  0  0  0  0  0  0  0  0  0  0  0
  -21.9770   -8.9540   20.4730 C   0  0  0  0  0  3  0  0  0  0  0  0
  -22.6880  -10.1480   20.2740 C   0  0  0  0  0  3  0  0  0  0  0  0
  -21.6920   -6.8360   21.4890 O   0  0  0  0  0  0  0  0  0  0  0  0
  -21.7030   -6.0790   22.6330 C   0  0  0  0  0  0  0  0  0  0  0  0
  -21.3100   -6.6110   23.8790 C   0  0  0  0  0  3  0  0  0  0  0  0
  -21.2680   -5.7790   25.0180 C   0  0  0  0  0  3  0  0  0  0  0  0
  -21.5980   -4.4160   24.9090 C   0  0  0  0  0  0  0  0  0  0  0  0
  -21.9770   -3.8820   23.6660 C   0  0  0  0  0  3  0  0  0  0  0  0
  -22.0250   -4.7090   22.5310 C   0  0  0  0  0  0  0  0  0  0  0  0
  -22.3740   -4.1850   21.3310 F   0  0  0  0  0  0  0  0  0  0  0  0
  -21.5480   -3.6160   26.0010 F   0  0  0  0  0  0  0  0  0  0  0  0
  -22.7600  -13.4910   21.2270 C   0  0  0  0  0  0  0  0  0  0  0  0
  -22.0800  -12.7780   22.1150 N   0  0  0  0  0  0  0  0  0  0  0  0
  -22.2980  -14.5300   20.7580 O   0  0  0  0  0  0  0  0  0  0  0  0
  -22.4620  -11.9400   22.5250 H   0  0  0  0  0  0  0  0  0  0  0  0
  -21.1580  -13.0800   22.3960 H   0  0  0  0  0  0  0  0  0  0  0  0
  -25.3540  -15.1750   20.3420 N   0  0  0  0  0  0  0  0  0  0  0  0
  -24.6360  -15.8300   20.6220 H   0  0  0  0  0  0  0  0  0  0  0  0
  -26.2480  -15.6160   20.1670 H   0  0  0  0  0  0  0  0  0  0  0  0
  1  3  1  0
  2  4  1  0
  3  4  2  0
  4  7  1  0
  5  1  2  0
  5  6  1  0
  6  2  2  0
  8 10  1  0
  8  9  1  0
  9  3  1  0
 10 11  1  0
 10  9  1  0
 12 23  2  0
 13 11  1  0
 13 18  1  0
 14 22  1  0
 14 24  1  0
 15 21  1  0
 15 17  1  0
 16 22  1  0
 17 18  2  0
 17 16  1  0
 19 13  2  0
 20 19  1  0
 20 15  2  0
 21 14  1  0
 22 12  1  0
 24 26  2  0
 25 24  1  0
 27 25  1  0
 28 37  2  0
 28 33  1  0
 29 25  1  0
 29 33  1  0
 30 29  1  0
 31 32  1  0
 31 30  1  0
 32 28  1  0
 33 34  2  0
 34 35  1  0
 36 35  2  0
 37 36  1  0
 38 12  1  0
 38 39  1  0
 38 48  1  0
 39 42  1  0
 40 44  1  0
 40 39  1  0
 41 40  2  0
 44 43  1  0
 46 44  1  0
 46 47  1  0
 46 45  1  0
 48 51  1  1
 48 49  1  0
 50 48  1  0
 52 53  1  0
 53  5  1  0
 54  6  1  0
 54 55  1  0
 56 65  1  0
 56 55  1  0
 57 65  1  0
 58 63  1  0
 59 60  1  0
 59 58  1  0
 61 60  1  0
 61 70  1  0
 61 62  1  0
 63 57  1  0
 63 62  1  0
 64 57  2  0
 65 66  1  0
 67 68  2  0
 68 87  1  0
 69 68  1  0
 69 72  1  0
 70 71  1  0
 70 67  1  0
 71 69  2  0
 72 73  1  0
 73 74  2  0
 75 78  1  0
 75 74  1  0
 76 75  2  0
 77 76  1  0
 77 72  2  0
 78 79  1  0
 79 80  1  0
 80 81  2  0
 82 81  1  0
 82 86  1  0
 83 82  2  0
 84 79  2  0
 84 83  1  0
 85 84  1  0
 87 88  1  0
 88 91  1  0
 88 90  1  0
 89 87  2  0
 92 67  1  0
 92 93  1  0
 94 92  1  0
M  ISO  4  10 101  11 101  57 100  65 100
M  END
>  <TORSDO>  (59) 
F 21

>  <SCORE>  (59) 
-13.793

>  <name>  (59) 
58

>  <ligand_id>  (59) 
58

>  <original_smiles>  (59) 
[H]c1c([H])c([H])c2c(c1[H])C([H])([H])C([H])([H])C([H])([H])C2([H])N([H])C(=O)C1([H])N(C(=O)C([H])(N([H])C(=O)C([H])(N([H])C([H])([H])[H])C([H])([H])[H])C(C([H])([H])[H])(C([H])([H])[H])C([H])([H])[H])C([H])([H])c2c([H])c(OC3([H])C([H])([H])C3([H])c3c([H])c(OC([H])([H])[H])c(OC([H])([H])C([H])([H])N([H])C(=O)N4C([H])([H])C([H])([H])C([H])([H])C([H])(n5nc(-c6c([H])c([H])c(Oc7c([H])c([H])c(F)c([H])c7F)c([H])c6[H])c(C(=O)N([H])[H])c5N([H])[H])C4([H])[H])c([H])c3C([H])([H])[H])c([H])c([H])c2C1([H])[H]

>  <smiles>  (59) 
[H]c1c([H])c([H])c2c(c1[H])C([H])([H])C([H])([H])C([H])([H])C2([H])N([H])C(=O)C1([H])N(C(=O)C([H])(N([H])C(=O)C([H])(N([H])C([H])([H])[H])C([H])([H])[H])C(C([H])([H])[H])(C([H])([H])[H])C([H])([H])[H])C([H])([H])c2c([H])c(OC3([H])C([H])([H])C3([H])c3c([H])c(OC([H])([H])[H])c(OC([H])([H])C([H])([H])N([H])C(=O)N4C([H])([H])C([H])([H])C([H])([H])C([H])(n5nc(-c6c([H])c([H])c(Oc7c([H])c([H])c(F)c([H])c7F)c([H])c6[H])c(C(=O)N([H])[H])c5N([H])[H])C4([H])[H])c([H])c3C([H])([H])[H])c([H])c([H])c2C1([H])[H]

$$$$
59:0:0
     RDKit          3D

 93102  0  0  1  0  0  0  0  0999 V2000
  -30.9530  -22.6700   21.5800 C   0  0  0  0  0  3  0  0  0  0  0  0
  -30.1490  -23.7350   21.1270 C   0  0  0  0  0  0  0  0  0  0  0  0
  -30.7070  -21.3080   21.3000 C   0  0  0  0  0  0  0  0  0  0  0  0
  -29.0050  -23.4900   20.3330 C   0  0  0  0  0  0  0  0  0  0  0  0
  -28.7600  -22.0430   20.0380 C   0  0  0  0  0  0  0  0  0  0  0  0
  -29.5870  -20.8940   20.5100 C   0  0  0  0  0  0  0  0  0  0  0  0
  -30.5570  -25.1390   21.5370 C   0  0  0  0  0  1  0  0  0  0  0  0
  -31.7220  -20.3560   21.9300 C   0  0  0  0  0  1  0  0  0  0  0  0
  -27.5410  -21.7180   19.1910 C   0  0  0  0  0  1  0  0  0  0  0  0
  -30.6070  -14.9910   19.9860 C   0  0  0  0  0  0  0  0  0  0  0  0
  -30.3850  -12.6760   18.9990 C   0  0  0  0  0  2  0  0  0  0  0  0
  -29.3870  -12.6760   17.8200 C   0  0  0  0  0  2  0  0  0  0  0  0
  -27.9530  -12.4570   18.3340 C   0  0  0  0  0  2  0  0  0  0  0  0
  -27.6180  -13.3500   19.5590 C   0  0  0  0  0  3  0  0  0  0  0  0
  -28.7370  -13.3430   20.6210 C   0  0  0  0  0  2  0  0  0  0  0  0
  -29.9670  -13.7570   19.9380 N   0  0  0  0  0  0  0  0  0  0  0  0
  -31.7860  -15.0110   19.6110 O   0  0  0  0  0  0  0  0  0  0  0  0
  -30.1580  -18.7890   19.1650 C   0  0  0  0  0  2  0  0  0  0  0  0
  -29.3340  -18.4500   21.3780 C   0  0  0  0  0  2  0  0  0  0  0  0
  -29.9390  -17.2250   18.8690 C   0  0  0  0  0  2  0  0  0  0  0  0
  -29.1020  -16.8790   21.0780 C   0  0  0  0  0  2  0  0  0  0  0  0
  -29.3640  -19.4360   20.2460 N   0  0  0  0  0  0  0  0  0  0  0  0
  -29.8810  -16.2180   19.9840 N   0  0  0  0  0  0  0  0  0  0  0  0
  -25.2860  -13.8870   20.4620 C   0  0  0  0  0  0  0  0  0  0  0  0
  -24.2490  -13.0930   20.8700 C   0  0  0  0  0  0  0  0  0  0  0  0
  -24.7160  -11.7470   20.7650 C   0  0  0  0  0  0  0  0  0  0  0  0
  -26.3150  -13.0250   20.1290 N   0  0  0  0  0  0  0  0  0  0  0  0
  -25.9870  -11.7290   20.3770 N   0  0  0  0  0  0  0  0  0  0  0  0
  -24.0070  -10.4750   20.9560 C   0  0  0  0  0  0  0  0  0  0  0  0
  -24.4570   -9.5090   21.8820 C   0  0  0  0  0  3  0  0  0  0  0  0
  -23.7460   -8.3020   22.0620 C   0  0  0  0  0  3  0  0  0  0  0  0
  -22.5690   -8.0540   21.3140 C   0  0  0  0  0  0  0  0  0  0  0  0
  -22.1390   -9.0090   20.3770 C   0  0  0  0  0  3  0  0  0  0  0  0
  -22.8510  -10.2060   20.1960 C   0  0  0  0  0  3  0  0  0  0  0  0
  -21.8280   -6.9000   21.4040 O   0  0  0  0  0  0  0  0  0  0  0  0
  -21.7310   -6.1960   22.5760 C   0  0  0  0  0  0  0  0  0  0  0  0
  -21.2210   -6.7810   23.7570 C   0  0  0  0  0  3  0  0  0  0  0  0
  -21.0730   -6.0020   24.9220 C   0  0  0  0  0  3  0  0  0  0  0  0
  -21.4240   -4.6390   24.9070 C   0  0  0  0  0  0  0  0  0  0  0  0
  -21.9260   -4.0540   23.7320 C   0  0  0  0  0  3  0  0  0  0  0  0
  -22.0770   -4.8300   22.5700 C   0  0  0  0  0  0  0  0  0  0  0  0
  -22.5410   -4.2550   21.4340 F   0  0  0  0  0  0  0  0  0  0  0  0
  -21.2750   -3.8880   26.0240 F   0  0  0  0  0  0  0  0  0  0  0  0
  -22.8700  -13.5530   21.2390 C   0  0  0  0  0  0  0  0  0  0  0  0
  -22.2000  -12.8310   22.1300 N   0  0  0  0  0  0  0  0  0  0  0  0
  -22.3970  -14.5900   20.7740 O   0  0  0  0  0  0  0  0  0  0  0  0
  -22.5980  -11.9930   22.5270 H   0  0  0  0  0  0  0  0  0  0  0  0
  -21.2760  -13.1210   22.4200 H   0  0  0  0  0  0  0  0  0  0  0  0
  -25.4320  -15.2630   20.3210 N   0  0  0  0  0  0  0  0  0  0  0  0
  -24.6720  -15.9090   20.5000 H   0  0  0  0  0  0  0  0  0  0  0  0
  -26.2560  -15.7160   19.9450 H   0  0  0  0  0  0  0  0  0  0  0  0
  -28.0680  -24.7670   19.8720 C   0  0  0  0  0  2  0  0  0  0  0  0
  -28.3260  -26.2680   20.1740 O   0  0  0  0  0  0  0  0  0  0  0  0
  -24.6810  -31.8620   23.2480 C   0  0  0  0  0  0  0  0  0  0  0  0
  -27.2700  -27.2420   20.1090 C   0  0  0  0  0  0  0  0  0  0  0  0
  -23.4850  -30.5020   21.5760 C   0  0  0  0  0  3  0  0  0  0  0  0
  -24.9370  -28.9690   20.1140 C   0  0  0  0  0  0  0  0  0  0  0  0
  -26.0370  -30.7810   21.4190 C   0  0  0  0  0  2  0  0  0  0  0  0
  -26.1140  -29.4070   20.7350 C   0  0  0  0  0  0  0  0  0  0  0  0
  -27.2810  -28.5590   20.7180 C   0  0  0  0  0  3  0  0  0  0  0  0
  -26.0700  -26.9040   19.4460 C   0  0  0  0  0  3  0  0  0  0  0  0
  -24.9270  -27.7310   19.4550 C   0  0  0  0  0  3  0  0  0  0  0  0
  -23.7070  -29.8590   20.1820 C   0  0  0  0  0  2  0  0  0  0  0  0
  -24.7540  -31.0690   22.1370 N   0  0  0  0  0  0  0  0  0  0  0  0
  -23.5940  -32.1320   23.7820 O   0  0  0  0  0  0  0  0  0  0  0  0
  -22.8100  -29.4690   22.5140 C   0  0  0  0  0  0  0  0  0  0  0  0
  -21.4820  -29.2970   22.3820 N   0  0  0  0  0  0  0  0  0  0  0  0
  -23.4820  -28.8280   23.3250 O   0  0  0  0  0  0  0  0  0  0  0  0
  -20.9970  -29.8670   21.7020 H   0  0  0  0  0  0  0  0  0  0  0  0
  -18.1010  -28.0920   22.8630 C   0  0  0  0  0  0  0  0  0  0  0  0
  -20.6610  -28.3430   23.1310 C   0  0  0  0  0  3  0  0  0  0  0  0
  -20.7590  -26.9250   22.5200 C   0  0  0  0  0  2  0  0  0  0  0  0
  -19.6530  -26.6300   21.5000 C   0  0  0  0  0  2  0  0  0  0  0  0
  -18.2730  -26.7610   22.1520 C   0  0  0  0  0  2  0  0  0  0  0  0
  -19.2220  -28.8420   23.3090 C   0  0  0  0  0  0  0  0  0  0  0  0
  -19.0060  -30.0880   23.9360 C   0  0  0  0  0  3  0  0  0  0  0  0
  -17.7010  -30.5850   24.1210 C   0  0  0  0  0  3  0  0  0  0  0  0
  -16.5950  -29.8320   23.6890 C   0  0  0  0  0  3  0  0  0  0  0  0
  -16.7960  -28.5880   23.0670 C   0  0  0  0  0  3  0  0  0  0  0  0
  -25.9580  -32.4860   23.8890 C   0  0  0  0  0  3  0  0  0  0  0  0
  -25.6550  -33.8870   24.2200 N   0  0  0  0  0  0  0  0  0  0  0  0
  -25.9740  -34.9390   23.4550 C   0  0  0  0  0  0  0  0  0  0  0  0
  -26.6240  -34.8320   22.4110 O   0  0  0  0  0  0  0  0  0  0  0  0
  -25.0750  -34.0440   25.0310 H   0  0  0  0  0  0  0  0  0  0  0  0
  -24.2260  -36.7250   23.1570 C   0  0  0  0  0  1  0  0  0  0  0  0
  -25.5010  -36.3310   23.9200 C   0  0  0  0  0  3  0  0  0  0  0  0
  -27.6600  -37.2380   24.6600 C   0  0  0  0  0  1  0  0  0  0  0  0
  -26.5250  -37.3870   23.7550 N   0  0  0  0  0  0  0  0  0  0  0  0
  -26.1200  -38.3070   23.9020 H   0  0  0  0  0  0  0  0  0  0  0  0
  -26.4470  -31.7110   25.1760 C   0  0  1  0  0  0  0  0  0  0  0  0
  -25.3330  -31.4840   26.2260 C   0  0  0  0  0  1  0  0  0  0  0  0
  -27.0240  -30.3270   24.7980 C   0  0  0  0  0  1  0  0  0  0  0  0
  -27.5930  -32.4960   25.8550 C   0  0  0  0  0  1  0  0  0  0  0  0
  2  7  1  0
  2  1  2  0
  3  1  1  0
  3  8  1  0
  4  2  1  0
  5  4  2  0
  5  6  1  0
  6  3  2  0
  9  5  1  0
 11 16  1  0
 12 13  1  0
 12 11  1  0
 14 13  1  0
 14 27  1  0
 14 15  1  0
 16 10  1  0
 16 15  1  0
 17 10  2  0
 18 22  1  0
 20 18  1  0
 20 23  1  0
 21 19  1  0
 22  6  1  0
 22 19  1  0
 23 10  1  0
 23 21  1  0
 24 25  2  0
 25 44  1  0
 26 25  1  0
 26 29  1  0
 27 28  1  0
 27 24  1  0
 28 26  2  0
 29 30  1  0
 30 31  2  0
 32 35  1  0
 32 31  1  0
 33 32  2  0
 34 33  1  0
 34 29  2  0
 35 36  1  0
 36 37  1  0
 37 38  2  0
 39 38  1  0
 39 43  1  0
 40 39  2  0
 41 36  2  0
 41 40  1  0
 42 41  1  0
 44 45  1  0
 45 48  1  0
 45 47  1  0
 46 44  2  0
 49 24  1  0
 49 50  1  0
 51 49  1  0
 52 53  1  0
 52  4  1  0
 54 65  2  0
 55 53  1  0
 55 60  1  0
 56 64  1  0
 56 66  1  0
 57 63  1  0
 57 59  1  0
 58 64  1  0
 59 58  1  0
 60 59  2  0
 61 62  1  0
 61 55  2  0
 62 57  2  0
 63 56  1  0
 64 54  1  0
 66 68  2  0
 67 66  1  0
 69 67  1  0
 70 79  2  0
 70 75  1  0
 71 67  1  0
 71 75  1  0
 72 71  1  0
 73 74  1  0
 73 72  1  0
 74 70  1  0
 75 76  2  0
 76 77  1  0
 78 77  2  0
 79 78  1  0
 80 54  1  0
 80 81  1  0
 80 90  1  0
 81 84  1  0
 82 86  1  0
 82 81  1  0
 83 82  2  0
 86 85  1  0
 88 89  1  0
 88 86  1  0
 88 87  1  0
 90 93  1  1
 90 91  1  0
 92 90  1  0
M  ISO  4  10 100  23 100  52 101  53 101
M  END
>  <TORSDO>  (60) 
F 17

>  <SCORE>  (60) 
-14.933

>  <name>  (60) 
59

>  <ligand_id>  (60) 
59

>  <original_smiles>  (60) 
[H]c1c([H])c([H])c2c(c1[H])C([H])([H])C([H])([H])C([H])([H])C2([H])N([H])C(=O)C1([H])N(C(=O)C([H])(N([H])C(=O)C([H])(N([H])C([H])([H])[H])C([H])([H])[H])C(C([H])([H])[H])(C([H])([H])[H])C([H])([H])[H])C([H])([H])c2c([H])c(OC([H])([H])c3c(C([H])([H])[H])c([H])c(C([H])([H])[H])c(N4C([H])([H])C([H])([H])N(C(=O)N5C([H])([H])C([H])([H])C([H])([H])C([H])(n6nc(-c7c([H])c([H])c(Oc8c([H])c([H])c(F)c([H])c8F)c([H])c7[H])c(C(=O)N([H])[H])c6N([H])[H])C5([H])[H])C([H])([H])C4([H])[H])c3C([H])([H])[H])c([H])c([H])c2C1([H])[H]

>  <smiles>  (60) 
[H]c1c([H])c([H])c2c(c1[H])C([H])([H])C([H])([H])C([H])([H])C2([H])N([H])C(=O)C1([H])N(C(=O)C([H])(N([H])C(=O)C([H])(N([H])C([H])([H])[H])C([H])([H])[H])C(C([H])([H])[H])(C([H])([H])[H])C([H])([H])[H])C([H])([H])c2c([H])c(OC([H])([H])c3c(C([H])([H])[H])c([H])c(C([H])([H])[H])c(N4C([H])([H])C([H])([H])N(C(=O)N5C([H])([H])C([H])([H])C([H])([H])C([H])(n6nc(-c7c([H])c([H])c(Oc8c([H])c([H])c(F)c([H])c8F)c([H])c7[H])c(C(=O)N([H])[H])c6N([H])[H])C5([H])[H])C([H])([H])C4([H])[H])c3C([H])([H])[H])c([H])c([H])c2C1([H])[H]

$$$$
60:0:0
     RDKit          3D

 94103  0  0  1  0  0  0  0  0999 V2000
  -28.2080  -22.8860   19.3800 C   0  0  0  0  0  3  0  0  0  0  0  0
  -28.5800  -21.5630   19.7340 C   0  0  0  0  0  3  0  0  0  0  0  0
  -28.9080  -24.0260   19.8530 C   0  0  0  0  0  0  0  0  0  0  0  0
  -29.9960  -23.7910   20.7420 C   0  0  0  0  0  0  0  0  0  0  0  0
  -30.3380  -22.4570   21.1440 C   0  0  0  0  0  0  0  0  0  0  0  0
  -29.6650  -21.3190   20.6040 C   0  0  0  0  0  0  0  0  0  0  0  0
  -30.8280  -24.9740   21.2360 C   0  0  0  0  0  1  0  0  0  0  0  0
  -31.4640  -22.2470   22.1590 C   0  0  0  0  0  1  0  0  0  0  0  0
  -30.1200  -20.0130   20.9470 N   0  0  0  0  0  0  0  0  0  0  0  0
  -30.9550  -19.9810   21.5240 H   0  0  0  0  0  0  0  0  0  0  0  0
  -30.7500  -14.5400   20.0020 C   0  0  0  0  0  0  0  0  0  0  0  0
  -30.4100  -12.3330   18.9350 C   0  0  0  0  0  2  0  0  0  0  0  0
  -29.4070  -12.5020   17.7730 C   0  0  0  0  0  2  0  0  0  0  0  0
  -27.9570  -12.3700   18.2800 C   0  0  0  0  0  2  0  0  0  0  0  0
  -27.6840  -13.2220   19.5490 C   0  0  0  0  0  3  0  0  0  0  0  0
  -28.7990  -13.0280   20.6000 C   0  0  0  0  0  2  0  0  0  0  0  0
  -30.0780  -13.3500   19.9510 N   0  0  0  0  0  0  0  0  0  0  0  0
  -31.8940  -14.6400   19.5470 O   0  0  0  0  0  0  0  0  0  0  0  0
  -29.7960  -17.6530   21.6900 C   0  0  0  0  0  2  0  0  0  0  0  0
  -30.3010  -18.0970   19.3150 C   0  0  0  0  0  2  0  0  0  0  0  0
  -29.3750  -16.1900   21.3470 C   0  0  0  0  0  2  0  0  0  0  0  0
  -29.8600  -16.6380   18.9820 C   0  0  0  0  0  2  0  0  0  0  0  0
  -29.5880  -18.6870   20.5510 C   0  0  0  0  0  3  0  0  0  0  0  0
  -29.9770  -15.6730   20.1010 N   0  0  0  0  0  0  0  0  0  0  0  0
  -25.3490  -13.8510   20.4180 C   0  0  0  0  0  0  0  0  0  0  0  0
  -24.2900  -13.0900   20.8310 C   0  0  0  0  0  0  0  0  0  0  0  0
  -24.7220  -11.7310   20.7420 C   0  0  0  0  0  0  0  0  0  0  0  0
  -26.3600  -12.9560   20.1040 N   0  0  0  0  0  0  0  0  0  0  0  0
  -25.9900  -11.6750   20.3570 N   0  0  0  0  0  0  0  0  0  0  0  0
  -23.9820  -10.4780   20.9460 C   0  0  0  0  0  0  0  0  0  0  0  0
  -24.4180   -9.5070   21.8750 C   0  0  0  0  0  3  0  0  0  0  0  0
  -23.6800   -8.3190   22.0670 C   0  0  0  0  0  3  0  0  0  0  0  0
  -22.4930   -8.0930   21.3300 C   0  0  0  0  0  0  0  0  0  0  0  0
  -22.0770   -9.0530   20.3910 C   0  0  0  0  0  3  0  0  0  0  0  0
  -22.8140  -10.2330   20.1960 C   0  0  0  0  0  3  0  0  0  0  0  0
  -21.7280   -6.9560   21.4300 O   0  0  0  0  0  0  0  0  0  0  0  0
  -21.6420   -6.2480   22.6020 C   0  0  0  0  0  0  0  0  0  0  0  0
  -21.1810   -6.8390   23.7980 C   0  0  0  0  0  3  0  0  0  0  0  0
  -21.0420   -6.0560   24.9630 C   0  0  0  0  0  3  0  0  0  0  0  0
  -21.3560   -4.6840   24.9310 C   0  0  0  0  0  0  0  0  0  0  0  0
  -21.8110   -4.0930   23.7400 C   0  0  0  0  0  3  0  0  0  0  0  0
  -21.9500   -4.8730   22.5780 C   0  0  0  0  0  0  0  0  0  0  0  0
  -22.3690   -4.2940   21.4270 F   0  0  0  0  0  0  0  0  0  0  0  0
  -21.2160   -3.9310   26.0470 F   0  0  0  0  0  0  0  0  0  0  0  0
  -22.9200  -13.5860   21.1960 C   0  0  0  0  0  0  0  0  0  0  0  0
  -22.2340  -12.8900   22.0950 N   0  0  0  0  0  0  0  0  0  0  0  0
  -22.4700  -14.6270   20.7190 O   0  0  0  0  0  0  0  0  0  0  0  0
  -22.6120  -12.0470   22.5020 H   0  0  0  0  0  0  0  0  0  0  0  0
  -21.3180  -13.2040   22.3810 H   0  0  0  0  0  0  0  0  0  0  0  0
  -25.5310  -15.2220   20.2640 N   0  0  0  0  0  0  0  0  0  0  0  0
  -24.7880  -15.8900   20.4420 H   0  0  0  0  0  0  0  0  0  0  0  0
  -26.3720  -15.6510   19.9030 H   0  0  0  0  0  0  0  0  0  0  0  0
  -28.5730  -25.4260   19.2470 C   0  0  0  0  0  2  0  0  0  0  0  0
  -28.3540  -26.5580   20.1420 O   0  0  0  0  0  0  0  0  0  0  0  0
  -24.5960  -31.8250   23.2110 C   0  0  0  0  0  0  0  0  0  0  0  0
  -27.1930  -27.3280   20.0940 C   0  0  0  0  0  0  0  0  0  0  0  0
  -23.3810  -30.4470   21.5590 C   0  0  0  0  0  3  0  0  0  0  0  0
  -24.8190  -28.9080   20.1180 C   0  0  0  0  0  0  0  0  0  0  0  0
  -25.9160  -30.7680   21.3700 C   0  0  0  0  0  2  0  0  0  0  0  0
  -25.9860  -29.3990   20.7140 C   0  0  0  0  0  0  0  0  0  0  0  0
  -27.1720  -28.6160   20.6980 C   0  0  0  0  0  3  0  0  0  0  0  0
  -25.9930  -26.8620   19.5070 C   0  0  0  0  0  3  0  0  0  0  0  0
  -24.8200  -27.6420   19.5120 C   0  0  0  0  0  3  0  0  0  0  0  0
  -23.5860  -29.7810   20.1730 C   0  0  0  0  0  2  0  0  0  0  0  0
  -24.6500  -31.0300   22.1040 N   0  0  0  0  0  0  0  0  0  0  0  0
  -23.5160  -32.1020   23.7500 O   0  0  0  0  0  0  0  0  0  0  0  0
  -22.7180  -29.4240   22.5100 C   0  0  0  0  0  0  0  0  0  0  0  0
  -21.3950  -29.2380   22.3670 N   0  0  0  0  0  0  0  0  0  0  0  0
  -23.3920  -28.8000   23.3340 O   0  0  0  0  0  0  0  0  0  0  0  0
  -20.9110  -29.7930   21.6750 H   0  0  0  0  0  0  0  0  0  0  0  0
  -18.0260  -27.9990   22.7910 C   0  0  0  0  0  0  0  0  0  0  0  0
  -20.5710  -28.2970   23.1260 C   0  0  0  0  0  3  0  0  0  0  0  0
  -20.7100  -26.8610   22.5700 C   0  0  0  0  0  2  0  0  0  0  0  0
  -19.6400  -26.5120   21.5300 C   0  0  0  0  0  2  0  0  0  0  0  0
  -18.2400  -26.6440   22.1360 C   0  0  0  0  0  2  0  0  0  0  0  0
  -19.1220  -28.7810   23.2420 C   0  0  0  0  0  0  0  0  0  0  0  0
  -18.8690  -30.0480   23.8130 C   0  0  0  0  0  3  0  0  0  0  0  0
  -17.5540  -30.5320   23.9380 C   0  0  0  0  0  3  0  0  0  0  0  0
  -16.4720  -29.7470   23.5050 C   0  0  0  0  0  3  0  0  0  0  0  0
  -16.7090  -28.4820   22.9370 C   0  0  0  0  0  3  0  0  0  0  0  0
  -25.8860  -32.4420   23.8360 C   0  0  0  0  0  3  0  0  0  0  0  0
  -25.5850  -33.8380   24.1810 N   0  0  0  0  0  0  0  0  0  0  0  0
  -25.9150  -34.8960   23.4290 C   0  0  0  0  0  0  0  0  0  0  0  0
  -26.5760  -34.7980   22.3910 O   0  0  0  0  0  0  0  0  0  0  0  0
  -24.9970  -33.9880   24.9890 H   0  0  0  0  0  0  0  0  0  0  0  0
  -24.1920  -36.6980   23.1050 C   0  0  0  0  0  1  0  0  0  0  0  0
  -25.4380  -36.2820   23.9010 C   0  0  0  0  0  3  0  0  0  0  0  0
  -27.5820  -37.1530   24.7220 C   0  0  0  0  0  1  0  0  0  0  0  0
  -26.4740  -37.3330   23.7880 N   0  0  0  0  0  0  0  0  0  0  0  0
  -26.0720  -38.2530   23.9460 H   0  0  0  0  0  0  0  0  0  0  0  0
  -26.3990  -31.6540   25.1040 C   0  0  1  0  0  0  0  0  0  0  0  0
  -25.3060  -31.4120   26.1710 C   0  0  0  0  0  1  0  0  0  0  0  0
  -26.9730  -30.2770   24.6960 C   0  0  0  0  0  1  0  0  0  0  0  0
  -27.5570  -32.4350   25.7720 C   0  0  0  0  0  1  0  0  0  0  0  0
  1  2  2  0
  1  3  1  0
  2  6  1  0
  3  4  2  0
  4  5  1  0
  4  7  1  0
  5  8  1  0
  6  9  1  0
  6  5  2  0
  9 10  1  0
 11 24  1  0
 12 17  1  0
 13 14  1  0
 13 12  1  0
 15 14  1  0
 15 28  1  0
 15 16  1  0
 17 11  1  0
 17 16  1  0
 18 11  2  0
 20 23  1  0
 21 19  1  0
 22 20  1  0
 22 24  1  0
 23  9  1  0
 23 19  1  0
 24 21  1  0
 25 26  2  0
 26 45  1  0
 27 26  1  0
 27 30  1  0
 28 29  1  0
 28 25  1  0
 29 27  2  0
 30 31  1  0
 31 32  2  0
 33 36  1  0
 33 32  1  0
 34 33  2  0
 35 34  1  0
 35 30  2  0
 36 37  1  0
 37 38  1  0
 38 39  2  0
 40 39  1  0
 40 44  1  0
 41 40  2  0
 42 37  2  0
 42 41  1  0
 43 42  1  0
 45 46  1  0
 46 49  1  0
 46 48  1  0
 47 45  2  0
 50 25  1  0
 50 51  1  0
 52 50  1  0
 53  3  1  0
 53 54  1  0
 55 66  2  0
 56 54  1  0
 56 61  1  0
 57 65  1  0
 57 67  1  0
 58 64  1  0
 58 60  1  0
 59 65  1  0
 60 59  1  0
 61 60  2  0
 62 63  1  0
 62 56  2  0
 63 58  2  0
 64 57  1  0
 65 55  1  0
 67 69  2  0
 68 67  1  0
 70 68  1  0
 71 80  2  0
 71 76  1  0
 72 68  1  0
 72 76  1  0
 73 72  1  0
 74 75  1  0
 74 73  1  0
 75 71  1  0
 76 77  2  0
 77 78  1  0
 79 78  2  0
 80 79  1  0
 81 55  1  0
 81 82  1  0
 81 91  1  0
 82 85  1  0
 83 87  1  0
 83 82  1  0
 84 83  2  0
 87 86  1  0
 89 87  1  0
 89 90  1  0
 89 88  1  0
 91 94  1  1
 91 92  1  0
 93 91  1  0
M  ISO  4  11 100  24 100  53 101  54 101
M  END
>  <TORSDO>  (61) 
F 18

>  <SCORE>  (61) 
-14.220

>  <name>  (61) 
60

>  <ligand_id>  (61) 
60

>  <original_smiles>  (61) 
[H]c1c([H])c([H])c2c(c1[H])C([H])([H])C([H])([H])C([H])([H])C2([H])N([H])C(=O)C1([H])N(C(=O)C([H])(N([H])C(=O)C([H])(N([H])C([H])([H])[H])C([H])([H])[H])C(C([H])([H])[H])(C([H])([H])[H])C([H])([H])[H])C([H])([H])c2c([H])c(OC([H])([H])c3c([H])c([H])c(N([H])C4([H])C([H])([H])C([H])([H])N(C(=O)N5C([H])([H])C([H])([H])C([H])([H])C([H])(n6nc(-c7c([H])c([H])c(Oc8c([H])c([H])c(F)c([H])c8F)c([H])c7[H])c(C(=O)N([H])[H])c6N([H])[H])C5([H])[H])C([H])([H])C4([H])[H])c(C([H])([H])[H])c3C([H])([H])[H])c([H])c([H])c2C1([H])[H]

>  <smiles>  (61) 
[H]c1c([H])c([H])c2c(c1[H])C([H])([H])C([H])([H])C([H])([H])C2([H])N([H])C(=O)C1([H])N(C(=O)C([H])(N([H])C(=O)C([H])(N([H])C([H])([H])[H])C([H])([H])[H])C(C([H])([H])[H])(C([H])([H])[H])C([H])([H])[H])C([H])([H])c2c([H])c(OC([H])([H])c3c([H])c([H])c(N([H])C4([H])C([H])([H])C([H])([H])N(C(=O)N5C([H])([H])C([H])([H])C([H])([H])C([H])(n6nc(-c7c([H])c([H])c(Oc8c([H])c([H])c(F)c([H])c8F)c([H])c7[H])c(C(=O)N([H])[H])c6N([H])[H])C5([H])[H])C([H])([H])C4([H])[H])c(C([H])([H])[H])c3C([H])([H])[H])c([H])c([H])c2C1([H])[H]

$$$$
61:0:0
     RDKit          3D

 95104  0  0  1  0  0  0  0  0999 V2000
  -29.1380  -23.5610   19.5620 C   0  0  0  0  0  3  0  0  0  0  0  0
  -30.0070  -21.9950   21.7170 C   0  0  0  0  0  3  0  0  0  0  0  0
  -29.6290  -22.2420   19.3380 C   0  0  0  0  0  0  0  0  0  0  0  0
  -29.0920  -24.1260   20.8580 C   0  0  0  0  0  0  0  0  0  0  0  0
  -30.1030  -21.4400   20.4180 C   0  0  0  0  0  0  0  0  0  0  0  0
  -29.5000  -23.3090   21.9490 C   0  0  0  0  0  0  0  0  0  0  0  0
  -29.6690  -21.7350   17.9060 C   0  0  0  0  0  1  0  0  0  0  0  0
  -29.8130  -23.0970   24.3330 C   0  0  0  0  0  1  0  0  0  0  0  0
  -29.3880  -23.8580   23.2090 O   0  0  0  0  0  0  0  0  0  0  0  0
  -30.8900  -20.1060   20.2120 C   0  0  0  0  0  2  0  0  0  0  0  0
  -30.9110  -14.6380   20.2430 C   0  0  0  0  0  0  0  0  0  0  0  0
  -30.6330  -12.4040   19.2150 C   0  0  0  0  0  2  0  0  0  0  0  0
  -29.6610  -12.5380   18.0230 C   0  0  0  0  0  2  0  0  0  0  0  0
  -28.2000  -12.3940   18.4930 C   0  0  0  0  0  2  0  0  0  0  0  0
  -27.8770  -13.2750   19.7310 C   0  0  0  0  0  3  0  0  0  0  0  0
  -28.9650  -13.1360   20.8210 C   0  0  0  0  0  2  0  0  0  0  0  0
  -30.2590  -13.4380   20.1980 N   0  0  0  0  0  0  0  0  0  0  0  0
  -32.0760  -14.7600   19.8540 O   0  0  0  0  0  0  0  0  0  0  0  0
  -29.8090  -16.5320   21.4860 C   0  0  0  0  0  2  0  0  0  0  0  0
  -29.8390  -16.5290   19.0540 C   0  0  0  0  0  2  0  0  0  0  0  0
  -30.4160  -17.9800   21.4820 C   0  0  0  0  0  2  0  0  0  0  0  0
  -30.4990  -17.9370   19.0450 C   0  0  0  0  0  2  0  0  0  0  0  0
  -30.1040  -15.7440   20.2750 N   0  0  0  0  0  0  0  0  0  0  0  0
  -30.1680  -18.7750   20.2350 N   0  0  2  0  0  4  0  0  0  0  0  0
  -29.1820  -18.9840   20.1920 H   0  0  0  0  0  0  0  0  0  0  0  0
  -25.5180  -13.8910   20.5420 C   0  0  0  0  0  0  0  0  0  0  0  0
  -24.4520  -13.1230   20.9240 C   0  0  0  0  0  0  0  0  0  0  0  0
  -24.8930  -11.7670   20.8460 C   0  0  0  0  0  0  0  0  0  0  0  0
  -26.5410  -13.0020   20.2520 N   0  0  0  0  0  0  0  0  0  0  0  0
  -26.1720  -11.7190   20.4950 N   0  0  0  0  0  0  0  0  0  0  0  0
  -24.1550  -10.5110   21.0250 C   0  0  0  0  0  0  0  0  0  0  0  0
  -24.5810   -9.5310   21.9500 C   0  0  0  0  0  3  0  0  0  0  0  0
  -23.8440   -8.3390   22.1190 C   0  0  0  0  0  3  0  0  0  0  0  0
  -22.6680   -8.1180   21.3640 C   0  0  0  0  0  0  0  0  0  0  0  0
  -22.2610   -9.0850   20.4290 C   0  0  0  0  0  3  0  0  0  0  0  0
  -22.9990  -10.2700   20.2570 C   0  0  0  0  0  3  0  0  0  0  0  0
  -21.9030   -6.9790   21.4440 O   0  0  0  0  0  0  0  0  0  0  0  0
  -21.8140   -6.2510   22.6030 C   0  0  0  0  0  0  0  0  0  0  0  0
  -21.3450   -6.8200   23.8070 C   0  0  0  0  0  3  0  0  0  0  0  0
  -21.2040   -6.0180   24.9570 C   0  0  0  0  0  3  0  0  0  0  0  0
  -21.5240   -4.6490   24.9040 C   0  0  0  0  0  0  0  0  0  0  0  0
  -21.9860   -4.0780   23.7050 C   0  0  0  0  0  3  0  0  0  0  0  0
  -22.1280   -4.8770   22.5560 C   0  0  0  0  0  0  0  0  0  0  0  0
  -22.5540   -4.3190   21.3980 F   0  0  0  0  0  0  0  0  0  0  0  0
  -21.3820   -3.8750   26.0060 F   0  0  0  0  0  0  0  0  0  0  0  0
  -23.0700  -13.6130   21.2530 C   0  0  0  0  0  0  0  0  0  0  0  0
  -22.3630  -12.9080   22.1300 N   0  0  0  0  0  0  0  0  0  0  0  0
  -22.6280  -14.6530   20.7680 O   0  0  0  0  0  0  0  0  0  0  0  0
  -22.7320  -12.0660   22.5430 H   0  0  0  0  0  0  0  0  0  0  0  0
  -21.4370  -13.2160   22.3910 H   0  0  0  0  0  0  0  0  0  0  0  0
  -25.6990  -15.2630   20.3930 N   0  0  0  0  0  0  0  0  0  0  0  0
  -24.9480  -15.9280   20.5410 H   0  0  0  0  0  0  0  0  0  0  0  0
  -26.5490  -15.6930   20.0530 H   0  0  0  0  0  0  0  0  0  0  0  0
  -28.5260  -25.5470   21.1430 C   0  0  0  0  0  2  0  0  0  0  0  0
  -28.6680  -26.6090   20.1570 O   0  0  0  0  0  0  0  0  0  0  0  0
  -24.6430  -31.7260   23.1650 C   0  0  0  0  0  0  0  0  0  0  0  0
  -27.5400  -27.4130   20.0920 C   0  0  0  0  0  0  0  0  0  0  0  0
  -23.5440  -30.3090   21.4630 C   0  0  0  0  0  3  0  0  0  0  0  0
  -25.1010  -28.8610   20.0470 C   0  0  0  0  0  0  0  0  0  0  0  0
  -26.0620  -30.7640   21.3490 C   0  0  0  0  0  2  0  0  0  0  0  0
  -26.2250  -29.4090   20.6830 C   0  0  0  0  0  0  0  0  0  0  0  0
  -27.4520  -28.6940   20.7010 C   0  0  0  0  0  3  0  0  0  0  0  0
  -26.4040  -26.9000   19.4360 C   0  0  0  0  0  3  0  0  0  0  0  0
  -25.1890  -27.6090   19.4150 C   0  0  0  0  0  3  0  0  0  0  0  0
  -23.8220  -29.6700   20.0770 C   0  0  0  0  0  2  0  0  0  0  0  0
  -24.7650  -30.9480   22.0510 N   0  0  0  0  0  0  0  0  0  0  0  0
  -23.5360  -31.9450   23.6770 O   0  0  0  0  0  0  0  0  0  0  0  0
  -22.9050  -29.2460   22.3860 C   0  0  0  0  0  0  0  0  0  0  0  0
  -21.5860  -29.0370   22.2400 N   0  0  0  0  0  0  0  0  0  0  0  0
  -23.5940  -28.6120   23.1890 O   0  0  0  0  0  0  0  0  0  0  0  0
  -21.0890  -29.6030   21.5670 H   0  0  0  0  0  0  0  0  0  0  0  0
  -18.2330  -27.7550   22.6760 C   0  0  0  0  0  0  0  0  0  0  0  0
  -20.7830  -28.0560   22.9720 C   0  0  0  0  0  3  0  0  0  0  0  0
  -20.9190  -26.6480   22.3470 C   0  0  0  0  0  2  0  0  0  0  0  0
  -19.8290  -26.3390   21.3150 C   0  0  0  0  0  2  0  0  0  0  0  0
  -18.4400  -26.4340   21.9550 C   0  0  0  0  0  2  0  0  0  0  0  0
  -19.3330  -28.5240   23.1390 C   0  0  0  0  0  0  0  0  0  0  0  0
  -19.0850  -29.7610   23.7720 C   0  0  0  0  0  3  0  0  0  0  0  0
  -17.7700  -30.2300   23.9460 C   0  0  0  0  0  3  0  0  0  0  0  0
  -16.6840  -29.4580   23.5000 C   0  0  0  0  0  3  0  0  0  0  0  0
  -16.9150  -28.2210   22.8710 C   0  0  0  0  0  3  0  0  0  0  0  0
  -25.8820  -32.3970   23.8350 C   0  0  0  0  0  3  0  0  0  0  0  0
  -26.3820  -31.6360   25.1220 C   0  0  1  0  0  0  0  0  0  0  0  0
  -25.2630  -31.3540   26.1520 C   0  0  0  0  0  1  0  0  0  0  0  0
  -27.0230  -30.2810   24.7410 C   0  0  0  0  0  1  0  0  0  0  0  0
  -27.4840  -32.4620   25.8260 C   0  0  0  0  0  1  0  0  0  0  0  0
  -25.5150  -33.7820   24.1600 N   0  0  0  0  0  0  0  0  0  0  0  0
  -25.8290  -34.8490   23.4140 C   0  0  0  0  0  0  0  0  0  0  0  0
  -26.5300  -34.7740   22.4000 O   0  0  0  0  0  0  0  0  0  0  0  0
  -24.8970  -33.9120   24.9470 H   0  0  0  0  0  0  0  0  0  0  0  0
  -24.0420  -36.5740   23.0250 C   0  0  0  0  0  1  0  0  0  0  0  0
  -25.2800  -36.2170   23.8610 C   0  0  0  0  0  3  0  0  0  0  0  0
  -27.3610  -37.1810   24.7380 C   0  0  0  0  0  1  0  0  0  0  0  0
  -26.2740  -37.3100   23.7720 N   0  0  0  0  0  0  0  0  0  0  0  0
  -25.8300  -38.2130   23.9120 H   0  0  0  0  0  0  0  0  0  0  0  0
  1  4  1  0
  2  6  1  0
  3  1  2  0
  3  5  1  0
  4 54  1  0
  4  6  2  0
  5  2  2  0
  6  9  1  0
  7  3  1  0
  9  8  1  0
 10 24  1  0
 10  5  1  0
 11 23  1  0
 12 17  1  0
 13 14  1  0
 13 12  1  0
 15 14  1  0
 15 29  1  0
 15 16  1  0
 17 11  1  0
 17 16  1  0
 18 11  2  0
 20 23  1  0
 21 19  1  0
 22 20  1  0
 22 24  1  0
 23 19  1  0
 24 21  1  0
 24 25  1  6
 26 27  2  0
 27 46  1  0
 28 27  1  0
 28 31  1  0
 29 30  1  0
 29 26  1  0
 30 28  2  0
 31 32  1  0
 32 33  2  0
 34 37  1  0
 34 33  1  0
 35 34  2  0
 36 35  1  0
 36 31  2  0
 37 38  1  0
 38 39  1  0
 39 40  2  0
 41 40  1  0
 41 45  1  0
 42 41  2  0
 43 38  2  0
 43 42  1  0
 44 43  1  0
 46 47  1  0
 47 50  1  0
 47 49  1  0
 48 46  2  0
 51 52  1  0
 51 26  1  0
 53 51  1  0
 55 54  1  0
 56 67  2  0
 57 55  1  0
 57 62  1  0
 58 66  1  0
 58 68  1  0
 59 65  1  0
 59 61  1  0
 60 66  1  0
 61 62  2  0
 61 60  1  0
 63 57  2  0
 64 63  1  0
 64 59  2  0
 65 58  1  0
 66 56  1  0
 68 70  2  0
 69 68  1  0
 71 69  1  0
 72 81  2  0
 72 77  1  0
 73 69  1  0
 73 77  1  0
 74 73  1  0
 75 76  1  0
 75 74  1  0
 76 72  1  0
 77 78  2  0
 78 79  1  0
 80 79  2  0
 81 80  1  0
 82 56  1  0
 82 87  1  0
 82 83  1  0
 83 86  1  1
 83 84  1  0
 85 83  1  0
 87 90  1  0
 88 92  1  0
 88 87  1  0
 89 88  2  0
 92 91  1  0
 94 92  1  0
 94 95  1  0
 94 93  1  0
M  ISO  4  11 100  23 100  54 101  55 101
M  END
>  <TORSDO>  (62) 
F 19

>  <SCORE>  (62) 
-13.813

>  <name>  (62) 
61

>  <ligand_id>  (62) 
61

>  <original_smiles>  (62) 
[H]c1c([H])c([H])c2c(c1[H])C([H])([H])C([H])([H])C([H])([H])C2([H])N([H])C(=O)C1([H])N(C(=O)C([H])(N([H])C(=O)C([H])(N([H])C([H])([H])[H])C([H])([H])[H])C(C([H])([H])[H])(C([H])([H])[H])C([H])([H])[H])C([H])([H])c2c([H])c(OC([H])([H])c3c([H])c(C([H])([H])[H])c(C([H])([H])[N+]4([H])C([H])([H])C([H])([H])N(C(=O)N5C([H])([H])C([H])([H])C([H])([H])C([H])(n6nc(-c7c([H])c([H])c(Oc8c([H])c([H])c(F)c([H])c8F)c([H])c7[H])c(C(=O)N([H])[H])c6N([H])[H])C5([H])[H])C([H])([H])C4([H])[H])c([H])c3OC([H])([H])[H])c([H])c([H])c2C1([H])[H]

>  <smiles>  (62) 
[H]c1c([H])c([H])c2c(c1[H])C([H])([H])C([H])([H])C([H])([H])C2([H])N([H])C(=O)C1([H])N(C(=O)C([H])(N([H])C(=O)C([H])(N([H])C([H])([H])[H])C([H])([H])[H])C(C([H])([H])[H])(C([H])([H])[H])C([H])([H])[H])C([H])([H])c2c([H])c(OC([H])([H])c3c([H])c(C([H])([H])[H])c(C([H])([H])[N+]4([H])C([H])([H])C([H])([H])N(C(=O)N5C([H])([H])C([H])([H])C([H])([H])C([H])(n6nc(-c7c([H])c([H])c(Oc8c([H])c([H])c(F)c([H])c8F)c([H])c7[H])c(C(=O)N([H])[H])c6N([H])[H])C5([H])[H])C([H])([H])C4([H])[H])c([H])c3OC([H])([H])[H])c([H])c([H])c2C1([H])[H]

$$$$
62:0:0
     RDKit          3D

 96105  0  0  1  0  0  0  0  0999 V2000
  -27.7460  -21.7720   18.1360 C   0  0  0  0  0  3  0  0  0  0  0  0
  -29.0790  -21.5140   17.7270 C   0  0  0  0  0  0  0  0  0  0  0  0
  -27.4750  -21.9360   19.5100 C   0  0  0  0  0  0  0  0  0  0  0  0
  -30.0270  -21.0930   18.7110 C   0  0  0  0  0  0  0  0  0  0  0  0
  -28.5980  -21.9810   20.3530 C   0  0  0  0  0  0  0  0  0  0  0  0
  -29.5440  -20.8930   20.0290 C   0  0  0  0  0  0  0  0  0  0  0  0
  -29.4080  -21.6080   16.2480 C   0  0  0  0  0  1  0  0  0  0  0  0
  -26.0870  -22.2550   20.0160 C   0  0  0  0  0  1  0  0  0  0  0  0
  -30.6520  -14.9770   20.2330 C   0  0  0  0  0  0  0  0  0  0  0  0
  -30.4310  -12.6840   19.2060 C   0  0  0  0  0  2  0  0  0  0  0  0
  -29.4520  -12.7320   18.0110 C   0  0  0  0  0  2  0  0  0  0  0  0
  -28.0020  -12.5360   18.4910 C   0  0  0  0  0  2  0  0  0  0  0  0
  -27.6640  -13.4140   19.7260 C   0  0  0  0  0  3  0  0  0  0  0  0
  -28.7610  -13.3490   20.8110 C   0  0  0  0  0  2  0  0  0  0  0  0
  -30.0150  -13.7440   20.1670 N   0  0  0  0  0  0  0  0  0  0  0  0
  -31.8370  -15.0140   19.8810 O   0  0  0  0  0  0  0  0  0  0  0  0
  -28.9220  -18.4430   19.3550 C   0  0  0  0  0  3  0  0  0  0  0  0
  -30.1910  -18.6970   21.3700 C   0  0  0  0  0  3  0  0  0  0  0  0
  -29.8160  -17.1220   19.1780 C   0  0  0  0  0  3  0  0  0  0  0  0
  -29.8830  -17.1020   21.5410 C   0  0  0  0  0  3  0  0  0  0  0  0
  -29.3880  -19.4440   20.3590 N   0  0  0  0  0  0  0  0  0  0  0  0
  -29.9090  -16.1840   20.3400 N   0  0  0  0  0  0  0  0  0  0  0  0
  -25.3190  -14.0180   20.5570 C   0  0  0  0  0  0  0  0  0  0  0  0
  -24.2500  -13.2500   20.9320 C   0  0  0  0  0  0  0  0  0  0  0  0
  -24.6870  -11.8930   20.8400 C   0  0  0  0  0  0  0  0  0  0  0  0
  -26.3370  -13.1280   20.2570 N   0  0  0  0  0  0  0  0  0  0  0  0
  -25.9680  -11.8410   20.4870 N   0  0  0  0  0  0  0  0  0  0  0  0
  -23.9400  -10.6400   21.0140 C   0  0  0  0  0  0  0  0  0  0  0  0
  -24.3560   -9.6530   21.9350 C   0  0  0  0  0  3  0  0  0  0  0  0
  -23.6070   -8.4670   22.0980 C   0  0  0  0  0  3  0  0  0  0  0  0
  -22.4310   -8.2610   21.3380 C   0  0  0  0  0  0  0  0  0  0  0  0
  -22.0340   -9.2390   20.4090 C   0  0  0  0  0  3  0  0  0  0  0  0
  -22.7810  -10.4160   20.2430 C   0  0  0  0  0  3  0  0  0  0  0  0
  -21.6520   -7.1310   21.4110 O   0  0  0  0  0  0  0  0  0  0  0  0
  -21.5550   -6.3940   22.5650 C   0  0  0  0  0  0  0  0  0  0  0  0
  -21.0510   -6.9490   23.7600 C   0  0  0  0  0  3  0  0  0  0  0  0
  -20.9090   -6.1410   24.9060 C   0  0  0  0  0  3  0  0  0  0  0  0
  -21.2580   -4.7780   24.8540 C   0  0  0  0  0  0  0  0  0  0  0  0
  -21.7540   -4.2230   23.6620 C   0  0  0  0  0  3  0  0  0  0  0  0
  -21.9020   -5.0290   22.5190 C   0  0  0  0  0  0  0  0  0  0  0  0
  -22.3620   -4.4840   21.3650 F   0  0  0  0  0  0  0  0  0  0  0  0
  -21.1140   -3.9980   25.9510 F   0  0  0  0  0  0  0  0  0  0  0  0
  -22.8770  -13.7530   21.2610 C   0  0  0  0  0  0  0  0  0  0  0  0
  -22.1600  -13.0450   22.1250 N   0  0  0  0  0  0  0  0  0  0  0  0
  -22.4510  -14.8080   20.7980 O   0  0  0  0  0  0  0  0  0  0  0  0
  -22.5230  -12.1930   22.5260 H   0  0  0  0  0  0  0  0  0  0  0  0
  -21.2400  -13.3660   22.3920 H   0  0  0  0  0  0  0  0  0  0  0  0
  -25.4980  -15.3900   20.4260 N   0  0  0  0  0  0  0  0  0  0  0  0
  -24.7380  -16.0430   20.5940 H   0  0  0  0  0  0  0  0  0  0  0  0
  -26.3520  -15.8410   20.1180 H   0  0  0  0  0  0  0  0  0  0  0  0
  -31.8560  -19.7610   17.3910 C   0  0  0  0  0  1  0  0  0  0  0  0
  -31.5020  -20.8350   18.4280 C   0  0  0  0  0  2  0  0  0  0  0  0
  -30.5020  -23.6520   20.9720 C   0  0  0  0  0  1  0  0  0  0  0  0
  -28.9820  -23.5330   20.7370 C   0  0  0  0  0  3  0  0  0  0  0  0
  -28.4140  -24.8630   19.8750 C   0  0  0  0  0  2  0  0  0  0  0  0
  -28.4390  -26.3570   20.2900 O   0  0  0  0  0  0  0  0  0  0  0  0
  -24.6390  -31.9040   23.1660 C   0  0  0  0  0  0  0  0  0  0  0  0
  -27.3340  -27.2710   20.1600 C   0  0  0  0  0  0  0  0  0  0  0  0
  -23.4760  -30.4870   21.5150 C   0  0  0  0  0  3  0  0  0  0  0  0
  -24.9630  -28.9440   20.0930 C   0  0  0  0  0  0  0  0  0  0  0  0
  -26.0200  -30.8080   21.3700 C   0  0  0  0  0  2  0  0  0  0  0  0
  -26.1220  -29.4190   20.7210 C   0  0  0  0  0  0  0  0  0  0  0  0
  -27.3020  -28.5970   20.7390 C   0  0  0  0  0  3  0  0  0  0  0  0
  -26.1530  -26.8950   19.4720 C   0  0  0  0  0  3  0  0  0  0  0  0
  -24.9910  -27.6980   19.4450 C   0  0  0  0  0  3  0  0  0  0  0  0
  -23.7130  -29.8030   20.1430 C   0  0  0  0  0  2  0  0  0  0  0  0
  -24.7310  -31.0900   22.0700 N   0  0  0  0  0  0  0  0  0  0  0  0
  -23.5440  -32.1700   23.6850 O   0  0  0  0  0  0  0  0  0  0  0  0
  -22.8130  -29.4670   22.4730 C   0  0  0  0  0  0  0  0  0  0  0  0
  -21.4860  -29.2860   22.3460 N   0  0  0  0  0  0  0  0  0  0  0  0
  -23.4870  -28.8400   23.2940 O   0  0  0  0  0  0  0  0  0  0  0  0
  -20.9970  -29.8410   21.6570 H   0  0  0  0  0  0  0  0  0  0  0  0
  -18.1130  -28.0770   22.8950 C   0  0  0  0  0  0  0  0  0  0  0  0
  -20.6770  -28.3360   23.1160 C   0  0  0  0  0  3  0  0  0  0  0  0
  -20.7610  -26.9160   22.5140 C   0  0  0  0  0  2  0  0  0  0  0  0
  -19.6430  -26.6120   21.5100 C   0  0  0  0  0  2  0  0  0  0  0  0
  -18.2750  -26.7410   22.1840 C   0  0  0  0  0  2  0  0  0  0  0  0
  -19.2390  -28.8320   23.3180 C   0  0  0  0  0  0  0  0  0  0  0  0
  -19.0340  -30.0760   23.9500 C   0  0  0  0  0  3  0  0  0  0  0  0
  -17.7320  -30.5790   24.1410 C   0  0  0  0  0  3  0  0  0  0  0  0
  -16.6210  -29.8280   23.7240 C   0  0  0  0  0  3  0  0  0  0  0  0
  -16.8120  -28.5700   23.1230 C   0  0  0  0  0  3  0  0  0  0  0  0
  -25.9000  -32.5580   23.8020 C   0  0  0  0  0  3  0  0  0  0  0  0
  -26.4240  -31.7810   25.0730 C   0  0  1  0  0  0  0  0  0  0  0  0
  -25.3240  -31.5050   26.1270 C   0  0  0  0  0  1  0  0  0  0  0  0
  -27.0430  -30.4220   24.6660 C   0  0  0  0  0  1  0  0  0  0  0  0
  -27.5540  -32.5900   25.7470 C   0  0  0  0  0  1  0  0  0  0  0  0
  -25.5570  -33.9460   24.1510 N   0  0  0  0  0  0  0  0  0  0  0  0
  -25.8690  -35.0130   23.4040 C   0  0  0  0  0  0  0  0  0  0  0  0
  -26.5410  -34.9300   22.3710 O   0  0  0  0  0  0  0  0  0  0  0  0
  -24.9500  -34.0740   24.9480 H   0  0  0  0  0  0  0  0  0  0  0  0
  -24.1130  -36.7760   23.0570 C   0  0  0  0  0  1  0  0  0  0  0  0
  -25.3590  -36.3920   23.8730 C   0  0  0  0  0  3  0  0  0  0  0  0
  -27.4710  -37.3130   24.7230 C   0  0  0  0  0  1  0  0  0  0  0  0
  -26.3770  -37.4620   23.7670 N   0  0  0  0  0  0  0  0  0  0  0  0
  -25.9590  -38.3790   23.9040 H   0  0  0  0  0  0  0  0  0  0  0  0
  1  3  1  0
  2  1  2  0
  2  4  1  0
  3  8  1  0
  3  5  2  0
  4  6  2  0
  5 54  1  0
  6  5  1  0
  6 21  1  0
  7  2  1  0
  9 22  1  0
 10 15  1  0
 11 12  1  0
 11 10  1  0
 13 12  1  0
 13 26  1  0
 13 14  1  0
 15  9  1  0
 15 14  1  0
 16  9  2  0
 17 21  1  0
 18 20  2  0
 19 17  2  0
 19 22  1  0
 21 18  1  0
 22 20  1  0
 23 24  2  0
 24 43  1  0
 25 24  1  0
 25 28  1  0
 26 27  1  0
 26 23  1  0
 27 25  2  0
 28 29  1  0
 29 30  2  0
 31 34  1  0
 31 30  1  0
 32 31  2  0
 33 32  1  0
 33 28  2  0
 34 35  1  0
 35 36  1  0
 36 37  2  0
 38 37  1  0
 38 42  1  0
 39 38  2  0
 40 35  2  0
 40 39  1  0
 41 40  1  0
 43 44  1  0
 44 47  1  0
 44 46  1  0
 45 43  2  0
 48 23  1  0
 48 49  1  0
 50 48  1  0
 51 52  1  0
 52  4  1  0
 54 53  1  0
 55 56  1  0
 55 54  1  0
 57 68  2  0
 58 56  1  0
 58 63  1  0
 59 67  1  0
 59 69  1  0
 60 66  1  0
 60 62  1  0
 61 67  1  0
 62 63  2  0
 62 61  1  0
 64 58  2  0
 65 64  1  0
 65 60  2  0
 66 59  1  0
 67 57  1  0
 69 71  2  0
 70 69  1  0
 72 70  1  0
 73 82  2  0
 73 78  1  0
 74 70  1  0
 74 78  1  0
 75 74  1  0
 76 77  1  0
 76 75  1  0
 77 73  1  0
 78 79  2  0
 79 80  1  0
 81 80  2  0
 82 81  1  0
 83 57  1  0
 83 88  1  0
 83 84  1  0
 84 87  1  1
 84 85  1  0
 86 84  1  0
 88 91  1  0
 89 93  1  0
 89 88  1  0
 90 89  2  0
 93 92  1  0
 95 93  1  0
 95 96  1  0
 95 94  1  0
M  ISO  4   9 100  22 100  55 101  56 101
M  END
>  <TORSDO>  (63) 
F 19

>  <SCORE>  (63) 
-14.053

>  <name>  (63) 
62

>  <ligand_id>  (63) 
62

>  <original_smiles>  (63) 
[H]c1c([H])c([H])c2c(c1[H])C([H])([H])C([H])([H])C([H])([H])C2([H])N([H])C(=O)C1([H])N(C(=O)C([H])(N([H])C(=O)C([H])(N([H])C([H])([H])[H])C([H])([H])[H])C(C([H])([H])[H])(C([H])([H])[H])C([H])([H])[H])C([H])([H])c2c([H])c(OC([H])([H])C([H])(c3c(N4C([H])([H])C([H])([H])N(C(=O)N5C([H])([H])C([H])([H])C([H])([H])C([H])(n6nc(-c7c([H])c([H])c(Oc8c([H])c([H])c(F)c([H])c8F)c([H])c7[H])c(C(=O)N([H])[H])c6N([H])[H])C5([H])[H])C([H])([H])C4([H])[H])c(C([H])([H])C([H])([H])[H])c(C([H])([H])[H])c([H])c3C([H])([H])[H])C([H])([H])[H])c([H])c([H])c2C1([H])[H]

>  <smiles>  (63) 
[H]c1c([H])c([H])c2c(c1[H])C([H])([H])C([H])([H])C([H])([H])C2([H])N([H])C(=O)C1([H])N(C(=O)C([H])(N([H])C(=O)C([H])(N([H])C([H])([H])[H])C([H])([H])[H])C(C([H])([H])[H])(C([H])([H])[H])C([H])([H])[H])C([H])([H])c2c([H])c(OC([H])([H])C([H])(c3c(N4C([H])([H])C([H])([H])N(C(=O)N5C([H])([H])C([H])([H])C([H])([H])C([H])(n6nc(-c7c([H])c([H])c(Oc8c([H])c([H])c(F)c([H])c8F)c([H])c7[H])c(C(=O)N([H])[H])c6N([H])[H])C5([H])[H])C([H])([H])C4([H])[H])c(C([H])([H])C([H])([H])[H])c(C([H])([H])[H])c([H])c3C([H])([H])[H])C([H])([H])[H])c([H])c([H])c2C1([H])[H]

$$$$
63:0:0
     RDKit          3D

 93101  0  0  1  0  0  0  0  0999 V2000
  -29.0620  -18.1520   16.8470 C   0  0  0  0  0  3  0  0  0  0  0  0
  -29.1570  -20.5150   16.7460 C   0  0  0  0  0  3  0  0  0  0  0  0
  -29.0580  -19.3200   16.0630 C   0  0  0  0  0  0  0  0  0  0  0  0
  -29.2730  -18.2090   18.2810 C   0  0  0  0  0  0  0  0  0  0  0  0
  -29.3550  -20.5680   18.1420 C   0  0  0  0  0  0  0  0  0  0  0  0
  -29.4600  -19.4130   18.8960 N   0  0  0  0  0  0  0  0  0  0  0  0
  -29.8360  -15.7740   18.1800 C   0  0  0  0  0  1  0  0  0  0  0  0
  -29.2730  -16.8570   19.1110 C   0  0  0  0  0  0  0  0  0  0  0  0
  -30.3770  -15.5980   21.2690 C   0  0  0  0  0  0  0  0  0  0  0  0
  -30.6400  -13.2410   20.5520 C   0  0  0  0  0  2  0  0  0  0  0  0
  -29.8750  -12.8420   19.2840 C   0  0  0  0  0  2  0  0  0  0  0  0
  -28.3100  -12.8570   19.4900 C   0  0  0  0  0  2  0  0  0  0  0  0
  -27.7350  -13.6680   20.7220 C   0  0  0  0  0  3  0  0  0  0  0  0
  -28.6600  -13.8060   21.9210 C   0  0  0  0  0  2  0  0  0  0  0  0
  -29.8970  -14.2950   21.2770 N   0  0  0  0  0  0  0  0  0  0  0  0
  -31.4980  -15.8050   21.7320 O   0  0  0  0  0  0  0  0  0  0  0  0
  -29.6990  -16.6440   20.5940 N   0  0  0  0  0  4  0  0  0  0  0  0
  -29.9820  -17.5340   21.0220 H   0  0  0  0  0  0  0  0  0  0  0  0
  -25.2200  -14.1050   21.0460 C   0  0  0  0  0  0  0  0  0  0  0  0
  -24.1330  -13.2660   21.2250 C   0  0  0  0  0  0  0  0  0  0  0  0
  -24.6920  -11.9850   21.3660 C   0  0  0  0  0  0  0  0  0  0  0  0
  -26.3430  -13.2910   21.0880 N   0  0  0  0  0  0  0  0  0  0  0  0
  -26.0140  -12.0080   21.3150 N   0  0  0  0  0  0  0  0  0  0  0  0
  -24.0180  -10.6640   21.3900 C   0  0  0  0  0  0  0  0  0  0  0  0
  -24.3640   -9.6910   22.3340 C   0  0  0  0  0  3  0  0  0  0  0  0
  -23.6660   -8.4670   22.3900 C   0  0  0  0  0  3  0  0  0  0  0  0
  -22.6270   -8.1710   21.4810 C   0  0  0  0  0  0  0  0  0  0  0  0
  -22.3400   -9.1170   20.4870 C   0  0  0  0  0  3  0  0  0  0  0  0
  -23.0230  -10.3560   20.4560 C   0  0  0  0  0  3  0  0  0  0  0  0
  -21.9280   -6.9960   21.4850 O   0  0  0  0  0  0  0  0  0  0  0  0
  -21.7840   -6.2290   22.6270 C   0  0  0  0  0  0  0  0  0  0  0  0
  -21.2030   -6.7290   23.8160 C   0  0  0  0  0  3  0  0  0  0  0  0
  -20.9870   -5.8750   24.9090 C   0  0  0  0  0  3  0  0  0  0  0  0
  -21.3950   -4.5250   24.8430 C   0  0  0  0  0  0  0  0  0  0  0  0
  -21.9780   -4.0320   23.6670 C   0  0  0  0  0  3  0  0  0  0  0  0
  -22.1770   -4.8770   22.5610 C   0  0  0  0  0  0  0  0  0  0  0  0
  -22.7150   -4.3780   21.4280 F   0  0  0  0  0  0  0  0  0  0  0  0
  -21.2270   -3.7020   25.8930 F   0  0  0  0  0  0  0  0  0  0  0  0
  -22.6750  -13.6530   21.1810 C   0  0  0  0  0  0  0  0  0  0  0  0
  -21.8970  -12.9090   21.9540 N   0  0  0  0  0  0  0  0  0  0  0  0
  -22.2470  -14.6150   20.5600 O   0  0  0  0  0  0  0  0  0  0  0  0
  -22.3450  -12.1380   22.4050 H   0  0  0  0  0  0  0  0  0  0  0  0
  -20.9080  -13.0750   22.1190 H   0  0  0  0  0  0  0  0  0  0  0  0
  -25.3370  -15.4680   20.7980 N   0  0  0  0  0  0  0  0  0  0  0  0
  -24.5700  -16.1360   20.6790 H   0  0  0  0  0  0  0  0  0  0  0  0
  -26.2520  -15.9060   20.7080 H   0  0  0  0  0  0  0  0  0  0  0  0
  -29.0350  -20.4110   13.8370 C   0  0  0  0  0  1  0  0  0  0  0  0
  -29.0100  -19.2160   14.6750 O   0  0  0  0  0  0  0  0  0  0  0  0
  -29.5080  -21.8190   18.7830 O   0  0  0  0  0  0  0  0  0  0  0  0
  -29.0850  -23.0700   18.0910 C   0  0  0  0  0  2  0  0  0  0  0  0
  -29.5670  -24.4600   18.6370 C   0  0  0  0  0  2  0  0  0  0  0  0
  -28.4170  -25.5550   18.6790 C   0  0  0  0  0  2  0  0  0  0  0  0
  -28.5180  -26.8910   19.3360 O   0  0  0  0  0  0  0  0  0  0  0  0
  -24.4430  -31.6540   23.0220 C   0  0  0  0  0  0  0  0  0  0  0  0
  -27.3080  -27.6090   19.5030 C   0  0  0  0  0  0  0  0  0  0  0  0
  -23.2910  -30.3290   21.2940 C   0  0  0  0  0  3  0  0  0  0  0  0
  -24.8130  -29.0060   19.7280 C   0  0  0  0  0  0  0  0  0  0  0  0
  -25.8060  -30.8400   21.0960 C   0  0  0  0  0  2  0  0  0  0  0  0
  -25.9690  -29.5280   20.3430 C   0  0  0  0  0  0  0  0  0  0  0  0
  -27.2080  -28.8260   20.2520 C   0  0  0  0  0  3  0  0  0  0  0  0
  -26.1040  -27.1190   18.9250 C   0  0  0  0  0  3  0  0  0  0  0  0
  -24.8860  -27.7900   19.0390 C   0  0  0  0  0  3  0  0  0  0  0  0
  -23.5210  -29.7970   19.8630 C   0  0  0  0  0  2  0  0  0  0  0  0
  -24.5350  -30.9490   21.8600 N   0  0  0  0  0  0  0  0  0  0  0  0
  -23.3510  -31.8160   23.5870 O   0  0  0  0  0  0  0  0  0  0  0  0
  -22.7280  -29.1760   22.1590 C   0  0  0  0  0  0  0  0  0  0  0  0
  -21.4210  -28.9020   22.0220 N   0  0  0  0  0  0  0  0  0  0  0  0
  -23.4620  -28.5430   22.9270 O   0  0  0  0  0  0  0  0  0  0  0  0
  -20.8760  -29.4780   21.3890 H   0  0  0  0  0  0  0  0  0  0  0  0
  -18.1660  -27.4000   22.4420 C   0  0  0  0  0  0  0  0  0  0  0  0
  -20.6980  -27.8480   22.7310 C   0  0  0  0  0  3  0  0  0  0  0  0
  -20.9100  -26.4710   22.0640 C   0  0  0  0  0  2  0  0  0  0  0  0
  -19.8300  -26.1230   21.0300 C   0  0  0  0  0  2  0  0  0  0  0  0
  -18.4470  -26.1150   21.6820 C   0  0  0  0  0  2  0  0  0  0  0  0
  -19.2240  -28.2200   22.9230 C   0  0  0  0  0  0  0  0  0  0  0  0
  -18.9070  -29.4230   23.5950 C   0  0  0  0  0  3  0  0  0  0  0  0
  -17.5660  -29.8080   23.7900 C   0  0  0  0  0  3  0  0  0  0  0  0
  -16.5240  -28.9890   23.3180 C   0  0  0  0  0  3  0  0  0  0  0  0
  -16.8260  -27.7870   22.6540 C   0  0  0  0  0  3  0  0  0  0  0  0
  -25.6990  -32.3220   23.6630 C   0  0  0  0  0  3  0  0  0  0  0  0
  -25.3070  -33.6760   24.0730 N   0  0  0  0  0  0  0  0  0  0  0  0
  -25.5970  -34.7870   23.3840 C   0  0  0  0  0  0  0  0  0  0  0  0
  -26.2920  -34.7830   22.3620 O   0  0  0  0  0  0  0  0  0  0  0  0
  -24.7040  -33.7570   24.8740 H   0  0  0  0  0  0  0  0  0  0  0  0
  -23.7940  -36.5150   23.0820 C   0  0  0  0  0  1  0  0  0  0  0  0
  -25.0240  -36.1190   23.9150 C   0  0  0  0  0  3  0  0  0  0  0  0
  -27.0770  -37.0410   24.8830 C   0  0  0  0  0  1  0  0  0  0  0  0
  -26.0040  -37.2240   23.9130 N   0  0  0  0  0  0  0  0  0  0  0  0
  -25.5450  -38.1070   24.1080 H   0  0  0  0  0  0  0  0  0  0  0  0
  -26.2700  -31.5020   24.8860 C   0  0  1  0  0  0  0  0  0  0  0  0
  -25.2000  -31.1470   25.9480 C   0  0  0  0  0  1  0  0  0  0  0  0
  -26.9270  -30.1780   24.4130 C   0  0  0  0  0  1  0  0  0  0  0  0
  -27.3770  -32.3210   25.5860 C   0  0  0  0  0  1  0  0  0  0  0  0
  1  4  2  0
  2  5  1  0
  3  2  2  0
  3  1  1  0
  4  6  1  0
  4  8  1  0
  5 49  1  0
  5  6  2  0
  7  8  1  0
  8 17  2  0
  9 15  1  0
  9 16  2  0
 10 15  1  0
 11 12  1  0
 11 10  1  0
 13 12  1  0
 13 22  1  0
 13 14  1  0
 15 14  1  0
 17 18  1  0
 17  9  1  0
 19 22  1  0
 19 20  2  0
 20 21  1  0
 21 24  1  0
 22 23  1  0
 23 21  2  0
 24 25  1  0
 25 26  2  0
 27 30  1  0
 27 26  1  0
 28 27  2  0
 29 28  1  0
 29 24  2  0
 30 31  1  0
 31 32  1  0
 32 33  2  0
 34 33  1  0
 34 38  1  0
 35 34  2  0
 36 31  2  0
 36 35  1  0
 37 36  1  0
 39 20  1  0
 39 40  1  0
 40 43  1  0
 40 42  1  0
 41 39  2  0
 44 19  1  0
 45 44  1  0
 46 44  1  0
 47 48  1  0
 48  3  1  0
 50 51  1  0
 50 49  1  0
 51 52  1  0
 52 53  1  0
 53 55  1  0
 54 65  2  0
 55 60  1  0
 56 64  1  0
 56 66  1  0
 57 63  1  0
 57 59  1  0
 58 64  1  0
 59 58  1  0
 60 59  2  0
 61 62  1  0
 61 55  2  0
 62 57  2  0
 63 56  1  0
 64 54  1  0
 66 68  2  0
 67 66  1  0
 69 67  1  0
 70 79  2  0
 70 75  1  0
 71 67  1  0
 71 75  1  0
 72 71  1  0
 73 74  1  0
 73 72  1  0
 74 70  1  0
 75 76  2  0
 76 77  1  0
 78 77  2  0
 79 78  1  0
 80 54  1  0
 80 81  1  0
 80 90  1  0
 81 84  1  0
 82 86  1  0
 82 81  1  0
 83 82  2  0
 86 85  1  0
 88 86  1  0
 88 89  1  0
 88 87  1  0
 90 93  1  1
 90 91  1  0
 92 90  1  0
M  ISO  4   9 100  17 100  52 101  53 101
M  END
>  <TORSDO>  (64) 
F 22

>  <SCORE>  (64) 
-9.629

>  <name>  (64) 
63

>  <ligand_id>  (64) 
63

>  <original_smiles>  (64) 
[H]c1c([H])c([H])c2c(c1[H])C([H])([H])C([H])([H])C([H])([H])C2([H])N([H])C(=O)C1([H])N(C(=O)C([H])(N([H])C(=O)C([H])(N([H])C([H])([H])[H])C([H])([H])[H])C(C([H])([H])[H])(C([H])([H])[H])C([H])([H])[H])C([H])([H])c2c([H])c(OC([H])([H])C([H])([H])C([H])([H])Oc3nc(C([H])(N([H])C(=O)N4C([H])([H])C([H])([H])C([H])([H])C([H])(n5nc(-c6c([H])c([H])c(Oc7c([H])c([H])c(F)c([H])c7F)c([H])c6[H])c(C(=O)N([H])[H])c5N([H])[H])C4([H])[H])C([H])([H])[H])c([H])c(OC([H])([H])[H])c3[H])c([H])c([H])c2C1([H])[H]

>  <smiles>  (64) 
[H]c1c([H])c([H])c2c(c1[H])C([H])([H])C([H])([H])C([H])([H])C2([H])N([H])C(=O)C1([H])N(C(=O)C([H])(N([H])C(=O)C([H])(N([H])C([H])([H])[H])C([H])([H])[H])C(C([H])([H])[H])(C([H])([H])[H])C([H])([H])[H])C([H])([H])c2c([H])c(OC([H])([H])C([H])([H])C([H])([H])Oc3nc(C([H])(N([H])C(=O)N4C([H])([H])C([H])([H])C([H])([H])C([H])(n5nc(-c6c([H])c([H])c(Oc7c([H])c([H])c(F)c([H])c7F)c([H])c6[H])c(C(=O)N([H])[H])c5N([H])[H])C4([H])[H])C([H])([H])[H])c([H])c(OC([H])([H])[H])c3[H])c([H])c([H])c2C1([H])[H]

$$$$
64:0:0
     RDKit          3D

 95104  0  0  1  0  0  0  0  0999 V2000
  -26.3480  -19.3470   19.0660 C   0  0  0  0  0  3  0  0  0  0  0  0
  -26.0000  -20.6560   19.3980 C   0  0  0  0  0  3  0  0  0  0  0  0
  -27.6890  -18.9810   19.1840 C   0  0  0  0  0  0  0  0  0  0  0  0
  -28.6940  -19.8370   19.6680 C   0  0  0  0  0  0  0  0  0  0  0  0
  -26.9820  -21.6200   19.7220 C   0  0  0  0  0  0  0  0  0  0  0  0
  -28.3850  -21.3020   19.7450 C   0  0  0  0  0  0  0  0  0  0  0  0
  -28.2190  -17.6860   18.6250 C   0  0  0  0  0  2  0  0  0  0  0  0
  -29.7330  -17.9400   18.5620 C   0  0  0  0  0  2  0  0  0  0  0  0
  -29.9850  -18.8860   19.7570 C   0  0  1  0  0  0  0  0  0  0  0  0
  -31.2610  -19.7240   19.5780 C   0  0  0  0  0  1  0  0  0  0  0  0
  -25.5810  -23.0630   20.9750 C   0  0  0  0  0  1  0  0  0  0  0  0
  -26.5320  -22.9000   19.9260 O   0  0  0  0  0  0  0  0  0  0  0  0
  -30.1840  -17.8430   21.0290 C   0  0  0  0  0  2  0  0  0  0  0  0
  -30.7680  -15.2070   21.0920 C   0  0  0  0  0  0  0  0  0  0  0  0
  -30.8140  -12.7880   20.4220 C   0  0  0  0  0  2  0  0  0  0  0  0
  -30.0680  -12.6360   19.0790 C   0  0  0  0  0  2  0  0  0  0  0  0
  -28.5620  -12.4220   19.3180 C   0  0  0  0  0  2  0  0  0  0  0  0
  -27.9700  -13.4460   20.3210 C   0  0  0  0  0  3  0  0  0  0  0  0
  -28.8560  -13.5980   21.5770 C   0  0  0  0  0  2  0  0  0  0  0  0
  -30.2090  -13.9450   21.1200 N   0  0  0  0  0  0  0  0  0  0  0  0
  -31.9890  -15.3290   20.9660 O   0  0  0  0  0  0  0  0  0  0  0  0
  -29.9240  -16.3130   21.0070 N   0  0  0  0  0  0  0  0  0  0  0  0
  -28.9480  -16.0620   21.0360 H   0  0  0  0  0  0  0  0  0  0  0  0
  -25.5110  -14.0170   20.7630 C   0  0  0  0  0  0  0  0  0  0  0  0
  -24.4170  -13.2370   21.0150 C   0  0  0  0  0  0  0  0  0  0  0  0
  -24.8940  -11.8900   21.0550 C   0  0  0  0  0  0  0  0  0  0  0  0
  -26.5820  -13.1470   20.6580 N   0  0  0  0  0  0  0  0  0  0  0  0
  -26.2130  -11.8630   20.9020 N   0  0  0  0  0  0  0  0  0  0  0  0
  -24.1620  -10.6230   21.1740 C   0  0  0  0  0  0  0  0  0  0  0  0
  -24.5150   -9.6510   22.1360 C   0  0  0  0  0  3  0  0  0  0  0  0
  -23.7810   -8.4500   22.2410 C   0  0  0  0  0  3  0  0  0  0  0  0
  -22.6800   -8.2130   21.3850 C   0  0  0  0  0  0  0  0  0  0  0  0
  -22.3520   -9.1730   20.4130 C   0  0  0  0  0  3  0  0  0  0  0  0
  -23.0850  -10.3660   20.3040 C   0  0  0  0  0  3  0  0  0  0  0  0
  -21.9250   -7.0650   21.3980 O   0  0  0  0  0  0  0  0  0  0  0  0
  -21.8040   -6.2980   22.5290 C   0  0  0  0  0  0  0  0  0  0  0  0
  -21.2810   -6.8210   23.7320 C   0  0  0  0  0  3  0  0  0  0  0  0
  -21.1070   -5.9780   24.8490 C   0  0  0  0  0  3  0  0  0  0  0  0
  -21.4470   -4.6150   24.7640 C   0  0  0  0  0  0  0  0  0  0  0  0
  -21.9650   -4.0920   23.5640 C   0  0  0  0  0  3  0  0  0  0  0  0
  -22.1410   -4.9310   22.4510 C   0  0  0  0  0  0  0  0  0  0  0  0
  -22.6190   -4.4180   21.2910 F   0  0  0  0  0  0  0  0  0  0  0  0
  -21.2750   -3.8040   25.8330 F   0  0  0  0  0  0  0  0  0  0  0  0
  -22.9930  -13.7050   21.1090 C   0  0  0  0  0  0  0  0  0  0  0  0
  -22.1750  -13.0160   21.8940 N   0  0  0  0  0  0  0  0  0  0  0  0
  -22.6120  -14.7160   20.5220 O   0  0  0  0  0  0  0  0  0  0  0  0
  -22.4970  -12.1980   22.3900 H   0  0  0  0  0  0  0  0  0  0  0  0
  -21.2130  -13.3070   21.9970 H   0  0  0  0  0  0  0  0  0  0  0  0
  -25.6820  -15.3870   20.5900 N   0  0  0  0  0  0  0  0  0  0  0  0
  -24.9010  -16.0330   20.6210 H   0  0  0  0  0  0  0  0  0  0  0  0
  -26.5520  -15.8380   20.3440 H   0  0  0  0  0  0  0  0  0  0  0  0
  -29.3120  -22.4020   19.7070 O   0  0  0  0  0  0  0  0  0  0  0  0
  -29.0960  -23.8360   20.2050 C   0  0  0  0  0  3  0  0  0  0  0  0
  -28.4280  -25.1080   19.3860 C   0  0  0  0  0  3  0  0  0  0  0  0
  -28.4790  -26.5770   19.8360 O   0  0  0  0  0  0  0  0  0  0  0  0
  -24.5520  -31.8120   23.0990 C   0  0  0  0  0  0  0  0  0  0  0  0
  -27.3500  -27.4580   19.7990 C   0  0  0  0  0  0  0  0  0  0  0  0
  -23.4170  -30.4660   21.3740 C   0  0  0  0  0  3  0  0  0  0  0  0
  -24.9360  -29.0520   19.8700 C   0  0  0  0  0  0  0  0  0  0  0  0
  -25.9520  -30.8670   21.2380 C   0  0  0  0  0  2  0  0  0  0  0  0
  -26.0870  -29.5230   20.5120 C   0  0  0  0  0  0  0  0  0  0  0  0
  -27.2930  -28.7370   20.4730 C   0  0  0  0  0  3  0  0  0  0  0  0
  -26.1730  -27.0860   19.1150 C   0  0  0  0  0  3  0  0  0  0  0  0
  -24.9860  -27.8440   19.1660 C   0  0  0  0  0  3  0  0  0  0  0  0
  -23.6650  -29.8810   19.9580 C   0  0  0  0  0  2  0  0  0  0  0  0
  -24.6590  -31.0690   21.9580 N   0  0  0  0  0  0  0  0  0  0  0  0
  -23.4550  -32.0160   23.6390 O   0  0  0  0  0  0  0  0  0  0  0  0
  -22.7900  -29.3710   22.2740 C   0  0  0  0  0  0  0  0  0  0  0  0
  -21.4640  -29.1740   22.1610 N   0  0  0  0  0  0  0  0  0  0  0  0
  -23.4970  -28.7060   23.0390 O   0  0  0  0  0  0  0  0  0  0  0  0
  -20.9510  -29.7640   21.5210 H   0  0  0  0  0  0  0  0  0  0  0  0
  -18.1260  -27.8710   22.6530 C   0  0  0  0  0  0  0  0  0  0  0  0
  -20.6830  -28.1630   22.8780 C   0  0  0  0  0  3  0  0  0  0  0  0
  -20.7990  -26.7790   22.1970 C   0  0  0  0  0  2  0  0  0  0  0  0
  -19.6770  -26.5120   21.1870 C   0  0  0  0  0  2  0  0  0  0  0  0
  -18.3100  -26.5810   21.8710 C   0  0  0  0  0  2  0  0  0  0  0  0
  -19.2390  -28.6210   23.1130 C   0  0  0  0  0  0  0  0  0  0  0  0
  -19.0100  -29.8330   23.8030 C   0  0  0  0  0  3  0  0  0  0  0  0
  -17.7000  -30.2920   24.0330 C   0  0  0  0  0  3  0  0  0  0  0  0
  -16.6010  -29.5380   23.5870 C   0  0  0  0  0  3  0  0  0  0  0  0
  -16.8150  -28.3290   22.9020 C   0  0  0  0  0  3  0  0  0  0  0  0
  -25.8060  -32.4630   23.7630 C   0  0  0  0  0  3  0  0  0  0  0  0
  -25.4460  -33.8370   24.1370 N   0  0  0  0  0  0  0  0  0  0  0  0
  -25.7520  -34.9300   23.4240 C   0  0  0  0  0  0  0  0  0  0  0  0
  -26.4360  -34.8880   22.3970 O   0  0  0  0  0  0  0  0  0  0  0  0
  -24.8330  -33.9380   24.9320 H   0  0  0  0  0  0  0  0  0  0  0  0
  -23.9580  -36.6710   23.1430 C   0  0  0  0  0  1  0  0  0  0  0  0
  -25.2180  -36.2840   23.9330 C   0  0  0  0  0  3  0  0  0  0  0  0
  -27.3230  -37.2200   24.7870 C   0  0  0  0  0  1  0  0  0  0  0  0
  -26.2120  -37.3770   23.8540 N   0  0  0  0  0  0  0  0  0  0  0  0
  -25.7700  -38.2760   24.0330 H   0  0  0  0  0  0  0  0  0  0  0  0
  -26.3230  -31.6650   25.0240 C   0  0  1  0  0  0  0  0  0  0  0  0
  -25.2250  -31.3810   26.0720 C   0  0  0  0  0  1  0  0  0  0  0  0
  -26.9420  -30.3120   24.6060 C   0  0  0  0  0  1  0  0  0  0  0  0
  -27.4470  -32.4670   25.7270 C   0  0  0  0  0  1  0  0  0  0  0  0
  1  3  2  0
  1  2  1  0
  2  5  2  0
  3  4  1  0
  4  6  2  0
  4  9  1  0
  5  6  1  0
  5 12  1  0
  7  3  1  0
  8  7  1  0
  8  9  1  0
  9 10  1  6
  9 13  1  0
 12 11  1  0
 14 20  1  0
 15 20  1  0
 16 17  1  0
 16 15  1  0
 18 17  1  0
 18 27  1  0
 18 19  1  0
 20 19  1  0
 21 14  2  0
 22 13  1  0
 22 23  1  0
 22 14  1  0
 24 25  2  0
 25 26  1  0
 25 44  1  0
 26 29  1  0
 27 24  1  0
 27 28  1  0
 28 26  2  0
 29 30  1  0
 30 31  2  0
 32 35  1  0
 32 31  1  0
 33 32  2  0
 34 33  1  0
 34 29  2  0
 35 36  1  0
 36 37  1  0
 37 38  2  0
 39 38  1  0
 39 43  1  0
 40 39  2  0
 41 36  2  0
 41 40  1  0
 42 41  1  0
 44 45  1  0
 45 48  1  0
 45 47  1  0
 46 44  2  0
 49 50  1  0
 49 24  1  0
 51 49  1  0
 52  6  1  0
 52 53  1  0
 54 55  1  0
 54 53  2  0
 56 67  2  0
 57 55  1  0
 57 62  1  0
 58 66  1  0
 58 68  1  0
 59 65  1  0
 59 61  1  0
 60 66  1  0
 61 60  1  0
 62 61  2  0
 63 64  1  0
 63 57  2  0
 64 59  2  0
 65 58  1  0
 66 56  1  0
 68 70  2  0
 69 68  1  0
 71 69  1  0
 72 81  2  0
 72 77  1  0
 73 69  1  0
 73 77  1  0
 74 73  1  0
 75 76  1  0
 75 74  1  0
 76 72  1  0
 77 78  2  0
 78 79  1  0
 80 79  2  0
 81 80  1  0
 82 56  1  0
 82 83  1  0
 82 92  1  0
 83 86  1  0
 84 88  1  0
 84 83  1  0
 85 84  2  0
 88 87  1  0
 90 88  1  0
 90 91  1  0
 90 89  1  0
 92 95  1  1
 92 93  1  0
 94 92  1  0
M  ISO  4  14 100  22 100  54 101  55 101
M  END
>  <TORSDO>  (65) 
F 21

>  <SCORE>  (65) 
-11.971

>  <name>  (65) 
64

>  <ligand_id>  (65) 
64

>  <original_smiles>  (65) 
[H]c1c([H])c([H])c2c(c1[H])C([H])([H])C([H])([H])C([H])([H])C2([H])N([H])C(=O)C1([H])N(C(=O)C([H])(N([H])C(=O)C([H])(N([H])C([H])([H])[H])C([H])([H])[H])C(C([H])([H])[H])(C([H])([H])[H])C([H])([H])[H])C([H])([H])c2c([H])c(OC([H])([H])C([H])([H])Oc3c(OC([H])([H])[H])c([H])c([H])c4c3C(C([H])([H])[H])(C([H])([H])N([H])C(=O)N3C([H])([H])C([H])([H])C([H])([H])C([H])(n5nc(-c6c([H])c([H])c(Oc7c([H])c([H])c(F)c([H])c7F)c([H])c6[H])c(C(=O)N([H])[H])c5N([H])[H])C3([H])[H])C([H])([H])C4([H])[H])c([H])c([H])c2C1([H])[H]

>  <smiles>  (65) 
[H]c1c([H])c([H])c2c(c1[H])C([H])([H])C([H])([H])C([H])([H])C2([H])N([H])C(=O)C1([H])N(C(=O)C([H])(N([H])C(=O)C([H])(N([H])C([H])([H])[H])C([H])([H])[H])C(C([H])([H])[H])(C([H])([H])[H])C([H])([H])[H])C([H])([H])c2c([H])c(OC([H])([H])C([H])([H])Oc3c(OC([H])([H])[H])c([H])c([H])c4c3C(C([H])([H])[H])(C([H])([H])N([H])C(=O)N3C([H])([H])C([H])([H])C([H])([H])C([H])(n5nc(-c6c([H])c([H])c(Oc7c([H])c([H])c(F)c([H])c7F)c([H])c6[H])c(C(=O)N([H])[H])c5N([H])[H])C3([H])[H])C([H])([H])C4([H])[H])c([H])c([H])c2C1([H])[H]

$$$$
65:0:0
     RDKit          3D

 97106  0  0  1  0  0  0  0  0999 V2000
  -28.7990  -23.3510   18.2480 C   0  0  0  0  0  3  0  0  0  0  0  0
  -30.7330  -22.8660   20.1860 C   0  0  0  0  0  3  0  0  0  0  0  0
  -29.3400  -22.0490   18.3790 C   0  0  0  0  0  0  0  0  0  0  0  0
  -30.3400  -21.7930   19.3500 C   0  0  0  0  0  0  0  0  0  0  0  0
  -29.2370  -24.4430   19.0330 C   0  0  0  0  0  0  0  0  0  0  0  0
  -30.2340  -24.1900   20.0230 C   0  0  0  0  0  0  0  0  0  0  0  0
  -28.8590  -20.9620   17.4300 C   0  0  0  0  0  1  0  0  0  0  0  0
  -32.3460  -25.3490   20.9390 C   0  0  0  0  0  1  0  0  0  0  0  0
  -30.2270  -25.2620   22.3130 C   0  0  0  0  0  1  0  0  0  0  0  0
  -30.8070  -25.3150   20.8930 C   0  0  0  0  0  3  0  0  0  0  0  0
  -31.1050  -20.4480   19.4300 C   0  0  0  0  0  2  0  0  0  0  0  0
  -29.1970  -17.7410   21.1990 C   0  0  0  0  0  2  0  0  0  0  0  0
  -29.3620  -19.2180   20.7720 C   0  0  0  0  0  2  0  0  0  0  0  0
  -31.0200  -17.9290   19.6670 C   0  0  0  0  0  2  0  0  0  0  0  0
  -29.9470  -16.9280   20.1350 C   0  0  0  0  0  3  0  0  0  0  0  0
  -30.2770  -19.2210   19.6080 N   0  0  2  0  0  4  0  0  0  0  0  0
  -29.6890  -19.1610   18.7920 H   0  0  0  0  0  0  0  0  0  0  0  0
  -31.0190  -14.6170   19.9470 C   0  0  0  0  0  0  0  0  0  0  0  0
  -30.7500  -12.3760   18.9390 C   0  0  0  0  0  2  0  0  0  0  0  0
  -29.7360  -12.4950   17.7790 C   0  0  0  0  0  2  0  0  0  0  0  0
  -28.2860  -12.3660   18.2890 C   0  0  0  0  0  2  0  0  0  0  0  0
  -28.0060  -13.2690   19.5200 C   0  0  0  0  0  3  0  0  0  0  0  0
  -29.1170  -13.0900   20.5810 C   0  0  0  0  0  2  0  0  0  0  0  0
  -30.4160  -13.3950   19.9460 N   0  0  0  0  0  0  0  0  0  0  0  0
  -32.0420  -14.8710   19.3030 O   0  0  0  0  0  0  0  0  0  0  0  0
  -30.3200  -15.5710   20.5910 N   0  0  0  0  0  0  0  0  0  0  0  0
  -29.6370  -15.1640   21.2140 H   0  0  0  0  0  0  0  0  0  0  0  0
  -25.6730  -13.9280   20.3930 C   0  0  0  0  0  0  0  0  0  0  0  0
  -24.6100  -13.1780   20.8200 C   0  0  0  0  0  0  0  0  0  0  0  0
  -25.0300  -11.8150   20.7310 C   0  0  0  0  0  0  0  0  0  0  0  0
  -26.6760  -13.0250   20.0770 N   0  0  0  0  0  0  0  0  0  0  0  0
  -26.2950  -11.7470   20.3330 N   0  0  0  0  0  0  0  0  0  0  0  0
  -24.2840  -10.5690   20.9460 C   0  0  0  0  0  0  0  0  0  0  0  0
  -24.6860   -9.6280   21.9190 C   0  0  0  0  0  3  0  0  0  0  0  0
  -23.9430   -8.4450   22.1210 C   0  0  0  0  0  3  0  0  0  0  0  0
  -22.7840   -8.1940   21.3490 C   0  0  0  0  0  0  0  0  0  0  0  0
  -22.4020   -9.1230   20.3650 C   0  0  0  0  0  3  0  0  0  0  0  0
  -23.1440  -10.2980   20.1620 C   0  0  0  0  0  3  0  0  0  0  0  0
  -22.0150   -7.0620   21.4570 O   0  0  0  0  0  0  0  0  0  0  0  0
  -21.8280   -6.4300   22.6610 C   0  0  0  0  0  0  0  0  0  0  0  0
  -21.2480   -7.0910   23.7660 C   0  0  0  0  0  3  0  0  0  0  0  0
  -21.0100   -6.3850   24.9630 C   0  0  0  0  0  3  0  0  0  0  0  0
  -21.3430   -5.0190   25.0530 C   0  0  0  0  0  0  0  0  0  0  0  0
  -21.9150   -4.3590   23.9520 C   0  0  0  0  0  3  0  0  0  0  0  0
  -22.1540   -5.0630   22.7580 C   0  0  0  0  0  0  0  0  0  0  0  0
  -22.6870   -4.4160   21.6940 F   0  0  0  0  0  0  0  0  0  0  0  0
  -21.1060   -4.3400   26.2000 F   0  0  0  0  0  0  0  0  0  0  0  0
  -23.2490  -13.6860   21.2000 C   0  0  0  0  0  0  0  0  0  0  0  0
  -22.5730  -13.0050   22.1190 N   0  0  0  0  0  0  0  0  0  0  0  0
  -22.7950  -14.7220   20.7160 O   0  0  0  0  0  0  0  0  0  0  0  0
  -22.9520  -12.1660   22.5320 H   0  0  0  0  0  0  0  0  0  0  0  0
  -21.6620  -13.3270   22.4130 H   0  0  0  0  0  0  0  0  0  0  0  0
  -25.8640  -15.2970   20.2320 N   0  0  0  0  0  0  0  0  0  0  0  0
  -25.1190  -15.9660   20.3960 H   0  0  0  0  0  0  0  0  0  0  0  0
  -26.6950  -15.7180   19.8370 H   0  0  0  0  0  0  0  0  0  0  0  0
  -28.6990  -25.8450   18.6460 C   0  0  0  0  0  2  0  0  0  0  0  0
  -28.3850  -26.7670   19.7090 O   0  0  0  0  0  0  0  0  0  0  0  0
  -24.4960  -31.6700   23.1200 C   0  0  0  0  0  0  0  0  0  0  0  0
  -27.1890  -27.4650   19.7240 C   0  0  0  0  0  0  0  0  0  0  0  0
  -23.2950  -30.3430   21.4140 C   0  0  0  0  0  3  0  0  0  0  0  0
  -24.7580  -28.9230   19.8780 C   0  0  0  0  0  0  0  0  0  0  0  0
  -25.8110  -30.7600   21.2060 C   0  0  0  0  0  2  0  0  0  0  0  0
  -25.9140  -29.4310   20.4800 C   0  0  0  0  0  0  0  0  0  0  0  0
  -27.1270  -28.7060   20.4080 C   0  0  0  0  0  3  0  0  0  0  0  0
  -26.0030  -26.9630   19.1410 C   0  0  0  0  0  3  0  0  0  0  0  0
  -24.7970  -27.6870   19.2110 C   0  0  0  0  0  3  0  0  0  0  0  0
  -23.4960  -29.7510   19.9940 C   0  0  0  0  0  2  0  0  0  0  0  0
  -24.5530  -30.9370   21.9720 N   0  0  0  0  0  0  0  0  0  0  0  0
  -23.4170  -31.8870   23.6900 O   0  0  0  0  0  0  0  0  0  0  0  0
  -22.6770  -29.2530   22.3210 C   0  0  0  0  0  0  0  0  0  0  0  0
  -21.3580  -29.0400   22.1890 N   0  0  0  0  0  0  0  0  0  0  0  0
  -23.3820  -28.6070   23.0990 O   0  0  0  0  0  0  0  0  0  0  0  0
  -20.8480  -29.6170   21.5350 H   0  0  0  0  0  0  0  0  0  0  0  0
  -18.0270  -27.7070   22.6150 C   0  0  0  0  0  0  0  0  0  0  0  0
  -20.5730  -28.0380   22.9100 C   0  0  0  0  0  3  0  0  0  0  0  0
  -20.7270  -26.6420   22.2660 C   0  0  0  0  0  2  0  0  0  0  0  0
  -19.6400  -26.3310   21.2320 C   0  0  0  0  0  2  0  0  0  0  0  0
  -18.2520  -26.3980   21.8740 C   0  0  0  0  0  2  0  0  0  0  0  0
  -19.1170  -28.4840   23.0860 C   0  0  0  0  0  0  0  0  0  0  0  0
  -18.8540  -29.7090   23.7360 C   0  0  0  0  0  3  0  0  0  0  0  0
  -17.5320  -30.1580   23.9190 C   0  0  0  0  0  3  0  0  0  0  0  0
  -16.4560  -29.3760   23.4660 C   0  0  0  0  0  3  0  0  0  0  0  0
  -16.7040  -28.1520   22.8190 C   0  0  0  0  0  3  0  0  0  0  0  0
  -25.7780  -32.2910   23.7590 C   0  0  0  0  0  3  0  0  0  0  0  0
  -26.3370  -31.4510   24.9740 C   0  0  1  0  0  0  0  0  0  0  0  0
  -25.2700  -31.1190   26.0440 C   0  0  0  0  0  1  0  0  0  0  0  0
  -26.9430  -30.1150   24.4830 C   0  0  0  0  0  1  0  0  0  0  0  0
  -27.4830  -32.2270   25.6650 C   0  0  0  0  0  1  0  0  0  0  0  0
  -25.4440  -33.6570   24.1830 N   0  0  0  0  0  0  0  0  0  0  0  0
  -25.7330  -34.7620   23.4850 C   0  0  0  0  0  0  0  0  0  0  0  0
  -26.3800  -34.7410   22.4340 O   0  0  0  0  0  0  0  0  0  0  0  0
  -24.8660  -33.7460   25.0070 H   0  0  0  0  0  0  0  0  0  0  0  0
  -23.9450  -36.5200   23.2900 C   0  0  0  0  0  1  0  0  0  0  0  0
  -25.2220  -36.1060   24.0390 C   0  0  0  0  0  3  0  0  0  0  0  0
  -27.3520  -37.0080   24.8620 C   0  0  0  0  0  1  0  0  0  0  0  0
  -26.2220  -37.1940   23.9570 N   0  0  0  0  0  0  0  0  0  0  0  0
  -25.7930  -38.0920   24.1660 H   0  0  0  0  0  0  0  0  0  0  0  0
  1  3  2  0
  1  5  1  0
  3  4  1  0
  4 11  1  0
  4  2  2  0
  5  6  2  0
  6  2  1  0
  6 10  1  0
  7  3  1  0
 10  8  1  0
 10  9  1  0
 11 16  1  0
 13 12  1  0
 14 15  1  0
 15 26  1  0
 15 12  1  0
 16 14  1  0
 16 13  1  0
 16 17  1  6
 18 26  1  0
 19 24  1  0
 20 21  1  0
 20 19  1  0
 22 21  1  0
 22 31  1  0
 22 23  1  0
 24 18  1  0
 24 23  1  0
 25 18  2  0
 26 27  1  0
 28 29  2  0
 29 48  1  0
 30 29  1  0
 30 33  1  0
 31 32  1  0
 31 28  1  0
 32 30  2  0
 33 34  1  0
 34 35  2  0
 36 39  1  0
 36 35  1  0
 37 36  2  0
 38 37  1  0
 38 33  2  0
 39 40  1  0
 40 45  2  0
 40 41  1  0
 41 42  2  0
 42 43  1  0
 43 47  1  0
 44 43  2  0
 45 44  1  0
 46 45  1  0
 48 49  1  0
 49 52  1  0
 49 51  1  0
 50 48  2  0
 53 28  1  0
 53 54  1  0
 55 53  1  0
 56  5  1  0
 56 57  1  0
 57 59  1  0
 58 69  2  0
 59 64  1  0
 60 68  1  0
 60 70  1  0
 61 67  1  0
 61 63  1  0
 62 68  1  0
 63 62  1  0
 64 63  2  0
 65 66  1  0
 65 59  2  0
 66 61  2  0
 67 60  1  0
 68 58  1  0
 70 72  2  0
 71 70  1  0
 73 71  1  0
 74 83  2  0
 74 79  1  0
 75 71  1  0
 75 79  1  0
 76 75  1  0
 77 78  1  0
 77 76  1  0
 78 74  1  0
 79 80  2  0
 80 81  1  0
 82 81  2  0
 83 82  1  0
 84 58  1  0
 84 89  1  0
 84 85  1  0
 85 88  1  1
 85 86  1  0
 87 85  1  0
 89 92  1  0
 90 94  1  0
 90 89  1  0
 91 90  2  0
 94 93  1  0
 96 94  1  0
 96 97  1  0
 96 95  1  0
M  ISO  4  18 100  26 100  56 101  57 101
M  END
>  <TORSDO>  (66) 
F 20

>  <SCORE>  (66) 
-12.654

>  <name>  (66) 
65

>  <ligand_id>  (66) 
65

>  <original_smiles>  (66) 
[H]c1c([H])c([H])c2c(c1[H])C([H])([H])C([H])([H])C([H])([H])C2([H])N([H])C(=O)C1([H])N(C(=O)C([H])(N([H])C(=O)C([H])(N([H])C([H])([H])[H])C([H])([H])[H])C(C([H])([H])[H])(C([H])([H])[H])C([H])([H])[H])C([H])([H])c2c([H])c(OC([H])([H])c3c([H])c(C([H])([H])[H])c(C([H])([H])[N+]4([H])C([H])([H])C([H])([H])C([H])(N([H])C(=O)N5C([H])([H])C([H])([H])C([H])([H])C([H])(n6nc(-c7c([H])c([H])c(Oc8c([H])c([H])c(F)c([H])c8F)c([H])c7[H])c(C(=O)N([H])[H])c6N([H])[H])C5([H])[H])C4([H])[H])c([H])c3C([H])(C([H])([H])[H])C([H])([H])[H])c([H])c([H])c2C1([H])[H]

>  <smiles>  (66) 
[H]c1c([H])c([H])c2c(c1[H])C([H])([H])C([H])([H])C([H])([H])C2([H])N([H])C(=O)C1([H])N(C(=O)C([H])(N([H])C(=O)C([H])(N([H])C([H])([H])[H])C([H])([H])[H])C(C([H])([H])[H])(C([H])([H])[H])C([H])([H])[H])C([H])([H])c2c([H])c(OC([H])([H])c3c([H])c(C([H])([H])[H])c(C([H])([H])[N+]4([H])C([H])([H])C([H])([H])C([H])(N([H])C(=O)N5C([H])([H])C([H])([H])C([H])([H])C([H])(n6nc(-c7c([H])c([H])c(Oc8c([H])c([H])c(F)c([H])c8F)c([H])c7[H])c(C(=O)N([H])[H])c6N([H])[H])C5([H])[H])C4([H])[H])c([H])c3C([H])(C([H])([H])[H])C([H])([H])[H])c([H])c([H])c2C1([H])[H]

$$$$
66:0:0
     RDKit          3D

 95104  0  0  1  0  0  0  0  0999 V2000
  -30.0500  -19.7180   18.9010 C   0  0  0  0  0  3  0  0  0  0  0  0
  -29.6160  -20.9260   20.9650 C   0  0  0  0  0  3  0  0  0  0  0  0
  -29.8490  -19.6980   20.2970 C   0  0  0  0  0  0  0  0  0  0  0  0
  -29.8850  -22.1590   18.8720 C   0  0  0  0  0  0  0  0  0  0  0  0
  -30.0580  -20.9360   18.1780 C   0  0  0  0  0  0  0  0  0  0  0  0
  -29.6150  -22.1580   20.2650 C   0  0  0  0  0  0  0  0  0  0  0  0
  -30.0580  -23.4630   18.1040 C   0  0  0  0  0  1  0  0  0  0  0  0
  -30.6960  -14.4520   20.1870 C   0  0  0  0  0  0  0  0  0  0  0  0
  -30.2790  -12.3650   18.9120 C   0  0  0  0  0  2  0  0  0  0  0  0
  -29.2690  -12.6190   17.7730 C   0  0  0  0  0  2  0  0  0  0  0  0
  -27.8220  -12.4540   18.2770 C   0  0  0  0  0  2  0  0  0  0  0  0
  -27.5720  -13.2290   19.5960 C   0  0  0  0  0  3  0  0  0  0  0  0
  -28.6900  -12.9260   20.6270 C   0  0  0  0  0  2  0  0  0  0  0  0
  -29.9720  -13.2990   20.0160 N   0  0  0  0  0  0  0  0  0  0  0  0
  -31.7550  -14.6140   19.5700 O   0  0  0  0  0  0  0  0  0  0  0  0
  -28.8460  -17.3440   20.5790 C   0  0  0  0  0  2  0  0  0  0  0  0
  -31.2970  -17.6960   21.0290 C   0  0  0  0  0  2  0  0  0  0  0  0
  -28.9770  -15.9910   21.3150 C   0  0  0  0  0  2  0  0  0  0  0  0
  -31.3080  -16.3020   21.7170 C   0  0  0  0  0  2  0  0  0  0  0  0
  -29.9000  -18.3630   21.0630 C   0  0  0  0  0  3  0  0  0  0  0  0
  -30.3130  -15.3870   21.1190 N   0  0  0  0  0  0  0  0  0  0  0  0
  -25.2240  -13.8530   20.4510 C   0  0  0  0  0  0  0  0  0  0  0  0
  -24.1730  -13.0830   20.8700 C   0  0  0  0  0  0  0  0  0  0  0  0
  -24.6210  -11.7290   20.7890 C   0  0  0  0  0  0  0  0  0  0  0  0
  -26.2470  -12.9660   20.1450 N   0  0  0  0  0  0  0  0  0  0  0  0
  -25.8900  -11.6830   20.4060 N   0  0  0  0  0  0  0  0  0  0  0  0
  -23.8990  -10.4690   20.9930 C   0  0  0  0  0  0  0  0  0  0  0  0
  -24.3620   -9.4900   21.8980 C   0  0  0  0  0  3  0  0  0  0  0  0
  -23.6380   -8.2930   22.0900 C   0  0  0  0  0  3  0  0  0  0  0  0
  -22.4380   -8.0680   21.3750 C   0  0  0  0  0  0  0  0  0  0  0  0
  -21.9940   -9.0360   20.4570 C   0  0  0  0  0  3  0  0  0  0  0  0
  -22.7180  -10.2240   20.2630 C   0  0  0  0  0  3  0  0  0  0  0  0
  -21.6820   -6.9270   21.4770 O   0  0  0  0  0  0  0  0  0  0  0  0
  -21.6580   -6.1830   22.6300 C   0  0  0  0  0  0  0  0  0  0  0  0
  -21.2520   -6.7360   23.8650 C   0  0  0  0  0  3  0  0  0  0  0  0
  -21.1760   -5.9190   25.0100 C   0  0  0  0  0  3  0  0  0  0  0  0
  -21.4940   -4.5500   24.9210 C   0  0  0  0  0  0  0  0  0  0  0  0
  -21.8930   -3.9980   23.6920 C   0  0  0  0  0  3  0  0  0  0  0  0
  -21.9710   -4.8120   22.5490 C   0  0  0  0  0  0  0  0  0  0  0  0
  -22.3360   -4.2700   21.3620 F   0  0  0  0  0  0  0  0  0  0  0  0
  -21.4120   -3.7620   26.0190 F   0  0  0  0  0  0  0  0  0  0  0  0
  -22.7980  -13.5670   21.2310 C   0  0  0  0  0  0  0  0  0  0  0  0
  -22.1150  -12.8580   22.1230 N   0  0  0  0  0  0  0  0  0  0  0  0
  -22.3390  -14.6070   20.7590 O   0  0  0  0  0  0  0  0  0  0  0  0
  -22.4960  -12.0140   22.5250 H   0  0  0  0  0  0  0  0  0  0  0  0
  -21.1930  -13.1600   22.4080 H   0  0  0  0  0  0  0  0  0  0  0  0
  -25.3840  -15.2250   20.2830 N   0  0  0  0  0  0  0  0  0  0  0  0
  -24.6230  -15.8760   20.4430 H   0  0  0  0  0  0  0  0  0  0  0  0
  -26.2070  -15.6640   19.8920 H   0  0  0  0  0  0  0  0  0  0  0  0
  -30.2520  -19.7930   16.0680 C   0  0  0  0  0  1  0  0  0  0  0  0
  -30.2500  -21.0030   16.8140 O   0  0  0  0  0  0  0  0  0  0  0  0
  -29.4610  -23.3290   20.9840 O   0  0  0  0  0  0  0  0  0  0  0  0
  -28.3270  -24.1650   20.6860 C   0  0  0  0  0  2  0  0  0  0  0  0
  -28.5340  -25.5860   21.2750 C   0  0  0  0  0  2  0  0  0  0  0  0
  -28.5010  -26.6440   20.3020 O   0  0  0  0  0  0  0  0  0  0  0  0
  -24.6260  -31.8500   23.2470 C   0  0  0  0  0  0  0  0  0  0  0  0
  -27.3390  -27.3780   20.2870 C   0  0  0  0  0  0  0  0  0  0  0  0
  -23.4550  -30.4260   21.5960 C   0  0  0  0  0  3  0  0  0  0  0  0
  -24.9420  -28.8710   20.2220 C   0  0  0  0  0  0  0  0  0  0  0  0
  -25.9800  -30.7930   21.4370 C   0  0  0  0  0  2  0  0  0  0  0  0
  -26.0850  -29.4110   20.8250 C   0  0  0  0  0  0  0  0  0  0  0  0
  -27.2900  -28.6730   20.8510 C   0  0  0  0  0  3  0  0  0  0  0  0
  -26.1820  -26.8450   19.6820 C   0  0  0  0  0  3  0  0  0  0  0  0
  -24.9850  -27.5870   19.6470 C   0  0  0  0  0  3  0  0  0  0  0  0
  -23.6930  -29.7260   20.2300 C   0  0  0  0  0  2  0  0  0  0  0  0
  -24.7050  -31.0370   22.1540 N   0  0  0  0  0  0  0  0  0  0  0  0
  -23.5340  -32.1260   23.7610 O   0  0  0  0  0  0  0  0  0  0  0  0
  -22.7840  -29.4180   22.5560 C   0  0  0  0  0  0  0  0  0  0  0  0
  -21.4600  -29.2390   22.4090 N   0  0  0  0  0  0  0  0  0  0  0  0
  -23.4510  -28.7960   23.3860 O   0  0  0  0  0  0  0  0  0  0  0  0
  -20.9840  -29.7910   21.7100 H   0  0  0  0  0  0  0  0  0  0  0  0
  -18.0710  -28.0800   22.8760 C   0  0  0  0  0  0  0  0  0  0  0  0
  -20.6280  -28.3110   23.1730 C   0  0  0  0  0  3  0  0  0  0  0  0
  -20.7220  -26.8780   22.5980 C   0  0  0  0  0  2  0  0  0  0  0  0
  -19.6270  -26.5670   21.5730 C   0  0  0  0  0  2  0  0  0  0  0  0
  -18.2410  -26.7270   22.2040 C   0  0  0  0  0  2  0  0  0  0  0  0
  -19.1920  -28.8310   23.3160 C   0  0  0  0  0  0  0  0  0  0  0  0
  -18.9820  -30.0990   23.9000 C   0  0  0  0  0  3  0  0  0  0  0  0
  -17.6810  -30.6150   24.0500 C   0  0  0  0  0  3  0  0  0  0  0  0
  -16.5730  -29.8600   23.6290 C   0  0  0  0  0  3  0  0  0  0  0  0
  -16.7690  -28.5940   23.0470 C   0  0  0  0  0  3  0  0  0  0  0  0
  -25.8980  -32.4880   23.8860 C   0  0  0  0  0  3  0  0  0  0  0  0
  -26.4020  -31.7190   25.1690 C   0  0  1  0  0  0  0  0  0  0  0  0
  -25.2960  -31.4660   26.2180 C   0  0  0  0  0  1  0  0  0  0  0  0
  -27.0050  -30.3490   24.7780 C   0  0  0  0  0  1  0  0  0  0  0  0
  -27.5360  -32.5210   25.8520 C   0  0  0  0  0  1  0  0  0  0  0  0
  -25.5810  -33.8860   24.2080 N   0  0  0  0  0  0  0  0  0  0  0  0
  -25.9110  -34.9350   23.4440 C   0  0  0  0  0  0  0  0  0  0  0  0
  -26.5900  -34.8300   22.4180 O   0  0  0  0  0  0  0  0  0  0  0  0
  -24.9830  -34.0420   25.0070 H   0  0  0  0  0  0  0  0  0  0  0  0
  -24.1710  -36.7090   23.0610 C   0  0  0  0  0  1  0  0  0  0  0  0
  -25.4090  -36.3220   23.8870 C   0  0  0  0  0  3  0  0  0  0  0  0
  -27.5280  -37.2320   24.7300 C   0  0  0  0  0  1  0  0  0  0  0  0
  -26.4340  -37.3840   23.7740 N   0  0  0  0  0  0  0  0  0  0  0  0
  -26.0180  -38.3010   23.9100 H   0  0  0  0  0  0  0  0  0  0  0  0
  1  3  1  0
  3  2  2  0
  4  6  2  0
  5  4  1  0
  5  1  2  0
  6  2  1  0
  6 52  1  0
  7  4  1  0
  8 21  1  0
  9 14  1  0
 10 11  1  0
 10  9  1  0
 12 11  1  0
 12 25  1  0
 12 13  1  0
 14  8  1  0
 14 13  1  0
 15  8  2  0
 16 20  1  0
 16 18  1  0
 17 20  1  0
 17 19  1  0
 20  3  1  0
 21 18  1  0
 21 19  1  0
 22 23  2  0
 23 42  1  0
 24 23  1  0
 24 27  1  0
 25 26  1  0
 25 22  1  0
 26 24  2  0
 27 28  1  0
 28 29  2  0
 30 33  1  0
 30 29  1  0
 31 30  2  0
 32 31  1  0
 32 27  2  0
 33 34  1  0
 34 35  1  0
 35 36  2  0
 37 36  1  0
 37 41  1  0
 38 37  2  0
 39 34  2  0
 39 38  1  0
 40 39  1  0
 42 43  1  0
 43 46  1  0
 43 45  1  0
 44 42  2  0
 47 48  1  0
 47 22  1  0
 49 47  1  0
 50 51  1  0
 51  5  1  0
 53 52  1  0
 53 54  1  0
 55 54  1  0
 56 67  2  0
 57 55  1  0
 57 62  1  0
 58 66  1  0
 58 68  1  0
 59 65  1  0
 59 61  1  0
 60 66  1  0
 61 62  2  0
 61 60  1  0
 63 57  2  0
 64 63  1  0
 64 59  2  0
 65 58  1  0
 66 56  1  0
 68 70  2  0
 69 68  1  0
 71 69  1  0
 72 81  2  0
 72 77  1  0
 73 69  1  0
 73 77  1  0
 74 73  1  0
 75 76  1  0
 75 74  1  0
 76 72  1  0
 77 78  2  0
 78 79  1  0
 80 79  2  0
 81 80  1  0
 82 56  1  0
 82 87  1  0
 82 83  1  0
 83 86  1  1
 83 84  1  0
 85 83  1  0
 87 90  1  0
 88 92  1  0
 88 87  1  0
 89 88  2  0
 92 91  1  0
 94 92  1  0
 94 95  1  0
 94 93  1  0
M  ISO  4   8 100  21 100  54 101  55 101
M  END
>  <TORSDO>  (67) 
F 20

>  <SCORE>  (67) 
-13.839

>  <name>  (67) 
66

>  <ligand_id>  (67) 
66

>  <original_smiles>  (67) 
[H]c1c([H])c([H])c2c(c1[H])C([H])([H])C([H])([H])C([H])([H])C2([H])N([H])C(=O)C1([H])N(C(=O)C([H])(N([H])C(=O)C([H])(N([H])C([H])([H])[H])C([H])([H])[H])C(C([H])([H])[H])(C([H])([H])[H])C([H])([H])[H])C([H])([H])c2c([H])c(OC([H])([H])C([H])([H])Oc3c([H])c(C4([H])C([H])([H])C([H])([H])N(C(=O)N5C([H])([H])C([H])([H])C([H])([H])C([H])(n6nc(-c7c([H])c([H])c(Oc8c([H])c([H])c(F)c([H])c8F)c([H])c7[H])c(C(=O)N([H])[H])c6N([H])[H])C5([H])[H])C([H])([H])C4([H])[H])c([H])c(OC([H])([H])[H])c3C([H])([H])[H])c([H])c([H])c2C1([H])[H]

>  <smiles>  (67) 
[H]c1c([H])c([H])c2c(c1[H])C([H])([H])C([H])([H])C([H])([H])C2([H])N([H])C(=O)C1([H])N(C(=O)C([H])(N([H])C(=O)C([H])(N([H])C([H])([H])[H])C([H])([H])[H])C(C([H])([H])[H])(C([H])([H])[H])C([H])([H])[H])C([H])([H])c2c([H])c(OC([H])([H])C([H])([H])Oc3c([H])c(C4([H])C([H])([H])C([H])([H])N(C(=O)N5C([H])([H])C([H])([H])C([H])([H])C([H])(n6nc(-c7c([H])c([H])c(Oc8c([H])c([H])c(F)c([H])c8F)c([H])c7[H])c(C(=O)N([H])[H])c6N([H])[H])C5([H])[H])C([H])([H])C4([H])[H])c([H])c(OC([H])([H])[H])c3C([H])([H])[H])c([H])c([H])c2C1([H])[H]

$$$$
67:0:0
     RDKit          3D

 94102  0  0  1  0  0  0  0  0999 V2000
  -29.2110  -21.2310   20.0110 C   0  0  0  0  0  3  0  0  0  0  0  0
  -29.6490  -19.8890   19.8700 C   0  0  0  0  0  0  0  0  0  0  0  0
  -30.5350  -19.9530   22.1420 C   0  0  0  0  0  0  0  0  0  0  0  0
  -30.3120  -19.2120   20.9380 C   0  0  0  0  0  0  0  0  0  0  0  0
  -30.0200  -21.2770   22.2950 C   0  0  0  0  0  0  0  0  0  0  0  0
  -29.3930  -21.9430   21.2150 C   0  0  0  0  0  0  0  0  0  0  0  0
  -29.4230  -19.2300   18.5150 C   0  0  0  0  0  1  0  0  0  0  0  0
  -31.3920  -19.3640   23.2590 C   0  0  0  0  0  1  0  0  0  0  0  0
  -30.1650  -22.0260   23.6170 C   0  0  0  0  0  1  0  0  0  0  0  0
  -30.8650  -17.7610   20.7320 C   0  0  0  0  0  2  0  0  0  0  0  0
  -31.3690  -16.0680   22.6540 C   0  0  0  0  0  1  0  0  0  0  0  0
  -30.3240  -16.5920   21.6390 C   0  0  0  0  0  3  0  0  0  0  0  0
  -30.3650  -14.5280   20.0970 C   0  0  0  0  0  0  0  0  0  0  0  0
  -30.0090  -12.4410   18.8040 C   0  0  0  0  0  2  0  0  0  0  0  0
  -28.9480  -12.6390   17.7040 C   0  0  0  0  0  2  0  0  0  0  0  0
  -27.5240  -12.4420   18.2580 C   0  0  0  0  0  2  0  0  0  0  0  0
  -27.2830  -13.2190   19.5780 C   0  0  0  0  0  3  0  0  0  0  0  0
  -28.4340  -12.9730   20.5760 C   0  0  0  0  0  2  0  0  0  0  0  0
  -29.6940  -13.3570   19.9130 N   0  0  0  0  0  0  0  0  0  0  0  0
  -31.4240  -14.7840   19.5160 O   0  0  0  0  0  0  0  0  0  0  0  0
  -29.7700  -15.4150   20.9260 N   0  0  0  0  0  0  0  0  0  0  0  0
  -28.8560  -15.1300   21.2440 H   0  0  0  0  0  0  0  0  0  0  0  0
  -24.9500  -13.7400   20.5300 C   0  0  0  0  0  0  0  0  0  0  0  0
  -23.9340  -12.9290   20.9620 C   0  0  0  0  0  0  0  0  0  0  0  0
  -24.4150  -11.5910   20.8300 C   0  0  0  0  0  0  0  0  0  0  0  0
  -25.9840  -12.8920   20.1660 N   0  0  0  0  0  0  0  0  0  0  0  0
  -25.6720  -11.5930   20.4060 N   0  0  0  0  0  0  0  0  0  0  0  0
  -23.7320  -10.3070   21.0310 C   0  0  0  0  0  0  0  0  0  0  0  0
  -24.2390   -9.3310   21.9170 C   0  0  0  0  0  3  0  0  0  0  0  0
  -23.5560   -8.1090   22.1060 C   0  0  0  0  0  3  0  0  0  0  0  0
  -22.3510   -7.8560   21.4060 C   0  0  0  0  0  0  0  0  0  0  0  0
  -21.8630   -8.8210   20.5100 C   0  0  0  0  0  3  0  0  0  0  0  0
  -22.5470  -10.0320   20.3190 C   0  0  0  0  0  3  0  0  0  0  0  0
  -21.6340   -6.6880   21.5080 O   0  0  0  0  0  0  0  0  0  0  0  0
  -21.6380   -5.9370   22.6560 C   0  0  0  0  0  0  0  0  0  0  0  0
  -21.2190   -6.4660   23.8950 C   0  0  0  0  0  3  0  0  0  0  0  0
  -21.1780   -5.6380   25.0350 C   0  0  0  0  0  3  0  0  0  0  0  0
  -21.5430   -4.2820   24.9360 C   0  0  0  0  0  0  0  0  0  0  0  0
  -21.9560   -3.7520   23.7000 C   0  0  0  0  0  3  0  0  0  0  0  0
  -22.0010   -4.5780   22.5630 C   0  0  0  0  0  0  0  0  0  0  0  0
  -22.3790   -4.0580   21.3710 F   0  0  0  0  0  0  0  0  0  0  0  0
  -21.4930   -3.4840   26.0280 F   0  0  0  0  0  0  0  0  0  0  0  0
  -22.5580  -13.3630   21.3740 C   0  0  0  0  0  0  0  0  0  0  0  0
  -21.9260  -12.6190   22.2760 N   0  0  0  0  0  0  0  0  0  0  0  0
  -22.0550  -14.3950   20.9340 O   0  0  0  0  0  0  0  0  0  0  0  0
  -22.3470  -11.7860   22.6580 H   0  0  0  0  0  0  0  0  0  0  0  0
  -21.0020  -12.8870   22.5880 H   0  0  0  0  0  0  0  0  0  0  0  0
  -25.0750  -15.1190   20.3970 N   0  0  0  0  0  0  0  0  0  0  0  0
  -24.3130  -15.7570   20.6060 H   0  0  0  0  0  0  0  0  0  0  0  0
  -25.8820  -15.5860   19.9990 H   0  0  0  0  0  0  0  0  0  0  0  0
  -28.9760  -23.2520   21.4140 O   0  0  0  0  0  0  0  0  0  0  0  0
  -28.9350  -24.2100   20.3410 C   0  0  0  0  0  2  0  0  0  0  0  0
  -28.6500  -25.6010   20.9870 C   0  0  0  0  0  2  0  0  0  0  0  0
  -28.6850  -26.7640   20.1240 O   0  0  0  0  0  0  0  0  0  0  0  0
  -24.5640  -31.7550   23.1650 C   0  0  0  0  0  0  0  0  0  0  0  0
  -27.5080  -27.4880   20.0960 C   0  0  0  0  0  0  0  0  0  0  0  0
  -23.4770  -30.3170   21.4730 C   0  0  0  0  0  3  0  0  0  0  0  0
  -25.0440  -28.8830   20.0560 C   0  0  0  0  0  0  0  0  0  0  0  0
  -25.9820  -30.8150   21.3360 C   0  0  0  0  0  2  0  0  0  0  0  0
  -26.1610  -29.4570   20.6790 C   0  0  0  0  0  0  0  0  0  0  0  0
  -27.3980  -28.7680   20.6940 C   0  0  0  0  0  3  0  0  0  0  0  0
  -26.3750  -26.9300   19.4690 C   0  0  0  0  0  3  0  0  0  0  0  0
  -25.1470  -27.6190   19.4480 C   0  0  0  0  0  3  0  0  0  0  0  0
  -23.7550  -29.6750   20.0860 C   0  0  0  0  0  2  0  0  0  0  0  0
  -24.6920  -30.9770   22.0510 N   0  0  0  0  0  0  0  0  0  0  0  0
  -23.4570  -31.9620   23.6820 O   0  0  0  0  0  0  0  0  0  0  0  0
  -22.8560  -29.2480   22.4010 C   0  0  0  0  0  0  0  0  0  0  0  0
  -21.5430  -29.0130   22.2500 N   0  0  0  0  0  0  0  0  0  0  0  0
  -23.5540  -28.6360   23.2130 O   0  0  0  0  0  0  0  0  0  0  0  0
  -21.0390  -29.5620   21.5700 H   0  0  0  0  0  0  0  0  0  0  0  0
  -18.2120  -27.6740   22.6910 C   0  0  0  0  0  0  0  0  0  0  0  0
  -20.7570  -28.0230   22.9890 C   0  0  0  0  0  3  0  0  0  0  0  0
  -20.9190  -26.6140   22.3760 C   0  0  0  0  0  2  0  0  0  0  0  0
  -19.8380  -26.2770   21.3450 C   0  0  0  0  0  2  0  0  0  0  0  0
  -18.4440  -26.3510   21.9800 C   0  0  0  0  0  2  0  0  0  0  0  0
  -19.2980  -28.4660   23.1490 C   0  0  0  0  0  0  0  0  0  0  0  0
  -19.0290  -29.7030   23.7730 C   0  0  0  0  0  3  0  0  0  0  0  0
  -17.7060  -30.1490   23.9480 C   0  0  0  0  0  3  0  0  0  0  0  0
  -16.6320  -29.3540   23.5080 C   0  0  0  0  0  3  0  0  0  0  0  0
  -16.8850  -28.1190   22.8840 C   0  0  0  0  0  3  0  0  0  0  0  0
  -25.7970  -32.4450   23.8280 C   0  0  0  0  0  3  0  0  0  0  0  0
  -25.4110  -33.8270   24.1440 N   0  0  0  0  0  0  0  0  0  0  0  0
  -25.7280  -34.8940   23.4000 C   0  0  0  0  0  0  0  0  0  0  0  0
  -26.4430  -34.8220   22.3950 O   0  0  0  0  0  0  0  0  0  0  0  0
  -24.7660  -33.9540   24.9100 H   0  0  0  0  0  0  0  0  0  0  0  0
  -23.9380  -36.6160   22.9800 C   0  0  0  0  0  1  0  0  0  0  0  0
  -25.1640  -36.2610   23.8370 C   0  0  0  0  0  3  0  0  0  0  0  0
  -27.2250  -37.2320   24.7500 C   0  0  0  0  0  1  0  0  0  0  0  0
  -26.1550  -37.3560   23.7650 N   0  0  0  0  0  0  0  0  0  0  0  0
  -25.7050  -38.2580   23.8990 H   0  0  0  0  0  0  0  0  0  0  0  0
  -26.3060  -31.6990   25.1200 C   0  0  1  0  0  0  0  0  0  0  0  0
  -25.1890  -31.4140   26.1530 C   0  0  0  0  0  1  0  0  0  0  0  0
  -26.9660  -30.3500   24.7510 C   0  0  0  0  0  1  0  0  0  0  0  0
  -27.4000  -32.5460   25.8160 C   0  0  0  0  0  1  0  0  0  0  0  0
  1  6  1  0
  2  1  2  0
  2  4  1  0
  3  5  1  0
  3  8  1  0
  4  3  2  0
  5  9  1  0
  6 51  1  0
  6  5  2  0
  7  2  1  0
 10  4  1  0
 10 12  1  0
 12 11  1  0
 13 21  1  0
 14 19  1  0
 15 16  1  0
 15 14  1  0
 17 16  1  0
 17 26  1  0
 17 18  1  0
 19 13  1  0
 19 18  1  0
 20 13  2  0
 21 22  1  0
 21 12  1  0
 23 24  2  0
 24 43  1  0
 25 24  1  0
 25 28  1  0
 26 27  1  0
 26 23  1  0
 27 25  2  0
 28 29  1  0
 29 30  2  0
 31 34  1  0
 31 30  1  0
 32 31  2  0
 33 32  1  0
 33 28  2  0
 34 35  1  0
 35 36  1  0
 36 37  2  0
 38 37  1  0
 38 42  1  0
 39 38  2  0
 40 35  2  0
 40 39  1  0
 41 40  1  0
 43 44  1  0
 44 47  1  0
 44 46  1  0
 45 43  2  0
 48 23  1  0
 48 49  1  0
 50 48  1  0
 52 53  1  0
 52 51  1  0
 54 53  1  0
 55 66  2  0
 56 54  1  0
 56 61  1  0
 57 65  1  0
 57 67  1  0
 58 64  1  0
 58 60  1  0
 59 65  1  0
 60 61  2  0
 60 59  1  0
 62 56  2  0
 63 62  1  0
 63 58  2  0
 64 57  1  0
 65 55  1  0
 67 69  2  0
 68 67  1  0
 70 68  1  0
 71 80  2  0
 71 76  1  0
 72 68  1  0
 72 76  1  0
 73 72  1  0
 74 75  1  0
 74 73  1  0
 75 71  1  0
 76 77  2  0
 77 78  1  0
 79 78  2  0
 80 79  1  0
 81 55  1  0
 81 82  1  0
 81 91  1  0
 82 85  1  0
 83 87  1  0
 83 82  1  0
 84 83  2  0
 87 86  1  0
 89 87  1  0
 89 90  1  0
 89 88  1  0
 91 94  1  1
 91 92  1  0
 93 91  1  0
M  ISO  4  13 100  21 100  53 101  54 101
M  END
>  <TORSDO>  (68) 
F 21

>  <SCORE>  (68) 
-12.500

>  <name>  (68) 
67

>  <ligand_id>  (68) 
67

>  <original_smiles>  (68) 
[H]c1c([H])c([H])c2c(c1[H])C([H])([H])C([H])([H])C([H])([H])C2([H])N([H])C(=O)C1([H])N(C(=O)C([H])(N([H])C(=O)C([H])(N([H])C([H])([H])[H])C([H])([H])[H])C(C([H])([H])[H])(C([H])([H])[H])C([H])([H])[H])C([H])([H])c2c([H])c(OC([H])([H])C([H])([H])Oc3c([H])c(C([H])([H])[H])c(C([H])([H])C([H])(N([H])C(=O)N4C([H])([H])C([H])([H])C([H])([H])C([H])(n5nc(-c6c([H])c([H])c(Oc7c([H])c([H])c(F)c([H])c7F)c([H])c6[H])c(C(=O)N([H])[H])c5N([H])[H])C4([H])[H])C([H])([H])[H])c(C([H])([H])[H])c3C([H])([H])[H])c([H])c([H])c2C1([H])[H]

>  <smiles>  (68) 
[H]c1c([H])c([H])c2c(c1[H])C([H])([H])C([H])([H])C([H])([H])C2([H])N([H])C(=O)C1([H])N(C(=O)C([H])(N([H])C(=O)C([H])(N([H])C([H])([H])[H])C([H])([H])[H])C(C([H])([H])[H])(C([H])([H])[H])C([H])([H])[H])C([H])([H])c2c([H])c(OC([H])([H])C([H])([H])Oc3c([H])c(C([H])([H])[H])c(C([H])([H])C([H])(N([H])C(=O)N4C([H])([H])C([H])([H])C([H])([H])C([H])(n5nc(-c6c([H])c([H])c(Oc7c([H])c([H])c(F)c([H])c7F)c([H])c6[H])c(C(=O)N([H])[H])c5N([H])[H])C4([H])[H])C([H])([H])[H])c(C([H])([H])[H])c3C([H])([H])[H])c([H])c([H])c2C1([H])[H]

$$$$
68:0:0
     RDKit          3D

 95104  0  0  1  0  0  0  0  0999 V2000
  -29.3880  -23.3880   21.1630 C   0  0  0  0  0  3  0  0  0  0  0  0
  -28.6800  -21.1940   19.5590 C   0  0  0  0  0  3  0  0  0  0  0  0
  -28.5950  -23.6390   20.0170 C   0  0  0  0  0  0  0  0  0  0  0  0
  -29.7970  -22.0610   21.5210 C   0  0  0  0  0  0  0  0  0  0  0  0
  -28.2530  -22.5050   19.2200 C   0  0  0  0  0  0  0  0  0  0  0  0
  -29.4330  -20.9320   20.7240 C   0  0  0  0  0  0  0  0  0  0  0  0
  -27.3510  -22.6460   18.0010 C   0  0  0  0  0  1  0  0  0  0  0  0
  -30.1300  -22.6280   23.9940 C   0  0  0  0  0  1  0  0  0  0  0  0
  -32.1290  -22.1970   22.4850 C   0  0  0  0  0  1  0  0  0  0  0  0
  -30.6580  -21.8580   22.7700 C   0  0  0  0  0  3  0  0  0  0  0  0
  -27.9060  -25.0030   19.6830 C   0  0  0  0  0  2  0  0  0  0  0  0
  -28.2220  -26.3330   20.2420 O   0  0  0  0  0  0  0  0  0  0  0  0
  -24.6430  -31.8110   23.3060 C   0  0  0  0  0  0  0  0  0  0  0  0
  -27.1570  -27.2580   20.1620 C   0  0  0  0  0  0  0  0  0  0  0  0
  -23.4140  -30.4660   21.6450 C   0  0  0  0  0  3  0  0  0  0  0  0
  -24.8340  -28.9350   20.1850 C   0  0  0  0  0  0  0  0  0  0  0  0
  -25.9630  -30.7320   21.4780 C   0  0  0  0  0  2  0  0  0  0  0  0
  -26.0120  -29.3690   20.8040 C   0  0  0  0  0  0  0  0  0  0  0  0
  -27.1760  -28.5400   20.7950 C   0  0  0  0  0  3  0  0  0  0  0  0
  -25.9570  -26.9160   19.4780 C   0  0  0  0  0  3  0  0  0  0  0  0
  -24.8090  -27.7130   19.5140 C   0  0  0  0  0  3  0  0  0  0  0  0
  -23.6150  -29.8280   20.2510 C   0  0  0  0  0  2  0  0  0  0  0  0
  -24.6910  -31.0190   22.1980 N   0  0  0  0  0  0  0  0  0  0  0  0
  -23.5630  -32.1030   23.8410 O   0  0  0  0  0  0  0  0  0  0  0  0
  -22.7350  -29.4360   22.5810 C   0  0  0  0  0  0  0  0  0  0  0  0
  -21.4090  -29.2720   22.4350 N   0  0  0  0  0  0  0  0  0  0  0  0
  -23.3970  -28.7960   23.4010 O   0  0  0  0  0  0  0  0  0  0  0  0
  -20.9350  -29.8410   21.7470 H   0  0  0  0  0  0  0  0  0  0  0  0
  -18.0120  -28.0970   22.8700 C   0  0  0  0  0  0  0  0  0  0  0  0
  -20.5680  -28.3360   23.1850 C   0  0  0  0  0  3  0  0  0  0  0  0
  -20.6700  -26.9060   22.6060 C   0  0  0  0  0  2  0  0  0  0  0  0
  -19.5840  -26.5960   21.5720 C   0  0  0  0  0  2  0  0  0  0  0  0
  -18.1910  -26.7490   22.1920 C   0  0  0  0  0  2  0  0  0  0  0  0
  -19.1300  -28.8490   23.3210 C   0  0  0  0  0  0  0  0  0  0  0  0
  -18.9090  -30.1110   23.9150 C   0  0  0  0  0  3  0  0  0  0  0  0
  -17.6060  -30.6210   24.0590 C   0  0  0  0  0  3  0  0  0  0  0  0
  -16.5030  -29.8660   23.6260 C   0  0  0  0  0  3  0  0  0  0  0  0
  -16.7070  -28.6050   23.0370 C   0  0  0  0  0  3  0  0  0  0  0  0
  -25.9380  -32.4060   23.9380 C   0  0  0  0  0  3  0  0  0  0  0  0
  -26.4180  -31.6230   25.2210 C   0  0  1  0  0  0  0  0  0  0  0  0
  -25.3050  -31.4150   26.2750 C   0  0  0  0  0  1  0  0  0  0  0  0
  -26.9700  -30.2270   24.8420 C   0  0  0  0  0  1  0  0  0  0  0  0
  -27.5810  -32.3870   25.8950 C   0  0  0  0  0  1  0  0  0  0  0  0
  -25.6650  -33.8130   24.2600 N   0  0  0  0  0  0  0  0  0  0  0  0
  -26.0040  -34.8510   23.4830 C   0  0  0  0  0  0  0  0  0  0  0  0
  -26.6560  -34.7260   22.4420 O   0  0  0  0  0  0  0  0  0  0  0  0
  -25.0910  -33.9880   25.0720 H   0  0  0  0  0  0  0  0  0  0  0  0
  -24.2960  -36.6670   23.1520 C   0  0  0  0  0  1  0  0  0  0  0  0
  -25.5520  -36.2540   23.9360 C   0  0  0  0  0  3  0  0  0  0  0  0
  -27.7290  -37.1070   24.6910 C   0  0  0  0  0  1  0  0  0  0  0  0
  -26.5960  -37.2910   23.7870 N   0  0  0  0  0  0  0  0  0  0  0  0
  -26.2080  -38.2140   23.9550 H   0  0  0  0  0  0  0  0  0  0  0  0
  -29.7540  -19.6260   21.1320 O   0  0  0  0  0  0  0  0  0  0  0  0
  -30.5240  -14.4800   20.2220 C   0  0  0  0  0  0  0  0  0  0  0  0
  -30.1540  -12.2730   19.1370 C   0  0  0  0  0  2  0  0  0  0  0  0
  -29.1710  -12.3920   17.9560 C   0  0  0  0  0  2  0  0  0  0  0  0
  -27.7260  -12.1940   18.4470 C   0  0  0  0  0  2  0  0  0  0  0  0
  -27.4070  -13.0610   19.6900 C   0  0  0  0  0  3  0  0  0  0  0  0
  -28.5190  -12.9810   20.7670 C   0  0  0  0  0  2  0  0  0  0  0  0
  -29.8000  -13.3130   20.1310 N   0  0  0  0  0  0  0  0  0  0  0  0
  -31.6420  -14.5430   19.7010 O   0  0  0  0  0  0  0  0  0  0  0  0
  -31.2880  -17.7660   20.6000 C   0  0  0  0  0  2  0  0  0  0  0  0
  -28.8810  -17.5700   19.8530 C   0  0  0  0  0  2  0  0  0  0  0  0
  -31.0030  -16.5480   21.5270 C   0  0  0  0  0  2  0  0  0  0  0  0
  -28.7790  -16.3020   20.7630 C   0  0  0  0  0  2  0  0  0  0  0  0
  -30.0340  -18.5730   20.1680 C   0  0  0  0  0  3  0  0  0  0  0  0
  -30.0620  -15.5790   20.9210 N   0  0  0  0  0  0  0  0  0  0  0  0
  -25.0460  -13.6330   20.5230 C   0  0  0  0  0  0  0  0  0  0  0  0
  -24.0110  -12.8480   20.9480 C   0  0  0  0  0  0  0  0  0  0  0  0
  -24.4930  -11.5040   20.9000 C   0  0  0  0  0  0  0  0  0  0  0  0
  -26.0910  -12.7670   20.2430 N   0  0  0  0  0  0  0  0  0  0  0  0
  -25.7690  -11.4810   20.5330 N   0  0  0  0  0  0  0  0  0  0  0  0
  -23.7970  -10.2310   21.1250 C   0  0  0  0  0  0  0  0  0  0  0  0
  -24.2590   -9.2970   22.0790 C   0  0  0  0  0  3  0  0  0  0  0  0
  -23.5600   -8.0890   22.2910 C   0  0  0  0  0  3  0  0  0  0  0  0
  -22.3870   -7.8080   21.5490 C   0  0  0  0  0  0  0  0  0  0  0  0
  -21.9470   -8.7300   20.5830 C   0  0  0  0  0  3  0  0  0  0  0  0
  -22.6480   -9.9300   20.3700 C   0  0  0  0  0  3  0  0  0  0  0  0
  -21.6610   -6.6490   21.6690 O   0  0  0  0  0  0  0  0  0  0  0  0
  -21.6070   -5.9510   22.8490 C   0  0  0  0  0  0  0  0  0  0  0  0
  -21.1280   -6.5360   24.0420 C   0  0  0  0  0  3  0  0  0  0  0  0
  -21.0270   -5.7630   25.2160 C   0  0  0  0  0  3  0  0  0  0  0  0
  -21.3950   -4.4030   25.1970 C   0  0  0  0  0  0  0  0  0  0  0  0
  -21.8650   -3.8170   24.0090 C   0  0  0  0  0  3  0  0  0  0  0  0
  -21.9680   -4.5890   22.8390 C   0  0  0  0  0  0  0  0  0  0  0  0
  -22.4010   -4.0150   21.6920 F   0  0  0  0  0  0  0  0  0  0  0  0
  -21.2890   -3.6570   26.3210 F   0  0  0  0  0  0  0  0  0  0  0  0
  -22.6200  -13.3030   21.2780 C   0  0  0  0  0  0  0  0  0  0  0  0
  -21.9380  -12.5950   22.1720 N   0  0  0  0  0  0  0  0  0  0  0  0
  -22.1470  -14.3230   20.7770 O   0  0  0  0  0  0  0  0  0  0  0  0
  -22.3350  -11.7710   22.5970 H   0  0  0  0  0  0  0  0  0  0  0  0
  -21.0050  -12.8800   22.4340 H   0  0  0  0  0  0  0  0  0  0  0  0
  -25.1730  -15.0050   20.3270 N   0  0  0  0  0  0  0  0  0  0  0  0
  -24.3920  -15.6360   20.4760 H   0  0  0  0  0  0  0  0  0  0  0  0
  -25.9800  -15.4580   19.9240 H   0  0  0  0  0  0  0  0  0  0  0  0
  1  4  1  0
  2  6  1  0
  3  1  2  0
  4 10  1  0
  5  2  2  0
  5  3  1  0
  6 53  1  0
  6  4  2  0
  7  5  1  0
  9 10  1  0
 10  8  1  0
 11  3  1  0
 11 12  1  0
 13 24  2  0
 14 12  1  0
 14 19  1  0
 15 23  1  0
 15 25  1  0
 16 22  1  0
 16 18  1  0
 17 23  1  0
 18 17  1  0
 19 18  2  0
 20 21  1  0
 20 14  2  0
 21 16  2  0
 22 15  1  0
 23 13  1  0
 25 27  2  0
 26 25  1  0
 28 26  1  0
 29 38  2  0
 29 34  1  0
 30 26  1  0
 30 34  1  0
 31 30  1  0
 32 33  1  0
 32 31  1  0
 33 29  1  0
 34 35  2  0
 35 36  1  0
 37 36  2  0
 38 37  1  0
 39 13  1  0
 39 44  1  0
 39 40  1  0
 40 43  1  1
 40 41  1  0
 42 40  1  0
 44 47  1  0
 45 49  1  0
 45 44  1  0
 46 45  2  0
 49 48  1  0
 51 49  1  0
 51 52  1  0
 51 50  1  0
 54 67  1  0
 55 60  1  0
 56 57  1  0
 56 55  1  0
 58 57  1  0
 58 71  1  0
 58 59  1  0
 60 54  1  0
 60 59  1  0
 61 54  2  0
 62 64  1  0
 63 66  1  0
 63 65  1  0
 65 67  1  0
 66 62  1  0
 66 53  1  0
 67 64  1  0
 68 69  2  0
 69 88  1  0
 70 69  1  0
 70 73  1  0
 71 68  1  0
 71 72  1  0
 72 70  2  0
 73 74  1  0
 74 75  2  0
 76 79  1  0
 76 75  1  0
 77 76  2  0
 78 77  1  0
 78 73  2  0
 79 80  1  0
 80 81  1  0
 81 82  2  0
 83 82  1  0
 83 87  1  0
 84 83  2  0
 85 80  2  0
 85 84  1  0
 86 85  1  0
 88 89  1  0
 89 92  1  0
 89 91  1  0
 90 88  2  0
 93 94  1  0
 93 68  1  0
 95 93  1  0
M  ISO  4  11 101  12 101  54 100  67 100
M  END
>  <TORSDO>  (69) 
F 19

>  <SCORE>  (69) 
-13.632

>  <name>  (69) 
68

>  <ligand_id>  (69) 
68

>  <original_smiles>  (69) 
[H]c1c([H])c([H])c2c(c1[H])C([H])([H])C([H])([H])C([H])([H])C2([H])N([H])C(=O)C1([H])N(C(=O)C([H])(N([H])C(=O)C([H])(N([H])C([H])([H])[H])C([H])([H])[H])C(C([H])([H])[H])(C([H])([H])[H])C([H])([H])[H])C([H])([H])c2c([H])c(OC([H])([H])c3c([H])c(C([H])(C([H])([H])[H])C([H])([H])[H])c(OC4([H])C([H])([H])C([H])([H])N(C(=O)N5C([H])([H])C([H])([H])C([H])([H])C([H])(n6nc(-c7c([H])c([H])c(Oc8c([H])c([H])c(F)c([H])c8F)c([H])c7[H])c(C(=O)N([H])[H])c6N([H])[H])C5([H])[H])C([H])([H])C4([H])[H])c([H])c3C([H])([H])[H])c([H])c([H])c2C1([H])[H]

>  <smiles>  (69) 
[H]c1c([H])c([H])c2c(c1[H])C([H])([H])C([H])([H])C([H])([H])C2([H])N([H])C(=O)C1([H])N(C(=O)C([H])(N([H])C(=O)C([H])(N([H])C([H])([H])[H])C([H])([H])[H])C(C([H])([H])[H])(C([H])([H])[H])C([H])([H])[H])C([H])([H])c2c([H])c(OC([H])([H])c3c([H])c(C([H])(C([H])([H])[H])C([H])([H])[H])c(OC4([H])C([H])([H])C([H])([H])N(C(=O)N5C([H])([H])C([H])([H])C([H])([H])C([H])(n6nc(-c7c([H])c([H])c(Oc8c([H])c([H])c(F)c([H])c8F)c([H])c7[H])c(C(=O)N([H])[H])c6N([H])[H])C5([H])[H])C([H])([H])C4([H])[H])c([H])c3C([H])([H])[H])c([H])c([H])c2C1([H])[H]

$$$$
69:0:0
     RDKit          3D

 99108  0  0  1  0  0  0  0  0999 V2000
  -30.7250  -19.3190   22.2030 C   0  0  0  0  0  2  0  0  0  0  0  0
  -30.3420  -17.8120   22.2360 C   0  0  0  0  0  2  0  0  0  0  0  0
  -30.0330  -17.8440   19.7560 C   0  0  0  0  0  2  0  0  0  0  0  0
  -30.4160  -19.3630   19.7150 C   0  0  0  0  0  3  0  0  0  0  0  0
  -30.0810  -20.1200   21.0380 C   0  0  0  0  0  3  0  0  0  0  0  0
  -30.7030  -17.0730   20.9250 C   0  0  0  0  0  3  0  0  0  0  0  0
  -31.0340  -14.5710   20.4880 C   0  0  0  0  0  0  0  0  0  0  0  0
  -30.7030  -12.4400   19.2760 C   0  0  0  0  0  2  0  0  0  0  0  0
  -29.7410  -12.6890   18.0940 C   0  0  0  0  0  2  0  0  0  0  0  0
  -28.2750  -12.5420   18.5450 C   0  0  0  0  0  2  0  0  0  0  0  0
  -27.9670  -13.3290   19.8470 C   0  0  0  0  0  3  0  0  0  0  0  0
  -29.0430  -13.0730   20.9270 C   0  0  0  0  0  2  0  0  0  0  0  0
  -30.3530  -13.3970   20.3420 N   0  0  0  0  0  0  0  0  0  0  0  0
  -32.1760  -14.7230   20.0470 O   0  0  0  0  0  0  0  0  0  0  0  0
  -30.3240  -15.6270   20.9620 N   0  0  0  0  0  0  0  0  0  0  0  0
  -29.3950  -15.4110   21.2920 H   0  0  0  0  0  0  0  0  0  0  0  0
  -25.5820  -13.9250   20.6020 C   0  0  0  0  0  0  0  0  0  0  0  0
  -24.5170  -13.1480   20.9670 C   0  0  0  0  0  0  0  0  0  0  0  0
  -24.9730  -11.7960   20.8990 C   0  0  0  0  0  0  0  0  0  0  0  0
  -26.6220  -13.0460   20.3380 N   0  0  0  0  0  0  0  0  0  0  0  0
  -26.2590  -11.7590   20.5760 N   0  0  0  0  0  0  0  0  0  0  0  0
  -24.2430  -10.5320   21.0670 C   0  0  0  0  0  0  0  0  0  0  0  0
  -24.6550   -9.5610   22.0060 C   0  0  0  0  0  3  0  0  0  0  0  0
  -23.9260   -8.3630   22.1630 C   0  0  0  0  0  3  0  0  0  0  0  0
  -22.7700   -8.1280   21.3800 C   0  0  0  0  0  0  0  0  0  0  0  0
  -22.3770   -9.0880   20.4310 C   0  0  0  0  0  3  0  0  0  0  0  0
  -23.1070  -10.2780   20.2730 C   0  0  0  0  0  3  0  0  0  0  0  0
  -22.0130   -6.9820   21.4460 O   0  0  0  0  0  0  0  0  0  0  0  0
  -21.8910   -6.2670   22.6100 C   0  0  0  0  0  0  0  0  0  0  0  0
  -21.3590   -6.8390   23.7850 C   0  0  0  0  0  3  0  0  0  0  0  0
  -21.1880   -6.0480   24.9390 C   0  0  0  0  0  3  0  0  0  0  0  0
  -21.5370   -4.6850   24.9170 C   0  0  0  0  0  0  0  0  0  0  0  0
  -22.0630   -4.1120   23.7450 C   0  0  0  0  0  3  0  0  0  0  0  0
  -22.2360   -4.8990   22.5950 C   0  0  0  0  0  0  0  0  0  0  0  0
  -22.7220   -4.3370   21.4620 F   0  0  0  0  0  0  0  0  0  0  0  0
  -21.3660   -3.9230   26.0220 F   0  0  0  0  0  0  0  0  0  0  0  0
  -23.1260  -13.6250   21.2680 C   0  0  0  0  0  0  0  0  0  0  0  0
  -22.4100  -12.9150   22.1340 N   0  0  0  0  0  0  0  0  0  0  0  0
  -22.6830  -14.6600   20.7730 O   0  0  0  0  0  0  0  0  0  0  0  0
  -22.7830  -12.0770   22.5540 H   0  0  0  0  0  0  0  0  0  0  0  0
  -21.4770  -13.2140   22.3800 H   0  0  0  0  0  0  0  0  0  0  0  0
  -25.7490  -15.2990   20.4520 N   0  0  0  0  0  0  0  0  0  0  0  0
  -24.9810  -15.9480   20.5760 H   0  0  0  0  0  0  0  0  0  0  0  0
  -26.5870  -15.7390   20.0950 H   0  0  0  0  0  0  0  0  0  0  0  0
  -30.6870  -20.7150   17.5820 C   0  0  0  0  0  3  0  0  0  0  0  0
  -28.4310  -20.1750   18.3360 C   0  0  0  0  0  3  0  0  0  0  0  0
  -28.7530  -21.5350   16.3440 C   0  0  0  0  0  3  0  0  0  0  0  0
  -29.8300  -20.0790   18.5030 C   0  0  0  0  0  0  0  0  0  0  0  0
  -30.1510  -21.4510   16.5080 C   0  0  0  0  0  0  0  0  0  0  0  0
  -27.8810  -20.9040   17.2530 C   0  0  0  0  0  0  0  0  0  0  0  0
  -31.0790  -22.1750   15.5540 C   0  0  0  0  0  1  0  0  0  0  0  0
  -25.6270  -20.5150   17.9850 C   0  0  0  0  0  1  0  0  0  0  0  0
  -26.5300  -21.0530   17.0260 O   0  0  0  0  0  0  0  0  0  0  0  0
  -30.5040  -21.6470   21.0710 C   0  0  0  0  0  3  0  0  0  0  0  0
  -29.4450  -22.7210   20.6270 C   0  0  0  0  0  3  0  0  0  0  0  0
  -30.0410  -24.5620   22.3230 C   0  0  0  0  0  1  0  0  0  0  0  0
  -29.7900  -24.2440   20.8390 C   0  0  0  0  0  3  0  0  0  0  0  0
  -28.6750  -25.1860   20.2690 C   0  0  0  0  0  2  0  0  0  0  0  0
  -28.8250  -26.6170   20.4990 O   0  0  0  0  0  0  0  0  0  0  0  0
  -24.7430  -31.7540   23.3560 C   0  0  0  0  0  0  0  0  0  0  0  0
  -27.6710  -27.3880   20.3820 C   0  0  0  0  0  0  0  0  0  0  0  0
  -23.6870  -30.3820   21.5930 C   0  0  0  0  0  3  0  0  0  0  0  0
  -25.2680  -28.9040   20.2410 C   0  0  0  0  0  0  0  0  0  0  0  0
  -26.2190  -30.7690   21.6000 C   0  0  0  0  0  2  0  0  0  0  0  0
  -26.3740  -29.4150   20.9300 C   0  0  0  0  0  0  0  0  0  0  0  0
  -27.5800  -28.6660   20.9950 C   0  0  0  0  0  3  0  0  0  0  0  0
  -26.5420  -26.9140   19.6710 C   0  0  0  0  0  3  0  0  0  0  0  0
  -25.3480  -27.6560   19.6040 C   0  0  0  0  0  3  0  0  0  0  0  0
  -24.0130  -29.7490   20.2150 C   0  0  0  0  0  2  0  0  0  0  0  0
  -24.8960  -30.9820   22.2430 N   0  0  0  0  0  0  0  0  0  0  0  0
  -23.6180  -31.9970   23.8200 O   0  0  0  0  0  0  0  0  0  0  0  0
  -22.9780  -29.3260   22.4740 C   0  0  0  0  0  0  0  0  0  0  0  0
  -21.6590  -29.1630   22.2770 N   0  0  0  0  0  0  0  0  0  0  0  0
  -23.6150  -28.6580   23.2930 O   0  0  0  0  0  0  0  0  0  0  0  0
  -21.2100  -29.7550   21.5930 H   0  0  0  0  0  0  0  0  0  0  0  0
  -18.2390  -28.0460   22.6240 C   0  0  0  0  0  0  0  0  0  0  0  0
  -20.7980  -28.2010   22.9630 C   0  0  0  0  0  3  0  0  0  0  0  0
  -20.8690  -26.8130   22.2910 C   0  0  0  0  0  2  0  0  0  0  0  0
  -19.7790  -26.5960   21.2350 C   0  0  0  0  0  2  0  0  0  0  0  0
  -18.3880  -26.7410   21.8600 C   0  0  0  0  0  2  0  0  0  0  0  0
  -19.3710  -28.7400   23.1280 C   0  0  0  0  0  0  0  0  0  0  0  0
  -19.1790  -29.9660   23.8010 C   0  0  0  0  0  3  0  0  0  0  0  0
  -17.8890  -30.4970   23.9790 C   0  0  0  0  0  3  0  0  0  0  0  0
  -16.7700  -29.7980   23.4920 C   0  0  0  0  0  3  0  0  0  0  0  0
  -16.9460  -28.5750   22.8210 C   0  0  0  0  0  3  0  0  0  0  0  0
  -25.9650  -32.3890   24.0860 C   0  0  0  0  0  3  0  0  0  0  0  0
  -25.6400  -33.7960   24.3540 N   0  0  0  0  0  0  0  0  0  0  0  0
  -26.0210  -34.8250   23.5830 C   0  0  0  0  0  0  0  0  0  0  0  0
  -26.7530  -34.6900   22.5980 O   0  0  0  0  0  0  0  0  0  0  0  0
  -24.9980  -33.9740   25.1120 H   0  0  0  0  0  0  0  0  0  0  0  0
  -24.3000  -36.5930   23.0920 C   0  0  0  0  0  1  0  0  0  0  0  0
  -25.5100  -36.2280   23.9670 C   0  0  0  0  0  3  0  0  0  0  0  0
  -27.5980  -37.1630   24.8550 C   0  0  0  0  0  1  0  0  0  0  0  0
  -26.5420  -37.2810   23.8550 N   0  0  0  0  0  0  0  0  0  0  0  0
  -26.1250  -38.2030   23.9430 H   0  0  0  0  0  0  0  0  0  0  0  0
  -26.3460  -31.6420   25.4240 C   0  0  1  0  0  0  0  0  0  0  0  0
  -25.1500  -31.4340   26.3810 C   0  0  0  0  0  1  0  0  0  0  0  0
  -26.9530  -30.2530   25.1180 C   0  0  0  0  0  1  0  0  0  0  0  0
  -27.4320  -32.4420   26.1830 C   0  0  0  0  0  1  0  0  0  0  0  0
  1  2  1  0
  3  6  1  0
  4 48  1  0
  4  3  1  0
  4  5  1  0
  5 54  1  0
  5  1  1  0
  6 15  1  0
  6  2  1  0
  7 15  1  0
  8 13  1  0
  9 10  1  0
  9  8  1  0
 11 10  1  0
 11 20  1  0
 11 12  1  0
 13  7  1  0
 13 12  1  0
 14  7  2  0
 15 16  1  0
 17 18  2  0
 18 37  1  0
 19 18  1  0
 19 22  1  0
 20 21  1  0
 20 17  1  0
 21 19  2  0
 22 23  1  0
 23 24  2  0
 25 28  1  0
 25 24  1  0
 26 25  2  0
 27 26  1  0
 27 22  2  0
 28 29  1  0
 29 30  1  0
 30 31  2  0
 32 31  1  0
 32 36  1  0
 33 32  2  0
 34 29  2  0
 34 33  1  0
 35 34  1  0
 37 38  1  0
 38 41  1  0
 38 40  1  0
 39 37  2  0
 42 43  1  0
 42 17  1  0
 44 42  1  0
 45 48  1  0
 46 48  2  0
 47 49  1  0
 47 50  2  0
 49 45  2  0
 50 46  1  0
 51 49  1  0
 53 50  1  0
 53 52  1  0
 55 57  1  0
 55 54  2  0
 57 56  1  0
 58 59  1  0
 58 57  1  0
 60 71  2  0
 61 59  1  0
 61 66  1  0
 62 70  1  0
 62 72  1  0
 63 65  1  0
 64 70  1  0
 65 66  2  0
 65 64  1  0
 67 61  2  0
 68 67  1  0
 68 63  2  0
 69 63  1  0
 69 62  1  0
 70 60  1  0
 72 74  2  0
 73 72  1  0
 75 73  1  0
 76 85  2  0
 76 81  1  0
 77 73  1  0
 77 81  1  0
 78 77  1  0
 79 80  1  0
 79 78  1  0
 80 76  1  0
 81 82  2  0
 82 83  1  0
 84 83  2  0
 85 84  1  0
 86 60  1  0
 86 87  1  0
 86 96  1  0
 87 90  1  0
 88 92  1  0
 88 87  1  0
 89 88  2  0
 92 91  1  0
 94 95  1  0
 94 92  1  0
 94 93  1  0
 96 99  1  1
 96 97  1  0
 98 96  1  0
M  ISO  4   7 100  15 100  58 101  59 101
M  END
>  <TORSDO>  (70) 
F 22

>  <SCORE>  (70) 
-12.319

>  <name>  (70) 
69

>  <ligand_id>  (70) 
69

>  <original_smiles>  (70) 
[H]c1c([H])c([H])c2c(c1[H])C([H])([H])C([H])([H])C([H])([H])C2([H])N([H])C(=O)C1([H])N(C(=O)C([H])(N([H])C(=O)C([H])(N([H])C([H])([H])[H])C([H])([H])[H])C(C([H])([H])[H])(C([H])([H])[H])C([H])([H])[H])C([H])([H])c2c([H])c(OC([H])([H])C([H])(C([H])([H])[H])C([H])([H])C([H])([H])C3([H])C([H])([H])C([H])([H])C([H])(N([H])C(=O)N4C([H])([H])C([H])([H])C([H])([H])C([H])(n5nc(-c6c([H])c([H])c(Oc7c([H])c([H])c(F)c([H])c7F)c([H])c6[H])c(C(=O)N([H])[H])c5N([H])[H])C4([H])[H])C([H])([H])C3([H])c3c([H])c(OC([H])([H])[H])c([H])c(C([H])([H])[H])c3[H])c([H])c([H])c2C1([H])[H]

>  <smiles>  (70) 
[H]c1c([H])c([H])c2c(c1[H])C([H])([H])C([H])([H])C([H])([H])C2([H])N([H])C(=O)C1([H])N(C(=O)C([H])(N([H])C(=O)C([H])(N([H])C([H])([H])[H])C([H])([H])[H])C(C([H])([H])[H])(C([H])([H])[H])C([H])([H])[H])C([H])([H])c2c([H])c(OC([H])([H])C([H])(C([H])([H])[H])C([H])([H])C([H])([H])C3([H])C([H])([H])C([H])([H])C([H])(N([H])C(=O)N4C([H])([H])C([H])([H])C([H])([H])C([H])(n5nc(-c6c([H])c([H])c(Oc7c([H])c([H])c(F)c([H])c7F)c([H])c6[H])c(C(=O)N([H])[H])c5N([H])[H])C4([H])[H])C([H])([H])C3([H])c3c([H])c(OC([H])([H])[H])c([H])c(C([H])([H])[H])c3[H])c([H])c([H])c2C1([H])[H]

$$$$
70:0:0
     RDKit          3D

 92101  0  0  1  0  0  0  0  0999 V2000
  -29.8740  -19.8640   20.0030 C   0  0  0  0  0  3  0  0  0  0  0  0
  -30.5660  -19.9780   22.6770 C   0  0  0  0  0  3  0  0  0  0  0  0
  -29.7240  -21.1370   20.6770 C   0  0  0  0  0  0  0  0  0  0  0  0
  -30.3430  -18.6470   20.6330 C   0  0  0  0  0  0  0  0  0  0  0  0
  -30.0580  -21.1410   22.0560 C   0  0  0  0  0  0  0  0  0  0  0  0
  -30.7230  -18.7530   21.9940 C   0  0  0  0  0  0  0  0  0  0  0  0
  -29.8710  -22.3710   22.9260 C   0  0  0  0  0  1  0  0  0  0  0  0
  -31.3220  -17.5840   22.7550 C   0  0  0  0  0  1  0  0  0  0  0  0
  -29.9960  -23.2760   19.0690 C   0  0  0  0  0  2  0  0  0  0  0  0
  -29.1390  -22.4100   19.9580 C   0  0  0  0  0  3  0  0  0  0  0  0
  -29.3410  -23.9600   20.2520 C   0  0  0  0  0  3  0  0  0  0  0  0
  -28.1930  -25.0290   20.0690 C   0  0  0  0  0  2  0  0  0  0  0  0
  -28.4240  -26.4920   20.2190 O   0  0  0  0  0  0  0  0  0  0  0  0
  -24.6520  -31.8860   23.2100 C   0  0  0  0  0  0  0  0  0  0  0  0
  -27.3030  -27.3440   20.1540 C   0  0  0  0  0  0  0  0  0  0  0  0
  -23.4600  -30.4780   21.5710 C   0  0  0  0  0  3  0  0  0  0  0  0
  -24.9230  -28.9440   20.1420 C   0  0  0  0  0  0  0  0  0  0  0  0
  -25.9990  -30.8170   21.3880 C   0  0  0  0  0  2  0  0  0  0  0  0
  -26.0900  -29.4390   20.7400 C   0  0  0  0  0  0  0  0  0  0  0  0
  -27.2820  -28.6510   20.7370 C   0  0  0  0  0  3  0  0  0  0  0  0
  -26.1120  -26.9110   19.5250 C   0  0  0  0  0  3  0  0  0  0  0  0
  -24.9390  -27.6850   19.5250 C   0  0  0  0  0  3  0  0  0  0  0  0
  -23.6790  -29.8070   20.1910 C   0  0  0  0  0  2  0  0  0  0  0  0
  -24.7230  -31.0770   22.1130 N   0  0  0  0  0  0  0  0  0  0  0  0
  -23.5660  -32.1550   23.7420 O   0  0  0  0  0  0  0  0  0  0  0  0
  -22.8050  -29.4550   22.5300 C   0  0  0  0  0  0  0  0  0  0  0  0
  -21.4870  -29.2430   22.3790 N   0  0  0  0  0  0  0  0  0  0  0  0
  -23.4830  -28.8550   23.3690 O   0  0  0  0  0  0  0  0  0  0  0  0
  -20.9990  -29.7790   21.6750 H   0  0  0  0  0  0  0  0  0  0  0  0
  -18.1390  -27.9330   22.7890 C   0  0  0  0  0  0  0  0  0  0  0  0
  -20.6740  -28.2970   23.1460 C   0  0  0  0  0  3  0  0  0  0  0  0
  -20.8520  -26.8560   22.6140 C   0  0  0  0  0  2  0  0  0  0  0  0
  -19.8010  -26.4630   21.5710 C   0  0  0  0  0  2  0  0  0  0  0  0
  -18.3910  -26.5740   22.1580 C   0  0  0  0  0  2  0  0  0  0  0  0
  -19.2120  -28.7490   23.2370 C   0  0  0  0  0  0  0  0  0  0  0  0
  -18.9230  -30.0180   23.7840 C   0  0  0  0  0  3  0  0  0  0  0  0
  -17.5950  -30.4730   23.8880 C   0  0  0  0  0  3  0  0  0  0  0  0
  -16.5370  -29.6550   23.4560 C   0  0  0  0  0  3  0  0  0  0  0  0
  -16.8100  -28.3870   22.9120 C   0  0  0  0  0  3  0  0  0  0  0  0
  -25.9290  -32.5300   23.8320 C   0  0  0  0  0  3  0  0  0  0  0  0
  -26.4470  -31.7650   25.1110 C   0  0  1  0  0  0  0  0  0  0  0  0
  -25.3530  -31.5210   26.1760 C   0  0  0  0  0  1  0  0  0  0  0  0
  -27.0420  -30.3910   24.7240 C   0  0  0  0  0  1  0  0  0  0  0  0
  -27.5910  -32.5680   25.7740 C   0  0  0  0  0  1  0  0  0  0  0  0
  -25.6090  -33.9260   24.1610 N   0  0  0  0  0  0  0  0  0  0  0  0
  -25.9350  -34.9820   23.4030 C   0  0  0  0  0  0  0  0  0  0  0  0
  -26.6070  -34.8830   22.3720 O   0  0  0  0  0  0  0  0  0  0  0  0
  -25.0140  -34.0760   24.9620 H   0  0  0  0  0  0  0  0  0  0  0  0
  -24.1920  -36.7600   23.0460 C   0  0  0  0  0  1  0  0  0  0  0  0
  -25.4360  -36.3660   23.8580 C   0  0  0  0  0  3  0  0  0  0  0  0
  -27.5640  -37.2680   24.6880 C   0  0  0  0  0  1  0  0  0  0  0  0
  -26.4600  -37.4280   23.7450 N   0  0  0  0  0  0  0  0  0  0  0  0
  -26.0450  -38.3450   23.8950 H   0  0  0  0  0  0  0  0  0  0  0  0
  -30.5380  -17.3030   19.8160 C   0  0  0  0  0  2  0  0  0  0  0  0
  -30.8990  -14.7750   20.2010 C   0  0  0  0  0  0  0  0  0  0  0  0
  -30.6360  -12.4690   19.3060 C   0  0  0  0  0  2  0  0  0  0  0  0
  -29.7100  -12.5240   18.0730 C   0  0  0  0  0  2  0  0  0  0  0  0
  -28.2360  -12.3920   18.5010 C   0  0  0  0  0  2  0  0  0  0  0  0
  -27.8700  -13.3290   19.6850 C   0  0  0  0  0  3  0  0  0  0  0  0
  -28.9280  -13.2870   20.8130 C   0  0  0  0  0  2  0  0  0  0  0  0
  -30.2360  -13.5710   20.2100 N   0  0  0  0  0  0  0  0  0  0  0  0
  -32.0760  -14.8360   19.8380 O   0  0  0  0  0  0  0  0  0  0  0  0
  -30.1680  -15.9290   20.3520 N   0  0  0  0  0  0  0  0  0  0  0  0
  -29.2090  -15.8100   20.6390 H   0  0  0  0  0  0  0  0  0  0  0  0
  -25.4950  -13.9600   20.4260 C   0  0  0  0  0  0  0  0  0  0  0  0
  -24.4170  -13.2030   20.7990 C   0  0  0  0  0  0  0  0  0  0  0  0
  -24.8560  -11.8440   20.7620 C   0  0  0  0  0  0  0  0  0  0  0  0
  -26.5230  -13.0640   20.1830 N   0  0  0  0  0  0  0  0  0  0  0  0
  -26.1440  -11.7850   20.4470 N   0  0  0  0  0  0  0  0  0  0  0  0
  -24.1080  -10.5930   20.9510 C   0  0  0  0  0  0  0  0  0  0  0  0
  -24.5280   -9.6140   21.8780 C   0  0  0  0  0  3  0  0  0  0  0  0
  -23.7790   -8.4310   22.0560 C   0  0  0  0  0  3  0  0  0  0  0  0
  -22.5960   -8.2190   21.3090 C   0  0  0  0  0  0  0  0  0  0  0  0
  -22.1960   -9.1870   20.3710 C   0  0  0  0  0  3  0  0  0  0  0  0
  -22.9450  -10.3610   20.1900 C   0  0  0  0  0  3  0  0  0  0  0  0
  -21.8190   -7.0890   21.3960 O   0  0  0  0  0  0  0  0  0  0  0  0
  -21.7660   -6.3390   22.5430 C   0  0  0  0  0  0  0  0  0  0  0  0
  -21.3620   -6.8920   23.7780 C   0  0  0  0  0  3  0  0  0  0  0  0
  -21.2570   -6.0700   24.9180 C   0  0  0  0  0  3  0  0  0  0  0  0
  -21.5450   -4.6950   24.8240 C   0  0  0  0  0  0  0  0  0  0  0  0
  -21.9420   -4.1410   23.5940 C   0  0  0  0  0  3  0  0  0  0  0  0
  -22.0500   -4.9600   22.4570 C   0  0  0  0  0  0  0  0  0  0  0  0
  -22.4120   -4.4170   21.2700 F   0  0  0  0  0  0  0  0  0  0  0  0
  -21.4370   -3.9030   25.9160 F   0  0  0  0  0  0  0  0  0  0  0  0
  -23.0290  -13.7050   21.0770 C   0  0  0  0  0  0  0  0  0  0  0  0
  -22.2970  -13.0270   21.9540 N   0  0  0  0  0  0  0  0  0  0  0  0
  -22.6030  -14.7330   20.5510 O   0  0  0  0  0  0  0  0  0  0  0  0
  -22.6550  -12.1950   22.3990 H   0  0  0  0  0  0  0  0  0  0  0  0
  -21.3660  -13.3440   22.1840 H   0  0  0  0  0  0  0  0  0  0  0  0
  -25.6780  -15.3290   20.2530 N   0  0  0  0  0  0  0  0  0  0  0  0
  -24.9200  -15.9910   20.3700 H   0  0  0  0  0  0  0  0  0  0  0  0
  -26.5280  -15.7620   19.9150 H   0  0  0  0  0  0  0  0  0  0  0  0
  1  4  2  0
  1  3  1  0
  3  5  2  0
  4  6  1  0
  5  2  1  0
  5  7  1  0
  6  2  2  0
  6  8  1  0
  9 10  1  0
  9 11  1  0
 10 11  1  0
 10  3  1  0
 11 12  1  0
 12 13  1  0
 14 25  2  0
 15 13  1  0
 15 20  1  0
 16 24  1  0
 16 26  1  0
 17 23  1  0
 17 19  1  0
 18 24  1  0
 19 18  1  0
 20 19  2  0
 21 22  1  0
 21 15  2  0
 22 17  2  0
 23 16  1  0
 24 14  1  0
 26 28  2  0
 27 26  1  0
 29 27  1  0
 30 39  2  0
 30 35  1  0
 31 27  1  0
 31 35  1  0
 32 31  1  0
 33 34  1  0
 33 32  1  0
 34 30  1  0
 35 36  2  0
 36 37  1  0
 38 37  2  0
 39 38  1  0
 40 14  1  0
 40 45  1  0
 40 41  1  0
 41 44  1  1
 41 42  1  0
 43 41  1  0
 45 48  1  0
 46 50  1  0
 46 45  1  0
 47 46  2  0
 50 49  1  0
 52 50  1  0
 52 53  1  0
 52 51  1  0
 54 63  1  0
 54  4  1  0
 55 61  1  0
 55 63  1  0
 56 61  1  0
 57 58  1  0
 57 56  1  0
 59 58  1  0
 59 68  1  0
 59 60  1  0
 61 60  1  0
 62 55  2  0
 63 64  1  0
 65 66  2  0
 66 85  1  0
 67 66  1  0
 67 70  1  0
 68 65  1  0
 68 69  1  0
 69 67  2  0
 70 71  1  0
 71 72  2  0
 73 76  1  0
 73 72  1  0
 74 73  2  0
 75 74  1  0
 75 70  2  0
 76 77  1  0
 77 78  1  0
 78 79  2  0
 80 79  1  0
 80 84  1  0
 81 80  2  0
 82 77  2  0
 82 81  1  0
 83 82  1  0
 85 86  1  0
 86 89  1  0
 86 88  1  0
 87 85  2  0
 90 91  1  0
 90 65  1  0
 92 90  1  0
M  ISO  4  12 101  13 101  55 100  63 100
M  END
>  <TORSDO>  (71) 
F 19

>  <SCORE>  (71) 
-13.597

>  <name>  (71) 
70

>  <ligand_id>  (71) 
70

>  <original_smiles>  (71) 
[H]c1c([H])c([H])c2c(c1[H])C([H])([H])C([H])([H])C([H])([H])C2([H])N([H])C(=O)C1([H])N(C(=O)C([H])(N([H])C(=O)C([H])(N([H])C([H])([H])[H])C([H])([H])[H])C(C([H])([H])[H])(C([H])([H])[H])C([H])([H])[H])C([H])([H])c2c([H])c(OC([H])([H])C3([H])C([H])([H])C3([H])c3c([H])c(C([H])([H])N([H])C(=O)N4C([H])([H])C([H])([H])C([H])([H])C([H])(n5nc(-c6c([H])c([H])c(Oc7c([H])c([H])c(F)c([H])c7F)c([H])c6[H])c(C(=O)N([H])[H])c5N([H])[H])C4([H])[H])c(C([H])([H])[H])c([H])c3C([H])([H])[H])c([H])c([H])c2C1([H])[H]

>  <smiles>  (71) 
[H]c1c([H])c([H])c2c(c1[H])C([H])([H])C([H])([H])C([H])([H])C2([H])N([H])C(=O)C1([H])N(C(=O)C([H])(N([H])C(=O)C([H])(N([H])C([H])([H])[H])C([H])([H])[H])C(C([H])([H])[H])(C([H])([H])[H])C([H])([H])[H])C([H])([H])c2c([H])c(OC([H])([H])C3([H])C([H])([H])C3([H])c3c([H])c(C([H])([H])N([H])C(=O)N4C([H])([H])C([H])([H])C([H])([H])C([H])(n5nc(-c6c([H])c([H])c(Oc7c([H])c([H])c(F)c([H])c7F)c([H])c6[H])c(C(=O)N([H])[H])c5N([H])[H])C4([H])[H])c(C([H])([H])[H])c([H])c3C([H])([H])[H])c([H])c([H])c2C1([H])[H]

$$$$
71:0:0
     RDKit          3D

 94103  0  0  1  0  0  0  0  0999 V2000
  -27.8430  -23.0040   19.8830 C   0  0  0  0  0  3  0  0  0  0  0  0
  -29.8700  -23.3460   21.0830 C   0  0  0  0  0  3  0  0  0  0  0  0
  -28.6650  -23.9000   20.6030 C   0  0  0  0  0  0  0  0  0  0  0  0
  -28.2430  -21.6520   19.6610 C   0  0  0  0  0  0  0  0  0  0  0  0
  -29.4890  -21.1850   20.1730 C   0  0  0  0  0  0  0  0  0  0  0  0
  -27.2970  -20.7500   18.8870 C   0  0  0  0  0  1  0  0  0  0  0  0
  -30.2570  -22.0540   20.8850 N   0  0  0  0  0  0  0  0  0  0  0  0
  -28.1620  -25.3080   21.0650 C   0  0  0  0  0  2  0  0  0  0  0  0
  -28.4040  -26.5080   20.2550 O   0  0  0  0  0  0  0  0  0  0  0  0
  -24.6260  -31.8560   23.2440 C   0  0  0  0  0  0  0  0  0  0  0  0
  -27.3110  -27.3680   20.2030 C   0  0  0  0  0  0  0  0  0  0  0  0
  -23.4550  -30.4640   21.5730 C   0  0  0  0  0  3  0  0  0  0  0  0
  -24.9390  -28.9380   20.1570 C   0  0  0  0  0  0  0  0  0  0  0  0
  -25.9910  -30.8080   21.4320 C   0  0  0  0  0  2  0  0  0  0  0  0
  -26.0930  -29.4390   20.7760 C   0  0  0  0  0  0  0  0  0  0  0  0
  -27.2870  -28.6640   20.7910 C   0  0  0  0  0  3  0  0  0  0  0  0
  -26.1440  -26.9080   19.5600 C   0  0  0  0  0  3  0  0  0  0  0  0
  -24.9640  -27.6750   19.5420 C   0  0  0  0  0  3  0  0  0  0  0  0
  -23.6950  -29.8000   20.1920 C   0  0  0  0  0  2  0  0  0  0  0  0
  -24.7070  -31.0580   22.1400 N   0  0  0  0  0  0  0  0  0  0  0  0
  -23.5340  -32.1250   23.7650 O   0  0  0  0  0  0  0  0  0  0  0  0
  -22.7820  -29.4370   22.5140 C   0  0  0  0  0  0  0  0  0  0  0  0
  -21.4560  -29.2710   22.3760 N   0  0  0  0  0  0  0  0  0  0  0  0
  -23.4520  -28.7930   23.3250 O   0  0  0  0  0  0  0  0  0  0  0  0
  -20.9760  -29.8380   21.6920 H   0  0  0  0  0  0  0  0  0  0  0  0
  -18.0640  -28.1170   22.8530 C   0  0  0  0  0  0  0  0  0  0  0  0
  -20.6250  -28.3310   23.1300 C   0  0  0  0  0  3  0  0  0  0  0  0
  -20.7060  -26.9100   22.5240 C   0  0  0  0  0  2  0  0  0  0  0  0
  -19.6000  -26.6250   21.5030 C   0  0  0  0  0  2  0  0  0  0  0  0
  -18.2200  -26.7790   22.1500 C   0  0  0  0  0  2  0  0  0  0  0  0
  -19.1930  -28.8520   23.2990 C   0  0  0  0  0  0  0  0  0  0  0  0
  -18.9930  -30.1060   23.9140 C   0  0  0  0  0  3  0  0  0  0  0  0
  -17.6960  -30.6240   24.0900 C   0  0  0  0  0  3  0  0  0  0  0  0
  -16.5800  -29.8840   23.6620 C   0  0  0  0  0  3  0  0  0  0  0  0
  -16.7650  -28.6310   23.0490 C   0  0  0  0  0  3  0  0  0  0  0  0
  -25.8970  -32.4870   23.8920 C   0  0  0  0  0  3  0  0  0  0  0  0
  -25.5800  -33.8820   24.2230 N   0  0  0  0  0  0  0  0  0  0  0  0
  -25.9160  -34.9400   23.4730 C   0  0  0  0  0  0  0  0  0  0  0  0
  -26.5990  -34.8420   22.4480 O   0  0  0  0  0  0  0  0  0  0  0  0
  -24.9750  -34.0320   25.0190 H   0  0  0  0  0  0  0  0  0  0  0  0
  -24.1860  -36.7280   23.1060 C   0  0  0  0  0  1  0  0  0  0  0  0
  -25.4190  -36.3230   23.9300 C   0  0  0  0  0  3  0  0  0  0  0  0
  -27.5390  -37.2140   24.7940 C   0  0  0  0  0  1  0  0  0  0  0  0
  -26.4500  -37.3800   23.8360 N   0  0  0  0  0  0  0  0  0  0  0  0
  -26.0380  -38.2990   23.9800 H   0  0  0  0  0  0  0  0  0  0  0  0
  -26.3940  -31.7080   25.1720 C   0  0  1  0  0  0  0  0  0  0  0  0
  -25.2810  -31.4620   26.2190 C   0  0  0  0  0  1  0  0  0  0  0  0
  -26.9860  -30.3340   24.7820 C   0  0  0  0  0  1  0  0  0  0  0  0
  -27.5290  -32.5020   25.8600 C   0  0  0  0  0  1  0  0  0  0  0  0
  -30.1760  -19.7990   19.8380 C   0  0  0  0  0  3  0  0  0  0  0  0
  -30.0290  -17.9090   21.7030 C   0  0  0  0  0  2  0  0  0  0  0  0
  -29.5870  -18.4390   20.3680 C   0  0  0  0  0  3  0  0  0  0  0  0
  -30.4560  -17.1240   20.4800 C   0  0  0  0  0  3  0  0  0  0  0  0
  -30.6830  -14.6250   20.0380 C   0  0  0  0  0  0  0  0  0  0  0  0
  -30.3450  -12.4240   18.9430 C   0  0  0  0  0  2  0  0  0  0  0  0
  -29.3330  -12.5860   17.7880 C   0  0  0  0  0  2  0  0  0  0  0  0
  -27.8900  -12.4340   18.3030 C   0  0  0  0  0  2  0  0  0  0  0  0
  -27.6170  -13.2760   19.5780 C   0  0  0  0  0  3  0  0  0  0  0  0
  -28.7390  -13.1080   20.6240 C   0  0  0  0  0  2  0  0  0  0  0  0
  -30.0110  -13.4340   19.9640 N   0  0  0  0  0  0  0  0  0  0  0  0
  -31.8320  -14.7380   19.6010 O   0  0  0  0  0  0  0  0  0  0  0  0
  -29.9740  -15.7270   20.4320 N   0  0  0  0  0  0  0  0  0  0  0  0
  -29.0260  -15.5560   20.7280 H   0  0  0  0  0  0  0  0  0  0  0  0
  -25.2810  -13.8850   20.4580 C   0  0  0  0  0  0  0  0  0  0  0  0
  -24.2300  -13.1140   20.8750 C   0  0  0  0  0  0  0  0  0  0  0  0
  -24.6730  -11.7580   20.7850 C   0  0  0  0  0  0  0  0  0  0  0  0
  -26.2980  -12.9980   20.1380 N   0  0  0  0  0  0  0  0  0  0  0  0
  -25.9410  -11.7130   20.3960 N   0  0  0  0  0  0  0  0  0  0  0  0
  -23.9440  -10.5000   20.9910 C   0  0  0  0  0  0  0  0  0  0  0  0
  -24.4050   -9.5240   21.9010 C   0  0  0  0  0  3  0  0  0  0  0  0
  -23.6790   -8.3280   22.0950 C   0  0  0  0  0  3  0  0  0  0  0  0
  -22.4800   -8.1010   21.3800 C   0  0  0  0  0  0  0  0  0  0  0  0
  -22.0390   -9.0670   20.4570 C   0  0  0  0  0  3  0  0  0  0  0  0
  -22.7640  -10.2540   20.2610 C   0  0  0  0  0  3  0  0  0  0  0  0
  -21.7250   -6.9580   21.4840 O   0  0  0  0  0  0  0  0  0  0  0  0
  -21.6850   -6.2240   22.6410 C   0  0  0  0  0  0  0  0  0  0  0  0
  -21.2590   -6.7840   23.8650 C   0  0  0  0  0  3  0  0  0  0  0  0
  -21.1670   -5.9770   25.0160 C   0  0  0  0  0  3  0  0  0  0  0  0
  -21.4920   -4.6080   24.9440 C   0  0  0  0  0  0  0  0  0  0  0  0
  -21.9100   -4.0470   23.7250 C   0  0  0  0  0  3  0  0  0  0  0  0
  -22.0050   -4.8520   22.5770 C   0  0  0  0  0  0  0  0  0  0  0  0
  -22.3870   -4.3010   21.4000 F   0  0  0  0  0  0  0  0  0  0  0  0
  -21.3980   -3.8300   26.0480 F   0  0  0  0  0  0  0  0  0  0  0  0
  -22.8580  -13.5990   21.2410 C   0  0  0  0  0  0  0  0  0  0  0  0
  -22.1770  -12.8890   22.1340 N   0  0  0  0  0  0  0  0  0  0  0  0
  -22.4000  -14.6380   20.7710 O   0  0  0  0  0  0  0  0  0  0  0  0
  -22.5610  -12.0490   22.5390 H   0  0  0  0  0  0  0  0  0  0  0  0
  -21.2540  -13.1920   22.4160 H   0  0  0  0  0  0  0  0  0  0  0  0
  -25.4490  -15.2570   20.3000 N   0  0  0  0  0  0  0  0  0  0  0  0
  -24.6920  -15.9120   20.4660 H   0  0  0  0  0  0  0  0  0  0  0  0
  -26.2710  -15.6950   19.9040 H   0  0  0  0  0  0  0  0  0  0  0  0
  -30.5860  -19.6600   18.3460 C   0  0  0  0  0  2  0  0  0  0  0  0
  -32.5500  -21.3350   18.2420 C   0  0  0  0  0  1  0  0  0  0  0  0
  -31.1910  -20.9080   17.6680 C   0  0  0  0  0  2  0  0  0  0  0  0
  1  3  1  0
  3  8  1  0
  3  2  2  0
  4  1  2  0
  4  5  1  0
  5  7  2  0
  6  4  1  0
  7  2  1  0
  9  8  1  0
 10 21  2  0
 11  9  1  0
 11 16  1  0
 12 20  1  0
 12 22  1  0
 13 19  1  0
 13 15  1  0
 14 20  1  0
 15 16  2  0
 15 14  1  0
 17 11  2  0
 18 17  1  0
 18 13  2  0
 19 12  1  0
 20 10  1  0
 22 24  2  0
 23 22  1  0
 25 23  1  0
 26 35  2  0
 26 31  1  0
 27 23  1  0
 27 31  1  0
 28 27  1  0
 29 30  1  0
 29 28  1  0
 30 26  1  0
 31 32  2  0
 32 33  1  0
 34 33  2  0
 35 34  1  0
 36 10  1  0
 36 37  1  0
 36 46  1  0
 37 40  1  0
 38 42  1  0
 38 37  1  0
 39 38  2  0
 42 41  1  0
 44 42  1  0
 44 45  1  0
 44 43  1  0
 46 49  1  1
 46 47  1  0
 48 46  1  0
 50 92  1  0
 50  5  1  0
 52 50  1  0
 52 53  1  0
 52 51  1  0
 53 62  1  0
 53 51  1  0
 54 62  1  0
 55 60  1  0
 56 57  1  0
 56 55  1  0
 58 57  1  0
 58 67  1  0
 58 59  1  0
 60 54  1  0
 60 59  1  0
 61 54  2  0
 62 63  1  0
 64 65  2  0
 65 84  1  0
 66 65  1  0
 66 69  1  0
 67 68  1  0
 67 64  1  0
 68 66  2  0
 69 70  1  0
 70 71  2  0
 72 75  1  0
 72 71  1  0
 73 72  2  0
 74 73  1  0
 74 69  2  0
 75 76  1  0
 76 77  1  0
 77 78  2  0
 79 78  1  0
 79 83  1  0
 80 79  2  0
 81 76  2  0
 81 80  1  0
 82 81  1  0
 84 85  1  0
 85 88  1  0
 85 87  1  0
 86 84  2  0
 89 64  1  0
 89 90  1  0
 91 89  1  0
 94 93  1  0
 94 92  1  0
M  ISO  4   8 101   9 101  54 100  62 100
M  END
>  <TORSDO>  (72) 
F 21

>  <SCORE>  (72) 
-13.469

>  <name>  (72) 
71

>  <ligand_id>  (72) 
71

>  <original_smiles>  (72) 
[H]c1nc(C([H])(C([H])([H])C([H])([H])C([H])([H])[H])C2([H])C([H])([H])C2([H])N([H])C(=O)N2C([H])([H])C([H])([H])C([H])([H])C([H])(n3nc(-c4c([H])c([H])c(Oc5c([H])c([H])c(F)c([H])c5F)c([H])c4[H])c(C(=O)N([H])[H])c3N([H])[H])C2([H])[H])c(C([H])([H])[H])c([H])c1C([H])([H])Oc1c([H])c([H])c2c(c1[H])C([H])([H])N(C(=O)C([H])(N([H])C(=O)C([H])(N([H])C([H])([H])[H])C([H])([H])[H])C(C([H])([H])[H])(C([H])([H])[H])C([H])([H])[H])C([H])(C(=O)N([H])C1([H])c3c([H])c([H])c([H])c([H])c3C([H])([H])C([H])([H])C1([H])[H])C2([H])[H]

>  <smiles>  (72) 
[H]c1nc(C([H])(C([H])([H])C([H])([H])C([H])([H])[H])C2([H])C([H])([H])C2([H])N([H])C(=O)N2C([H])([H])C([H])([H])C([H])([H])C([H])(n3nc(-c4c([H])c([H])c(Oc5c([H])c([H])c(F)c([H])c5F)c([H])c4[H])c(C(=O)N([H])[H])c3N([H])[H])C2([H])[H])c(C([H])([H])[H])c([H])c1C([H])([H])Oc1c([H])c([H])c2c(c1[H])C([H])([H])N(C(=O)C([H])(N([H])C(=O)C([H])(N([H])C([H])([H])[H])C([H])([H])[H])C(C([H])([H])[H])(C([H])([H])[H])C([H])([H])[H])C([H])(C(=O)N([H])C1([H])c3c([H])c([H])c([H])c([H])c3C([H])([H])C([H])([H])C1([H])[H])C2([H])[H]

$$$$
72:0:0
     RDKit          3D

 92101  0  0  1  0  0  0  0  0999 V2000
  -29.8650  -24.0640   22.2620 C   0  0  0  0  0  3  0  0  0  0  0  0
  -29.8960  -22.6530   22.2920 C   0  0  0  0  0  3  0  0  0  0  0  0
  -28.4380  -23.9140   20.3310 C   0  0  0  0  0  3  0  0  0  0  0  0
  -29.0980  -24.7240   21.2780 C   0  0  0  0  0  0  0  0  0  0  0  0
  -29.1560  -21.9250   21.3410 C   0  0  0  0  0  0  0  0  0  0  0  0
  -28.4640  -22.5560   20.3580 N   0  0  0  0  0  0  0  0  0  0  0  0
  -28.9430  -26.2550   21.3210 C   0  0  0  0  0  2  0  0  0  0  0  0
  -28.4960  -26.8560   20.0970 O   0  0  0  0  0  0  0  0  0  0  0  0
  -24.6510  -31.9900   23.3040 C   0  0  0  0  0  0  0  0  0  0  0  0
  -27.3460  -27.6140   20.1680 C   0  0  0  0  0  0  0  0  0  0  0  0
  -23.4570  -30.5880   21.6520 C   0  0  0  0  0  3  0  0  0  0  0  0
  -24.9290  -29.0860   20.2040 C   0  0  0  0  0  0  0  0  0  0  0  0
  -25.9760  -30.9840   21.4470 C   0  0  0  0  0  2  0  0  0  0  0  0
  -26.0800  -29.6170   20.8010 C   0  0  0  0  0  0  0  0  0  0  0  0
  -27.2920  -28.8860   20.7910 C   0  0  0  0  0  3  0  0  0  0  0  0
  -26.1840  -27.1040   19.5570 C   0  0  0  0  0  3  0  0  0  0  0  0
  -24.9750  -27.8250   19.5820 C   0  0  0  0  0  3  0  0  0  0  0  0
  -23.6710  -29.9250   20.2650 C   0  0  0  0  0  2  0  0  0  0  0  0
  -24.7120  -31.2020   22.1930 N   0  0  0  0  0  0  0  0  0  0  0  0
  -23.5700  -32.2410   23.8530 O   0  0  0  0  0  0  0  0  0  0  0  0
  -22.8250  -29.5480   22.6050 C   0  0  0  0  0  0  0  0  0  0  0  0
  -21.5030  -29.3410   22.4750 N   0  0  0  0  0  0  0  0  0  0  0  0
  -23.5200  -28.9290   23.4160 O   0  0  0  0  0  0  0  0  0  0  0  0
  -21.0040  -29.8930   21.7930 H   0  0  0  0  0  0  0  0  0  0  0  0
  -18.1560  -28.0660   22.9500 C   0  0  0  0  0  0  0  0  0  0  0  0
  -20.7060  -28.3810   23.2380 C   0  0  0  0  0  3  0  0  0  0  0  0
  -20.8450  -26.9550   22.6560 C   0  0  0  0  0  2  0  0  0  0  0  0
  -19.7560  -26.6120   21.6340 C   0  0  0  0  0  2  0  0  0  0  0  0
  -18.3680  -26.7240   22.2720 C   0  0  0  0  0  2  0  0  0  0  0  0
  -19.2540  -28.8510   23.3900 C   0  0  0  0  0  0  0  0  0  0  0  0
  -19.0040  -30.1080   23.9840 C   0  0  0  0  0  3  0  0  0  0  0  0
  -17.6870  -30.5790   24.1440 C   0  0  0  0  0  3  0  0  0  0  0  0
  -16.6030  -29.7900   23.7210 C   0  0  0  0  0  3  0  0  0  0  0  0
  -16.8390  -28.5350   23.1300 C   0  0  0  0  0  3  0  0  0  0  0  0
  -25.9310  -32.6320   23.9230 C   0  0  0  0  0  3  0  0  0  0  0  0
  -26.4570  -31.8660   25.2000 C   0  0  1  0  0  0  0  0  0  0  0  0
  -25.3640  -31.6170   26.2670 C   0  0  0  0  0  1  0  0  0  0  0  0
  -27.0540  -30.4950   24.8060 C   0  0  0  0  0  1  0  0  0  0  0  0
  -27.5980  -32.6720   25.8630 C   0  0  0  0  0  1  0  0  0  0  0  0
  -25.6140  -34.0280   24.2480 N   0  0  0  0  0  0  0  0  0  0  0  0
  -25.9330  -35.0790   23.4810 C   0  0  0  0  0  0  0  0  0  0  0  0
  -26.5960  -34.9750   22.4450 O   0  0  0  0  0  0  0  0  0  0  0  0
  -25.0230  -34.1830   25.0530 H   0  0  0  0  0  0  0  0  0  0  0  0
  -24.1780  -36.8470   23.1360 C   0  0  0  0  0  1  0  0  0  0  0  0
  -25.4360  -36.4660   23.9320 C   0  0  0  0  0  3  0  0  0  0  0  0
  -27.5730  -37.3820   24.7210 C   0  0  0  0  0  1  0  0  0  0  0  0
  -26.4560  -37.5290   23.7930 N   0  0  0  0  0  0  0  0  0  0  0  0
  -26.0410  -38.4460   23.9390 H   0  0  0  0  0  0  0  0  0  0  0  0
  -28.9290  -20.4080   21.4930 C   0  0  0  0  0  2  0  0  0  0  0  0
  -29.9580  -19.5240   20.9980 O   0  0  0  0  0  0  0  0  0  0  0  0
  -30.6300  -14.6850   20.0470 C   0  0  0  0  0  0  0  0  0  0  0  0
  -30.3060  -12.4700   18.9760 C   0  0  0  0  0  2  0  0  0  0  0  0
  -29.3130  -12.5690   17.8000 C   0  0  0  0  0  2  0  0  0  0  0  0
  -27.8680  -12.3630   18.2940 C   0  0  0  0  0  2  0  0  0  0  0  0
  -27.5350  -13.2530   19.5150 C   0  0  0  0  0  3  0  0  0  0  0  0
  -28.6470  -13.1810   20.5960 C   0  0  0  0  0  2  0  0  0  0  0  0
  -29.9340  -13.5060   19.9590 N   0  0  0  0  0  0  0  0  0  0  0  0
  -31.7910  -14.7710   19.6390 O   0  0  0  0  0  0  0  0  0  0  0  0
  -28.6910  -17.7800   19.8870 C   0  0  0  0  0  2  0  0  0  0  0  0
  -28.7420  -16.2610   19.8620 C   0  0  0  0  0  2  0  0  0  0  0  0
  -29.5530  -18.1420   21.0780 C   0  0  0  0  0  3  0  0  0  0  0  0
  -30.6500  -17.0430   21.0010 C   0  0  0  0  0  3  0  0  0  0  0  0
  -31.3600  -16.8270   22.3470 C   0  0  0  0  0  1  0  0  0  0  0  0
  -29.9820  -15.8070   20.5020 N   0  0  0  0  0  0  0  0  0  0  0  0
  -25.1790  -13.8740   20.3350 C   0  0  0  0  0  0  0  0  0  0  0  0
  -24.1320  -13.1010   20.7520 C   0  0  0  0  0  0  0  0  0  0  0  0
  -24.5970  -11.7520   20.7080 C   0  0  0  0  0  0  0  0  0  0  0  0
  -26.2150  -12.9890   20.0640 N   0  0  0  0  0  0  0  0  0  0  0  0
  -25.8730  -11.7100   20.3510 N   0  0  0  0  0  0  0  0  0  0  0  0
  -23.8880  -10.4880   20.9250 C   0  0  0  0  0  0  0  0  0  0  0  0
  -24.3520   -9.5340   21.8560 C   0  0  0  0  0  3  0  0  0  0  0  0
  -23.6430   -8.3310   22.0580 C   0  0  0  0  0  3  0  0  0  0  0  0
  -22.4570   -8.0760   21.3300 C   0  0  0  0  0  0  0  0  0  0  0  0
  -22.0130   -9.0200   20.3860 C   0  0  0  0  0  3  0  0  0  0  0  0
  -22.7230  -10.2140   20.1810 C   0  0  0  0  0  3  0  0  0  0  0  0
  -21.7160   -6.9260   21.4430 O   0  0  0  0  0  0  0  0  0  0  0  0
  -21.6900   -6.2010   22.6070 C   0  0  0  0  0  0  0  0  0  0  0  0
  -21.2850   -6.7710   23.8330 C   0  0  0  0  0  3  0  0  0  0  0  0
  -21.2070   -5.9710   24.9900 C   0  0  0  0  0  3  0  0  0  0  0  0
  -21.5250   -4.6010   24.9220 C   0  0  0  0  0  0  0  0  0  0  0  0
  -21.9240   -4.0310   23.7020 C   0  0  0  0  0  3  0  0  0  0  0  0
  -22.0050   -4.8280   22.5460 C   0  0  0  0  0  0  0  0  0  0  0  0
  -22.3690   -4.2680   21.3680 F   0  0  0  0  0  0  0  0  0  0  0  0
  -21.4420   -3.8310   26.0320 F   0  0  0  0  0  0  0  0  0  0  0  0
  -22.7440  -13.5750   21.0740 C   0  0  0  0  0  0  0  0  0  0  0  0
  -22.0490  -12.8740   21.9650 N   0  0  0  0  0  0  0  0  0  0  0  0
  -22.2840  -14.5990   20.5720 O   0  0  0  0  0  0  0  0  0  0  0  0
  -22.4340  -12.0440   22.3910 H   0  0  0  0  0  0  0  0  0  0  0  0
  -21.1200  -13.1730   22.2230 H   0  0  0  0  0  0  0  0  0  0  0  0
  -25.3220  -15.2440   20.1380 N   0  0  0  0  0  0  0  0  0  0  0  0
  -24.5470  -15.8850   20.2670 H   0  0  0  0  0  0  0  0  0  0  0  0
  -26.1360  -15.6840   19.7340 H   0  0  0  0  0  0  0  0  0  0  0  0
  1  2  1  0
  3  6  2  0
  3  4  1  0
  4  7  1  0
  4  1  2  0
  5 49  1  0
  5  2  2  0
  6  5  1  0
  8 10  1  0
  8  7  1  0
  9 20  2  0
 10 15  1  0
 11 19  1  0
 11 21  1  0
 12 18  1  0
 12 14  1  0
 13 19  1  0
 14 13  1  0
 15 14  2  0
 16 17  1  0
 16 10  2  0
 17 12  2  0
 18 11  1  0
 19  9  1  0
 21 23  2  0
 22 21  1  0
 24 22  1  0
 25 34  2  0
 25 30  1  0
 26 22  1  0
 26 30  1  0
 27 26  1  0
 28 29  1  0
 28 27  1  0
 29 25  1  0
 30 31  2  0
 31 32  1  0
 33 32  2  0
 34 33  1  0
 35  9  1  0
 35 40  1  0
 35 36  1  0
 36 39  1  1
 36 37  1  0
 38 36  1  0
 40 43  1  0
 41 45  1  0
 41 40  1  0
 42 41  2  0
 45 44  1  0
 47 45  1  0
 47 48  1  0
 47 46  1  0
 50 49  1  0
 51 64  1  0
 52 57  1  0
 53 54  1  0
 53 52  1  0
 55 54  1  0
 55 68  1  0
 55 56  1  0
 57 51  1  0
 57 56  1  0
 58 51  2  0
 59 61  1  0
 60 59  1  0
 60 64  1  0
 61 50  1  0
 62 61  1  0
 62 63  1  0
 64 62  1  0
 65 66  2  0
 66 85  1  0
 67 66  1  0
 67 70  1  0
 68 65  1  0
 68 69  1  0
 69 67  2  0
 70 71  1  0
 71 72  2  0
 73 76  1  0
 73 72  1  0
 74 73  2  0
 75 74  1  0
 75 70  2  0
 76 77  1  0
 77 78  1  0
 78 79  2  0
 80 79  1  0
 80 84  1  0
 81 80  2  0
 82 77  2  0
 82 81  1  0
 83 82  1  0
 85 86  1  0
 86 89  1  0
 86 88  1  0
 87 85  2  0
 90 91  1  0
 90 65  1  0
 92 90  1  0
M  ISO  4   7 101   8 101  51 100  64 100
M  END
>  <TORSDO>  (73) 
F 19

>  <SCORE>  (73) 
-13.614

>  <name>  (73) 
72

>  <ligand_id>  (73) 
72

>  <original_smiles>  (73) 
[H]c1nc(C([H])([H])OC2([H])C([H])([H])C([H])([H])N(C(=O)N3C([H])([H])C([H])([H])C([H])([H])C([H])(n4nc(-c5c([H])c([H])c(Oc6c([H])c([H])c(F)c([H])c6F)c([H])c5[H])c(C(=O)N([H])[H])c4N([H])[H])C3([H])[H])C2([H])C([H])([H])[H])c([H])c([H])c1C([H])([H])Oc1c([H])c([H])c2c(c1[H])C([H])([H])N(C(=O)C([H])(N([H])C(=O)C([H])(N([H])C([H])([H])[H])C([H])([H])[H])C(C([H])([H])[H])(C([H])([H])[H])C([H])([H])[H])C([H])(C(=O)N([H])C1([H])c3c([H])c([H])c([H])c([H])c3C([H])([H])C([H])([H])C1([H])[H])C2([H])[H]

>  <smiles>  (73) 
[H]c1nc(C([H])([H])OC2([H])C([H])([H])C([H])([H])N(C(=O)N3C([H])([H])C([H])([H])C([H])([H])C([H])(n4nc(-c5c([H])c([H])c(Oc6c([H])c([H])c(F)c([H])c6F)c([H])c5[H])c(C(=O)N([H])[H])c4N([H])[H])C3([H])[H])C2([H])C([H])([H])[H])c([H])c([H])c1C([H])([H])Oc1c([H])c([H])c2c(c1[H])C([H])([H])N(C(=O)C([H])(N([H])C(=O)C([H])(N([H])C([H])([H])[H])C([H])([H])[H])C(C([H])([H])[H])(C([H])([H])[H])C([H])([H])[H])C([H])(C(=O)N([H])C1([H])c3c([H])c([H])c([H])c([H])c3C([H])([H])C([H])([H])C1([H])[H])C2([H])[H]

$$$$
73:0:0
     RDKit          3D

101110  0  0  1  0  0  0  0  0999 V2000
  -32.0140  -23.0990   20.3790 C   0  0  0  0  0  3  0  0  0  0  0  0
  -30.5980  -21.1460   20.5050 C   0  0  0  0  0  3  0  0  0  0  0  0
  -33.1160  -22.2880   20.0400 C   0  0  0  0  0  0  0  0  0  0  0  0
  -32.9710  -20.8740   19.9130 C   0  0  0  0  0  0  0  0  0  0  0  0
  -31.6890  -20.3000   20.1870 C   0  0  0  0  0  0  0  0  0  0  0  0
  -30.7370  -22.5420   20.5890 C   0  0  0  0  0  0  0  0  0  0  0  0
  -34.4420  -23.0060   19.8140 C   0  0  0  0  0  1  0  0  0  0  0  0
  -34.5250  -18.7620   20.2290 C   0  0  0  0  0  1  0  0  0  0  0  0
  -34.1950  -20.0490   19.4400 C   0  0  0  0  0  3  0  0  0  0  0  0
  -34.0990  -19.7940   17.9920 N   0  0  0  0  0  4  0  0  0  0  0  0
  -33.3180  -19.2000   17.7770 H   0  0  0  0  0  0  0  0  0  0  0  0
  -34.9410  -19.3690   17.6450 H   0  0  0  0  0  0  0  0  0  0  0  0
  -33.9670  -20.6630   17.5070 H   0  0  0  0  0  0  0  0  0  0  0  0
  -31.4590  -18.9130   20.1200 N   0  0  0  0  0  0  0  0  0  0  0  0
  -32.2750  -18.3240   20.2190 H   0  0  0  0  0  0  0  0  0  0  0  0
  -30.7430  -14.3430   20.1740 C   0  0  0  0  0  0  0  0  0  0  0  0
  -30.4540  -12.0750   19.2700 C   0  0  0  0  0  2  0  0  0  0  0  0
  -29.4880  -12.1410   18.0700 C   0  0  0  0  0  2  0  0  0  0  0  0
  -28.0210  -12.0390   18.5360 C   0  0  0  0  0  2  0  0  0  0  0  0
  -27.6940  -12.9950   19.7150 C   0  0  0  0  0  3  0  0  0  0  0  0
  -28.7740  -12.9040   20.8170 C   0  0  0  0  0  2  0  0  0  0  0  0
  -30.0830  -13.1570   20.1920 N   0  0  0  0  0  0  0  0  0  0  0  0
  -31.8590  -14.4820   19.6600 O   0  0  0  0  0  0  0  0  0  0  0  0
  -30.7190  -17.3260   21.8740 C   0  0  0  0  0  2  0  0  0  0  0  0
  -29.2770  -17.7680   19.8170 C   0  0  0  0  0  2  0  0  0  0  0  0
  -29.9420  -15.9950   21.8000 C   0  0  0  0  0  2  0  0  0  0  0  0
  -29.7010  -16.3680   19.3400 C   0  0  0  0  0  2  0  0  0  0  0  0
  -30.2890  -18.3670   20.8120 C   0  0  0  0  0  3  0  0  0  0  0  0
  -29.9790  -15.4260   20.4430 N   0  0  0  0  0  0  0  0  0  0  0  0
  -25.3620  -13.6640   20.5710 C   0  0  0  0  0  0  0  0  0  0  0  0
  -24.2800  -12.9170   20.9540 C   0  0  0  0  0  0  0  0  0  0  0  0
  -24.6790  -11.5510   20.8320 C   0  0  0  0  0  0  0  0  0  0  0  0
  -26.3560  -12.7530   20.2460 N   0  0  0  0  0  0  0  0  0  0  0  0
  -25.9500  -11.4750   20.4580 N   0  0  0  0  0  0  0  0  0  0  0  0
  -23.9100  -10.3110   20.9930 C   0  0  0  0  0  0  0  0  0  0  0  0
  -24.2140   -9.3820   22.0110 C   0  0  0  0  0  3  0  0  0  0  0  0
  -23.4480   -8.2050   22.1590 C   0  0  0  0  0  3  0  0  0  0  0  0
  -22.3640   -7.9510   21.2870 C   0  0  0  0  0  0  0  0  0  0  0  0
  -22.0800   -8.8680   20.2600 C   0  0  0  0  0  3  0  0  0  0  0  0
  -22.8470  -10.0360   20.1100 C   0  0  0  0  0  3  0  0  0  0  0  0
  -21.5810   -6.8220   21.3380 O   0  0  0  0  0  0  0  0  0  0  0  0
  -21.2450   -6.2320   22.5310 C   0  0  0  0  0  0  0  0  0  0  0  0
  -20.4940   -6.9130   23.5140 C   0  0  0  0  0  3  0  0  0  0  0  0
  -20.1120   -6.2460   24.6950 C   0  0  0  0  0  3  0  0  0  0  0  0
  -20.4710   -4.9000   24.8920 C   0  0  0  0  0  0  0  0  0  0  0  0
  -21.2140   -4.2180   23.9120 C   0  0  0  0  0  3  0  0  0  0  0  0
  -21.5980   -4.8830   22.7340 C   0  0  0  0  0  0  0  0  0  0  0  0
  -22.2950   -4.2160   21.7840 F   0  0  0  0  0  0  0  0  0  0  0  0
  -20.0990   -4.2560   26.0230 F   0  0  0  0  0  0  0  0  0  0  0  0
  -22.9190  -13.4360   21.3190 C   0  0  0  0  0  0  0  0  0  0  0  0
  -22.2200  -12.7460   22.2140 N   0  0  0  0  0  0  0  0  0  0  0  0
  -22.4860  -14.4860   20.8470 O   0  0  0  0  0  0  0  0  0  0  0  0
  -22.5840  -11.8950   22.6180 H   0  0  0  0  0  0  0  0  0  0  0  0
  -21.3080  -13.0720   22.4980 H   0  0  0  0  0  0  0  0  0  0  0  0
  -25.5790  -15.0340   20.4530 N   0  0  0  0  0  0  0  0  0  0  0  0
  -24.8540  -15.7200   20.6380 H   0  0  0  0  0  0  0  0  0  0  0  0
  -26.4470  -15.4500   20.1410 H   0  0  0  0  0  0  0  0  0  0  0  0
  -29.6070  -23.2820   20.8630 O   0  0  0  0  0  0  0  0  0  0  0  0
  -29.6940  -24.7020   20.7640 C   0  0  0  0  0  2  0  0  0  0  0  0
  -28.3090  -25.2830   20.4710 C   0  0  0  0  0  2  0  0  0  0  0  0
  -28.3880  -26.7080   20.4910 O   0  0  0  0  0  0  0  0  0  0  0  0
  -24.6380  -32.0050   23.3400 C   0  0  0  0  0  0  0  0  0  0  0  0
  -27.2040  -27.4090   20.4500 C   0  0  0  0  0  0  0  0  0  0  0  0
  -23.3990  -30.5430   21.7770 C   0  0  0  0  0  3  0  0  0  0  0  0
  -24.8180  -28.9220   20.4170 C   0  0  0  0  0  0  0  0  0  0  0  0
  -25.9230  -30.8670   21.5350 C   0  0  0  0  0  2  0  0  0  0  0  0
  -25.9860  -29.4670   20.9630 C   0  0  0  0  0  0  0  0  0  0  0  0
  -27.1810  -28.7170   20.9760 C   0  0  0  0  0  3  0  0  0  0  0  0
  -26.0170  -26.8710   19.8990 C   0  0  0  0  0  3  0  0  0  0  0  0
  -24.8260  -27.6210   19.8860 C   0  0  0  0  0  3  0  0  0  0  0  0
  -23.5850  -29.7960   20.4300 C   0  0  0  0  0  2  0  0  0  0  0  0
  -24.6730  -31.1540   22.2760 N   0  0  0  0  0  0  0  0  0  0  0  0
  -23.5650  -32.3160   23.8750 O   0  0  0  0  0  0  0  0  0  0  0  0
  -22.7470  -29.5760   22.7890 C   0  0  0  0  0  0  0  0  0  0  0  0
  -21.4480  -29.2930   22.5910 N   0  0  0  0  0  0  0  0  0  0  0  0
  -23.4060  -29.0770   23.7050 O   0  0  0  0  0  0  0  0  0  0  0  0
  -20.9760  -29.7490   21.8230 H   0  0  0  0  0  0  0  0  0  0  0  0
  -18.1420  -27.8830   22.9340 C   0  0  0  0  0  0  0  0  0  0  0  0
  -20.6360  -28.3820   23.3950 C   0  0  0  0  0  3  0  0  0  0  0  0
  -20.8990  -26.9100   23.0000 C   0  0  0  0  0  2  0  0  0  0  0  0
  -19.9260  -26.3860   21.9400 C   0  0  0  0  0  2  0  0  0  0  0  0
  -18.4810  -26.4860   22.4410 C   0  0  0  0  0  2  0  0  0  0  0  0
  -19.1560  -28.7770   23.3660 C   0  0  0  0  0  0  0  0  0  0  0  0
  -18.7910  -30.0770   23.7810 C   0  0  0  0  0  3  0  0  0  0  0  0
  -17.4430  -30.4840   23.7720 C   0  0  0  0  0  3  0  0  0  0  0  0
  -16.4420  -29.5890   23.3590 C   0  0  0  0  0  3  0  0  0  0  0  0
  -16.7910  -28.2910   22.9440 C   0  0  0  0  0  3  0  0  0  0  0  0
  -25.9380  -32.6470   23.9170 C   0  0  0  0  0  3  0  0  0  0  0  0
  -25.6320  -34.0460   24.2440 N   0  0  0  0  0  0  0  0  0  0  0  0
  -25.8950  -35.0870   23.4430 C   0  0  0  0  0  0  0  0  0  0  0  0
  -26.4960  -34.9740   22.3710 O   0  0  0  0  0  0  0  0  0  0  0  0
  -25.0890  -34.2080   25.0790 H   0  0  0  0  0  0  0  0  0  0  0  0
  -24.1070  -36.8350   23.1920 C   0  0  0  0  0  1  0  0  0  0  0  0
  -25.4180  -36.4760   23.9080 C   0  0  0  0  0  3  0  0  0  0  0  0
  -27.5810  -37.4360   24.5590 C   0  0  0  0  0  1  0  0  0  0  0  0
  -26.4150  -37.5470   23.6870 N   0  0  0  0  0  0  0  0  0  0  0  0
  -25.9970  -38.4620   23.8300 H   0  0  0  0  0  0  0  0  0  0  0  0
  -26.4970  -31.8870   25.1820 C   0  0  1  0  0  0  0  0  0  0  0  0
  -25.4220  -31.5930   26.2550 C   0  0  0  0  0  1  0  0  0  0  0  0
  -27.1340  -30.5400   24.7680 C   0  0  0  0  0  1  0  0  0  0  0  0
  -27.6150  -32.7250   25.8440 C   0  0  0  0  0  1  0  0  0  0  0  0
  1  6  1  0
  2  6  2  0
  3  1  2  0
  4  3  1  0
  4  5  2  0
  5  2  1  0
  6 58  1  0
  7  3  1  0
  9  4  1  0
  9  8  1  0
 10  9  1  0
 11 10  1  0
 12 10  1  0
 13 10  1  0
 14  5  1  0
 14 15  1  0
 16 22  1  0
 16 29  1  0
 17 22  1  0
 18 19  1  0
 18 17  1  0
 20 19  1  0
 20 33  1  0
 20 21  1  0
 22 21  1  0
 23 16  2  0
 25 28  1  0
 26 24  1  0
 27 25  1  0
 27 29  1  0
 28 14  1  0
 28 24  1  0
 29 26  1  0
 30 31  2  0
 31 50  1  0
 32 31  1  0
 32 35  1  0
 33 34  1  0
 33 30  1  0
 34 32  2  0
 35 36  1  0
 36 37  2  0
 38 41  1  0
 38 37  1  0
 39 38  2  0
 40 39  1  0
 40 35  2  0
 41 42  1  0
 42 47  2  0
 42 43  1  0
 43 44  2  0
 44 45  1  0
 45 49  1  0
 46 45  2  0
 47 46  1  0
 48 47  1  0
 50 51  1  0
 51 54  1  0
 51 53  1  0
 52 50  2  0
 55 30  1  0
 55 56  1  0
 57 55  1  0
 59 58  1  0
 60 61  1  0
 60 59  1  0
 62 73  2  0
 63 61  1  0
 63 68  1  0
 64 72  1  0
 64 74  1  0
 65 71  1  0
 65 67  1  0
 66 72  1  0
 67 68  2  0
 67 66  1  0
 69 63  2  0
 70 69  1  0
 70 65  2  0
 71 64  1  0
 72 62  1  0
 74 76  2  0
 75 74  1  0
 77 75  1  0
 78 87  2  0
 78 83  1  0
 79 75  1  0
 80 79  1  0
 81 82  1  0
 81 80  1  0
 82 78  1  0
 83 79  1  0
 83 84  2  0
 85 84  1  0
 86 85  2  0
 87 86  1  0
 88 62  1  0
 88 89  1  0
 88 98  1  0
 89 92  1  0
 90 94  1  0
 90 89  1  0
 91 90  2  0
 94 93  1  0
 96 97  1  0
 96 94  1  0
 96 95  1  0
 98101  1  1
 98 99  1  0
100 98  1  0
M  ISO  4  16 100  29 100  60 101  61 101
M  END
>  <TORSDO>  (74) 
F 22

>  <SCORE>  (74) 
-12.384

>  <name>  (74) 
73

>  <ligand_id>  (74) 
73

>  <original_smiles>  (74) 
[H]c1c([H])c([H])c2c(c1[H])C([H])([H])C([H])([H])C([H])([H])C2([H])N([H])C(=O)C1([H])N(C(=O)C([H])(N([H])C(=O)C([H])(N([H])C([H])([H])[H])C([H])([H])[H])C(C([H])([H])[H])(C([H])([H])[H])C([H])([H])[H])C([H])([H])c2c([H])c(OC([H])([H])C([H])([H])Oc3c([H])c(N([H])C4([H])C([H])([H])C([H])([H])N(C(=O)N5C([H])([H])C([H])([H])C([H])([H])C([H])(n6nc(-c7c([H])c([H])c(Oc8c([H])c([H])c(F)c([H])c8F)c([H])c7[H])c(C(=O)N([H])[H])c6N([H])[H])C5([H])[H])C([H])([H])C4([H])[H])c(C([H])(C([H])([H])[H])[N+]([H])([H])[H])c(C([H])([H])[H])c3[H])c([H])c([H])c2C1([H])[H]

>  <smiles>  (74) 
[H]c1c([H])c([H])c2c(c1[H])C([H])([H])C([H])([H])C([H])([H])C2([H])N([H])C(=O)C1([H])N(C(=O)C([H])(N([H])C(=O)C([H])(N([H])C([H])([H])[H])C([H])([H])[H])C(C([H])([H])[H])(C([H])([H])[H])C([H])([H])[H])C([H])([H])c2c([H])c(OC([H])([H])C([H])([H])Oc3c([H])c(N([H])C4([H])C([H])([H])C([H])([H])N(C(=O)N5C([H])([H])C([H])([H])C([H])([H])C([H])(n6nc(-c7c([H])c([H])c(Oc8c([H])c([H])c(F)c([H])c8F)c([H])c7[H])c(C(=O)N([H])[H])c6N([H])[H])C5([H])[H])C([H])([H])C4([H])[H])c(C([H])(C([H])([H])[H])[N+]([H])([H])[H])c(C([H])([H])[H])c3[H])c([H])c([H])c2C1([H])[H]

$$$$
74:0:0
     RDKit          3D

 92101  0  0  1  0  0  0  0  0999 V2000
  -29.6720  -22.0690   21.3690 C   0  0  0  0  0  2  0  0  0  0  0  0
  -29.2990  -22.6660   20.0310 C   0  0  0  0  0  3  0  0  0  0  0  0
  -28.9060  -21.1620   20.4330 C   0  0  2  0  0  0  0  0  0  0  0  0
  -27.4540  -20.8740   20.7500 C   0  0  0  0  0  1  0  0  0  0  0  0
  -30.0530  -19.8220   18.5680 C   0  0  0  0  0  3  0  0  0  0  0  0
  -29.6420  -18.5420   20.5650 C   0  0  0  0  0  3  0  0  0  0  0  0
  -29.5660  -19.8290   19.8870 C   0  0  0  0  0  0  0  0  0  0  0  0
  -30.5440  -18.6320   18.0020 C   0  0  0  0  0  0  0  0  0  0  0  0
  -30.1940  -17.3470   19.9450 C   0  0  0  0  0  0  0  0  0  0  0  0
  -30.9580  -18.5720   16.5450 C   0  0  0  0  0  1  0  0  0  0  0  0
  -30.6280  -17.4610   18.6690 N   0  0  0  0  0  0  0  0  0  0  0  0
  -30.8980  -14.8720   20.2130 C   0  0  0  0  0  0  0  0  0  0  0  0
  -30.6390  -12.6040   19.2100 C   0  0  0  0  0  2  0  0  0  0  0  0
  -29.7080  -12.7140   17.9810 C   0  0  0  0  0  2  0  0  0  0  0  0
  -28.2320  -12.5830   18.4050 C   0  0  0  0  0  2  0  0  0  0  0  0
  -27.8810  -13.4610   19.6350 C   0  0  0  0  0  3  0  0  0  0  0  0
  -28.9350  -13.3440   20.7590 C   0  0  0  0  0  2  0  0  0  0  0  0
  -30.2450  -13.6610   20.1750 N   0  0  0  0  0  0  0  0  0  0  0  0
  -32.0690  -14.9350   19.8220 O   0  0  0  0  0  0  0  0  0  0  0  0
  -30.2000  -16.0150   20.5840 N   0  0  0  0  0  0  0  0  0  0  0  0
  -29.4330  -15.8490   21.2140 H   0  0  0  0  0  0  0  0  0  0  0  0
  -25.5050  -14.0850   20.3650 C   0  0  0  0  0  0  0  0  0  0  0  0
  -24.4290  -13.3280   20.7430 C   0  0  0  0  0  0  0  0  0  0  0  0
  -24.8710  -11.9710   20.7150 C   0  0  0  0  0  0  0  0  0  0  0  0
  -26.5340  -13.1900   20.1240 N   0  0  0  0  0  0  0  0  0  0  0  0
  -26.1600  -11.9130   20.3990 N   0  0  0  0  0  0  0  0  0  0  0  0
  -24.1260  -10.7200   20.9150 C   0  0  0  0  0  0  0  0  0  0  0  0
  -24.5310   -9.7620   21.8700 C   0  0  0  0  0  3  0  0  0  0  0  0
  -23.7890   -8.5760   22.0560 C   0  0  0  0  0  3  0  0  0  0  0  0
  -22.6280   -8.3370   21.2830 C   0  0  0  0  0  0  0  0  0  0  0  0
  -22.2430   -9.2820   20.3150 C   0  0  0  0  0  3  0  0  0  0  0  0
  -22.9850  -10.4610   20.1300 C   0  0  0  0  0  3  0  0  0  0  0  0
  -21.8550   -7.2050   21.3770 O   0  0  0  0  0  0  0  0  0  0  0  0
  -21.7610   -6.4920   22.5470 C   0  0  0  0  0  0  0  0  0  0  0  0
  -21.2880   -7.0790   23.7410 C   0  0  0  0  0  3  0  0  0  0  0  0
  -21.1440   -6.2940   24.9010 C   0  0  0  0  0  3  0  0  0  0  0  0
  -21.4600   -4.9230   24.8690 C   0  0  0  0  0  0  0  0  0  0  0  0
  -21.9230   -4.3340   23.6790 C   0  0  0  0  0  3  0  0  0  0  0  0
  -22.0670   -5.1170   22.5190 C   0  0  0  0  0  0  0  0  0  0  0  0
  -22.4930   -4.5420   21.3680 F   0  0  0  0  0  0  0  0  0  0  0  0
  -21.3130   -4.1640   25.9820 F   0  0  0  0  0  0  0  0  0  0  0  0
  -23.0400  -13.8280   21.0180 C   0  0  0  0  0  0  0  0  0  0  0  0
  -22.3040  -13.1500   21.8920 N   0  0  0  0  0  0  0  0  0  0  0  0
  -22.6130  -14.8540   20.4880 O   0  0  0  0  0  0  0  0  0  0  0  0
  -22.6550  -12.3160   22.3410 H   0  0  0  0  0  0  0  0  0  0  0  0
  -21.3730  -13.4690   22.1160 H   0  0  0  0  0  0  0  0  0  0  0  0
  -25.6940  -15.4520   20.1850 N   0  0  0  0  0  0  0  0  0  0  0  0
  -24.9480  -16.1230   20.3250 H   0  0  0  0  0  0  0  0  0  0  0  0
  -26.5400  -15.8740   19.8200 H   0  0  0  0  0  0  0  0  0  0  0  0
  -28.3460  -23.9470   19.8990 C   0  0  0  0  0  2  0  0  0  0  0  0
  -28.6920  -25.3080   20.6760 C   0  0  0  0  0  2  0  0  0  0  0  0
  -28.6000  -26.6640   20.0780 O   0  0  0  0  0  0  0  0  0  0  0  0
  -24.7060  -31.8990   23.2370 C   0  0  0  0  0  0  0  0  0  0  0  0
  -27.4340  -27.4340   20.1530 C   0  0  0  0  0  0  0  0  0  0  0  0
  -23.5420  -30.5050   21.5640 C   0  0  0  0  0  3  0  0  0  0  0  0
  -25.0350  -28.9860   20.1440 C   0  0  0  0  0  0  0  0  0  0  0  0
  -26.0730  -30.8800   21.3990 C   0  0  0  0  0  2  0  0  0  0  0  0
  -26.1870  -29.5040   20.7480 C   0  0  0  0  0  0  0  0  0  0  0  0
  -27.3940  -28.7420   20.7310 C   0  0  0  0  0  3  0  0  0  0  0  0
  -26.2570  -26.9550   19.5460 C   0  0  0  0  0  3  0  0  0  0  0  0
  -25.0720  -27.7190   19.5330 C   0  0  0  0  0  3  0  0  0  0  0  0
  -23.7820  -29.8380   20.1810 C   0  0  0  0  0  2  0  0  0  0  0  0
  -24.7920  -31.1100   22.1260 N   0  0  0  0  0  0  0  0  0  0  0  0
  -23.6120  -32.1510   23.7660 O   0  0  0  0  0  0  0  0  0  0  0  0
  -22.8830  -29.4670   22.5060 C   0  0  0  0  0  0  0  0  0  0  0  0
  -21.5580  -29.2920   22.3800 N   0  0  0  0  0  0  0  0  0  0  0  0
  -23.5660  -28.8210   23.3050 O   0  0  0  0  0  0  0  0  0  0  0  0
  -21.0670  -29.8630   21.7090 H   0  0  0  0  0  0  0  0  0  0  0  0
  -18.1800  -28.1100   22.8930 C   0  0  0  0  0  0  0  0  0  0  0  0
  -20.7440  -28.3350   23.1320 C   0  0  0  0  0  3  0  0  0  0  0  0
  -20.8210  -26.9250   22.5030 C   0  0  0  0  0  2  0  0  0  0  0  0
  -19.7020  -26.6530   21.4930 C   0  0  0  0  0  2  0  0  0  0  0  0
  -18.3320  -26.7860   22.1650 C   0  0  0  0  0  2  0  0  0  0  0  0
  -19.3120  -28.8460   23.3330 C   0  0  0  0  0  0  0  0  0  0  0  0
  -19.1140  -30.0870   23.9750 C   0  0  0  0  0  3  0  0  0  0  0  0
  -17.8160  -30.5950   24.1780 C   0  0  0  0  0  3  0  0  0  0  0  0
  -16.6990  -29.8550   23.7550 C   0  0  0  0  0  3  0  0  0  0  0  0
  -16.8810  -28.6150   23.1190 C   0  0  0  0  0  3  0  0  0  0  0  0
  -25.9700  -32.5460   23.8830 C   0  0  0  0  0  3  0  0  0  0  0  0
  -26.4710  -31.7770   25.1650 C   0  0  1  0  0  0  0  0  0  0  0  0
  -25.3610  -31.5270   26.2140 C   0  0  0  0  0  1  0  0  0  0  0  0
  -27.0690  -30.4040   24.7760 C   0  0  0  0  0  1  0  0  0  0  0  0
  -27.6060  -32.5750   25.8500 C   0  0  0  0  0  1  0  0  0  0  0  0
  -25.6410  -33.9400   24.2090 N   0  0  0  0  0  0  0  0  0  0  0  0
  -25.9800  -34.9970   23.4590 C   0  0  0  0  0  0  0  0  0  0  0  0
  -26.6670  -34.8990   22.4390 O   0  0  0  0  0  0  0  0  0  0  0  0
  -25.0250  -34.0890   24.9960 H   0  0  0  0  0  0  0  0  0  0  0  0
  -24.2420  -36.7770   23.0790 C   0  0  0  0  0  1  0  0  0  0  0  0
  -25.4750  -36.3830   23.9100 C   0  0  0  0  0  3  0  0  0  0  0  0
  -27.5890  -37.2870   24.7720 C   0  0  0  0  0  1  0  0  0  0  0  0
  -26.5000  -37.4430   23.8110 N   0  0  0  0  0  0  0  0  0  0  0  0
  -26.0850  -38.3590   23.9490 H   0  0  0  0  0  0  0  0  0  0  0  0
  2 50  1  0
  2  3  1  0
  2  1  1  0
  3  4  1  1
  3  1  1  0
  5  7  1  0
  7  3  1  0
  7  6  2  0
  8  5  2  0
  8 11  1  0
  9  6  1  0
  9 20  1  0
 10  8  1  0
 11  9  2  0
 12 20  1  0
 13 18  1  0
 14 15  1  0
 14 13  1  0
 16 15  1  0
 16 25  1  0
 16 17  1  0
 18 12  1  0
 18 17  1  0
 19 12  2  0
 20 21  1  0
 22 23  2  0
 23 42  1  0
 24 23  1  0
 24 27  1  0
 25 22  1  0
 25 26  1  0
 26 24  2  0
 27 28  1  0
 28 29  2  0
 30 33  1  0
 30 29  1  0
 31 30  2  0
 32 31  1  0
 32 27  2  0
 33 34  1  0
 34 35  1  0
 35 36  2  0
 37 36  1  0
 37 41  1  0
 38 37  2  0
 39 34  2  0
 39 38  1  0
 40 39  1  0
 42 43  1  0
 43 46  1  0
 43 45  1  0
 44 42  2  0
 47 48  1  0
 47 22  1  0
 49 47  1  0
 50 51  1  0
 52 54  1  0
 52 51  1  0
 53 64  2  0
 54 59  1  0
 55 63  1  0
 55 65  1  0
 56 62  1  0
 56 58  1  0
 57 63  1  0
 58 57  1  0
 59 58  2  0
 60 54  2  0
 61 60  1  0
 61 56  2  0
 62 55  1  0
 63 53  1  0
 65 67  2  0
 66 65  1  0
 68 66  1  0
 69 78  2  0
 69 74  1  0
 70 66  1  0
 70 74  1  0
 71 70  1  0
 72 73  1  0
 72 71  1  0
 73 69  1  0
 74 75  2  0
 75 76  1  0
 77 76  2  0
 78 77  1  0
 79 53  1  0
 79 84  1  0
 79 80  1  0
 80 83  1  1
 80 81  1  0
 82 80  1  0
 84 87  1  0
 85 89  1  0
 85 84  1  0
 86 85  2  0
 89 88  1  0
 91 89  1  0
 91 92  1  0
 91 90  1  0
M  ISO  4  12 100  20 100  51 101  52 101
M  END
>  <TORSDO>  (75) 
F 19

>  <SCORE>  (75) 
-13.740

>  <name>  (75) 
74

>  <ligand_id>  (75) 
74

>  <original_smiles>  (75) 
[H]c1c([H])c([H])c2c(c1[H])C([H])([H])C([H])([H])C([H])([H])C2([H])N([H])C(=O)C1([H])N(C(=O)C([H])(N([H])C(=O)C([H])(N([H])C([H])([H])[H])C([H])([H])[H])C(C([H])([H])[H])(C([H])([H])[H])C([H])([H])[H])C([H])([H])c2c([H])c(OC([H])([H])C([H])([H])C3([H])C([H])([H])C3(c3c([H])c(N([H])C(=O)N4C([H])([H])C([H])([H])C([H])([H])C([H])(n5nc(-c6c([H])c([H])c(Oc7c([H])c([H])c(F)c([H])c7F)c([H])c6[H])c(C(=O)N([H])[H])c5N([H])[H])C4([H])[H])nc(C([H])([H])[H])c3[H])C([H])([H])[H])c([H])c([H])c2C1([H])[H]

>  <smiles>  (75) 
[H]c1c([H])c([H])c2c(c1[H])C([H])([H])C([H])([H])C([H])([H])C2([H])N([H])C(=O)C1([H])N(C(=O)C([H])(N([H])C(=O)C([H])(N([H])C([H])([H])[H])C([H])([H])[H])C(C([H])([H])[H])(C([H])([H])[H])C([H])([H])[H])C([H])([H])c2c([H])c(OC([H])([H])C([H])([H])C3([H])C([H])([H])C3(c3c([H])c(N([H])C(=O)N4C([H])([H])C([H])([H])C([H])([H])C([H])(n5nc(-c6c([H])c([H])c(Oc7c([H])c([H])c(F)c([H])c7F)c([H])c6[H])c(C(=O)N([H])[H])c5N([H])[H])C4([H])[H])nc(C([H])([H])[H])c3[H])C([H])([H])[H])c([H])c([H])c2C1([H])[H]

$$$$
75:0:0
     RDKit          3D

 94103  0  0  1  0  0  0  0  0999 V2000
  -29.6320  -23.1840   20.0680 C   0  0  0  0  0  3  0  0  0  0  0  0
  -28.1940  -21.2140   20.1490 C   0  0  0  0  0  3  0  0  0  0  0  0
  -28.4630  -24.0460   19.8880 C   0  0  0  0  0  0  0  0  0  0  0  0
  -27.1950  -23.3930   19.8240 C   0  0  0  0  0  0  0  0  0  0  0  0
  -27.0570  -22.0000   19.9840 C   0  0  0  0  0  0  0  0  0  0  0  0
  -29.5090  -21.7240   20.1650 C   0  0  0  0  0  0  0  0  0  0  0  0
  -26.6960  -25.6440   20.0030 C   0  0  0  0  0  2  0  0  0  0  0  0
  -28.1750  -25.5870   19.5150 C   0  0  0  0  0  3  0  0  0  0  0  0
  -26.0310  -24.3460   19.5790 C   0  0  2  0  0  0  0  0  0  0  0  0
  -25.7300  -21.2580   19.9760 C   0  0  0  0  0  1  0  0  0  0  0  0
  -24.7350  -24.1080   20.3910 C   0  0  0  0  0  1  0  0  0  0  0  0
  -25.6160  -24.4260   18.0880 C   0  0  0  0  0  1  0  0  0  0  0  0
  -28.8270  -26.9470   19.7990 O   0  0  0  0  0  0  0  0  0  0  0  0
  -24.9580  -31.6320   23.7530 C   0  0  0  0  0  0  0  0  0  0  0  0
  -27.8800  -28.0280   19.7930 C   0  0  0  0  0  0  0  0  0  0  0  0
  -23.9080  -30.7080   21.7260 C   0  0  0  0  0  3  0  0  0  0  0  0
  -25.5030  -29.6520   20.0280 C   0  0  0  0  0  0  0  0  0  0  0  0
  -26.4600  -31.0930   21.8150 C   0  0  0  0  0  2  0  0  0  0  0  0
  -26.6300  -29.9440   20.8210 C   0  0  0  0  0  0  0  0  0  0  0  0
  -27.8160  -29.1350   20.7180 C   0  0  0  0  0  3  0  0  0  0  0  0
  -26.7810  -27.9370   18.9030 C   0  0  0  0  0  3  0  0  0  0  0  0
  -25.5870  -28.6400   19.0700 C   0  0  0  0  0  3  0  0  0  0  0  0
  -24.2310  -30.4490   20.2380 C   0  0  0  0  0  2  0  0  0  0  0  0
  -25.1250  -31.1520   22.4860 N   0  0  0  0  0  0  0  0  0  0  0  0
  -23.8330  -31.7440   24.2560 O   0  0  0  0  0  0  0  0  0  0  0  0
  -23.2040  -29.4640   22.3260 C   0  0  0  0  0  0  0  0  0  0  0  0
  -21.8900  -29.3210   22.0660 N   0  0  0  0  0  0  0  0  0  0  0  0
  -23.8390  -28.6390   22.9870 O   0  0  0  0  0  0  0  0  0  0  0  0
  -21.4520  -30.0110   21.4670 H   0  0  0  0  0  0  0  0  0  0  0  0
  -18.4750  -28.0900   22.2360 C   0  0  0  0  0  0  0  0  0  0  0  0
  -21.0440  -28.2060   22.4970 C   0  0  0  0  0  3  0  0  0  0  0  0
  -21.1050  -27.0360   21.4890 C   0  0  0  0  0  2  0  0  0  0  0  0
  -19.9700  -27.0770   20.4610 C   0  0  0  0  0  2  0  0  0  0  0  0
  -18.6090  -27.0250   21.1600 C   0  0  0  0  0  2  0  0  0  0  0  0
  -19.6200  -28.6640   22.8450 C   0  0  0  0  0  0  0  0  0  0  0  0
  -19.4530  -29.6970   23.7970 C   0  0  0  0  0  3  0  0  0  0  0  0
  -18.1670  -30.1550   24.1370 C   0  0  0  0  0  3  0  0  0  0  0  0
  -17.0330  -29.5720   23.5430 C   0  0  0  0  0  3  0  0  0  0  0  0
  -17.1850  -28.5400   22.5970 C   0  0  0  0  0  3  0  0  0  0  0  0
  -26.1730  -32.0910   24.6120 C   0  0  0  0  0  3  0  0  0  0  0  0
  -26.4480  -31.1440   25.8440 C   0  0  1  0  0  0  0  0  0  0  0  0
  -25.2010  -30.8780   26.7180 C   0  0  0  0  0  1  0  0  0  0  0  0
  -27.0010  -29.7740   25.3830 C   0  0  0  0  0  1  0  0  0  0  0  0
  -27.5270  -31.7800   26.7500 C   0  0  0  0  0  1  0  0  0  0  0  0
  -25.9090  -33.4680   25.0600 N   0  0  0  0  0  0  0  0  0  0  0  0
  -26.3850  -34.5720   24.4740 C   0  0  0  0  0  0  0  0  0  0  0  0
  -27.1640  -34.5370   23.5170 O   0  0  0  0  0  0  0  0  0  0  0  0
  -25.2370  -33.5780   25.8050 H   0  0  0  0  0  0  0  0  0  0  0  0
  -24.8120  -36.5060   24.1550 C   0  0  0  0  0  1  0  0  0  0  0  0
  -25.9320  -35.9330   25.0350 C   0  0  0  0  0  3  0  0  0  0  0  0
  -28.0060  -36.5830   26.1790 C   0  0  0  0  0  1  0  0  0  0  0  0
  -27.0280  -36.9180   25.1450 N   0  0  0  0  0  0  0  0  0  0  0  0
  -26.6600  -37.8460   25.3390 H   0  0  0  0  0  0  0  0  0  0  0  0
  -30.5570  -20.7550   20.2590 O   0  0  0  0  0  0  0  0  0  0  0  0
  -30.1830  -19.3120   20.4620 C   0  0  0  0  0  3  0  0  0  0  0  0
  -31.2140  -18.0950   20.4460 C   0  0  0  0  0  3  0  0  0  0  0  0
  -31.3830  -15.4940   20.5240 C   0  0  0  0  0  0  0  0  0  0  0  0
  -31.2000  -13.1520   19.6950 C   0  0  0  0  0  2  0  0  0  0  0  0
  -30.3570  -13.1210   18.4010 C   0  0  0  0  0  2  0  0  0  0  0  0
  -28.8640  -12.9490   18.7480 C   0  0  0  0  0  2  0  0  0  0  0  0
  -28.3910  -13.9140   19.8660 C   0  0  0  0  0  3  0  0  0  0  0  0
  -29.3800  -13.9910   21.0570 C   0  0  0  0  0  2  0  0  0  0  0  0
  -30.7150  -14.2850   20.5160 N   0  0  0  0  0  0  0  0  0  0  0  0
  -32.5730  -15.5470   20.2240 O   0  0  0  0  0  0  0  0  0  0  0  0
  -30.6790  -16.6730   20.6640 N   0  0  0  0  0  0  0  0  0  0  0  0
  -29.6860  -16.5820   20.8280 H   0  0  0  0  0  0  0  0  0  0  0  0
  -25.9850  -14.5220   20.5250 C   0  0  0  0  0  0  0  0  0  0  0  0
  -24.8940  -13.7480   20.8350 C   0  0  0  0  0  0  0  0  0  0  0  0
  -25.3430  -12.3940   20.7830 C   0  0  0  0  0  0  0  0  0  0  0  0
  -27.0230  -13.6310   20.2940 N   0  0  0  0  0  0  0  0  0  0  0  0
  -26.6420  -12.3460   20.5160 N   0  0  0  0  0  0  0  0  0  0  0  0
  -24.5860  -11.1370   20.9100 C   0  0  0  0  0  0  0  0  0  0  0  0
  -24.9020  -10.1850   21.8990 C   0  0  0  0  0  3  0  0  0  0  0  0
  -24.1500   -8.9950   22.0130 C   0  0  0  0  0  3  0  0  0  0  0  0
  -23.0680   -8.7520   21.1370 C   0  0  0  0  0  0  0  0  0  0  0  0
  -22.7730   -9.6940   20.1350 C   0  0  0  0  0  3  0  0  0  0  0  0
  -23.5270  -10.8740   20.0200 C   0  0  0  0  0  3  0  0  0  0  0  0
  -22.2950   -7.6150   21.1600 O   0  0  0  0  0  0  0  0  0  0  0  0
  -22.0190   -6.9550   22.3290 C   0  0  0  0  0  0  0  0  0  0  0  0
  -21.3450   -7.5840   23.3980 C   0  0  0  0  0  3  0  0  0  0  0  0
  -21.0090   -6.8470   24.5510 C   0  0  0  0  0  3  0  0  0  0  0  0
  -21.3480   -5.4820   24.6440 C   0  0  0  0  0  0  0  0  0  0  0  0
  -22.0200   -4.8570   23.5790 C   0  0  0  0  0  3  0  0  0  0  0  0
  -22.3510   -5.5900   22.4270 C   0  0  0  0  0  0  0  0  0  0  0  0
  -22.9780   -4.9730   21.3960 F   0  0  0  0  0  0  0  0  0  0  0  0
  -21.0260   -4.7710   25.7490 F   0  0  0  0  0  0  0  0  0  0  0  0
  -23.4950  -14.2360   21.0690 C   0  0  0  0  0  0  0  0  0  0  0  0
  -22.7370  -13.5270   21.9020 N   0  0  0  0  0  0  0  0  0  0  0  0
  -23.0820  -15.2760   20.5560 O   0  0  0  0  0  0  0  0  0  0  0  0
  -23.0860  -12.6830   22.3310 H   0  0  0  0  0  0  0  0  0  0  0  0
  -21.7950  -13.8220   22.1050 H   0  0  0  0  0  0  0  0  0  0  0  0
  -26.1680  -15.8910   20.4000 N   0  0  0  0  0  0  0  0  0  0  0  0
  -25.3980  -16.5490   20.4880 H   0  0  0  0  0  0  0  0  0  0  0  0
  -27.0280  -16.3440   20.0960 H   0  0  0  0  0  0  0  0  0  0  0  0
  1  6  1  0
  2  6  2  0
  3  1  2  0
  4  3  1  0
  4  5  2  0
  5  2  1  0
  6 54  1  0
  8 13  1  0
  8  3  1  0
  8  7  1  0
  9  4  1  0
  9  7  1  0
  9 11  1  1
 10  5  1  0
 12  9  1  0
 14 25  2  0
 15 13  1  0
 15 20  1  0
 16 26  1  0
 16 24  1  0
 17 23  1  0
 17 19  1  0
 18 24  1  0
 19 18  1  0
 20 19  2  0
 21 22  1  0
 21 15  2  0
 22 17  2  0
 23 16  1  0
 24 14  1  0
 26 28  2  0
 27 26  1  0
 29 27  1  0
 30 39  2  0
 30 35  1  0
 31 27  1  0
 31 35  1  0
 32 31  1  0
 33 34  1  0
 33 32  1  0
 34 30  1  0
 35 36  2  0
 36 37  1  0
 38 37  2  0
 39 38  1  0
 40 14  1  0
 40 45  1  0
 40 41  1  0
 41 42  1  1
 41 44  1  0
 43 41  1  0
 45 48  1  0
 46 50  1  0
 46 45  1  0
 47 46  2  0
 50 49  1  0
 50 52  1  0
 52 53  1  0
 52 51  1  0
 54 55  1  0
 56 55  2  0
 56 65  1  0
 57 65  1  0
 58 63  1  0
 59 60  1  0
 59 58  1  0
 61 60  1  0
 61 70  1  0
 61 62  1  0
 63 57  1  0
 63 62  1  0
 64 57  2  0
 65 66  1  0
 67 68  2  0
 68 87  1  0
 69 68  1  0
 69 72  1  0
 70 71  1  0
 70 67  1  0
 71 69  2  0
 72 73  1  0
 73 74  2  0
 75 78  1  0
 75 74  1  0
 76 75  2  0
 77 76  1  0
 77 72  2  0
 78 79  1  0
 79 84  2  0
 79 80  1  0
 80 81  2  0
 81 82  1  0
 82 86  1  0
 83 82  2  0
 84 83  1  0
 85 84  1  0
 87 88  1  0
 88 91  1  0
 88 90  1  0
 89 87  2  0
 92 93  1  0
 92 67  1  0
 94 92  1  0
M  ISO  4   8 101  13 101  57 100  65 100
M  END
>  <TORSDO>  (76) 
F 19

>  <SCORE>  (76) 
-9.569

>  <name>  (76) 
75

>  <ligand_id>  (76) 
75

>  <original_smiles>  (76) 
[H]c1c([H])c([H])c2c(c1[H])C([H])([H])C([H])([H])C([H])([H])C2([H])N([H])C(=O)C1([H])N(C(=O)C([H])(N([H])C(=O)C([H])(N([H])C([H])([H])[H])C([H])([H])[H])C(C([H])([H])[H])(C([H])([H])[H])C([H])([H])[H])C([H])([H])c2c([H])c(OC3([H])c4c([H])c(OC([H])([H])C([H])([H])N([H])C(=O)N5C([H])([H])C([H])([H])C([H])([H])C([H])(n6nc(-c7c([H])c([H])c(Oc8c([H])c([H])c(F)c([H])c8F)c([H])c7[H])c(C(=O)N([H])[H])c6N([H])[H])C5([H])[H])c([H])c(C([H])([H])[H])c4C(C([H])([H])[H])(C([H])([H])[H])C3([H])[H])c([H])c([H])c2C1([H])[H]

>  <smiles>  (76) 
[H]c1c([H])c([H])c2c(c1[H])C([H])([H])C([H])([H])C([H])([H])C2([H])N([H])C(=O)C1([H])N(C(=O)C([H])(N([H])C(=O)C([H])(N([H])C([H])([H])[H])C([H])([H])[H])C(C([H])([H])[H])(C([H])([H])[H])C([H])([H])[H])C([H])([H])c2c([H])c(OC3([H])c4c([H])c(OC([H])([H])C([H])([H])N([H])C(=O)N5C([H])([H])C([H])([H])C([H])([H])C([H])(n6nc(-c7c([H])c([H])c(Oc8c([H])c([H])c(F)c([H])c8F)c([H])c7[H])c(C(=O)N([H])[H])c6N([H])[H])C5([H])[H])c([H])c(C([H])([H])[H])c4C(C([H])([H])[H])(C([H])([H])[H])C3([H])[H])c([H])c([H])c2C1([H])[H]

$$$$
76:0:0
     RDKit          3D

 93102  0  0  1  0  0  0  0  0999 V2000
  -28.9650  -21.6900   21.0800 C   0  0  0  0  0  0  0  0  0  0  0  0
  -28.5670  -23.0800   21.0950 C   0  0  0  0  0  0  0  0  0  0  0  0
  -29.2410  -21.0050   19.8490 C   0  0  0  0  0  0  0  0  0  0  0  0
  -28.4900  -23.8730   19.9000 C   0  0  0  0  0  0  0  0  0  0  0  0
  -29.1280  -21.8880   18.7140 C   0  0  0  0  0  0  0  0  0  0  0  0
  -29.0870  -20.9540   22.4130 C   0  0  0  0  0  1  0  0  0  0  0  0
  -28.1910  -23.7370   22.4300 C   0  0  0  0  0  1  0  0  0  0  0  0
  -29.3910  -21.3400   17.3250 C   0  0  0  0  0  1  0  0  0  0  0  0
  -28.7790  -23.2300   18.7320 N   0  0  0  0  0  0  0  0  0  0  0  0
  -30.9180  -15.2070   19.8340 C   0  0  0  0  0  0  0  0  0  0  0  0
  -30.6250  -12.8560   19.0130 C   0  0  0  0  0  2  0  0  0  0  0  0
  -29.6610  -12.7800   17.8120 C   0  0  0  0  0  2  0  0  0  0  0  0
  -28.2160  -12.5980   18.3080 C   0  0  0  0  0  2  0  0  0  0  0  0
  -27.8520  -13.5900   19.4430 C   0  0  0  0  0  3  0  0  0  0  0  0
  -28.9500  -13.6830   20.5310 C   0  0  0  0  0  2  0  0  0  0  0  0
  -30.2060  -14.0160   19.8480 N   0  0  0  0  0  0  0  0  0  0  0  0
  -32.1140  -15.1260   19.5330 O   0  0  0  0  0  0  0  0  0  0  0  0
  -30.8200  -19.1020   20.3970 C   0  0  0  0  0  3  0  0  0  0  0  0
  -28.5700  -18.5120   19.8570 C   0  0  0  0  0  3  0  0  0  0  0  0
  -31.3110  -17.6690   19.9530 C   0  0  0  0  0  3  0  0  0  0  0  0
  -29.0020  -16.9840   19.6140 C   0  0  0  0  0  3  0  0  0  0  0  0
  -29.5980  -19.5780   19.7310 N   0  0  0  0  0  0  0  0  0  0  0  0
  -30.3670  -16.5020   19.9970 N   0  0  0  0  0  0  0  0  0  0  0  0
  -25.5280  -14.2100   20.3200 C   0  0  0  0  0  0  0  0  0  0  0  0
  -24.4660  -13.4490   20.7260 C   0  0  0  0  0  0  0  0  0  0  0  0
  -24.8960  -12.0900   20.6360 C   0  0  0  0  0  0  0  0  0  0  0  0
  -26.5360  -13.3150   20.0070 N   0  0  0  0  0  0  0  0  0  0  0  0
  -26.1690  -12.0330   20.2640 N   0  0  0  0  0  0  0  0  0  0  0  0
  -24.1500  -10.8410   20.8250 C   0  0  0  0  0  0  0  0  0  0  0  0
  -24.5380   -9.8880   21.7930 C   0  0  0  0  0  3  0  0  0  0  0  0
  -23.7920   -8.7030   21.9700 C   0  0  0  0  0  3  0  0  0  0  0  0
  -22.6440   -8.4620   21.1790 C   0  0  0  0  0  0  0  0  0  0  0  0
  -22.2760   -9.4020   20.2000 C   0  0  0  0  0  3  0  0  0  0  0  0
  -23.0230  -10.5790   20.0220 C   0  0  0  0  0  3  0  0  0  0  0  0
  -21.8720   -7.3280   21.2650 O   0  0  0  0  0  0  0  0  0  0  0  0
  -21.6780   -6.6780   22.4570 C   0  0  0  0  0  0  0  0  0  0  0  0
  -21.0550   -7.3070   23.5570 C   0  0  0  0  0  3  0  0  0  0  0  0
  -20.8140   -6.5800   24.7400 C   0  0  0  0  0  3  0  0  0  0  0  0
  -21.1860   -5.2240   24.8220 C   0  0  0  0  0  0  0  0  0  0  0  0
  -21.8010   -4.5950   23.7260 C   0  0  0  0  0  3  0  0  0  0  0  0
  -22.0440   -5.3200   22.5460 C   0  0  0  0  0  0  0  0  0  0  0  0
  -22.6180   -4.7030   21.4840 F   0  0  0  0  0  0  0  0  0  0  0  0
  -20.9470   -4.5240   25.9550 F   0  0  0  0  0  0  0  0  0  0  0  0
  -23.0960  -13.9520   21.0760 C   0  0  0  0  0  0  0  0  0  0  0  0
  -22.4040  -13.2650   21.9780 N   0  0  0  0  0  0  0  0  0  0  0  0
  -22.6510  -14.9880   20.5840 O   0  0  0  0  0  0  0  0  0  0  0  0
  -22.7770  -12.4260   22.3970 H   0  0  0  0  0  0  0  0  0  0  0  0
  -21.4870  -13.5850   22.2550 H   0  0  0  0  0  0  0  0  0  0  0  0
  -25.7070  -15.5810   20.1650 N   0  0  0  0  0  0  0  0  0  0  0  0
  -24.9510  -16.2370   20.3220 H   0  0  0  0  0  0  0  0  0  0  0  0
  -26.5280  -16.0090   19.7610 H   0  0  0  0  0  0  0  0  0  0  0  0
  -27.9270  -25.3960   19.9860 C   0  0  0  0  0  2  0  0  0  0  0  0
  -28.0140  -26.5380   18.9990 O   0  0  0  0  0  0  0  0  0  0  0  0
  -24.6820  -31.6210   23.0280 C   0  0  0  0  0  0  0  0  0  0  0  0
  -26.9860  -27.5020   19.1540 C   0  0  0  0  0  0  0  0  0  0  0  0
  -23.3370  -30.4530   21.3210 C   0  0  0  0  0  3  0  0  0  0  0  0
  -24.6550  -29.1350   19.5630 C   0  0  0  0  0  0  0  0  0  0  0  0
  -25.8590  -30.8030   20.9680 C   0  0  0  0  0  2  0  0  0  0  0  0
  -25.8790  -29.5260   20.1240 C   0  0  0  0  0  0  0  0  0  0  0  0
  -27.0500  -28.7230   19.9120 C   0  0  0  0  0  3  0  0  0  0  0  0
  -25.7460  -27.2040   18.5510 C   0  0  0  0  0  3  0  0  0  0  0  0
  -24.5940  -27.9850   18.7620 C   0  0  0  0  0  3  0  0  0  0  0  0
  -23.4300  -29.9840   19.8460 C   0  0  0  0  0  2  0  0  0  0  0  0
  -24.6490  -30.9690   21.8280 N   0  0  0  0  0  0  0  0  0  0  0  0
  -23.6490  -31.8110   23.6890 O   0  0  0  0  0  0  0  0  0  0  0  0
  -22.7570  -29.3060   22.1850 C   0  0  0  0  0  0  0  0  0  0  0  0
  -21.4280  -29.1130   22.1250 N   0  0  0  0  0  0  0  0  0  0  0  0
  -23.5000  -28.5990   22.8700 O   0  0  0  0  0  0  0  0  0  0  0  0
  -20.8840  -29.7370   21.5470 H   0  0  0  0  0  0  0  0  0  0  0  0
  -18.1150  -27.7690   22.6920 C   0  0  0  0  0  0  0  0  0  0  0  0
  -20.6810  -28.0640   22.8230 C   0  0  0  0  0  3  0  0  0  0  0  0
  -20.7700  -26.7190   22.0650 C   0  0  0  0  0  2  0  0  0  0  0  0
  -19.6070  -26.4970   21.0930 C   0  0  0  0  0  2  0  0  0  0  0  0
  -18.2700  -26.5220   21.8380 C   0  0  0  0  0  2  0  0  0  0  0  0
  -19.2450  -28.5020   23.1410 C   0  0  0  0  0  0  0  0  0  0  0  0
  -19.0430  -29.6730   23.9040 C   0  0  0  0  0  3  0  0  0  0  0  0
  -17.7430  -30.1110   24.2180 C   0  0  0  0  0  3  0  0  0  0  0  0
  -16.6280  -29.3750   23.7840 C   0  0  0  0  0  3  0  0  0  0  0  0
  -16.8140  -28.2040   23.0260 C   0  0  0  0  0  3  0  0  0  0  0  0
  -26.0150  -32.1760   23.6190 C   0  0  0  0  0  3  0  0  0  0  0  0
  -25.7550  -33.5430   24.0940 N   0  0  0  0  0  0  0  0  0  0  0  0
  -26.0650  -34.6580   23.4190 C   0  0  0  0  0  0  0  0  0  0  0  0
  -26.6690  -34.6400   22.3420 O   0  0  0  0  0  0  0  0  0  0  0  0
  -25.2130  -33.6310   24.9410 H   0  0  0  0  0  0  0  0  0  0  0  0
  -24.3510  -36.4990   23.3540 C   0  0  0  0  0  1  0  0  0  0  0  0
  -25.6380  -36.0050   24.0330 C   0  0  0  0  0  3  0  0  0  0  0  0
  -27.8340  -36.7920   24.7980 C   0  0  0  0  0  1  0  0  0  0  0  0
  -26.6810  -37.0510   23.9410 N   0  0  0  0  0  0  0  0  0  0  0  0
  -26.3010  -37.9610   24.1860 H   0  0  0  0  0  0  0  0  0  0  0  0
  -26.5950  -31.2850   24.7850 C   0  0  1  0  0  0  0  0  0  0  0  0
  -25.5700  -30.9800   25.9040 C   0  0  0  0  0  1  0  0  0  0  0  0
  -27.1110  -29.9330   24.2400 C   0  0  0  0  0  1  0  0  0  0  0  0
  -27.8100  -31.9930   25.4300 C   0  0  0  0  0  1  0  0  0  0  0  0
  1  2  1  0
  1  6  1  0
  2  7  1  0
  3  1  2  0
  4 52  1  0
  4  2  2  0
  5  9  2  0
  5  3  1  0
  8  5  1  0
  9  4  1  0
 10 16  1  0
 10 23  1  0
 11 16  1  0
 12 13  1  0
 12 11  1  0
 14 13  1  0
 14 27  1  0
 14 15  1  0
 16 15  1  0
 17 10  2  0
 20 23  1  0
 20 18  2  0
 21 19  2  0
 21 23  1  0
 22  3  1  0
 22 19  1  0
 22 18  1  0
 24 25  2  0
 25 44  1  0
 26 25  1  0
 26 29  1  0
 27 28  1  0
 27 24  1  0
 28 26  2  0
 29 30  1  0
 30 31  2  0
 32 35  1  0
 32 31  1  0
 33 32  2  0
 34 33  1  0
 34 29  2  0
 35 36  1  0
 36 41  2  0
 36 37  1  0
 37 38  2  0
 38 39  1  0
 39 43  1  0
 40 39  2  0
 41 40  1  0
 42 41  1  0
 44 45  1  0
 45 48  1  0
 45 47  1  0
 46 44  2  0
 49 24  1  0
 49 50  1  0
 51 49  1  0
 53 55  1  0
 53 52  1  0
 54 65  2  0
 55 60  1  0
 56 64  1  0
 56 66  1  0
 57 63  1  0
 57 59  1  0
 58 64  1  0
 59 58  1  0
 60 59  2  0
 61 62  1  0
 61 55  2  0
 62 57  2  0
 63 56  1  0
 64 54  1  0
 66 68  2  0
 67 66  1  0
 69 67  1  0
 70 79  2  0
 70 75  1  0
 71 67  1  0
 71 75  1  0
 72 71  1  0
 73 74  1  0
 73 72  1  0
 74 70  1  0
 75 76  2  0
 76 77  1  0
 78 77  2  0
 79 78  1  0
 80 54  1  0
 80 81  1  0
 80 90  1  0
 81 84  1  0
 82 86  1  0
 82 81  1  0
 83 82  2  0
 86 85  1  0
 88 86  1  0
 88 89  1  0
 88 87  1  0
 90 93  1  1
 90 91  1  0
 92 90  1  0
M  ISO  4  10 100  23 100  52 101  53 101
M  END
>  <TORSDO>  (77) 
F 17

>  <SCORE>  (77) 
-12.887

>  <name>  (77) 
76

>  <ligand_id>  (77) 
76

>  <original_smiles>  (77) 
[H]c1c([H])c([H])c2c(c1[H])C([H])([H])C([H])([H])C([H])([H])C2([H])N([H])C(=O)C1([H])N(C(=O)C([H])(N([H])C(=O)C([H])(N([H])C([H])([H])[H])C([H])([H])[H])C(C([H])([H])[H])(C([H])([H])[H])C([H])([H])[H])C([H])([H])c2c([H])c(OC([H])([H])c3nc(C([H])([H])[H])c(N4C([H])([H])C([H])([H])N(C(=O)N5C([H])([H])C([H])([H])C([H])([H])C([H])(n6nc(-c7c([H])c([H])c(Oc8c([H])c([H])c(F)c([H])c8F)c([H])c7[H])c(C(=O)N([H])[H])c6N([H])[H])C5([H])[H])C([H])([H])C4([H])[H])c(C([H])([H])[H])c3C([H])([H])[H])c([H])c([H])c2C1([H])[H]

>  <smiles>  (77) 
[H]c1c([H])c([H])c2c(c1[H])C([H])([H])C([H])([H])C([H])([H])C2([H])N([H])C(=O)C1([H])N(C(=O)C([H])(N([H])C(=O)C([H])(N([H])C([H])([H])[H])C([H])([H])[H])C(C([H])([H])[H])(C([H])([H])[H])C([H])([H])[H])C([H])([H])c2c([H])c(OC([H])([H])c3nc(C([H])([H])[H])c(N4C([H])([H])C([H])([H])N(C(=O)N5C([H])([H])C([H])([H])C([H])([H])C([H])(n6nc(-c7c([H])c([H])c(Oc8c([H])c([H])c(F)c([H])c8F)c([H])c7[H])c(C(=O)N([H])[H])c6N([H])[H])C5([H])[H])C([H])([H])C4([H])[H])c(C([H])([H])[H])c3C([H])([H])[H])c([H])c([H])c2C1([H])[H]

$$$$
77:0:0
     RDKit          3D

 96105  0  0  1  0  0  0  0  0999 V2000
  -28.8680  -23.8120   18.0240 C   0  0  0  0  0  3  0  0  0  0  0  0
  -30.7730  -22.9570   19.8820 C   0  0  0  0  0  3  0  0  0  0  0  0
  -29.4300  -22.5270   17.8950 C   0  0  0  0  0  0  0  0  0  0  0  0
  -30.2150  -24.2520   20.0000 C   0  0  0  0  0  0  0  0  0  0  0  0
  -29.2850  -24.7050   19.0300 C   0  0  0  0  0  0  0  0  0  0  0  0
  -30.4470  -22.1120   18.7960 C   0  0  0  0  0  0  0  0  0  0  0  0
  -28.9650  -21.6610   16.7320 C   0  0  0  0  0  1  0  0  0  0  0  0
  -30.6810  -25.1400   21.1410 C   0  0  0  0  0  1  0  0  0  0  0  0
  -32.8150  -21.2450   18.5130 C   0  0  0  0  0  1  0  0  0  0  0  0
  -31.3170  -20.8740   18.5190 C   0  0  0  0  0  3  0  0  0  0  0  0
  -31.5980  -18.3590   18.5940 C   0  0  0  0  0  2  0  0  0  0  0  0
  -29.6410  -19.3470   19.9060 C   0  0  0  0  0  2  0  0  0  0  0  0
  -30.8070  -17.0750   18.8550 C   0  0  0  0  0  2  0  0  0  0  0  0
  -29.5400  -18.0650   20.7920 C   0  0  0  0  0  2  0  0  0  0  0  0
  -31.0760  -19.5950   19.3770 C   0  0  0  0  0  3  0  0  0  0  0  0
  -30.5060  -16.9280   20.3610 C   0  0  0  0  0  3  0  0  0  0  0  0
  -30.7340  -14.4590   20.4830 C   0  0  0  0  0  0  0  0  0  0  0  0
  -30.3850  -12.3150   19.3580 C   0  0  0  0  0  2  0  0  0  0  0  0
  -29.4740  -12.5630   18.1400 C   0  0  0  0  0  2  0  0  0  0  0  0
  -27.9930  -12.4440   18.5460 C   0  0  0  0  0  2  0  0  0  0  0  0
  -27.6440  -13.2780   19.8100 C   0  0  0  0  0  3  0  0  0  0  0  0
  -28.6850  -13.0590   20.9320 C   0  0  0  0  0  2  0  0  0  0  0  0
  -30.0200  -13.3110   20.3730 N   0  0  0  0  0  0  0  0  0  0  0  0
  -31.9210  -14.5380   20.1620 O   0  0  0  0  0  0  0  0  0  0  0  0
  -30.0140  -15.5770   20.6830 N   0  0  0  0  0  0  0  0  0  0  0  0
  -29.0390  -15.4670   20.9130 H   0  0  0  0  0  0  0  0  0  0  0  0
  -25.2370  -13.8920   20.4770 C   0  0  0  0  0  0  0  0  0  0  0  0
  -24.1620  -13.1250   20.8370 C   0  0  0  0  0  0  0  0  0  0  0  0
  -24.6210  -11.7720   20.8270 C   0  0  0  0  0  0  0  0  0  0  0  0
  -26.2840  -13.0090   20.2710 N   0  0  0  0  0  0  0  0  0  0  0  0
  -25.9160  -11.7280   20.5390 N   0  0  0  0  0  0  0  0  0  0  0  0
  -23.8910  -10.5120   21.0180 C   0  0  0  0  0  0  0  0  0  0  0  0
  -24.3010   -9.5570   21.9740 C   0  0  0  0  0  3  0  0  0  0  0  0
  -23.5700   -8.3620   22.1520 C   0  0  0  0  0  3  0  0  0  0  0  0
  -22.4140   -8.1140   21.3750 C   0  0  0  0  0  0  0  0  0  0  0  0
  -22.0230   -9.0580   20.4080 C   0  0  0  0  0  3  0  0  0  0  0  0
  -22.7550  -10.2430   20.2280 C   0  0  0  0  0  3  0  0  0  0  0  0
  -21.6580   -6.9700   21.4600 O   0  0  0  0  0  0  0  0  0  0  0  0
  -21.5850   -6.2400   22.6190 C   0  0  0  0  0  0  0  0  0  0  0  0
  -21.1210   -6.8050   23.8270 C   0  0  0  0  0  3  0  0  0  0  0  0
  -20.9940   -6.0030   24.9780 C   0  0  0  0  0  3  0  0  0  0  0  0
  -21.3200   -4.6360   24.9230 C   0  0  0  0  0  0  0  0  0  0  0  0
  -21.7780   -4.0670   23.7210 C   0  0  0  0  0  3  0  0  0  0  0  0
  -21.9060   -4.8680   22.5710 C   0  0  0  0  0  0  0  0  0  0  0  0
  -22.3260   -4.3120   21.4100 F   0  0  0  0  0  0  0  0  0  0  0  0
  -21.1910   -3.8620   26.0280 F   0  0  0  0  0  0  0  0  0  0  0  0
  -22.7610  -13.6060   21.0820 C   0  0  0  0  0  0  0  0  0  0  0  0
  -22.0140  -12.9200   21.9410 N   0  0  0  0  0  0  0  0  0  0  0  0
  -22.3350  -14.6290   20.5470 O   0  0  0  0  0  0  0  0  0  0  0  0
  -22.3680  -12.0930   22.3980 H   0  0  0  0  0  0  0  0  0  0  0  0
  -21.0740  -13.2270   22.1440 H   0  0  0  0  0  0  0  0  0  0  0  0
  -25.4060  -15.2610   20.2880 N   0  0  0  0  0  0  0  0  0  0  0  0
  -24.6410  -15.9190   20.3950 H   0  0  0  0  0  0  0  0  0  0  0  0
  -26.2550  -15.6960   19.9530 H   0  0  0  0  0  0  0  0  0  0  0  0
  -28.8160  -26.1590   18.9330 C   0  0  0  0  0  2  0  0  0  0  0  0
  -28.3900  -26.7430   20.1620 O   0  0  0  0  0  0  0  0  0  0  0  0
  -24.5570  -31.8700   23.2280 C   0  0  0  0  0  0  0  0  0  0  0  0
  -27.2140  -27.4560   20.1380 C   0  0  0  0  0  0  0  0  0  0  0  0
  -23.3530  -30.4710   21.5800 C   0  0  0  0  0  3  0  0  0  0  0  0
  -24.8100  -28.9390   20.1550 C   0  0  0  0  0  0  0  0  0  0  0  0
  -25.8760  -30.8380   21.3850 C   0  0  0  0  0  2  0  0  0  0  0  0
  -25.9630  -29.4680   20.7480 C   0  0  0  0  0  0  0  0  0  0  0  0
  -27.1640  -28.7270   20.7500 C   0  0  0  0  0  3  0  0  0  0  0  0
  -26.0390  -26.9260   19.5580 C   0  0  0  0  0  3  0  0  0  0  0  0
  -24.8390  -27.6640   19.5610 C   0  0  0  0  0  3  0  0  0  0  0  0
  -23.5660  -29.7980   20.1970 C   0  0  0  0  0  2  0  0  0  0  0  0
  -24.6130  -31.0760   22.1220 N   0  0  0  0  0  0  0  0  0  0  0  0
  -23.4750  -32.1400   23.7700 O   0  0  0  0  0  0  0  0  0  0  0  0
  -22.7050  -29.4450   22.5370 C   0  0  0  0  0  0  0  0  0  0  0  0
  -21.3790  -29.2670   22.4150 N   0  0  0  0  0  0  0  0  0  0  0  0
  -23.3890  -28.8140   23.3460 O   0  0  0  0  0  0  0  0  0  0  0  0
  -20.8860  -29.8290   21.7340 H   0  0  0  0  0  0  0  0  0  0  0  0
  -18.0020  -28.0930   22.9290 C   0  0  0  0  0  0  0  0  0  0  0  0
  -20.5630  -28.3290   23.1850 C   0  0  0  0  0  3  0  0  0  0  0  0
  -20.6510  -26.9020   22.5950 C   0  0  0  0  0  2  0  0  0  0  0  0
  -19.5390  -26.5970   21.5860 C   0  0  0  0  0  2  0  0  0  0  0  0
  -18.1630  -26.7480   22.2430 C   0  0  0  0  0  2  0  0  0  0  0  0
  -19.1290  -28.8420   23.3580 C   0  0  0  0  0  0  0  0  0  0  0  0
  -18.9250  -30.1030   23.9610 C   0  0  0  0  0  3  0  0  0  0  0  0
  -17.6270  -30.6140   24.1400 C   0  0  0  0  0  3  0  0  0  0  0  0
  -16.5130  -29.8610   23.7280 C   0  0  0  0  0  3  0  0  0  0  0  0
  -16.7010  -28.6020   23.1290 C   0  0  0  0  0  3  0  0  0  0  0  0
  -25.8430  -32.5000   23.8490 C   0  0  0  0  0  3  0  0  0  0  0  0
  -26.3600  -31.7300   25.1260 C   0  0  1  0  0  0  0  0  0  0  0  0
  -25.2690  -31.4980   26.1970 C   0  0  0  0  0  1  0  0  0  0  0  0
  -26.9390  -30.3500   24.7330 C   0  0  0  0  0  1  0  0  0  0  0  0
  -27.5140  -32.5220   25.7860 C   0  0  0  0  0  1  0  0  0  0  0  0
  -25.5370  -33.8990   24.1750 N   0  0  0  0  0  0  0  0  0  0  0  0
  -25.8810  -34.9480   23.4160 C   0  0  0  0  0  0  0  0  0  0  0  0
  -26.5640  -34.8420   22.3940 O   0  0  0  0  0  0  0  0  0  0  0  0
  -24.9340  -34.0570   24.9680 H   0  0  0  0  0  0  0  0  0  0  0  0
  -24.1740  -36.7520   23.0220 C   0  0  0  0  0  1  0  0  0  0  0  0
  -25.3910  -36.3380   23.8650 C   0  0  0  0  0  3  0  0  0  0  0  0
  -27.5140  -37.2040   24.7460 C   0  0  0  0  0  1  0  0  0  0  0  0
  -26.4310  -37.3870   23.7830 N   0  0  0  0  0  0  0  0  0  0  0  0
  -26.0260  -38.3070   23.9360 H   0  0  0  0  0  0  0  0  0  0  0  0
  1  5  1  0
  2  4  1  0
  3  1  2  0
  3  6  1  0
  4  8  1  0
  5  4  2  0
  6  2  2  0
  7  3  1  0
 10  9  1  0
 10  6  1  0
 11 13  1  0
 11 15  1  0
 12 14  1  0
 13 16  1  0
 15 10  1  0
 15 12  1  0
 16 25  1  0
 16 14  1  0
 17 25  1  0
 18 23  1  0
 19 20  1  0
 19 18  1  0
 21 20  1  0
 21 30  1  0
 21 22  1  0
 23 17  1  0
 23 22  1  0
 24 17  2  0
 25 26  1  0
 27 28  2  0
 28 47  1  0
 29 28  1  0
 29 32  1  0
 30 27  1  0
 30 31  1  0
 31 29  2  0
 32 33  1  0
 33 34  2  0
 35 38  1  0
 35 34  1  0
 36 35  2  0
 37 36  1  0
 37 32  2  0
 38 39  1  0
 39 40  1  0
 40 41  2  0
 42 41  1  0
 42 46  1  0
 43 42  2  0
 44 39  2  0
 44 43  1  0
 45 44  1  0
 47 48  1  0
 48 51  1  0
 48 50  1  0
 49 47  2  0
 52 53  1  0
 52 27  1  0
 54 52  1  0
 55  5  1  0
 55 56  1  0
 57 68  2  0
 58 56  1  0
 58 63  1  0
 59 67  1  0
 59 69  1  0
 60 66  1  0
 60 62  1  0
 61 67  1  0
 62 63  2  0
 62 61  1  0
 64 65  1  0
 64 58  2  0
 65 60  2  0
 66 59  1  0
 67 57  1  0
 69 71  2  0
 70 69  1  0
 72 70  1  0
 73 82  2  0
 73 78  1  0
 74 70  1  0
 74 78  1  0
 75 74  1  0
 76 77  1  0
 76 75  1  0
 77 73  1  0
 78 79  2  0
 79 80  1  0
 81 80  2  0
 82 81  1  0
 83 57  1  0
 83 88  1  0
 83 84  1  0
 84 87  1  1
 84 85  1  0
 86 84  1  0
 88 91  1  0
 89 93  1  0
 89 88  1  0
 90 89  2  0
 93 92  1  0
 95 93  1  0
 95 96  1  0
 95 94  1  0
M  ISO  4  17 100  25 100  55 101  56 101
M  END
>  <TORSDO>  (78) 
F 19

>  <SCORE>  (78) 
-14.226

>  <name>  (78) 
77

>  <ligand_id>  (78) 
77

>  <original_smiles>  (78) 
[H]c1c([H])c([H])c2c(c1[H])C([H])([H])C([H])([H])C([H])([H])C2([H])N([H])C(=O)C1([H])N(C(=O)C([H])(N([H])C(=O)C([H])(N([H])C([H])([H])[H])C([H])([H])[H])C(C([H])([H])[H])(C([H])([H])[H])C([H])([H])[H])C([H])([H])c2c([H])c(OC([H])([H])c3c([H])c(C([H])([H])[H])c(C([H])(C([H])([H])[H])C4([H])C([H])([H])C([H])([H])C([H])(N([H])C(=O)N5C([H])([H])C([H])([H])C([H])([H])C([H])(n6nc(-c7c([H])c([H])c(Oc8c([H])c([H])c(F)c([H])c8F)c([H])c7[H])c(C(=O)N([H])[H])c6N([H])[H])C5([H])[H])C([H])([H])C4([H])[H])c([H])c3C([H])([H])[H])c([H])c([H])c2C1([H])[H]

>  <smiles>  (78) 
[H]c1c([H])c([H])c2c(c1[H])C([H])([H])C([H])([H])C([H])([H])C2([H])N([H])C(=O)C1([H])N(C(=O)C([H])(N([H])C(=O)C([H])(N([H])C([H])([H])[H])C([H])([H])[H])C(C([H])([H])[H])(C([H])([H])[H])C([H])([H])[H])C([H])([H])c2c([H])c(OC([H])([H])c3c([H])c(C([H])([H])[H])c(C([H])(C([H])([H])[H])C4([H])C([H])([H])C([H])([H])C([H])(N([H])C(=O)N5C([H])([H])C([H])([H])C([H])([H])C([H])(n6nc(-c7c([H])c([H])c(Oc8c([H])c([H])c(F)c([H])c8F)c([H])c7[H])c(C(=O)N([H])[H])c6N([H])[H])C5([H])[H])C([H])([H])C4([H])[H])c([H])c3C([H])([H])[H])c([H])c([H])c2C1([H])[H]

$$$$
78:0:0
     RDKit          3D

 95104  0  0  1  0  0  0  0  0999 V2000
  -31.2990  -22.0840   19.8860 C   0  0  0  0  0  3  0  0  0  0  0  0
  -32.0270  -24.3180   20.3240 C   0  0  0  0  0  3  0  0  0  0  0  0
  -32.3290  -23.0200   19.9470 C   0  0  0  0  0  0  0  0  0  0  0  0
  -29.5760  -23.8520   20.2430 C   0  0  0  0  0  0  0  0  0  0  0  0
  -29.9150  -22.3630   20.1010 C   0  0  0  0  0  0  0  0  0  0  0  0
  -30.6920  -24.7180   20.5330 C   0  0  0  0  0  0  0  0  0  0  0  0
  -33.7710  -22.6110   19.7090 C   0  0  0  0  0  1  0  0  0  0  0  0
  -28.9930  -18.5730   19.0890 C   0  0  0  0  0  2  0  0  0  0  0  0
  -29.5590  -18.5950   21.3640 C   0  0  0  0  0  2  0  0  0  0  0  0
  -29.1970  -20.1780   18.9810 C   0  0  0  0  0  2  0  0  0  0  0  0
  -29.7990  -20.1930   21.3180 C   0  0  0  0  0  2  0  0  0  0  0  0
  -29.8950  -17.7320   20.0850 C   0  0  0  0  0  3  0  0  0  0  0  0
  -29.2050  -21.0530   20.2200 N   0  0  0  0  0  0  0  0  0  0  0  0
  -30.4740  -15.0110   19.9410 C   0  0  0  0  0  0  0  0  0  0  0  0
  -30.3070  -12.6860   18.9540 C   0  0  0  0  0  2  0  0  0  0  0  0
  -29.2970  -12.6870   17.7830 C   0  0  0  0  0  2  0  0  0  0  0  0
  -27.8610  -12.4710   18.2990 C   0  0  0  0  0  2  0  0  0  0  0  0
  -27.5330  -13.3540   19.5330 C   0  0  0  0  0  3  0  0  0  0  0  0
  -28.6610  -13.3220   20.5870 C   0  0  0  0  0  2  0  0  0  0  0  0
  -29.8910  -13.7490   19.9100 N   0  0  0  0  0  0  0  0  0  0  0  0
  -31.6520  -15.1070   19.5800 O   0  0  0  0  0  0  0  0  0  0  0  0
  -29.6760  -16.1630   20.1740 N   0  0  0  0  0  0  0  0  0  0  0  0
  -28.7290  -15.9110   20.4170 H   0  0  0  0  0  0  0  0  0  0  0  0
  -25.2080  -13.9070   20.4460 C   0  0  0  0  0  0  0  0  0  0  0  0
  -24.1700  -13.1180   20.8590 C   0  0  0  0  0  0  0  0  0  0  0  0
  -24.6290  -11.7690   20.7510 C   0  0  0  0  0  0  0  0  0  0  0  0
  -26.2310  -13.0390   20.1070 N   0  0  0  0  0  0  0  0  0  0  0  0
  -25.8980  -11.7460   20.3560 N   0  0  0  0  0  0  0  0  0  0  0  0
  -23.9160  -10.5000   20.9440 C   0  0  0  0  0  0  0  0  0  0  0  0
  -24.3620   -9.5340   21.8720 C   0  0  0  0  0  3  0  0  0  0  0  0
  -23.6470   -8.3310   22.0540 C   0  0  0  0  0  3  0  0  0  0  0  0
  -22.4690   -8.0860   21.3080 C   0  0  0  0  0  0  0  0  0  0  0  0
  -22.0420   -9.0400   20.3680 C   0  0  0  0  0  3  0  0  0  0  0  0
  -22.7580  -10.2350   20.1840 C   0  0  0  0  0  3  0  0  0  0  0  0
  -21.7240   -6.9350   21.3990 O   0  0  0  0  0  0  0  0  0  0  0  0
  -21.6290   -6.2290   22.5710 C   0  0  0  0  0  0  0  0  0  0  0  0
  -21.1200   -6.8130   23.7530 C   0  0  0  0  0  3  0  0  0  0  0  0
  -20.9760   -6.0330   24.9170 C   0  0  0  0  0  3  0  0  0  0  0  0
  -21.3290   -4.6700   24.9010 C   0  0  0  0  0  0  0  0  0  0  0  0
  -21.8300   -4.0860   23.7240 C   0  0  0  0  0  3  0  0  0  0  0  0
  -21.9770   -4.8640   22.5630 C   0  0  0  0  0  0  0  0  0  0  0  0
  -22.4400   -4.2910   21.4260 F   0  0  0  0  0  0  0  0  0  0  0  0
  -21.1830   -3.9180   26.0180 F   0  0  0  0  0  0  0  0  0  0  0  0
  -22.7940  -13.5850   21.2350 C   0  0  0  0  0  0  0  0  0  0  0  0
  -22.1230  -12.8610   22.1260 N   0  0  0  0  0  0  0  0  0  0  0  0
  -22.3220  -14.6230   20.7730 O   0  0  0  0  0  0  0  0  0  0  0  0
  -22.5190  -12.0210   22.5210 H   0  0  0  0  0  0  0  0  0  0  0  0
  -21.2010  -13.1540   22.4180 H   0  0  0  0  0  0  0  0  0  0  0  0
  -25.3590  -15.2840   20.3030 N   0  0  0  0  0  0  0  0  0  0  0  0
  -24.5970  -15.9280   20.4820 H   0  0  0  0  0  0  0  0  0  0  0  0
  -26.1670  -15.7330   19.8930 H   0  0  0  0  0  0  0  0  0  0  0  0
  -31.5230  -26.7410   21.6010 C   0  0  0  0  0  1  0  0  0  0  0  0
  -30.4540  -25.9800   21.0450 O   0  0  0  0  0  0  0  0  0  0  0  0
  -28.1980  -24.7490   20.1180 C   0  0  0  0  0  2  0  0  0  0  0  0
  -28.2700  -26.3120   20.0280 O   0  0  0  0  0  0  0  0  0  0  0  0
  -24.6590  -31.8840   23.1970 C   0  0  0  0  0  0  0  0  0  0  0  0
  -27.1680  -27.2310   20.0430 C   0  0  0  0  0  0  0  0  0  0  0  0
  -23.4190  -30.5130   21.5640 C   0  0  0  0  0  3  0  0  0  0  0  0
  -24.8310  -28.9520   20.0880 C   0  0  0  0  0  0  0  0  0  0  0  0
  -25.9650  -30.7860   21.3390 C   0  0  0  0  0  2  0  0  0  0  0  0
  -26.0230  -29.4040   20.6700 C   0  0  0  0  0  0  0  0  0  0  0  0
  -27.1910  -28.5610   20.6220 C   0  0  0  0  0  3  0  0  0  0  0  0
  -25.9480  -26.8630   19.4400 C   0  0  0  0  0  3  0  0  0  0  0  0
  -24.8040  -27.6950   19.4600 C   0  0  0  0  0  3  0  0  0  0  0  0
  -23.6060  -29.8500   20.1730 C   0  0  0  0  0  2  0  0  0  0  0  0
  -24.7030  -31.0830   22.0890 N   0  0  0  0  0  0  0  0  0  0  0  0
  -23.5860  -32.1600   23.7550 O   0  0  0  0  0  0  0  0  0  0  0  0
  -22.7620  -29.4940   22.5280 C   0  0  0  0  0  0  0  0  0  0  0  0
  -21.4340  -29.3120   22.4160 N   0  0  0  0  0  0  0  0  0  0  0  0
  -23.4490  -28.8680   23.3380 O   0  0  0  0  0  0  0  0  0  0  0  0
  -20.9360  -29.8680   21.7350 H   0  0  0  0  0  0  0  0  0  0  0  0
  -18.0720  -28.0730   22.9380 C   0  0  0  0  0  0  0  0  0  0  0  0
  -20.6290  -28.3620   23.1880 C   0  0  0  0  0  3  0  0  0  0  0  0
  -20.7430  -26.9340   22.6070 C   0  0  0  0  0  2  0  0  0  0  0  0
  -19.6380  -26.6040   21.5990 C   0  0  0  0  0  2  0  0  0  0  0  0
  -18.2580  -26.7300   22.2530 C   0  0  0  0  0  2  0  0  0  0  0  0
  -19.1850  -28.8470   23.3630 C   0  0  0  0  0  0  0  0  0  0  0  0
  -18.9540  -30.1030   23.9640 C   0  0  0  0  0  3  0  0  0  0  0  0
  -17.6450  -30.5870   24.1450 C   0  0  0  0  0  3  0  0  0  0  0  0
  -16.5470  -29.8110   23.7350 C   0  0  0  0  0  3  0  0  0  0  0  0
  -16.7610  -28.5560   23.1380 C   0  0  0  0  0  3  0  0  0  0  0  0
  -25.9520  -32.5070   23.8050 C   0  0  0  0  0  3  0  0  0  0  0  0
  -26.4980  -31.7090   25.0540 C   0  0  1  0  0  0  0  0  0  0  0  0
  -25.4310  -31.4530   26.1440 C   0  0  0  0  0  1  0  0  0  0  0  0
  -27.0670  -30.3380   24.6240 C   0  0  0  0  0  1  0  0  0  0  0  0
  -27.6670  -32.4880   25.7040 C   0  0  0  0  0  1  0  0  0  0  0  0
  -25.6480  -33.8970   24.1790 N   0  0  0  0  0  0  0  0  0  0  0  0
  -25.9300  -34.9700   23.4280 C   0  0  0  0  0  0  0  0  0  0  0  0
  -26.5440  -34.8940   22.3600 O   0  0  0  0  0  0  0  0  0  0  0  0
  -25.0940  -34.0290   25.0130 H   0  0  0  0  0  0  0  0  0  0  0  0
  -24.1610  -36.7480   23.2270 C   0  0  0  0  0  1  0  0  0  0  0  0
  -25.4600  -36.3460   23.9420 C   0  0  0  0  0  3  0  0  0  0  0  0
  -27.6350  -37.2490   24.6400 C   0  0  0  0  0  1  0  0  0  0  0  0
  -26.4700  -37.4140   23.7740 N   0  0  0  0  0  0  0  0  0  0  0  0
  -26.0630  -38.3270   23.9610 H   0  0  0  0  0  0  0  0  0  0  0  0
  1  3  2  0
  1  5  1  0
  2  6  2  0
  3  2  1  0
  4  6  1  0
  5 13  1  0
  5  4  2  0
  6 53  1  0
  7  3  1  0
  8 12  1  0
 10  8  1  0
 10 13  1  0
 11  9  1  0
 12 22  1  0
 12  9  1  0
 13 11  1  0
 14 22  1  0
 15 20  1  0
 16 17  1  0
 16 15  1  0
 18 17  1  0
 18 27  1  0
 18 19  1  0
 20 14  1  0
 20 19  1  0
 21 14  2  0
 22 23  1  0
 24 25  2  0
 25 44  1  0
 26 25  1  0
 26 29  1  0
 27 28  1  0
 27 24  1  0
 28 26  2  0
 29 30  1  0
 30 31  2  0
 32 35  1  0
 32 31  1  0
 33 32  2  0
 34 33  1  0
 34 29  2  0
 35 36  1  0
 36 37  1  0
 37 38  2  0
 39 38  1  0
 39 43  1  0
 40 39  2  0
 41 36  2  0
 41 40  1  0
 42 41  1  0
 44 45  1  0
 45 48  1  0
 45 47  1  0
 46 44  2  0
 49 24  1  0
 49 50  1  0
 51 49  1  0
 53 52  1  0
 54  4  1  0
 55 57  1  0
 55 54  1  0
 56 67  2  0
 57 62  1  0
 58 66  1  0
 58 68  1  0
 59 65  1  0
 59 61  1  0
 60 66  1  0
 61 60  1  0
 62 61  2  0
 63 64  1  0
 63 57  2  0
 64 59  2  0
 65 58  1  0
 66 56  1  0
 68 70  2  0
 69 68  1  0
 71 69  1  0
 72 81  2  0
 72 77  1  0
 73 69  1  0
 73 77  1  0
 74 73  1  0
 75 76  1  0
 75 74  1  0
 76 72  1  0
 77 78  2  0
 78 79  1  0
 80 79  2  0
 81 80  1  0
 82 56  1  0
 82 87  1  0
 82 83  1  0
 83 86  1  1
 83 84  1  0
 85 83  1  0
 87 90  1  0
 88 92  1  0
 88 87  1  0
 89 88  2  0
 92 91  1  0
 94 92  1  0
 94 95  1  0
 94 93  1  0
M  ISO  4  14 100  22 100  54 101  55 101
M  END
>  <TORSDO>  (79) 
F 19

>  <SCORE>  (79) 
-13.880

>  <name>  (79) 
78

>  <ligand_id>  (79) 
78

>  <original_smiles>  (79) 
[H]c1c([H])c([H])c2c(c1[H])C([H])([H])C([H])([H])C([H])([H])C2([H])N([H])C(=O)C1([H])N(C(=O)C([H])(N([H])C(=O)C([H])(N([H])C([H])([H])[H])C([H])([H])[H])C(C([H])([H])[H])(C([H])([H])[H])C([H])([H])[H])C([H])([H])c2c([H])c(OC([H])([H])c3c(OC([H])([H])[H])c([H])c(C([H])([H])[H])c([H])c3N3C([H])([H])C([H])([H])C([H])(N([H])C(=O)N4C([H])([H])C([H])([H])C([H])([H])C([H])(n5nc(-c6c([H])c([H])c(Oc7c([H])c([H])c(F)c([H])c7F)c([H])c6[H])c(C(=O)N([H])[H])c5N([H])[H])C4([H])[H])C([H])([H])C3([H])[H])c([H])c([H])c2C1([H])[H]

>  <smiles>  (79) 
[H]c1c([H])c([H])c2c(c1[H])C([H])([H])C([H])([H])C([H])([H])C2([H])N([H])C(=O)C1([H])N(C(=O)C([H])(N([H])C(=O)C([H])(N([H])C([H])([H])[H])C([H])([H])[H])C(C([H])([H])[H])(C([H])([H])[H])C([H])([H])[H])C([H])([H])c2c([H])c(OC([H])([H])c3c(OC([H])([H])[H])c([H])c(C([H])([H])[H])c([H])c3N3C([H])([H])C([H])([H])C([H])(N([H])C(=O)N4C([H])([H])C([H])([H])C([H])([H])C([H])(n5nc(-c6c([H])c([H])c(Oc7c([H])c([H])c(F)c([H])c7F)c([H])c6[H])c(C(=O)N([H])[H])c5N([H])[H])C4([H])[H])C([H])([H])C3([H])[H])c([H])c([H])c2C1([H])[H]

$$$$
79:0:0
     RDKit          3D

 93103  0  0  1  0  0  0  0  0999 V2000
  -30.0240  -23.2610   21.0180 C   0  0  0  0  0  3  0  0  0  0  0  0
  -28.7260  -21.7630   19.6540 C   0  0  0  0  0  0  0  0  0  0  0  0
  -29.0110  -23.1860   20.0380 C   0  0  0  0  0  0  0  0  0  0  0  0
  -29.4290  -20.5700   20.2290 C   0  0  0  0  0  0  0  0  0  0  0  0
  -30.6450  -22.1020   21.5380 C   0  0  0  0  0  0  0  0  0  0  0  0
  -31.7150  -22.2390   22.6020 C   0  0  0  0  0  1  0  0  0  0  0  0
  -30.3570  -20.8280   21.1750 N   0  0  0  0  0  0  0  0  0  0  0  0
  -30.5680  -15.0340   19.8370 C   0  0  0  0  0  0  0  0  0  0  0  0
  -30.3580  -12.6940   18.8410 C   0  0  0  0  0  2  0  0  0  0  0  0
  -29.3440  -12.6470   17.6750 C   0  0  0  0  0  2  0  0  0  0  0  0
  -27.9170  -12.4110   18.2040 C   0  0  0  0  0  2  0  0  0  0  0  0
  -27.5890  -13.3070   19.4260 C   0  0  0  0  0  3  0  0  0  0  0  0
  -28.7240  -13.3050   20.4730 C   0  0  0  0  0  2  0  0  0  0  0  0
  -29.9340  -13.7800   19.7830 N   0  0  0  0  0  0  0  0  0  0  0  0
  -31.7390  -15.0460   19.4370 O   0  0  0  0  0  0  0  0  0  0  0  0
  -28.5990  -18.1340   21.1930 C   0  0  0  0  0  2  0  0  0  0  0  0
  -28.7480  -16.5840   20.9240 C   0  0  0  0  0  2  0  0  0  0  0  0
  -30.2930  -17.7600   19.6410 C   0  0  0  0  0  2  0  0  0  0  0  0
  -29.1750  -18.9260   20.0040 C   0  0  0  0  0  3  0  0  0  0  0  0
  -29.8840  -16.2990   20.0260 N   0  0  0  0  0  0  0  0  0  0  0  0
  -25.2620  -13.8530   20.3410 C   0  0  0  0  0  0  0  0  0  0  0  0
  -24.2320  -13.0660   20.7690 C   0  0  0  0  0  0  0  0  0  0  0  0
  -24.6980  -11.7190   20.6730 C   0  0  0  0  0  0  0  0  0  0  0  0
  -26.2910  -12.9890   20.0110 N   0  0  0  0  0  0  0  0  0  0  0  0
  -25.9650  -11.6960   20.2750 N   0  0  0  0  0  0  0  0  0  0  0  0
  -23.9870  -10.4510   20.8800 C   0  0  0  0  0  0  0  0  0  0  0  0
  -24.4350   -9.4970   21.8180 C   0  0  0  0  0  3  0  0  0  0  0  0
  -23.7210   -8.2940   22.0140 C   0  0  0  0  0  3  0  0  0  0  0  0
  -22.5450   -8.0390   21.2700 C   0  0  0  0  0  0  0  0  0  0  0  0
  -22.1160   -8.9820   20.3200 C   0  0  0  0  0  3  0  0  0  0  0  0
  -22.8300  -10.1760   20.1220 C   0  0  0  0  0  3  0  0  0  0  0  0
  -21.8010   -6.8880   21.3740 O   0  0  0  0  0  0  0  0  0  0  0  0
  -21.7030   -6.1990   22.5570 C   0  0  0  0  0  0  0  0  0  0  0  0
  -21.1960   -6.8010   23.7290 C   0  0  0  0  0  3  0  0  0  0  0  0
  -21.0480   -6.0370   24.9050 C   0  0  0  0  0  3  0  0  0  0  0  0
  -21.3960   -4.6730   24.9080 C   0  0  0  0  0  0  0  0  0  0  0  0
  -21.8960   -4.0710   23.7390 C   0  0  0  0  0  3  0  0  0  0  0  0
  -22.0460   -4.8320   22.5660 C   0  0  0  0  0  0  0  0  0  0  0  0
  -22.5080   -4.2430   21.4370 F   0  0  0  0  0  0  0  0  0  0  0  0
  -21.2470   -3.9370   26.0340 F   0  0  0  0  0  0  0  0  0  0  0  0
  -22.8560  -13.5340   21.1450 C   0  0  0  0  0  0  0  0  0  0  0  0
  -22.1970  -12.8290   22.0580 N   0  0  0  0  0  0  0  0  0  0  0  0
  -22.3780  -14.5610   20.6650 O   0  0  0  0  0  0  0  0  0  0  0  0
  -22.6000  -11.9990   22.4680 H   0  0  0  0  0  0  0  0  0  0  0  0
  -21.2780  -13.1250   22.3520 H   0  0  0  0  0  0  0  0  0  0  0  0
  -25.3950  -15.2270   20.1760 N   0  0  0  0  0  0  0  0  0  0  0  0
  -24.6220  -15.8610   20.3430 H   0  0  0  0  0  0  0  0  0  0  0  0
  -26.1920  -15.6790   19.7470 H   0  0  0  0  0  0  0  0  0  0  0  0
  -26.3000  -22.1410   18.6860 C   0  0  0  0  0  2  0  0  0  0  0  0
  -26.4640  -20.6580   18.9060 C   0  0  0  0  0  2  0  0  0  0  0  0
  -27.6750  -21.5140   18.6100 C   0  0  0  0  0  3  0  0  0  0  0  0
  -28.3000  -24.6180   19.5220 C   0  0  0  0  0  2  0  0  0  0  0  0
  -28.4860  -26.1430   19.8740 O   0  0  0  0  0  0  0  0  0  0  0  0
  -24.6850  -31.6190   23.0810 C   0  0  0  0  0  0  0  0  0  0  0  0
  -27.4080  -27.1120   19.8370 C   0  0  0  0  0  0  0  0  0  0  0  0
  -23.5320  -30.2700   21.3690 C   0  0  0  0  0  3  0  0  0  0  0  0
  -25.0310  -28.8040   19.8750 C   0  0  0  0  0  0  0  0  0  0  0  0
  -26.0800  -30.6110   21.2310 C   0  0  0  0  0  2  0  0  0  0  0  0
  -26.1960  -29.2520   20.5110 C   0  0  0  0  0  0  0  0  0  0  0  0
  -27.3830  -28.4230   20.4730 C   0  0  0  0  0  3  0  0  0  0  0  0
  -26.2130  -26.7710   19.1660 C   0  0  0  0  0  3  0  0  0  0  0  0
  -25.0550  -27.5800   19.1870 C   0  0  0  0  0  3  0  0  0  0  0  0
  -23.7780  -29.6650   19.9610 C   0  0  0  0  0  2  0  0  0  0  0  0
  -24.7850  -30.8540   21.9490 N   0  0  0  0  0  0  0  0  0  0  0  0
  -23.5890  -31.8460   23.6160 O   0  0  0  0  0  0  0  0  0  0  0  0
  -22.8770  -29.2010   22.2790 C   0  0  0  0  0  0  0  0  0  0  0  0
  -21.5520  -29.0060   22.1440 N   0  0  0  0  0  0  0  0  0  0  0  0
  -23.5630  -28.5500   23.0700 O   0  0  0  0  0  0  0  0  0  0  0  0
  -21.0530  -29.5860   21.4840 H   0  0  0  0  0  0  0  0  0  0  0  0
  -18.1940  -27.7350   22.6250 C   0  0  0  0  0  0  0  0  0  0  0  0
  -20.7550  -28.0120   22.8660 C   0  0  0  0  0  3  0  0  0  0  0  0
  -20.8610  -26.6200   22.1990 C   0  0  0  0  0  2  0  0  0  0  0  0
  -19.7460  -26.3510   21.1830 C   0  0  0  0  0  2  0  0  0  0  0  0
  -18.3730  -26.4360   21.8570 C   0  0  0  0  0  2  0  0  0  0  0  0
  -19.3110  -28.4820   23.0840 C   0  0  0  0  0  0  0  0  0  0  0  0
  -19.0850  -29.6990   23.7650 C   0  0  0  0  0  3  0  0  0  0  0  0
  -17.7780  -30.1680   23.9880 C   0  0  0  0  0  3  0  0  0  0  0  0
  -16.6760  -29.4170   23.5420 C   0  0  0  0  0  3  0  0  0  0  0  0
  -16.8840  -28.2020   22.8670 C   0  0  0  0  0  3  0  0  0  0  0  0
  -25.9410  -32.2600   23.7460 C   0  0  0  0  0  3  0  0  0  0  0  0
  -25.5980  -33.6460   24.1070 N   0  0  0  0  0  0  0  0  0  0  0  0
  -25.9020  -34.7240   23.3740 C   0  0  0  0  0  0  0  0  0  0  0  0
  -26.5640  -34.6590   22.3340 O   0  0  0  0  0  0  0  0  0  0  0  0
  -25.0070  -33.7670   24.9160 H   0  0  0  0  0  0  0  0  0  0  0  0
  -24.1180  -36.4790   23.1010 C   0  0  0  0  0  1  0  0  0  0  0  0
  -25.3920  -36.0930   23.8690 C   0  0  0  0  0  3  0  0  0  0  0  0
  -27.5200  -37.0300   24.6620 C   0  0  0  0  0  1  0  0  0  0  0  0
  -26.3930  -37.1750   23.7450 N   0  0  0  0  0  0  0  0  0  0  0  0
  -25.9650  -38.0820   23.9090 H   0  0  0  0  0  0  0  0  0  0  0  0
  -26.4390  -31.4700   25.0190 C   0  0  1  0  0  0  0  0  0  0  0  0
  -25.3270  -31.1960   26.0580 C   0  0  0  0  0  1  0  0  0  0  0  0
  -27.0500  -30.1080   24.6170 C   0  0  0  0  0  1  0  0  0  0  0  0
  -27.5650  -32.2660   25.7220 C   0  0  0  0  0  1  0  0  0  0  0  0
  1  5  1  0
  2  3  1  0
  2  4  2  0
  3  1  2  0
  4  7  1  0
  5  6  1  0
  7  5  2  0
  8 20  1  0
  9 14  1  0
 10 11  1  0
 10  9  1  0
 12 11  1  0
 12 24  1  0
 12 13  1  0
 14  8  1  0
 14 13  1  0
 15  8  2  0
 17 16  1  0
 18 19  1  0
 18 20  1  0
 19  4  1  0
 19 16  1  0
 20 17  1  0
 21 22  2  0
 22 41  1  0
 23 22  1  0
 23 26  1  0
 24 25  1  0
 24 21  1  0
 25 23  2  0
 26 27  1  0
 27 28  2  0
 29 32  1  0
 29 28  1  0
 30 29  2  0
 31 30  1  0
 31 26  2  0
 32 33  1  0
 33 38  2  0
 33 34  1  0
 34 35  2  0
 35 36  1  0
 36 40  1  0
 37 36  2  0
 38 37  1  0
 39 38  1  0
 41 42  1  0
 42 45  1  0
 42 44  1  0
 43 41  2  0
 46 21  1  0
 46 47  1  0
 48 46  1  0
 49 50  1  0
 51 49  1  0
 51 50  1  0
 51  2  1  0
 52 53  1  0
 52  3  1  0
 54 65  2  0
 55 53  1  0
 55 60  1  0
 56 64  1  0
 56 66  1  0
 57 63  1  0
 57 59  1  0
 58 64  1  0
 59 58  1  0
 60 59  2  0
 61 62  1  0
 61 55  2  0
 62 57  2  0
 63 56  1  0
 64 54  1  0
 66 68  2  0
 67 66  1  0
 69 67  1  0
 70 79  2  0
 70 75  1  0
 71 67  1  0
 71 75  1  0
 72 71  1  0
 73 74  1  0
 73 72  1  0
 74 70  1  0
 75 76  2  0
 76 77  1  0
 78 77  2  0
 79 78  1  0
 80 54  1  0
 80 81  1  0
 80 90  1  0
 81 84  1  0
 82 86  1  0
 82 81  1  0
 83 82  2  0
 86 85  1  0
 88 86  1  0
 88 89  1  0
 88 87  1  0
 90 93  1  1
 90 91  1  0
 92 90  1  0
M  ISO  4   8 100  20 100  52 101  53 101
M  END
>  <TORSDO>  (80) 
F 18

>  <SCORE>  (80) 
-12.786

>  <name>  (80) 
79

>  <ligand_id>  (80) 
79

>  <original_smiles>  (80) 
[H]c1c([H])c([H])c2c(c1[H])C([H])([H])C([H])([H])C([H])([H])C2([H])N([H])C(=O)C1([H])N(C(=O)C([H])(N([H])C(=O)C([H])(N([H])C([H])([H])[H])C([H])([H])[H])C(C([H])([H])[H])(C([H])([H])[H])C([H])([H])[H])C([H])([H])c2c([H])c(OC([H])([H])c3c([H])c(C([H])([H])[H])nc(C4([H])C([H])([H])N(C(=O)N5C([H])([H])C([H])([H])C([H])([H])C([H])(n6nc(-c7c([H])c([H])c(Oc8c([H])c([H])c(F)c([H])c8F)c([H])c7[H])c(C(=O)N([H])[H])c6N([H])[H])C5([H])[H])C([H])([H])C4([H])[H])c3C3([H])C([H])([H])C3([H])[H])c([H])c([H])c2C1([H])[H]

>  <smiles>  (80) 
[H]c1c([H])c([H])c2c(c1[H])C([H])([H])C([H])([H])C([H])([H])C2([H])N([H])C(=O)C1([H])N(C(=O)C([H])(N([H])C(=O)C([H])(N([H])C([H])([H])[H])C([H])([H])[H])C(C([H])([H])[H])(C([H])([H])[H])C([H])([H])[H])C([H])([H])c2c([H])c(OC([H])([H])c3c([H])c(C([H])([H])[H])nc(C4([H])C([H])([H])N(C(=O)N5C([H])([H])C([H])([H])C([H])([H])C([H])(n6nc(-c7c([H])c([H])c(Oc8c([H])c([H])c(F)c([H])c8F)c([H])c7[H])c(C(=O)N([H])[H])c6N([H])[H])C5([H])[H])C([H])([H])C4([H])[H])c3C3([H])C([H])([H])C3([H])[H])c([H])c([H])c2C1([H])[H]

$$$$
80:0:0
     RDKit          3D

 95104  0  0  1  0  0  0  0  0999 V2000
  -29.3590  -22.2450   22.1510 C   0  0  0  0  0  3  0  0  0  0  0  0
  -30.4630  -20.3550   21.0310 C   0  0  0  0  0  0  0  0  0  0  0  0
  -29.4860  -20.8560   21.9420 C   0  0  0  0  0  0  0  0  0  0  0  0
  -31.2610  -21.2980   20.3070 C   0  0  0  0  0  0  0  0  0  0  0  0
  -31.1470  -22.6920   20.5670 C   0  0  0  0  0  0  0  0  0  0  0  0
  -30.1740  -23.1620   21.4730 C   0  0  0  0  0  0  0  0  0  0  0  0
  -28.5250  -19.9650   22.7110 C   0  0  0  0  0  1  0  0  0  0  0  0
  -32.2400  -20.8270   19.2270 C   0  0  0  0  0  1  0  0  0  0  0  0
  -32.0700  -23.6980   19.8850 C   0  0  0  0  0  1  0  0  0  0  0  0
  -31.3230  -14.8620   19.7590 C   0  0  0  0  0  0  0  0  0  0  0  0
  -30.8770  -12.7200   18.6370 C   0  0  0  0  0  2  0  0  0  0  0  0
  -29.8460  -12.9360   17.5120 C   0  0  0  0  0  2  0  0  0  0  0  0
  -28.4130  -12.8050   18.0610 C   0  0  0  0  0  2  0  0  0  0  0  0
  -28.1810  -13.6450   19.3470 C   0  0  0  0  0  3  0  0  0  0  0  0
  -29.3250  -13.4440   20.3670 C   0  0  0  0  0  2  0  0  0  0  0  0
  -30.5990  -13.7150   19.6840 N   0  0  0  0  0  0  0  0  0  0  0  0
  -32.4180  -15.0000   19.2020 O   0  0  0  0  0  0  0  0  0  0  0  0
  -30.7880  -17.8740   21.9640 C   0  0  0  0  0  2  0  0  0  0  0  0
  -29.6830  -18.2340   19.7940 C   0  0  0  0  0  2  0  0  0  0  0  0
  -31.3520  -16.5130   21.4930 C   0  0  0  0  0  2  0  0  0  0  0  0
  -30.2290  -16.9010   19.2580 C   0  0  0  0  0  2  0  0  0  0  0  0
  -30.6810  -18.8410   20.7760 C   0  0  0  0  0  3  0  0  0  0  0  0
  -30.7030  -15.9420   20.2890 N   0  0  0  0  0  0  0  0  0  0  0  0
  -25.8730  -14.2640   20.2990 C   0  0  0  0  0  0  0  0  0  0  0  0
  -24.8250  -13.4940   20.7260 C   0  0  0  0  0  0  0  0  0  0  0  0
  -25.2510  -12.1360   20.5910 C   0  0  0  0  0  0  0  0  0  0  0  0
  -26.8730  -13.3740   19.9350 N   0  0  0  0  0  0  0  0  0  0  0  0
  -26.5070  -12.0880   20.1660 N   0  0  0  0  0  0  0  0  0  0  0  0
  -24.5170  -10.8800   20.7860 C   0  0  0  0  0  0  0  0  0  0  0  0
  -24.9120   -9.9390   21.7630 C   0  0  0  0  0  3  0  0  0  0  0  0
  -24.1800   -8.7460   21.9450 C   0  0  0  0  0  3  0  0  0  0  0  0
  -23.0390   -8.4870   21.1500 C   0  0  0  0  0  0  0  0  0  0  0  0
  -22.6630   -9.4160   20.1630 C   0  0  0  0  0  3  0  0  0  0  0  0
  -23.3960  -10.6000   19.9800 C   0  0  0  0  0  3  0  0  0  0  0  0
  -22.2820   -7.3430   21.2390 O   0  0  0  0  0  0  0  0  0  0  0  0
  -22.0310   -6.7390   22.4440 C   0  0  0  0  0  0  0  0  0  0  0  0
  -21.3950   -7.4220   23.5040 C   0  0  0  0  0  3  0  0  0  0  0  0
  -21.0940   -6.7410   24.7000 C   0  0  0  0  0  3  0  0  0  0  0  0
  -21.4180   -5.3790   24.8370 C   0  0  0  0  0  0  0  0  0  0  0  0
  -22.0470   -4.6940   23.7820 C   0  0  0  0  0  3  0  0  0  0  0  0
  -22.3500   -5.3720   22.5870 C   0  0  0  0  0  0  0  0  0  0  0  0
  -22.9360   -4.7040   21.5650 F   0  0  0  0  0  0  0  0  0  0  0  0
  -21.1230   -4.7220   25.9830 F   0  0  0  0  0  0  0  0  0  0  0  0
  -23.4680  -13.9820   21.1460 C   0  0  0  0  0  0  0  0  0  0  0  0
  -22.8220  -13.2780   22.0680 N   0  0  0  0  0  0  0  0  0  0  0  0
  -22.9960  -15.0240   20.6920 O   0  0  0  0  0  0  0  0  0  0  0  0
  -23.2200  -12.4350   22.4550 H   0  0  0  0  0  0  0  0  0  0  0  0
  -21.9160  -13.5850   22.3910 H   0  0  0  0  0  0  0  0  0  0  0  0
  -26.0530  -15.6380   20.1710 N   0  0  0  0  0  0  0  0  0  0  0  0
  -25.3170  -16.3020   20.3830 H   0  0  0  0  0  0  0  0  0  0  0  0
  -26.8950  -16.0750   19.8190 H   0  0  0  0  0  0  0  0  0  0  0  0
  -30.0110  -24.5020   21.7200 O   0  0  0  0  0  0  0  0  0  0  0  0
  -29.1170  -25.1570   20.8220 C   0  0  0  0  0  2  0  0  0  0  0  0
  -29.4940  -26.6420   20.7030 C   0  0  0  0  0  2  0  0  0  0  0  0
  -28.9370  -27.1870   19.5090 O   0  0  0  0  0  0  0  0  0  0  0  0
  -24.6830  -31.6210   23.1230 C   0  0  0  0  0  0  0  0  0  0  0  0
  -27.7080  -27.7760   19.6500 C   0  0  0  0  0  0  0  0  0  0  0  0
  -23.5930  -30.2510   21.3730 C   0  0  0  0  0  3  0  0  0  0  0  0
  -25.1710  -28.9930   19.8110 C   0  0  0  0  0  0  0  0  0  0  0  0
  -26.0620  -30.8840   21.1860 C   0  0  0  0  0  2  0  0  0  0  0  0
  -26.2750  -29.5860   20.4400 C   0  0  0  0  0  0  0  0  0  0  0  0
  -27.5450  -28.9790   20.3670 C   0  0  0  0  0  3  0  0  0  0  0  0
  -26.5960  -27.1890   19.0150 C   0  0  0  0  0  3  0  0  0  0  0  0
  -25.3240  -27.7890   19.1000 C   0  0  0  0  0  3  0  0  0  0  0  0
  -23.8470  -29.7120   19.9400 C   0  0  0  0  0  2  0  0  0  0  0  0
  -24.7960  -30.9300   21.9540 N   0  0  0  0  0  0  0  0  0  0  0  0
  -23.5900  -31.7370   23.6950 O   0  0  0  0  0  0  0  0  0  0  0  0
  -23.0650  -29.0900   22.2460 C   0  0  0  0  0  0  0  0  0  0  0  0
  -21.7750  -28.7570   22.0790 N   0  0  0  0  0  0  0  0  0  0  0  0
  -23.8110  -28.4960   23.0280 O   0  0  0  0  0  0  0  0  0  0  0  0
  -21.2270  -29.2970   21.4240 H   0  0  0  0  0  0  0  0  0  0  0  0
  -18.5750  -27.1120   22.3960 C   0  0  0  0  0  0  0  0  0  0  0  0
  -21.0700  -27.6750   22.7650 C   0  0  0  0  0  3  0  0  0  0  0  0
  -21.3710  -26.3090   22.1030 C   0  0  0  0  0  2  0  0  0  0  0  0
  -20.3430  -25.9170   21.0360 C   0  0  0  0  0  2  0  0  0  0  0  0
  -18.9400  -25.8420   21.6440 C   0  0  0  0  0  2  0  0  0  0  0  0
  -19.5750  -27.9790   22.9080 C   0  0  0  0  0  0  0  0  0  0  0  0
  -19.1830  -29.1640   23.5670 C   0  0  0  0  0  3  0  0  0  0  0  0
  -17.8200  -29.4850   23.7210 C   0  0  0  0  0  3  0  0  0  0  0  0
  -16.8340  -28.6120   23.2290 C   0  0  0  0  0  3  0  0  0  0  0  0
  -17.2110  -27.4290   22.5710 C   0  0  0  0  0  3  0  0  0  0  0  0
  -25.9130  -32.3200   23.7830 C   0  0  0  0  0  3  0  0  0  0  0  0
  -26.4560  -31.5560   25.0530 C   0  0  1  0  0  0  0  0  0  0  0  0
  -25.3570  -31.2010   26.0820 C   0  0  0  0  0  1  0  0  0  0  0  0
  -27.1570  -30.2410   24.6380 C   0  0  0  0  0  1  0  0  0  0  0  0
  -27.5210  -32.4190   25.7680 C   0  0  0  0  0  1  0  0  0  0  0  0
  -25.5070  -33.6880   24.1320 N   0  0  0  0  0  0  0  0  0  0  0  0
  -25.8090  -34.7760   23.4100 C   0  0  0  0  0  0  0  0  0  0  0  0
  -26.5270  -34.7370   22.4080 O   0  0  0  0  0  0  0  0  0  0  0  0
  -24.8680  -33.7880   24.9070 H   0  0  0  0  0  0  0  0  0  0  0  0
  -23.9920  -36.4700   23.0200 C   0  0  0  0  0  1  0  0  0  0  0  0
  -25.2190  -36.1200   23.8750 C   0  0  0  0  0  3  0  0  0  0  0  0
  -27.2580  -37.1120   24.8180 C   0  0  0  0  0  1  0  0  0  0  0  0
  -26.1900  -37.2350   23.8290 N   0  0  0  0  0  0  0  0  0  0  0  0
  -25.7230  -38.1270   23.9760 H   0  0  0  0  0  0  0  0  0  0  0  0
  2  3  2  0
  3  1  1  0
  3  7  1  0
  4  5  2  0
  4  2  1  0
  5  6  1  0
  6 52  1  0
  6  1  2  0
  8  4  1  0
  9  5  1  0
 10 23  1  0
 11 16  1  0
 12 13  1  0
 12 11  1  0
 14 13  1  0
 14 27  1  0
 14 15  1  0
 16 10  1  0
 16 15  1  0
 17 10  2  0
 19 22  1  0
 20 18  1  0
 21 19  1  0
 21 23  1  0
 22  2  1  0
 22 18  1  0
 23 20  1  0
 24 25  2  0
 25 44  1  0
 26 25  1  0
 26 29  1  0
 27 28  1  0
 27 24  1  0
 28 26  2  0
 29 30  1  0
 30 31  2  0
 32 35  1  0
 32 31  1  0
 33 32  2  0
 34 33  1  0
 34 29  2  0
 35 36  1  0
 36 41  2  0
 36 37  1  0
 37 38  2  0
 38 39  1  0
 39 43  1  0
 40 39  2  0
 41 40  1  0
 42 41  1  0
 44 45  1  0
 45 48  1  0
 45 47  1  0
 46 44  2  0
 49 24  1  0
 49 50  1  0
 51 49  1  0
 53 52  1  0
 54 53  1  0
 55 57  1  0
 55 54  1  0
 56 67  2  0
 57 62  1  0
 58 66  1  0
 58 68  1  0
 59 65  1  0
 59 61  1  0
 60 66  1  0
 61 60  1  0
 62 61  2  0
 63 64  1  0
 63 57  2  0
 64 59  2  0
 65 58  1  0
 66 56  1  0
 68 70  2  0
 69 68  1  0
 71 69  1  0
 72 81  2  0
 72 77  1  0
 73 69  1  0
 73 77  1  0
 74 73  1  0
 75 76  1  0
 75 74  1  0
 76 72  1  0
 77 78  2  0
 78 79  1  0
 80 79  2  0
 81 80  1  0
 82 56  1  0
 82 87  1  0
 82 83  1  0
 83 86  1  1
 83 84  1  0
 85 83  1  0
 87 90  1  0
 88 92  1  0
 88 87  1  0
 89 88  2  0
 92 91  1  0
 94 92  1  0
 94 95  1  0
 94 93  1  0
M  ISO  4  10 100  23 100  54 101  55 101
M  END
>  <TORSDO>  (81) 
F 19

>  <SCORE>  (81) 
-8.550

>  <name>  (81) 
80

>  <ligand_id>  (81) 
80

>  <original_smiles>  (81) 
[H]c1c([H])c([H])c2c(c1[H])C([H])([H])C([H])([H])C([H])([H])C2([H])N([H])C(=O)C1([H])N(C(=O)C([H])(N([H])C(=O)C([H])(N([H])C([H])([H])[H])C([H])([H])[H])C(C([H])([H])[H])(C([H])([H])[H])C([H])([H])[H])C([H])([H])c2c([H])c(OC([H])([H])C([H])([H])Oc3c([H])c(C([H])([H])[H])c(C4([H])C([H])([H])C([H])([H])N(C(=O)N5C([H])([H])C([H])([H])C([H])([H])C([H])(n6nc(-c7c([H])c([H])c(Oc8c([H])c([H])c(F)c([H])c8F)c([H])c7[H])c(C(=O)N([H])[H])c6N([H])[H])C5([H])[H])C([H])([H])C4([H])[H])c(C([H])([H])[H])c3C([H])([H])[H])c([H])c([H])c2C1([H])[H]

>  <smiles>  (81) 
[H]c1c([H])c([H])c2c(c1[H])C([H])([H])C([H])([H])C([H])([H])C2([H])N([H])C(=O)C1([H])N(C(=O)C([H])(N([H])C(=O)C([H])(N([H])C([H])([H])[H])C([H])([H])[H])C(C([H])([H])[H])(C([H])([H])[H])C([H])([H])[H])C([H])([H])c2c([H])c(OC([H])([H])C([H])([H])Oc3c([H])c(C([H])([H])[H])c(C4([H])C([H])([H])C([H])([H])N(C(=O)N5C([H])([H])C([H])([H])C([H])([H])C([H])(n6nc(-c7c([H])c([H])c(Oc8c([H])c([H])c(F)c([H])c8F)c([H])c7[H])c(C(=O)N([H])[H])c6N([H])[H])C5([H])[H])C([H])([H])C4([H])[H])c(C([H])([H])[H])c3C([H])([H])[H])c([H])c([H])c2C1([H])[H]

$$$$
81:0:0
     RDKit          3D

 96106  0  0  1  0  0  0  0  0999 V2000
  -29.5730  -23.3900   21.7190 C   0  0  0  0  0  3  0  0  0  0  0  0
  -29.6820  -21.9730   21.7970 C   0  0  0  0  0  0  0  0  0  0  0  0
  -28.7340  -24.0480   20.7850 C   0  0  0  0  0  0  0  0  0  0  0  0
  -28.1120  -23.2230   19.8050 C   0  0  0  0  0  0  0  0  0  0  0  0
  -28.1630  -21.7960   19.9060 C   0  0  0  0  0  0  0  0  0  0  0  0
  -28.9220  -21.1560   20.9210 C   0  0  0  0  0  0  0  0  0  0  0  0
  -27.3420  -23.8570   18.6650 C   0  0  0  0  0  1  0  0  0  0  0  0
  -27.3290  -20.9340   18.9630 C   0  0  0  0  0  1  0  0  0  0  0  0
  -29.9340  -20.7780   24.1240 C   0  0  0  0  0  2  0  0  0  0  0  0
  -30.7750  -22.0280   24.2060 C   0  0  0  0  0  2  0  0  0  0  0  0
  -30.5410  -21.3570   22.8680 C   0  0  0  0  0  3  0  0  0  0  0  0
  -28.3200  -25.5340   21.0780 C   0  0  0  0  0  2  0  0  0  0  0  0
  -28.4730  -26.6080   20.0980 O   0  0  0  0  0  0  0  0  0  0  0  0
  -24.6640  -31.8750   23.1880 C   0  0  0  0  0  0  0  0  0  0  0  0
  -27.3770  -27.4650   20.0680 C   0  0  0  0  0  0  0  0  0  0  0  0
  -23.4940  -30.4810   21.5190 C   0  0  0  0  0  3  0  0  0  0  0  0
  -24.9820  -28.9990   20.0760 C   0  0  0  0  0  0  0  0  0  0  0  0
  -26.0250  -30.8640   21.3560 C   0  0  0  0  0  2  0  0  0  0  0  0
  -26.1360  -29.5040   20.6900 C   0  0  0  0  0  0  0  0  0  0  0  0
  -27.3410  -28.7450   20.6880 C   0  0  0  0  0  3  0  0  0  0  0  0
  -26.2070  -27.0140   19.4250 C   0  0  0  0  0  3  0  0  0  0  0  0
  -25.0160  -27.7540   19.4360 C   0  0  0  0  0  3  0  0  0  0  0  0
  -23.7250  -29.8380   20.1300 C   0  0  0  0  0  2  0  0  0  0  0  0
  -24.7450  -31.0900   22.0770 N   0  0  0  0  0  0  0  0  0  0  0  0
  -23.5720  -32.1220   23.7220 O   0  0  0  0  0  0  0  0  0  0  0  0
  -22.8510  -29.4330   22.4570 C   0  0  0  0  0  0  0  0  0  0  0  0
  -21.5290  -29.2320   22.3200 N   0  0  0  0  0  0  0  0  0  0  0  0
  -23.5380  -28.8050   23.2660 O   0  0  0  0  0  0  0  0  0  0  0  0
  -21.0320  -29.7920   21.6400 H   0  0  0  0  0  0  0  0  0  0  0  0
  -18.1670  -27.9900   22.8050 C   0  0  0  0  0  0  0  0  0  0  0  0
  -20.7230  -28.2690   23.0740 C   0  0  0  0  0  3  0  0  0  0  0  0
  -20.8390  -26.8510   22.4670 C   0  0  0  0  0  2  0  0  0  0  0  0
  -19.7380  -26.5380   21.4510 C   0  0  0  0  0  2  0  0  0  0  0  0
  -18.3560  -26.6570   22.1010 C   0  0  0  0  0  2  0  0  0  0  0  0
  -19.2800  -28.7550   23.2470 C   0  0  0  0  0  0  0  0  0  0  0  0
  -19.0490  -30.0030   23.8650 C   0  0  0  0  0  3  0  0  0  0  0  0
  -17.7390  -30.4880   24.0420 C   0  0  0  0  0  3  0  0  0  0  0  0
  -16.6420  -29.7190   23.6170 C   0  0  0  0  0  3  0  0  0  0  0  0
  -16.8570  -28.4720   23.0050 C   0  0  0  0  0  3  0  0  0  0  0  0
  -25.9320  -32.5210   23.8240 C   0  0  0  0  0  3  0  0  0  0  0  0
  -26.4470  -31.7510   25.1030 C   0  0  1  0  0  0  0  0  0  0  0  0
  -25.3460  -31.4890   26.1570 C   0  0  0  0  0  1  0  0  0  0  0  0
  -27.0590  -30.3860   24.7130 C   0  0  0  0  0  1  0  0  0  0  0  0
  -27.5770  -32.5620   25.7800 C   0  0  0  0  0  1  0  0  0  0  0  0
  -25.6020  -33.9130   24.1540 N   0  0  0  0  0  0  0  0  0  0  0  0
  -25.9310  -34.9730   23.4030 C   0  0  0  0  0  0  0  0  0  0  0  0
  -26.6170  -34.8810   22.3800 O   0  0  0  0  0  0  0  0  0  0  0  0
  -25.0010  -34.0590   24.9520 H   0  0  0  0  0  0  0  0  0  0  0  0
  -24.1930  -36.7490   23.0190 C   0  0  0  0  0  1  0  0  0  0  0  0
  -25.4180  -36.3530   23.8580 C   0  0  0  0  0  3  0  0  0  0  0  0
  -27.5230  -37.2530   24.7450 C   0  0  0  0  0  1  0  0  0  0  0  0
  -26.4420  -37.4170   23.7760 N   0  0  0  0  0  0  0  0  0  0  0  0
  -26.0240  -38.3320   23.9180 H   0  0  0  0  0  0  0  0  0  0  0  0
  -28.7180  -19.7980   21.1730 O   0  0  0  0  0  0  0  0  0  0  0  0
  -30.8580  -14.6390   19.9670 C   0  0  0  0  0  0  0  0  0  0  0  0
  -30.4890  -12.4400   18.9050 C   0  0  0  0  0  2  0  0  0  0  0  0
  -29.4670  -12.5990   17.7620 C   0  0  0  0  0  2  0  0  0  0  0  0
  -28.0310  -12.4440   18.3000 C   0  0  0  0  0  2  0  0  0  0  0  0
  -27.7690  -13.2970   19.5710 C   0  0  0  0  0  3  0  0  0  0  0  0
  -28.9100  -13.1530   20.6030 C   0  0  0  0  0  2  0  0  0  0  0  0
  -30.1720  -13.4590   19.9180 N   0  0  0  0  0  0  0  0  0  0  0  0
  -31.9870  -14.7470   19.4790 O   0  0  0  0  0  0  0  0  0  0  0  0
  -29.7830  -17.7370   21.8970 C   0  0  0  0  0  2  0  0  0  0  0  0
  -29.0930  -17.9790   19.5570 C   0  0  0  0  0  2  0  0  0  0  0  0
  -30.6240  -16.4820   21.5220 C   0  0  0  0  0  2  0  0  0  0  0  0
  -29.9610  -16.7400   19.2020 C   0  0  0  0  0  2  0  0  0  0  0  0
  -29.6450  -18.7720   20.7570 C   0  0  0  0  0  3  0  0  0  0  0  0
  -30.1660  -15.7690   20.3100 N   0  0  0  0  0  0  0  0  0  0  0  0
  -25.4570  -13.8720   20.5300 C   0  0  0  0  0  0  0  0  0  0  0  0
  -24.4150  -13.0880   20.9440 C   0  0  0  0  0  0  0  0  0  0  0  0
  -24.8530  -11.7360   20.7920 C   0  0  0  0  0  0  0  0  0  0  0  0
  -26.4650  -12.9990   20.1560 N   0  0  0  0  0  0  0  0  0  0  0  0
  -26.1120  -11.7050   20.3720 N   0  0  0  0  0  0  0  0  0  0  0  0
  -24.1270  -10.4720   20.9690 C   0  0  0  0  0  0  0  0  0  0  0  0
  -24.5780   -9.4790   21.8670 C   0  0  0  0  0  3  0  0  0  0  0  0
  -23.8510   -8.2810   22.0320 C   0  0  0  0  0  3  0  0  0  0  0  0
  -22.6590   -8.0650   21.3000 C   0  0  0  0  0  0  0  0  0  0  0  0
  -22.2270   -9.0460   20.3900 C   0  0  0  0  0  3  0  0  0  0  0  0
  -22.9550  -10.2370   20.2230 C   0  0  0  0  0  3  0  0  0  0  0  0
  -21.9030   -6.9210   21.3770 O   0  0  0  0  0  0  0  0  0  0  0  0
  -21.8080   -6.1980   22.5390 C   0  0  0  0  0  0  0  0  0  0  0  0
  -21.3360   -6.7720   23.7390 C   0  0  0  0  0  3  0  0  0  0  0  0
  -21.1900   -5.9750   24.8910 C   0  0  0  0  0  3  0  0  0  0  0  0
  -21.5060   -4.6040   24.8460 C   0  0  0  0  0  0  0  0  0  0  0  0
  -21.9700   -4.0290   23.6490 C   0  0  0  0  0  3  0  0  0  0  0  0
  -22.1180   -4.8220   22.4990 C   0  0  0  0  0  0  0  0  0  0  0  0
  -22.5460   -4.2590   21.3440 F   0  0  0  0  0  0  0  0  0  0  0  0
  -21.3570   -3.8360   25.9500 F   0  0  0  0  0  0  0  0  0  0  0  0
  -23.0550  -13.5620   21.3690 C   0  0  0  0  0  0  0  0  0  0  0  0
  -22.4050  -12.8290   22.2650 N   0  0  0  0  0  0  0  0  0  0  0  0
  -22.5820  -14.6130   20.9410 O   0  0  0  0  0  0  0  0  0  0  0  0
  -22.8030  -11.9760   22.6300 H   0  0  0  0  0  0  0  0  0  0  0  0
  -21.4960  -13.1260   22.5940 H   0  0  0  0  0  0  0  0  0  0  0  0
  -25.6270  -15.2490   20.4210 N   0  0  0  0  0  0  0  0  0  0  0  0
  -24.8860  -15.9070   20.6340 H   0  0  0  0  0  0  0  0  0  0  0  0
  -26.4640  -15.6950   20.0650 H   0  0  0  0  0  0  0  0  0  0  0  0
  1  2  1  0
  2 11  1  0
  3 12  1  0
  3  1  2  0
  4  5  2  0
  4  3  1  0
  5  6  1  0
  6 54  1  0
  6  2  2  0
  7  4  1  0
  8  5  1  0
  9 10  1  0
 11  9  1  0
 11 10  1  0
 13 12  1  0
 14 25  2  0
 15 13  1  0
 15 20  1  0
 16 24  1  0
 16 26  1  0
 17 23  1  0
 17 19  1  0
 18 24  1  0
 19 18  1  0
 20 19  2  0
 21 22  1  0
 21 15  2  0
 22 17  2  0
 23 16  1  0
 24 14  1  0
 26 28  2  0
 27 26  1  0
 29 27  1  0
 30 39  2  0
 30 35  1  0
 31 27  1  0
 31 35  1  0
 32 31  1  0
 33 34  1  0
 33 32  1  0
 34 30  1  0
 35 36  2  0
 36 37  1  0
 38 37  2  0
 39 38  1  0
 40 14  1  0
 40 45  1  0
 40 41  1  0
 41 44  1  1
 41 42  1  0
 43 41  1  0
 45 48  1  0
 46 50  1  0
 46 45  1  0
 47 46  2  0
 50 49  1  0
 52 50  1  0
 52 53  1  0
 52 51  1  0
 55 68  1  0
 56 61  1  0
 57 58  1  0
 57 56  1  0
 59 58  1  0
 59 72  1  0
 59 60  1  0
 61 55  1  0
 61 60  1  0
 62 55  2  0
 64 67  1  0
 65 63  1  0
 66 64  1  0
 66 68  1  0
 67 54  1  0
 67 63  1  0
 68 65  1  0
 69 70  2  0
 70 89  1  0
 71 70  1  0
 71 74  1  0
 72 73  1  0
 72 69  1  0
 73 71  2  0
 74 75  1  0
 75 76  2  0
 77 80  1  0
 77 76  1  0
 78 77  2  0
 79 78  1  0
 79 74  2  0
 80 81  1  0
 81 82  1  0
 82 83  2  0
 84 83  1  0
 84 88  1  0
 85 84  2  0
 86 81  2  0
 86 85  1  0
 87 86  1  0
 89 90  1  0
 90 93  1  0
 90 92  1  0
 91 89  2  0
 94 69  1  0
 94 95  1  0
 96 94  1  0
M  ISO  4  12 101  13 101  55 100  68 100
M  END
>  <TORSDO>  (82) 
F 19

>  <SCORE>  (82) 
-13.994

>  <name>  (82) 
81

>  <ligand_id>  (82) 
81

>  <original_smiles>  (82) 
[H]c1c([H])c([H])c2c(c1[H])C([H])([H])C([H])([H])C([H])([H])C2([H])N([H])C(=O)C1([H])N(C(=O)C([H])(N([H])C(=O)C([H])(N([H])C([H])([H])[H])C([H])([H])[H])C(C([H])([H])[H])(C([H])([H])[H])C([H])([H])[H])C([H])([H])c2c([H])c(OC([H])([H])c3c([H])c(C4([H])C([H])([H])C4([H])[H])c(OC4([H])C([H])([H])C([H])([H])N(C(=O)N5C([H])([H])C([H])([H])C([H])([H])C([H])(n6nc(-c7c([H])c([H])c(Oc8c([H])c([H])c(F)c([H])c8F)c([H])c7[H])c(C(=O)N([H])[H])c6N([H])[H])C5([H])[H])C([H])([H])C4([H])[H])c(C([H])([H])[H])c3C([H])([H])[H])c([H])c([H])c2C1([H])[H]

>  <smiles>  (82) 
[H]c1c([H])c([H])c2c(c1[H])C([H])([H])C([H])([H])C([H])([H])C2([H])N([H])C(=O)C1([H])N(C(=O)C([H])(N([H])C(=O)C([H])(N([H])C([H])([H])[H])C([H])([H])[H])C(C([H])([H])[H])(C([H])([H])[H])C([H])([H])[H])C([H])([H])c2c([H])c(OC([H])([H])c3c([H])c(C4([H])C([H])([H])C4([H])[H])c(OC4([H])C([H])([H])C([H])([H])N(C(=O)N5C([H])([H])C([H])([H])C([H])([H])C([H])(n6nc(-c7c([H])c([H])c(Oc8c([H])c([H])c(F)c([H])c8F)c([H])c7[H])c(C(=O)N([H])[H])c6N([H])[H])C5([H])[H])C([H])([H])C4([H])[H])c(C([H])([H])[H])c3C([H])([H])[H])c([H])c([H])c2C1([H])[H]

$$$$
82:0:0
     RDKit          3D

 98109  0  0  1  0  0  0  0  0999 V2000
  -31.8370  -21.6870   17.9220 C   0  0  0  0  0  3  0  0  0  0  0  0
  -31.5980  -20.6160   18.7960 C   0  0  0  0  0  0  0  0  0  0  0  0
  -30.1960  -23.1030   19.0850 C   0  0  0  0  0  0  0  0  0  0  0  0
  -31.1630  -22.9110   18.0590 C   0  0  0  0  0  0  0  0  0  0  0  0
  -29.8640  -21.9640   19.8980 C   0  0  0  0  0  0  0  0  0  0  0  0
  -30.5550  -20.7120   19.7480 C   0  0  0  0  0  0  0  0  0  0  0  0
  -31.5590  -24.0290   17.1020 C   0  0  0  0  0  1  0  0  0  0  0  0
  -28.8100  -22.0910   20.9830 C   0  0  0  0  0  1  0  0  0  0  0  0
  -33.4150  -19.0020   19.8410 C   0  0  0  0  0  2  0  0  0  0  0  0
  -34.0050  -19.6230   18.6010 C   0  0  0  0  0  2  0  0  0  0  0  0
  -32.5090  -19.4250   18.7000 C   0  0  0  0  0  3  0  0  0  0  0  0
  -28.6280  -25.0540   18.2950 C   0  0  0  0  0  2  0  0  0  0  0  0
  -29.6900  -24.5530   19.2630 C   0  0  0  0  0  3  0  0  0  0  0  0
  -28.3650  -25.1340   19.7770 C   0  0  0  0  0  3  0  0  0  0  0  0
  -28.4190  -26.5120   20.2390 O   0  0  0  0  0  0  0  0  0  0  0  0
  -24.6350  -31.8110   23.2370 C   0  0  0  0  0  0  0  0  0  0  0  0
  -27.2570  -27.2750   20.2140 C   0  0  0  0  0  0  0  0  0  0  0  0
  -23.4300  -30.4030   21.6060 C   0  0  0  0  0  3  0  0  0  0  0  0
  -24.8750  -28.8320   20.2050 C   0  0  0  0  0  0  0  0  0  0  0  0
  -25.9640  -30.7240   21.4200 C   0  0  0  0  0  2  0  0  0  0  0  0
  -26.0370  -29.3410   20.7940 C   0  0  0  0  0  0  0  0  0  0  0  0
  -27.2310  -28.5720   20.7920 C   0  0  0  0  0  3  0  0  0  0  0  0
  -26.0650  -26.7900   19.6260 C   0  0  0  0  0  3  0  0  0  0  0  0
  -24.8850  -27.5570   19.6150 C   0  0  0  0  0  3  0  0  0  0  0  0
  -23.6400  -29.7090   20.2340 C   0  0  0  0  0  2  0  0  0  0  0  0
  -24.6960  -30.9950   22.1450 N   0  0  0  0  0  0  0  0  0  0  0  0
  -23.5510  -32.0960   23.7650 O   0  0  0  0  0  0  0  0  0  0  0  0
  -22.7600  -29.3970   22.5710 C   0  0  0  0  0  0  0  0  0  0  0  0
  -21.4340  -29.2290   22.4380 N   0  0  0  0  0  0  0  0  0  0  0  0
  -23.4320  -28.7710   23.3940 O   0  0  0  0  0  0  0  0  0  0  0  0
  -20.9530  -29.7800   21.7410 H   0  0  0  0  0  0  0  0  0  0  0  0
  -18.0450  -28.0850   22.9390 C   0  0  0  0  0  0  0  0  0  0  0  0
  -20.6050  -28.3080   23.2120 C   0  0  0  0  0  3  0  0  0  0  0  0
  -20.6870  -26.8720   22.6440 C   0  0  0  0  0  2  0  0  0  0  0  0
  -19.5810  -26.5610   21.6300 C   0  0  0  0  0  2  0  0  0  0  0  0
  -18.2010  -26.7310   22.2700 C   0  0  0  0  0  2  0  0  0  0  0  0
  -19.1740  -28.8330   23.3680 C   0  0  0  0  0  0  0  0  0  0  0  0
  -18.9730  -30.1020   23.9530 C   0  0  0  0  0  3  0  0  0  0  0  0
  -17.6740  -30.6240   24.1110 C   0  0  0  0  0  3  0  0  0  0  0  0
  -16.5600  -29.8740   23.6990 C   0  0  0  0  0  3  0  0  0  0  0  0
  -16.7460  -28.6060   23.1200 C   0  0  0  0  0  3  0  0  0  0  0  0
  -25.9170  -32.4390   23.8620 C   0  0  0  0  0  3  0  0  0  0  0  0
  -26.4310  -31.6630   25.1360 C   0  0  1  0  0  0  0  0  0  0  0  0
  -25.3340  -31.4230   26.2000 C   0  0  0  0  0  1  0  0  0  0  0  0
  -27.0110  -30.2850   24.7380 C   0  0  0  0  0  1  0  0  0  0  0  0
  -27.5830  -32.4550   25.8000 C   0  0  0  0  0  1  0  0  0  0  0  0
  -25.6060  -33.8360   24.1930 N   0  0  0  0  0  0  0  0  0  0  0  0
  -25.9320  -34.8900   23.4340 C   0  0  0  0  0  0  0  0  0  0  0  0
  -26.5990  -34.7890   22.4000 O   0  0  0  0  0  0  0  0  0  0  0  0
  -25.0110  -33.9850   24.9940 H   0  0  0  0  0  0  0  0  0  0  0  0
  -24.1940  -36.6760   23.0930 C   0  0  0  0  0  1  0  0  0  0  0  0
  -25.4440  -36.2780   23.8950 C   0  0  0  0  0  3  0  0  0  0  0  0
  -27.5830  -37.1710   24.7070 C   0  0  0  0  0  1  0  0  0  0  0  0
  -26.4730  -37.3340   23.7730 N   0  0  0  0  0  0  0  0  0  0  0  0
  -26.0660  -38.2540   23.9180 H   0  0  0  0  0  0  0  0  0  0  0  0
  -30.3950  -19.6470   20.6250 O   0  0  0  0  0  0  0  0  0  0  0  0
  -30.7320  -14.4600   20.0850 C   0  0  0  0  0  0  0  0  0  0  0  0
  -30.3770  -12.3040   18.9400 C   0  0  0  0  0  2  0  0  0  0  0  0
  -29.3870  -12.5300   17.7810 C   0  0  0  0  0  2  0  0  0  0  0  0
  -27.9330  -12.3880   18.2750 C   0  0  0  0  0  2  0  0  0  0  0  0
  -27.6560  -13.1990   19.5720 C   0  0  0  0  0  3  0  0  0  0  0  0
  -28.7620  -12.9540   20.6190 C   0  0  0  0  0  2  0  0  0  0  0  0
  -30.0420  -13.2860   19.9860 N   0  0  0  0  0  0  0  0  0  0  0  0
  -31.9080  -14.5280   19.7100 O   0  0  0  0  0  0  0  0  0  0  0  0
  -29.3830  -17.8900   19.0800 C   0  0  0  0  0  2  0  0  0  0  0  0
  -29.5450  -17.6060   21.5730 C   0  0  0  0  0  2  0  0  0  0  0  0
  -30.3220  -16.6510   19.0810 C   0  0  0  0  0  2  0  0  0  0  0  0
  -29.2020  -16.1260   21.2240 C   0  0  0  0  0  2  0  0  0  0  0  0
  -29.3710  -18.6440   20.4280 C   0  0  0  0  0  3  0  0  0  0  0  0
  -29.9770  -15.6070   20.0740 N   0  0  0  0  0  0  0  0  0  0  0  0
  -25.3020  -13.8100   20.3990 C   0  0  0  0  0  0  0  0  0  0  0  0
  -24.2520  -13.0350   20.8170 C   0  0  0  0  0  0  0  0  0  0  0  0
  -24.7090  -11.6840   20.7590 C   0  0  0  0  0  0  0  0  0  0  0  0
  -26.3310  -12.9250   20.1130 N   0  0  0  0  0  0  0  0  0  0  0  0
  -25.9840  -11.6430   20.3910 N   0  0  0  0  0  0  0  0  0  0  0  0
  -23.9900  -10.4220   20.9710 C   0  0  0  0  0  0  0  0  0  0  0  0
  -24.4370   -9.4710   21.9150 C   0  0  0  0  0  3  0  0  0  0  0  0
  -23.7200   -8.2740   22.1150 C   0  0  0  0  0  3  0  0  0  0  0  0
  -22.5430   -8.0170   21.3740 C   0  0  0  0  0  0  0  0  0  0  0  0
  -22.1150   -8.9570   20.4210 C   0  0  0  0  0  3  0  0  0  0  0  0
  -22.8330  -10.1480   20.2180 C   0  0  0  0  0  3  0  0  0  0  0  0
  -21.7950   -6.8700   21.4870 O   0  0  0  0  0  0  0  0  0  0  0  0
  -21.7230   -6.1670   22.6630 C   0  0  0  0  0  0  0  0  0  0  0  0
  -21.2500   -6.7560   23.8550 C   0  0  0  0  0  3  0  0  0  0  0  0
  -21.1290   -5.9790   25.0240 C   0  0  0  0  0  3  0  0  0  0  0  0
  -21.4660   -4.6120   25.0010 C   0  0  0  0  0  0  0  0  0  0  0  0
  -21.9340   -4.0230   23.8120 C   0  0  0  0  0  3  0  0  0  0  0  0
  -22.0580   -4.7970   22.6450 C   0  0  0  0  0  0  0  0  0  0  0  0
  -22.4860   -4.2200   21.4970 F   0  0  0  0  0  0  0  0  0  0  0  0
  -21.3440   -3.8640   26.1210 F   0  0  0  0  0  0  0  0  0  0  0  0
  -22.8700  -13.5160   21.1520 C   0  0  0  0  0  0  0  0  0  0  0  0
  -22.1790  -12.8190   22.0460 N   0  0  0  0  0  0  0  0  0  0  0  0
  -22.4100  -14.5410   20.6510 O   0  0  0  0  0  0  0  0  0  0  0  0
  -22.5700  -11.9910   22.4730 H   0  0  0  0  0  0  0  0  0  0  0  0
  -21.2520  -13.1210   22.3130 H   0  0  0  0  0  0  0  0  0  0  0  0
  -25.4570  -15.1790   20.2180 N   0  0  0  0  0  0  0  0  0  0  0  0
  -24.6910  -15.8280   20.3530 H   0  0  0  0  0  0  0  0  0  0  0  0
  -26.2810  -15.6130   19.8230 H   0  0  0  0  0  0  0  0  0  0  0  0
  1  4  2  0
  1  2  1  0
  2  6  2  0
  3  5  2  0
  4  3  1  0
  5  8  1  0
  6  5  1  0
  6 56  1  0
  7  4  1  0
 10 11  1  0
 10  9  1  0
 11  2  1  0
 11  9  1  0
 12 13  1  0
 12 14  1  0
 13  3  1  0
 13 14  1  0
 14 15  1  0
 16 27  2  0
 17 15  1  0
 17 22  1  0
 18 26  1  0
 18 28  1  0
 19 25  1  0
 19 21  1  0
 20 26  1  0
 21 20  1  0
 22 21  2  0
 23 17  2  0
 24 23  1  0
 24 19  2  0
 25 18  1  0
 26 16  1  0
 28 30  2  0
 29 28  1  0
 31 29  1  0
 32 41  2  0
 32 37  1  0
 33 29  1  0
 33 37  1  0
 34 33  1  0
 35 36  1  0
 35 34  1  0
 36 32  1  0
 37 38  2  0
 38 39  1  0
 40 39  2  0
 41 40  1  0
 42 16  1  0
 42 47  1  0
 42 43  1  0
 43 46  1  1
 43 44  1  0
 45 43  1  0
 47 50  1  0
 48 52  1  0
 48 47  1  0
 49 48  2  0
 52 51  1  0
 54 52  1  0
 54 55  1  0
 54 53  1  0
 58 63  1  0
 59 60  1  0
 59 58  1  0
 61 60  1  0
 61 74  1  0
 61 62  1  0
 63 57  1  0
 63 62  1  0
 64 57  2  0
 65 67  1  0
 65 69  1  0
 67 70  1  0
 68 66  1  0
 69 56  1  0
 69 66  1  0
 70 57  1  0
 70 68  1  0
 71 72  2  0
 72 91  1  0
 73 72  1  0
 73 76  1  0
 74 75  1  0
 74 71  1  0
 75 73  2  0
 76 77  1  0
 77 78  2  0
 79 82  1  0
 79 78  1  0
 80 79  2  0
 81 80  1  0
 81 76  2  0
 82 83  1  0
 83 84  1  0
 84 85  2  0
 86 85  1  0
 86 90  1  0
 87 86  2  0
 88 83  2  0
 88 87  1  0
 89 88  1  0
 91 92  1  0
 92 95  1  0
 92 94  1  0
 93 91  2  0
 96 97  1  0
 96 71  1  0
 98 96  1  0
M  ISO  4  14 101  15 101  57 100  70 100
M  END
>  <TORSDO>  (83) 
F 19

>  <SCORE>  (83) 
-14.099

>  <name>  (83) 
82

>  <ligand_id>  (83) 
82

>  <original_smiles>  (83) 
[H]c1c([H])c([H])c2c(c1[H])C([H])([H])C([H])([H])C([H])([H])C2([H])N([H])C(=O)C1([H])N(C(=O)C([H])(N([H])C(=O)C([H])(N([H])C([H])([H])[H])C([H])([H])[H])C(C([H])([H])[H])(C([H])([H])[H])C([H])([H])[H])C([H])([H])c2c([H])c(OC3([H])C([H])([H])C3([H])c3c(C([H])([H])[H])c([H])c(C4([H])C([H])([H])C4([H])[H])c(OC4([H])C([H])([H])C([H])([H])N(C(=O)N5C([H])([H])C([H])([H])C([H])([H])C([H])(n6nc(-c7c([H])c([H])c(Oc8c([H])c([H])c(F)c([H])c8F)c([H])c7[H])c(C(=O)N([H])[H])c6N([H])[H])C5([H])[H])C([H])([H])C4([H])[H])c3C([H])([H])[H])c([H])c([H])c2C1([H])[H]

>  <smiles>  (83) 
[H]c1c([H])c([H])c2c(c1[H])C([H])([H])C([H])([H])C([H])([H])C2([H])N([H])C(=O)C1([H])N(C(=O)C([H])(N([H])C(=O)C([H])(N([H])C([H])([H])[H])C([H])([H])[H])C(C([H])([H])[H])(C([H])([H])[H])C([H])([H])[H])C([H])([H])c2c([H])c(OC3([H])C([H])([H])C3([H])c3c(C([H])([H])[H])c([H])c(C4([H])C([H])([H])C4([H])[H])c(OC4([H])C([H])([H])C([H])([H])N(C(=O)N5C([H])([H])C([H])([H])C([H])([H])C([H])(n6nc(-c7c([H])c([H])c(Oc8c([H])c([H])c(F)c([H])c8F)c([H])c7[H])c(C(=O)N([H])[H])c6N([H])[H])C5([H])[H])C([H])([H])C4([H])[H])c3C([H])([H])[H])c([H])c([H])c2C1([H])[H]

$$$$
83:0:0
     RDKit          3D

 93102  0  0  1  0  0  0  0  0999 V2000
  -31.1110  -22.4550   21.1710 C   0  0  0  0  0  3  0  0  0  0  0  0
  -29.6110  -20.7010   20.2760 C   0  0  0  0  0  0  0  0  0  0  0  0
  -30.2910  -23.5440   20.7810 C   0  0  0  0  0  0  0  0  0  0  0  0
  -28.7550  -21.8790   19.8900 C   0  0  0  0  0  0  0  0  0  0  0  0
  -29.0550  -23.3390   20.1260 C   0  0  0  0  0  0  0  0  0  0  0  0
  -30.7980  -21.0830   20.9510 C   0  0  0  0  0  0  0  0  0  0  0  0
  -30.7810  -24.9460   21.1050 C   0  0  0  0  0  1  0  0  0  0  0  0
  -27.4460  -21.5510   19.1950 C   0  0  0  0  0  1  0  0  0  0  0  0
  -30.6390  -15.1290   19.9260 C   0  0  0  0  0  0  0  0  0  0  0  0
  -30.4450  -12.7810   18.9460 C   0  0  0  0  0  2  0  0  0  0  0  0
  -29.4390  -12.7220   17.7730 C   0  0  0  0  0  2  0  0  0  0  0  0
  -28.0100  -12.4830   18.2940 C   0  0  0  0  0  2  0  0  0  0  0  0
  -27.6690  -13.3820   19.5120 C   0  0  0  0  0  3  0  0  0  0  0  0
  -28.7980  -13.3980   20.5650 C   0  0  0  0  0  2  0  0  0  0  0  0
  -30.0090  -13.8730   19.8750 N   0  0  0  0  0  0  0  0  0  0  0  0
  -31.8140  -15.1380   19.5350 O   0  0  0  0  0  0  0  0  0  0  0  0
  -28.7300  -18.2750   21.2570 C   0  0  0  0  0  2  0  0  0  0  0  0
  -28.8270  -16.7180   20.9850 C   0  0  0  0  0  2  0  0  0  0  0  0
  -30.3880  -17.8370   19.6760 C   0  0  0  0  0  2  0  0  0  0  0  0
  -29.3190  -19.0520   20.0650 C   0  0  0  0  0  3  0  0  0  0  0  0
  -29.9550  -16.3960   20.0880 N   0  0  0  0  0  0  0  0  0  0  0  0
  -25.3440  -13.9140   20.4320 C   0  0  0  0  0  0  0  0  0  0  0  0
  -24.3120  -13.1210   20.8480 C   0  0  0  0  0  0  0  0  0  0  0  0
  -24.7770  -11.7750   20.7350 C   0  0  0  0  0  0  0  0  0  0  0  0
  -26.3720  -13.0540   20.0900 N   0  0  0  0  0  0  0  0  0  0  0  0
  -26.0450  -11.7580   20.3370 N   0  0  0  0  0  0  0  0  0  0  0  0
  -24.0670  -10.5030   20.9230 C   0  0  0  0  0  0  0  0  0  0  0  0
  -24.5050   -9.5430   21.8630 C   0  0  0  0  0  3  0  0  0  0  0  0
  -23.7900   -8.3390   22.0410 C   0  0  0  0  0  3  0  0  0  0  0  0
  -22.6240   -8.0860   21.2800 C   0  0  0  0  0  0  0  0  0  0  0  0
  -22.2070   -9.0340   20.3290 C   0  0  0  0  0  3  0  0  0  0  0  0
  -22.9220  -10.2310   20.1500 C   0  0  0  0  0  3  0  0  0  0  0  0
  -21.8810   -6.9340   21.3670 O   0  0  0  0  0  0  0  0  0  0  0  0
  -21.7470   -6.2530   22.5500 C   0  0  0  0  0  0  0  0  0  0  0  0
  -21.1910   -6.8570   23.7000 C   0  0  0  0  0  3  0  0  0  0  0  0
  -21.0070   -6.1000   24.8740 C   0  0  0  0  0  3  0  0  0  0  0  0
  -21.3680   -4.7400   24.9000 C   0  0  0  0  0  0  0  0  0  0  0  0
  -21.9150   -4.1350   23.7550 C   0  0  0  0  0  3  0  0  0  0  0  0
  -22.1010   -4.8880   22.5820 C   0  0  0  0  0  0  0  0  0  0  0  0
  -22.6100   -4.2950   21.4760 F   0  0  0  0  0  0  0  0  0  0  0  0
  -21.1830   -4.0110   26.0240 F   0  0  0  0  0  0  0  0  0  0  0  0
  -22.9350  -13.5810   21.2280 C   0  0  0  0  0  0  0  0  0  0  0  0
  -22.2750  -12.8600   22.1250 N   0  0  0  0  0  0  0  0  0  0  0  0
  -22.4590  -14.6180   20.7660 O   0  0  0  0  0  0  0  0  0  0  0  0
  -22.6760  -12.0220   22.5190 H   0  0  0  0  0  0  0  0  0  0  0  0
  -21.3540  -13.1490   22.4220 H   0  0  0  0  0  0  0  0  0  0  0  0
  -25.4820  -15.2910   20.2870 N   0  0  0  0  0  0  0  0  0  0  0  0
  -24.7160  -15.9300   20.4700 H   0  0  0  0  0  0  0  0  0  0  0  0
  -26.2860  -15.7430   19.8730 H   0  0  0  0  0  0  0  0  0  0  0  0
  -32.8170  -20.3920   22.0960 C   0  0  0  0  0  1  0  0  0  0  0  0
  -31.6190  -20.0700   21.3980 O   0  0  0  0  0  0  0  0  0  0  0  0
  -28.1130  -24.6710   19.7310 C   0  0  0  0  0  2  0  0  0  0  0  0
  -28.3720  -26.1990   20.0310 O   0  0  0  0  0  0  0  0  0  0  0  0
  -24.6610  -31.7630   23.2150 C   0  0  0  0  0  0  0  0  0  0  0  0
  -27.3160  -27.1970   19.9920 C   0  0  0  0  0  0  0  0  0  0  0  0
  -23.4900  -30.4260   21.5090 C   0  0  0  0  0  3  0  0  0  0  0  0
  -24.9680  -28.9340   20.0210 C   0  0  0  0  0  0  0  0  0  0  0  0
  -26.0440  -30.7250   21.3730 C   0  0  0  0  0  2  0  0  0  0  0  0
  -26.1400  -29.3620   20.6580 C   0  0  0  0  0  0  0  0  0  0  0  0
  -27.3140  -28.5110   20.6240 C   0  0  0  0  0  3  0  0  0  0  0  0
  -26.1160  -26.8820   19.3170 C   0  0  0  0  0  3  0  0  0  0  0  0
  -24.9710  -27.7110   19.3340 C   0  0  0  0  0  3  0  0  0  0  0  0
  -23.7290  -29.8140   20.1020 C   0  0  0  0  0  2  0  0  0  0  0  0
  -24.7510  -30.9920   22.0880 N   0  0  0  0  0  0  0  0  0  0  0  0
  -23.5670  -32.0100   23.7470 O   0  0  0  0  0  0  0  0  0  0  0  0
  -22.8180  -29.3690   22.4210 C   0  0  0  0  0  0  0  0  0  0  0  0
  -21.4970  -29.1690   22.2610 N   0  0  0  0  0  0  0  0  0  0  0  0
  -23.4880  -28.7330   23.2380 O   0  0  0  0  0  0  0  0  0  0  0  0
  -21.0100  -29.7370   21.5820 H   0  0  0  0  0  0  0  0  0  0  0  0
  -18.1390  -27.8660   22.6590 C   0  0  0  0  0  0  0  0  0  0  0  0
  -20.6850  -28.1840   22.9820 C   0  0  0  0  0  3  0  0  0  0  0  0
  -20.8340  -26.7770   22.3590 C   0  0  0  0  0  2  0  0  0  0  0  0
  -19.7600  -26.4630   21.3130 C   0  0  0  0  0  2  0  0  0  0  0  0
  -18.3620  -26.5480   21.9360 C   0  0  0  0  0  2  0  0  0  0  0  0
  -19.2290  -28.6410   23.1360 C   0  0  0  0  0  0  0  0  0  0  0  0
  -18.9640  -29.8730   23.7730 C   0  0  0  0  0  3  0  0  0  0  0  0
  -17.6440  -30.3320   23.9340 C   0  0  0  0  0  3  0  0  0  0  0  0
  -16.5680  -29.5540   23.4730 C   0  0  0  0  0  3  0  0  0  0  0  0
  -16.8160  -28.3210   22.8420 C   0  0  0  0  0  3  0  0  0  0  0  0
  -25.9250  -32.3900   23.8780 C   0  0  0  0  0  3  0  0  0  0  0  0
  -25.6110  -33.7870   24.2140 N   0  0  0  0  0  0  0  0  0  0  0  0
  -25.9310  -34.8470   23.4590 C   0  0  0  0  0  0  0  0  0  0  0  0
  -26.5870  -34.7500   22.4170 O   0  0  0  0  0  0  0  0  0  0  0  0
  -25.0260  -33.9360   25.0230 H   0  0  0  0  0  0  0  0  0  0  0  0
  -24.1730  -36.6250   23.1650 C   0  0  0  0  0  1  0  0  0  0  0  0
  -25.4480  -36.2330   23.9300 C   0  0  0  0  0  3  0  0  0  0  0  0
  -27.5960  -37.1510   24.6870 C   0  0  0  0  0  1  0  0  0  0  0  0
  -26.4660  -37.2950   23.7740 N   0  0  0  0  0  0  0  0  0  0  0  0
  -26.0540  -38.2130   23.9230 H   0  0  0  0  0  0  0  0  0  0  0  0
  -26.3990  -31.6110   25.1670 C   0  0  1  0  0  0  0  0  0  0  0  0
  -25.2710  -31.3720   26.2000 C   0  0  0  0  0  1  0  0  0  0  0  0
  -26.9890  -30.2320   24.7930 C   0  0  0  0  0  1  0  0  0  0  0  0
  -27.5310  -32.3970   25.8690 C   0  0  0  0  0  1  0  0  0  0  0  0
  2  6  2  0
  3  7  1  0
  3  1  2  0
  4  5  2  0
  4  2  1  0
  5  3  1  0
  6  1  1  0
  6 51  1  0
  8  4  1  0
  9 21  1  0
 10 15  1  0
 11 12  1  0
 11 10  1  0
 13 12  1  0
 13 25  1  0
 13 14  1  0
 15  9  1  0
 15 14  1  0
 16  9  2  0
 18 17  1  0
 19 20  1  0
 19 21  1  0
 20  2  1  0
 20 17  1  0
 21 18  1  0
 22 23  2  0
 23 42  1  0
 24 23  1  0
 24 27  1  0
 25 26  1  0
 25 22  1  0
 26 24  2  0
 27 28  1  0
 28 29  2  0
 30 33  1  0
 30 29  1  0
 31 30  2  0
 32 31  1  0
 32 27  2  0
 33 34  1  0
 34 39  2  0
 34 35  1  0
 35 36  2  0
 36 37  1  0
 37 41  1  0
 38 37  2  0
 39 38  1  0
 40 39  1  0
 42 43  1  0
 43 46  1  0
 43 45  1  0
 44 42  2  0
 47 22  1  0
 47 48  1  0
 49 47  1  0
 51 50  1  0
 52 53  1  0
 52  5  1  0
 54 65  2  0
 55 53  1  0
 55 60  1  0
 56 64  1  0
 56 66  1  0
 57 63  1  0
 57 59  1  0
 58 64  1  0
 59 58  1  0
 60 59  2  0
 61 62  1  0
 61 55  2  0
 62 57  2  0
 63 56  1  0
 64 54  1  0
 66 68  2  0
 67 66  1  0
 69 67  1  0
 70 79  2  0
 70 75  1  0
 71 67  1  0
 71 75  1  0
 72 71  1  0
 73 74  1  0
 73 72  1  0
 74 70  1  0
 75 76  2  0
 76 77  1  0
 78 77  2  0
 79 78  1  0
 80 54  1  0
 80 81  1  0
 80 90  1  0
 81 84  1  0
 82 86  1  0
 82 81  1  0
 83 82  2  0
 86 85  1  0
 88 89  1  0
 88 86  1  0
 88 87  1  0
 90 93  1  1
 90 91  1  0
 92 90  1  0
M  ISO  4   9 100  21 100  52 101  53 101
M  END
>  <TORSDO>  (84) 
F 18

>  <SCORE>  (84) 
-14.079

>  <name>  (84) 
83

>  <ligand_id>  (84) 
83

>  <original_smiles>  (84) 
[H]c1c([H])c([H])c2c(c1[H])C([H])([H])C([H])([H])C([H])([H])C2([H])N([H])C(=O)C1([H])N(C(=O)C([H])(N([H])C(=O)C([H])(N([H])C([H])([H])[H])C([H])([H])[H])C(C([H])([H])[H])(C([H])([H])[H])C([H])([H])[H])C([H])([H])c2c([H])c(OC([H])([H])c3c(C([H])([H])[H])c([H])c(OC([H])([H])[H])c(C4([H])C([H])([H])N(C(=O)N5C([H])([H])C([H])([H])C([H])([H])C([H])(n6nc(-c7c([H])c([H])c(Oc8c([H])c([H])c(F)c([H])c8F)c([H])c7[H])c(C(=O)N([H])[H])c6N([H])[H])C5([H])[H])C([H])([H])C4([H])[H])c3C([H])([H])[H])c([H])c([H])c2C1([H])[H]

>  <smiles>  (84) 
[H]c1c([H])c([H])c2c(c1[H])C([H])([H])C([H])([H])C([H])([H])C2([H])N([H])C(=O)C1([H])N(C(=O)C([H])(N([H])C(=O)C([H])(N([H])C([H])([H])[H])C([H])([H])[H])C(C([H])([H])[H])(C([H])([H])[H])C([H])([H])[H])C([H])([H])c2c([H])c(OC([H])([H])c3c(C([H])([H])[H])c([H])c(OC([H])([H])[H])c(C4([H])C([H])([H])N(C(=O)N5C([H])([H])C([H])([H])C([H])([H])C([H])(n6nc(-c7c([H])c([H])c(Oc8c([H])c([H])c(F)c([H])c8F)c([H])c7[H])c(C(=O)N([H])[H])c6N([H])[H])C5([H])[H])C([H])([H])C4([H])[H])c3C([H])([H])[H])c([H])c([H])c2C1([H])[H]

$$$$
84:0:0
     RDKit          3D

 98108  0  0  1  0  0  0  0  0999 V2000
  -31.2330  -18.1360   21.0350 C   0  0  0  0  0  3  0  0  0  0  0  0
  -31.4200  -19.5430   21.1900 C   0  0  0  0  0  3  0  0  0  0  0  0
  -29.0950  -18.6020   20.0620 C   0  0  0  0  0  3  0  0  0  0  0  0
  -29.2790  -20.0540   20.1850 C   0  0  0  0  0  0  0  0  0  0  0  0
  -30.0540  -17.5840   20.4740 C   0  0  0  0  0  0  0  0  0  0  0  0
  -30.4630  -20.5240   20.8020 C   0  0  0  0  0  0  0  0  0  0  0  0
  -28.2340  -21.0640   19.6650 C   0  0  0  0  0  0  0  0  0  0  0  0
  -29.1230  -23.5340   19.9830 C   0  0  0  0  0  3  0  0  0  0  0  0
  -29.7880  -22.9160   21.2680 C   0  0  0  0  0  3  0  0  0  0  0  0
  -30.5490  -23.9770   22.0760 C   0  0  0  0  0  1  0  0  0  0  0  0
  -28.5800  -22.3340   19.2150 N   0  0  0  0  0  0  0  0  0  0  0  0
  -27.0930  -20.6350   19.4590 O   0  0  0  0  0  0  0  0  0  0  0  0
  -30.7820  -21.8760   20.9960 O   0  0  0  0  0  0  0  0  0  0  0  0
  -30.6300  -14.9660   20.1370 C   0  0  0  0  0  0  0  0  0  0  0  0
  -30.4310  -12.7110   19.0250 C   0  0  0  0  0  2  0  0  0  0  0  0
  -29.4190  -12.7970   17.8610 C   0  0  0  0  0  2  0  0  0  0  0  0
  -27.9770  -12.5750   18.3610 C   0  0  0  0  0  2  0  0  0  0  0  0
  -27.6580  -13.3900   19.6420 C   0  0  0  0  0  3  0  0  0  0  0  0
  -28.7880  -13.2870   20.6900 C   0  0  0  0  0  2  0  0  0  0  0  0
  -30.0290  -13.7220   20.0360 N   0  0  0  0  0  0  0  0  0  0  0  0
  -31.8120  -15.0800   19.7960 O   0  0  0  0  0  0  0  0  0  0  0  0
  -29.8180  -16.0910   20.3770 N   0  0  0  0  0  0  0  0  0  0  0  0
  -28.8510  -15.8300   20.4770 H   0  0  0  0  0  0  0  0  0  0  0  0
  -25.3080  -13.8950   20.5320 C   0  0  0  0  0  0  0  0  0  0  0  0
  -24.2780  -13.0840   20.9260 C   0  0  0  0  0  0  0  0  0  0  0  0
  -24.7620  -11.7440   20.8100 C   0  0  0  0  0  0  0  0  0  0  0  0
  -26.3520  -13.0470   20.1990 N   0  0  0  0  0  0  0  0  0  0  0  0
  -26.0350  -11.7460   20.4300 N   0  0  0  0  0  0  0  0  0  0  0  0
  -24.0660  -10.4630   20.9830 C   0  0  0  0  0  0  0  0  0  0  0  0
  -24.5000   -9.5090   21.9310 C   0  0  0  0  0  3  0  0  0  0  0  0
  -23.8040   -8.2920   22.0940 C   0  0  0  0  0  3  0  0  0  0  0  0
  -22.6590   -8.0190   21.3080 C   0  0  0  0  0  0  0  0  0  0  0  0
  -22.2450   -8.9610   20.3490 C   0  0  0  0  0  3  0  0  0  0  0  0
  -22.9420  -10.1690   20.1850 C   0  0  0  0  0  3  0  0  0  0  0  0
  -21.9350   -6.8530   21.3800 O   0  0  0  0  0  0  0  0  0  0  0  0
  -21.7870   -6.1670   22.5590 C   0  0  0  0  0  0  0  0  0  0  0  0
  -21.1750   -6.7540   23.6880 C   0  0  0  0  0  3  0  0  0  0  0  0
  -20.9790   -5.9930   24.8580 C   0  0  0  0  0  3  0  0  0  0  0  0
  -21.3850   -4.6450   24.8980 C   0  0  0  0  0  0  0  0  0  0  0  0
  -21.9880   -4.0570   23.7720 C   0  0  0  0  0  3  0  0  0  0  0  0
  -22.1850   -4.8170   22.6050 C   0  0  0  0  0  0  0  0  0  0  0  0
  -22.7480   -4.2400   21.5160 F   0  0  0  0  0  0  0  0  0  0  0  0
  -21.1900   -3.9100   26.0170 F   0  0  0  0  0  0  0  0  0  0  0  0
  -22.8890  -13.5230   21.2900 C   0  0  0  0  0  0  0  0  0  0  0  0
  -22.2260  -12.7880   22.1770 N   0  0  0  0  0  0  0  0  0  0  0  0
  -22.4020  -14.5520   20.8240 O   0  0  0  0  0  0  0  0  0  0  0  0
  -22.6320  -11.9540   22.5750 H   0  0  0  0  0  0  0  0  0  0  0  0
  -21.2970  -13.0630   22.4610 H   0  0  0  0  0  0  0  0  0  0  0  0
  -25.4340  -15.2740   20.4030 N   0  0  0  0  0  0  0  0  0  0  0  0
  -24.6510  -15.8950   20.5780 H   0  0  0  0  0  0  0  0  0  0  0  0
  -26.2300  -15.7470   19.9960 H   0  0  0  0  0  0  0  0  0  0  0  0
  -27.2940  -24.6990   21.4790 C   0  0  0  0  0  1  0  0  0  0  0  0
  -28.0740  -24.8260   20.1590 C   0  0  0  0  0  3  0  0  0  0  0  0
  -28.3750  -26.3240   19.9280 O   0  0  0  0  0  0  0  0  0  0  0  0
  -24.7150  -31.8260   23.1230 C   0  0  0  0  0  0  0  0  0  0  0  0
  -27.3090  -27.2860   19.8960 C   0  0  0  0  0  0  0  0  0  0  0  0
  -23.5170  -30.4880   21.4360 C   0  0  0  0  0  3  0  0  0  0  0  0
  -24.9700  -28.9940   19.9430 C   0  0  0  0  0  0  0  0  0  0  0  0
  -26.0680  -30.7840   21.2740 C   0  0  0  0  0  2  0  0  0  0  0  0
  -26.1470  -29.4250   20.5670 C   0  0  0  0  0  0  0  0  0  0  0  0
  -27.3200  -28.5870   20.5300 C   0  0  0  0  0  3  0  0  0  0  0  0
  -26.1090  -26.9620   19.2200 C   0  0  0  0  0  3  0  0  0  0  0  0
  -24.9620  -27.7750   19.2560 C   0  0  0  0  0  3  0  0  0  0  0  0
  -23.7350  -29.8740   20.0300 C   0  0  0  0  0  2  0  0  0  0  0  0
  -24.7870  -31.0500   22.0000 N   0  0  0  0  0  0  0  0  0  0  0  0
  -23.6300  -32.0830   23.6650 O   0  0  0  0  0  0  0  0  0  0  0  0
  -22.8510  -29.4350   22.3570 C   0  0  0  0  0  0  0  0  0  0  0  0
  -21.5230  -29.2620   22.2280 N   0  0  0  0  0  0  0  0  0  0  0  0
  -23.5280  -28.7790   23.1510 O   0  0  0  0  0  0  0  0  0  0  0  0
  -21.0320  -29.8420   21.5610 H   0  0  0  0  0  0  0  0  0  0  0  0
  -18.1340  -28.1090   22.7760 C   0  0  0  0  0  0  0  0  0  0  0  0
  -20.7070  -28.2940   22.9640 C   0  0  0  0  0  3  0  0  0  0  0  0
  -20.7510  -26.9010   22.2930 C   0  0  0  0  0  2  0  0  0  0  0  0
  -19.6060  -26.6730   21.3010 C   0  0  0  0  0  2  0  0  0  0  0  0
  -18.2520  -26.8050   22.0050 C   0  0  0  0  0  2  0  0  0  0  0  0
  -19.2870  -28.8160   23.2120 C   0  0  0  0  0  0  0  0  0  0  0  0
  -19.1190  -30.0390   23.8960 C   0  0  0  0  0  3  0  0  0  0  0  0
  -17.8330  -30.5570   24.1450 C   0  0  0  0  0  3  0  0  0  0  0  0
  -16.6960  -29.8450   23.7250 C   0  0  0  0  0  3  0  0  0  0  0  0
  -16.8480  -28.6230   23.0460 C   0  0  0  0  0  3  0  0  0  0  0  0
  -25.9930  -32.4430   23.7670 C   0  0  0  0  0  3  0  0  0  0  0  0
  -26.5050  -31.6330   25.0210 C   0  0  1  0  0  0  0  0  0  0  0  0
  -25.4070  -31.3490   26.0720 C   0  0  0  0  0  1  0  0  0  0  0  0
  -27.1040  -30.2750   24.5920 C   0  0  0  0  0  1  0  0  0  0  0  0
  -27.6440  -32.4160   25.7180 C   0  0  0  0  0  1  0  0  0  0  0  0
  -25.6760  -33.8290   24.1460 N   0  0  0  0  0  0  0  0  0  0  0  0
  -25.9620  -34.9070   23.4040 C   0  0  0  0  0  0  0  0  0  0  0  0
  -26.5880  -34.8410   22.3430 O   0  0  0  0  0  0  0  0  0  0  0  0
  -25.1120  -33.9530   24.9740 H   0  0  0  0  0  0  0  0  0  0  0  0
  -24.1870  -36.6790   23.1900 C   0  0  0  0  0  1  0  0  0  0  0  0
  -25.4780  -36.2770   23.9210 C   0  0  0  0  0  3  0  0  0  0  0  0
  -27.6330  -37.1930   24.6640 C   0  0  0  0  0  1  0  0  0  0  0  0
  -26.4850  -37.3510   23.7740 N   0  0  0  0  0  0  0  0  0  0  0  0
  -26.0690  -38.2620   23.9530 H   0  0  0  0  0  0  0  0  0  0  0  0
  -28.3630  -22.6050   17.7810 C   0  0  0  0  0  2  0  0  0  0  0  0
  -29.6360  -23.2810   15.5870 C   0  0  0  0  0  2  0  0  0  0  0  0
  -30.4030  -23.8940   16.7310 C   0  0  0  0  0  2  0  0  0  0  0  0
  -29.6290  -22.6130   16.9430 C   0  0  0  0  0  3  0  0  0  0  0  0
  1  2  1  0
  3  4  2  0
  3  5  1  0
  4  6  1  0
  5  1  2  0
  6 13  1  0
  6  2  2  0
  7  4  1  0
  8 53  1  0
  8  9  1  0
  9 10  1  0
 11  7  1  0
 11  8  1  0
 12  7  2  0
 13  9  1  0
 14 22  1  0
 15 20  1  0
 16 17  1  0
 16 15  1  0
 18 17  1  0
 18 27  1  0
 18 19  1  0
 20 14  1  0
 20 19  1  0
 21 14  2  0
 22  5  1  0
 22 23  1  0
 24 25  2  0
 25 44  1  0
 26 25  1  0
 26 29  1  0
 27 28  1  0
 27 24  1  0
 28 26  2  0
 29 30  1  0
 30 31  2  0
 32 35  1  0
 32 31  1  0
 33 32  2  0
 34 33  1  0
 34 29  2  0
 35 36  1  0
 36 41  2  0
 36 37  1  0
 37 38  2  0
 38 39  1  0
 39 43  1  0
 40 39  2  0
 41 40  1  0
 42 41  1  0
 44 45  1  0
 45 48  1  0
 45 47  1  0
 46 44  2  0
 49 24  1  0
 49 50  1  0
 51 49  1  0
 53 52  1  0
 54 53  1  0
 55 66  2  0
 56 54  1  0
 56 61  1  0
 57 65  1  0
 57 67  1  0
 58 64  1  0
 58 60  1  0
 59 65  1  0
 60 59  1  0
 61 60  2  0
 62 63  1  0
 62 56  2  0
 63 58  2  0
 64 57  1  0
 65 55  1  0
 67 69  2  0
 68 67  1  0
 70 68  1  0
 71 80  2  0
 71 76  1  0
 72 68  1  0
 72 76  1  0
 73 72  1  0
 74 75  1  0
 74 73  1  0
 75 71  1  0
 76 77  2  0
 77 78  1  0
 79 78  2  0
 80 79  1  0
 81 55  1  0
 81 86  1  0
 81 82  1  0
 82 85  1  1
 82 83  1  0
 84 82  1  0
 86 89  1  0
 87 91  1  0
 87 86  1  0
 88 87  2  0
 91 90  1  0
 93 91  1  0
 93 94  1  0
 93 92  1  0
 95 11  1  0
 96 97  1  0
 96 98  1  0
 97 98  1  0
 98 95  1  0
M  ISO  4  14 100  22 100  53 101  54 101
M  END
>  <TORSDO>  (85) 
F 19

>  <SCORE>  (85) 
-14.055

>  <name>  (85) 
84

>  <ligand_id>  (85) 
84

>  <original_smiles>  (85) 
[H]c1c([H])c([H])c2c(c1[H])C([H])([H])C([H])([H])C([H])([H])C2([H])N([H])C(=O)C1([H])N(C(=O)C([H])(N([H])C(=O)C([H])(N([H])C([H])([H])[H])C([H])([H])[H])C(C([H])([H])[H])(C([H])([H])[H])C([H])([H])[H])C([H])([H])c2c([H])c(OC([H])(C([H])([H])[H])C3([H])N(C([H])([H])C4([H])C([H])([H])C4([H])[H])C(=O)c4c([H])c(N([H])C(=O)N5C([H])([H])C([H])([H])C([H])([H])C([H])(n6nc(-c7c([H])c([H])c(Oc8c([H])c([H])c(F)c([H])c8F)c([H])c7[H])c(C(=O)N([H])[H])c6N([H])[H])C5([H])[H])c([H])c([H])c4OC3([H])C([H])([H])[H])c([H])c([H])c2C1([H])[H]

>  <smiles>  (85) 
[H]c1c([H])c([H])c2c(c1[H])C([H])([H])C([H])([H])C([H])([H])C2([H])N([H])C(=O)C1([H])N(C(=O)C([H])(N([H])C(=O)C([H])(N([H])C([H])([H])[H])C([H])([H])[H])C(C([H])([H])[H])(C([H])([H])[H])C([H])([H])[H])C([H])([H])c2c([H])c(OC([H])(C([H])([H])[H])C3([H])N(C([H])([H])C4([H])C([H])([H])C4([H])[H])C(=O)c4c([H])c(N([H])C(=O)N5C([H])([H])C([H])([H])C([H])([H])C([H])(n6nc(-c7c([H])c([H])c(Oc8c([H])c([H])c(F)c([H])c8F)c([H])c7[H])c(C(=O)N([H])[H])c6N([H])[H])C5([H])[H])c([H])c([H])c4OC3([H])C([H])([H])[H])c([H])c([H])c2C1([H])[H]

$$$$
85:0:0
     RDKit          3D

 98107  0  0  1  0  0  0  0  0999 V2000
  -30.4120  -22.1850   21.4650 C   0  0  0  0  0  3  0  0  0  0  0  0
  -29.7280  -23.4100   21.2130 C   0  0  0  0  0  3  0  0  0  0  0  0
  -28.2740  -22.2050   19.7110 C   0  0  0  0  0  0  0  0  0  0  0  0
  -30.0800  -20.9460   20.8430 C   0  0  0  0  0  0  0  0  0  0  0  0
  -28.9770  -20.9350   19.9480 C   0  0  0  0  0  0  0  0  0  0  0  0
  -28.6440  -23.4840   20.3100 C   0  0  0  0  0  0  0  0  0  0  0  0
  -31.0540  -19.7330   21.0110 C   0  0  0  0  0  2  0  0  0  0  0  0
  -30.5800  -18.2870   21.4320 C   0  0  0  0  0  2  0  0  0  0  0  0
  -28.6760  -19.5940   19.1540 C   0  0  0  0  0  3  0  0  0  0  0  0
  -29.9620  -17.4070   20.3050 C   0  0  0  0  0  3  0  0  0  0  0  0
  -28.6340  -18.1790   19.9270 C   0  0  0  0  0  3  0  0  0  0  0  0
  -30.5370  -14.7980   20.3730 C   0  0  0  0  0  0  0  0  0  0  0  0
  -30.3580  -12.5120   19.3680 C   0  0  0  0  0  2  0  0  0  0  0  0
  -29.4030  -12.5560   18.1510 C   0  0  0  0  0  2  0  0  0  0  0  0
  -27.9410  -12.3770   18.5990 C   0  0  0  0  0  2  0  0  0  0  0  0
  -27.5720  -13.2700   19.8130 C   0  0  0  0  0  3  0  0  0  0  0  0
  -28.6410  -13.1940   20.9250 C   0  0  0  0  0  2  0  0  0  0  0  0
  -29.9270  -13.5620   20.3220 N   0  0  0  0  0  0  0  0  0  0  0  0
  -31.7060  -14.9220   20.0030 O   0  0  0  0  0  0  0  0  0  0  0  0
  -29.7520  -15.9140   20.6280 N   0  0  0  0  0  0  0  0  0  0  0  0
  -28.7980  -15.6900   20.8680 H   0  0  0  0  0  0  0  0  0  0  0  0
  -25.1890  -13.8430   20.5690 C   0  0  0  0  0  0  0  0  0  0  0  0
  -24.1310  -13.0590   20.9460 C   0  0  0  0  0  0  0  0  0  0  0  0
  -24.6020  -11.7110   20.9000 C   0  0  0  0  0  0  0  0  0  0  0  0
  -26.2340  -12.9710   20.3160 N   0  0  0  0  0  0  0  0  0  0  0  0
  -25.8880  -11.6830   20.5770 N   0  0  0  0  0  0  0  0  0  0  0  0
  -23.8840  -10.4420   21.0860 C   0  0  0  0  0  0  0  0  0  0  0  0
  -24.3330   -9.4650   22.0010 C   0  0  0  0  0  3  0  0  0  0  0  0
  -23.6150   -8.2620   22.1770 C   0  0  0  0  0  3  0  0  0  0  0  0
  -22.4320   -8.0280   21.4350 C   0  0  0  0  0  0  0  0  0  0  0  0
  -22.0030   -8.9930   20.5080 C   0  0  0  0  0  3  0  0  0  0  0  0
  -22.7210  -10.1870   20.3320 C   0  0  0  0  0  3  0  0  0  0  0  0
  -21.6850   -6.8780   21.5210 O   0  0  0  0  0  0  0  0  0  0  0  0
  -21.6570   -6.1210   22.6640 C   0  0  0  0  0  0  0  0  0  0  0  0
  -21.2310   -6.6540   23.9000 C   0  0  0  0  0  3  0  0  0  0  0  0
  -21.1510   -5.8220   25.0350 C   0  0  0  0  0  3  0  0  0  0  0  0
  -21.4870   -4.4590   24.9350 C   0  0  0  0  0  0  0  0  0  0  0  0
  -21.9060   -3.9260   23.7030 C   0  0  0  0  0  3  0  0  0  0  0  0
  -21.9870   -4.7540   22.5710 C   0  0  0  0  0  0  0  0  0  0  0  0
  -22.3720   -4.2310   21.3820 F   0  0  0  0  0  0  0  0  0  0  0  0
  -21.4030   -3.6580   26.0220 F   0  0  0  0  0  0  0  0  0  0  0  0
  -22.7350  -13.5250   21.2350 C   0  0  0  0  0  0  0  0  0  0  0  0
  -22.0230  -12.8210   22.1080 N   0  0  0  0  0  0  0  0  0  0  0  0
  -22.2820  -14.5480   20.7220 O   0  0  0  0  0  0  0  0  0  0  0  0
  -22.4040  -11.9960   22.5460 H   0  0  0  0  0  0  0  0  0  0  0  0
  -21.0870  -13.1150   22.3480 H   0  0  0  0  0  0  0  0  0  0  0  0
  -25.3430  -15.2150   20.3980 N   0  0  0  0  0  0  0  0  0  0  0  0
  -24.5640  -15.8560   20.5080 H   0  0  0  0  0  0  0  0  0  0  0  0
  -26.1710  -15.6700   20.0230 H   0  0  0  0  0  0  0  0  0  0  0  0
  -28.4620  -19.1740   16.6100 C   0  0  0  0  0  1  0  0  0  0  0  0
  -30.2510  -20.7500   17.3830 C   0  0  0  0  0  1  0  0  0  0  0  0
  -29.4200  -19.5090   17.7710 C   0  0  0  0  0  3  0  0  0  0  0  0
  -26.1990  -22.2470   18.0110 C   0  0  0  0  0  3  0  0  0  0  0  0
  -27.1360  -22.2160   18.7950 C   0  0  0  0  0  0  0  0  0  0  0  0
  -27.8230  -17.2470   19.2240 O   0  0  0  0  0  0  0  0  0  0  0  0
  -28.2650  -17.0570   18.4040 H   0  0  0  0  0  0  0  0  0  0  0  0
  -27.8150  -24.8480   20.0360 C   0  0  0  0  0  2  0  0  0  0  0  0
  -28.1780  -26.2840   20.3920 O   0  0  0  0  0  0  0  0  0  0  0  0
  -24.6040  -31.9590   23.3110 C   0  0  0  0  0  0  0  0  0  0  0  0
  -27.1360  -27.2620   20.2920 C   0  0  0  0  0  0  0  0  0  0  0  0
  -23.3910  -30.5750   21.6750 C   0  0  0  0  0  3  0  0  0  0  0  0
  -24.8230  -28.9970   20.2570 C   0  0  0  0  0  0  0  0  0  0  0  0
  -25.9480  -30.8230   21.5160 C   0  0  0  0  0  2  0  0  0  0  0  0
  -26.0050  -29.4380   20.8650 C   0  0  0  0  0  0  0  0  0  0  0  0
  -27.1660  -28.5860   20.8690 C   0  0  0  0  0  3  0  0  0  0  0  0
  -25.9270  -26.9180   19.6370 C   0  0  0  0  0  3  0  0  0  0  0  0
  -24.7930  -27.7470   19.6290 C   0  0  0  0  0  3  0  0  0  0  0  0
  -23.6050  -29.9000   20.2960 C   0  0  0  0  0  2  0  0  0  0  0  0
  -24.6670  -31.1370   22.2230 N   0  0  0  0  0  0  0  0  0  0  0  0
  -23.5210  -32.2590   23.8360 O   0  0  0  0  0  0  0  0  0  0  0  0
  -22.7010  -29.5730   22.6330 C   0  0  0  0  0  0  0  0  0  0  0  0
  -21.3730  -29.4090   22.4930 N   0  0  0  0  0  0  0  0  0  0  0  0
  -23.3610  -28.9460   23.4660 O   0  0  0  0  0  0  0  0  0  0  0  0
  -20.8990  -29.9630   21.7930 H   0  0  0  0  0  0  0  0  0  0  0  0
  -17.9780  -28.2450   22.9650 C   0  0  0  0  0  0  0  0  0  0  0  0
  -20.5340  -28.4880   23.2630 C   0  0  0  0  0  3  0  0  0  0  0  0
  -20.6310  -27.0480   22.7070 C   0  0  0  0  0  2  0  0  0  0  0  0
  -19.5400  -26.7230   21.6820 C   0  0  0  0  0  2  0  0  0  0  0  0
  -18.1510  -26.8870   22.3060 C   0  0  0  0  0  2  0  0  0  0  0  0
  -19.0970  -29.0020   23.4010 C   0  0  0  0  0  0  0  0  0  0  0  0
  -18.8790  -30.2730   23.9800 C   0  0  0  0  0  3  0  0  0  0  0  0
  -17.5760  -30.7850   24.1240 C   0  0  0  0  0  3  0  0  0  0  0  0
  -16.4720  -30.0240   23.7030 C   0  0  0  0  0  3  0  0  0  0  0  0
  -16.6730  -28.7550   23.1300 C   0  0  0  0  0  3  0  0  0  0  0  0
  -25.8910  -32.5780   23.9380 C   0  0  0  0  0  3  0  0  0  0  0  0
  -26.3830  -31.8090   25.2250 C   0  0  1  0  0  0  0  0  0  0  0  0
  -25.2760  -31.6020   26.2850 C   0  0  0  0  0  1  0  0  0  0  0  0
  -26.9420  -30.4160   24.8540 C   0  0  0  0  0  1  0  0  0  0  0  0
  -27.5440  -32.5880   25.8870 C   0  0  0  0  0  1  0  0  0  0  0  0
  -25.5990  -33.9830   24.2590 N   0  0  0  0  0  0  0  0  0  0  0  0
  -25.9250  -35.0260   23.4830 C   0  0  0  0  0  0  0  0  0  0  0  0
  -26.5710  -34.9060   22.4390 O   0  0  0  0  0  0  0  0  0  0  0  0
  -25.0200  -34.1510   25.0680 H   0  0  0  0  0  0  0  0  0  0  0  0
  -24.1930  -36.8260   23.1690 C   0  0  0  0  0  1  0  0  0  0  0  0
  -25.4620  -36.4250   23.9380 C   0  0  0  0  0  3  0  0  0  0  0  0
  -27.6320  -37.3100   24.6720 C   0  0  0  0  0  1  0  0  0  0  0  0
  -26.4940  -37.4720   23.7720 N   0  0  0  0  0  0  0  0  0  0  0  0
  -26.0980  -38.3950   23.9260 H   0  0  0  0  0  0  0  0  0  0  0  0
  2  1  1  0
  3  5  2  0
  3  6  1  0
  4  7  1  0
  4  1  2  0
  5  4  1  0
  6  2  2  0
  7  8  1  0
  9 52  1  0
  9 11  1  0
  9  5  1  0
 10 20  1  0
 10  8  1  0
 11 55  1  0
 11 10  1  0
 12 20  1  0
 13 18  1  0
 14 15  1  0
 14 13  1  0
 16 15  1  0
 16 25  1  0
 16 17  1  0
 18 12  1  0
 18 17  1  0
 19 12  2  0
 20 21  1  0
 22 23  2  0
 23 42  1  0
 24 23  1  0
 24 27  1  0
 25 22  1  0
 25 26  1  0
 26 24  2  0
 27 28  1  0
 28 29  2  0
 30 33  1  0
 30 29  1  0
 31 30  2  0
 32 31  1  0
 32 27  2  0
 33 34  1  0
 34 35  1  0
 35 36  2  0
 37 36  1  0
 37 41  1  0
 38 37  2  0
 39 34  2  0
 39 38  1  0
 40 39  1  0
 42 43  1  0
 43 46  1  0
 43 45  1  0
 44 42  2  0
 47 48  1  0
 47 22  1  0
 49 47  1  0
 50 52  1  0
 51 52  1  0
 53 54  3  0
 54  3  1  0
 56 55  1  0
 57  6  1  0
 57 58  1  0
 59 70  2  0
 60 58  1  0
 60 65  1  0
 61 69  1  0
 61 71  1  0
 62 68  1  0
 62 64  1  0
 63 69  1  0
 64 65  2  0
 64 63  1  0
 66 60  2  0
 67 66  1  0
 67 62  2  0
 68 61  1  0
 69 59  1  0
 71 73  2  0
 72 71  1  0
 74 72  1  0
 75 84  2  0
 75 80  1  0
 76 72  1  0
 76 80  1  0
 77 76  1  0
 78 79  1  0
 78 77  1  0
 79 75  1  0
 80 81  2  0
 81 82  1  0
 83 82  2  0
 84 83  1  0
 85 59  1  0
 85 90  1  0
 85 86  1  0
 86 89  1  1
 86 87  1  0
 88 86  1  0
 90 93  1  0
 91 95  1  0
 91 90  1  0
 92 91  2  0
 95 94  1  0
 97 98  1  0
 97 95  1  0
 97 96  1  0
M  ISO  4  12 100  20 100  57 101  58 101
M  END
>  <TORSDO>  (86) 
F 20

>  <SCORE>  (86) 
-14.753

>  <name>  (86) 
85

>  <ligand_id>  (86) 
85

>  <original_smiles>  (86) 
[H]C#Cc1c(C([H])([H])Oc2c([H])c([H])c3c(c2[H])C([H])([H])N(C(=O)C([H])(N([H])C(=O)C([H])(N([H])C([H])([H])[H])C([H])([H])[H])C(C([H])([H])[H])(C([H])([H])[H])C([H])([H])[H])C([H])(C(=O)N([H])C2([H])c4c([H])c([H])c([H])c([H])c4C([H])([H])C([H])([H])C2([H])[H])C3([H])[H])c([H])c([H])c2c1C([H])(C([H])(C([H])([H])[H])C([H])([H])[H])C([H])(O[H])C([H])(N([H])C(=O)N1C([H])([H])C([H])([H])C([H])([H])C([H])(n3nc(-c4c([H])c([H])c(Oc5c([H])c([H])c(F)c([H])c5F)c([H])c4[H])c(C(=O)N([H])[H])c3N([H])[H])C1([H])[H])C([H])([H])C2([H])[H]

>  <smiles>  (86) 
[H]C#Cc1c(C([H])([H])Oc2c([H])c([H])c3c(c2[H])C([H])([H])N(C(=O)C([H])(N([H])C(=O)C([H])(N([H])C([H])([H])[H])C([H])([H])[H])C(C([H])([H])[H])(C([H])([H])[H])C([H])([H])[H])C([H])(C(=O)N([H])C2([H])c4c([H])c([H])c([H])c([H])c4C([H])([H])C([H])([H])C2([H])[H])C3([H])[H])c([H])c([H])c2c1C([H])(C([H])(C([H])([H])[H])C([H])([H])[H])C([H])(O[H])C([H])(N([H])C(=O)N1C([H])([H])C([H])([H])C([H])([H])C([H])(n3nc(-c4c([H])c([H])c(Oc5c([H])c([H])c(F)c([H])c5F)c([H])c4[H])c(C(=O)N([H])[H])c3N([H])[H])C1([H])[H])C([H])([H])C2([H])[H]

$$$$
86:0:0
     RDKit          3D

 99108  0  0  1  0  0  0  0  0999 V2000
  -27.4590  -21.9770   18.7090 C   0  0  0  0  0  3  0  0  0  0  0  0
  -26.8580  -20.7380   18.4520 C   0  0  0  0  0  0  0  0  0  0  0  0
  -25.5410  -20.6650   17.9630 C   0  0  0  0  0  0  0  0  0  0  0  0
  -24.8610  -21.8510   17.5740 C   0  0  0  0  0  0  0  0  0  0  0  0
  -25.5080  -23.1040   17.7720 C   0  0  0  0  0  0  0  0  0  0  0  0
  -26.7660  -23.1640   18.4260 C   0  0  0  0  0  0  0  0  0  0  0  0
  -24.9640  -19.2530   17.9190 C   0  0  0  0  0  2  0  0  0  0  0  0
  -27.5970  -19.4460   18.7430 C   0  0  0  0  0  2  0  0  0  0  0  0
  -25.3360  -18.4630   19.2030 C   0  0  0  0  0  2  0  0  0  0  0  0
  -23.4680  -21.8190   16.9460 C   0  0  0  0  0  1  0  0  0  0  0  0
  -24.8620  -24.4030   17.3130 C   0  0  0  0  0  1  0  0  0  0  0  0
  -26.7760  -18.5510   19.6010 N   0  0  1  0  0  4  0  0  0  0  0  0
  -26.7460  -19.0500   20.4770 H   0  0  0  0  0  0  0  0  0  0  0  0
  -27.3900  -17.2260   19.9150 C   0  0  0  0  0  2  0  0  0  0  0  0
  -28.9350  -17.1970   19.7970 C   0  0  0  0  0  2  0  0  0  0  0  0
  -30.4960  -17.0780   21.8190 C   0  0  0  0  0  1  0  0  0  0  0  0
  -29.6440  -16.2810   20.8100 C   0  0  0  0  0  3  0  0  0  0  0  0
  -31.2470  -14.3290   20.4500 C   0  0  0  0  0  0  0  0  0  0  0  0
  -31.1460  -11.8750   20.3850 C   0  0  0  0  0  2  0  0  0  0  0  0
  -30.3760  -11.4430   19.1190 C   0  0  0  0  0  2  0  0  0  0  0  0
  -28.8540  -11.4160   19.3720 C   0  0  0  0  0  2  0  0  0  0  0  0
  -28.3350  -12.7060   20.0620 C   0  0  0  0  0  3  0  0  0  0  0  0
  -29.2270  -13.0300   21.2810 C   0  0  0  0  0  2  0  0  0  0  0  0
  -30.6060  -13.1790   20.7940 N   0  0  0  0  0  0  0  0  0  0  0  0
  -32.4280  -14.3530   20.0990 O   0  0  0  0  0  0  0  0  0  0  0  0
  -30.4820  -15.3520   20.0460 N   0  0  0  0  0  0  0  0  0  0  0  0
  -30.9740  -15.8370   19.3090 H   0  0  0  0  0  0  0  0  0  0  0  0
  -25.9590  -13.5720   20.5430 C   0  0  0  0  0  0  0  0  0  0  0  0
  -24.7930  -12.9200   20.8400 C   0  0  0  0  0  0  0  0  0  0  0  0
  -25.1190  -11.5290   20.8860 C   0  0  0  0  0  0  0  0  0  0  0  0
  -26.9250  -12.5870   20.4290 N   0  0  0  0  0  0  0  0  0  0  0  0
  -26.4180  -11.3550   20.6880 N   0  0  0  0  0  0  0  0  0  0  0  0
  -24.2620  -10.3490   21.0530 C   0  0  0  0  0  0  0  0  0  0  0  0
  -24.5060   -9.3940   22.0640 C   0  0  0  0  0  3  0  0  0  0  0  0
  -23.6560   -8.2790   22.2170 C   0  0  0  0  0  3  0  0  0  0  0  0
  -22.5470   -8.1080   21.3560 C   0  0  0  0  0  0  0  0  0  0  0  0
  -22.3230   -9.0470   20.3360 C   0  0  0  0  0  3  0  0  0  0  0  0
  -23.1730  -10.1540   20.1810 C   0  0  0  0  0  3  0  0  0  0  0  0
  -21.6860   -7.0380   21.4120 O   0  0  0  0  0  0  0  0  0  0  0  0
  -21.4630   -6.3520   22.5780 C   0  0  0  0  0  0  0  0  0  0  0  0
  -20.9610   -6.9900   23.7330 C   0  0  0  0  0  3  0  0  0  0  0  0
  -20.6820   -6.2350   24.8890 C   0  0  0  0  0  3  0  0  0  0  0  0
  -20.8950   -4.8430   24.8900 C   0  0  0  0  0  0  0  0  0  0  0  0
  -21.3940   -4.2060   23.7400 C   0  0  0  0  0  3  0  0  0  0  0  0
  -21.6730   -4.9590   22.5860 C   0  0  0  0  0  0  0  0  0  0  0  0
  -22.1310   -4.3360   21.4720 F   0  0  0  0  0  0  0  0  0  0  0  0
  -20.6210   -4.1160   25.9970 F   0  0  0  0  0  0  0  0  0  0  0  0
  -23.4330  -13.5360   20.9810 C   0  0  0  0  0  0  0  0  0  0  0  0
  -22.5800  -12.9540   21.8170 N   0  0  0  0  0  0  0  0  0  0  0  0
  -23.1370  -14.5720   20.3860 O   0  0  0  0  0  0  0  0  0  0  0  0
  -22.8320  -12.1130   22.3180 H   0  0  0  0  0  0  0  0  0  0  0  0
  -21.6610  -13.3510   21.9510 H   0  0  0  0  0  0  0  0  0  0  0  0
  -26.2740  -14.9130   20.3410 N   0  0  0  0  0  0  0  0  0  0  0  0
  -25.5440  -15.6150   20.2740 H   0  0  0  0  0  0  0  0  0  0  0  0
  -27.1620  -15.2200   19.9700 H   0  0  0  0  0  0  0  0  0  0  0  0
  -27.3020  -24.3820   18.7600 O   0  0  0  0  0  0  0  0  0  0  0  0
  -28.1810  -24.4060   19.8880 C   0  0  0  0  0  2  0  0  0  0  0  0
  -29.0230  -25.6970   19.9060 C   0  0  0  0  0  2  0  0  0  0  0  0
  -28.6400  -26.6360   20.9170 O   0  0  0  0  0  0  0  0  0  0  0  0
  -24.7070  -31.9890   23.4600 C   0  0  0  0  0  0  0  0  0  0  0  0
  -27.4550  -27.3330   20.7980 C   0  0  0  0  0  0  0  0  0  0  0  0
  -23.5880  -30.4920   21.8660 C   0  0  0  0  0  3  0  0  0  0  0  0
  -25.0750  -28.8550   20.6130 C   0  0  0  0  0  0  0  0  0  0  0  0
  -26.1150  -30.8060   21.7780 C   0  0  0  0  0  2  0  0  0  0  0  0
  -26.2040  -29.3940   21.2410 C   0  0  0  0  0  0  0  0  0  0  0  0
  -27.3860  -28.6270   21.3590 C   0  0  0  0  0  3  0  0  0  0  0  0
  -26.3190  -26.8340   20.1260 C   0  0  0  0  0  3  0  0  0  0  0  0
  -25.1250  -27.5700   20.0570 C   0  0  0  0  0  3  0  0  0  0  0  0
  -23.8430  -29.7210   20.5440 C   0  0  0  0  0  2  0  0  0  0  0  0
  -24.8220  -31.1140   22.4250 N   0  0  0  0  0  0  0  0  0  0  0  0
  -23.5990  -32.3080   23.9160 O   0  0  0  0  0  0  0  0  0  0  0  0
  -22.8770  -29.5510   22.8610 C   0  0  0  0  0  0  0  0  0  0  0  0
  -21.5790  -29.4300   22.6190 N   0  0  0  0  0  0  0  0  0  0  0  0
  -23.4780  -28.9480   23.7520 O   0  0  0  0  0  0  0  0  0  0  0  0
  -21.2330  -30.0620   21.9090 H   0  0  0  0  0  0  0  0  0  0  0  0
  -18.1330  -28.0440   23.0070 C   0  0  0  0  0  0  0  0  0  0  0  0
  -20.6120  -28.4380   23.0110 C   0  0  0  0  0  3  0  0  0  0  0  0
  -20.8690  -26.9350   22.8560 C   0  0  0  0  0  2  0  0  0  0  0  0
  -19.7870  -26.3510   21.9220 C   0  0  0  0  0  2  0  0  0  0  0  0
  -18.3560  -26.6430   22.4290 C   0  0  0  0  0  2  0  0  0  0  0  0
  -19.2180  -28.8680   23.3940 C   0  0  0  0  0  0  0  0  0  0  0  0
  -18.9840  -30.1480   23.9370 C   0  0  0  0  0  3  0  0  0  0  0  0
  -17.6660  -30.6300   24.0500 C   0  0  0  0  0  3  0  0  0  0  0  0
  -16.5880  -29.8260   23.6400 C   0  0  0  0  0  3  0  0  0  0  0  0
  -16.8200  -28.5330   23.1380 C   0  0  0  0  0  3  0  0  0  0  0  0
  -25.9630  -32.6450   24.1060 C   0  0  0  0  0  3  0  0  0  0  0  0
  -25.6390  -34.0540   24.3580 N   0  0  0  0  0  0  0  0  0  0  0  0
  -25.9800  -35.0650   23.5480 C   0  0  0  0  0  0  0  0  0  0  0  0
  -26.6740  -34.9090   22.5400 O   0  0  0  0  0  0  0  0  0  0  0  0
  -25.0250  -34.2460   25.1370 H   0  0  0  0  0  0  0  0  0  0  0  0
  -24.2400  -36.8140   23.0660 C   0  0  0  0  0  1  0  0  0  0  0  0
  -25.4720  -36.4710   23.9190 C   0  0  0  0  0  3  0  0  0  0  0  0
  -27.5940  -37.4090   24.7240 C   0  0  0  0  0  1  0  0  0  0  0  0
  -26.4990  -37.5240   23.7630 N   0  0  0  0  0  0  0  0  0  0  0  0
  -26.0870  -38.4470   23.8580 H   0  0  0  0  0  0  0  0  0  0  0  0
  -26.4210  -31.9250   25.4320 C   0  0  1  0  0  0  0  0  0  0  0  0
  -25.2700  -31.6750   26.4350 C   0  0  0  0  0  1  0  0  0  0  0  0
  -27.0760  -30.5600   25.1160 C   0  0  0  0  0  1  0  0  0  0  0  0
  -27.4990  -32.7780   26.1380 C   0  0  0  0  0  1  0  0  0  0  0  0
  2  1  1  0
  2  8  1  0
  3  2  2  0
  4  5  2  0
  4  3  1  0
  5  6  1  0
  6  1  2  0
  6 56  1  0
  7  3  1  0
  7  9  1  0
  8 12  1  0
  9 12  1  0
 10  4  1  0
 11  5  1  0
 12 14  1  0
 12 13  1  1
 15 14  1  0
 15 17  1  0
 17 16  1  0
 18 24  1  0
 19 24  1  0
 20 21  1  0
 20 19  1  0
 22 21  1  0
 22 31  1  0
 22 23  1  0
 24 23  1  0
 25 18  2  0
 26 18  1  0
 26 17  1  0
 27 26  1  0
 28 29  2  0
 29 30  1  0
 29 48  1  0
 30 33  1  0
 31 28  1  0
 31 32  1  0
 32 30  2  0
 33 34  1  0
 34 35  2  0
 36 39  1  0
 36 35  1  0
 37 36  2  0
 38 37  1  0
 38 33  2  0
 39 40  1  0
 40 45  2  0
 40 41  1  0
 41 42  2  0
 42 43  1  0
 43 47  1  0
 44 43  2  0
 45 44  1  0
 46 45  1  0
 48 49  1  0
 49 52  1  0
 49 51  1  0
 50 48  2  0
 53 28  1  0
 54 53  1  0
 55 53  1  0
 56 57  1  0
 57 58  1  0
 58 59  1  0
 60 71  2  0
 61 59  1  0
 61 66  1  0
 62 70  1  0
 62 72  1  0
 63 65  1  0
 64 70  1  0
 65 66  2  0
 65 64  1  0
 67 61  2  0
 68 67  1  0
 68 63  2  0
 69 63  1  0
 69 62  1  0
 70 60  1  0
 72 74  2  0
 73 72  1  0
 75 73  1  0
 76 85  2  0
 76 81  1  0
 77 73  1  0
 77 81  1  0
 78 77  1  0
 79 80  1  0
 79 78  1  0
 80 76  1  0
 81 82  2  0
 82 83  1  0
 84 83  2  0
 85 84  1  0
 86 60  1  0
 86 87  1  0
 86 96  1  0
 87 90  1  0
 88 92  1  0
 88 87  1  0
 89 88  2  0
 92 91  1  0
 94 95  1  0
 94 92  1  0
 94 93  1  0
 96 99  1  1
 96 97  1  0
 98 96  1  0
M  ISO  4  18 100  26 100  58 101  59 101
M  END
>  <TORSDO>  (87) 
F 22

>  <SCORE>  (87) 
-11.348

>  <name>  (87) 
86

>  <ligand_id>  (87) 
86

>  <original_smiles>  (87) 
[H]c1c([H])c([H])c2c(c1[H])C([H])([H])C([H])([H])C([H])([H])C2([H])N([H])C(=O)C1([H])N(C(=O)C([H])(N([H])C(=O)C([H])(N([H])C([H])([H])[H])C([H])([H])[H])C(C([H])([H])[H])(C([H])([H])[H])C([H])([H])[H])C([H])([H])c2c([H])c(OC([H])([H])C([H])([H])Oc3c([H])c4c(c(C([H])([H])[H])c3C([H])([H])[H])C([H])([H])C([H])([H])[N+]([H])(C([H])([H])C([H])([H])C([H])(N([H])C(=O)N3C([H])([H])C([H])([H])C([H])([H])C([H])(n5nc(-c6c([H])c([H])c(Oc7c([H])c([H])c(F)c([H])c7F)c([H])c6[H])c(C(=O)N([H])[H])c5N([H])[H])C3([H])[H])C([H])([H])[H])C4([H])[H])c([H])c([H])c2C1([H])[H]

>  <smiles>  (87) 
[H]c1c([H])c([H])c2c(c1[H])C([H])([H])C([H])([H])C([H])([H])C2([H])N([H])C(=O)C1([H])N(C(=O)C([H])(N([H])C(=O)C([H])(N([H])C([H])([H])[H])C([H])([H])[H])C(C([H])([H])[H])(C([H])([H])[H])C([H])([H])[H])C([H])([H])c2c([H])c(OC([H])([H])C([H])([H])Oc3c([H])c4c(c(C([H])([H])[H])c3C([H])([H])[H])C([H])([H])C([H])([H])[N+]([H])(C([H])([H])C([H])([H])C([H])(N([H])C(=O)N3C([H])([H])C([H])([H])C([H])([H])C([H])(n5nc(-c6c([H])c([H])c(Oc7c([H])c([H])c(F)c([H])c7F)c([H])c6[H])c(C(=O)N([H])[H])c5N([H])[H])C3([H])[H])C([H])([H])[H])C4([H])[H])c([H])c([H])c2C1([H])[H]

$$$$
87:0:0
     RDKit          3D

102112  0  0  1  0  0  0  0  0999 V2000
  -29.9050  -18.8480   18.1480 C   0  0  0  0  0  3  0  0  0  0  0  0
  -29.6730  -20.2530   17.9810 C   0  0  0  0  0  3  0  0  0  0  0  0
  -29.1970  -20.5210   20.3310 C   0  0  0  0  0  3  0  0  0  0  0  0
  -29.7920  -18.2610   19.4270 C   0  0  0  0  0  0  0  0  0  0  0  0
  -29.4230  -19.1130   20.4810 C   0  0  0  0  0  0  0  0  0  0  0  0
  -29.3350  -21.1400   19.0540 C   0  0  0  0  0  0  0  0  0  0  0  0
  -29.3850  -18.3460   21.7760 C   0  0  0  0  0  2  0  0  0  0  0  0
  -30.2210  -16.8300   19.9060 C   0  0  0  0  0  3  0  0  0  0  0  0
  -29.9050  -16.9100   21.4470 C   0  0  0  0  0  3  0  0  0  0  0  0
  -30.3020  -14.5220   18.6860 C   0  0  0  0  0  0  0  0  0  0  0  0
  -29.7560  -12.3900   17.5090 C   0  0  0  0  0  2  0  0  0  0  0  0
  -28.5140  -12.6010   16.6160 C   0  0  0  0  0  2  0  0  0  0  0  0
  -27.2140  -12.4140   17.4260 C   0  0  0  0  0  2  0  0  0  0  0  0
  -27.2280  -13.1890   18.7690 C   0  0  0  0  0  3  0  0  0  0  0  0
  -28.5400  -12.9370   19.5320 C   0  0  0  0  0  2  0  0  0  0  0  0
  -29.6400  -13.3260   18.6420 N   0  0  0  0  0  0  0  0  0  0  0  0
  -31.3540  -14.6910   18.0650 O   0  0  0  0  0  0  0  0  0  0  0  0
  -29.6580  -15.5580   19.3250 N   0  0  0  0  0  0  0  0  0  0  0  0
  -28.7310  -15.3280   19.6480 H   0  0  0  0  0  0  0  0  0  0  0  0
  -25.1530  -13.7640   20.1700 C   0  0  0  0  0  0  0  0  0  0  0  0
  -24.1980  -12.9780   20.7570 C   0  0  0  0  0  0  0  0  0  0  0  0
  -24.5790  -11.6280   20.4890 C   0  0  0  0  0  0  0  0  0  0  0  0
  -26.0560  -12.8900   19.5850 N   0  0  0  0  0  0  0  0  0  0  0  0
  -25.7340  -11.5960   19.8350 N   0  0  0  0  0  0  0  0  0  0  0  0
  -23.8830  -10.3650   20.7680 C   0  0  0  0  0  0  0  0  0  0  0  0
  -24.4070   -9.4220   21.6780 C   0  0  0  0  0  3  0  0  0  0  0  0
  -23.7100   -8.2240   21.9470 C   0  0  0  0  0  3  0  0  0  0  0  0
  -22.4760   -7.9610   21.3040 C   0  0  0  0  0  0  0  0  0  0  0  0
  -21.9700   -8.8940   20.3830 C   0  0  0  0  0  3  0  0  0  0  0  0
  -22.6680  -10.0830   20.1130 C   0  0  0  0  0  3  0  0  0  0  0  0
  -21.7420   -6.8140   21.4800 O   0  0  0  0  0  0  0  0  0  0  0  0
  -21.6610   -6.1930   22.7000 C   0  0  0  0  0  0  0  0  0  0  0  0
  -21.1440   -6.8510   23.8380 C   0  0  0  0  0  3  0  0  0  0  0  0
  -21.0120   -6.1540   25.0550 C   0  0  0  0  0  3  0  0  0  0  0  0
  -21.3870   -4.7990   25.1350 C   0  0  0  0  0  0  0  0  0  0  0  0
  -21.8970   -4.1400   24.0030 C   0  0  0  0  0  3  0  0  0  0  0  0
  -22.0290   -4.8360   22.7880 C   0  0  0  0  0  0  0  0  0  0  0  0
  -22.4980   -4.1910   21.6940 F   0  0  0  0  0  0  0  0  0  0  0  0
  -21.2560   -4.1260   26.3020 F   0  0  0  0  0  0  0  0  0  0  0  0
  -22.9490  -13.4510   21.4430 C   0  0  0  0  0  0  0  0  0  0  0  0
  -22.4850  -12.7100   22.4440 N   0  0  0  0  0  0  0  0  0  0  0  0
  -22.4050  -14.5050   21.1220 O   0  0  0  0  0  0  0  0  0  0  0  0
  -22.9420  -11.8510   22.7160 H   0  0  0  0  0  0  0  0  0  0  0  0
  -21.6620  -13.0060   22.9500 H   0  0  0  0  0  0  0  0  0  0  0  0
  -25.3160  -15.1440   20.0600 N   0  0  0  0  0  0  0  0  0  0  0  0
  -24.6320  -15.7930   20.4320 H   0  0  0  0  0  0  0  0  0  0  0  0
  -26.0240  -15.5990   19.5010 H   0  0  0  0  0  0  0  0  0  0  0  0
  -31.0060  -16.4570   22.4560 C   0  0  0  0  0  3  0  0  0  0  0  0
  -31.6480  -18.7660   22.9470 C   0  0  0  0  0  1  0  0  0  0  0  0
  -31.3990  -17.4480   23.4110 O   0  0  0  0  0  0  0  0  0  0  0  0
  -32.2440  -15.7250   21.8700 C   0  0  0  0  0  2  0  0  0  0  0  0
  -31.8730  -11.4530   20.9790 C   0  0  0  0  0  3  0  0  0  0  0  0
  -30.8550  -12.1150   21.6830 C   0  0  0  0  0  3  0  0  0  0  0  0
  -33.0090  -12.1680   20.5630 C   0  0  0  0  0  3  0  0  0  0  0  0
  -30.9740  -13.4880   21.9680 C   0  0  0  0  0  3  0  0  0  0  0  0
  -33.1340  -13.5470   20.8390 C   0  0  0  0  0  0  0  0  0  0  0  0
  -32.1010  -14.2310   21.5380 C   0  0  0  0  0  0  0  0  0  0  0  0
  -34.4080  -14.2480   20.3970 C   0  0  0  0  0  1  0  0  0  0  0  0
  -29.1740  -22.5140   18.7420 O   0  0  0  0  0  0  0  0  0  0  0  0
  -28.9380  -23.6250   19.6870 C   0  0  0  0  0  2  0  0  0  0  0  0
  -28.6410  -25.0120   18.9250 C   0  0  0  0  0  2  0  0  0  0  0  0
  -28.5080  -26.3390   19.5940 O   0  0  0  0  0  0  0  0  0  0  0  0
  -24.6630  -31.4340   22.9260 C   0  0  0  0  0  0  0  0  0  0  0  0
  -27.3320  -27.1140   19.5860 C   0  0  0  0  0  0  0  0  0  0  0  0
  -23.4510  -30.0580   21.2750 C   0  0  0  0  0  3  0  0  0  0  0  0
  -24.9020  -28.6350   19.7220 C   0  0  0  0  0  0  0  0  0  0  0  0
  -25.9660  -30.4950   21.0020 C   0  0  0  0  0  2  0  0  0  0  0  0
  -26.0730  -29.1490   20.2930 C   0  0  0  0  0  0  0  0  0  0  0  0
  -27.2850  -28.4030   20.2090 C   0  0  0  0  0  3  0  0  0  0  0  0
  -26.1270  -26.6460   19.0060 C   0  0  0  0  0  3  0  0  0  0  0  0
  -24.9350  -27.3940   19.0650 C   0  0  0  0  0  3  0  0  0  0  0  0
  -23.6330  -29.4530   19.8580 C   0  0  0  0  0  2  0  0  0  0  0  0
  -24.7150  -30.6780   21.7900 N   0  0  0  0  0  0  0  0  0  0  0  0
  -23.5930  -31.6400   23.5160 O   0  0  0  0  0  0  0  0  0  0  0  0
  -22.8730  -28.9720   22.2150 C   0  0  0  0  0  0  0  0  0  0  0  0
  -21.5720  -28.6730   22.0660 N   0  0  0  0  0  0  0  0  0  0  0  0
  -23.5950  -28.4030   23.0370 O   0  0  0  0  0  0  0  0  0  0  0  0
  -21.0470  -29.1880   21.3740 H   0  0  0  0  0  0  0  0  0  0  0  0
  -18.2980  -27.2070   22.5450 C   0  0  0  0  0  0  0  0  0  0  0  0
  -20.8300  -27.6570   22.8150 C   0  0  0  0  0  3  0  0  0  0  0  0
  -21.0400  -26.2530   22.2030 C   0  0  0  0  0  2  0  0  0  0  0  0
  -19.9600  -25.8710   21.1850 C   0  0  0  0  0  2  0  0  0  0  0  0
  -18.5730  -25.8940   21.8350 C   0  0  0  0  0  2  0  0  0  0  0  0
  -19.3560  -28.0420   22.9920 C   0  0  0  0  0  0  0  0  0  0  0  0
  -19.0420  -29.2680   23.6180 C   0  0  0  0  0  3  0  0  0  0  0  0
  -17.7040  -29.6630   23.7990 C   0  0  0  0  0  3  0  0  0  0  0  0
  -16.6600  -28.8260   23.3690 C   0  0  0  0  0  3  0  0  0  0  0  0
  -16.9580  -27.5990   22.7480 C   0  0  0  0  0  3  0  0  0  0  0  0
  -25.9430  -32.0950   23.5260 C   0  0  0  0  0  3  0  0  0  0  0  0
  -25.5770  -33.4500   23.9660 N   0  0  0  0  0  0  0  0  0  0  0  0
  -25.8880  -34.5740   23.3090 C   0  0  0  0  0  0  0  0  0  0  0  0
  -26.5840  -34.5810   22.2890 O   0  0  0  0  0  0  0  0  0  0  0  0
  -24.9640  -33.5130   24.7640 H   0  0  0  0  0  0  0  0  0  0  0  0
  -24.1460  -36.3670   23.0270 C   0  0  0  0  0  1  0  0  0  0  0  0
  -25.3440  -35.9020   23.8710 C   0  0  0  0  0  3  0  0  0  0  0  0
  -27.4050  -36.7340   24.9170 C   0  0  0  0  0  1  0  0  0  0  0  0
  -26.3580  -36.9790   23.9280 N   0  0  0  0  0  0  0  0  0  0  0  0
  -25.9230  -37.8730   24.1390 H   0  0  0  0  0  0  0  0  0  0  0  0
  -26.5640  -31.2730   24.7220 C   0  0  1  0  0  0  0  0  0  0  0  0
  -25.5300  -30.8550   25.7930 C   0  0  0  0  0  1  0  0  0  0  0  0
  -27.2520  -29.9880   24.2040 C   0  0  0  0  0  1  0  0  0  0  0  0
  -27.6610  -32.1130   25.4170 C   0  0  0  0  0  1  0  0  0  0  0  0
  1  4  1  0
  2  1  2  0
  2  6  1  0
  3  5  1  0
  4  8  1  0
  4  5  2  0
  5  7  1  0
  6  3  2  0
  8 18  1  0
  8  9  1  0
  9  7  1  0
  9 48  1  0
 10 18  1  0
 11 16  1  0
 12 13  1  0
 12 11  1  0
 14 13  1  0
 14 15  1  0
 14 23  1  0
 16 10  1  0
 16 15  1  0
 17 10  2  0
 18 19  1  0
 20 21  2  0
 21 40  1  0
 22 21  1  0
 22 25  1  0
 23 24  1  0
 23 20  1  0
 24 22  2  0
 25 26  1  0
 26 27  2  0
 28 31  1  0
 28 27  1  0
 29 28  2  0
 30 29  1  0
 30 25  2  0
 31 32  1  0
 32 37  2  0
 32 33  1  0
 33 34  2  0
 34 35  1  0
 35 39  1  0
 36 35  2  0
 37 36  1  0
 38 37  1  0
 40 41  1  0
 41 43  1  0
 41 44  1  0
 42 40  2  0
 45 20  1  0
 45 46  1  0
 47 45  1  0
 48 51  1  0
 48 50  1  0
 49 50  1  0
 52 53  1  0
 53 55  2  0
 54 56  1  0
 54 52  2  0
 56 57  2  0
 57 51  1  0
 57 55  1  0
 58 56  1  0
 59  6  1  0
 59 60  1  0
 61 62  1  0
 61 60  1  0
 63 74  2  0
 64 62  1  0
 64 69  1  0
 65 73  1  0
 65 75  1  0
 66 72  1  0
 66 68  1  0
 67 73  1  0
 68 67  1  0
 69 68  2  0
 70 71  1  0
 70 64  2  0
 71 66  2  0
 72 65  1  0
 73 63  1  0
 75 77  2  0
 76 75  1  0
 78 76  1  0
 79 88  2  0
 79 84  1  0
 80 76  1  0
 80 84  1  0
 81 80  1  0
 82 83  1  0
 82 81  1  0
 83 79  1  0
 84 85  2  0
 85 86  1  0
 87 86  2  0
 88 87  1  0
 89 63  1  0
 89 90  1  0
 89 99  1  0
 90 93  1  0
 91 95  1  0
 91 90  1  0
 92 91  2  0
 95 94  1  0
 95 97  1  0
 97 98  1  0
 97 96  1  0
 99102  1  1
 99100  1  0
101 99  1  0
M  ISO  4  10 100  18 100  61 101  62 101
M  END
>  <TORSDO>  (88) 
F 23

>  <SCORE>  (88) 
-4.419

>  <name>  (88) 
87

>  <ligand_id>  (88) 
87

>  <original_smiles>  (88) 
[H]c1c([H])c([H])c(C([H])([H])C([H])(OC([H])([H])[H])C2([H])C([H])([H])c3c([H])c(OC([H])([H])C([H])([H])Oc4c([H])c([H])c5c(c4[H])C([H])([H])N(C(=O)C([H])(N([H])C(=O)C([H])(N([H])C([H])([H])[H])C([H])([H])[H])C(C([H])([H])[H])(C([H])([H])[H])C([H])([H])[H])C([H])(C(=O)N([H])C4([H])c6c([H])c([H])c([H])c([H])c6C([H])([H])C([H])([H])C4([H])[H])C5([H])[H])c([H])c([H])c3C2([H])N([H])C(=O)N2C([H])([H])C([H])([H])C([H])([H])C([H])(n3nc(-c4c([H])c([H])c(Oc5c([H])c([H])c(F)c([H])c5F)c([H])c4[H])c(C(=O)N([H])[H])c3N([H])[H])C2([H])[H])c(C([H])([H])[H])c1[H]

>  <smiles>  (88) 
[H]c1c([H])c([H])c(C([H])([H])C([H])(OC([H])([H])[H])C2([H])C([H])([H])c3c([H])c(OC([H])([H])C([H])([H])Oc4c([H])c([H])c5c(c4[H])C([H])([H])N(C(=O)C([H])(N([H])C(=O)C([H])(N([H])C([H])([H])[H])C([H])([H])[H])C(C([H])([H])[H])(C([H])([H])[H])C([H])([H])[H])C([H])(C(=O)N([H])C4([H])c6c([H])c([H])c([H])c([H])c6C([H])([H])C([H])([H])C4([H])[H])C5([H])[H])c([H])c([H])c3C2([H])N([H])C(=O)N2C([H])([H])C([H])([H])C([H])([H])C([H])(n3nc(-c4c([H])c([H])c(Oc5c([H])c([H])c(F)c([H])c5F)c([H])c4[H])c(C(=O)N([H])[H])c3N([H])[H])C2([H])[H])c(C([H])([H])[H])c1[H]

$$$$
88:0:0
     RDKit          3D

 94103  0  0  1  0  0  0  0  0999 V2000
  -28.7170  -22.1210   19.4560 C   0  0  0  0  0  3  0  0  0  0  0  0
  -28.6520  -20.7070   19.4660 C   0  0  0  0  0  3  0  0  0  0  0  0
  -29.8010  -20.6660   21.5850 C   0  0  0  0  0  3  0  0  0  0  0  0
  -29.3330  -22.8370   20.5080 C   0  0  0  0  0  0  0  0  0  0  0  0
  -29.2230  -19.9390   20.5120 C   0  0  0  0  0  0  0  0  0  0  0  0
  -29.8600  -22.0930   21.5990 C   0  0  0  0  0  0  0  0  0  0  0  0
  -30.6820  -14.5050   20.0530 C   0  0  0  0  0  0  0  0  0  0  0  0
  -30.3400  -12.3450   18.9160 C   0  0  0  0  0  2  0  0  0  0  0  0
  -29.3260  -12.5560   17.7720 C   0  0  0  0  0  2  0  0  0  0  0  0
  -27.8820  -12.4020   18.2900 C   0  0  0  0  0  2  0  0  0  0  0  0
  -27.6140  -13.2100   19.5890 C   0  0  0  0  0  3  0  0  0  0  0  0
  -28.7410  -12.9920   20.6250 C   0  0  0  0  0  2  0  0  0  0  0  0
  -30.0140  -13.3210   19.9710 N   0  0  0  0  0  0  0  0  0  0  0  0
  -31.8330  -14.6300   19.6180 O   0  0  0  0  0  0  0  0  0  0  0  0
  -28.9760  -17.7880   19.2310 C   0  0  0  0  0  2  0  0  0  0  0  0
  -29.7810  -17.7130   21.5870 C   0  0  0  0  0  2  0  0  0  0  0  0
  -29.9460  -16.5990   19.0550 C   0  0  0  0  0  2  0  0  0  0  0  0
  -29.4880  -16.1860   21.4560 C   0  0  0  0  0  2  0  0  0  0  0  0
  -29.2220  -18.5090   20.4830 N   0  0  0  0  0  0  0  0  0  0  0  0
  -29.8930  -15.6130   20.1540 N   0  0  0  0  0  0  0  0  0  0  0  0
  -25.2650  -13.7780   20.4640 C   0  0  0  0  0  0  0  0  0  0  0  0
  -24.2250  -12.9860   20.8730 C   0  0  0  0  0  0  0  0  0  0  0  0
  -24.6920  -11.6400   20.7760 C   0  0  0  0  0  0  0  0  0  0  0  0
  -26.2980  -12.9100   20.1450 N   0  0  0  0  0  0  0  0  0  0  0  0
  -25.9610  -11.6190   20.3900 N   0  0  0  0  0  0  0  0  0  0  0  0
  -23.9850  -10.3660   20.9730 C   0  0  0  0  0  0  0  0  0  0  0  0
  -24.4450   -9.4020   21.8970 C   0  0  0  0  0  3  0  0  0  0  0  0
  -23.7370   -8.1950   22.0820 C   0  0  0  0  0  3  0  0  0  0  0  0
  -22.5580   -7.9430   21.3410 C   0  0  0  0  0  0  0  0  0  0  0  0
  -22.1200   -8.8950   20.4050 C   0  0  0  0  0  3  0  0  0  0  0  0
  -22.8280  -10.0940   20.2190 C   0  0  0  0  0  3  0  0  0  0  0  0
  -21.8210   -6.7870   21.4350 O   0  0  0  0  0  0  0  0  0  0  0  0
  -21.7420   -6.0770   22.6060 C   0  0  0  0  0  0  0  0  0  0  0  0
  -21.2700   -6.6600   23.8010 C   0  0  0  0  0  3  0  0  0  0  0  0
  -21.1420   -5.8740   24.9650 C   0  0  0  0  0  3  0  0  0  0  0  0
  -21.4760   -4.5070   24.9330 C   0  0  0  0  0  0  0  0  0  0  0  0
  -21.9430   -3.9240   23.7400 C   0  0  0  0  0  3  0  0  0  0  0  0
  -22.0730   -4.7070   22.5800 C   0  0  0  0  0  0  0  0  0  0  0  0
  -22.5030   -4.1360   21.4300 F   0  0  0  0  0  0  0  0  0  0  0  0
  -21.3460   -3.7510   26.0470 F   0  0  0  0  0  0  0  0  0  0  0  0
  -22.8440  -13.4450   21.2430 C   0  0  0  0  0  0  0  0  0  0  0  0
  -22.1790  -12.7210   22.1380 N   0  0  0  0  0  0  0  0  0  0  0  0
  -22.3640  -14.4760   20.7740 O   0  0  0  0  0  0  0  0  0  0  0  0
  -22.5830  -11.8870   22.5360 H   0  0  0  0  0  0  0  0  0  0  0  0
  -21.2550  -13.0070   22.4310 H   0  0  0  0  0  0  0  0  0  0  0  0
  -25.4130  -15.1540   20.3180 N   0  0  0  0  0  0  0  0  0  0  0  0
  -24.6590  -15.8050   20.5020 H   0  0  0  0  0  0  0  0  0  0  0  0
  -26.2550  -15.6040   19.9810 H   0  0  0  0  0  0  0  0  0  0  0  0
  -30.6680  -24.7320   19.4970 C   0  0  0  0  0  1  0  0  0  0  0  0
  -29.5010  -24.3790   20.4340 C   0  0  0  0  0  3  0  0  0  0  0  0
  -28.2280  -25.1770   20.0360 C   0  0  0  0  0  2  0  0  0  0  0  0
  -28.3770  -26.6090   20.2130 O   0  0  0  0  0  0  0  0  0  0  0  0
  -24.5960  -31.8510   23.2660 C   0  0  0  0  0  0  0  0  0  0  0  0
  -27.2210  -27.3760   20.1800 C   0  0  0  0  0  0  0  0  0  0  0  0
  -23.3920  -30.4660   21.6120 C   0  0  0  0  0  3  0  0  0  0  0  0
  -24.8430  -28.9280   20.1860 C   0  0  0  0  0  0  0  0  0  0  0  0
  -25.9270  -30.8010   21.4330 C   0  0  0  0  0  2  0  0  0  0  0  0
  -26.0070  -29.4320   20.7810 C   0  0  0  0  0  0  0  0  0  0  0  0
  -27.1990  -28.6660   20.7690 C   0  0  0  0  0  3  0  0  0  0  0  0
  -26.0330  -26.8990   19.5770 C   0  0  0  0  0  3  0  0  0  0  0  0
  -24.8540  -27.6620   19.5800 C   0  0  0  0  0  3  0  0  0  0  0  0
  -23.6060  -29.7970   20.2290 C   0  0  0  0  0  2  0  0  0  0  0  0
  -24.6570  -31.0550   22.1610 N   0  0  0  0  0  0  0  0  0  0  0  0
  -23.5120  -32.1280   23.7990 O   0  0  0  0  0  0  0  0  0  0  0  0
  -22.7290  -29.4410   22.5620 C   0  0  0  0  0  0  0  0  0  0  0  0
  -21.4030  -29.2730   22.4310 N   0  0  0  0  0  0  0  0  0  0  0  0
  -23.4060  -28.8020   23.3710 O   0  0  0  0  0  0  0  0  0  0  0  0
  -20.9200  -29.8420   21.7500 H   0  0  0  0  0  0  0  0  0  0  0  0
  -18.0140  -28.1220   22.9280 C   0  0  0  0  0  0  0  0  0  0  0  0
  -20.5760  -28.3380   23.1930 C   0  0  0  0  0  3  0  0  0  0  0  0
  -20.6550  -26.9130   22.5980 C   0  0  0  0  0  2  0  0  0  0  0  0
  -19.5440  -26.6200   21.5850 C   0  0  0  0  0  2  0  0  0  0  0  0
  -18.1670  -26.7780   22.2350 C   0  0  0  0  0  2  0  0  0  0  0  0
  -19.1450  -28.8620   23.3630 C   0  0  0  0  0  0  0  0  0  0  0  0
  -18.9470  -30.1210   23.9700 C   0  0  0  0  0  3  0  0  0  0  0  0
  -17.6520  -30.6410   24.1450 C   0  0  0  0  0  3  0  0  0  0  0  0
  -16.5350  -29.8980   23.7260 C   0  0  0  0  0  3  0  0  0  0  0  0
  -16.7170  -28.6400   23.1230 C   0  0  0  0  0  3  0  0  0  0  0  0
  -25.8810  -32.4730   23.8960 C   0  0  0  0  0  3  0  0  0  0  0  0
  -26.3830  -31.6980   25.1760 C   0  0  1  0  0  0  0  0  0  0  0  0
  -25.2810  -31.4670   26.2350 C   0  0  0  0  0  1  0  0  0  0  0  0
  -26.9590  -30.3170   24.7870 C   0  0  0  0  0  1  0  0  0  0  0  0
  -27.5340  -32.4850   25.8480 C   0  0  0  0  0  1  0  0  0  0  0  0
  -25.5800  -33.8740   24.2220 N   0  0  0  0  0  0  0  0  0  0  0  0
  -25.9130  -34.9200   23.4550 C   0  0  0  0  0  0  0  0  0  0  0  0
  -26.5780  -34.8090   22.4220 O   0  0  0  0  0  0  0  0  0  0  0  0
  -24.9910  -34.0360   25.0250 H   0  0  0  0  0  0  0  0  0  0  0  0
  -24.1800  -36.7100   23.1130 C   0  0  0  0  0  1  0  0  0  0  0  0
  -25.4330  -36.3130   23.9080 C   0  0  0  0  0  3  0  0  0  0  0  0
  -27.5810  -37.2030   24.6990 C   0  0  0  0  0  1  0  0  0  0  0  0
  -26.4650  -37.3640   23.7720 N   0  0  0  0  0  0  0  0  0  0  0  0
  -26.0620  -38.2860   23.9180 H   0  0  0  0  0  0  0  0  0  0  0  0
  -30.8670  -22.1140   23.7930 C   0  0  0  0  0  1  0  0  0  0  0  0
  -30.4390  -22.8090   22.6280 O   0  0  0  0  0  0  0  0  0  0  0  0
  1  2  2  0
  1  4  1  0
  2  5  1  0
  3  6  1  0
  4  6  2  0
  5  3  2  0
  6 94  1  0
  7 20  1  0
  8 13  1  0
  9 10  1  0
  9  8  1  0
 11 10  1  0
 11 24  1  0
 11 12  1  0
 13  7  1  0
 13 12  1  0
 14  7  2  0
 15 19  1  0
 17 15  1  0
 17 20  1  0
 18 16  1  0
 19  5  1  0
 19 16  1  0
 20 18  1  0
 21 22  2  0
 22 41  1  0
 23 22  1  0
 23 26  1  0
 24 25  1  0
 24 21  1  0
 25 23  2  0
 26 27  1  0
 27 28  2  0
 29 32  1  0
 29 28  1  0
 30 29  2  0
 31 30  1  0
 31 26  2  0
 32 33  1  0
 33 34  1  0
 34 35  2  0
 36 35  1  0
 36 40  1  0
 37 36  2  0
 38 33  2  0
 38 37  1  0
 39 38  1  0
 41 42  1  0
 42 45  1  0
 42 44  1  0
 43 41  2  0
 46 21  1  0
 46 47  1  0
 48 46  1  0
 50 49  1  0
 50  4  1  0
 51 52  1  0
 51 50  1  0
 53 64  2  0
 54 52  1  0
 54 59  1  0
 55 63  1  0
 55 65  1  0
 56 62  1  0
 56 58  1  0
 57 63  1  0
 58 57  1  0
 59 58  2  0
 60 61  1  0
 60 54  2  0
 61 56  2  0
 62 55  1  0
 63 53  1  0
 65 67  2  0
 66 65  1  0
 68 66  1  0
 69 78  2  0
 69 74  1  0
 70 66  1  0
 70 74  1  0
 71 70  1  0
 72 73  1  0
 72 71  1  0
 73 69  1  0
 74 75  2  0
 75 76  1  0
 77 76  2  0
 78 77  1  0
 79 53  1  0
 79 84  1  0
 79 80  1  0
 80 83  1  1
 80 81  1  0
 82 80  1  0
 84 87  1  0
 85 89  1  0
 85 84  1  0
 86 85  2  0
 89 88  1  0
 91 89  1  0
 91 92  1  0
 91 90  1  0
 94 93  1  0
M  ISO  4   7 100  20 100  51 101  52 101
M  END
>  <TORSDO>  (89) 
F 19

>  <SCORE>  (89) 
-14.184

>  <name>  (89) 
88

>  <ligand_id>  (89) 
88

>  <original_smiles>  (89) 
[H]c1c([H])c([H])c2c(c1[H])C([H])([H])C([H])([H])C([H])([H])C2([H])N([H])C(=O)C1([H])N(C(=O)C([H])(N([H])C(=O)C([H])(N([H])C([H])([H])[H])C([H])([H])[H])C(C([H])([H])[H])(C([H])([H])[H])C([H])([H])[H])C([H])([H])c2c([H])c(OC([H])([H])C([H])(c3c([H])c([H])c(N4C([H])([H])C([H])([H])N(C(=O)N5C([H])([H])C([H])([H])C([H])([H])C([H])(n6nc(-c7c([H])c([H])c(Oc8c([H])c([H])c(F)c([H])c8F)c([H])c7[H])c(C(=O)N([H])[H])c6N([H])[H])C5([H])[H])C([H])([H])C4([H])[H])c([H])c3OC([H])([H])[H])C([H])([H])[H])c([H])c([H])c2C1([H])[H]

>  <smiles>  (89) 
[H]c1c([H])c([H])c2c(c1[H])C([H])([H])C([H])([H])C([H])([H])C2([H])N([H])C(=O)C1([H])N(C(=O)C([H])(N([H])C(=O)C([H])(N([H])C([H])([H])[H])C([H])([H])[H])C(C([H])([H])[H])(C([H])([H])[H])C([H])([H])[H])C([H])([H])c2c([H])c(OC([H])([H])C([H])(c3c([H])c([H])c(N4C([H])([H])C([H])([H])N(C(=O)N5C([H])([H])C([H])([H])C([H])([H])C([H])(n6nc(-c7c([H])c([H])c(Oc8c([H])c([H])c(F)c([H])c8F)c([H])c7[H])c(C(=O)N([H])[H])c6N([H])[H])C5([H])[H])C([H])([H])C4([H])[H])c([H])c3OC([H])([H])[H])C([H])([H])[H])c([H])c([H])c2C1([H])[H]

$$$$
89:0:0
     RDKit          3D

100109  0  0  1  0  0  0  0  0999 V2000
  -29.8870  -23.8690   20.6610 C   0  0  0  0  0  0  0  0  0  0  0  0
  -30.3450  -23.8810   19.3080 C   0  0  0  0  0  0  0  0  0  0  0  0
  -29.7450  -22.5610   21.2630 C   0  0  0  0  0  0  0  0  0  0  0  0
  -30.4140  -22.6570   18.5880 C   0  0  0  0  0  0  0  0  0  0  0  0
  -29.9760  -21.3870   20.4800 C   0  0  0  0  0  0  0  0  0  0  0  0
  -30.8300  -25.1680   18.6520 C   0  0  0  0  0  1  0  0  0  0  0  0
  -30.2500  -21.4550   19.1740 N   0  0  0  0  0  0  0  0  0  0  0  0
  -29.7830  -21.6720   16.3150 C   0  0  0  0  0  1  0  0  0  0  0  0
  -32.2230  -22.1760   16.8750 C   0  0  0  0  0  1  0  0  0  0  0  0
  -30.7550  -22.5780   17.0930 C   0  0  0  0  0  3  0  0  0  0  0  0
  -30.5170  -21.9630   23.6610 C   0  0  0  0  0  1  0  0  0  0  0  0
  -29.3520  -22.3770   22.7400 C   0  0  0  0  0  2  0  0  0  0  0  0
  -30.8590  -25.4740   22.3940 C   0  0  0  0  0  1  0  0  0  0  0  0
  -29.6460  -25.1890   21.4910 C   0  0  0  0  0  3  0  0  0  0  0  0
  -29.2070  -26.5620   20.8450 C   0  0  0  0  0  2  0  0  0  0  0  0
  -28.0850  -26.4980   19.9700 O   0  0  0  0  0  0  0  0  0  0  0  0
  -24.5070  -31.9110   23.1530 C   0  0  0  0  0  0  0  0  0  0  0  0
  -27.0100  -27.3620   20.0830 C   0  0  0  0  0  0  0  0  0  0  0  0
  -23.2450  -30.5090   21.5560 C   0  0  0  0  0  3  0  0  0  0  0  0
  -24.6460  -28.9300   20.1240 C   0  0  0  0  0  0  0  0  0  0  0  0
  -25.7780  -30.8120   21.3090 C   0  0  0  0  0  2  0  0  0  0  0  0
  -25.8270  -29.4300   20.6870 C   0  0  0  0  0  0  0  0  0  0  0  0
  -27.0150  -28.6560   20.6700 C   0  0  0  0  0  3  0  0  0  0  0  0
  -25.8130  -26.8900   19.5140 C   0  0  0  0  0  3  0  0  0  0  0  0
  -24.6340  -27.6550   19.5350 C   0  0  0  0  0  3  0  0  0  0  0  0
  -23.4180  -29.8100   20.1830 C   0  0  0  0  0  2  0  0  0  0  0  0
  -24.5280  -31.0950   22.0620 N   0  0  0  0  0  0  0  0  0  0  0  0
  -23.4410  -32.2090   23.7120 O   0  0  0  0  0  0  0  0  0  0  0  0
  -22.5960  -29.5100   22.5440 C   0  0  0  0  0  0  0  0  0  0  0  0
  -21.2680  -29.3400   22.4410 N   0  0  0  0  0  0  0  0  0  0  0  0
  -23.2840  -28.8910   23.3580 O   0  0  0  0  0  0  0  0  0  0  0  0
  -20.7710  -29.8910   21.7550 H   0  0  0  0  0  0  0  0  0  0  0  0
  -17.8910  -28.1790   23.0000 C   0  0  0  0  0  0  0  0  0  0  0  0
  -20.4540  -28.4240   23.2400 C   0  0  0  0  0  3  0  0  0  0  0  0
  -20.5400  -26.9810   22.6930 C   0  0  0  0  0  2  0  0  0  0  0  0
  -19.4230  -26.6460   21.6980 C   0  0  0  0  0  2  0  0  0  0  0  0
  -18.0490  -26.8160   22.3520 C   0  0  0  0  0  2  0  0  0  0  0  0
  -19.0190  -28.9420   23.4020 C   0  0  0  0  0  0  0  0  0  0  0  0
  -18.8160  -30.2200   23.9670 C   0  0  0  0  0  3  0  0  0  0  0  0
  -17.5170  -30.7340   24.1350 C   0  0  0  0  0  3  0  0  0  0  0  0
  -16.4030  -29.9700   23.7490 C   0  0  0  0  0  3  0  0  0  0  0  0
  -16.5910  -28.6940   23.1860 C   0  0  0  0  0  3  0  0  0  0  0  0
  -25.8160  -32.5260   23.7370 C   0  0  0  0  0  3  0  0  0  0  0  0
  -25.5210  -33.9170   24.1030 N   0  0  0  0  0  0  0  0  0  0  0  0
  -25.8470  -34.9850   23.3600 C   0  0  0  0  0  0  0  0  0  0  0  0
  -26.4960  -34.8990   22.3140 O   0  0  0  0  0  0  0  0  0  0  0  0
  -24.9340  -34.0580   24.9130 H   0  0  0  0  0  0  0  0  0  0  0  0
  -24.1330  -36.8020   23.0700 C   0  0  0  0  0  1  0  0  0  0  0  0
  -25.3790  -36.3640   23.8580 C   0  0  0  0  0  3  0  0  0  0  0  0
  -27.5300  -37.2110   24.6860 C   0  0  0  0  0  1  0  0  0  0  0  0
  -26.4210  -37.4090   23.7570 N   0  0  0  0  0  0  0  0  0  0  0  0
  -26.0250  -38.3300   23.9280 H   0  0  0  0  0  0  0  0  0  0  0  0
  -26.3800  -31.7300   24.9770 C   0  0  1  0  0  0  0  0  0  0  0  0
  -25.3270  -31.4760   26.0820 C   0  0  0  0  0  1  0  0  0  0  0  0
  -26.9450  -30.3580   24.5380 C   0  0  0  0  0  1  0  0  0  0  0  0
  -27.5540  -32.5120   25.6080 C   0  0  0  0  0  1  0  0  0  0  0  0
  -29.9580  -20.0930   21.0540 N   0  0  0  0  0  0  0  0  0  0  0  0
  -29.9220  -20.0660   22.0660 H   0  0  0  0  0  0  0  0  0  0  0  0
  -30.9320  -14.6100   20.0500 C   0  0  0  0  0  0  0  0  0  0  0  0
  -30.5810  -12.4230   18.9510 C   0  0  0  0  0  2  0  0  0  0  0  0
  -29.6000  -12.5860   17.7710 C   0  0  0  0  0  2  0  0  0  0  0  0
  -28.1360  -12.4550   18.2410 C   0  0  0  0  0  2  0  0  0  0  0  0
  -27.8370  -13.2950   19.5150 C   0  0  0  0  0  3  0  0  0  0  0  0
  -28.9360  -13.0880   20.5790 C   0  0  0  0  0  2  0  0  0  0  0  0
  -30.2170  -13.4450   19.9530 N   0  0  0  0  0  0  0  0  0  0  0  0
  -32.1250  -14.6210   19.7310 O   0  0  0  0  0  0  0  0  0  0  0  0
  -29.3100  -17.7250   21.3910 C   0  0  0  0  0  2  0  0  0  0  0  0
  -30.9700  -18.2290   19.6410 C   0  0  0  0  0  2  0  0  0  0  0  0
  -29.1380  -16.2840   20.8270 C   0  0  0  0  0  2  0  0  0  0  0  0
  -30.6590  -16.8510   18.9970 C   0  0  0  0  0  2  0  0  0  0  0  0
  -29.7370  -18.8010   20.3680 C   0  0  0  0  0  3  0  0  0  0  0  0
  -30.2440  -15.8050   19.9690 N   0  0  0  0  0  0  0  0  0  0  0  0
  -25.4780  -13.9270   20.3160 C   0  0  0  0  0  0  0  0  0  0  0  0
  -24.4170  -13.1650   20.7230 C   0  0  0  0  0  0  0  0  0  0  0  0
  -24.8650  -11.8100   20.6760 C   0  0  0  0  0  0  0  0  0  0  0  0
  -26.5050  -13.0350   20.0480 N   0  0  0  0  0  0  0  0  0  0  0  0
  -26.1430  -11.7570   20.3240 N   0  0  0  0  0  0  0  0  0  0  0  0
  -24.1350  -10.5540   20.8890 C   0  0  0  0  0  0  0  0  0  0  0  0
  -24.5500   -9.6190   21.8620 C   0  0  0  0  0  3  0  0  0  0  0  0
  -23.8230   -8.4270   22.0640 C   0  0  0  0  0  3  0  0  0  0  0  0
  -22.6670   -8.1610   21.2880 C   0  0  0  0  0  0  0  0  0  0  0  0
  -22.2740   -9.0850   20.3050 C   0  0  0  0  0  3  0  0  0  0  0  0
  -23.0010  -10.2700   20.1030 C   0  0  0  0  0  3  0  0  0  0  0  0
  -21.9130   -7.0170   21.3950 O   0  0  0  0  0  0  0  0  0  0  0  0
  -21.7680   -6.3570   22.5870 C   0  0  0  0  0  0  0  0  0  0  0  0
  -21.2220   -6.9860   23.7280 C   0  0  0  0  0  3  0  0  0  0  0  0
  -21.0290   -6.2500   24.9130 C   0  0  0  0  0  3  0  0  0  0  0  0
  -21.3740   -4.8850   24.9570 C   0  0  0  0  0  0  0  0  0  0  0  0
  -21.9110   -4.2540   23.8200 C   0  0  0  0  0  3  0  0  0  0  0  0
  -22.1040   -4.9880   22.6380 C   0  0  0  0  0  0  0  0  0  0  0  0
  -22.6040   -4.3730   21.5390 F   0  0  0  0  0  0  0  0  0  0  0  0
  -21.1780   -4.1750   26.0920 F   0  0  0  0  0  0  0  0  0  0  0  0
  -23.0340  -13.6570   21.0390 C   0  0  0  0  0  0  0  0  0  0  0  0
  -22.3290  -12.9710   21.9310 N   0  0  0  0  0  0  0  0  0  0  0  0
  -22.5900  -14.6850   20.5290 O   0  0  0  0  0  0  0  0  0  0  0  0
  -22.7040  -12.1410   22.3670 H   0  0  0  0  0  0  0  0  0  0  0  0
  -21.4000  -13.2810   22.1760 H   0  0  0  0  0  0  0  0  0  0  0  0
  -25.6450  -15.2940   20.1240 N   0  0  0  0  0  0  0  0  0  0  0  0
  -24.8880  -15.9590   20.2550 H   0  0  0  0  0  0  0  0  0  0  0  0
  -26.4830  -15.7130   19.7490 H   0  0  0  0  0  0  0  0  0  0  0  0
  1  3  1  0
  1 14  1  0
  2  1  2  0
  3 12  1  0
  4  7  2  0
  4  2  1  0
  5 57  1  0
  5  3  2  0
  6  2  1  0
  7  5  1  0
  8 10  1  0
  9 10  1  0
 10  4  1  0
 12 11  1  0
 14 13  1  0
 15 14  1  0
 16 18  1  0
 16 15  1  0
 17 28  2  0
 18 23  1  0
 19 27  1  0
 19 29  1  0
 20 26  1  0
 20 22  1  0
 21 27  1  0
 22 21  1  0
 23 22  2  0
 24 25  1  0
 24 18  2  0
 25 20  2  0
 26 19  1  0
 27 17  1  0
 29 31  2  0
 30 29  1  0
 32 30  1  0
 33 42  2  0
 33 38  1  0
 34 30  1  0
 34 38  1  0
 35 34  1  0
 36 37  1  0
 36 35  1  0
 37 33  1  0
 38 39  2  0
 39 40  1  0
 41 40  2  0
 42 41  1  0
 43 17  1  0
 43 44  1  0
 43 53  1  0
 44 47  1  0
 45 49  1  0
 45 44  1  0
 46 45  2  0
 49 48  1  0
 51 49  1  0
 51 52  1  0
 51 50  1  0
 53 56  1  1
 53 54  1  0
 55 53  1  0
 57 58  1  0
 60 65  1  0
 61 62  1  0
 61 60  1  0
 63 62  1  0
 63 76  1  0
 63 64  1  0
 65 59  1  0
 65 64  1  0
 66 59  2  0
 68 71  1  0
 69 67  1  0
 70 68  1  0
 70 72  1  0
 71 57  1  0
 71 67  1  0
 72 59  1  0
 72 69  1  0
 73 74  2  0
 74 93  1  0
 75 74  1  0
 75 78  1  0
 76 73  1  0
 76 77  1  0
 77 75  2  0
 78 79  1  0
 79 80  2  0
 81 84  1  0
 81 80  1  0
 82 81  2  0
 83 82  1  0
 83 78  2  0
 84 85  1  0
 85 90  2  0
 85 86  1  0
 86 87  2  0
 87 88  1  0
 88 92  1  0
 89 88  2  0
 90 89  1  0
 91 90  1  0
 93 94  1  0
 94 97  1  0
 94 96  1  0
 95 93  2  0
 98 99  1  0
 98 73  1  0
100 98  1  0
M  ISO  4  15 101  16 101  59 100  72 100
M  END
>  <TORSDO>  (90) 
F 21

>  <SCORE>  (90) 
-13.042

>  <name>  (90) 
89

>  <ligand_id>  (90) 
89

>  <original_smiles>  (90) 
[H]c1c([H])c([H])c2c(c1[H])C([H])([H])C([H])([H])C([H])([H])C2([H])N([H])C(=O)C1([H])N(C(=O)C([H])(N([H])C(=O)C([H])(N([H])C([H])([H])[H])C([H])([H])[H])C(C([H])([H])[H])(C([H])([H])[H])C([H])([H])[H])C([H])([H])c2c([H])c(OC([H])([H])C([H])(c3c(C([H])([H])[H])c(C([H])(C([H])([H])[H])C([H])([H])[H])nc(N([H])C4([H])C([H])([H])C([H])([H])N(C(=O)N5C([H])([H])C([H])([H])C([H])([H])C([H])(n6nc(-c7c([H])c([H])c(Oc8c([H])c([H])c(F)c([H])c8F)c([H])c7[H])c(C(=O)N([H])[H])c6N([H])[H])C5([H])[H])C([H])([H])C4([H])[H])c3C([H])([H])C([H])([H])[H])C([H])([H])[H])c([H])c([H])c2C1([H])[H]

>  <smiles>  (90) 
[H]c1c([H])c([H])c2c(c1[H])C([H])([H])C([H])([H])C([H])([H])C2([H])N([H])C(=O)C1([H])N(C(=O)C([H])(N([H])C(=O)C([H])(N([H])C([H])([H])[H])C([H])([H])[H])C(C([H])([H])[H])(C([H])([H])[H])C([H])([H])[H])C([H])([H])c2c([H])c(OC([H])([H])C([H])(c3c(C([H])([H])[H])c(C([H])(C([H])([H])[H])C([H])([H])[H])nc(N([H])C4([H])C([H])([H])C([H])([H])N(C(=O)N5C([H])([H])C([H])([H])C([H])([H])C([H])(n6nc(-c7c([H])c([H])c(Oc8c([H])c([H])c(F)c([H])c8F)c([H])c7[H])c(C(=O)N([H])[H])c6N([H])[H])C5([H])[H])C([H])([H])C4([H])[H])c3C([H])([H])C([H])([H])[H])C([H])([H])[H])c([H])c([H])c2C1([H])[H]

$$$$
90:0:0
     RDKit          3D

 97107  0  0  1  0  0  0  0  0999 V2000
  -29.2170  -22.9960   19.9190 C   0  0  0  0  0  3  0  0  0  0  0  0
  -31.5910  -21.6060   20.3900 C   0  0  0  0  0  3  0  0  0  0  0  0
  -30.4150  -23.7250   20.0360 C   0  0  0  0  0  0  0  0  0  0  0  0
  -29.1880  -21.5890   20.0050 C   0  0  0  0  0  0  0  0  0  0  0  0
  -31.6170  -23.0130   20.2510 C   0  0  0  0  0  0  0  0  0  0  0  0
  -30.3820  -20.8700   20.2730 C   0  0  0  0  0  0  0  0  0  0  0  0
  -32.9400  -23.7520   20.3680 C   0  0  0  0  0  1  0  0  0  0  0  0
  -30.6060  -25.9940   18.6840 C   0  0  0  0  0  2  0  0  0  0  0  0
  -30.3870  -25.2330   19.9740 C   0  0  0  0  0  3  0  0  0  0  0  0
  -29.2440  -25.9980   19.3380 C   0  0  0  0  0  3  0  0  0  0  0  0
  -28.9710  -27.1750   20.0960 O   0  0  0  0  0  0  0  0  0  0  0  0
  -24.7690  -31.8270   23.4010 C   0  0  0  0  0  0  0  0  0  0  0  0
  -27.7250  -27.7650   20.0840 C   0  0  0  0  0  0  0  0  0  0  0  0
  -23.6790  -30.4960   21.6210 C   0  0  0  0  0  3  0  0  0  0  0  0
  -25.2460  -29.1330   20.1430 C   0  0  0  0  0  0  0  0  0  0  0  0
  -26.1880  -30.9830   21.5360 C   0  0  0  0  0  2  0  0  0  0  0  0
  -26.3550  -29.6670   20.8060 C   0  0  0  0  0  0  0  0  0  0  0  0
  -27.5890  -28.9850   20.7830 C   0  0  0  0  0  3  0  0  0  0  0  0
  -26.5890  -27.2320   19.4270 C   0  0  0  0  0  3  0  0  0  0  0  0
  -25.3550  -27.9110   19.4590 C   0  0  0  0  0  3  0  0  0  0  0  0
  -23.9620  -29.9280   20.2060 C   0  0  0  0  0  2  0  0  0  0  0  0
  -24.8940  -31.1130   22.2460 N   0  0  0  0  0  0  0  0  0  0  0  0
  -23.6600  -32.0090   23.9230 O   0  0  0  0  0  0  0  0  0  0  0  0
  -23.0490  -29.3800   22.4830 C   0  0  0  0  0  0  0  0  0  0  0  0
  -21.7430  -29.1370   22.2860 N   0  0  0  0  0  0  0  0  0  0  0  0
  -23.7340  -28.7370   23.2840 O   0  0  0  0  0  0  0  0  0  0  0  0
  -21.2510  -29.7120   21.6170 H   0  0  0  0  0  0  0  0  0  0  0  0
  -18.4180  -27.7570   22.5690 C   0  0  0  0  0  0  0  0  0  0  0  0
  -20.9480  -28.1080   22.9560 C   0  0  0  0  0  3  0  0  0  0  0  0
  -21.1400  -26.7300   22.2820 C   0  0  0  0  0  2  0  0  0  0  0  0
  -20.0910  -26.4330   21.2070 C   0  0  0  0  0  2  0  0  0  0  0  0
  -18.6820  -26.4710   21.8060 C   0  0  0  0  0  2  0  0  0  0  0  0
  -19.4820  -28.5340   23.0960 C   0  0  0  0  0  0  0  0  0  0  0  0
  -19.1850  -29.7410   23.7660 C   0  0  0  0  0  3  0  0  0  0  0  0
  -17.8540  -30.1720   23.9150 C   0  0  0  0  0  3  0  0  0  0  0  0
  -16.8020  -29.3900   23.4070 C   0  0  0  0  0  3  0  0  0  0  0  0
  -17.0840  -28.1840   22.7410 C   0  0  0  0  0  3  0  0  0  0  0  0
  -26.0040  -32.4670   24.1050 C   0  0  0  0  0  3  0  0  0  0  0  0
  -26.4670  -31.6780   25.3910 C   0  0  1  0  0  0  0  0  0  0  0  0
  -25.3170  -31.3800   26.3840 C   0  0  0  0  0  1  0  0  0  0  0  0
  -27.1120  -30.3280   25.0010 C   0  0  0  0  0  1  0  0  0  0  0  0
  -27.5550  -32.4840   26.1410 C   0  0  0  0  0  1  0  0  0  0  0  0
  -25.6520  -33.8510   24.4440 N   0  0  0  0  0  0  0  0  0  0  0  0
  -26.0000  -34.9240   23.7230 C   0  0  0  0  0  0  0  0  0  0  0  0
  -26.7240  -34.8540   22.7260 O   0  0  0  0  0  0  0  0  0  0  0  0
  -25.0110  -33.9770   25.2140 H   0  0  0  0  0  0  0  0  0  0  0  0
  -24.2490  -36.6830   23.3140 C   0  0  0  0  0  1  0  0  0  0  0  0
  -25.4590  -36.2930   24.1790 C   0  0  0  0  0  3  0  0  0  0  0  0
  -27.5250  -37.2160   25.1300 C   0  0  0  0  0  1  0  0  0  0  0  0
  -26.4700  -37.3730   24.1330 N   0  0  0  0  0  0  0  0  0  0  0  0
  -26.0360  -38.2810   24.2700 H   0  0  0  0  0  0  0  0  0  0  0  0
  -27.4820  -20.7850   18.3090 C   0  0  0  0  0  1  0  0  0  0  0  0
  -26.7330  -21.5480   20.6130 C   0  0  0  0  0  1  0  0  0  0  0  0
  -27.8510  -20.8760   19.8020 C   0  0  0  0  0  3  0  0  0  0  0  0
  -30.2870  -19.5020   20.4710 O   0  0  0  0  0  0  0  0  0  0  0  0
  -31.0000  -14.7400   20.0410 C   0  0  0  0  0  0  0  0  0  0  0  0
  -30.6260  -12.5490   18.9870 C   0  0  0  0  0  2  0  0  0  0  0  0
  -29.6330  -12.7230   17.8220 C   0  0  0  0  0  2  0  0  0  0  0  0
  -28.1800  -12.5950   18.3180 C   0  0  0  0  0  2  0  0  0  0  0  0
  -27.8940  -13.4560   19.5790 C   0  0  0  0  0  3  0  0  0  0  0  0
  -29.0100  -13.3000   20.6370 C   0  0  0  0  0  2  0  0  0  0  0  0
  -30.3030  -13.5750   19.9870 N   0  0  0  0  0  0  0  0  0  0  0  0
  -32.1310  -14.8670   19.5640 O   0  0  0  0  0  0  0  0  0  0  0  0
  -31.8080  -17.7270   21.1380 C   0  0  0  0  0  2  0  0  0  0  0  0
  -30.6700  -17.7460   18.8740 C   0  0  0  0  0  2  0  0  0  0  0  0
  -30.7930  -16.6430   21.5820 C   0  0  0  0  0  2  0  0  0  0  0  0
  -29.6810  -16.7010   19.4380 C   0  0  0  0  0  2  0  0  0  0  0  0
  -31.2930  -18.6100   19.9810 C   0  0  0  0  0  3  0  0  0  0  0  0
  -30.3140  -15.8340   20.4500 N   0  0  0  0  0  0  0  0  0  0  0  0
  -25.5590  -14.0590   20.4660 C   0  0  0  0  0  0  0  0  0  0  0  0
  -24.5020  -13.2860   20.8670 C   0  0  0  0  0  0  0  0  0  0  0  0
  -24.9410  -11.9310   20.7480 C   0  0  0  0  0  0  0  0  0  0  0  0
  -26.5740  -13.1760   20.1340 N   0  0  0  0  0  0  0  0  0  0  0  0
  -26.2090  -11.8880   20.3620 N   0  0  0  0  0  0  0  0  0  0  0  0
  -24.2060  -10.6720   20.9260 C   0  0  0  0  0  0  0  0  0  0  0  0
  -24.6150   -9.7100   21.8760 C   0  0  0  0  0  3  0  0  0  0  0  0
  -23.8850   -8.5140   22.0450 C   0  0  0  0  0  3  0  0  0  0  0  0
  -22.7310   -8.2720   21.2620 C   0  0  0  0  0  0  0  0  0  0  0  0
  -22.3400   -9.2230   20.3030 C   0  0  0  0  0  3  0  0  0  0  0  0
  -23.0720  -10.4100   20.1330 C   0  0  0  0  0  3  0  0  0  0  0  0
  -21.9730   -7.1280   21.3370 O   0  0  0  0  0  0  0  0  0  0  0  0
  -21.8020   -6.4530   22.5190 C   0  0  0  0  0  0  0  0  0  0  0  0
  -21.2060   -7.0600   23.6470 C   0  0  0  0  0  3  0  0  0  0  0  0
  -20.9930   -6.3080   24.8190 C   0  0  0  0  0  3  0  0  0  0  0  0
  -21.3640   -4.9510   24.8630 C   0  0  0  0  0  0  0  0  0  0  0  0
  -21.9520   -4.3430   23.7400 C   0  0  0  0  0  3  0  0  0  0  0  0
  -22.1690   -5.0930   22.5710 C   0  0  0  0  0  0  0  0  0  0  0  0
  -22.7170   -4.4990   21.4830 F   0  0  0  0  0  0  0  0  0  0  0  0
  -21.1520   -4.2240   25.9850 F   0  0  0  0  0  0  0  0  0  0  0  0
  -23.1330  -13.7690   21.2450 C   0  0  0  0  0  0  0  0  0  0  0  0
  -22.4490  -13.0530   22.1320 N   0  0  0  0  0  0  0  0  0  0  0  0
  -22.6770  -14.8160   20.7880 O   0  0  0  0  0  0  0  0  0  0  0  0
  -22.8290  -12.2070   22.5290 H   0  0  0  0  0  0  0  0  0  0  0  0
  -21.5310  -13.3600   22.4200 H   0  0  0  0  0  0  0  0  0  0  0  0
  -25.7370  -15.4350   20.3370 N   0  0  0  0  0  0  0  0  0  0  0  0
  -24.9950  -16.0970   20.5340 H   0  0  0  0  0  0  0  0  0  0  0  0
  -26.5890  -15.8730   20.0140 H   0  0  0  0  0  0  0  0  0  0  0  0
  1  4  2  0
  1  3  1  0
  3  5  2  0
  4  6  1  0
  5  7  1  0
  5  2  1  0
  6  2  2  0
  6 55  1  0
  8 10  1  0
  8  9  1  0
  9  3  1  0
 10  9  1  0
 10 11  1  0
 12 23  2  0
 13 11  1  0
 13 18  1  0
 14 22  1  0
 14 24  1  0
 15 21  1  0
 15 17  1  0
 16 22  1  0
 17 16  1  0
 18 17  2  0
 19 20  1  0
 19 13  2  0
 20 15  2  0
 21 14  1  0
 22 12  1  0
 24 26  2  0
 25 24  1  0
 27 25  1  0
 28 37  2  0
 28 33  1  0
 29 25  1  0
 29 33  1  0
 30 29  1  0
 31 32  1  0
 31 30  1  0
 32 28  1  0
 33 34  2  0
 34 35  1  0
 36 35  2  0
 37 36  1  0
 38 12  1  0
 38 43  1  0
 38 39  1  0
 39 42  1  1
 39 40  1  0
 41 39  1  0
 43 46  1  0
 44 48  1  0
 44 43  1  0
 45 44  2  0
 48 47  1  0
 50 48  1  0
 50 51  1  0
 50 49  1  0
 52 54  1  0
 54  4  1  0
 54 53  1  0
 56 69  1  0
 57 62  1  0
 58 59  1  0
 58 57  1  0
 60 59  1  0
 60 73  1  0
 60 61  1  0
 62 56  1  0
 62 61  1  0
 63 56  2  0
 64 66  1  0
 65 67  1  0
 65 68  1  0
 67 69  1  0
 68 55  1  0
 68 64  1  0
 69 66  1  0
 70 71  2  0
 71 90  1  0
 72 71  1  0
 72 75  1  0
 73 74  1  0
 73 70  1  0
 74 72  2  0
 75 76  1  0
 76 77  2  0
 78 81  1  0
 78 77  1  0
 79 78  2  0
 80 79  1  0
 80 75  2  0
 81 82  1  0
 82 87  2  0
 82 83  1  0
 83 84  2  0
 84 85  1  0
 85 89  1  0
 86 85  2  0
 87 86  1  0
 88 87  1  0
 90 91  1  0
 91 94  1  0
 91 93  1  0
 92 90  2  0
 95 70  1  0
 95 96  1  0
 97 95  1  0
M  ISO  4  10 101  11 101  56 100  69 100
M  END
>  <TORSDO>  (91) 
F 19

>  <SCORE>  (91) 
-12.751

>  <name>  (91) 
90

>  <ligand_id>  (91) 
90

>  <original_smiles>  (91) 
[H]c1c([H])c([H])c2c(c1[H])C([H])([H])C([H])([H])C([H])([H])C2([H])N([H])C(=O)C1([H])N(C(=O)C([H])(N([H])C(=O)C([H])(N([H])C([H])([H])[H])C([H])([H])[H])C(C([H])([H])[H])(C([H])([H])[H])C([H])([H])[H])C([H])([H])c2c([H])c(OC3([H])C([H])([H])C3([H])c3c([H])c(C([H])(C([H])([H])[H])C([H])([H])[H])c(OC4([H])C([H])([H])C([H])([H])N(C(=O)N5C([H])([H])C([H])([H])C([H])([H])C([H])(n6nc(-c7c([H])c([H])c(Oc8c([H])c([H])c(F)c([H])c8F)c([H])c7[H])c(C(=O)N([H])[H])c6N([H])[H])C5([H])[H])C([H])([H])C4([H])[H])c([H])c3C([H])([H])[H])c([H])c([H])c2C1([H])[H]

>  <smiles>  (91) 
[H]c1c([H])c([H])c2c(c1[H])C([H])([H])C([H])([H])C([H])([H])C2([H])N([H])C(=O)C1([H])N(C(=O)C([H])(N([H])C(=O)C([H])(N([H])C([H])([H])[H])C([H])([H])[H])C(C([H])([H])[H])(C([H])([H])[H])C([H])([H])[H])C([H])([H])c2c([H])c(OC3([H])C([H])([H])C3([H])c3c([H])c(C([H])(C([H])([H])[H])C([H])([H])[H])c(OC4([H])C([H])([H])C([H])([H])N(C(=O)N5C([H])([H])C([H])([H])C([H])([H])C([H])(n6nc(-c7c([H])c([H])c(Oc8c([H])c([H])c(F)c([H])c8F)c([H])c7[H])c(C(=O)N([H])[H])c6N([H])[H])C5([H])[H])C([H])([H])C4([H])[H])c([H])c3C([H])([H])[H])c([H])c([H])c2C1([H])[H]

$$$$
91:0:0
     RDKit          3D

 95104  0  0  1  0  0  0  0  0999 V2000
  -30.5010  -21.4590   19.6010 C   0  0  0  0  0  3  0  0  0  0  0  0
  -29.3870  -21.7240   21.7220 C   0  0  0  0  0  0  0  0  0  0  0  0
  -28.8750  -22.9650   21.2280 C   0  0  0  0  0  0  0  0  0  0  0  0
  -30.2130  -20.9350   20.8790 C   0  0  0  0  0  0  0  0  0  0  0  0
  -29.2240  -23.3930   19.9180 C   0  0  0  0  0  0  0  0  0  0  0  0
  -27.9130  -23.8120   22.0600 C   0  0  0  0  0  1  0  0  0  0  0  0
  -30.0230  -22.6380   19.1310 N   0  0  0  0  0  0  0  0  0  0  0  0
  -29.0420  -21.2230   23.1270 C   0  0  0  0  0  2  0  0  0  0  0  0
  -31.1300  -20.8770   24.7060 C   0  0  0  0  0  2  0  0  0  0  0  0
  -31.3930  -22.1700   23.9720 C   0  0  0  0  0  2  0  0  0  0  0  0
  -29.9680  -21.7230   24.2310 C   0  0  0  0  0  3  0  0  0  0  0  0
  -28.4950  -24.5620   19.2070 C   0  0  0  0  0  2  0  0  0  0  0  0
  -29.0590  -26.0330   19.1960 C   0  0  0  0  0  2  0  0  0  0  0  0
  -28.7510  -27.0320   20.2030 O   0  0  0  0  0  0  0  0  0  0  0  0
  -24.7570  -32.0490   23.3790 C   0  0  0  0  0  0  0  0  0  0  0  0
  -27.5760  -27.7720   20.1540 C   0  0  0  0  0  0  0  0  0  0  0  0
  -23.6150  -30.6590   21.6860 C   0  0  0  0  0  3  0  0  0  0  0  0
  -25.1320  -29.2300   20.2100 C   0  0  0  0  0  0  0  0  0  0  0  0
  -26.1350  -31.0980   21.5280 C   0  0  0  0  0  2  0  0  0  0  0  0
  -26.2690  -29.7510   20.8390 C   0  0  0  0  0  0  0  0  0  0  0  0
  -27.4870  -29.0220   20.8250 C   0  0  0  0  0  3  0  0  0  0  0  0
  -26.4180  -27.2900   19.5060 C   0  0  0  0  0  3  0  0  0  0  0  0
  -25.2040  -27.9980   19.5420 C   0  0  0  0  0  3  0  0  0  0  0  0
  -23.8560  -30.0390   20.2830 C   0  0  0  0  0  2  0  0  0  0  0  0
  -24.8530  -31.2840   22.2540 N   0  0  0  0  0  0  0  0  0  0  0  0
  -23.6630  -32.2660   23.9190 O   0  0  0  0  0  0  0  0  0  0  0  0
  -22.9960  -29.5810   22.6040 C   0  0  0  0  0  0  0  0  0  0  0  0
  -21.6930  -29.3110   22.4230 N   0  0  0  0  0  0  0  0  0  0  0  0
  -23.6880  -28.9930   23.4390 O   0  0  0  0  0  0  0  0  0  0  0  0
  -21.1910  -29.8420   21.7250 H   0  0  0  0  0  0  0  0  0  0  0  0
  -18.4100  -27.8270   22.7160 C   0  0  0  0  0  0  0  0  0  0  0  0
  -20.9130  -28.3090   23.1500 C   0  0  0  0  0  3  0  0  0  0  0  0
  -21.1780  -26.8900   22.5960 C   0  0  0  0  0  2  0  0  0  0  0  0
  -20.1750  -26.4670   21.5170 C   0  0  0  0  0  2  0  0  0  0  0  0
  -18.7470  -26.4950   22.0680 C   0  0  0  0  0  2  0  0  0  0  0  0
  -19.4270  -28.6860   23.2090 C   0  0  0  0  0  0  0  0  0  0  0  0
  -19.0620  -29.9300   23.7680 C   0  0  0  0  0  3  0  0  0  0  0  0
  -17.7090  -30.3170   23.8410 C   0  0  0  0  0  3  0  0  0  0  0  0
  -16.7060  -29.4540   23.3670 C   0  0  0  0  0  3  0  0  0  0  0  0
  -17.0560  -28.2120   22.8080 C   0  0  0  0  0  3  0  0  0  0  0  0
  -26.0140  -32.7080   24.0260 C   0  0  0  0  0  3  0  0  0  0  0  0
  -25.6600  -34.0910   24.3770 N   0  0  0  0  0  0  0  0  0  0  0  0
  -25.9620  -35.1640   23.6350 C   0  0  0  0  0  0  0  0  0  0  0  0
  -26.6390  -35.0970   22.6050 O   0  0  0  0  0  0  0  0  0  0  0  0
  -25.0610  -34.2190   25.1790 H   0  0  0  0  0  0  0  0  0  0  0  0
  -24.1710  -36.8960   23.2990 C   0  0  0  0  0  1  0  0  0  0  0  0
  -25.4260  -36.5280   24.1070 C   0  0  0  0  0  3  0  0  0  0  0  0
  -27.5300  -37.4750   24.9480 C   0  0  0  0  0  1  0  0  0  0  0  0
  -26.4210  -37.6170   24.0080 N   0  0  0  0  0  0  0  0  0  0  0  0
  -25.9840  -38.5210   24.1690 H   0  0  0  0  0  0  0  0  0  0  0  0
  -26.5400  -31.9300   25.2940 C   0  0  1  0  0  0  0  0  0  0  0  0
  -25.4410  -31.6360   26.3440 C   0  0  0  0  0  1  0  0  0  0  0  0
  -27.1720  -30.5800   24.8850 C   0  0  0  0  0  1  0  0  0  0  0  0
  -27.6580  -32.7490   25.9840 C   0  0  0  0  0  1  0  0  0  0  0  0
  -30.8290  -19.7640   21.3140 O   0  0  0  0  0  0  0  0  0  0  0  0
  -30.3160  -18.4890   20.8640 C   0  0  0  0  0  2  0  0  0  0  0  0
  -31.2410  -17.3310   21.3620 C   0  0  0  0  0  2  0  0  0  0  0  0
  -31.4340  -14.8850   20.7070 C   0  0  0  0  0  0  0  0  0  0  0  0
  -31.1510  -12.7010   19.5850 C   0  0  0  0  0  2  0  0  0  0  0  0
  -30.2720  -12.8850   18.3320 C   0  0  0  0  0  2  0  0  0  0  0  0
  -28.7770  -12.7780   18.6950 C   0  0  0  0  0  2  0  0  0  0  0  0
  -28.3930  -13.6540   19.9190 C   0  0  0  0  0  3  0  0  0  0  0  0
  -29.3910  -13.4500   21.0810 C   0  0  0  0  0  2  0  0  0  0  0  0
  -30.7420  -13.7220   20.5660 N   0  0  0  0  0  0  0  0  0  0  0  0
  -32.5990  -15.0140   20.3210 O   0  0  0  0  0  0  0  0  0  0  0  0
  -30.7310  -15.9510   21.1500 N   0  0  0  0  0  0  0  0  0  0  0  0
  -29.7720  -15.7740   21.4110 H   0  0  0  0  0  0  0  0  0  0  0  0
  -25.9870  -14.3230   20.5350 C   0  0  0  0  0  0  0  0  0  0  0  0
  -24.8800  -13.5800   20.8440 C   0  0  0  0  0  0  0  0  0  0  0  0
  -25.3010  -12.2150   20.8130 C   0  0  0  0  0  0  0  0  0  0  0  0
  -27.0140  -13.4140   20.3360 N   0  0  0  0  0  0  0  0  0  0  0  0
  -26.6020  -12.1390   20.5640 N   0  0  0  0  0  0  0  0  0  0  0  0
  -24.5270  -10.9740   20.9510 C   0  0  0  0  0  0  0  0  0  0  0  0
  -24.9020   -9.9670   21.8690 C   0  0  0  0  0  3  0  0  0  0  0  0
  -24.1320   -8.7910   21.9960 C   0  0  0  0  0  3  0  0  0  0  0  0
  -22.9710   -8.6130   21.2060 C   0  0  0  0  0  0  0  0  0  0  0  0
  -22.6150   -9.6060   20.2770 C   0  0  0  0  0  3  0  0  0  0  0  0
  -23.3850  -10.7740   20.1480 C   0  0  0  0  0  3  0  0  0  0  0  0
  -22.1770   -7.4920   21.2450 O   0  0  0  0  0  0  0  0  0  0  0  0
  -22.0700   -6.7240   22.3760 C   0  0  0  0  0  0  0  0  0  0  0  0
  -21.6450   -7.2680   23.6080 C   0  0  0  0  0  3  0  0  0  0  0  0
  -21.4840   -6.4300   24.7290 C   0  0  0  0  0  3  0  0  0  0  0  0
  -21.7330   -5.0490   24.6180 C   0  0  0  0  0  0  0  0  0  0  0  0
  -22.1460   -4.5040   23.3900 C   0  0  0  0  0  3  0  0  0  0  0  0
  -22.3110   -5.3400   22.2720 C   0  0  0  0  0  0  0  0  0  0  0  0
  -22.6910   -4.8080   21.0860 F   0  0  0  0  0  0  0  0  0  0  0  0
  -21.5680   -4.2410   25.6920 F   0  0  0  0  0  0  0  0  0  0  0  0
  -23.4860  -14.0960   21.0610 C   0  0  0  0  0  0  0  0  0  0  0  0
  -22.7040  -13.4200   21.8950 N   0  0  0  0  0  0  0  0  0  0  0  0
  -23.0970  -15.1330   20.5230 O   0  0  0  0  0  0  0  0  0  0  0  0
  -23.0310  -12.5820   22.3550 H   0  0  0  0  0  0  0  0  0  0  0  0
  -21.7650  -13.7440   22.0810 H   0  0  0  0  0  0  0  0  0  0  0  0
  -26.2030  -15.6900   20.3880 N   0  0  0  0  0  0  0  0  0  0  0  0
  -25.4520  -16.3660   20.4720 H   0  0  0  0  0  0  0  0  0  0  0  0
  -27.0820  -16.1080   20.1110 H   0  0  0  0  0  0  0  0  0  0  0  0
  1  4  1  0
  2  8  1  0
  3  2  1  0
  3  6  1  0
  4 55  1  0
  4  2  2  0
  5  3  2  0
  7  1  2  0
  7  5  1  0
  8 11  1  0
 10 11  1  0
 10  9  1  0
 11  9  1  0
 12  5  1  0
 13 12  1  0
 13 14  1  0
 15 26  2  0
 16 14  1  0
 16 21  1  0
 17 25  1  0
 17 27  1  0
 18 24  1  0
 18 20  1  0
 19 25  1  0
 20 19  1  0
 21 20  2  0
 22 23  1  0
 22 16  2  0
 23 18  2  0
 24 17  1  0
 25 15  1  0
 27 29  2  0
 28 27  1  0
 30 28  1  0
 31 40  2  0
 31 36  1  0
 32 28  1  0
 32 36  1  0
 33 32  1  0
 34 35  1  0
 34 33  1  0
 35 31  1  0
 36 37  2  0
 37 38  1  0
 39 38  2  0
 40 39  1  0
 41 15  1  0
 41 42  1  0
 41 51  1  0
 42 45  1  0
 43 47  1  0
 43 42  1  0
 44 43  2  0
 47 46  1  0
 49 47  1  0
 49 50  1  0
 49 48  1  0
 51 54  1  1
 51 52  1  0
 53 51  1  0
 56 55  1  0
 56 57  1  0
 58 66  1  0
 59 64  1  0
 60 61  1  0
 60 59  1  0
 62 61  1  0
 62 71  1  0
 62 63  1  0
 64 58  1  0
 64 63  1  0
 65 58  2  0
 66 57  1  0
 66 67  1  0
 68 69  2  0
 69 88  1  0
 70 69  1  0
 70 73  1  0
 71 68  1  0
 71 72  1  0
 72 70  2  0
 73 74  1  0
 74 75  2  0
 76 79  1  0
 76 75  1  0
 77 76  2  0
 78 77  1  0
 78 73  2  0
 79 80  1  0
 80 81  1  0
 81 82  2  0
 83 82  1  0
 83 87  1  0
 84 83  2  0
 85 80  2  0
 85 84  1  0
 86 85  1  0
 88 89  1  0
 89 92  1  0
 89 91  1  0
 90 88  2  0
 93 94  1  0
 93 68  1  0
 95 93  1  0
M  ISO  4  13 101  14 101  58 100  66 100
M  END
>  <TORSDO>  (92) 
F 23

>  <SCORE>  (92) 
-10.955

>  <name>  (92) 
91

>  <ligand_id>  (92) 
91

>  <original_smiles>  (92) 
[H]c1nc(C([H])([H])C([H])([H])Oc2c([H])c([H])c3c(c2[H])C([H])([H])N(C(=O)C([H])(N([H])C(=O)C([H])(N([H])C([H])([H])[H])C([H])([H])[H])C(C([H])([H])[H])(C([H])([H])[H])C([H])([H])[H])C([H])(C(=O)N([H])C2([H])c4c([H])c([H])c([H])c([H])c4C([H])([H])C([H])([H])C2([H])[H])C3([H])[H])c(C([H])([H])[H])c(C([H])([H])C2([H])C([H])([H])C2([H])[H])c1OC([H])([H])C([H])([H])N([H])C(=O)N1C([H])([H])C([H])([H])C([H])([H])C([H])(n2nc(-c3c([H])c([H])c(Oc4c([H])c([H])c(F)c([H])c4F)c([H])c3[H])c(C(=O)N([H])[H])c2N([H])[H])C1([H])[H]

>  <smiles>  (92) 
[H]c1nc(C([H])([H])C([H])([H])Oc2c([H])c([H])c3c(c2[H])C([H])([H])N(C(=O)C([H])(N([H])C(=O)C([H])(N([H])C([H])([H])[H])C([H])([H])[H])C(C([H])([H])[H])(C([H])([H])[H])C([H])([H])[H])C([H])(C(=O)N([H])C2([H])c4c([H])c([H])c([H])c([H])c4C([H])([H])C([H])([H])C2([H])[H])C3([H])[H])c(C([H])([H])[H])c(C([H])([H])C2([H])C([H])([H])C2([H])[H])c1OC([H])([H])C([H])([H])N([H])C(=O)N1C([H])([H])C([H])([H])C([H])([H])C([H])(n2nc(-c3c([H])c([H])c(Oc4c([H])c([H])c(F)c([H])c4F)c([H])c3[H])c(C(=O)N([H])[H])c2N([H])[H])C1([H])[H]

$$$$
92:0:0
     RDKit          3D

 95104  0  0  1  0  0  0  0  0999 V2000
  -28.2180  -24.3170   19.1560 C   0  0  0  0  0  2  0  0  0  0  0  0
  -29.1170  -24.5900   21.4360 C   0  0  0  0  0  2  0  0  0  0  0  0
  -27.9000  -22.8220   19.4580 C   0  0  0  0  0  2  0  0  0  0  0  0
  -28.8430  -23.0750   21.7210 C   0  0  0  0  0  2  0  0  0  0  0  0
  -28.1110  -25.1910   20.4260 C   0  0  0  0  0  3  0  0  0  0  0  0
  -28.8030  -22.2230   20.4880 N   0  0  1  0  0  4  0  0  0  0  0  0
  -29.7340  -22.2530   20.0980 H   0  0  0  0  0  0  0  0  0  0  0  0
  -28.3140  -26.6170   20.1780 O   0  0  0  0  0  0  0  0  0  0  0  0
  -24.5910  -31.8980   23.2400 C   0  0  0  0  0  0  0  0  0  0  0  0
  -27.1760  -27.4180   20.1320 C   0  0  0  0  0  0  0  0  0  0  0  0
  -23.3640  -30.5040   21.6100 C   0  0  0  0  0  3  0  0  0  0  0  0
  -24.7970  -28.9750   20.1540 C   0  0  0  0  0  0  0  0  0  0  0  0
  -25.8910  -30.8530   21.3800 C   0  0  0  0  0  2  0  0  0  0  0  0
  -25.9680  -29.4830   20.7330 C   0  0  0  0  0  0  0  0  0  0  0  0
  -27.1600  -28.7130   20.7160 C   0  0  0  0  0  3  0  0  0  0  0  0
  -25.9840  -26.9500   19.5330 C   0  0  0  0  0  3  0  0  0  0  0  0
  -24.8050  -27.7130   19.5430 C   0  0  0  0  0  3  0  0  0  0  0  0
  -23.5550  -29.8370   20.2230 C   0  0  0  0  0  2  0  0  0  0  0  0
  -24.6360  -31.1000   22.1350 N   0  0  0  0  0  0  0  0  0  0  0  0
  -23.5170  -32.1670   23.7950 O   0  0  0  0  0  0  0  0  0  0  0  0
  -22.7250  -29.4760   22.5700 C   0  0  0  0  0  0  0  0  0  0  0  0
  -21.3990  -29.2890   22.4550 N   0  0  0  0  0  0  0  0  0  0  0  0
  -23.4160  -28.8540   23.3800 O   0  0  0  0  0  0  0  0  0  0  0  0
  -20.9000  -29.8490   21.7790 H   0  0  0  0  0  0  0  0  0  0  0  0
  -18.0350  -28.0670   22.9660 C   0  0  0  0  0  0  0  0  0  0  0  0
  -20.5930  -28.3440   23.2270 C   0  0  0  0  0  3  0  0  0  0  0  0
  -20.7010  -26.9120   22.6540 C   0  0  0  0  0  2  0  0  0  0  0  0
  -19.5970  -26.5800   21.6450 C   0  0  0  0  0  2  0  0  0  0  0  0
  -18.2180  -26.7170   22.2940 C   0  0  0  0  0  2  0  0  0  0  0  0
  -19.1510  -28.8370   23.3910 C   0  0  0  0  0  0  0  0  0  0  0  0
  -18.9240  -30.1020   23.9790 C   0  0  0  0  0  3  0  0  0  0  0  0
  -17.6160  -30.5950   24.1470 C   0  0  0  0  0  3  0  0  0  0  0  0
  -16.5160  -29.8210   23.7390 C   0  0  0  0  0  3  0  0  0  0  0  0
  -16.7270  -28.5580   23.1550 C   0  0  0  0  0  3  0  0  0  0  0  0
  -25.8850  -32.5260   23.8470 C   0  0  0  0  0  3  0  0  0  0  0  0
  -25.5780  -33.9210   24.1890 N   0  0  0  0  0  0  0  0  0  0  0  0
  -25.8870  -34.9780   23.4270 C   0  0  0  0  0  0  0  0  0  0  0  0
  -26.5340  -34.8820   22.3790 O   0  0  0  0  0  0  0  0  0  0  0  0
  -25.0010  -34.0720   25.0040 H   0  0  0  0  0  0  0  0  0  0  0  0
  -24.1440  -36.7660   23.1210 C   0  0  0  0  0  1  0  0  0  0  0  0
  -25.4050  -36.3620   23.9010 C   0  0  0  0  0  3  0  0  0  0  0  0
  -27.5560  -37.2510   24.6850 C   0  0  0  0  0  1  0  0  0  0  0  0
  -26.4280  -37.4210   23.7730 N   0  0  0  0  0  0  0  0  0  0  0  0
  -26.0210  -38.3370   23.9430 H   0  0  0  0  0  0  0  0  0  0  0  0
  -26.4240  -31.7460   25.1080 C   0  0  1  0  0  0  0  0  0  0  0  0
  -25.3520  -31.4940   26.1940 C   0  0  0  0  0  1  0  0  0  0  0  0
  -27.0040  -30.3730   24.6920 C   0  0  0  0  0  1  0  0  0  0  0  0
  -27.5830  -32.5360   25.7600 C   0  0  0  0  0  1  0  0  0  0  0  0
  -28.5800  -20.7440   20.7350 C   0  0  0  0  0  2  0  0  0  0  0  0
  -31.8380  -19.1100   19.3460 C   0  0  0  0  0  3  0  0  0  0  0  0
  -29.4980  -18.3160   20.5730 C   0  0  0  0  0  3  0  0  0  0  0  0
  -30.8870  -20.0990   19.6390 C   0  0  0  0  0  0  0  0  0  0  0  0
  -31.6490  -17.7380   19.6130 C   0  0  0  0  0  0  0  0  0  0  0  0
  -29.6880  -19.7210   20.2990 C   0  0  0  0  0  0  0  0  0  0  0  0
  -30.4370  -17.2750   20.2370 C   0  0  0  0  0  0  0  0  0  0  0  0
  -31.2470  -21.5220   19.2030 C   0  0  0  0  0  1  0  0  0  0  0  0
  -32.8200  -16.8800   19.1560 C   0  0  0  0  0  1  0  0  0  0  0  0
  -30.7150  -14.6630   20.4400 C   0  0  0  0  0  0  0  0  0  0  0  0
  -30.3790  -12.4440   19.3940 C   0  0  0  0  0  2  0  0  0  0  0  0
  -29.4770  -12.6010   18.1560 C   0  0  0  0  0  2  0  0  0  0  0  0
  -27.9960  -12.4660   18.5500 C   0  0  0  0  0  2  0  0  0  0  0  0
  -27.6220  -13.3250   19.7870 C   0  0  0  0  0  3  0  0  0  0  0  0
  -28.6640  -13.2240   20.9210 C   0  0  0  0  0  2  0  0  0  0  0  0
  -29.9820  -13.5080   20.3430 N   0  0  0  0  0  0  0  0  0  0  0  0
  -31.9230  -14.5940   20.2830 O   0  0  0  0  0  0  0  0  0  0  0  0
  -30.0520  -15.8660   20.5130 N   0  0  0  0  0  0  0  0  0  0  0  0
  -29.0760  -15.7350   20.7310 H   0  0  0  0  0  0  0  0  0  0  0  0
  -25.2250  -13.9080   20.4790 C   0  0  0  0  0  0  0  0  0  0  0  0
  -24.1580  -13.1280   20.8370 C   0  0  0  0  0  0  0  0  0  0  0  0
  -24.6300  -11.7770   20.8260 C   0  0  0  0  0  0  0  0  0  0  0  0
  -26.2740  -13.0290   20.2640 N   0  0  0  0  0  0  0  0  0  0  0  0
  -25.9250  -11.7480   20.5400 N   0  0  0  0  0  0  0  0  0  0  0  0
  -23.9090  -10.5140   21.0170 C   0  0  0  0  0  0  0  0  0  0  0  0
  -24.3260   -9.5580   21.9670 C   0  0  0  0  0  3  0  0  0  0  0  0
  -23.6020   -8.3600   22.1420 C   0  0  0  0  0  3  0  0  0  0  0  0
  -22.4480   -8.1080   21.3650 C   0  0  0  0  0  0  0  0  0  0  0  0
  -22.0530   -9.0490   20.4000 C   0  0  0  0  0  3  0  0  0  0  0  0
  -22.7760  -10.2400   20.2240 C   0  0  0  0  0  3  0  0  0  0  0  0
  -21.7020   -6.9560   21.4510 O   0  0  0  0  0  0  0  0  0  0  0  0
  -21.6270   -6.2280   22.6100 C   0  0  0  0  0  0  0  0  0  0  0  0
  -21.1540   -6.7910   23.8150 C   0  0  0  0  0  3  0  0  0  0  0  0
  -21.0250   -5.9870   24.9660 C   0  0  0  0  0  3  0  0  0  0  0  0
  -21.3610   -4.6230   24.9150 C   0  0  0  0  0  0  0  0  0  0  0  0
  -21.8280   -4.0580   23.7160 C   0  0  0  0  0  3  0  0  0  0  0  0
  -21.9570   -4.8580   22.5660 C   0  0  0  0  0  0  0  0  0  0  0  0
  -22.3870   -4.3000   21.4080 F   0  0  0  0  0  0  0  0  0  0  0  0
  -21.2290   -3.8530   26.0210 F   0  0  0  0  0  0  0  0  0  0  0  0
  -22.7530  -13.5960   21.0760 C   0  0  0  0  0  0  0  0  0  0  0  0
  -22.0160  -12.9030   21.9390 N   0  0  0  0  0  0  0  0  0  0  0  0
  -22.3140  -14.6090   20.5340 O   0  0  0  0  0  0  0  0  0  0  0  0
  -22.3860  -12.0870   22.4020 H   0  0  0  0  0  0  0  0  0  0  0  0
  -21.0700  -13.1970   22.1420 H   0  0  0  0  0  0  0  0  0  0  0  0
  -25.3890  -15.2790   20.2890 N   0  0  0  0  0  0  0  0  0  0  0  0
  -24.6190  -15.9380   20.3590 H   0  0  0  0  0  0  0  0  0  0  0  0
  -26.2350  -15.7050   19.9300 H   0  0  0  0  0  0  0  0  0  0  0  0
  1  3  1  0
  1  5  1  0
  2  4  1  0
  3  6  1  0
  5  8  1  0
  5  2  1  0
  6 49  1  0
  6  4  1  0
  6  7  1  6
  9 20  2  0
 10  8  1  0
 10 15  1  0
 11 19  1  0
 11 21  1  0
 12 18  1  0
 12 14  1  0
 13 19  1  0
 14 13  1  0
 15 14  2  0
 16 17  1  0
 16 10  2  0
 17 12  2  0
 18 11  1  0
 19  9  1  0
 21 23  2  0
 22 21  1  0
 24 22  1  0
 25 34  2  0
 25 30  1  0
 26 22  1  0
 26 30  1  0
 27 26  1  0
 28 29  1  0
 28 27  1  0
 29 25  1  0
 30 31  2  0
 31 32  1  0
 33 32  2  0
 34 33  1  0
 35  9  1  0
 35 36  1  0
 35 45  1  0
 36 39  1  0
 37 41  1  0
 37 36  1  0
 38 37  2  0
 41 40  1  0
 43 41  1  0
 43 44  1  0
 43 42  1  0
 45 48  1  1
 45 46  1  0
 47 45  1  0
 50 53  2  0
 50 52  1  0
 52 54  2  0
 53 55  1  0
 54 51  1  0
 54 49  1  0
 55 66  1  0
 55 51  2  0
 56 52  1  0
 57 53  1  0
 58 66  1  0
 59 64  1  0
 60 61  1  0
 60 59  1  0
 62 61  1  0
 62 71  1  0
 62 63  1  0
 64 58  1  0
 64 63  1  0
 65 58  2  0
 66 67  1  0
 68 69  2  0
 69 88  1  0
 70 69  1  0
 70 73  1  0
 71 68  1  0
 71 72  1  0
 72 70  2  0
 73 74  1  0
 74 75  2  0
 76 79  1  0
 76 75  1  0
 77 76  2  0
 78 77  1  0
 78 73  2  0
 79 80  1  0
 80 81  1  0
 81 82  2  0
 83 82  1  0
 83 87  1  0
 84 83  2  0
 85 80  2  0
 85 84  1  0
 86 85  1  0
 88 89  1  0
 89 92  1  0
 89 91  1  0
 90 88  2  0
 93 94  1  0
 93 68  1  0
 95 93  1  0
M  ISO  4   5 101   8 101  58 100  66 100
M  END
>  <TORSDO>  (93) 
F 18

>  <SCORE>  (93) 
-14.956

>  <name>  (93) 
92

>  <ligand_id>  (93) 
92

>  <original_smiles>  (93) 
[H]c1c([H])c([H])c2c(c1[H])C([H])([H])C([H])([H])C([H])([H])C2([H])N([H])C(=O)C1([H])N(C(=O)C([H])(N([H])C(=O)C([H])(N([H])C([H])([H])[H])C([H])([H])[H])C(C([H])([H])[H])(C([H])([H])[H])C([H])([H])[H])C([H])([H])c2c([H])c(OC3([H])C([H])([H])C([H])([H])[N+]([H])(C([H])([H])c4c([H])c(N([H])C(=O)N5C([H])([H])C([H])([H])C([H])([H])C([H])(n6nc(-c7c([H])c([H])c(Oc8c([H])c([H])c(F)c([H])c8F)c([H])c7[H])c(C(=O)N([H])[H])c6N([H])[H])C5([H])[H])c(C([H])([H])[H])c([H])c4C([H])([H])[H])C([H])([H])C3([H])[H])c([H])c([H])c2C1([H])[H]

>  <smiles>  (93) 
[H]c1c([H])c([H])c2c(c1[H])C([H])([H])C([H])([H])C([H])([H])C2([H])N([H])C(=O)C1([H])N(C(=O)C([H])(N([H])C(=O)C([H])(N([H])C([H])([H])[H])C([H])([H])[H])C(C([H])([H])[H])(C([H])([H])[H])C([H])([H])[H])C([H])([H])c2c([H])c(OC3([H])C([H])([H])C([H])([H])[N+]([H])(C([H])([H])c4c([H])c(N([H])C(=O)N5C([H])([H])C([H])([H])C([H])([H])C([H])(n6nc(-c7c([H])c([H])c(Oc8c([H])c([H])c(F)c([H])c8F)c([H])c7[H])c(C(=O)N([H])[H])c6N([H])[H])C5([H])[H])c(C([H])([H])[H])c([H])c4C([H])([H])[H])C([H])([H])C3([H])[H])c([H])c([H])c2C1([H])[H]

$$$$
93:0:0
     RDKit          3D

 95104  0  0  1  0  0  0  0  0999 V2000
  -30.2280  -23.8180   18.5050 C   0  0  0  0  0  3  0  0  0  0  0  0
  -30.4380  -21.0770   18.0930 C   0  0  0  0  0  3  0  0  0  0  0  0
  -30.8640  -23.3490   17.3450 C   0  0  0  0  0  0  0  0  0  0  0  0
  -29.6670  -22.9490   19.4710 C   0  0  0  0  0  0  0  0  0  0  0  0
  -30.9440  -21.9640   17.1240 C   0  0  0  0  0  0  0  0  0  0  0  0
  -29.8070  -21.5010   19.2980 C   0  0  0  0  0  0  0  0  0  0  0  0
  -31.4490  -24.3390   16.3520 C   0  0  0  0  0  1  0  0  0  0  0  0
  -31.5830  -21.4100   15.8600 C   0  0  0  0  0  1  0  0  0  0  0  0
  -29.9580  -24.0880   21.7380 C   0  0  0  0  0  1  0  0  0  0  0  0
  -28.9600  -23.7040   20.6380 C   0  0  0  0  0  3  0  0  0  0  0  0
  -28.0020  -24.9350   20.2420 C   0  0  0  0  0  2  0  0  0  0  0  0
  -28.3510  -26.3880   20.2680 O   0  0  0  0  0  0  0  0  0  0  0  0
  -24.5920  -31.8420   23.1980 C   0  0  0  0  0  0  0  0  0  0  0  0
  -27.2610  -27.2810   20.1770 C   0  0  0  0  0  0  0  0  0  0  0  0
  -23.4230  -30.4460   21.5340 C   0  0  0  0  0  3  0  0  0  0  0  0
  -24.9010  -28.9110   20.1270 C   0  0  0  0  0  0  0  0  0  0  0  0
  -25.9670  -30.7650   21.4000 C   0  0  0  0  0  2  0  0  0  0  0  0
  -26.0620  -29.3900   20.7480 C   0  0  0  0  0  0  0  0  0  0  0  0
  -27.2460  -28.5880   20.7640 C   0  0  0  0  0  3  0  0  0  0  0  0
  -26.0750  -26.8740   19.5170 C   0  0  0  0  0  3  0  0  0  0  0  0
  -24.9120  -27.6590   19.5020 C   0  0  0  0  0  3  0  0  0  0  0  0
  -23.6630  -29.7820   20.1550 C   0  0  0  0  0  2  0  0  0  0  0  0
  -24.6790  -31.0350   22.1000 N   0  0  0  0  0  0  0  0  0  0  0  0
  -23.4980  -32.1160   23.7110 O   0  0  0  0  0  0  0  0  0  0  0  0
  -22.7450  -29.4230   22.4770 C   0  0  0  0  0  0  0  0  0  0  0  0
  -21.4190  -29.2580   22.3400 N   0  0  0  0  0  0  0  0  0  0  0  0
  -23.4130  -28.7830   23.2940 O   0  0  0  0  0  0  0  0  0  0  0  0
  -20.9390  -29.8270   21.6560 H   0  0  0  0  0  0  0  0  0  0  0  0
  -18.0190  -28.1230   22.8450 C   0  0  0  0  0  0  0  0  0  0  0  0
  -20.5860  -28.3220   23.0980 C   0  0  0  0  0  3  0  0  0  0  0  0
  -20.6510  -26.9010   22.4900 C   0  0  0  0  0  2  0  0  0  0  0  0
  -19.5330  -26.6260   21.4780 C   0  0  0  0  0  2  0  0  0  0  0  0
  -18.1610  -26.7870   22.1380 C   0  0  0  0  0  2  0  0  0  0  0  0
  -19.1580  -28.8520   23.2820 C   0  0  0  0  0  0  0  0  0  0  0  0
  -18.9710  -30.1050   23.9040 C   0  0  0  0  0  3  0  0  0  0  0  0
  -17.6790  -30.6310   24.0930 C   0  0  0  0  0  3  0  0  0  0  0  0
  -16.5550  -29.8980   23.6710 C   0  0  0  0  0  3  0  0  0  0  0  0
  -16.7260  -28.6470   23.0540 C   0  0  0  0  0  3  0  0  0  0  0  0
  -25.8620  -32.4760   23.8440 C   0  0  0  0  0  3  0  0  0  0  0  0
  -26.3550  -31.7050   25.1300 C   0  0  1  0  0  0  0  0  0  0  0  0
  -25.2420  -31.4650   26.1770 C   0  0  0  0  0  1  0  0  0  0  0  0
  -26.9490  -30.3280   24.7510 C   0  0  0  0  0  1  0  0  0  0  0  0
  -27.4910  -32.5020   25.8140 C   0  0  0  0  0  1  0  0  0  0  0  0
  -25.5430  -33.8740   24.1710 N   0  0  0  0  0  0  0  0  0  0  0  0
  -25.8790  -34.9280   23.4150 C   0  0  0  0  0  0  0  0  0  0  0  0
  -26.5590  -34.8270   22.3900 O   0  0  0  0  0  0  0  0  0  0  0  0
  -24.9370  -34.0250   24.9630 H   0  0  0  0  0  0  0  0  0  0  0  0
  -24.1480  -36.7170   23.0420 C   0  0  0  0  0  1  0  0  0  0  0  0
  -25.3800  -36.3140   23.8680 C   0  0  0  0  0  3  0  0  0  0  0  0
  -27.4990  -37.2090   24.7290 C   0  0  0  0  0  1  0  0  0  0  0  0
  -26.4110  -37.3700   23.7680 N   0  0  0  0  0  0  0  0  0  0  0  0
  -26.0000  -38.2900   23.9070 H   0  0  0  0  0  0  0  0  0  0  0  0
  -29.3770  -20.5120   20.2200 O   0  0  0  0  0  0  0  0  0  0  0  0
  -30.7870  -14.6760   20.0480 C   0  0  0  0  0  0  0  0  0  0  0  0
  -30.3490  -12.4730   18.9780 C   0  0  0  0  0  2  0  0  0  0  0  0
  -29.3600  -12.5790   17.8030 C   0  0  0  0  0  2  0  0  0  0  0  0
  -27.9200  -12.4040   18.3160 C   0  0  0  0  0  2  0  0  0  0  0  0
  -27.6190  -13.2790   19.5630 C   0  0  0  0  0  3  0  0  0  0  0  0
  -28.7440  -13.1900   20.6200 C   0  0  0  0  0  2  0  0  0  0  0  0
  -29.9950  -13.5490   19.9410 N   0  0  0  0  0  0  0  0  0  0  0  0
  -31.9720  -14.5480   19.7370 O   0  0  0  0  0  0  0  0  0  0  0  0
  -30.9990  -18.5620   20.1360 C   0  0  0  0  0  2  0  0  0  0  0  0
  -28.7710  -18.0520   20.8270 C   0  0  0  0  0  2  0  0  0  0  0  0
  -31.2430  -17.0830   19.7000 C   0  0  0  0  0  2  0  0  0  0  0  0
  -28.9360  -16.5150   20.4560 C   0  0  0  0  0  2  0  0  0  0  0  0
  -29.5560  -19.0550   19.9370 C   0  0  0  0  0  3  0  0  0  0  0  0
  -30.3050  -15.9950   20.1520 N   0  0  0  0  0  0  0  0  0  0  0  0
  -25.2720  -13.8640   20.4080 C   0  0  0  0  0  0  0  0  0  0  0  0
  -24.2230  -13.0860   20.8130 C   0  0  0  0  0  0  0  0  0  0  0  0
  -24.6850  -11.7360   20.7530 C   0  0  0  0  0  0  0  0  0  0  0  0
  -26.3060  -12.9880   20.1210 N   0  0  0  0  0  0  0  0  0  0  0  0
  -25.9620  -11.7020   20.3920 N   0  0  0  0  0  0  0  0  0  0  0  0
  -23.9670  -10.4720   20.9610 C   0  0  0  0  0  0  0  0  0  0  0  0
  -24.4150   -9.5130   21.8960 C   0  0  0  0  0  3  0  0  0  0  0  0
  -23.6970   -8.3140   22.0910 C   0  0  0  0  0  3  0  0  0  0  0  0
  -22.5160   -8.0640   21.3530 C   0  0  0  0  0  0  0  0  0  0  0  0
  -22.0870   -9.0120   20.4070 C   0  0  0  0  0  3  0  0  0  0  0  0
  -22.8050  -10.2030   20.2090 C   0  0  0  0  0  3  0  0  0  0  0  0
  -21.7670   -6.9170   21.4590 O   0  0  0  0  0  0  0  0  0  0  0  0
  -21.7130   -6.1990   22.6270 C   0  0  0  0  0  0  0  0  0  0  0  0
  -21.2480   -6.7700   23.8330 C   0  0  0  0  0  3  0  0  0  0  0  0
  -21.1420   -5.9770   24.9920 C   0  0  0  0  0  3  0  0  0  0  0  0
  -21.4920   -4.6130   24.9490 C   0  0  0  0  0  0  0  0  0  0  0  0
  -21.9500   -4.0420   23.7480 C   0  0  0  0  0  3  0  0  0  0  0  0
  -22.0580   -4.8330   22.5910 C   0  0  0  0  0  0  0  0  0  0  0  0
  -22.4790   -4.2710   21.4320 F   0  0  0  0  0  0  0  0  0  0  0  0
  -21.3830   -3.8500   26.0610 F   0  0  0  0  0  0  0  0  0  0  0  0
  -22.8380  -13.5620   21.1430 C   0  0  0  0  0  0  0  0  0  0  0  0
  -22.1440  -12.8600   22.0320 N   0  0  0  0  0  0  0  0  0  0  0  0
  -22.3810  -14.5910   20.6480 O   0  0  0  0  0  0  0  0  0  0  0  0
  -22.5260  -12.0260   22.4560 H   0  0  0  0  0  0  0  0  0  0  0  0
  -21.2160  -13.1600   22.2940 H   0  0  0  0  0  0  0  0  0  0  0  0
  -25.4280  -15.2370   20.2340 N   0  0  0  0  0  0  0  0  0  0  0  0
  -24.6660  -15.8900   20.3870 H   0  0  0  0  0  0  0  0  0  0  0  0
  -26.2650  -15.6800   19.8810 H   0  0  0  0  0  0  0  0  0  0  0  0
  1  4  1  0
  2  6  1  0
  3  1  2  0
  4 10  1  0
  5  3  1  0
  5  2  2  0
  6  4  2  0
  6 53  1  0
  7  3  1  0
  8  5  1  0
 10  9  1  0
 11 12  1  0
 11 10  1  0
 13 24  2  0
 14 12  1  0
 14 19  1  0
 15 23  1  0
 15 25  1  0
 16 22  1  0
 16 18  1  0
 17 23  1  0
 18 19  2  0
 18 17  1  0
 20 14  2  0
 21 20  1  0
 21 16  2  0
 22 15  1  0
 23 13  1  0
 25 27  2  0
 26 25  1  0
 28 26  1  0
 29 38  2  0
 29 34  1  0
 30 26  1  0
 30 34  1  0
 31 30  1  0
 32 33  1  0
 32 31  1  0
 33 29  1  0
 34 35  2  0
 35 36  1  0
 37 36  2  0
 38 37  1  0
 39 13  1  0
 39 44  1  0
 39 40  1  0
 40 43  1  1
 40 41  1  0
 42 40  1  0
 44 47  1  0
 45 49  1  0
 45 44  1  0
 46 45  2  0
 49 48  1  0
 51 49  1  0
 51 52  1  0
 51 50  1  0
 54 67  1  0
 55 60  1  0
 56 57  1  0
 56 55  1  0
 58 57  1  0
 58 71  1  0
 58 59  1  0
 60 54  1  0
 60 59  1  0
 61 54  2  0
 64 62  1  0
 64 67  1  0
 65 63  1  0
 66 62  1  0
 66 53  1  0
 66 63  1  0
 67 65  1  0
 68 69  2  0
 69 88  1  0
 70 69  1  0
 70 73  1  0
 71 72  1  0
 71 68  1  0
 72 70  2  0
 73 74  1  0
 74 75  2  0
 76 79  1  0
 76 75  1  0
 77 76  2  0
 78 77  1  0
 78 73  2  0
 79 80  1  0
 80 81  1  0
 81 82  2  0
 83 82  1  0
 83 87  1  0
 84 83  2  0
 85 80  2  0
 85 84  1  0
 86 85  1  0
 88 89  1  0
 89 92  1  0
 89 91  1  0
 90 88  2  0
 93 94  1  0
 93 68  1  0
 95 93  1  0
M  ISO  4  11 101  12 101  54 100  67 100
M  END
>  <TORSDO>  (94) 
F 19

>  <SCORE>  (94) 
-14.289

>  <name>  (94) 
93

>  <ligand_id>  (94) 
93

>  <original_smiles>  (94) 
[H]c1c([H])c([H])c2c(c1[H])C([H])([H])C([H])([H])C([H])([H])C2([H])N([H])C(=O)C1([H])N(C(=O)C([H])(N([H])C(=O)C([H])(N([H])C([H])([H])[H])C([H])([H])[H])C(C([H])([H])[H])(C([H])([H])[H])C([H])([H])[H])C([H])([H])c2c([H])c(OC([H])([H])C([H])(c3c([H])c(C([H])([H])[H])c(C([H])([H])[H])c([H])c3OC3([H])C([H])([H])C([H])([H])N(C(=O)N4C([H])([H])C([H])([H])C([H])([H])C([H])(n5nc(-c6c([H])c([H])c(Oc7c([H])c([H])c(F)c([H])c7F)c([H])c6[H])c(C(=O)N([H])[H])c5N([H])[H])C4([H])[H])C([H])([H])C3([H])[H])C([H])([H])[H])c([H])c([H])c2C1([H])[H]

>  <smiles>  (94) 
[H]c1c([H])c([H])c2c(c1[H])C([H])([H])C([H])([H])C([H])([H])C2([H])N([H])C(=O)C1([H])N(C(=O)C([H])(N([H])C(=O)C([H])(N([H])C([H])([H])[H])C([H])([H])[H])C(C([H])([H])[H])(C([H])([H])[H])C([H])([H])[H])C([H])([H])c2c([H])c(OC([H])([H])C([H])(c3c([H])c(C([H])([H])[H])c(C([H])([H])[H])c([H])c3OC3([H])C([H])([H])C([H])([H])N(C(=O)N4C([H])([H])C([H])([H])C([H])([H])C([H])(n5nc(-c6c([H])c([H])c(Oc7c([H])c([H])c(F)c([H])c7F)c([H])c6[H])c(C(=O)N([H])[H])c5N([H])[H])C4([H])[H])C([H])([H])C3([H])[H])C([H])([H])[H])c([H])c([H])c2C1([H])[H]

$$$$
94:0:0
     RDKit          3D

 96105  0  0  1  0  0  0  0  0999 V2000
  -29.9740  -22.9210   19.9910 C   0  0  0  0  0  3  0  0  0  0  0  0
  -30.0890  -24.3400   20.0300 C   0  0  0  0  0  0  0  0  0  0  0  0
  -27.7090  -24.5210   20.5030 C   0  0  0  0  0  0  0  0  0  0  0  0
  -28.9700  -25.1700   20.3280 C   0  0  0  0  0  0  0  0  0  0  0  0
  -27.5980  -23.0900   20.4430 C   0  0  0  0  0  0  0  0  0  0  0  0
  -28.7420  -22.2670   20.2340 C   0  0  0  0  0  0  0  0  0  0  0  0
  -31.4560  -24.9620   19.7950 C   0  0  0  0  0  1  0  0  0  0  0  0
  -26.4880  -25.3870   20.8220 C   0  0  0  0  0  1  0  0  0  0  0  0
  -26.2420  -22.3900   20.6180 C   0  0  0  0  0  2  0  0  0  0  0  0
  -23.7980  -23.0440   21.0350 C   0  0  0  0  0  1  0  0  0  0  0  0
  -25.2570  -23.1900   21.4890 C   0  0  0  0  0  2  0  0  0  0  0  0
  -29.1540  -26.7010   20.6330 C   0  0  0  0  0  2  0  0  0  0  0  0
  -28.7990  -27.6730   19.6160 O   0  0  0  0  0  0  0  0  0  0  0  0
  -24.9540  -31.9840   23.9090 C   0  0  0  0  0  0  0  0  0  0  0  0
  -27.6590  -28.4240   19.8480 C   0  0  0  0  0  0  0  0  0  0  0  0
  -23.7740  -30.9990   21.9720 C   0  0  0  0  0  3  0  0  0  0  0  0
  -25.2520  -29.8790   20.2190 C   0  0  0  0  0  0  0  0  0  0  0  0
  -26.2950  -31.4300   21.8750 C   0  0  0  0  0  2  0  0  0  0  0  0
  -26.4040  -30.2490   20.9240 C   0  0  0  0  0  0  0  0  0  0  0  0
  -27.6130  -29.5280   20.7410 C   0  0  0  0  0  3  0  0  0  0  0  0
  -26.4950  -28.0920   19.1280 C   0  0  0  0  0  3  0  0  0  0  0  0
  -25.2950  -28.8040   19.3140 C   0  0  0  0  0  3  0  0  0  0  0  0
  -23.9950  -30.6820   20.4700 C   0  0  0  0  0  2  0  0  0  0  0  0
  -25.0260  -31.4730   22.6460 N   0  0  0  0  0  0  0  0  0  0  0  0
  -23.8700  -32.0960   24.4960 O   0  0  0  0  0  0  0  0  0  0  0  0
  -23.1390  -29.7650   22.6550 C   0  0  0  0  0  0  0  0  0  0  0  0
  -21.8270  -29.5680   22.4420 N   0  0  0  0  0  0  0  0  0  0  0  0
  -23.8260  -28.9980   23.3360 O   0  0  0  0  0  0  0  0  0  0  0  0
  -21.3340  -30.2450   21.8780 H   0  0  0  0  0  0  0  0  0  0  0  0
  -18.5030  -28.1440   22.5060 C   0  0  0  0  0  0  0  0  0  0  0  0
  -21.0320  -28.4520   22.9510 C   0  0  0  0  0  3  0  0  0  0  0  0
  -21.2330  -27.1860   22.0860 C   0  0  0  0  0  2  0  0  0  0  0  0
  -20.1870  -27.0380   20.9760 C   0  0  0  0  0  2  0  0  0  0  0  0
  -18.7770  -26.9770   21.5730 C   0  0  0  0  0  2  0  0  0  0  0  0
  -19.5620  -28.8460   23.1430 C   0  0  0  0  0  0  0  0  0  0  0  0
  -19.2520  -29.9390   23.9800 C   0  0  0  0  0  3  0  0  0  0  0  0
  -17.9170  -30.3320   24.1860 C   0  0  0  0  0  3  0  0  0  0  0  0
  -16.8720  -29.6260   23.5650 C   0  0  0  0  0  3  0  0  0  0  0  0
  -17.1660  -28.5330   22.7320 C   0  0  0  0  0  3  0  0  0  0  0  0
  -26.2300  -32.4690   24.6670 C   0  0  0  0  0  3  0  0  0  0  0  0
  -26.6750  -31.4910   25.8220 C   0  0  1  0  0  0  0  0  0  0  0  0
  -25.5370  -31.1310   26.8050 C   0  0  0  0  0  1  0  0  0  0  0  0
  -27.2320  -30.1720   25.2380 C   0  0  0  0  0  1  0  0  0  0  0  0
  -27.8270  -32.1320   26.6330 C   0  0  0  0  0  1  0  0  0  0  0  0
  -25.9470  -33.8090   25.2000 N   0  0  0  0  0  0  0  0  0  0  0  0
  -26.3870  -34.9520   24.6600 C   0  0  0  0  0  0  0  0  0  0  0  0
  -27.1430  -34.9840   23.6850 O   0  0  0  0  0  0  0  0  0  0  0  0
  -25.2890  -33.8600   25.9650 H   0  0  0  0  0  0  0  0  0  0  0  0
  -24.7720  -36.8690   24.4640 C   0  0  0  0  0  1  0  0  0  0  0  0
  -25.9150  -36.2700   25.2990 C   0  0  0  0  0  3  0  0  0  0  0  0
  -27.9940  -36.8880   26.4490 C   0  0  0  0  0  1  0  0  0  0  0  0
  -26.9940  -37.2700   25.4570 N   0  0  0  0  0  0  0  0  0  0  0  0
  -26.6110  -38.1740   25.7230 H   0  0  0  0  0  0  0  0  0  0  0  0
  -28.5670  -20.8800   20.3230 O   0  0  0  0  0  0  0  0  0  0  0  0
  -31.0140  -15.7730   20.9750 C   0  0  0  0  0  0  0  0  0  0  0  0
  -30.9220  -13.3710   20.3320 C   0  0  0  0  0  2  0  0  0  0  0  0
  -30.2120  -13.1640   18.9790 C   0  0  0  0  0  2  0  0  0  0  0  0
  -28.7030  -12.9670   19.2030 C   0  0  0  0  0  2  0  0  0  0  0  0
  -28.1080  -14.0630   20.1150 C   0  0  0  0  0  3  0  0  0  0  0  0
  -28.9600  -14.2790   21.3930 C   0  0  0  0  0  2  0  0  0  0  0  0
  -30.3330  -14.5750   20.9680 N   0  0  0  0  0  0  0  0  0  0  0  0
  -32.2370  -15.7510   20.8090 O   0  0  0  0  0  0  0  0  0  0  0  0
  -30.5330  -19.6260   21.2160 C   0  0  0  0  0  2  0  0  0  0  0  0
  -28.8590  -18.5440   19.7080 C   0  0  0  0  0  2  0  0  0  0  0  0
  -31.2610  -18.2350   21.1650 C   0  0  0  0  0  2  0  0  0  0  0  0
  -28.9940  -17.4330   20.7980 C   0  0  0  0  0  2  0  0  0  0  0  0
  -29.5780  -19.8830   20.0260 C   0  0  0  0  0  3  0  0  0  0  0  0
  -30.3950  -17.0210   21.0510 N   0  0  0  0  0  0  0  0  0  0  0  0
  -25.6670  -14.7430   20.5340 C   0  0  0  0  0  0  0  0  0  0  0  0
  -24.5420  -14.0010   20.7590 C   0  0  0  0  0  0  0  0  0  0  0  0
  -24.9720  -12.6400   20.8000 C   0  0  0  0  0  0  0  0  0  0  0  0
  -26.7070  -13.8320   20.4330 N   0  0  0  0  0  0  0  0  0  0  0  0
  -26.2880  -12.5640   20.6630 N   0  0  0  0  0  0  0  0  0  0  0  0
  -24.2010  -11.3970   20.8960 C   0  0  0  0  0  0  0  0  0  0  0  0
  -24.5600  -10.3760   21.8030 C   0  0  0  0  0  3  0  0  0  0  0  0
  -23.7930   -9.1960   21.8890 C   0  0  0  0  0  3  0  0  0  0  0  0
  -22.6540   -9.0290   21.0650 C   0  0  0  0  0  0  0  0  0  0  0  0
  -22.3160  -10.0390   20.1470 C   0  0  0  0  0  3  0  0  0  0  0  0
  -23.0840  -11.2110   20.0590 C   0  0  0  0  0  3  0  0  0  0  0  0
  -21.8630   -7.9060   21.0610 O   0  0  0  0  0  0  0  0  0  0  0  0
  -21.8630   -7.0240   22.1110 C   0  0  0  0  0  0  0  0  0  0  0  0
  -21.5580   -7.4320   23.4280 C   0  0  0  0  0  3  0  0  0  0  0  0
  -21.5030   -6.4790   24.4650 C   0  0  0  0  0  3  0  0  0  0  0  0
  -21.7430   -5.1190   24.1870 C   0  0  0  0  0  0  0  0  0  0  0  0
  -22.0430   -4.7120   22.8750 C   0  0  0  0  0  3  0  0  0  0  0  0
  -22.1010   -5.6620   21.8410 C   0  0  0  0  0  0  0  0  0  0  0  0
  -22.3690   -5.2610   20.5740 F   0  0  0  0  0  0  0  0  0  0  0  0
  -21.6810   -4.2020   25.1800 F   0  0  0  0  0  0  0  0  0  0  0  0
  -23.1320  -14.5130   20.8350 C   0  0  0  0  0  0  0  0  0  0  0  0
  -22.2840  -13.8540   21.6170 N   0  0  0  0  0  0  0  0  0  0  0  0
  -22.7860  -15.5340   20.2390 O   0  0  0  0  0  0  0  0  0  0  0  0
  -22.5730  -13.0330   22.1260 H   0  0  0  0  0  0  0  0  0  0  0  0
  -21.3340  -14.1820   21.7140 H   0  0  0  0  0  0  0  0  0  0  0  0
  -25.8830  -16.1090   20.3860 N   0  0  0  0  0  0  0  0  0  0  0  0
  -25.1330  -16.7860   20.4650 H   0  0  0  0  0  0  0  0  0  0  0  0
  -26.7870  -16.5350   20.2280 H   0  0  0  0  0  0  0  0  0  0  0  0
  1  2  2  0
  1  6  1  0
  2  4  1  0
  3  8  1  0
  4  3  2  0
  4 12  1  0
  5  3  1  0
  5  9  1  0
  6 54  1  0
  6  5  2  0
  7  2  1  0
  9 11  1  0
 10 11  1  0
 13 15  1  0
 13 12  1  0
 14 25  2  0
 15 20  1  0
 16 24  1  0
 16 26  1  0
 17 23  1  0
 17 19  1  0
 18 24  1  0
 19 18  1  0
 20 19  2  0
 21 22  1  0
 21 15  2  0
 22 17  2  0
 23 16  1  0
 24 14  1  0
 26 28  2  0
 27 26  1  0
 29 27  1  0
 30 39  2  0
 30 35  1  0
 31 27  1  0
 31 35  1  0
 32 31  1  0
 33 34  1  0
 33 32  1  0
 34 30  1  0
 35 36  2  0
 36 37  1  0
 38 37  2  0
 39 38  1  0
 40 14  1  0
 40 45  1  0
 40 41  1  0
 41 44  1  1
 41 42  1  0
 43 41  1  0
 45 48  1  0
 46 45  1  0
 46 50  1  0
 47 46  2  0
 50 49  1  0
 50 52  1  0
 52 53  1  0
 52 51  1  0
 55 68  1  0
 56 61  1  0
 57 58  1  0
 57 56  1  0
 59 58  1  0
 59 72  1  0
 59 60  1  0
 61 55  1  0
 61 60  1  0
 62 55  2  0
 64 67  1  0
 64 66  1  0
 65 63  1  0
 66 68  1  0
 67 54  1  0
 67 63  1  0
 68 65  1  0
 69 70  2  0
 70 71  1  0
 70 89  1  0
 71 74  1  0
 72 69  1  0
 72 73  1  0
 73 71  2  0
 74 75  1  0
 75 76  2  0
 77 76  1  0
 78 77  2  0
 79 78  1  0
 79 74  2  0
 80 77  1  0
 80 81  1  0
 81 82  1  0
 82 83  2  0
 84 83  1  0
 84 88  1  0
 85 84  2  0
 86 81  2  0
 86 85  1  0
 87 86  1  0
 89 90  1  0
 90 93  1  0
 90 92  1  0
 91 89  2  0
 94 95  1  0
 94 69  1  0
 96 94  1  0
M  ISO  4  12 101  13 101  55 100  68 100
M  END
>  <TORSDO>  (95) 
F 20

>  <SCORE>  (95) 
-8.887

>  <name>  (95) 
94

>  <ligand_id>  (95) 
94

>  <original_smiles>  (95) 
[H]c1c([H])c([H])c2c(c1[H])C([H])([H])C([H])([H])C([H])([H])C2([H])N([H])C(=O)C1([H])N(C(=O)C([H])(N([H])C(=O)C([H])(N([H])C([H])([H])[H])C([H])([H])[H])C(C([H])([H])[H])(C([H])([H])[H])C([H])([H])[H])C([H])([H])c2c([H])c(OC([H])([H])c3c(C([H])([H])[H])c([H])c(OC4([H])C([H])([H])C([H])([H])N(C(=O)N5C([H])([H])C([H])([H])C([H])([H])C([H])(n6nc(-c7c([H])c([H])c(Oc8c([H])c([H])c(F)c([H])c8F)c([H])c7[H])c(C(=O)N([H])[H])c6N([H])[H])C5([H])[H])C([H])([H])C4([H])[H])c(C([H])([H])C([H])([H])C([H])([H])[H])c3C([H])([H])[H])c([H])c([H])c2C1([H])[H]

>  <smiles>  (95) 
[H]c1c([H])c([H])c2c(c1[H])C([H])([H])C([H])([H])C([H])([H])C2([H])N([H])C(=O)C1([H])N(C(=O)C([H])(N([H])C(=O)C([H])(N([H])C([H])([H])[H])C([H])([H])[H])C(C([H])([H])[H])(C([H])([H])[H])C([H])([H])[H])C([H])([H])c2c([H])c(OC([H])([H])c3c(C([H])([H])[H])c([H])c(OC4([H])C([H])([H])C([H])([H])N(C(=O)N5C([H])([H])C([H])([H])C([H])([H])C([H])(n6nc(-c7c([H])c([H])c(Oc8c([H])c([H])c(F)c([H])c8F)c([H])c7[H])c(C(=O)N([H])[H])c6N([H])[H])C5([H])[H])C([H])([H])C4([H])[H])c(C([H])([H])C([H])([H])C([H])([H])[H])c3C([H])([H])[H])c([H])c([H])c2C1([H])[H]

$$$$
95:0:0
     RDKit          3D

 94103  0  0  1  0  0  0  0  0999 V2000
  -29.3530  -20.5520   20.5940 C   0  0  0  0  0  0  0  0  0  0  0  0
  -28.4880  -20.6980   19.5240 C   0  0  0  0  0  0  0  0  0  0  0  0
  -29.8340  -19.1800   20.9660 C   0  0  0  0  0  0  0  0  0  0  0  0
  -28.1280  -19.5280   18.7840 C   0  0  0  0  0  0  0  0  0  0  0  0
  -28.6390  -18.2050   19.1030 C   0  0  0  0  0  0  0  0  0  0  0  0
  -29.4990  -17.9240   20.2270 C   0  0  0  0  0  0  0  0  0  0  0  0
  -29.4950  -22.0380   21.1290 C   0  0  0  0  0  0  0  0  0  0  0  0
  -28.0090  -22.1880   19.3170 C   0  0  0  0  0  2  0  0  0  0  0  0
  -28.8850  -23.2190   20.1700 C   0  0  2  0  0  0  0  0  0  0  0  0
  -30.7160  -19.0540   22.1930 C   0  0  0  0  0  1  0  0  0  0  0  0
  -27.1390  -19.7060   17.6340 C   0  0  0  0  0  1  0  0  0  0  0  0
  -28.1910  -17.0410   18.2190 C   0  0  0  0  0  1  0  0  0  0  0  0
  -30.0220  -23.7190   19.2590 C   0  0  0  0  0  1  0  0  0  0  0  0
  -30.0600  -22.3290   22.1880 O   0  0  0  0  0  0  0  0  0  0  0  0
  -30.5090  -15.2710   20.3460 C   0  0  0  0  0  0  0  0  0  0  0  0
  -30.4840  -12.8850   19.4250 C   0  0  0  0  0  2  0  0  0  0  0  0
  -29.5530  -12.8000   18.1920 C   0  0  0  0  0  2  0  0  0  0  0  0
  -28.0970  -12.5430   18.6230 C   0  0  0  0  0  2  0  0  0  0  0  0
  -27.6640  -13.4520   19.8030 C   0  0  0  0  0  3  0  0  0  0  0  0
  -28.7200  -13.5000   20.9290 C   0  0  0  0  0  2  0  0  0  0  0  0
  -29.9740  -13.9720   20.3240 N   0  0  0  0  0  0  0  0  0  0  0  0
  -31.6930  -15.3660   20.0010 O   0  0  0  0  0  0  0  0  0  0  0  0
  -29.7050  -16.4290   20.6760 N   0  0  0  0  0  0  0  0  0  0  0  0
  -28.8650  -16.0840   21.1200 H   0  0  0  0  0  0  0  0  0  0  0  0
  -25.2790  -13.9770   20.5510 C   0  0  0  0  0  0  0  0  0  0  0  0
  -24.2280  -13.1820   20.9140 C   0  0  0  0  0  0  0  0  0  0  0  0
  -24.7140  -11.8390   20.8660 C   0  0  0  0  0  0  0  0  0  0  0  0
  -26.3350  -13.1200   20.3010 N   0  0  0  0  0  0  0  0  0  0  0  0
  -26.0070  -11.8260   20.5550 N   0  0  0  0  0  0  0  0  0  0  0  0
  -24.0040  -10.5640   21.0440 C   0  0  0  0  0  0  0  0  0  0  0  0
  -24.4400   -9.6020   21.9810 C   0  0  0  0  0  3  0  0  0  0  0  0
  -23.7290   -8.3930   22.1490 C   0  0  0  0  0  3  0  0  0  0  0  0
  -22.5690   -8.1380   21.3780 C   0  0  0  0  0  0  0  0  0  0  0  0
  -22.1540   -9.0900   20.4310 C   0  0  0  0  0  3  0  0  0  0  0  0
  -22.8650  -10.2900   20.2610 C   0  0  0  0  0  3  0  0  0  0  0  0
  -21.8320   -6.9810   21.4530 O   0  0  0  0  0  0  0  0  0  0  0  0
  -21.7580   -6.2490   22.6090 C   0  0  0  0  0  0  0  0  0  0  0  0
  -21.2390   -6.7930   23.8050 C   0  0  0  0  0  3  0  0  0  0  0  0
  -21.1190   -5.9820   24.9520 C   0  0  0  0  0  3  0  0  0  0  0  0
  -21.5070   -4.6300   24.9040 C   0  0  0  0  0  0  0  0  0  0  0  0
  -22.0190   -4.0860   23.7130 C   0  0  0  0  0  3  0  0  0  0  0  0
  -22.1420   -4.8920   22.5680 C   0  0  0  0  0  0  0  0  0  0  0  0
  -22.6150   -4.3580   21.4160 F   0  0  0  0  0  0  0  0  0  0  0  0
  -21.3840   -3.8490   26.0040 F   0  0  0  0  0  0  0  0  0  0  0  0
  -22.8230  -13.6340   21.1920 C   0  0  0  0  0  0  0  0  0  0  0  0
  -22.1050  -12.9180   22.0500 N   0  0  0  0  0  0  0  0  0  0  0  0
  -22.3710  -14.6600   20.6830 O   0  0  0  0  0  0  0  0  0  0  0  0
  -22.4820  -12.0910   22.4870 H   0  0  0  0  0  0  0  0  0  0  0  0
  -21.1630  -13.2040   22.2770 H   0  0  0  0  0  0  0  0  0  0  0  0
  -25.4180  -15.3530   20.3850 N   0  0  0  0  0  0  0  0  0  0  0  0
  -24.6380  -15.9900   20.4930 H   0  0  0  0  0  0  0  0  0  0  0  0
  -26.2550  -15.8090   20.0500 H   0  0  0  0  0  0  0  0  0  0  0  0
  -28.1300  -24.6840   20.7350 C   0  0  0  0  0  2  0  0  0  0  0  0
  -28.3670  -26.2320   20.4160 O   0  0  0  0  0  0  0  0  0  0  0  0
  -24.6270  -32.0080   23.2940 C   0  0  0  0  0  0  0  0  0  0  0  0
  -27.3080  -27.2360   20.3670 C   0  0  0  0  0  0  0  0  0  0  0  0
  -23.4730  -30.5760   21.6540 C   0  0  0  0  0  3  0  0  0  0  0  0
  -24.9660  -28.9940   20.2710 C   0  0  0  0  0  0  0  0  0  0  0  0
  -26.0310  -30.8560   21.5310 C   0  0  0  0  0  2  0  0  0  0  0  0
  -26.1320  -29.4510   20.8960 C   0  0  0  0  0  0  0  0  0  0  0  0
  -27.3030  -28.5900   20.9240 C   0  0  0  0  0  3  0  0  0  0  0  0
  -26.1150  -26.9010   19.6910 C   0  0  0  0  0  3  0  0  0  0  0  0
  -24.9740  -27.7370   19.6470 C   0  0  0  0  0  3  0  0  0  0  0  0
  -23.7270  -29.8820   20.2900 C   0  0  0  0  0  2  0  0  0  0  0  0
  -24.7290  -31.1720   22.2140 N   0  0  0  0  0  0  0  0  0  0  0  0
  -23.5270  -32.2850   23.7990 O   0  0  0  0  0  0  0  0  0  0  0  0
  -22.7910  -29.5740   22.6220 C   0  0  0  0  0  0  0  0  0  0  0  0
  -21.4770  -29.3460   22.4500 N   0  0  0  0  0  0  0  0  0  0  0  0
  -23.4500  -28.9980   23.4910 O   0  0  0  0  0  0  0  0  0  0  0  0
  -20.9970  -29.8620   21.7260 H   0  0  0  0  0  0  0  0  0  0  0  0
  -18.1380  -27.9910   22.8410 C   0  0  0  0  0  0  0  0  0  0  0  0
  -20.6650  -28.3980   23.2200 C   0  0  0  0  0  3  0  0  0  0  0  0
  -20.8660  -26.9520   22.7120 C   0  0  0  0  0  2  0  0  0  0  0  0
  -19.8330  -26.5320   21.6590 C   0  0  0  0  0  2  0  0  0  0  0  0
  -18.4160  -26.6270   22.2290 C   0  0  0  0  0  2  0  0  0  0  0  0
  -19.1940  -28.8280   23.2920 C   0  0  0  0  0  0  0  0  0  0  0  0
  -18.8790  -30.0970   23.8250 C   0  0  0  0  0  3  0  0  0  0  0  0
  -17.5430  -30.5320   23.9110 C   0  0  0  0  0  3  0  0  0  0  0  0
  -16.5010  -29.6950   23.4730 C   0  0  0  0  0  3  0  0  0  0  0  0
  -16.8000  -28.4250   22.9460 C   0  0  0  0  0  3  0  0  0  0  0  0
  -25.8850  -32.6730   23.9310 C   0  0  0  0  0  3  0  0  0  0  0  0
  -25.5510  -34.0750   24.2280 N   0  0  0  0  0  0  0  0  0  0  0  0
  -25.8790  -35.1230   23.4590 C   0  0  0  0  0  0  0  0  0  0  0  0
  -26.5600  -35.0090   22.4370 O   0  0  0  0  0  0  0  0  0  0  0  0
  -24.9450  -34.2360   25.0200 H   0  0  0  0  0  0  0  0  0  0  0  0
  -24.1370  -36.8970   23.0580 C   0  0  0  0  0  1  0  0  0  0  0  0
  -25.3720  -36.5150   23.8900 C   0  0  0  0  0  3  0  0  0  0  0  0
  -27.4840  -37.4400   24.7380 C   0  0  0  0  0  1  0  0  0  0  0  0
  -26.3960  -37.5770   23.7730 N   0  0  0  0  0  0  0  0  0  0  0  0
  -25.9790  -38.4960   23.8920 H   0  0  0  0  0  0  0  0  0  0  0  0
  -26.3790  -31.9400   25.2380 C   0  0  1  0  0  0  0  0  0  0  0  0
  -25.2610  -31.7080   26.2820 C   0  0  0  0  0  1  0  0  0  0  0  0
  -26.9950  -30.5630   24.9000 C   0  0  0  0  0  1  0  0  0  0  0  0
  -27.4980  -32.7690   25.9120 C   0  0  0  0  0  1  0  0  0  0  0  0
  1  3  1  0
  1  7  1  0
  2  1  2  0
  3 10  1  0
  4  5  2  0
  4  2  1  0
  5  6  1  0
  6 23  1  0
  6  3  2  0
  7 14  2  0
  8  2  1  0
  8  9  1  0
  9 13  1  6
  9 53  1  0
  9  7  1  0
 11  4  1  0
 12  5  1  0
 15 23  1  0
 16 21  1  0
 17 18  1  0
 17 16  1  0
 19 18  1  0
 19 28  1  0
 19 20  1  0
 21 15  1  0
 21 20  1  0
 22 15  2  0
 23 24  1  0
 25 26  2  0
 26 45  1  0
 27 26  1  0
 27 30  1  0
 28 25  1  0
 28 29  1  0
 29 27  2  0
 30 31  1  0
 31 32  2  0
 33 36  1  0
 33 32  1  0
 34 33  2  0
 35 34  1  0
 35 30  2  0
 36 37  1  0
 37 38  1  0
 38 39  2  0
 40 39  1  0
 40 44  1  0
 41 40  2  0
 42 37  2  0
 42 41  1  0
 43 42  1  0
 45 46  1  0
 46 49  1  0
 46 48  1  0
 47 45  2  0
 50 51  1  0
 50 25  1  0
 52 50  1  0
 54 53  1  0
 55 66  2  0
 56 54  1  0
 56 61  1  0
 57 65  1  0
 57 67  1  0
 58 64  1  0
 58 60  1  0
 59 65  1  0
 60 61  2  0
 60 59  1  0
 62 56  2  0
 63 62  1  0
 63 58  2  0
 64 57  1  0
 65 55  1  0
 67 69  2  0
 68 67  1  0
 70 68  1  0
 71 80  2  0
 71 76  1  0
 72 68  1  0
 72 76  1  0
 73 72  1  0
 74 75  1  0
 74 73  1  0
 75 71  1  0
 76 77  2  0
 77 78  1  0
 79 78  2  0
 80 79  1  0
 81 55  1  0
 81 82  1  0
 81 91  1  0
 82 85  1  0
 83 87  1  0
 83 82  1  0
 84 83  2  0
 87 86  1  0
 89 87  1  0
 89 90  1  0
 89 88  1  0
 91 94  1  1
 91 92  1  0
 93 91  1  0
M  ISO  4  15 100  23 100  53 101  54 101
M  END
>  <TORSDO>  (96) 
F 17

>  <SCORE>  (96) 
-15.777

>  <name>  (96) 
95

>  <ligand_id>  (96) 
95

>  <original_smiles>  (96) 
[H]c1c([H])c([H])c2c(c1[H])C([H])([H])C([H])([H])C([H])([H])C2([H])N([H])C(=O)C1([H])N(C(=O)C([H])(N([H])C(=O)C([H])(N([H])C([H])([H])[H])C([H])([H])[H])C(C([H])([H])[H])(C([H])([H])[H])C([H])([H])[H])C([H])([H])c2c([H])c(OC([H])([H])C3(C([H])([H])[H])C(=O)c4c(C([H])([H])[H])c(N([H])C(=O)N5C([H])([H])C([H])([H])C([H])([H])C([H])(n6nc(-c7c([H])c([H])c(Oc8c([H])c([H])c(F)c([H])c8F)c([H])c7[H])c(C(=O)N([H])[H])c6N([H])[H])C5([H])[H])c(C([H])([H])[H])c(C([H])([H])[H])c4C3([H])[H])c([H])c([H])c2C1([H])[H]

>  <smiles>  (96) 
[H]c1c([H])c([H])c2c(c1[H])C([H])([H])C([H])([H])C([H])([H])C2([H])N([H])C(=O)C1([H])N(C(=O)C([H])(N([H])C(=O)C([H])(N([H])C([H])([H])[H])C([H])([H])[H])C(C([H])([H])[H])(C([H])([H])[H])C([H])([H])[H])C([H])([H])c2c([H])c(OC([H])([H])C3(C([H])([H])[H])C(=O)c4c(C([H])([H])[H])c(N([H])C(=O)N5C([H])([H])C([H])([H])C([H])([H])C([H])(n6nc(-c7c([H])c([H])c(Oc8c([H])c([H])c(F)c([H])c8F)c([H])c7[H])c(C(=O)N([H])[H])c6N([H])[H])C5([H])[H])c(C([H])([H])[H])c(C([H])([H])[H])c4C3([H])[H])c([H])c([H])c2C1([H])[H]

$$$$
96:0:0
     RDKit          3D

 96105  0  0  1  0  0  0  0  0999 V2000
  -31.1250  -21.9010   17.9880 C   0  0  0  0  0  2  0  0  0  0  0  0
  -30.3300  -23.1850   18.1610 C   0  0  0  0  0  2  0  0  0  0  0  0
  -31.2760  -21.4110   19.4230 C   0  0  0  0  0  2  0  0  0  0  0  0
  -29.3950  -22.9220   19.3610 C   0  0  0  0  0  3  0  0  0  0  0  0
  -30.0150  -21.7710   20.1190 N   0  0  1  0  0  4  0  0  0  0  0  0
  -30.2760  -22.1010   21.0360 H   0  0  0  0  0  0  0  0  0  0  0  0
  -29.1230  -20.5810   20.3570 C   0  0  0  0  0  2  0  0  0  0  0  0
  -31.1110  -18.2920   22.7970 C   0  0  0  0  0  3  0  0  0  0  0  0
  -29.6060  -18.0360   20.4560 C   0  0  0  0  0  3  0  0  0  0  0  0
  -30.5350  -19.4440   22.2190 C   0  0  0  0  0  0  0  0  0  0  0  0
  -30.9260  -17.0120   22.2390 C   0  0  0  0  0  0  0  0  0  0  0  0
  -29.7860  -19.3370   21.0170 C   0  0  0  0  0  0  0  0  0  0  0  0
  -30.1640  -16.8670   21.0550 C   0  0  0  0  0  0  0  0  0  0  0  0
  -30.7260  -20.7670   22.9430 C   0  0  0  0  0  1  0  0  0  0  0  0
  -31.4990  -15.8100   22.9760 C   0  0  0  0  0  1  0  0  0  0  0  0
  -30.5780  -14.5540   20.1180 C   0  0  0  0  0  0  0  0  0  0  0  0
  -30.2630  -12.4120   18.9170 C   0  0  0  0  0  2  0  0  0  0  0  0
  -29.2550  -12.6370   17.7700 C   0  0  0  0  0  2  0  0  0  0  0  0
  -27.8030  -12.4870   18.2730 C   0  0  0  0  0  2  0  0  0  0  0  0
  -27.5290  -13.2890   19.5730 C   0  0  0  0  0  3  0  0  0  0  0  0
  -28.6400  -13.0300   20.6170 C   0  0  0  0  0  2  0  0  0  0  0  0
  -29.9260  -13.3660   19.9840 N   0  0  0  0  0  0  0  0  0  0  0  0
  -31.7130  -14.7490   19.6660 O   0  0  0  0  0  0  0  0  0  0  0  0
  -29.8020  -15.5650   20.5790 N   0  0  0  0  0  0  0  0  0  0  0  0
  -28.8340  -15.3160   20.7070 H   0  0  0  0  0  0  0  0  0  0  0  0
  -25.1710  -13.8900   20.4080 C   0  0  0  0  0  0  0  0  0  0  0  0
  -24.1210  -13.1140   20.8180 C   0  0  0  0  0  0  0  0  0  0  0  0
  -24.5790  -11.7630   20.7470 C   0  0  0  0  0  0  0  0  0  0  0  0
  -26.2010  -13.0100   20.1130 N   0  0  0  0  0  0  0  0  0  0  0  0
  -25.8510  -11.7270   20.3740 N   0  0  0  0  0  0  0  0  0  0  0  0
  -23.8610  -10.4980   20.9510 C   0  0  0  0  0  0  0  0  0  0  0  0
  -24.3140   -9.5330   21.8780 C   0  0  0  0  0  3  0  0  0  0  0  0
  -23.5980   -8.3330   22.0690 C   0  0  0  0  0  3  0  0  0  0  0  0
  -22.4110   -8.0890   21.3360 C   0  0  0  0  0  0  0  0  0  0  0  0
  -21.9770   -9.0440   20.3990 C   0  0  0  0  0  3  0  0  0  0  0  0
  -22.6950  -10.2350   20.2040 C   0  0  0  0  0  3  0  0  0  0  0  0
  -21.6650   -6.9410   21.4380 O   0  0  0  0  0  0  0  0  0  0  0  0
  -21.6220   -6.2120   22.5990 C   0  0  0  0  0  0  0  0  0  0  0  0
  -21.2020   -6.7820   23.8220 C   0  0  0  0  0  3  0  0  0  0  0  0
  -21.1060   -5.9780   24.9760 C   0  0  0  0  0  3  0  0  0  0  0  0
  -21.4190   -4.6070   24.9090 C   0  0  0  0  0  0  0  0  0  0  0  0
  -21.8320   -4.0380   23.6910 C   0  0  0  0  0  3  0  0  0  0  0  0
  -21.9300   -4.8390   22.5390 C   0  0  0  0  0  0  0  0  0  0  0  0
  -22.3080   -4.2820   21.3640 F   0  0  0  0  0  0  0  0  0  0  0  0
  -21.3200   -3.8330   26.0140 F   0  0  0  0  0  0  0  0  0  0  0  0
  -22.7380  -13.5880   21.1620 C   0  0  0  0  0  0  0  0  0  0  0  0
  -22.0500  -12.8810   22.0520 N   0  0  0  0  0  0  0  0  0  0  0  0
  -22.2790  -14.6220   20.6800 O   0  0  0  0  0  0  0  0  0  0  0  0
  -22.4350  -12.0450   22.4670 H   0  0  0  0  0  0  0  0  0  0  0  0
  -21.1250  -13.1800   22.3240 H   0  0  0  0  0  0  0  0  0  0  0  0
  -25.3270  -15.2640   20.2420 N   0  0  0  0  0  0  0  0  0  0  0  0
  -24.5580  -15.9080   20.3860 H   0  0  0  0  0  0  0  0  0  0  0  0
  -26.1470  -15.7090   19.8500 H   0  0  0  0  0  0  0  0  0  0  0  0
  -29.1590  -24.2400   20.1870 C   0  0  0  0  0  2  0  0  0  0  0  0
  -28.5610  -25.4260   19.3560 C   0  0  0  0  0  2  0  0  0  0  0  0
  -28.4060  -26.6780   20.0830 O   0  0  0  0  0  0  0  0  0  0  0  0
  -24.6260  -31.8870   23.2030 C   0  0  0  0  0  0  0  0  0  0  0  0
  -27.2220  -27.4140   20.0560 C   0  0  0  0  0  0  0  0  0  0  0  0
  -23.4010  -30.4970   21.5710 C   0  0  0  0  0  3  0  0  0  0  0  0
  -24.8320  -28.9660   20.1170 C   0  0  0  0  0  0  0  0  0  0  0  0
  -25.9310  -30.8380   21.3490 C   0  0  0  0  0  2  0  0  0  0  0  0
  -26.0030  -29.4690   20.6950 C   0  0  0  0  0  0  0  0  0  0  0  0
  -27.1950  -28.7000   20.6640 C   0  0  0  0  0  3  0  0  0  0  0  0
  -26.0170  -26.9400   19.4800 C   0  0  0  0  0  3  0  0  0  0  0  0
  -24.8370  -27.7030   19.5100 C   0  0  0  0  0  3  0  0  0  0  0  0
  -23.5930  -29.8320   20.1840 C   0  0  0  0  0  2  0  0  0  0  0  0
  -24.6720  -31.0890   22.0980 N   0  0  0  0  0  0  0  0  0  0  0  0
  -23.5520  -32.1580   23.7570 O   0  0  0  0  0  0  0  0  0  0  0  0
  -22.7600  -29.4670   22.5330 C   0  0  0  0  0  0  0  0  0  0  0  0
  -21.4330  -29.2870   22.4220 N   0  0  0  0  0  0  0  0  0  0  0  0
  -23.4530  -28.8370   23.3340 O   0  0  0  0  0  0  0  0  0  0  0  0
  -20.9340  -29.8480   21.7460 H   0  0  0  0  0  0  0  0  0  0  0  0
  -18.0660  -28.0890   22.9570 C   0  0  0  0  0  0  0  0  0  0  0  0
  -20.6260  -28.3460   23.1990 C   0  0  0  0  0  3  0  0  0  0  0  0
  -20.7220  -26.9180   22.6150 C   0  0  0  0  0  2  0  0  0  0  0  0
  -19.6090  -26.5990   21.6140 C   0  0  0  0  0  2  0  0  0  0  0  0
  -18.2340  -26.7420   22.2750 C   0  0  0  0  0  2  0  0  0  0  0  0
  -19.1900  -28.8480   23.3780 C   0  0  0  0  0  0  0  0  0  0  0  0
  -18.9790  -30.1090   23.9770 C   0  0  0  0  0  3  0  0  0  0  0  0
  -17.6760  -30.6110   24.1600 C   0  0  0  0  0  3  0  0  0  0  0  0
  -16.5670  -29.8480   23.7560 C   0  0  0  0  0  3  0  0  0  0  0  0
  -16.7630  -28.5890   23.1610 C   0  0  0  0  0  3  0  0  0  0  0  0
  -25.9190  -32.5160   23.8090 C   0  0  0  0  0  3  0  0  0  0  0  0
  -26.4600  -31.7330   25.0680 C   0  0  1  0  0  0  0  0  0  0  0  0
  -25.3860  -31.4830   26.1530 C   0  0  0  0  0  1  0  0  0  0  0  0
  -27.0390  -30.3610   24.6530 C   0  0  0  0  0  1  0  0  0  0  0  0
  -27.6190  -32.5250   25.7190 C   0  0  0  0  0  1  0  0  0  0  0  0
  -25.6110  -33.9100   24.1570 N   0  0  0  0  0  0  0  0  0  0  0  0
  -25.9330  -34.9700   23.4040 C   0  0  0  0  0  0  0  0  0  0  0  0
  -26.5920  -34.8790   22.3650 O   0  0  0  0  0  0  0  0  0  0  0  0
  -25.0250  -34.0550   24.9660 H   0  0  0  0  0  0  0  0  0  0  0  0
  -24.1990  -36.7630   23.0820 C   0  0  0  0  0  1  0  0  0  0  0  0
  -25.4470  -36.3530   23.8810 C   0  0  0  0  0  3  0  0  0  0  0  0
  -27.5870  -37.2290   24.7070 C   0  0  0  0  0  1  0  0  0  0  0  0
  -26.4770  -37.4090   23.7730 N   0  0  0  0  0  0  0  0  0  0  0  0
  -26.0720  -38.3260   23.9360 H   0  0  0  0  0  0  0  0  0  0  0  0
  1  2  1  0
  1  3  1  0
  2  4  1  0
  3  5  1  0
  4  5  1  0
  4 54  1  0
  5  7  1  0
  5  6  1  1
  7 12  1  0
  9 12  2  0
  9 13  1  0
 10  8  2  0
 10 14  1  0
 11  8  1  0
 11 15  1  0
 12 10  1  0
 13 11  2  0
 16 24  1  0
 17 22  1  0
 18 19  1  0
 18 17  1  0
 20 19  1  0
 20 29  1  0
 20 21  1  0
 22 16  1  0
 22 21  1  0
 23 16  2  0
 24 25  1  0
 24 13  1  0
 26 27  2  0
 27 46  1  0
 28 27  1  0
 28 31  1  0
 29 30  1  0
 29 26  1  0
 30 28  2  0
 31 32  1  0
 32 33  2  0
 34 37  1  0
 34 33  1  0
 35 34  2  0
 36 35  1  0
 36 31  2  0
 37 38  1  0
 38 39  1  0
 39 40  2  0
 41 40  1  0
 41 45  1  0
 42 41  2  0
 43 38  2  0
 43 42  1  0
 44 43  1  0
 46 47  1  0
 47 50  1  0
 47 49  1  0
 48 46  2  0
 51 52  1  0
 51 26  1  0
 53 51  1  0
 55 56  1  0
 55 54  1  0
 57 68  2  0
 58 56  1  0
 58 63  1  0
 59 67  1  0
 59 69  1  0
 60 66  1  0
 60 62  1  0
 61 67  1  0
 62 61  1  0
 63 62  2  0
 64 65  1  0
 64 58  2  0
 65 60  2  0
 66 59  1  0
 67 57  1  0
 69 71  2  0
 70 69  1  0
 72 70  1  0
 73 82  2  0
 73 78  1  0
 74 70  1  0
 74 78  1  0
 75 74  1  0
 76 77  1  0
 76 75  1  0
 77 73  1  0
 78 79  2  0
 79 80  1  0
 81 80  2  0
 82 81  1  0
 83 57  1  0
 83 88  1  0
 83 84  1  0
 84 87  1  1
 84 85  1  0
 86 84  1  0
 88 91  1  0
 89 93  1  0
 89 88  1  0
 90 89  2  0
 93 92  1  0
 95 93  1  0
 95 96  1  0
 95 94  1  0
M  ISO  4  16 100  24 100  55 101  56 101
M  END
>  <TORSDO>  (97) 
F 20

>  <SCORE>  (97) 
-11.922

>  <name>  (97) 
96

>  <ligand_id>  (97) 
96

>  <original_smiles>  (97) 
[H]c1c([H])c([H])c2c(c1[H])C([H])([H])C([H])([H])C([H])([H])C2([H])N([H])C(=O)C1([H])N(C(=O)C([H])(N([H])C(=O)C([H])(N([H])C([H])([H])[H])C([H])([H])[H])C(C([H])([H])[H])(C([H])([H])[H])C([H])([H])[H])C([H])([H])c2c([H])c(OC([H])([H])C([H])([H])C3([H])C([H])([H])C([H])([H])C([H])([H])[N+]3([H])C([H])([H])c3c([H])c(N([H])C(=O)N4C([H])([H])C([H])([H])C([H])([H])C([H])(n5nc(-c6c([H])c([H])c(Oc7c([H])c([H])c(F)c([H])c7F)c([H])c6[H])c(C(=O)N([H])[H])c5N([H])[H])C4([H])[H])c(C([H])([H])[H])c([H])c3C([H])([H])[H])c([H])c([H])c2C1([H])[H]

>  <smiles>  (97) 
[H]c1c([H])c([H])c2c(c1[H])C([H])([H])C([H])([H])C([H])([H])C2([H])N([H])C(=O)C1([H])N(C(=O)C([H])(N([H])C(=O)C([H])(N([H])C([H])([H])[H])C([H])([H])[H])C(C([H])([H])[H])(C([H])([H])[H])C([H])([H])[H])C([H])([H])c2c([H])c(OC([H])([H])C([H])([H])C3([H])C([H])([H])C([H])([H])C([H])([H])[N+]3([H])C([H])([H])c3c([H])c(N([H])C(=O)N4C([H])([H])C([H])([H])C([H])([H])C([H])(n5nc(-c6c([H])c([H])c(Oc7c([H])c([H])c(F)c([H])c7F)c([H])c6[H])c(C(=O)N([H])[H])c5N([H])[H])C4([H])[H])c(C([H])([H])[H])c([H])c3C([H])([H])[H])c([H])c([H])c2C1([H])[H]

$$$$
97:0:0
     RDKit          3D

 98107  0  0  1  0  0  0  0  0999 V2000
  -28.2500  -21.6800   20.9340 C   0  0  0  0  0  2  0  0  0  0  0  0
  -29.5490  -21.5330   18.7330 C   0  0  0  0  0  2  0  0  0  0  0  0
  -29.4560  -22.5520   21.3680 C   0  0  0  0  0  2  0  0  0  0  0  0
  -29.5840  -23.0540   18.9010 C   0  0  0  0  0  2  0  0  0  0  0  0
  -28.4820  -20.8600   19.6330 C   0  0  0  0  0  3  0  0  0  0  0  0
  -29.9970  -23.4270   20.2810 N   0  0  1  0  0  4  0  0  0  0  0  0
  -30.9820  -23.1990   20.2990 H   0  0  0  0  0  0  0  0  0  0  0  0
  -29.5700  -18.8640   20.8680 C   0  0  0  0  0  3  0  0  0  0  0  0
  -29.0260  -17.1980   18.6920 C   0  0  0  0  0  3  0  0  0  0  0  0
  -28.8180  -19.3680   19.7810 C   0  0  0  0  0  0  0  0  0  0  0  0
  -29.9210  -16.7520   19.6920 C   0  0  0  0  0  0  0  0  0  0  0  0
  -30.0960  -17.5440   20.8550 C   0  0  0  0  0  0  0  0  0  0  0  0
  -28.4730  -18.4970   18.7190 C   0  0  0  0  0  0  0  0  0  0  0  0
  -31.2690  -14.7420   20.2730 C   0  0  0  0  0  0  0  0  0  0  0  0
  -30.9450  -12.5160   19.3720 C   0  0  0  0  0  2  0  0  0  0  0  0
  -30.0070  -12.6360   18.1500 C   0  0  0  0  0  2  0  0  0  0  0  0
  -28.5320  -12.5950   18.5820 C   0  0  0  0  0  2  0  0  0  0  0  0
  -28.1940  -13.4960   19.8010 C   0  0  0  0  0  3  0  0  0  0  0  0
  -29.2550  -13.3760   20.9170 C   0  0  0  0  0  2  0  0  0  0  0  0
  -30.5790  -13.5770   20.3140 N   0  0  0  0  0  0  0  0  0  0  0  0
  -32.4930  -14.7900   20.3950 O   0  0  0  0  0  0  0  0  0  0  0  0
  -31.4770  -15.7500   18.1090 C   0  0  0  0  0  1  0  0  0  0  0  0
  -30.7240  -15.6060   19.3780 N   0  0  0  0  0  0  0  0  0  0  0  0
  -25.8070  -14.1240   20.5290 C   0  0  0  0  0  0  0  0  0  0  0  0
  -24.7230  -13.3570   20.8710 C   0  0  0  0  0  0  0  0  0  0  0  0
  -25.1700  -12.0010   20.8210 C   0  0  0  0  0  0  0  0  0  0  0  0
  -26.8420  -13.2330   20.2890 N   0  0  0  0  0  0  0  0  0  0  0  0
  -26.4630  -11.9520   20.5320 N   0  0  0  0  0  0  0  0  0  0  0  0
  -24.4260  -10.7440   20.9720 C   0  0  0  0  0  0  0  0  0  0  0  0
  -24.7900   -9.7860   21.9430 C   0  0  0  0  0  3  0  0  0  0  0  0
  -24.0500   -8.5900   22.0820 C   0  0  0  0  0  3  0  0  0  0  0  0
  -22.9310   -8.3470   21.2500 C   0  0  0  0  0  0  0  0  0  0  0  0
  -22.5880   -9.2940   20.2680 C   0  0  0  0  0  3  0  0  0  0  0  0
  -23.3280  -10.4800   20.1290 C   0  0  0  0  0  3  0  0  0  0  0  0
  -22.1680   -7.2060   21.2970 O   0  0  0  0  0  0  0  0  0  0  0  0
  -21.9560   -6.5300   22.4700 C   0  0  0  0  0  0  0  0  0  0  0  0
  -21.3660   -7.1510   23.5940 C   0  0  0  0  0  3  0  0  0  0  0  0
  -21.1040   -6.4010   24.7580 C   0  0  0  0  0  3  0  0  0  0  0  0
  -21.4230   -5.0310   24.7990 C   0  0  0  0  0  0  0  0  0  0  0  0
  -22.0040   -4.4090   23.6800 C   0  0  0  0  0  3  0  0  0  0  0  0
  -22.2690   -5.1570   22.5200 C   0  0  0  0  0  0  0  0  0  0  0  0
  -22.8110   -4.5480   21.4370 F   0  0  0  0  0  0  0  0  0  0  0  0
  -21.1660   -4.3080   25.9140 F   0  0  0  0  0  0  0  0  0  0  0  0
  -23.3290  -13.8480   21.1300 C   0  0  0  0  0  0  0  0  0  0  0  0
  -22.5830  -13.1540   21.9810 N   0  0  0  0  0  0  0  0  0  0  0  0
  -22.9090  -14.8820   20.6140 O   0  0  0  0  0  0  0  0  0  0  0  0
  -22.9350  -12.3200   22.4280 H   0  0  0  0  0  0  0  0  0  0  0  0
  -21.6450  -13.4650   22.1910 H   0  0  0  0  0  0  0  0  0  0  0  0
  -25.9970  -15.4940   20.3810 N   0  0  0  0  0  0  0  0  0  0  0  0
  -25.2440  -16.1630   20.4990 H   0  0  0  0  0  0  0  0  0  0  0  0
  -26.8660  -15.9200   20.0870 H   0  0  0  0  0  0  0  0  0  0  0  0
  -30.5760  -17.6010   23.1820 C   0  0  0  0  0  1  0  0  0  0  0  0
  -30.8480  -17.0570   21.8990 O   0  0  0  0  0  0  0  0  0  0  0  0
  -27.8220  -18.4740   16.3970 C   0  0  0  0  0  1  0  0  0  0  0  0
  -27.6630  -18.9880   17.7140 O   0  0  0  0  0  0  0  0  0  0  0  0
  -30.0000  -24.8980   20.5480 C   0  0  0  0  0  2  0  0  0  0  0  0
  -28.6100  -25.5400   20.7120 C   0  0  0  0  0  2  0  0  0  0  0  0
  -28.6940  -26.9570   20.4810 O   0  0  0  0  0  0  0  0  0  0  0  0
  -24.6540  -31.9920   23.4450 C   0  0  0  0  0  0  0  0  0  0  0  0
  -27.5020  -27.6450   20.4290 C   0  0  0  0  0  0  0  0  0  0  0  0
  -23.5410  -30.5910   21.7400 C   0  0  0  0  0  3  0  0  0  0  0  0
  -25.0780  -29.1030   20.3570 C   0  0  0  0  0  0  0  0  0  0  0  0
  -26.0640  -31.0050   21.6430 C   0  0  0  0  0  2  0  0  0  0  0  0
  -26.2020  -29.6440   20.9940 C   0  0  0  0  0  0  0  0  0  0  0  0
  -27.4160  -28.9230   21.0260 C   0  0  0  0  0  3  0  0  0  0  0  0
  -26.3600  -27.1250   19.7740 C   0  0  0  0  0  3  0  0  0  0  0  0
  -25.1530  -27.8420   19.7440 C   0  0  0  0  0  3  0  0  0  0  0  0
  -23.8160  -29.9340   20.3620 C   0  0  0  0  0  2  0  0  0  0  0  0
  -24.7700  -31.2070   22.3360 N   0  0  0  0  0  0  0  0  0  0  0  0
  -23.5480  -32.2330   23.9470 O   0  0  0  0  0  0  0  0  0  0  0  0
  -22.8780  -29.5400   22.6590 C   0  0  0  0  0  0  0  0  0  0  0  0
  -21.5610  -29.3400   22.4890 N   0  0  0  0  0  0  0  0  0  0  0  0
  -23.5450  -28.9060   23.4810 O   0  0  0  0  0  0  0  0  0  0  0  0
  -21.0780  -29.9070   21.8050 H   0  0  0  0  0  0  0  0  0  0  0  0
  -18.1870  -28.1160   22.8950 C   0  0  0  0  0  0  0  0  0  0  0  0
  -20.7360  -28.3780   23.2210 C   0  0  0  0  0  3  0  0  0  0  0  0
  -20.8560  -26.9610   22.6120 C   0  0  0  0  0  2  0  0  0  0  0  0
  -19.7750  -26.6600   21.5680 C   0  0  0  0  0  2  0  0  0  0  0  0
  -18.3820  -26.7830   22.1900 C   0  0  0  0  0  2  0  0  0  0  0  0
  -19.2930  -28.8710   23.3660 C   0  0  0  0  0  0  0  0  0  0  0  0
  -19.0590  -30.1180   23.9840 C   0  0  0  0  0  3  0  0  0  0  0  0
  -17.7500  -30.6120   24.1360 C   0  0  0  0  0  3  0  0  0  0  0  0
  -16.6560  -29.8530   23.6820 C   0  0  0  0  0  3  0  0  0  0  0  0
  -16.8760  -28.6070   23.0680 C   0  0  0  0  0  3  0  0  0  0  0  0
  -25.9020  -32.6450   24.1180 C   0  0  0  0  0  3  0  0  0  0  0  0
  -25.5610  -34.0410   24.4210 N   0  0  0  0  0  0  0  0  0  0  0  0
  -25.9130  -35.0900   23.6660 C   0  0  0  0  0  0  0  0  0  0  0  0
  -26.6310  -34.9850   22.6670 O   0  0  0  0  0  0  0  0  0  0  0  0
  -24.9370  -34.1950   25.1990 H   0  0  0  0  0  0  0  0  0  0  0  0
  -24.1770  -36.8520   23.2130 C   0  0  0  0  0  1  0  0  0  0  0  0
  -25.3880  -36.4770   24.0840 C   0  0  0  0  0  3  0  0  0  0  0  0
  -27.4720  -37.4020   24.9930 C   0  0  0  0  0  1  0  0  0  0  0  0
  -26.4090  -37.5450   24.0020 N   0  0  0  0  0  0  0  0  0  0  0  0
  -25.9840  -38.4600   24.1250 H   0  0  0  0  0  0  0  0  0  0  0  0
  -26.3720  -31.8890   25.4210 C   0  0  1  0  0  0  0  0  0  0  0  0
  -25.2300  -31.6230   26.4300 C   0  0  0  0  0  1  0  0  0  0  0  0
  -27.0160  -30.5290   25.0640 C   0  0  0  0  0  1  0  0  0  0  0  0
  -27.4610  -32.7160   26.1460 C   0  0  0  0  0  1  0  0  0  0  0  0
  1  3  1  0
  2  4  1  0
  2  5  1  0
  4  6  1  0
  5 10  1  0
  5  1  1  0
  6  7  1  6
  6 56  1  0
  6  3  1  0
  9 13  2  0
  9 11  1  0
 10  8  2  0
 11 12  2  0
 12  8  1  0
 12 53  1  0
 13 10  1  0
 14 20  1  0
 14 21  2  0
 15 20  1  0
 16 17  1  0
 16 15  1  0
 18 17  1  0
 18 27  1  0
 18 19  1  0
 20 19  1  0
 22 23  1  0
 23 11  1  0
 23 14  1  0
 24 25  2  0
 25 44  1  0
 26 25  1  0
 26 29  1  0
 27 24  1  0
 27 28  1  0
 28 26  2  0
 29 30  1  0
 30 31  2  0
 32 35  1  0
 32 31  1  0
 33 32  2  0
 34 33  1  0
 34 29  2  0
 35 36  1  0
 36 41  2  0
 36 37  1  0
 37 38  2  0
 38 39  1  0
 39 43  1  0
 40 39  2  0
 41 40  1  0
 42 41  1  0
 44 45  1  0
 45 48  1  0
 45 47  1  0
 46 44  2  0
 49 50  1  0
 49 24  1  0
 51 49  1  0
 53 52  1  0
 54 55  1  0
 55 13  1  0
 56 57  1  0
 58 57  1  0
 59 70  2  0
 60 58  1  0
 60 65  1  0
 61 69  1  0
 61 71  1  0
 62 68  1  0
 62 64  1  0
 63 69  1  0
 64 65  2  0
 64 63  1  0
 66 60  2  0
 67 66  1  0
 67 62  2  0
 68 61  1  0
 69 59  1  0
 71 73  2  0
 72 71  1  0
 74 72  1  0
 75 84  2  0
 75 80  1  0
 76 72  1  0
 76 80  1  0
 77 76  1  0
 78 79  1  0
 78 77  1  0
 79 75  1  0
 80 81  2  0
 81 82  1  0
 83 82  2  0
 84 83  1  0
 85 59  1  0
 85 86  1  0
 85 95  1  0
 86 89  1  0
 87 91  1  0
 87 86  1  0
 88 87  2  0
 91 90  1  0
 93 91  1  0
 93 94  1  0
 93 92  1  0
 95 98  1  1
 95 96  1  0
 97 95  1  0
M  ISO  4  14 100  23 100  57 101  58 101
M  END
>  <TORSDO>  (98) 
F 21

>  <SCORE>  (98) 
-12.736

>  <name>  (98) 
97

>  <ligand_id>  (98) 
97

>  <original_smiles>  (98) 
[H]c1c([H])c([H])c2c(c1[H])C([H])([H])C([H])([H])C([H])([H])C2([H])N([H])C(=O)C1([H])N(C(=O)C([H])(N([H])C(=O)C([H])(N([H])C([H])([H])[H])C([H])([H])[H])C(C([H])([H])[H])(C([H])([H])[H])C([H])([H])[H])C([H])([H])c2c([H])c(OC([H])([H])C([H])([H])[N+]3([H])C([H])([H])C([H])([H])C([H])(c4c([H])c(OC([H])([H])[H])c(N(C(=O)N5C([H])([H])C([H])([H])C([H])([H])C([H])(n6nc(-c7c([H])c([H])c(Oc8c([H])c([H])c(F)c([H])c8F)c([H])c7[H])c(C(=O)N([H])[H])c6N([H])[H])C5([H])[H])C([H])([H])[H])c([H])c4OC([H])([H])[H])C([H])([H])C3([H])[H])c([H])c([H])c2C1([H])[H]

>  <smiles>  (98) 
[H]c1c([H])c([H])c2c(c1[H])C([H])([H])C([H])([H])C([H])([H])C2([H])N([H])C(=O)C1([H])N(C(=O)C([H])(N([H])C(=O)C([H])(N([H])C([H])([H])[H])C([H])([H])[H])C(C([H])([H])[H])(C([H])([H])[H])C([H])([H])[H])C([H])([H])c2c([H])c(OC([H])([H])C([H])([H])[N+]3([H])C([H])([H])C([H])([H])C([H])(c4c([H])c(OC([H])([H])[H])c(N(C(=O)N5C([H])([H])C([H])([H])C([H])([H])C([H])(n6nc(-c7c([H])c([H])c(Oc8c([H])c([H])c(F)c([H])c8F)c([H])c7[H])c(C(=O)N([H])[H])c6N([H])[H])C5([H])[H])C([H])([H])[H])c([H])c4OC([H])([H])[H])C([H])([H])C3([H])[H])c([H])c([H])c2C1([H])[H]

$$$$
98:0:0
     RDKit          3D

 98107  0  0  1  0  0  0  0  0999 V2000
  -30.5250  -14.1390   20.0770 C   0  0  0  0  0  0  0  0  0  0  0  0
  -31.5450  -12.1880   21.1360 C   0  0  0  0  0  2  0  0  0  0  0  0
  -32.7830  -12.6790   21.9130 C   0  0  0  0  0  2  0  0  0  0  0  0
  -34.0230  -12.6810   20.9960 C   0  0  0  0  0  2  0  0  0  0  0  0
  -33.7730  -13.3770   19.6300 C   0  0  0  0  0  3  0  0  0  0  0  0
  -32.4440  -12.9120   18.9930 C   0  0  0  0  0  2  0  0  0  0  0  0
  -31.3850  -13.0930   19.9940 N   0  0  0  0  0  0  0  0  0  0  0  0
  -29.4530  -14.0520   20.6830 O   0  0  0  0  0  0  0  0  0  0  0  0
  -32.0370  -18.5360   18.0580 C   0  0  0  0  0  3  0  0  0  0  0  0
  -32.8300  -19.2840   20.6340 C   0  0  0  0  0  3  0  0  0  0  0  0
  -31.8940  -17.6030   19.1120 C   0  0  0  0  0  0  0  0  0  0  0  0
  -32.3330  -17.9900   20.3980 C   0  0  0  0  0  0  0  0  0  0  0  0
  -32.5790  -19.8310   18.2740 C   0  0  0  0  0  0  0  0  0  0  0  0
  -32.9390  -20.2250   19.5860 C   0  0  0  0  0  0  0  0  0  0  0  0
  -32.2320  -17.0200   21.5460 C   0  0  0  0  0  2  0  0  0  0  0  0
  -31.0320  -16.1060   21.3430 C   0  0  0  0  0  2  0  0  0  0  0  0
  -31.2790  -16.2020   18.8610 C   0  0  0  0  0  3  0  0  0  0  0  0
  -29.9300  -16.3140   18.1080 C   0  0  0  0  0  1  0  0  0  0  0  0
  -31.1350  -15.3540   20.0780 N   0  0  0  0  0  0  0  0  0  0  0  0
  -35.2000  -12.1230   17.8980 C   0  0  0  0  0  0  0  0  0  0  0  0
  -36.3140  -12.4910   17.1920 C   0  0  0  0  0  0  0  0  0  0  0  0
  -36.6480  -13.8070   17.6380 C   0  0  0  0  0  0  0  0  0  0  0  0
  -34.9040  -13.1970   18.7240 N   0  0  0  0  0  0  0  0  0  0  0  0
  -35.8220  -14.1890   18.6040 N   0  0  0  0  0  0  0  0  0  0  0  0
  -37.6700  -14.7460   17.1600 C   0  0  0  0  0  0  0  0  0  0  0  0
  -39.0490  -14.4620   17.2820 C   0  0  0  0  0  3  0  0  0  0  0  0
  -40.0120  -15.3720   16.7980 C   0  0  0  0  0  3  0  0  0  0  0  0
  -39.6030  -16.5780   16.1820 C   0  0  0  0  0  0  0  0  0  0  0  0
  -38.2310  -16.8680   16.0860 C   0  0  0  0  0  3  0  0  0  0  0  0
  -37.2720  -15.9630   16.5720 C   0  0  0  0  0  3  0  0  0  0  0  0
  -40.4710  -17.5310   15.7040 O   0  0  0  0  0  0  0  0  0  0  0  0
  -40.8070  -17.6010   14.3770 C   0  0  0  0  0  0  0  0  0  0  0  0
  -39.8290  -17.7130   13.3660 C   0  0  0  0  0  3  0  0  0  0  0  0
  -40.2210  -17.8540   12.0200 C   0  0  0  0  0  3  0  0  0  0  0  0
  -41.5870  -17.8910   11.6830 C   0  0  0  0  0  0  0  0  0  0  0  0
  -42.5620  -17.7830   12.6900 C   0  0  0  0  0  3  0  0  0  0  0  0
  -42.1740  -17.6420   14.0330 C   0  0  0  0  0  0  0  0  0  0  0  0
  -43.1180  -17.5600   15.0010 F   0  0  0  0  0  0  0  0  0  0  0  0
  -41.9660  -18.0300   10.3910 F   0  0  0  0  0  0  0  0  0  0  0  0
  -36.9770  -11.7070   16.0970 C   0  0  0  0  0  0  0  0  0  0  0  0
  -38.3040  -11.6960   16.0700 N   0  0  0  0  0  0  0  0  0  0  0  0
  -36.3180  -11.0590   15.2850 O   0  0  0  0  0  0  0  0  0  0  0  0
  -38.8430  -12.2110   16.7500 H   0  0  0  0  0  0  0  0  0  0  0  0
  -38.7860  -11.1640   15.3590 H   0  0  0  0  0  0  0  0  0  0  0  0
  -34.4040  -10.9800   17.8900 N   0  0  0  0  0  0  0  0  0  0  0  0
  -34.5900  -10.2020   17.2690 H   0  0  0  0  0  0  0  0  0  0  0  0
  -33.5720  -10.8410   18.4500 H   0  0  0  0  0  0  0  0  0  0  0  0
  -34.0570  -20.4170   16.2600 C   0  0  0  0  0  1  0  0  0  0  0  0
  -32.8220  -20.7940   17.1000 C   0  0  0  0  0  3  0  0  0  0  0  0
  -31.5790  -21.0320   16.2060 C   0  0  0  0  0  2  0  0  0  0  0  0
  -30.9470  -22.3560   16.4250 N   0  0  0  0  0  4  0  0  0  0  0  0
  -30.2640  -22.2480   17.1590 H   0  0  0  0  0  0  0  0  0  0  0  0
  -31.6650  -22.9730   16.7800 H   0  0  0  0  0  0  0  0  0  0  0  0
  -30.3130  -22.9520   15.2120 C   0  0  0  0  0  2  0  0  0  0  0  0
  -29.6360  -24.3200   15.4760 C   0  0  0  0  0  2  0  0  0  0  0  0
  -28.7390  -24.7030   14.4170 O   0  0  0  0  0  0  0  0  0  0  0  0
  -29.5680  -21.6780    8.0310 C   0  0  0  0  0  0  0  0  0  0  0  0
  -29.2060  -24.8720   13.1270 C   0  0  0  0  0  0  0  0  0  0  0  0
  -30.7200  -23.8440    8.3460 C   0  0  0  0  0  3  0  0  0  0  0  0
  -30.0830  -25.1430   10.4460 C   0  0  0  0  0  0  0  0  0  0  0  0
  -28.5910  -23.2990    9.6550 C   0  0  0  0  0  2  0  0  0  0  0  0
  -29.1210  -24.1790   10.7690 C   0  0  0  0  0  0  0  0  0  0  0  0
  -28.6760  -24.0480   12.1050 C   0  0  0  0  0  3  0  0  0  0  0  0
  -30.1790  -25.8390   12.7760 C   0  0  0  0  0  3  0  0  0  0  0  0
  -30.6140  -25.9750   11.4450 C   0  0  0  0  0  3  0  0  0  0  0  0
  -30.5050  -25.2360    8.9970 C   0  0  0  0  0  2  0  0  0  0  0  0
  -29.6230  -22.8760    8.6770 N   0  0  0  0  0  0  0  0  0  0  0  0
  -30.3830  -21.3890    7.1430 O   0  0  0  0  0  0  0  0  0  0  0  0
  -32.1260  -23.3320    8.7350 C   0  0  0  0  0  0  0  0  0  0  0  0
  -33.1340  -23.6650    7.9130 N   0  0  0  0  0  0  0  0  0  0  0  0
  -32.2960  -22.6750    9.7660 O   0  0  0  0  0  0  0  0  0  0  0  0
  -32.9140  -24.2040    7.0850 H   0  0  0  0  0  0  0  0  0  0  0  0
  -36.3780  -23.7230    6.3250 C   0  0  0  0  0  0  0  0  0  0  0  0
  -34.5440  -23.3290    8.1010 C   0  0  0  0  0  3  0  0  0  0  0  0
  -35.2640  -24.4100    8.9390 C   0  0  0  0  0  2  0  0  0  0  0  0
  -35.9320  -25.4880    8.0830 C   0  0  0  0  0  2  0  0  0  0  0  0
  -36.9630  -24.8630    7.1400 C   0  0  0  0  0  2  0  0  0  0  0  0
  -35.2310  -23.0120    6.7680 C   0  0  0  0  0  0  0  0  0  0  0  0
  -34.7060  -21.9830    5.9570 C   0  0  0  0  0  3  0  0  0  0  0  0
  -35.3070  -21.6590    4.7270 C   0  0  0  0  0  3  0  0  0  0  0  0
  -36.4510  -22.3560    4.2990 C   0  0  0  0  0  3  0  0  0  0  0  0
  -36.9860  -23.3810    5.0990 C   0  0  0  0  0  3  0  0  0  0  0  0
  -28.4640  -20.6240    8.3580 C   0  0  0  0  0  3  0  0  0  0  0  0
  -28.1840  -19.8810    7.1210 N   0  0  0  0  0  0  0  0  0  0  0  0
  -27.1290  -20.1010    6.3240 C   0  0  0  0  0  0  0  0  0  0  0  0
  -26.2430  -20.9150    6.5960 O   0  0  0  0  0  0  0  0  0  0  0  0
  -28.8960  -19.2370    6.8080 H   0  0  0  0  0  0  0  0  0  0  0  0
  -27.4120  -20.1910    3.8260 C   0  0  0  0  0  1  0  0  0  0  0  0
  -27.0470  -19.2900    5.0170 C   0  0  0  0  0  3  0  0  0  0  0  0
  -25.4200  -17.5890    5.7140 C   0  0  0  0  0  1  0  0  0  0  0  0
  -25.7210  -18.6770    4.7880 N   0  0  0  0  0  0  0  0  0  0  0  0
  -25.6490  -18.3180    3.8400 H   0  0  0  0  0  0  0  0  0  0  0  0
  -28.8700  -19.6370    9.5220 C   0  0  1  0  0  0  0  0  0  0  0  0
  -30.3020  -19.0730    9.3840 C   0  0  0  0  0  1  0  0  0  0  0  0
  -28.7690  -20.3410   10.8960 C   0  0  0  0  0  1  0  0  0  0  0  0
  -27.8870  -18.4440    9.5640 C   0  0  0  0  0  1  0  0  0  0  0  0
  -33.4950  -21.9980   21.1150 C   0  0  0  0  0  1  0  0  0  0  0  0
  -33.3850  -21.5180   19.7770 O   0  0  0  0  0  0  0  0  0  0  0  0
  1 19  1  0
  1  8  2  0
  2  3  1  0
  4  3  1  0
  5 23  1  0
  5  4  1  0
  6  5  1  0
  6  7  1  0
  7  1  1  0
  7  2  1  0
  9 13  2  0
  9 11  1  0
 11 12  2  0
 12 10  1  0
 12 15  1  0
 13 14  1  0
 14 98  1  0
 14 10  2  0
 16 15  1  0
 17 18  1  0
 17 11  1  0
 17 19  1  0
 19 16  1  0
 20 23  1  0
 21 22  1  0
 21 20  2  0
 22 24  2  0
 24 23  1  0
 25 26  1  0
 25 22  1  0
 27 26  2  0
 28 27  1  0
 29 28  2  0
 29 30  1  0
 30 25  2  0
 31 28  1  0
 32 31  1  0
 33 32  2  0
 34 33  1  0
 35 34  2  0
 35 36  1  0
 36 37  2  0
 37 32  1  0
 37 38  1  0
 39 35  1  0
 40 21  1  0
 41 40  1  0
 41 43  1  0
 42 40  2  0
 44 41  1  0
 45 20  1  0
 45 47  1  0
 46 45  1  0
 49 48  1  0
 49 13  1  0
 50 51  1  0
 50 49  1  0
 51 53  1  0
 51 52  1  0
 54 55  1  0
 54 51  1  0
 56 55  1  0
 57 67  1  0
 58 56  1  0
 59 67  1  0
 59 69  1  0
 59 66  1  0
 60 62  2  0
 60 65  1  0
 61 62  1  0
 62 63  1  0
 63 58  2  0
 64 58  1  0
 65 64  2  0
 66 60  1  0
 67 61  1  0
 68 57  2  0
 69 71  2  0
 70 69  1  0
 72 70  1  0
 73 78  1  0
 73 77  1  0
 74 70  1  0
 74 75  1  0
 76 75  1  0
 77 76  1  0
 78 74  1  0
 79 78  2  0
 80 79  1  0
 81 80  2  0
 81 82  1  0
 82 73  2  0
 83 57  1  0
 83 93  1  0
 84 83  1  0
 85 86  2  0
 85 84  1  0
 87 84  1  0
 89 88  1  0
 89 85  1  0
 91 89  1  0
 91 90  1  0
 92 91  1  0
 93 96  1  1
 93 95  1  0
 94 93  1  0
 98 97  1  0
M  ISO  4   1 100  19 100  55 101  56 101
M  END
>  <TORSDO>  (99) 
F 21

>  <SCORE>  (99) 
-1.191

>  <name>  (99) 
98

>  <ligand_id>  (99) 
98

>  <original_smiles>  (99) 
[H]c1c([H])c([H])c2c(c1[H])C([H])([H])C([H])([H])C([H])([H])C2([H])N([H])C(=O)C1([H])N(C(=O)C([H])(N([H])C(=O)C([H])(N([H])C([H])([H])[H])C([H])([H])[H])C(C([H])([H])[H])(C([H])([H])[H])C([H])([H])[H])C([H])([H])c2c([H])c(OC([H])([H])C([H])([H])[N+]([H])([H])C([H])([H])C([H])(c3c([H])c4c(c([H])c3OC([H])([H])[H])C([H])([H])C([H])([H])N(C(=O)N3C([H])([H])C([H])([H])C([H])([H])C([H])(n5nc(-c6c([H])c([H])c(Oc7c([H])c([H])c(F)c([H])c7F)c([H])c6[H])c(C(=O)N([H])[H])c5N([H])[H])C3([H])[H])C4([H])C([H])([H])[H])C([H])([H])[H])c([H])c([H])c2C1([H])[H]

>  <smiles>  (99) 
[H]c1c([H])c([H])c2c(c1[H])C([H])([H])C([H])([H])C([H])([H])C2([H])N([H])C(=O)C1([H])N(C(=O)C([H])(N([H])C(=O)C([H])(N([H])C([H])([H])[H])C([H])([H])[H])C(C([H])([H])[H])(C([H])([H])[H])C([H])([H])[H])C([H])([H])c2c([H])c(OC([H])([H])C([H])([H])[N+]([H])([H])C([H])([H])C([H])(c3c([H])c4c(c([H])c3OC([H])([H])[H])C([H])([H])C([H])([H])N(C(=O)N3C([H])([H])C([H])([H])C([H])([H])C([H])(n5nc(-c6c([H])c([H])c(Oc7c([H])c([H])c(F)c([H])c7F)c([H])c6[H])c(C(=O)N([H])[H])c5N([H])[H])C3([H])[H])C4([H])C([H])([H])[H])C([H])([H])[H])c([H])c([H])c2C1([H])[H]

$$$$
