0:0:0
     RDKit          3D

 98108  0  0  1  0  0  0  0  0999 V2000
  -28.6640  -22.5520   19.3320 C   0  0  0  0  0  0  0  0  0  0  0  0
  -29.1090  -21.4190   20.0540 C   0  0  0  0  0  0  0  0  0  0  0  0
  -27.9120  -22.3460   18.1460 C   0  0  0  0  0  0  0  0  0  0  0  0
  -27.5040  -21.0250   17.8080 C   0  0  0  0  0  0  0  0  0  0  0  0
  -28.0040  -19.8900   18.5150 C   0  0  0  0  0  0  0  0  0  0  0  0
  -28.8620  -20.0580   19.6460 C   0  0  0  0  0  0  0  0  0  0  0  0
  -29.8790  -21.8860   21.2650 C   0  0  0  0  0  2  0  0  0  0  0  0
  -29.5670  -23.4110   21.3740 C   0  0  0  0  0  2  0  0  0  0  0  0
  -29.1240  -23.9090   19.9710 C   0  0  1  0  0  0  0  0  0  0  0  0
  -27.5500  -23.4890   17.2040 C   0  0  0  0  0  1  0  0  0  0  0  0
  -26.5140  -20.8270   16.6590 C   0  0  0  0  0  1  0  0  0  0  0  0
  -27.6100  -18.4980   18.0090 C   0  0  0  0  0  1  0  0  0  0  0  0
  -30.3700  -24.4550   19.2510 C   0  0  0  0  0  1  0  0  0  0  0  0
  -30.8080  -14.6610   20.0280 C   0  0  0  0  0  0  0  0  0  0  0  0
  -30.3680  -12.4660   18.9350 C   0  0  0  0  0  2  0  0  0  0  0  0
  -29.3640  -12.5870   17.7730 C   0  0  0  0  0  2  0  0  0  0  0  0
  -27.9290  -12.3900   18.2960 C   0  0  0  0  0  2  0  0  0  0  0  0
  -27.6400  -13.2430   19.5600 C   0  0  0  0  0  3  0  0  0  0  0  0
  -28.7800  -13.1490   20.6020 C   0  0  0  0  0  2  0  0  0  0  0  0
  -30.0270  -13.5240   19.9230 N   0  0  0  0  0  0  0  0  0  0  0  0
  -31.9740  -14.5720   19.6390 O   0  0  0  0  0  0  0  0  0  0  0  0
  -28.6780  -17.9250   20.9980 C   0  0  0  0  0  2  0  0  0  0  0  0
  -28.9610  -16.3840   20.7240 C   0  0  0  0  0  2  0  0  0  0  0  0
  -30.6080  -18.3670   19.5260 C   0  0  0  0  0  2  0  0  0  0  0  0
  -31.2500  -17.1230   20.2020 C   0  0  0  0  0  3  0  0  0  0  0  0
  -31.9440  -17.4580   21.5400 C   0  0  0  0  0  1  0  0  0  0  0  0
  -29.4890  -18.9280   20.2770 N   0  0  0  0  0  0  0  0  0  0  0  0
  -30.3280  -15.9440   20.3200 N   0  0  0  0  0  0  0  0  0  0  0  0
  -25.3160  -13.8150   20.4860 C   0  0  0  0  0  0  0  0  0  0  0  0
  -24.2760  -13.0290   20.8990 C   0  0  0  0  0  0  0  0  0  0  0  0
  -24.7310  -11.6800   20.7830 C   0  0  0  0  0  0  0  0  0  0  0  0
  -26.3370  -12.9440   20.1420 N   0  0  0  0  0  0  0  0  0  0  0  0
  -25.9970  -11.6530   20.3840 N   0  0  0  0  0  0  0  0  0  0  0  0
  -24.0150  -10.4130   20.9710 C   0  0  0  0  0  0  0  0  0  0  0  0
  -24.4570   -9.4460   21.9010 C   0  0  0  0  0  3  0  0  0  0  0  0
  -23.7400   -8.2430   22.0760 C   0  0  0  0  0  3  0  0  0  0  0  0
  -22.5680   -7.9980   21.3220 C   0  0  0  0  0  0  0  0  0  0  0  0
  -22.1460   -8.9540   20.3790 C   0  0  0  0  0  3  0  0  0  0  0  0
  -22.8650  -10.1490   20.2020 C   0  0  0  0  0  3  0  0  0  0  0  0
  -21.8200   -6.8480   21.4070 O   0  0  0  0  0  0  0  0  0  0  0  0
  -21.7070   -6.1490   22.5840 C   0  0  0  0  0  0  0  0  0  0  0  0
  -21.1640   -6.7330   23.7500 C   0  0  0  0  0  3  0  0  0  0  0  0
  -21.0000   -5.9580   24.9140 C   0  0  0  0  0  3  0  0  0  0  0  0
  -21.3690   -4.5990   24.9150 C   0  0  0  0  0  0  0  0  0  0  0  0
  -21.9050   -4.0150   23.7540 C   0  0  0  0  0  3  0  0  0  0  0  0
  -22.0680   -4.7860   22.5910 C   0  0  0  0  0  0  0  0  0  0  0  0
  -22.5640   -4.2110   21.4680 F   0  0  0  0  0  0  0  0  0  0  0  0
  -21.2060   -3.8520   26.0320 F   0  0  0  0  0  0  0  0  0  0  0  0
  -22.9010  -13.4960   21.2810 C   0  0  0  0  0  0  0  0  0  0  0  0
  -22.2350  -12.7770   22.1770 N   0  0  0  0  0  0  0  0  0  0  0  0
  -22.4280  -14.5340   20.8180 O   0  0  0  0  0  0  0  0  0  0  0  0
  -22.6320  -11.9390   22.5770 H   0  0  0  0  0  0  0  0  0  0  0  0
  -21.3110  -13.0680   22.4660 H   0  0  0  0  0  0  0  0  0  0  0  0
  -25.4680  -15.1930   20.3510 N   0  0  0  0  0  0  0  0  0  0  0  0
  -24.7100  -15.8370   20.5490 H   0  0  0  0  0  0  0  0  0  0  0  0
  -26.2890  -15.6480   19.9760 H   0  0  0  0  0  0  0  0  0  0  0  0
  -28.0140  -25.0520   20.0360 C   0  0  0  0  0  2  0  0  0  0  0  0
  -28.2820  -26.4580   20.4050 O   0  0  0  0  0  0  0  0  0  0  0  0
  -24.6450  -31.9460   23.3510 C   0  0  0  0  0  0  0  0  0  0  0  0
  -27.1840  -27.3360   20.3420 C   0  0  0  0  0  0  0  0  0  0  0  0
  -23.4240  -30.5650   21.7100 C   0  0  0  0  0  3  0  0  0  0  0  0
  -24.8530  -28.9950   20.3030 C   0  0  0  0  0  0  0  0  0  0  0  0
  -25.9700  -30.8390   21.5460 C   0  0  0  0  0  2  0  0  0  0  0  0
  -26.0280  -29.4580   20.9100 C   0  0  0  0  0  0  0  0  0  0  0  0
  -27.1970  -28.6410   20.9270 C   0  0  0  0  0  3  0  0  0  0  0  0
  -25.9780  -26.9340   19.7110 C   0  0  0  0  0  3  0  0  0  0  0  0
  -24.8300  -27.7370   19.6960 C   0  0  0  0  0  3  0  0  0  0  0  0
  -23.6360  -29.8910   20.3310 C   0  0  0  0  0  2  0  0  0  0  0  0
  -24.6970  -31.1330   22.2580 N   0  0  0  0  0  0  0  0  0  0  0  0
  -23.5630  -32.2440   23.8780 O   0  0  0  0  0  0  0  0  0  0  0  0
  -22.7410  -29.5600   22.6680 C   0  0  0  0  0  0  0  0  0  0  0  0
  -21.4170  -29.3890   22.5140 N   0  0  0  0  0  0  0  0  0  0  0  0
  -23.4000  -28.9420   23.5070 O   0  0  0  0  0  0  0  0  0  0  0  0
  -20.9520  -29.9450   21.8110 H   0  0  0  0  0  0  0  0  0  0  0  0
  -18.0170  -28.2340   22.9590 C   0  0  0  0  0  0  0  0  0  0  0  0
  -20.5720  -28.4710   23.2800 C   0  0  0  0  0  3  0  0  0  0  0  0
  -20.6700  -27.0310   22.7260 C   0  0  0  0  0  2  0  0  0  0  0  0
  -19.5850  -26.7050   21.6940 C   0  0  0  0  0  2  0  0  0  0  0  0
  -18.1920  -26.8740   22.3070 C   0  0  0  0  0  2  0  0  0  0  0  0
  -19.1350  -28.9910   23.4000 C   0  0  0  0  0  0  0  0  0  0  0  0
  -18.9190  -30.2640   23.9700 C   0  0  0  0  0  3  0  0  0  0  0  0
  -17.6160  -30.7830   24.1010 C   0  0  0  0  0  3  0  0  0  0  0  0
  -16.5120  -30.0240   23.6740 C   0  0  0  0  0  3  0  0  0  0  0  0
  -16.7140  -28.7510   23.1090 C   0  0  0  0  0  3  0  0  0  0  0  0
  -25.9370  -32.5550   23.9750 C   0  0  0  0  0  3  0  0  0  0  0  0
  -25.6520  -33.9610   24.2910 N   0  0  0  0  0  0  0  0  0  0  0  0
  -25.9720  -34.9990   23.5060 C   0  0  0  0  0  0  0  0  0  0  0  0
  -26.6110  -34.8730   22.4590 O   0  0  0  0  0  0  0  0  0  0  0  0
  -25.0800  -34.1320   25.1050 H   0  0  0  0  0  0  0  0  0  0  0  0
  -24.2330  -36.7920   23.2010 C   0  0  0  0  0  1  0  0  0  0  0  0
  -25.5110  -36.3990   23.9570 C   0  0  0  0  0  3  0  0  0  0  0  0
  -27.6820  -37.3010   24.6700 C   0  0  0  0  0  1  0  0  0  0  0  0
  -26.5390  -37.4470   23.7720 N   0  0  0  0  0  0  0  0  0  0  0  0
  -26.1400  -38.3700   23.9130 H   0  0  0  0  0  0  0  0  0  0  0  0
  -26.4260  -31.7810   25.2620 C   0  0  1  0  0  0  0  0  0  0  0  0
  -25.3170  -31.5680   26.3180 C   0  0  0  0  0  1  0  0  0  0  0  0
  -26.9930  -30.3920   24.8850 C   0  0  0  0  0  1  0  0  0  0  0  0
  -27.5760  -32.5630   25.9360 C   0  0  0  0  0  1  0  0  0  0  0  0
  1  9  1  0
  1  2  1  0
  2  7  1  0
  3  1  2  0
  4  3  1  0
  4  5  2  0
  5  6  1  0
  6  2  2  0
  6 27  1  0
  7  8  1  0
  9 13  1  6
  9 57  1  0
  9  8  1  0
 10  3  1  0
 11  4  1  0
 12  5  1  0
 14 28  1  0
 15 20  1  0
 16 17  1  0
 16 15  1  0
 18 17  1  0
 18 32  1  0
 18 19  1  0
 20 14  1  0
 20 19  1  0
 21 14  2  0
 23 22  1  0
 24 25  1  0
 24 27  1  0
 25 28  1  0
 25 26  1  0
 27 22  1  0
 28 23  1  0
 29 30  2  0
 30 49  1  0
 31 30  1  0
 31 34  1  0
 32 33  1  0
 32 29  1  0
 33 31  2  0
 34 35  1  0
 35 36  2  0
 37 40  1  0
 37 36  1  0
 38 37  2  0
 39 38  1  0
 39 34  2  0
 40 41  1  0
 41 46  2  0
 41 42  1  0
 42 43  2  0
 43 44  1  0
 44 48  1  0
 45 44  2  0
 46 45  1  0
 47 46  1  0
 49 50  1  0
 50 53  1  0
 50 52  1  0
 51 49  2  0
 54 29  1  0
 54 55  1  0
 56 54  1  0
 57 58  1  0
 59 70  2  0
 60 58  1  0
 60 65  1  0
 61 69  1  0
 61 71  1  0
 62 68  1  0
 62 64  1  0
 63 69  1  0
 64 65  2  0
 64 63  1  0
 66 60  2  0
 67 66  1  0
 67 62  2  0
 68 61  1  0
 69 59  1  0
 71 73  2  0
 72 71  1  0
 74 72  1  0
 75 84  2  0
 75 80  1  0
 76 72  1  0
 76 80  1  0
 77 76  1  0
 78 79  1  0
 78 77  1  0
 79 75  1  0
 80 81  2  0
 81 82  1  0
 83 82  2  0
 84 83  1  0
 85 59  1  0
 85 86  1  0
 85 95  1  0
 86 89  1  0
 87 91  1  0
 87 86  1  0
 88 87  2  0
 91 90  1  0
 93 94  1  0
 93 91  1  0
 93 92  1  0
 95 98  1  1
 95 96  1  0
 97 95  1  0
M  ISO  4  14 100  28 100  57 101  58 101
M  END
>  <TORSDO>  (1) 
F 17

>  <SCORE>  (1) 
-13.596

>  <name>  (1) 
0

>  <ligand_id>  (1) 
0

>  <original_smiles>  (1) 
[H]c1c([H])c([H])c2c(c1[H])C([H])([H])C([H])([H])C([H])([H])C2([H])N([H])C(=O)C1([H])N(C(=O)C([H])(N([H])C(=O)C([H])(N([H])C([H])([H])[H])C([H])([H])[H])C(C([H])([H])[H])(C([H])([H])[H])C([H])([H])[H])C([H])([H])c2c([H])c(OC([H])([H])C3(C([H])([H])[H])c4c(C([H])([H])[H])c(C([H])([H])[H])c(C([H])([H])[H])c(N5C([H])([H])C([H])([H])N(C(=O)N6C([H])([H])C([H])([H])C([H])([H])C([H])(n7nc(-c8c([H])c([H])c(Oc9c([H])c([H])c(F)c([H])c9F)c([H])c8[H])c(C(=O)N([H])[H])c7N([H])[H])C6([H])[H])C([H])(C([H])([H])[H])C5([H])[H])c4C([H])([H])C3([H])[H])c([H])c([H])c2C1([H])[H]

>  <smiles>  (1) 
[H]c1c([H])c([H])c2c(c1[H])C([H])([H])C([H])([H])C([H])([H])C2([H])N([H])C(=O)C1([H])N(C(=O)C([H])(N([H])C(=O)C([H])(N([H])C([H])([H])[H])C([H])([H])[H])C(C([H])([H])[H])(C([H])([H])[H])C([H])([H])[H])C([H])([H])c2c([H])c(OC([H])([H])C3(C([H])([H])[H])c4c(C([H])([H])[H])c(C([H])([H])[H])c(C([H])([H])[H])c(N5C([H])([H])C([H])([H])N(C(=O)N6C([H])([H])C([H])([H])C([H])([H])C([H])(n7nc(-c8c([H])c([H])c(Oc9c([H])c([H])c(F)c([H])c9F)c([H])c8[H])c(C(=O)N([H])[H])c7N([H])[H])C6([H])[H])C([H])(C([H])([H])[H])C5([H])[H])c4C([H])([H])C3([H])[H])c([H])c([H])c2C1([H])[H]

$$$$
1:0:0
     RDKit          3D

 95105  0  0  1  0  0  0  0  0999 V2000
  -29.4830  -21.1790   19.2490 C   0  0  0  0  0  3  0  0  0  0  0  0
  -29.1720  -22.5480   18.9100 C   0  0  0  0  0  3  0  0  0  0  0  0
  -29.5110  -20.6800   20.5850 C   0  0  0  0  0  0  0  0  0  0  0  0
  -28.9880  -23.1230   21.2130 C   0  0  0  0  0  0  0  0  0  0  0  0
  -28.8880  -23.5850   19.8590 C   0  0  0  0  0  0  0  0  0  0  0  0
  -29.2510  -21.7260   21.5540 C   0  0  0  0  0  0  0  0  0  0  0  0
  -29.2000  -21.3430   23.0340 C   0  0  0  0  0  1  0  0  0  0  0  0
  -29.3340  -25.5230   22.2870 C   0  0  0  0  0  2  0  0  0  0  0  0
  -28.7250  -24.1350   22.3030 C   0  0  0  0  0  3  0  0  0  0  0  0
  -29.8010  -24.5130   23.3030 C   0  0  0  0  0  3  0  0  0  0  0  0
  -29.4660  -24.6680   24.7720 C   0  0  0  0  0  1  0  0  0  0  0  0
  -30.8460  -18.9480   22.0870 C   0  0  0  0  0  2  0  0  0  0  0  0
  -31.7570  -18.3010   21.0410 C   0  0  0  0  0  2  0  0  0  0  0  0
  -29.7570  -19.1110   21.0070 C   0  0  0  0  0  3  0  0  0  0  0  0
  -30.4940  -17.7830   20.3400 C   0  0  0  0  0  3  0  0  0  0  0  0
  -30.9830  -15.1600   20.7660 C   0  0  0  0  0  0  0  0  0  0  0  0
  -30.9570  -12.7370   20.0890 C   0  0  0  0  0  2  0  0  0  0  0  0
  -30.1340  -12.5660   18.7920 C   0  0  0  0  0  2  0  0  0  0  0  0
  -28.6430  -12.3690   19.1210 C   0  0  0  0  0  2  0  0  0  0  0  0
  -28.1240  -13.3980   20.1590 C   0  0  0  0  0  3  0  0  0  0  0  0
  -29.0800  -13.5530   21.3620 C   0  0  0  0  0  2  0  0  0  0  0  0
  -30.4020  -13.9030   20.8290 N   0  0  0  0  0  0  0  0  0  0  0  0
  -32.1830  -15.2340   20.4890 O   0  0  0  0  0  0  0  0  0  0  0  0
  -30.1880  -16.3200   20.8030 N   0  0  0  0  0  0  0  0  0  0  0  0
  -29.2210  -16.1470   21.0380 H   0  0  0  0  0  0  0  0  0  0  0  0
  -25.7170  -13.9920   20.8050 C   0  0  0  0  0  0  0  0  0  0  0  0
  -24.6250  -13.2210   21.0930 C   0  0  0  0  0  0  0  0  0  0  0  0
  -25.0680  -11.8640   21.0260 C   0  0  0  0  0  0  0  0  0  0  0  0
  -26.7570  -13.1060   20.5780 N   0  0  0  0  0  0  0  0  0  0  0  0
  -26.3720  -11.8180   20.7750 N   0  0  0  0  0  0  0  0  0  0  0  0
  -24.3130  -10.6080   21.1290 C   0  0  0  0  0  0  0  0  0  0  0  0
  -24.6740   -9.6020   22.0520 C   0  0  0  0  0  3  0  0  0  0  0  0
  -23.9210   -8.4130   22.1460 C   0  0  0  0  0  3  0  0  0  0  0  0
  -22.7910   -8.2210   21.3170 C   0  0  0  0  0  0  0  0  0  0  0  0
  -22.4480   -9.2160   20.3820 C   0  0  0  0  0  3  0  0  0  0  0  0
  -23.2030  -10.3970   20.2870 C   0  0  0  0  0  3  0  0  0  0  0  0
  -22.0150   -7.0870   21.3190 O   0  0  0  0  0  0  0  0  0  0  0  0
  -21.8460   -6.3330   22.4530 C   0  0  0  0  0  0  0  0  0  0  0  0
  -21.2970   -6.8780   23.6350 C   0  0  0  0  0  3  0  0  0  0  0  0
  -21.0770   -6.0510   24.7540 C   0  0  0  0  0  3  0  0  0  0  0  0
  -21.3950   -4.6800   24.6930 C   0  0  0  0  0  0  0  0  0  0  0  0
  -21.9360   -4.1360   23.5150 C   0  0  0  0  0  3  0  0  0  0  0  0
  -22.1580   -4.9600   22.3970 C   0  0  0  0  0  0  0  0  0  0  0  0
  -22.6600   -4.4250   21.2580 F   0  0  0  0  0  0  0  0  0  0  0  0
  -21.1770   -3.8840   25.7650 F   0  0  0  0  0  0  0  0  0  0  0  0
  -23.2240  -13.7110   21.3210 C   0  0  0  0  0  0  0  0  0  0  0  0
  -22.4510  -13.0010   22.1340 N   0  0  0  0  0  0  0  0  0  0  0  0
  -22.8240  -14.7590   20.8140 O   0  0  0  0  0  0  0  0  0  0  0  0
  -22.7870  -12.1520   22.5650 H   0  0  0  0  0  0  0  0  0  0  0  0
  -21.5090  -13.3110   22.3300 H   0  0  0  0  0  0  0  0  0  0  0  0
  -25.9090  -15.3660   20.6930 N   0  0  0  0  0  0  0  0  0  0  0  0
  -25.1410  -16.0230   20.7810 H   0  0  0  0  0  0  0  0  0  0  0  0
  -26.7720  -15.8050   20.4010 H   0  0  0  0  0  0  0  0  0  0  0  0
  -28.1360  -24.9650   19.4130 C   0  0  0  0  0  2  0  0  0  0  0  0
  -28.4320  -26.4310   19.7630 O   0  0  0  0  0  0  0  0  0  0  0  0
  -24.5660  -31.7170   23.0620 C   0  0  0  0  0  0  0  0  0  0  0  0
  -27.3450  -27.3700   19.7240 C   0  0  0  0  0  0  0  0  0  0  0  0
  -23.4220  -30.3720   21.3430 C   0  0  0  0  0  3  0  0  0  0  0  0
  -24.9350  -28.9780   19.8110 C   0  0  0  0  0  0  0  0  0  0  0  0
  -25.9580  -30.7770   21.1890 C   0  0  0  0  0  2  0  0  0  0  0  0
  -26.0920  -29.4410   20.4490 C   0  0  0  0  0  0  0  0  0  0  0  0
  -27.2980  -28.6500   20.3990 C   0  0  0  0  0  3  0  0  0  0  0  0
  -26.1610  -27.0230   19.0290 C   0  0  0  0  0  3  0  0  0  0  0  0
  -24.9780  -27.7820   19.0880 C   0  0  0  0  0  3  0  0  0  0  0  0
  -23.6650  -29.8030   19.9210 C   0  0  0  0  0  2  0  0  0  0  0  0
  -24.6670  -30.9740   21.9190 N   0  0  0  0  0  0  0  0  0  0  0  0
  -23.4720  -31.9140   23.6110 O   0  0  0  0  0  0  0  0  0  0  0  0
  -22.8040  -29.2690   22.2380 C   0  0  0  0  0  0  0  0  0  0  0  0
  -21.4820  -29.0560   22.1220 N   0  0  0  0  0  0  0  0  0  0  0  0
  -23.5160  -28.6110   23.0020 O   0  0  0  0  0  0  0  0  0  0  0  0
  -20.9630  -29.6400   21.4810 H   0  0  0  0  0  0  0  0  0  0  0  0
  -18.1530  -27.7210   22.6220 C   0  0  0  0  0  0  0  0  0  0  0  0
  -20.7100  -28.0390   22.8400 C   0  0  0  0  0  3  0  0  0  0  0  0
  -20.8360  -26.6580   22.1560 C   0  0  0  0  0  2  0  0  0  0  0  0
  -19.7150  -26.3800   21.1490 C   0  0  0  0  0  2  0  0  0  0  0  0
  -18.3470  -26.4330   21.8380 C   0  0  0  0  0  2  0  0  0  0  0  0
  -19.2610  -28.4830   23.0790 C   0  0  0  0  0  0  0  0  0  0  0  0
  -19.0230  -29.6880   23.7730 C   0  0  0  0  0  3  0  0  0  0  0  0
  -17.7100  -30.1330   24.0150 C   0  0  0  0  0  3  0  0  0  0  0  0
  -16.6150  -29.3680   23.5730 C   0  0  0  0  0  3  0  0  0  0  0  0
  -16.8380  -28.1640   22.8820 C   0  0  0  0  0  3  0  0  0  0  0  0
  -25.8170  -32.3730   23.7190 C   0  0  0  0  0  3  0  0  0  0  0  0
  -26.3290  -31.5920   24.9930 C   0  0  1  0  0  0  0  0  0  0  0  0
  -25.2240  -31.3170   26.0400 C   0  0  0  0  0  1  0  0  0  0  0  0
  -26.9470  -30.2320   24.5940 C   0  0  0  0  0  1  0  0  0  0  0  0
  -27.4540  -32.3990   25.6820 C   0  0  0  0  0  1  0  0  0  0  0  0
  -25.4620  -33.7540   24.0740 N   0  0  0  0  0  0  0  0  0  0  0  0
  -25.7520  -34.8330   23.3330 C   0  0  0  0  0  0  0  0  0  0  0  0
  -26.4130  -34.7690   22.2930 O   0  0  0  0  0  0  0  0  0  0  0  0
  -24.8720  -33.8750   24.8840 H   0  0  0  0  0  0  0  0  0  0  0  0
  -23.9570  -36.5720   23.0350 C   0  0  0  0  0  1  0  0  0  0  0  0
  -25.2230  -36.1960   23.8200 C   0  0  0  0  0  3  0  0  0  0  0  0
  -27.3360  -37.1420   24.6400 C   0  0  0  0  0  1  0  0  0  0  0  0
  -26.2180  -37.2860   23.7120 N   0  0  0  0  0  0  0  0  0  0  0  0
  -25.7820  -38.1890   23.8780 H   0  0  0  0  0  0  0  0  0  0  0  0
  1  3  1  0
  2  1  2  0
  2  5  1  0
  3  6  2  0
  4  6  1  0
  5  4  2  0
  6  7  1  0
  8  9  1  0
  8 10  1  0
  9  4  1  0
  9 10  1  0
 10 11  1  0
 13 12  1  0
 14  3  1  0
 14 12  1  0
 15 24  1  0
 15 14  1  0
 15 13  1  0
 16 24  1  0
 16 22  1  0
 17 22  1  0
 18 19  1  0
 18 17  1  0
 20 19  1  0
 20 29  1  0
 20 21  1  0
 22 21  1  0
 23 16  2  0
 24 25  1  0
 26 27  2  0
 27 46  1  0
 28 27  1  0
 28 31  1  0
 29 30  1  0
 29 26  1  0
 30 28  2  0
 31 32  1  0
 32 33  2  0
 34 37  1  0
 34 33  1  0
 35 34  2  0
 36 35  1  0
 36 31  2  0
 37 38  1  0
 38 39  1  0
 39 40  2  0
 41 40  1  0
 41 45  1  0
 42 41  2  0
 43 38  2  0
 43 42  1  0
 44 43  1  0
 46 47  1  0
 47 50  1  0
 47 49  1  0
 48 46  2  0
 51 52  1  0
 51 26  1  0
 53 51  1  0
 54 55  1  0
 54  5  1  0
 56 67  2  0
 57 55  1  0
 57 62  1  0
 58 66  1  0
 58 68  1  0
 59 65  1  0
 59 61  1  0
 60 66  1  0
 61 60  1  0
 62 61  2  0
 63 64  1  0
 63 57  2  0
 64 59  2  0
 65 58  1  0
 66 56  1  0
 68 70  2  0
 69 68  1  0
 71 69  1  0
 72 81  2  0
 72 77  1  0
 73 69  1  0
 73 77  1  0
 74 73  1  0
 75 76  1  0
 75 74  1  0
 76 72  1  0
 77 78  2  0
 78 79  1  0
 80 79  2  0
 81 80  1  0
 82 56  1  0
 82 87  1  0
 82 83  1  0
 83 86  1  1
 83 84  1  0
 85 83  1  0
 87 90  1  0
 88 92  1  0
 88 87  1  0
 89 88  2  0
 92 91  1  0
 94 92  1  0
 94 95  1  0
 94 93  1  0
M  ISO  4  16 100  24 100  54 101  55 101
M  END
>  <TORSDO>  (2) 
F 19

>  <SCORE>  (2) 
-11.507

>  <name>  (2) 
1

>  <ligand_id>  (2) 
1

>  <original_smiles>  (2) 
[H]c1c([H])c([H])c2c(c1[H])C([H])([H])C([H])([H])C([H])([H])C2([H])N([H])C(=O)C1([H])N(C(=O)C([H])(N([H])C(=O)C([H])(N([H])C([H])([H])[H])C([H])([H])[H])C(C([H])([H])[H])(C([H])([H])[H])C([H])([H])[H])C([H])([H])c2c([H])c(OC([H])([H])c3c([H])c([H])c(C4([H])C([H])([H])C([H])([H])C4([H])N([H])C(=O)N4C([H])([H])C([H])([H])C([H])([H])C([H])(n5nc(-c6c([H])c([H])c(Oc7c([H])c([H])c(F)c([H])c7F)c([H])c6[H])c(C(=O)N([H])[H])c5N([H])[H])C4([H])[H])c(C([H])([H])[H])c3C3([H])C([H])([H])C3([H])C([H])([H])[H])c([H])c([H])c2C1([H])[H]

>  <smiles>  (2) 
[H]c1c([H])c([H])c2c(c1[H])C([H])([H])C([H])([H])C([H])([H])C2([H])N([H])C(=O)C1([H])N(C(=O)C([H])(N([H])C(=O)C([H])(N([H])C([H])([H])[H])C([H])([H])[H])C(C([H])([H])[H])(C([H])([H])[H])C([H])([H])[H])C([H])([H])c2c([H])c(OC([H])([H])c3c([H])c([H])c(C4([H])C([H])([H])C([H])([H])C4([H])N([H])C(=O)N4C([H])([H])C([H])([H])C([H])([H])C([H])(n5nc(-c6c([H])c([H])c(Oc7c([H])c([H])c(F)c([H])c7F)c([H])c6[H])c(C(=O)N([H])[H])c5N([H])[H])C4([H])[H])c(C([H])([H])[H])c3C3([H])C([H])([H])C3([H])C([H])([H])[H])c([H])c([H])c2C1([H])[H]

$$$$
2:0:0
     RDKit          3D

105107  0  0  1  0  0  0  0  0999 V2000
  -20.8280  -24.7660   21.4140 N   0  0  0  0  0  4  0  0  0  0  0  0
  -20.0750  -24.2960   20.9390 H   0  0  0  0  0  0  0  0  0  0  0  0
  -20.5840  -24.6800   22.3900 H   0  0  0  0  0  0  0  0  0  0  0  0
  -19.1890  -28.3740   18.1700 C   0  0  0  0  0 15  0  0  0  0  0  0
  -21.1440  -27.8350   18.5740 C   0  0  0  0  0 15  0  0  0  0  0  0
  -20.4970  -26.5170   21.1160 C   0  0  0  0  0  1  0  0  0  0  0  0
  -18.4860  -26.8270   21.0760 C   0  0  0  0  0  2  0  0  0  0  0  0
  -17.5480  -25.5770   21.1890 C   0  0  0  0  0  1  0  0  0  0  0  0
  -18.1270  -27.4970   22.4470 C   0  0  0  0  0  1  0  0  0  0  0  0
  -17.9930  -27.7040   19.4790 O   0  0  0  0  0 15  0  0  0  0  0  0
  -22.1240  -26.5050   16.0640 C   0  0  0  0  0  1  0  0  0  0  0  0
  -22.7630  -27.0370   17.4060 C   0  0  0  0  0  1  0  0  0  0  0  0
  -24.4370  -26.1330   17.4200 O   0  0  0  0  0  1  0  0  0  0  0  0
  -28.8900  -27.6160   20.1690 C   0  0  0  0  0  0  0  0  0  0  0  0
  -25.2300  -25.0690   16.7300 C   0  0  0  0  0  3  0  0  0  0  0  0
  -27.2410  -28.4510   18.5910 C   0  0  0  0  0  3  0  0  0  0  0  0
  -26.7770  -27.0380   16.4780 C   0  0  0  0  0  3  0  0  0  0  0  0
  -28.5020  -26.2980   18.0870 C   0  0  0  0  0  2  0  0  0  0  0  0
  -27.3130  -25.9870   17.2150 C   0  0  0  0  0  3  0  0  0  0  0  0
  -26.5560  -24.8060   17.2230 C   0  0  0  0  0  2  0  0  0  0  0  0
  -25.2680  -25.4360   15.4190 C   0  0  0  0  0  2  0  0  0  0  0  0
  -25.8750  -26.7050   15.4240 C   0  0  0  0  0  2  0  0  0  0  0  0
  -27.0950  -28.4190   17.0180 C   0  0  0  0  0  2  0  0  0  0  0  0
  -28.2700  -27.4600   18.9770 N   0  0  0  0  0  0  0  0  0  0  0  0
  -28.6430  -28.5770   20.9120 O   0  0  0  0  0  0  0  0  0  0  0  0
  -26.0150  -28.1790   19.5200 C   0  0  0  0  0  0  0  0  0  0  0  0
  -26.0000  -28.6670   20.7390 N   0  0  0  0  0  0  0  0  0  0  0  0
  -25.0950  -27.4340   19.1900 O   0  0  0  0  0  0  0  0  0  0  0  0
  -26.7850  -29.2050   21.0710 H   0  0  0  0  0  0  0  0  0  0  0  0
  -25.6820  -28.9360   24.0830 C   0  0  0  0  0  3  0  0  0  0  0  0
  -24.8060  -28.6310   21.6090 C   0  0  0  0  0  3  0  0  0  0  0  0
  -23.8290  -30.1680   21.4840 C   0  0  0  0  0  2  0  0  0  0  0  0
  -23.9310  -31.7120   22.6360 C   0  0  0  0  0  2  0  0  0  0  0  0
  -24.7740  -31.4260   24.1440 C   0  0  0  0  0  1  0  0  0  0  0  0
  -25.5400  -28.0620   22.9250 C   0  0  0  0  0  0  0  0  0  0  0  0
  -26.1750  -26.7580   22.8280 C   0  0  0  0  0  3  0  0  0  0  0  0
  -26.8840  -26.1070   23.8590 C   0  0  0  0  0  3  0  0  0  0  0  0
  -26.9710  -26.7880   25.0660 C   0  0  0  0  0  3  0  0  0  0  0  0
  -26.4380  -28.1100   25.1270 C   0  0  0  0  0  3  0  0  0  0  0  0
  -29.9660  -26.6010   20.6190 C   0  0  0  0  0  3  0  0  0  0  0  0
  -29.8970  -26.2620   22.1550 C   0  0  1  0  0  0  0  0  0  0  0  0
  -29.7850  -27.5030   23.0710 C   0  0  0  0  0  1  0  0  0  0  0  0
  -28.6920  -25.3490   22.4750 C   0  0  0  0  0  1  0  0  0  0  0  0
  -31.1630  -25.4730   22.5530 C   0  0  0  0  0  1  0  0  0  0  0  0
  -31.2550  -27.2010   20.2670 N   0  0  0  0  0  0  0  0  0  0  0  0
  -31.7990  -27.1640   19.0450 C   0  0  0  0  0  0  0  0  0  0  0  0
  -31.2970  -26.5380   18.1080 O   0  0  0  0  0  0  0  0  0  0  0  0
  -31.6990  -27.7700   20.9730 H   0  0  0  0  0  0  0  0  0  0  0  0
  -32.7880  -29.3950   18.4360 C   0  0  0  0  0  1  0  0  0  0  0  0
  -33.1080  -27.9440   18.8320 C   0  0  0  0  0  3  0  0  0  0  0  0
  -34.3940  -25.9670   18.1520 C   0  0  0  0  0  1  0  0  0  0  0  0
  -33.9940  -27.3330   17.8190 N   0  0  0  0  0  0  0  0  0  0  0  0
  -34.8360  -27.8880   17.6920 H   0  0  0  0  0  0  0  0  0  0  0  0
  -22.0890  -23.5440   21.2640 C   0  0  0  0  0  2  0  0  0  0  0  0
  -26.2420  -23.7240   21.3870 C   0  0  0  0  0  3  0  0  0  0  0  0
  -26.1970  -22.3390   19.3610 C   0  0  0  0  0  0  0  0  0  0  0  0
  -26.8740  -23.2410   20.2230 C   0  0  0  0  0  0  0  0  0  0  0  0
  -24.8650  -23.5880   21.6910 C   0  0  0  0  0  0  0  0  0  0  0  0
  -24.6390  -22.5050   19.6240 C   0  0  0  0  0  0  0  0  0  0  0  0
  -23.8440  -23.2980   20.7460 C   0  0  0  0  0  0  0  0  0  0  0  0
  -28.3000  -23.7330   19.9720 C   0  0  0  0  0  1  0  0  0  0  0  0
  -24.6100  -23.4700   23.1590 C   0  0  0  0  0  1  0  0  0  0  0  0
  -23.7560  -21.6990   18.7010 C   0  0  0  0  0  1  0  0  0  0  0  0
  -31.9780  -19.1770   16.7330 C   0  0  0  0  0  0  0  0  0  0  0  0
  -34.3160  -19.5270   15.5310 C   0  0  0  0  0  2  0  0  0  0  0  0
  -35.0140  -20.8720   15.9010 C   0  0  0  0  0  2  0  0  0  0  0  0
  -34.3300  -22.0760   15.2170 C   0  0  0  0  0  2  0  0  0  0  0  0
  -32.7890  -21.9190   15.2350 C   0  0  0  0  0  3  0  0  0  0  0  0
  -32.3740  -20.5570   14.6700 C   0  0  0  0  0  2  0  0  0  0  0  0
  -32.8070  -19.6500   15.6910 N   0  0  0  0  0  0  0  0  0  0  0  0
  -32.5840  -18.2480   17.3340 O   0  0  0  0  0  0  0  0  0  0  0  0
  -28.5630  -21.8040   17.4500 C   0  0  0  0  0  2  0  0  0  0  0  0
  -28.2340  -20.0490   18.8930 C   0  0  0  0  0  2  0  0  0  0  0  0
  -29.5900  -20.7860   16.5560 C   0  0  0  0  0  2  0  0  0  0  0  0
  -29.5150  -19.2110   18.1080 C   0  0  0  0  0  2  0  0  0  0  0  0
  -27.2830  -21.3110   18.3430 C   0  0  0  0  0  3  0  0  0  0  0  0
  -30.6140  -19.7710   17.1450 N   0  0  0  0  0  0  0  0  0  0  0  0
  -31.2420  -23.9190   15.0510 C   0  0  0  0  0  0  0  0  0  0  0  0
  -30.7970  -24.6300   13.9820 C   0  0  0  0  0  0  0  0  0  0  0  0
  -31.4970  -24.1080   12.8530 C   0  0  0  0  0  0  0  0  0  0  0  0
  -32.0900  -22.9600   14.5350 N   0  0  0  0  0  0  0  0  0  0  0  0
  -32.2130  -23.0470   13.1930 N   0  0  0  0  0  0  0  0  0  0  0  0
  -31.5940  -24.6160   11.4890 C   0  0  0  0  0  0  0  0  0  0  0  0
  -31.4400  -23.7700   10.3700 C   0  0  0  0  0  3  0  0  0  0  0  0
  -31.5270  -24.2980    9.0660 C   0  0  0  0  0  3  0  0  0  0  0  0
  -31.7670  -25.6800    8.8750 C   0  0  0  0  0  0  0  0  0  0  0  0
  -31.9490  -26.5090    9.9950 C   0  0  0  0  0  3  0  0  0  0  0  0
  -31.8690  -25.9820   11.2910 C   0  0  0  0  0  3  0  0  0  0  0  0
  -31.8860  -26.2770    7.6450 O   0  0  0  0  0  0  0  0  0  0  0  0
  -31.3340  -25.7160    6.5230 C   0  0  0  0  0  0  0  0  0  0  0  0
  -29.9630  -25.3850    6.4510 C   0  0  0  0  0  3  0  0  0  0  0  0
  -29.4270  -24.8720    5.2530 C   0  0  0  0  0  3  0  0  0  0  0  0
  -30.2520  -24.7020    4.1260 C   0  0  0  0  0  0  0  0  0  0  0  0
  -31.6160  -25.0360    4.1950 C   0  0  0  0  0  3  0  0  0  0  0  0
  -32.1540  -25.5440    5.3900 C   0  0  0  0  0  0  0  0  0  0  0  0
  -33.4650  -25.8840    5.4480 F   0  0  0  0  0  0  0  0  0  0  0  0
  -29.7360  -24.2180    2.9720 F   0  0  0  0  0  0  0  0  0  0  0  0
  -29.8870  -25.8180   14.0380 C   0  0  0  0  0  0  0  0  0  0  0  0
  -29.1080  -26.0370   12.9860 N   0  0  0  0  0  0  0  0  0  0  0  0
  -29.8230  -26.5270   15.0420 O   0  0  0  0  0  0  0  0  0  0  0  0
  -29.1460  -25.4370   12.1750 H   0  0  0  0  0  0  0  0  0  0  0  0
  -28.4640  -26.8140   12.9890 H   0  0  0  0  0  0  0  0  0  0  0  0
  -31.0370  -24.0690   16.4110 N   0  0  0  0  0  0  0  0  0  0  0  0
  -30.5660  -24.9030   16.7430 H   0  0  0  0  0  0  0  0  0  0  0  0
  -31.6350  -23.6510   17.1110 H   0  0  0  0  0  0  0  0  0  0  0  0
  1  3  1  0
  2  1  1  0
  6  1  1  0
  7  8  1  0
  7  9  1  0
 11 12  1  0
 14 25  2  0
 15 20  1  0
 15 13  1  0
 16 24  1  0
 16 26  1  0
 17 22  1  0
 17 23  1  0
 17 19  1  0
 18 24  1  0
 19 20  1  0
 19 18  1  0
 21 22  1  0
 21 15  1  0
 23 16  1  0
 24 14  1  0
 26 27  1  0
 27 29  1  0
 27 31  1  0
 28 26  2  0
 30 39  1  0
 31 32  1  0
 31 35  1  0
 32 33  1  0
 33 34  1  0
 35 30  2  0
 36 35  1  0
 36 37  2  0
 37 38  1  0
 38 39  2  0
 40 14  1  0
 40 41  1  0
 41 43  1  6
 41 44  1  0
 41 42  1  0
 45 40  1  0
 45 48  1  0
 46 45  1  0
 47 46  2  0
 50 49  1  0
 50 46  1  0
 52 51  1  0
 52 50  1  0
 53 52  1  0
 54  1  1  0
 55 58  1  0
 56 59  2  0
 56 57  1  0
 57 55  2  0
 58 62  1  0
 59 60  1  0
 60 54  1  0
 60 58  2  0
 61 57  1  0
 63 59  1  0
 64 77  1  0
 64 71  2  0
 65 70  1  0
 65 66  1  0
 67 68  1  0
 67 66  1  0
 68 81  1  0
 69 68  1  0
 69 70  1  0
 70 64  1  0
 72 76  1  0
 74 77  1  0
 74 72  1  0
 75 73  1  0
 76 73  1  0
 76 56  1  0
 77 75  1  0
 78103  1  0
 79 98  1  0
 79 78  2  0
 80 82  2  0
 80 79  1  0
 81 78  1  0
 82 81  1  0
 83 80  1  0
 84 83  2  0
 85 84  1  0
 86 85  2  0
 86 87  1  0
 87 88  2  0
 88 83  1  0
 89 86  1  0
 90 89  1  0
 91 90  1  0
 92 91  2  0
 93 94  2  0
 93 92  1  0
 94 95  1  0
 95 96  1  0
 95 90  2  0
 97 93  1  0
 98100  2  0
 99102  1  0
 99 98  1  0
101 99  1  0
103104  1  0
103105  1  0
M  ISO  4  12 101  13 101  64 100  77 100
M  END
>  <TORSDO>  (3) 
F 20

>  <SCORE>  (3) 
-0.922

>  <name>  (3) 
2

>  <ligand_id>  (3) 
2

>  <original_smiles>  (3) 
[H]c1c([H])c([H])c2c(c1[H])C([H])([H])C([H])([H])C([H])([H])C2([H])N([H])C(=O)C1([H])N(C(=O)C([H])(N([H])C(=O)C([H])(N([H])C([H])([H])[H])C([H])([H])[H])C(C([H])([H])[H])(C([H])([H])[H])C([H])([H])[H])C([H])([H])c2c([H])c(OC([H])(C([H])([H])[H])C3([H])C([H])([H])OC(C([H])([H])[H])(C([H])([H])[H])C3([H])[N+]([H])([H])C([H])([H])c3c(C([H])([H])[H])c([H])c(C([H])([H])[H])c(C4([H])C([H])([H])C([H])([H])N(C(=O)N5C([H])([H])C([H])([H])C([H])([H])C([H])(n6nc(-c7c([H])c([H])c(Oc8c([H])c([H])c(F)c([H])c8F)c([H])c7[H])c(C(=O)N([H])[H])c6N([H])[H])C5([H])[H])C([H])([H])C4([H])[H])c3C([H])([H])[H])c([H])c([H])c2C1([H])[H]

>  <smiles>  (3) 
[H]c1c([H])c([H])c2c(c1[H])C([H])([H])C([H])([H])C([H])([H])C2([H])N([H])C(=O)C1([H])N(C(=O)C([H])(N([H])C(=O)C([H])(N([H])C([H])([H])[H])C([H])([H])[H])C(C([H])([H])[H])(C([H])([H])[H])C([H])([H])[H])C([H])([H])c2c([H])c(OC([H])(C([H])([H])[H])C3([H])C([H])([H])OC(C([H])([H])[H])(C([H])([H])[H])C3([H])[N+]([H])([H])C([H])([H])c3c(C([H])([H])[H])c([H])c(C([H])([H])[H])c(C4([H])C([H])([H])C([H])([H])N(C(=O)N5C([H])([H])C([H])([H])C([H])([H])C([H])(n6nc(-c7c([H])c([H])c(Oc8c([H])c([H])c(F)c([H])c8F)c([H])c7[H])c(C(=O)N([H])[H])c6N([H])[H])C5([H])[H])C([H])([H])C4([H])[H])c3C([H])([H])[H])c([H])c([H])c2C1([H])[H]

$$$$
3:0:0
     RDKit          3D

 94104  0  0  1  0  0  0  0  0999 V2000
  -28.6570  -20.5640   19.2900 C   0  0  0  0  0  3  0  0  0  0  0  0
  -29.0800  -19.2270   19.0860 C   0  0  0  0  0  3  0  0  0  0  0  0
  -30.0450  -19.1810   21.2780 C   0  0  0  0  0  3  0  0  0  0  0  0
  -28.9050  -21.2660   20.4960 C   0  0  0  0  0  0  0  0  0  0  0  0
  -29.6220  -20.5320   21.4950 C   0  0  0  0  0  0  0  0  0  0  0  0
  -29.8050  -18.4930   20.0640 C   0  0  0  0  0  0  0  0  0  0  0  0
  -30.9380  -22.3040   22.8950 C   0  0  0  0  0  2  0  0  0  0  0  0
  -31.2730  -20.9680   23.5120 C   0  0  0  0  0  2  0  0  0  0  0  0
  -29.9440  -21.1700   22.8180 C   0  0  0  0  0  3  0  0  0  0  0  0
  -27.2840  -23.2850   19.8130 C   0  0  0  0  0  2  0  0  0  0  0  0
  -28.3170  -22.6940   20.7500 C   0  0  0  0  0  3  0  0  0  0  0  0
  -28.5660  -24.0560   20.0170 C   0  0  0  0  0  3  0  0  0  0  0  0
  -28.4920  -25.4390   20.7430 C   0  0  0  0  0  2  0  0  0  0  0  0
  -28.4880  -26.6830   19.9680 O   0  0  0  0  0  0  0  0  0  0  0  0
  -24.5310  -31.7950   23.1280 C   0  0  0  0  0  0  0  0  0  0  0  0
  -27.3240  -27.4450   19.9870 C   0  0  0  0  0  0  0  0  0  0  0  0
  -23.3860  -30.4080   21.4320 C   0  0  0  0  0  3  0  0  0  0  0  0
  -24.9010  -28.9370   19.9880 C   0  0  0  0  0  0  0  0  0  0  0  0
  -25.9070  -30.8250   21.2780 C   0  0  0  0  0  2  0  0  0  0  0  0
  -26.0410  -29.4670   20.6060 C   0  0  0  0  0  0  0  0  0  0  0  0
  -27.2590  -28.7320   20.5930 C   0  0  0  0  0  3  0  0  0  0  0  0
  -26.1630  -26.9460   19.3620 C   0  0  0  0  0  3  0  0  0  0  0  0
  -24.9610  -27.6810   19.3590 C   0  0  0  0  0  3  0  0  0  0  0  0
  -23.6360  -29.7710   20.0370 C   0  0  0  0  0  2  0  0  0  0  0  0
  -24.6260  -31.0260   22.0050 N   0  0  0  0  0  0  0  0  0  0  0  0
  -23.4360  -32.0250   23.6600 O   0  0  0  0  0  0  0  0  0  0  0  0
  -22.7420  -29.3480   22.3560 C   0  0  0  0  0  0  0  0  0  0  0  0
  -21.4180  -29.1560   22.2250 N   0  0  0  0  0  0  0  0  0  0  0  0
  -23.4320  -28.7000   23.1480 O   0  0  0  0  0  0  0  0  0  0  0  0
  -20.9190  -29.7380   21.5660 H   0  0  0  0  0  0  0  0  0  0  0  0
  -18.0580  -27.9000   22.6820 C   0  0  0  0  0  0  0  0  0  0  0  0
  -20.6140  -28.1790   22.9600 C   0  0  0  0  0  3  0  0  0  0  0  0
  -20.7310  -26.7720   22.3300 C   0  0  0  0  0  2  0  0  0  0  0  0
  -19.6320  -26.4750   21.3040 C   0  0  0  0  0  2  0  0  0  0  0  0
  -18.2500  -26.5780   21.9550 C   0  0  0  0  0  2  0  0  0  0  0  0
  -19.1680  -28.6580   23.1390 C   0  0  0  0  0  0  0  0  0  0  0  0
  -18.9370  -29.8950   23.7770 C   0  0  0  0  0  3  0  0  0  0  0  0
  -17.6260  -30.3750   23.9630 C   0  0  0  0  0  3  0  0  0  0  0  0
  -16.5300  -29.6130   23.5230 C   0  0  0  0  0  3  0  0  0  0  0  0
  -16.7470  -28.3770   22.8880 C   0  0  0  0  0  3  0  0  0  0  0  0
  -25.7900  -32.4430   23.7840 C   0  0  0  0  0  3  0  0  0  0  0  0
  -26.2960  -31.6630   25.0590 C   0  0  1  0  0  0  0  0  0  0  0  0
  -25.1890  -31.3940   26.1050 C   0  0  0  0  0  1  0  0  0  0  0  0
  -26.9090  -30.3020   24.6570 C   0  0  0  0  0  1  0  0  0  0  0  0
  -27.4230  -32.4660   25.7510 C   0  0  0  0  0  1  0  0  0  0  0  0
  -25.4500  -33.8310   24.1250 N   0  0  0  0  0  0  0  0  0  0  0  0
  -25.7790  -34.8990   23.3870 C   0  0  0  0  0  0  0  0  0  0  0  0
  -26.4710  -34.8210   22.3680 O   0  0  0  0  0  0  0  0  0  0  0  0
  -24.8320  -33.9640   24.9130 H   0  0  0  0  0  0  0  0  0  0  0  0
  -24.0220  -36.6620   23.0250 C   0  0  0  0  0  1  0  0  0  0  0  0
  -25.2570  -36.2730   23.8530 C   0  0  0  0  0  3  0  0  0  0  0  0
  -27.3600  -37.1890   24.7270 C   0  0  0  0  0  1  0  0  0  0  0  0
  -26.2710  -37.3460   23.7670 N   0  0  0  0  0  0  0  0  0  0  0  0
  -25.8450  -38.2560   23.9190 H   0  0  0  0  0  0  0  0  0  0  0  0
  -30.4660  -16.8240   18.2060 C   0  0  0  0  0  1  0  0  0  0  0  0
  -30.4690  -17.1050   19.7300 C   0  0  0  0  0  3  0  0  0  0  0  0
  -30.8160  -14.7100   20.4200 C   0  0  0  0  0  0  0  0  0  0  0  0
  -30.5580  -12.4840   19.3920 C   0  0  0  0  0  2  0  0  0  0  0  0
  -29.6440  -12.6330   18.1580 C   0  0  0  0  0  2  0  0  0  0  0  0
  -28.1620  -12.5060   18.5580 C   0  0  0  0  0  2  0  0  0  0  0  0
  -27.7930  -13.3670   19.7970 C   0  0  0  0  0  3  0  0  0  0  0  0
  -28.8330  -13.2230   20.9310 C   0  0  0  0  0  2  0  0  0  0  0  0
  -30.1510  -13.5190   20.3620 N   0  0  0  0  0  0  0  0  0  0  0  0
  -32.0160  -14.7810   20.1420 O   0  0  0  0  0  0  0  0  0  0  0  0
  -30.0550  -15.8490   20.4380 N   0  0  0  0  0  0  0  0  0  0  0  0
  -29.0770  -15.7470   20.6590 H   0  0  0  0  0  0  0  0  0  0  0  0
  -25.3920  -13.9680   20.4790 C   0  0  0  0  0  0  0  0  0  0  0  0
  -24.3210  -13.1970   20.8390 C   0  0  0  0  0  0  0  0  0  0  0  0
  -24.7830  -11.8450   20.8210 C   0  0  0  0  0  0  0  0  0  0  0  0
  -26.4390  -13.0870   20.2650 N   0  0  0  0  0  0  0  0  0  0  0  0
  -26.0780  -11.8050   20.5310 N   0  0  0  0  0  0  0  0  0  0  0  0
  -24.0530  -10.5840   21.0070 C   0  0  0  0  0  0  0  0  0  0  0  0
  -24.4600   -9.6280   21.9630 C   0  0  0  0  0  3  0  0  0  0  0  0
  -23.7290   -8.4320   22.1360 C   0  0  0  0  0  3  0  0  0  0  0  0
  -22.5790   -8.1840   21.3510 C   0  0  0  0  0  0  0  0  0  0  0  0
  -22.1920   -9.1290   20.3840 C   0  0  0  0  0  3  0  0  0  0  0  0
  -22.9230  -10.3170   20.2090 C   0  0  0  0  0  3  0  0  0  0  0  0
  -21.8220   -7.0400   21.4310 O   0  0  0  0  0  0  0  0  0  0  0  0
  -21.7120   -6.3300   22.6000 C   0  0  0  0  0  0  0  0  0  0  0  0
  -21.2020   -6.9130   23.7800 C   0  0  0  0  0  3  0  0  0  0  0  0
  -21.0410   -6.1290   24.9390 C   0  0  0  0  0  3  0  0  0  0  0  0
  -21.3810   -4.7630   24.9200 C   0  0  0  0  0  0  0  0  0  0  0  0
  -21.8860   -4.1800   23.7430 C   0  0  0  0  0  3  0  0  0  0  0  0
  -22.0490   -4.9620   22.5860 C   0  0  0  0  0  0  0  0  0  0  0  0
  -22.5140   -4.3890   21.4500 F   0  0  0  0  0  0  0  0  0  0  0  0
  -21.2200   -4.0070   26.0310 F   0  0  0  0  0  0  0  0  0  0  0  0
  -22.9200  -13.6760   21.0870 C   0  0  0  0  0  0  0  0  0  0  0  0
  -22.1790  -12.9850   21.9460 N   0  0  0  0  0  0  0  0  0  0  0  0
  -22.4910  -14.7000   20.5550 O   0  0  0  0  0  0  0  0  0  0  0  0
  -22.5400  -12.1580   22.3990 H   0  0  0  0  0  0  0  0  0  0  0  0
  -21.2380  -13.2880   22.1540 H   0  0  0  0  0  0  0  0  0  0  0  0
  -25.5600  -15.3370   20.2940 N   0  0  0  0  0  0  0  0  0  0  0  0
  -24.7940  -15.9940   20.3920 H   0  0  0  0  0  0  0  0  0  0  0  0
  -26.4050  -15.7700   19.9450 H   0  0  0  0  0  0  0  0  0  0  0  0
  1  4  1  0
  2  1  2  0
  2  6  1  0
  3  5  1  0
  4  5  2  0
  5  9  1  0
  6  3  2  0
  7  8  1  0
  9  7  1  0
  9  8  1  0
 10 12  1  0
 10 11  1  0
 11  4  1  0
 12 13  1  0
 12 11  1  0
 14 16  1  0
 14 13  1  0
 15 26  2  0
 16 21  1  0
 17 25  1  0
 17 27  1  0
 18 24  1  0
 18 20  1  0
 19 25  1  0
 20 19  1  0
 21 20  2  0
 22 16  2  0
 23 22  1  0
 23 18  2  0
 24 17  1  0
 25 15  1  0
 27 29  2  0
 28 27  1  0
 30 28  1  0
 31 40  2  0
 31 36  1  0
 32 28  1  0
 32 36  1  0
 33 32  1  0
 34 35  1  0
 34 33  1  0
 35 31  1  0
 36 37  2  0
 37 38  1  0
 39 38  2  0
 40 39  1  0
 41 15  1  0
 41 46  1  0
 41 42  1  0
 42 45  1  1
 42 43  1  0
 44 42  1  0
 46 49  1  0
 47 51  1  0
 47 46  1  0
 48 47  2  0
 51 50  1  0
 53 51  1  0
 53 54  1  0
 53 52  1  0
 56 55  1  0
 56  6  1  0
 56 65  1  0
 57 65  1  0
 58 63  1  0
 59 60  1  0
 59 58  1  0
 61 60  1  0
 61 70  1  0
 61 62  1  0
 63 57  1  0
 63 62  1  0
 64 57  2  0
 65 66  1  0
 67 68  2  0
 68 87  1  0
 69 68  1  0
 69 72  1  0
 70 67  1  0
 70 71  1  0
 71 69  2  0
 72 73  1  0
 73 74  2  0
 75 78  1  0
 75 74  1  0
 76 75  2  0
 77 76  1  0
 77 72  2  0
 78 79  1  0
 79 80  1  0
 80 81  2  0
 82 81  1  0
 82 86  1  0
 83 82  2  0
 84 79  2  0
 84 83  1  0
 85 84  1  0
 87 88  1  0
 88 91  1  0
 88 90  1  0
 89 87  2  0
 92 93  1  0
 92 67  1  0
 94 92  1  0
M  ISO  4  13 101  14 101  57 100  65 100
M  END
>  <TORSDO>  (4) 
F 20

>  <SCORE>  (4) 
-13.686

>  <name>  (4) 
3

>  <ligand_id>  (4) 
3

>  <original_smiles>  (4) 
[H]c1c([H])c([H])c2c(c1[H])C([H])([H])C([H])([H])C([H])([H])C2([H])N([H])C(=O)C1([H])N(C(=O)C([H])(N([H])C(=O)C([H])(N([H])C([H])([H])[H])C([H])([H])[H])C(C([H])([H])[H])(C([H])([H])[H])C([H])([H])[H])C([H])([H])c2c([H])c(OC([H])([H])C3([H])C([H])([H])C3([H])c3c([H])c([H])c(C([H])(N([H])C(=O)N4C([H])([H])C([H])([H])C([H])([H])C([H])(n5nc(-c6c([H])c([H])c(Oc7c([H])c([H])c(F)c([H])c7F)c([H])c6[H])c(C(=O)N([H])[H])c5N([H])[H])C4([H])[H])C([H])([H])[H])c([H])c3C3([H])C([H])([H])C3([H])[H])c([H])c([H])c2C1([H])[H]

>  <smiles>  (4) 
[H]c1c([H])c([H])c2c(c1[H])C([H])([H])C([H])([H])C([H])([H])C2([H])N([H])C(=O)C1([H])N(C(=O)C([H])(N([H])C(=O)C([H])(N([H])C([H])([H])[H])C([H])([H])[H])C(C([H])([H])[H])(C([H])([H])[H])C([H])([H])[H])C([H])([H])c2c([H])c(OC([H])([H])C3([H])C([H])([H])C3([H])c3c([H])c([H])c(C([H])(N([H])C(=O)N4C([H])([H])C([H])([H])C([H])([H])C([H])(n5nc(-c6c([H])c([H])c(Oc7c([H])c([H])c(F)c([H])c7F)c([H])c6[H])c(C(=O)N([H])[H])c5N([H])[H])C4([H])[H])C([H])([H])[H])c([H])c3C3([H])C([H])([H])C3([H])[H])c([H])c([H])c2C1([H])[H]

$$$$
4:0:0
     RDKit          3D

 99110  0  0  1  0  0  0  0  0999 V2000
  -30.0500  -22.1370   20.7020 C   0  0  0  0  0  3  0  0  0  0  0  0
  -29.8370  -23.5130   20.3860 C   0  0  0  0  0  0  0  0  0  0  0  0
  -28.5660  -23.9600   19.9470 C   0  0  0  0  0  0  0  0  0  0  0  0
  -27.5500  -22.9590   19.7520 C   0  0  0  0  0  0  0  0  0  0  0  0
  -27.7540  -21.5990   20.1300 C   0  0  0  0  0  0  0  0  0  0  0  0
  -29.0240  -21.1590   20.5730 C   0  0  0  0  0  0  0  0  0  0  0  0
  -26.2300  -23.3070   19.0420 C   0  0  0  0  0  1  0  0  0  0  0  0
  -26.6100  -20.5840   20.0200 C   0  0  0  0  0  1  0  0  0  0  0  0
  -32.8830  -25.2080   19.7060 C   0  0  0  0  0  2  0  0  0  0  0  0
  -32.4580  -24.0400   20.6000 C   0  0  0  0  0  2  0  0  0  0  0  0
  -31.4710  -25.1690   19.1240 C   0  0  0  0  0  2  0  0  0  0  0  0
  -30.9980  -24.4990   20.4290 C   0  0  0  0  0  3  0  0  0  0  0  0
  -29.1930  -19.7690   20.8330 N   0  0  0  0  0  0  0  0  0  0  0  0
  -28.3450  -19.2210   20.9400 H   0  0  0  0  0  0  0  0  0  0  0  0
  -31.1020  -14.6540   19.8000 C   0  0  0  0  0  0  0  0  0  0  0  0
  -30.6870  -12.3660   18.9540 C   0  0  0  0  0  2  0  0  0  0  0  0
  -29.7140  -12.3870   17.7610 C   0  0  0  0  0  2  0  0  0  0  0  0
  -28.2650  -12.2780   18.2650 C   0  0  0  0  0  2  0  0  0  0  0  0
  -27.9570  -13.2580   19.4300 C   0  0  0  0  0  3  0  0  0  0  0  0
  -29.0670  -13.2680   20.5040 C   0  0  0  0  0  2  0  0  0  0  0  0
  -30.3410  -13.5140   19.8210 N   0  0  0  0  0  0  0  0  0  0  0  0
  -32.2410  -14.5970   19.3260 O   0  0  0  0  0  0  0  0  0  0  0  0
  -32.1100  -17.4880   20.6690 C   0  0  0  0  0  2  0  0  0  0  0  0
  -30.4020  -18.2950   19.1430 C   0  0  0  0  0  2  0  0  0  0  0  0
  -30.0710  -16.4820   21.2560 C   0  0  0  0  0  2  0  0  0  0  0  0
  -30.8420  -17.8460   21.4260 C   0  0  0  0  0  3  0  0  0  0  0  0
  -31.3080  -17.0630   19.4330 C   0  0  0  0  0  3  0  0  0  0  0  0
  -30.4030  -19.0170   20.4990 C   0  0  0  0  0  3  0  0  0  0  0  0
  -30.5390  -15.9050   19.9690 N   0  0  0  0  0  0  0  0  0  0  0  0
  -25.6550  -13.9050   20.3560 C   0  0  0  0  0  0  0  0  0  0  0  0
  -24.5930  -13.1530   20.7800 C   0  0  0  0  0  0  0  0  0  0  0  0
  -25.0010  -11.7890   20.6690 C   0  0  0  0  0  0  0  0  0  0  0  0
  -26.6440  -12.9990   20.0090 N   0  0  0  0  0  0  0  0  0  0  0  0
  -26.2630  -11.7190   20.2600 N   0  0  0  0  0  0  0  0  0  0  0  0
  -24.2460  -10.5440   20.8740 C   0  0  0  0  0  0  0  0  0  0  0  0
  -24.6560   -9.5780   21.8190 C   0  0  0  0  0  3  0  0  0  0  0  0
  -23.9040   -8.4000   22.0110 C   0  0  0  0  0  3  0  0  0  0  0  0
  -22.7260   -8.1770   21.2580 C   0  0  0  0  0  0  0  0  0  0  0  0
  -22.3360   -9.1320   20.3030 C   0  0  0  0  0  3  0  0  0  0  0  0
  -23.0880  -10.3020   20.1080 C   0  0  0  0  0  3  0  0  0  0  0  0
  -21.9470   -7.0490   21.3590 O   0  0  0  0  0  0  0  0  0  0  0  0
  -21.8020   -6.3780   22.5470 C   0  0  0  0  0  0  0  0  0  0  0  0
  -21.2900   -7.0080   23.7020 C   0  0  0  0  0  3  0  0  0  0  0  0
  -21.0930   -6.2620   24.8810 C   0  0  0  0  0  3  0  0  0  0  0  0
  -21.3980   -4.8870   24.9040 C   0  0  0  0  0  0  0  0  0  0  0  0
  -21.9030   -4.2570   23.7530 C   0  0  0  0  0  3  0  0  0  0  0  0
  -22.1020   -5.0010   22.5770 C   0  0  0  0  0  0  0  0  0  0  0  0
  -22.5690   -4.3850   21.4640 F   0  0  0  0  0  0  0  0  0  0  0  0
  -21.2010   -4.1680   26.0340 F   0  0  0  0  0  0  0  0  0  0  0  0
  -23.2390  -13.6660   21.1730 C   0  0  0  0  0  0  0  0  0  0  0  0
  -22.5610  -12.9680   22.0770 N   0  0  0  0  0  0  0  0  0  0  0  0
  -22.7970  -14.7190   20.7150 O   0  0  0  0  0  0  0  0  0  0  0  0
  -22.9380  -12.1160   22.4640 H   0  0  0  0  0  0  0  0  0  0  0  0
  -21.6550  -13.2890   22.3830 H   0  0  0  0  0  0  0  0  0  0  0  0
  -25.8640  -15.2710   20.2130 N   0  0  0  0  0  0  0  0  0  0  0  0
  -25.1420  -15.9570   20.4030 H   0  0  0  0  0  0  0  0  0  0  0  0
  -26.7170  -15.6810   19.8480 H   0  0  0  0  0  0  0  0  0  0  0  0
  -28.2790  -25.4080   19.4300 C   0  0  0  0  0  2  0  0  0  0  0  0
  -28.7040  -26.7200   19.9860 O   0  0  0  0  0  0  0  0  0  0  0  0
  -24.7360  -31.7420   23.2630 C   0  0  0  0  0  0  0  0  0  0  0  0
  -27.6670  -27.6680   19.8620 C   0  0  0  0  0  0  0  0  0  0  0  0
  -23.6720  -30.4640   21.4470 C   0  0  0  0  0  3  0  0  0  0  0  0
  -25.2530  -29.1880   19.9140 C   0  0  0  0  0  0  0  0  0  0  0  0
  -26.2030  -30.9220   21.4170 C   0  0  0  0  0  2  0  0  0  0  0  0
  -26.3760  -29.6370   20.6250 C   0  0  0  0  0  0  0  0  0  0  0  0
  -27.5880  -28.8810   20.6110 C   0  0  0  0  0  3  0  0  0  0  0  0
  -26.5460  -27.3590   19.0430 C   0  0  0  0  0  3  0  0  0  0  0  0
  -25.3400  -28.0520   19.1160 C   0  0  0  0  0  3  0  0  0  0  0  0
  -23.9690  -29.9760   20.0100 C   0  0  0  0  0  2  0  0  0  0  0  0
  -24.8860  -31.0520   22.0980 N   0  0  0  0  0  0  0  0  0  0  0  0
  -23.6190  -31.9080   23.7750 O   0  0  0  0  0  0  0  0  0  0  0  0
  -23.0430  -29.3060   22.2580 C   0  0  0  0  0  0  0  0  0  0  0  0
  -21.7240  -29.1010   22.0950 N   0  0  0  0  0  0  0  0  0  0  0  0
  -23.7380  -28.6060   22.9980 O   0  0  0  0  0  0  0  0  0  0  0  0
  -21.2220  -29.7240   21.4780 H   0  0  0  0  0  0  0  0  0  0  0  0
  -18.3680  -27.8170   22.5000 C   0  0  0  0  0  0  0  0  0  0  0  0
  -20.9300  -28.0560   22.7430 C   0  0  0  0  0  3  0  0  0  0  0  0
  -21.0240  -26.7200   21.9690 C   0  0  0  0  0  2  0  0  0  0  0  0
  -19.9000  -26.5350   20.9460 C   0  0  0  0  0  2  0  0  0  0  0  0
  -18.5340  -26.5780   21.6350 C   0  0  0  0  0  2  0  0  0  0  0  0
  -19.4930  -28.5190   23.0070 C   0  0  0  0  0  0  0  0  0  0  0  0
  -19.2810  -29.6850   23.7760 C   0  0  0  0  0  3  0  0  0  0  0  0
  -17.9780  -30.1460   24.0400 C   0  0  0  0  0  3  0  0  0  0  0  0
  -16.8680  -29.4380   23.5470 C   0  0  0  0  0  3  0  0  0  0  0  0
  -17.0640  -28.2730   22.7850 C   0  0  0  0  0  3  0  0  0  0  0  0
  -25.9600  -32.3750   23.9920 C   0  0  0  0  0  3  0  0  0  0  0  0
  -26.3930  -31.5740   25.2810 C   0  0  1  0  0  0  0  0  0  0  0  0
  -25.2250  -31.2760   26.2490 C   0  0  0  0  0  1  0  0  0  0  0  0
  -27.0450  -30.2240   24.9010 C   0  0  0  0  0  1  0  0  0  0  0  0
  -27.4660  -32.3760   26.0540 C   0  0  0  0  0  1  0  0  0  0  0  0
  -25.6000  -33.7570   24.3350 N   0  0  0  0  0  0  0  0  0  0  0  0
  -25.9430  -34.8320   23.6140 C   0  0  0  0  0  0  0  0  0  0  0  0
  -26.6650  -34.7680   22.6170 O   0  0  0  0  0  0  0  0  0  0  0  0
  -24.9630  -33.8790   25.1080 H   0  0  0  0  0  0  0  0  0  0  0  0
  -24.1830  -36.5870   23.2140 C   0  0  0  0  0  1  0  0  0  0  0  0
  -25.3960  -36.1980   24.0760 C   0  0  0  0  0  3  0  0  0  0  0  0
  -27.4630  -37.1220   25.0260 C   0  0  0  0  0  1  0  0  0  0  0  0
  -26.4040  -37.2790   24.0320 N   0  0  0  0  0  0  0  0  0  0  0  0
  -25.9660  -38.1860   24.1760 H   0  0  0  0  0  0  0  0  0  0  0  0
  2 12  1  0
  2  1  2  0
  3  2  1  0
  4  3  2  0
  4  5  1  0
  5  6  2  0
  6  1  1  0
  6 13  1  0
  7  4  1  0
  8  5  1  0
  9 10  1  0
 11  9  1  0
 11 12  1  0
 12 10  1  0
 13 14  1  0
 15 21  1  0
 15 29  1  0
 16 21  1  0
 17 18  1  0
 17 16  1  0
 19 18  1  0
 19 33  1  0
 19 20  1  0
 21 20  1  0
 22 15  2  0
 24 28  1  0
 25 26  1  0
 26 23  1  0
 27 24  1  0
 27 29  1  0
 27 23  1  0
 28 13  1  0
 28 26  1  0
 29 25  1  0
 30 31  2  0
 31 50  1  0
 32 31  1  0
 32 35  1  0
 33 34  1  0
 33 30  1  0
 34 32  2  0
 35 36  1  0
 36 37  2  0
 38 41  1  0
 38 37  1  0
 39 38  2  0
 40 39  1  0
 40 35  2  0
 41 42  1  0
 42 47  2  0
 42 43  1  0
 43 44  2  0
 44 45  1  0
 45 49  1  0
 46 45  2  0
 47 46  1  0
 48 47  1  0
 50 51  1  0
 51 54  1  0
 51 53  1  0
 52 50  2  0
 55 30  1  0
 55 56  1  0
 57 55  1  0
 58  3  1  0
 58 59  1  0
 60 71  2  0
 61 59  1  0
 61 66  1  0
 62 70  1  0
 62 72  1  0
 63 69  1  0
 63 65  1  0
 64 70  1  0
 65 64  1  0
 66 65  2  0
 67 68  1  0
 67 61  2  0
 68 63  2  0
 69 62  1  0
 70 60  1  0
 72 74  2  0
 73 72  1  0
 75 73  1  0
 76 85  2  0
 76 81  1  0
 77 73  1  0
 77 81  1  0
 78 77  1  0
 79 80  1  0
 79 78  1  0
 80 76  1  0
 81 82  2  0
 82 83  1  0
 84 83  2  0
 85 84  1  0
 86 60  1  0
 86 91  1  0
 86 87  1  0
 87 90  1  1
 87 88  1  0
 89 87  1  0
 91 94  1  0
 92 96  1  0
 92 91  1  0
 93 92  2  0
 96 95  1  0
 98 96  1  0
 98 99  1  0
 98 97  1  0
M  ISO  4  15 100  29 100  58 101  59 101
M  END
>  <TORSDO>  (5) 
F 19

>  <SCORE>  (5) 
-12.722

>  <name>  (5) 
4

>  <ligand_id>  (5) 
4

>  <original_smiles>  (5) 
[H]c1c([H])c([H])c2c(c1[H])C([H])([H])C([H])([H])C([H])([H])C2([H])N([H])C(=O)C1([H])N(C(=O)C([H])(N([H])C(=O)C([H])(N([H])C([H])([H])[H])C([H])([H])[H])C(C([H])([H])[H])(C([H])([H])[H])C([H])([H])[H])C([H])([H])c2c([H])c(OC([H])([H])c3c(C([H])([H])[H])c(C([H])([H])[H])c(N([H])C4([H])C([H])([H])C5([H])N(C(=O)N6C([H])([H])C([H])([H])C([H])([H])C([H])(n7nc(-c8c([H])c([H])c(Oc9c([H])c([H])c(F)c([H])c9F)c([H])c8[H])c(C(=O)N([H])[H])c7N([H])[H])C6([H])[H])C([H])([H])C4([H])C5([H])[H])c([H])c3C3([H])C([H])([H])C([H])([H])C3([H])[H])c([H])c([H])c2C1([H])[H]

>  <smiles>  (5) 
[H]c1c([H])c([H])c2c(c1[H])C([H])([H])C([H])([H])C([H])([H])C2([H])N([H])C(=O)C1([H])N(C(=O)C([H])(N([H])C(=O)C([H])(N([H])C([H])([H])[H])C([H])([H])[H])C(C([H])([H])[H])(C([H])([H])[H])C([H])([H])[H])C([H])([H])c2c([H])c(OC([H])([H])c3c(C([H])([H])[H])c(C([H])([H])[H])c(N([H])C4([H])C([H])([H])C5([H])N(C(=O)N6C([H])([H])C([H])([H])C([H])([H])C([H])(n7nc(-c8c([H])c([H])c(Oc9c([H])c([H])c(F)c([H])c9F)c([H])c8[H])c(C(=O)N([H])[H])c7N([H])[H])C6([H])[H])C([H])([H])C4([H])C5([H])[H])c([H])c3C3([H])C([H])([H])C([H])([H])C3([H])[H])c([H])c([H])c2C1([H])[H]

$$$$
5:0:0
     RDKit          3D

 93103  0  0  1  0  0  0  0  0999 V2000
  -29.9290  -21.8460   19.4160 C   0  0  0  0  0  3  0  0  0  0  0  0
  -30.0670  -20.4930   19.8050 C   0  0  0  0  0  3  0  0  0  0  0  0
  -29.7880  -22.8910   20.3620 C   0  0  0  0  0  0  0  0  0  0  0  0
  -29.7940  -22.5330   21.7370 C   0  0  0  0  0  0  0  0  0  0  0  0
  -29.8970  -21.1640   22.1320 C   0  0  0  0  0  0  0  0  0  0  0  0
  -30.0580  -20.1280   21.1710 C   0  0  0  0  0  0  0  0  0  0  0  0
  -29.6950  -23.6270   22.7970 C   0  0  0  0  0  1  0  0  0  0  0  0
  -29.8550  -20.7940   23.6110 C   0  0  0  0  0  1  0  0  0  0  0  0
  -28.7160  -24.6640   18.7350 C   0  0  0  0  0  2  0  0  0  0  0  0
  -29.6720  -24.3370   19.8680 C   0  0  0  0  0  3  0  0  0  0  0  0
  -28.4580  -25.2470   20.0990 C   0  0  0  0  0  3  0  0  0  0  0  0
  -28.6280  -26.6880   20.0960 O   0  0  0  0  0  0  0  0  0  0  0  0
  -24.7120  -31.8170   23.1660 C   0  0  0  0  0  0  0  0  0  0  0  0
  -27.4610  -27.4390   20.0510 C   0  0  0  0  0  0  0  0  0  0  0  0
  -23.5470  -30.4110   21.5010 C   0  0  0  0  0  3  0  0  0  0  0  0
  -25.0400  -28.9250   20.0610 C   0  0  0  0  0  0  0  0  0  0  0  0
  -26.0700  -30.8170   21.3260 C   0  0  0  0  0  2  0  0  0  0  0  0
  -26.1880  -29.4560   20.6630 C   0  0  0  0  0  0  0  0  0  0  0  0
  -27.4020  -28.7230   20.6510 C   0  0  0  0  0  3  0  0  0  0  0  0
  -26.2920  -26.9400   19.4270 C   0  0  0  0  0  3  0  0  0  0  0  0
  -25.0890  -27.6690   19.4370 C   0  0  0  0  0  3  0  0  0  0  0  0
  -23.7790  -29.7570   20.1130 C   0  0  0  0  0  2  0  0  0  0  0  0
  -24.7930  -31.0300   22.0560 N   0  0  0  0  0  0  0  0  0  0  0  0
  -23.6210  -32.0600   23.7020 O   0  0  0  0  0  0  0  0  0  0  0  0
  -22.9100  -29.3630   22.4430 C   0  0  0  0  0  0  0  0  0  0  0  0
  -21.5930  -29.1460   22.2990 N   0  0  0  0  0  0  0  0  0  0  0  0
  -23.6000  -28.7490   23.2610 O   0  0  0  0  0  0  0  0  0  0  0  0
  -21.0960  -29.6960   21.6110 H   0  0  0  0  0  0  0  0  0  0  0  0
  -18.2500  -27.8410   22.7300 C   0  0  0  0  0  0  0  0  0  0  0  0
  -20.7920  -28.1810   23.0500 C   0  0  0  0  0  3  0  0  0  0  0  0
  -20.9520  -26.7550   22.4710 C   0  0  0  0  0  2  0  0  0  0  0  0
  -19.8800  -26.4010   21.4360 C   0  0  0  0  0  2  0  0  0  0  0  0
  -18.4820  -26.5000   22.0540 C   0  0  0  0  0  2  0  0  0  0  0  0
  -19.3350  -28.6370   23.1830 C   0  0  0  0  0  0  0  0  0  0  0  0
  -19.0640  -29.8920   23.7730 C   0  0  0  0  0  3  0  0  0  0  0  0
  -17.7410  -30.3500   23.9140 C   0  0  0  0  0  3  0  0  0  0  0  0
  -16.6700  -29.5520   23.4780 C   0  0  0  0  0  3  0  0  0  0  0  0
  -16.9250  -28.2990   22.8920 C   0  0  0  0  0  3  0  0  0  0  0  0
  -25.9800  -32.4680   23.8020 C   0  0  0  0  0  3  0  0  0  0  0  0
  -25.6350  -33.8510   24.1590 N   0  0  0  0  0  0  0  0  0  0  0  0
  -25.9400  -34.9260   23.4210 C   0  0  0  0  0  0  0  0  0  0  0  0
  -26.6130  -34.8600   22.3890 O   0  0  0  0  0  0  0  0  0  0  0  0
  -25.0370  -33.9750   24.9630 H   0  0  0  0  0  0  0  0  0  0  0  0
  -24.1600  -36.6740   23.1040 C   0  0  0  0  0  1  0  0  0  0  0  0
  -25.4160  -36.2910   23.9040 C   0  0  0  0  0  3  0  0  0  0  0  0
  -27.5300  -37.2210   24.7380 C   0  0  0  0  0  1  0  0  0  0  0  0
  -26.4180  -37.3750   23.8040 N   0  0  0  0  0  0  0  0  0  0  0  0
  -25.9880  -38.2820   23.9700 H   0  0  0  0  0  0  0  0  0  0  0  0
  -26.5160  -31.6840   25.0610 C   0  0  1  0  0  0  0  0  0  0  0  0
  -25.4310  -31.3980   26.1250 C   0  0  0  0  0  1  0  0  0  0  0  0
  -27.1320  -30.3300   24.6390 C   0  0  0  0  0  1  0  0  0  0  0  0
  -27.6490  -32.4920   25.7370 C   0  0  0  0  0  1  0  0  0  0  0  0
  -30.1880  -18.8230   21.6370 O   0  0  0  0  0  0  0  0  0  0  0  0
  -31.1630  -14.6650   20.2470 C   0  0  0  0  0  0  0  0  0  0  0  0
  -30.7640  -12.5600   19.0110 C   0  0  0  0  0  2  0  0  0  0  0  0
  -29.8030  -12.8330   17.8360 C   0  0  0  0  0  2  0  0  0  0  0  0
  -28.3350  -12.7280   18.2940 C   0  0  0  0  0  2  0  0  0  0  0  0
  -28.0540  -13.5300   19.5920 C   0  0  0  0  0  3  0  0  0  0  0  0
  -29.1220  -13.2370   20.6680 C   0  0  0  0  0  2  0  0  0  0  0  0
  -30.4420  -13.5190   20.0820 N   0  0  0  0  0  0  0  0  0  0  0  0
  -32.2850  -14.8200   19.7550 O   0  0  0  0  0  0  0  0  0  0  0  0
  -31.2690  -16.6370   21.7720 C   0  0  0  0  0  2  0  0  0  0  0  0
  -29.8530  -16.7810   20.2270 C   0  0  0  0  0  2  0  0  0  0  0  0
  -30.8180  -17.7830   20.8630 C   0  0  0  0  0  3  0  0  0  0  0  0
  -30.5490  -15.6730   20.9160 N   0  0  0  0  0  0  0  0  0  0  0  0
  -25.6890  -14.1980   20.3540 C   0  0  0  0  0  0  0  0  0  0  0  0
  -24.6010  -13.4540   20.7250 C   0  0  0  0  0  0  0  0  0  0  0  0
  -25.0180  -12.0890   20.6600 C   0  0  0  0  0  0  0  0  0  0  0  0
  -26.7010  -13.2880   20.0890 N   0  0  0  0  0  0  0  0  0  0  0  0
  -26.3000  -12.0130   20.3290 N   0  0  0  0  0  0  0  0  0  0  0  0
  -24.2530  -10.8470   20.8370 C   0  0  0  0  0  0  0  0  0  0  0  0
  -24.6640   -9.8510   21.7510 C   0  0  0  0  0  3  0  0  0  0  0  0
  -23.9040   -8.6740   21.9170 C   0  0  0  0  0  3  0  0  0  0  0  0
  -22.7170   -8.4850   21.1690 C   0  0  0  0  0  0  0  0  0  0  0  0
  -22.3250   -9.4680   20.2440 C   0  0  0  0  0  3  0  0  0  0  0  0
  -23.0860  -10.6380   20.0770 C   0  0  0  0  0  3  0  0  0  0  0  0
  -21.9280   -7.3620   21.2460 O   0  0  0  0  0  0  0  0  0  0  0  0
  -21.8490   -6.6150   22.3940 C   0  0  0  0  0  0  0  0  0  0  0  0
  -21.4440   -7.1800   23.6230 C   0  0  0  0  0  3  0  0  0  0  0  0
  -21.3090   -6.3610   24.7630 C   0  0  0  0  0  3  0  0  0  0  0  0
  -21.5680   -4.9800   24.6730 C   0  0  0  0  0  0  0  0  0  0  0  0
  -21.9660   -4.4160   23.4480 C   0  0  0  0  0  3  0  0  0  0  0  0
  -22.1030   -5.2310   22.3120 C   0  0  0  0  0  0  0  0  0  0  0  0
  -22.4660   -4.6790   21.1290 F   0  0  0  0  0  0  0  0  0  0  0  0
  -21.4310   -4.1920   25.7650 F   0  0  0  0  0  0  0  0  0  0  0  0
  -23.2250  -13.9700   21.0300 C   0  0  0  0  0  0  0  0  0  0  0  0
  -22.4930  -13.2880   21.9050 N   0  0  0  0  0  0  0  0  0  0  0  0
  -22.8080  -15.0140   20.5290 O   0  0  0  0  0  0  0  0  0  0  0  0
  -22.8420  -12.4440   22.3330 H   0  0  0  0  0  0  0  0  0  0  0  0
  -21.5690  -13.6170   22.1490 H   0  0  0  0  0  0  0  0  0  0  0  0
  -25.8960  -15.5650   20.2020 N   0  0  0  0  0  0  0  0  0  0  0  0
  -25.1580  -16.2460   20.3470 H   0  0  0  0  0  0  0  0  0  0  0  0
  -26.7630  -15.9800   19.8860 H   0  0  0  0  0  0  0  0  0  0  0  0
  1  2  2  0
  1  3  1  0
  2  6  1  0
  3  4  2  0
  4  5  1  0
  4  7  1  0
  5  8  1  0
  6 53  1  0
  6  5  2  0
  9 10  1  0
  9 11  1  0
 10 11  1  0
 10  3  1  0
 11 12  1  0
 13 24  2  0
 14 12  1  0
 14 19  1  0
 15 23  1  0
 15 25  1  0
 16 22  1  0
 16 18  1  0
 17 23  1  0
 18 17  1  0
 19 18  2  0
 20 21  1  0
 20 14  2  0
 21 16  2  0
 22 15  1  0
 23 13  1  0
 25 27  2  0
 26 25  1  0
 28 26  1  0
 29 38  2  0
 29 34  1  0
 30 26  1  0
 30 34  1  0
 31 30  1  0
 32 33  1  0
 32 31  1  0
 33 29  1  0
 34 35  2  0
 35 36  1  0
 37 36  2  0
 38 37  1  0
 39 13  1  0
 39 40  1  0
 39 49  1  0
 40 43  1  0
 41 45  1  0
 41 40  1  0
 42 41  2  0
 45 44  1  0
 47 45  1  0
 47 48  1  0
 47 46  1  0
 49 52  1  1
 49 50  1  0
 51 49  1  0
 54 65  1  0
 55 60  1  0
 56 57  1  0
 56 55  1  0
 58 57  1  0
 58 69  1  0
 58 59  1  0
 60 54  1  0
 60 59  1  0
 61 54  2  0
 63 64  1  0
 63 65  1  0
 64 53  1  0
 64 62  1  0
 65 62  1  0
 66 67  2  0
 67 86  1  0
 68 67  1  0
 68 71  1  0
 69 70  1  0
 69 66  1  0
 70 68  2  0
 71 72  1  0
 72 73  2  0
 74 77  1  0
 74 73  1  0
 75 74  2  0
 76 75  1  0
 76 71  2  0
 77 78  1  0
 78 79  1  0
 79 80  2  0
 81 80  1  0
 81 85  1  0
 82 81  2  0
 83 78  2  0
 83 82  1  0
 84 83  1  0
 86 87  1  0
 87 90  1  0
 87 89  1  0
 88 86  2  0
 91 92  1  0
 91 66  1  0
 93 91  1  0
M  ISO  4  11 101  12 101  54 100  65 100
M  END
>  <TORSDO>  (6) 
F 18

>  <SCORE>  (6) 
-13.738

>  <name>  (6) 
5

>  <ligand_id>  (6) 
5

>  <original_smiles>  (6) 
[H]c1c([H])c([H])c2c(c1[H])C([H])([H])C([H])([H])C([H])([H])C2([H])N([H])C(=O)C1([H])N(C(=O)C([H])(N([H])C(=O)C([H])(N([H])C([H])([H])[H])C([H])([H])[H])C(C([H])([H])[H])(C([H])([H])[H])C([H])([H])[H])C([H])([H])c2c([H])c(OC3([H])C([H])([H])C3([H])c3c([H])c([H])c(OC4([H])C([H])([H])N(C(=O)N5C([H])([H])C([H])([H])C([H])([H])C([H])(n6nc(-c7c([H])c([H])c(Oc8c([H])c([H])c(F)c([H])c8F)c([H])c7[H])c(C(=O)N([H])[H])c6N([H])[H])C5([H])[H])C4([H])[H])c(C([H])([H])[H])c3C([H])([H])[H])c([H])c([H])c2C1([H])[H]

>  <smiles>  (6) 
[H]c1c([H])c([H])c2c(c1[H])C([H])([H])C([H])([H])C([H])([H])C2([H])N([H])C(=O)C1([H])N(C(=O)C([H])(N([H])C(=O)C([H])(N([H])C([H])([H])[H])C([H])([H])[H])C(C([H])([H])[H])(C([H])([H])[H])C([H])([H])[H])C([H])([H])c2c([H])c(OC3([H])C([H])([H])C3([H])c3c([H])c([H])c(OC4([H])C([H])([H])N(C(=O)N5C([H])([H])C([H])([H])C([H])([H])C([H])(n6nc(-c7c([H])c([H])c(Oc8c([H])c([H])c(F)c([H])c8F)c([H])c7[H])c(C(=O)N([H])[H])c6N([H])[H])C5([H])[H])C4([H])[H])c(C([H])([H])[H])c3C([H])([H])[H])c([H])c([H])c2C1([H])[H]

$$$$
6:0:0
     RDKit          3D

102112  0  0  1  0  0  0  0  0999 V2000
  -28.1580  -20.2890   18.8270 C   0  0  0  0  0  3  0  0  0  0  0  0
  -28.7880  -21.4250   19.3300 C   0  0  0  0  0  0  0  0  0  0  0  0
  -30.0510  -21.3490   19.8670 C   0  0  0  0  0  0  0  0  0  0  0  0
  -30.0290  -18.8740   19.6480 C   0  0  0  0  0  0  0  0  0  0  0  0
  -28.7960  -19.0380   18.9100 C   0  0  0  0  0  0  0  0  0  0  0  0
  -30.7240  -20.1010   19.9800 C   0  0  0  0  0  0  0  0  0  0  0  0
  -30.5480  -22.7590   20.1600 C   0  0  0  0  0  3  0  0  0  0  0  0
  -28.2920  -22.8400   19.1860 C   0  0  2  0  0  0  0  0  0  0  0  0
  -28.1240  -17.9840   18.0360 C   0  0  0  0  0  1  0  0  0  0  0  0
  -32.2100  -20.1490   20.3180 C   0  0  0  0  0  1  0  0  0  0  0  0
  -30.9710  -22.9810   21.6220 C   0  0  0  0  0  1  0  0  0  0  0  0
  -26.9830  -22.9970   19.9810 C   0  0  0  0  0  1  0  0  0  0  0  0
  -28.0650  -23.1090   17.6770 C   0  0  0  0  0  1  0  0  0  0  0  0
  -29.3940  -23.6530   19.8150 N   0  0  2  0  0  4  0  0  0  0  0  0
  -29.0320  -23.9200   20.7190 H   0  0  0  0  0  0  0  0  0  0  0  0
  -30.5380  -14.1760   19.1830 C   0  0  0  0  0  0  0  0  0  0  0  0
  -29.7570  -12.2660   17.8260 C   0  0  0  0  0  2  0  0  0  0  0  0
  -28.5690  -12.6630   16.9280 C   0  0  0  0  0  2  0  0  0  0  0  0
  -27.2380  -12.5120   17.6870 C   0  0  0  0  0  2  0  0  0  0  0  0
  -27.2670  -13.2010   19.0760 C   0  0  0  0  0  3  0  0  0  0  0  0
  -28.5350  -12.7930   19.8630 C   0  0  0  0  0  2  0  0  0  0  0  0
  -29.7200  -13.0980   19.0380 N   0  0  0  0  0  0  0  0  0  0  0  0
  -31.3930  -14.4870   18.3470 O   0  0  0  0  0  0  0  0  0  0  0  0
  -31.4310  -17.3790   21.3500 C   0  0  0  0  0  2  0  0  0  0  0  0
  -31.1180  -14.8400   21.4720 C   0  0  0  0  0  2  0  0  0  0  0  0
  -30.6340  -17.4560   20.0010 C   0  0  0  0  0  3  0  0  0  0  0  0
  -32.1090  -16.0130   21.6050 C   0  0  0  0  0  3  0  0  0  0  0  0
  -29.6250  -16.2550   20.1060 C   0  0  0  0  0  3  0  0  0  0  0  0
  -33.3720  -15.8260   20.7430 C   0  0  0  0  0  1  0  0  0  0  0  0
  -28.5120  -16.4250   21.1680 C   0  0  0  0  0  1  0  0  0  0  0  0
  -30.2960  -14.9540   20.2650 N   0  0  0  0  0  0  0  0  0  0  0  0
  -25.1140  -13.8020   20.3560 C   0  0  0  0  0  0  0  0  0  0  0  0
  -24.1310  -13.0260   20.9100 C   0  0  0  0  0  0  0  0  0  0  0  0
  -24.5150  -11.6730   20.6660 C   0  0  0  0  0  0  0  0  0  0  0  0
  -26.0460  -12.9200   19.8290 N   0  0  0  0  0  0  0  0  0  0  0  0
  -25.6970  -11.6290   20.0640 N   0  0  0  0  0  0  0  0  0  0  0  0
  -23.7980  -10.4160   20.9230 C   0  0  0  0  0  0  0  0  0  0  0  0
  -24.3340   -9.4230   21.7720 C   0  0  0  0  0  3  0  0  0  0  0  0
  -23.6190   -8.2320   22.0210 C   0  0  0  0  0  3  0  0  0  0  0  0
  -22.3550   -8.0250   21.4200 C   0  0  0  0  0  0  0  0  0  0  0  0
  -21.8360   -9.0070   20.5580 C   0  0  0  0  0  3  0  0  0  0  0  0
  -22.5510  -10.1890   20.3060 C   0  0  0  0  0  3  0  0  0  0  0  0
  -21.6020   -6.8860   21.5800 O   0  0  0  0  0  0  0  0  0  0  0  0
  -21.6100   -6.1750   22.7530 C   0  0  0  0  0  0  0  0  0  0  0  0
  -21.2430   -6.7640   23.9830 C   0  0  0  0  0  3  0  0  0  0  0  0
  -21.1970   -5.9810   25.1530 C   0  0  0  0  0  3  0  0  0  0  0  0
  -21.5110   -4.6100   25.0970 C   0  0  0  0  0  0  0  0  0  0  0  0
  -21.8730   -4.0200   23.8720 C   0  0  0  0  0  3  0  0  0  0  0  0
  -21.9200   -4.8010   22.7040 C   0  0  0  0  0  0  0  0  0  0  0  0
  -22.2480   -4.2240   21.5230 F   0  0  0  0  0  0  0  0  0  0  0  0
  -21.4600   -3.8550   26.2190 F   0  0  0  0  0  0  0  0  0  0  0  0
  -22.8590  -13.5140   21.5400 C   0  0  0  0  0  0  0  0  0  0  0  0
  -22.3410  -12.7750   22.5150 N   0  0  0  0  0  0  0  0  0  0  0  0
  -22.3440  -14.5790   21.2050 O   0  0  0  0  0  0  0  0  0  0  0  0
  -22.7820  -11.9140   22.8050 H   0  0  0  0  0  0  0  0  0  0  0  0
  -21.4960  -13.0740   22.9800 H   0  0  0  0  0  0  0  0  0  0  0  0
  -25.2740  -15.1780   20.2420 N   0  0  0  0  0  0  0  0  0  0  0  0
  -24.5740  -15.8260   20.5860 H   0  0  0  0  0  0  0  0  0  0  0  0
  -26.0450  -15.6330   19.7730 H   0  0  0  0  0  0  0  0  0  0  0  0
  -29.8180  -24.9270   19.1530 C   0  0  0  0  0  2  0  0  0  0  0  0
  -28.6790  -25.9320   18.8780 C   0  0  0  0  0  2  0  0  0  0  0  0
  -28.2460  -26.5340   20.0960 O   0  0  0  0  0  0  0  0  0  0  0  0
  -24.5460  -31.7570   23.1820 C   0  0  0  0  0  0  0  0  0  0  0  0
  -27.0820  -27.2750   20.0700 C   0  0  0  0  0  0  0  0  0  0  0  0
  -23.3030  -30.3910   21.5370 C   0  0  0  0  0  3  0  0  0  0  0  0
  -24.7160  -28.8250   20.1080 C   0  0  0  0  0  0  0  0  0  0  0  0
  -25.8370  -30.6850   21.3420 C   0  0  0  0  0  2  0  0  0  0  0  0
  -25.8860  -29.3160   20.7010 C   0  0  0  0  0  0  0  0  0  0  0  0
  -27.0660  -28.5390   20.6970 C   0  0  0  0  0  3  0  0  0  0  0  0
  -25.8890  -26.7960   19.4790 C   0  0  0  0  0  3  0  0  0  0  0  0
  -24.7100  -27.5600   19.5030 C   0  0  0  0  0  3  0  0  0  0  0  0
  -23.4950  -29.7130   20.1540 C   0  0  0  0  0  2  0  0  0  0  0  0
  -24.5810  -30.9590   22.0780 N   0  0  0  0  0  0  0  0  0  0  0  0
  -23.4720  -32.0560   23.7220 O   0  0  0  0  0  0  0  0  0  0  0  0
  -22.6270  -29.3810   22.4940 C   0  0  0  0  0  0  0  0  0  0  0  0
  -21.2990  -29.2360   22.3670 N   0  0  0  0  0  0  0  0  0  0  0  0
  -23.2980  -28.7340   23.3030 O   0  0  0  0  0  0  0  0  0  0  0  0
  -20.8240  -29.8080   21.6840 H   0  0  0  0  0  0  0  0  0  0  0  0
  -17.8940  -28.1420   22.8730 C   0  0  0  0  0  0  0  0  0  0  0  0
  -20.4590  -28.3190   23.1370 C   0  0  0  0  0  3  0  0  0  0  0  0
  -20.5160  -26.8900   22.5540 C   0  0  0  0  0  2  0  0  0  0  0  0
  -19.4010  -26.6050   21.5430 C   0  0  0  0  0  2  0  0  0  0  0  0
  -18.0260  -26.7900   22.1920 C   0  0  0  0  0  2  0  0  0  0  0  0
  -19.0370  -28.8670   23.3020 C   0  0  0  0  0  0  0  0  0  0  0  0
  -18.8600  -30.1350   23.8990 C   0  0  0  0  0  3  0  0  0  0  0  0
  -17.5720  -30.6760   24.0710 C   0  0  0  0  0  3  0  0  0  0  0  0
  -16.4430  -29.9470   23.6580 C   0  0  0  0  0  3  0  0  0  0  0  0
  -16.6050  -28.6820   23.0640 C   0  0  0  0  0  3  0  0  0  0  0  0
  -25.8500  -32.3510   23.8000 C   0  0  0  0  0  3  0  0  0  0  0  0
  -25.5680  -33.7450   24.1670 N   0  0  0  0  0  0  0  0  0  0  0  0
  -25.8950  -34.8070   23.4190 C   0  0  0  0  0  0  0  0  0  0  0  0
  -26.5400  -34.7170   22.3710 O   0  0  0  0  0  0  0  0  0  0  0  0
  -24.9950  -33.8920   24.9850 H   0  0  0  0  0  0  0  0  0  0  0  0
  -24.1780  -36.6230   23.1420 C   0  0  0  0  0  1  0  0  0  0  0  0
  -25.4350  -36.1910   23.9150 C   0  0  0  0  0  3  0  0  0  0  0  0
  -27.5970  -37.0380   24.7100 C   0  0  0  0  0  1  0  0  0  0  0  0
  -26.4750  -37.2350   23.7960 N   0  0  0  0  0  0  0  0  0  0  0  0
  -26.0830  -38.1570   23.9700 H   0  0  0  0  0  0  0  0  0  0  0  0
  -26.3730  -31.5390   25.0480 C   0  0  1  0  0  0  0  0  0  0  0  0
  -25.2920  -31.2910   26.1250 C   0  0  0  0  0  1  0  0  0  0  0  0
  -26.9300  -30.1650   24.6120 C   0  0  0  0  0  1  0  0  0  0  0  0
  -27.5440  -32.3000   25.7140 C   0  0  0  0  0  1  0  0  0  0  0  0
  1  5  2  0
  1  2  1  0
  2  3  2  0
  3  6  1  0
  3  7  1  0
  4  6  2  0
  5  4  1  0
  6 10  1  0
  7 11  1  0
  8  2  1  0
  8 14  1  0
  8 12  1  1
  9  5  1  0
 13  8  1  0
 14  7  1  0
 14 15  1  1
 16 31  1  0
 17 22  1  0
 18 19  1  0
 18 17  1  0
 20 19  1  0
 20 35  1  0
 20 21  1  0
 22 16  1  0
 22 21  1  0
 23 16  2  0
 24 27  1  0
 25 27  1  0
 26  4  1  0
 26 28  1  0
 26 24  1  0
 27 29  1  0
 28 31  1  0
 28 30  1  0
 31 25  1  0
 32 33  2  0
 33 52  1  0
 34 33  1  0
 34 37  1  0
 35 36  1  0
 35 32  1  0
 36 34  2  0
 37 38  1  0
 38 39  2  0
 40 43  1  0
 40 39  1  0
 41 40  2  0
 42 41  1  0
 42 37  2  0
 43 44  1  0
 44 45  1  0
 45 46  2  0
 47 46  1  0
 47 51  1  0
 48 47  2  0
 49 44  2  0
 49 48  1  0
 50 49  1  0
 52 53  1  0
 53 55  1  0
 53 56  1  0
 54 52  2  0
 57 32  1  0
 57 58  1  0
 59 57  1  0
 60 14  1  0
 61 60  1  0
 61 62  1  0
 63 74  2  0
 64 62  1  0
 64 69  1  0
 65 73  1  0
 65 75  1  0
 66 72  1  0
 66 68  1  0
 67 73  1  0
 68 67  1  0
 69 68  2  0
 70 71  1  0
 70 64  2  0
 71 66  2  0
 72 65  1  0
 73 63  1  0
 75 77  2  0
 76 75  1  0
 78 76  1  0
 79 88  2  0
 79 84  1  0
 80 76  1  0
 80 84  1  0
 81 80  1  0
 82 83  1  0
 82 81  1  0
 83 79  1  0
 84 85  2  0
 85 86  1  0
 87 86  2  0
 88 87  1  0
 89 63  1  0
 89 90  1  0
 89 99  1  0
 90 93  1  0
 91 95  1  0
 91 90  1  0
 92 91  2  0
 95 94  1  0
 97 95  1  0
 97 98  1  0
 97 96  1  0
 99102  1  1
 99100  1  0
101 99  1  0
M  ISO  4  16 100  31 100  61 101  62 101
M  END
>  <TORSDO>  (7) 
F 18

>  <SCORE>  (7) 
-9.756

>  <name>  (7) 
6

>  <ligand_id>  (7) 
6

>  <original_smiles>  (7) 
[H]c1c([H])c([H])c2c(c1[H])C([H])([H])C([H])([H])C([H])([H])C2([H])N([H])C(=O)C1([H])N(C(=O)C([H])(N([H])C(=O)C([H])(N([H])C([H])([H])[H])C([H])([H])[H])C(C([H])([H])[H])(C([H])([H])[H])C([H])([H])[H])C([H])([H])c2c([H])c(OC([H])([H])C([H])([H])[N+]3([H])C([H])(C([H])([H])[H])c4c(C([H])([H])[H])c(C5([H])C([H])([H])C([H])(C([H])([H])[H])C([H])([H])N(C(=O)N6C([H])([H])C([H])([H])C([H])([H])C([H])(n7nc(-c8c([H])c([H])c(Oc9c([H])c([H])c(F)c([H])c9F)c([H])c8[H])c(C(=O)N([H])[H])c7N([H])[H])C6([H])[H])C5([H])C([H])([H])[H])c(C([H])([H])[H])c([H])c4C3(C([H])([H])[H])C([H])([H])[H])c([H])c([H])c2C1([H])[H]

>  <smiles>  (7) 
[H]c1c([H])c([H])c2c(c1[H])C([H])([H])C([H])([H])C([H])([H])C2([H])N([H])C(=O)C1([H])N(C(=O)C([H])(N([H])C(=O)C([H])(N([H])C([H])([H])[H])C([H])([H])[H])C(C([H])([H])[H])(C([H])([H])[H])C([H])([H])[H])C([H])([H])c2c([H])c(OC([H])([H])C([H])([H])[N+]3([H])C([H])(C([H])([H])[H])c4c(C([H])([H])[H])c(C5([H])C([H])([H])C([H])(C([H])([H])[H])C([H])([H])N(C(=O)N6C([H])([H])C([H])([H])C([H])([H])C([H])(n7nc(-c8c([H])c([H])c(Oc9c([H])c([H])c(F)c([H])c9F)c([H])c8[H])c(C(=O)N([H])[H])c7N([H])[H])C6([H])[H])C5([H])C([H])([H])[H])c(C([H])([H])[H])c([H])c4C3(C([H])([H])[H])C([H])([H])[H])c([H])c([H])c2C1([H])[H]

$$$$
7:0:0
     RDKit          3D

 95104  0  0  1  0  0  0  0  0999 V2000
  -30.6360  -23.0310   18.2410 C   0  0  0  0  0  3  0  0  0  0  0  0
  -30.5980  -21.7600   18.8500 C   0  0  0  0  0  0  0  0  0  0  0  0
  -29.9520  -24.1260   18.7970 C   0  0  0  0  0  0  0  0  0  0  0  0
  -29.8410  -21.6030   20.0430 C   0  0  0  0  0  0  0  0  0  0  0  0
  -29.2310  -23.9470   19.9980 C   0  0  0  0  0  0  0  0  0  0  0  0
  -31.3850  -20.6500   18.1610 C   0  0  0  0  0  1  0  0  0  0  0  0
  -30.0120  -25.4560   18.0610 C   0  0  0  0  0  1  0  0  0  0  0  0
  -29.1920  -22.6960   20.5780 N   0  0  0  0  0  0  0  0  0  0  0  0
  -29.7080  -20.2500   20.8470 C   0  0  0  0  0  2  0  0  0  0  0  0
  -30.9830  -14.6620   20.0000 C   0  0  0  0  0  0  0  0  0  0  0  0
  -30.5880  -12.4790   18.8960 C   0  0  0  0  0  2  0  0  0  0  0  0
  -29.5600  -12.6540   17.7590 C   0  0  0  0  0  2  0  0  0  0  0  0
  -28.1270  -12.4890   18.2990 C   0  0  0  0  0  2  0  0  0  0  0  0
  -27.8710  -13.3250   19.5820 C   0  0  0  0  0  3  0  0  0  0  0  0
  -29.0150  -13.1750   20.6090 C   0  0  0  0  0  2  0  0  0  0  0  0
  -30.2760  -13.4910   19.9230 N   0  0  0  0  0  0  0  0  0  0  0  0
  -32.1370  -14.7390   19.5700 O   0  0  0  0  0  0  0  0  0  0  0  0
  -29.7740  -16.6490   19.2270 C   0  0  0  0  0  2  0  0  0  0  0  0
  -29.2030  -18.0490   19.6420 C   0  0  0  0  0  2  0  0  0  0  0  0
  -31.2110  -18.1690   21.0700 C   0  0  0  0  0  2  0  0  0  0  0  0
  -30.8340  -16.6800   21.4440 C   0  0  0  0  0  3  0  0  0  0  0  0
  -29.8750  -16.6230   22.6480 C   0  0  0  0  0  1  0  0  0  0  0  0
  -30.3160  -15.8210   20.3380 N   0  0  0  0  0  0  0  0  0  0  0  0
  -30.2240  -18.9480   20.2510 N   0  0  2  0  0  4  0  0  0  0  0  0
  -30.7720  -19.2980   19.4790 H   0  0  0  0  0  0  0  0  0  0  0  0
  -25.5620  -13.9240   20.5240 C   0  0  0  0  0  0  0  0  0  0  0  0
  -24.5100  -13.1500   20.9330 C   0  0  0  0  0  0  0  0  0  0  0  0
  -24.9400  -11.7950   20.7960 C   0  0  0  0  0  0  0  0  0  0  0  0
  -26.5650  -13.0390   20.1640 N   0  0  0  0  0  0  0  0  0  0  0  0
  -26.2030  -11.7510   20.3880 N   0  0  0  0  0  0  0  0  0  0  0  0
  -24.2050  -10.5370   20.9750 C   0  0  0  0  0  0  0  0  0  0  0  0
  -24.6270   -9.5610   21.9030 C   0  0  0  0  0  3  0  0  0  0  0  0
  -23.8920   -8.3670   22.0720 C   0  0  0  0  0  3  0  0  0  0  0  0
  -22.7210   -8.1430   21.3090 C   0  0  0  0  0  0  0  0  0  0  0  0
  -22.3190   -9.1080   20.3690 C   0  0  0  0  0  3  0  0  0  0  0  0
  -23.0550  -10.2930   20.2000 C   0  0  0  0  0  3  0  0  0  0  0  0
  -21.9570   -7.0030   21.3870 O   0  0  0  0  0  0  0  0  0  0  0  0
  -21.8140   -6.3130   22.5640 C   0  0  0  0  0  0  0  0  0  0  0  0
  -21.2750   -6.9170   23.7210 C   0  0  0  0  0  3  0  0  0  0  0  0
  -21.0800   -6.1520   24.8890 C   0  0  0  0  0  3  0  0  0  0  0  0
  -21.4130   -4.7840   24.8980 C   0  0  0  0  0  0  0  0  0  0  0  0
  -21.9450   -4.1800   23.7450 C   0  0  0  0  0  3  0  0  0  0  0  0
  -22.1410   -4.9420   22.5810 C   0  0  0  0  0  0  0  0  0  0  0  0
  -22.6340   -4.3510   21.4660 F   0  0  0  0  0  0  0  0  0  0  0  0
  -21.2190   -4.0470   26.0170 F   0  0  0  0  0  0  0  0  0  0  0  0
  -23.1480  -13.6360   21.3360 C   0  0  0  0  0  0  0  0  0  0  0  0
  -22.4830  -12.9160   22.2310 N   0  0  0  0  0  0  0  0  0  0  0  0
  -22.6870  -14.6870   20.8920 O   0  0  0  0  0  0  0  0  0  0  0  0
  -22.8710  -12.0640   22.6100 H   0  0  0  0  0  0  0  0  0  0  0  0
  -21.5720  -13.2200   22.5450 H   0  0  0  0  0  0  0  0  0  0  0  0
  -25.7430  -15.2990   20.4050 N   0  0  0  0  0  0  0  0  0  0  0  0
  -25.0050  -15.9630   20.6100 H   0  0  0  0  0  0  0  0  0  0  0  0
  -26.5810  -15.7350   20.0440 H   0  0  0  0  0  0  0  0  0  0  0  0
  -28.4210  -25.1010   20.7030 C   0  0  0  0  0  2  0  0  0  0  0  0
  -28.6130  -26.5160   20.3140 O   0  0  0  0  0  0  0  0  0  0  0  0
  -24.6880  -31.8380   23.1920 C   0  0  0  0  0  0  0  0  0  0  0  0
  -27.4730  -27.3240   20.2580 C   0  0  0  0  0  0  0  0  0  0  0  0
  -23.5540  -30.3950   21.5380 C   0  0  0  0  0  3  0  0  0  0  0  0
  -25.0730  -28.8610   20.1660 C   0  0  0  0  0  0  0  0  0  0  0  0
  -26.0860  -30.7750   21.4080 C   0  0  0  0  0  2  0  0  0  0  0  0
  -26.2120  -29.3900   20.7870 C   0  0  0  0  0  0  0  0  0  0  0  0
  -27.4180  -28.6330   20.8210 C   0  0  0  0  0  3  0  0  0  0  0  0
  -26.3180  -26.8450   19.6050 C   0  0  0  0  0  3  0  0  0  0  0  0
  -25.1270  -27.5940   19.5630 C   0  0  0  0  0  3  0  0  0  0  0  0
  -23.8150  -29.7060   20.1720 C   0  0  0  0  0  2  0  0  0  0  0  0
  -24.7930  -31.0210   22.1030 N   0  0  0  0  0  0  0  0  0  0  0  0
  -23.5860  -32.0990   23.6960 O   0  0  0  0  0  0  0  0  0  0  0  0
  -22.8890  -29.3770   22.4940 C   0  0  0  0  0  0  0  0  0  0  0  0
  -21.5670  -29.1830   22.3450 N   0  0  0  0  0  0  0  0  0  0  0  0
  -23.5610  -28.7630   23.3270 O   0  0  0  0  0  0  0  0  0  0  0  0
  -21.0870  -29.7350   21.6480 H   0  0  0  0  0  0  0  0  0  0  0  0
  -18.1960  -27.9460   22.7840 C   0  0  0  0  0  0  0  0  0  0  0  0
  -20.7440  -28.2410   23.1040 C   0  0  0  0  0  3  0  0  0  0  0  0
  -20.8760  -26.8060   22.5420 C   0  0  0  0  0  2  0  0  0  0  0  0
  -19.7980  -26.4610   21.5080 C   0  0  0  0  0  2  0  0  0  0  0  0
  -18.4030  -26.5930   22.1230 C   0  0  0  0  0  2  0  0  0  0  0  0
  -19.2950  -28.7260   23.2290 C   0  0  0  0  0  0  0  0  0  0  0  0
  -19.0490  -29.9910   23.8060 C   0  0  0  0  0  3  0  0  0  0  0  0
  -17.7350  -30.4760   23.9410 C   0  0  0  0  0  3  0  0  0  0  0  0
  -16.6490  -29.6950   23.5090 C   0  0  0  0  0  3  0  0  0  0  0  0
  -16.8800  -28.4310   22.9380 C   0  0  0  0  0  3  0  0  0  0  0  0
  -25.9430  -32.5000   23.8400 C   0  0  0  0  0  3  0  0  0  0  0  0
  -25.5920  -33.8900   24.1650 N   0  0  0  0  0  0  0  0  0  0  0  0
  -25.9080  -34.9510   23.4100 C   0  0  0  0  0  0  0  0  0  0  0  0
  -26.5940  -34.8640   22.3870 O   0  0  0  0  0  0  0  0  0  0  0  0
  -24.9810  -34.0290   24.9550 H   0  0  0  0  0  0  0  0  0  0  0  0
  -24.1340  -36.6950   23.0370 C   0  0  0  0  0  1  0  0  0  0  0  0
  -25.3800  -36.3280   23.8600 C   0  0  0  0  0  3  0  0  0  0  0  0
  -27.4820  -37.2730   24.7050 C   0  0  0  0  0  1  0  0  0  0  0  0
  -26.3840  -37.4080   23.7500 N   0  0  0  0  0  0  0  0  0  0  0  0
  -25.9530  -38.3180   23.8850 H   0  0  0  0  0  0  0  0  0  0  0  0
  -26.4520  -31.7390   25.1260 C   0  0  1  0  0  0  0  0  0  0  0  0
  -25.3430  -31.4710   26.1700 C   0  0  0  0  0  1  0  0  0  0  0  0
  -27.0800  -30.3790   24.7420 C   0  0  0  0  0  1  0  0  0  0  0  0
  -27.5700  -32.5610   25.8100 C   0  0  0  0  0  1  0  0  0  0  0  0
  1  3  2  0
  1  2  1  0
  2  4  2  0
  3  5  1  0
  4  8  1  0
  4  9  1  0
  5  8  2  0
  5 54  1  0
  6  2  1  0
  7  3  1  0
 10 23  1  0
 11 16  1  0
 12 13  1  0
 12 11  1  0
 14 13  1  0
 14 29  1  0
 14 15  1  0
 16 10  1  0
 16 15  1  0
 17 10  2  0
 18 19  1  0
 18 23  1  0
 19 24  1  0
 20 21  1  0
 21 22  1  0
 23 21  1  0
 24  9  1  0
 24 20  1  0
 24 25  1  6
 26 27  2  0
 27 46  1  0
 28 27  1  0
 28 31  1  0
 29 30  1  0
 29 26  1  0
 30 28  2  0
 31 32  1  0
 32 33  2  0
 34 37  1  0
 34 33  1  0
 35 34  2  0
 36 35  1  0
 36 31  2  0
 37 38  1  0
 38 43  2  0
 38 39  1  0
 39 40  2  0
 40 41  1  0
 41 45  1  0
 42 41  2  0
 43 42  1  0
 44 43  1  0
 46 47  1  0
 47 50  1  0
 47 49  1  0
 48 46  2  0
 51 26  1  0
 51 52  1  0
 53 51  1  0
 55 54  1  0
 56 67  2  0
 57 55  1  0
 57 62  1  0
 58 66  1  0
 58 68  1  0
 59 65  1  0
 59 61  1  0
 60 66  1  0
 61 62  2  0
 61 60  1  0
 63 57  2  0
 64 63  1  0
 64 59  2  0
 65 58  1  0
 66 56  1  0
 68 70  2  0
 69 68  1  0
 71 69  1  0
 72 81  2  0
 72 77  1  0
 73 69  1  0
 73 77  1  0
 74 73  1  0
 75 76  1  0
 75 74  1  0
 76 72  1  0
 77 78  2  0
 78 79  1  0
 80 79  2  0
 81 80  1  0
 82 56  1  0
 82 83  1  0
 82 92  1  0
 83 86  1  0
 84 88  1  0
 84 83  1  0
 85 84  2  0
 88 87  1  0
 90 88  1  0
 90 91  1  0
 90 89  1  0
 92 95  1  1
 92 93  1  0
 94 92  1  0
M  ISO  4  10 100  23 100  54 101  55 101
M  END
>  <TORSDO>  (8) 
F 18

>  <SCORE>  (8) 
-13.581

>  <name>  (8) 
7

>  <ligand_id>  (8) 
7

>  <original_smiles>  (8) 
[H]c1c([H])c([H])c2c(c1[H])C([H])([H])C([H])([H])C([H])([H])C2([H])N([H])C(=O)C1([H])N(C(=O)C([H])(N([H])C(=O)C([H])(N([H])C([H])([H])[H])C([H])([H])[H])C(C([H])([H])[H])(C([H])([H])[H])C([H])([H])[H])C([H])([H])c2c([H])c(OC([H])([H])c3nc(C([H])([H])[N+]4([H])C([H])([H])C([H])([H])N(C(=O)N5C([H])([H])C([H])([H])C([H])([H])C([H])(n6nc(-c7c([H])c([H])c(Oc8c([H])c([H])c(F)c([H])c8F)c([H])c7[H])c(C(=O)N([H])[H])c6N([H])[H])C5([H])[H])C([H])(C([H])([H])[H])C4([H])[H])c(C([H])([H])[H])c([H])c3C([H])([H])[H])c([H])c([H])c2C1([H])[H]

>  <smiles>  (8) 
[H]c1c([H])c([H])c2c(c1[H])C([H])([H])C([H])([H])C([H])([H])C2([H])N([H])C(=O)C1([H])N(C(=O)C([H])(N([H])C(=O)C([H])(N([H])C([H])([H])[H])C([H])([H])[H])C(C([H])([H])[H])(C([H])([H])[H])C([H])([H])[H])C([H])([H])c2c([H])c(OC([H])([H])c3nc(C([H])([H])[N+]4([H])C([H])([H])C([H])([H])N(C(=O)N5C([H])([H])C([H])([H])C([H])([H])C([H])(n6nc(-c7c([H])c([H])c(Oc8c([H])c([H])c(F)c([H])c8F)c([H])c7[H])c(C(=O)N([H])[H])c6N([H])[H])C5([H])[H])C([H])(C([H])([H])[H])C4([H])[H])c(C([H])([H])[H])c([H])c3C([H])([H])[H])c([H])c([H])c2C1([H])[H]

$$$$
8:0:0
     RDKit          3D

 94103  0  0  1  0  0  0  0  0999 V2000
  -30.0810  -20.1060   18.6800 C   0  0  0  0  0  3  0  0  0  0  0  0
  -29.6830  -20.0980   20.0320 C   0  0  0  0  0  0  0  0  0  0  0  0
  -29.3440  -21.3960   20.5880 C   0  0  0  0  0  0  0  0  0  0  0  0
  -30.1450  -21.3170   17.9650 C   0  0  0  0  0  0  0  0  0  0  0  0
  -29.4410  -22.6020   19.7890 C   0  0  0  0  0  0  0  0  0  0  0  0
  -30.5810  -21.3280   16.5160 C   0  0  0  0  0  1  0  0  0  0  0  0
  -29.8420  -22.5210   18.4980 N   0  0  0  0  0  0  0  0  0  0  0  0
  -28.8140  -21.5120   22.2300 Cl  0  0  0  0  0  0  0  0  0  0  0  0
  -30.6900  -14.9350   20.5580 C   0  0  0  0  0  0  0  0  0  0  0  0
  -30.5180  -12.5930   19.6880 C   0  0  0  0  0  2  0  0  0  0  0  0
  -29.6400  -12.5020   18.4240 C   0  0  0  0  0  2  0  0  0  0  0  0
  -28.1590  -12.3110   18.8030 C   0  0  0  0  0  2  0  0  0  0  0  0
  -27.6970  -13.2810   19.9150 C   0  0  0  0  0  3  0  0  0  0  0  0
  -28.7110  -13.3700   21.0820 C   0  0  0  0  0  2  0  0  0  0  0  0
  -30.0140  -13.7270   20.5050 N   0  0  0  0  0  0  0  0  0  0  0  0
  -31.9140  -14.9150   20.4090 O   0  0  0  0  0  0  0  0  0  0  0  0
  -28.2940  -17.9480   20.4390 C   0  0  0  0  0  2  0  0  0  0  0  0
  -29.5640  -18.7070   20.7930 C   0  0  0  0  0  3  0  0  0  0  0  0
  -28.6890  -16.5010   20.0620 C   0  0  0  0  0  3  0  0  0  0  0  0
  -30.6720  -17.5600   20.6810 C   0  0  0  0  0  3  0  0  0  0  0  0
  -28.6380  -16.3580   18.5230 C   0  0  0  0  0  1  0  0  0  0  0  0
  -31.6500  -17.6550   21.8670 C   0  0  0  0  0  1  0  0  0  0  0  0
  -30.0310  -16.1840   20.5890 N   0  0  0  0  0  0  0  0  0  0  0  0
  -25.2880  -13.9080   20.5340 C   0  0  0  0  0  0  0  0  0  0  0  0
  -24.2090  -13.1400   20.8760 C   0  0  0  0  0  0  0  0  0  0  0  0
  -24.6810  -11.7930   20.9010 C   0  0  0  0  0  0  0  0  0  0  0  0
  -26.3420  -13.0210   20.3680 N   0  0  0  0  0  0  0  0  0  0  0  0
  -25.9830  -11.7490   20.6570 N   0  0  0  0  0  0  0  0  0  0  0  0
  -23.9570  -10.5320   21.0760 C   0  0  0  0  0  0  0  0  0  0  0  0
  -24.3630   -9.5780   22.0330 C   0  0  0  0  0  3  0  0  0  0  0  0
  -23.6370   -8.3790   22.1970 C   0  0  0  0  0  3  0  0  0  0  0  0
  -22.4950   -8.1280   21.4000 C   0  0  0  0  0  0  0  0  0  0  0  0
  -22.1120   -9.0720   20.4300 C   0  0  0  0  0  3  0  0  0  0  0  0
  -22.8390  -10.2620   20.2640 C   0  0  0  0  0  3  0  0  0  0  0  0
  -21.7430   -6.9810   21.4740 O   0  0  0  0  0  0  0  0  0  0  0  0
  -21.6670   -6.2440   22.6290 C   0  0  0  0  0  0  0  0  0  0  0  0
  -21.2090   -6.8040   23.8410 C   0  0  0  0  0  3  0  0  0  0  0  0
  -21.0750   -5.9930   24.9860 C   0  0  0  0  0  3  0  0  0  0  0  0
  -21.3950   -4.6230   24.9200 C   0  0  0  0  0  0  0  0  0  0  0  0
  -21.8510   -4.0640   23.7130 C   0  0  0  0  0  3  0  0  0  0  0  0
  -21.9840   -4.8710   22.5700 C   0  0  0  0  0  0  0  0  0  0  0  0
  -22.4000   -4.3220   21.4050 F   0  0  0  0  0  0  0  0  0  0  0  0
  -21.2630   -3.8420   26.0170 F   0  0  0  0  0  0  0  0  0  0  0  0
  -22.7990  -13.6170   21.0650 C   0  0  0  0  0  0  0  0  0  0  0  0
  -22.0350  -12.9300   21.9070 N   0  0  0  0  0  0  0  0  0  0  0  0
  -22.3840  -14.6290   20.5050 O   0  0  0  0  0  0  0  0  0  0  0  0
  -22.3900  -12.1130   22.3780 H   0  0  0  0  0  0  0  0  0  0  0  0
  -21.0830  -13.2220   22.0810 H   0  0  0  0  0  0  0  0  0  0  0  0
  -25.4450  -15.2740   20.3200 N   0  0  0  0  0  0  0  0  0  0  0  0
  -24.6590  -15.9150   20.3430 H   0  0  0  0  0  0  0  0  0  0  0  0
  -26.2940  -15.7030   19.9780 H   0  0  0  0  0  0  0  0  0  0  0  0
  -29.3390  -24.0930   20.3190 C   0  0  0  0  0  3  0  0  0  0  0  0
  -28.2240  -25.1030   19.7680 C   0  0  0  0  0  3  0  0  0  0  0  0
  -28.3690  -26.5660   20.0380 O   0  0  0  0  0  0  0  0  0  0  0  0
  -24.6470  -31.9150   23.1800 C   0  0  0  0  0  0  0  0  0  0  0  0
  -27.2390  -27.4070   20.0100 C   0  0  0  0  0  0  0  0  0  0  0  0
  -23.4230  -30.5270   21.5440 C   0  0  0  0  0  3  0  0  0  0  0  0
  -24.8590  -29.0080   20.0680 C   0  0  0  0  0  0  0  0  0  0  0  0
  -25.9560  -30.8660   21.3190 C   0  0  0  0  0  2  0  0  0  0  0  0
  -26.0350  -29.4960   20.6510 C   0  0  0  0  0  0  0  0  0  0  0  0
  -27.2250  -28.7050   20.6150 C   0  0  0  0  0  3  0  0  0  0  0  0
  -26.0360  -26.9780   19.4010 C   0  0  0  0  0  3  0  0  0  0  0  0
  -24.8620  -27.7540   19.4380 C   0  0  0  0  0  3  0  0  0  0  0  0
  -23.6180  -29.8720   20.1500 C   0  0  0  0  0  2  0  0  0  0  0  0
  -24.6950  -31.1200   22.0710 N   0  0  0  0  0  0  0  0  0  0  0  0
  -23.5730  -32.1770   23.7400 O   0  0  0  0  0  0  0  0  0  0  0  0
  -22.7870  -29.4940   22.5040 C   0  0  0  0  0  0  0  0  0  0  0  0
  -21.4610  -29.3040   22.3960 N   0  0  0  0  0  0  0  0  0  0  0  0
  -23.4860  -28.8660   23.3050 O   0  0  0  0  0  0  0  0  0  0  0  0
  -20.9560  -29.8670   21.7240 H   0  0  0  0  0  0  0  0  0  0  0  0
  -18.1090  -28.0520   22.9270 C   0  0  0  0  0  0  0  0  0  0  0  0
  -20.6640  -28.3490   23.1690 C   0  0  0  0  0  3  0  0  0  0  0  0
  -20.7830  -26.9230   22.5840 C   0  0  0  0  0  2  0  0  0  0  0  0
  -19.6760  -26.5900   21.5790 C   0  0  0  0  0  2  0  0  0  0  0  0
  -18.2990  -26.7100   22.2380 C   0  0  0  0  0  2  0  0  0  0  0  0
  -19.2200  -28.8290   23.3490 C   0  0  0  0  0  0  0  0  0  0  0  0
  -18.9890  -30.0840   23.9520 C   0  0  0  0  0  3  0  0  0  0  0  0
  -17.6790  -30.5650   24.1340 C   0  0  0  0  0  3  0  0  0  0  0  0
  -16.5820  -29.7860   23.7270 C   0  0  0  0  0  3  0  0  0  0  0  0
  -16.7980  -28.5300   23.1310 C   0  0  0  0  0  3  0  0  0  0  0  0
  -25.9370  -32.5500   23.7850 C   0  0  0  0  0  3  0  0  0  0  0  0
  -25.6210  -33.9400   24.1440 N   0  0  0  0  0  0  0  0  0  0  0  0
  -25.9270  -35.0100   23.3960 C   0  0  0  0  0  0  0  0  0  0  0  0
  -26.5760  -34.9300   22.3500 O   0  0  0  0  0  0  0  0  0  0  0  0
  -25.0420  -34.0730   24.9600 H   0  0  0  0  0  0  0  0  0  0  0  0
  -24.1760  -36.7940   23.1090 C   0  0  0  0  0  1  0  0  0  0  0  0
  -25.4370  -36.3860   23.8880 C   0  0  0  0  0  3  0  0  0  0  0  0
  -27.5820  -37.2750   24.6880 C   0  0  0  0  0  1  0  0  0  0  0  0
  -26.4580  -37.4500   23.7720 N   0  0  0  0  0  0  0  0  0  0  0  0
  -26.0470  -38.3630   23.9480 H   0  0  0  0  0  0  0  0  0  0  0  0
  -26.4870  -31.7660   25.0410 C   0  0  1  0  0  0  0  0  0  0  0  0
  -25.4190  -31.5070   26.1290 C   0  0  0  0  0  1  0  0  0  0  0  0
  -27.0720  -30.3980   24.6200 C   0  0  0  0  0  1  0  0  0  0  0  0
  -27.6450  -32.5620   25.6900 C   0  0  0  0  0  1  0  0  0  0  0  0
  1  2  1  0
  2  3  2  0
  3  8  1  0
  4  7  1  0
  4  1  2  0
  5 52  1  0
  5  3  1  0
  6  4  1  0
  7  5  2  0
  9 23  1  0
 10 15  1  0
 11 12  1  0
 11 10  1  0
 13 12  1  0
 13 27  1  0
 13 14  1  0
 15  9  1  0
 15 14  1  0
 16  9  2  0
 17 18  1  0
 18  2  1  0
 19 21  1  0
 19 17  1  0
 19 23  1  0
 20 18  1  0
 20 22  1  0
 23 20  1  0
 24 25  2  0
 25 26  1  0
 25 44  1  0
 26 29  1  0
 27 24  1  0
 27 28  1  0
 28 26  2  0
 29 30  1  0
 30 31  2  0
 32 35  1  0
 32 31  1  0
 33 32  2  0
 34 33  1  0
 34 29  2  0
 35 36  1  0
 36 37  1  0
 37 38  2  0
 39 38  1  0
 39 43  1  0
 40 39  2  0
 41 36  2  0
 41 40  1  0
 42 41  1  0
 44 45  1  0
 45 48  1  0
 45 47  1  0
 46 44  2  0
 49 50  1  0
 49 24  1  0
 51 49  1  0
 53 54  1  0
 53 52  2  0
 55 66  2  0
 56 54  1  0
 56 61  1  0
 57 65  1  0
 57 67  1  0
 58 64  1  0
 58 60  1  0
 59 65  1  0
 60 59  1  0
 61 60  2  0
 62 63  1  0
 62 56  2  0
 63 58  2  0
 64 57  1  0
 65 55  1  0
 67 69  2  0
 68 67  1  0
 70 68  1  0
 71 80  2  0
 71 76  1  0
 72 68  1  0
 72 76  1  0
 73 72  1  0
 74 75  1  0
 74 73  1  0
 75 71  1  0
 76 77  2  0
 77 78  1  0
 79 78  2  0
 80 79  1  0
 81 55  1  0
 81 82  1  0
 81 91  1  0
 82 85  1  0
 83 87  1  0
 83 82  1  0
 84 83  2  0
 87 86  1  0
 89 87  1  0
 89 90  1  0
 89 88  1  0
 91 94  1  1
 91 92  1  0
 93 91  1  0
M  ISO  4   9 100  23 100  53 101  54 101
M  END
>  <TORSDO>  (9) 
F 18

>  <SCORE>  (9) 
-14.179

>  <name>  (9) 
8

>  <ligand_id>  (9) 
8

>  <original_smiles>  (9) 
[H]c1c([H])c([H])c2c(c1[H])C([H])([H])C([H])([H])C([H])([H])C2([H])N([H])C(=O)C1([H])N(C(=O)C([H])(N([H])C(=O)C([H])(N([H])C([H])([H])[H])C([H])([H])[H])C(C([H])([H])[H])(C([H])([H])[H])C([H])([H])[H])C([H])([H])c2c([H])c(OC([H])([H])C([H])([H])c3nc(C([H])([H])[H])c([H])c(C4([H])C([H])([H])C([H])(C([H])([H])[H])N(C(=O)N5C([H])([H])C([H])([H])C([H])([H])C([H])(n6nc(-c7c([H])c([H])c(Oc8c([H])c([H])c(F)c([H])c8F)c([H])c7[H])c(C(=O)N([H])[H])c6N([H])[H])C5([H])[H])C4([H])C([H])([H])[H])c3Cl)c([H])c([H])c2C1([H])[H]

>  <smiles>  (9) 
[H]c1c([H])c([H])c2c(c1[H])C([H])([H])C([H])([H])C([H])([H])C2([H])N([H])C(=O)C1([H])N(C(=O)C([H])(N([H])C(=O)C([H])(N([H])C([H])([H])[H])C([H])([H])[H])C(C([H])([H])[H])(C([H])([H])[H])C([H])([H])[H])C([H])([H])c2c([H])c(OC([H])([H])C([H])([H])c3nc(C([H])([H])[H])c([H])c(C4([H])C([H])([H])C([H])(C([H])([H])[H])N(C(=O)N5C([H])([H])C([H])([H])C([H])([H])C([H])(n6nc(-c7c([H])c([H])c(Oc8c([H])c([H])c(F)c([H])c8F)c([H])c7[H])c(C(=O)N([H])[H])c6N([H])[H])C5([H])[H])C4([H])C([H])([H])[H])c3Cl)c([H])c([H])c2C1([H])[H]

$$$$
9:0:0
     RDKit          3D

 97106  0  0  1  0  0  0  0  0999 V2000
  -31.1700  -22.4520   22.3320 C   0  0  0  0  0  2  0  0  0  0  0  0
  -29.9300  -21.5710   22.2200 C   0  0  0  0  0  3  0  0  0  0  0  0
  -29.2620  -22.2050   20.9920 C   0  0  0  0  0  3  0  0  0  0  0  0
  -27.7880  -21.8070   20.8330 C   0  0  0  0  0  1  0  0  0  0  0  0
  -30.7220  -23.7920   21.9380 N   0  0  0  0  0  0  0  0  0  0  0  0
  -29.4750  -23.6470   21.2480 N   0  0  0  0  0  0  0  0  0  0  0  0
  -31.4130  -24.2380   21.3330 H   0  0  0  0  0  0  0  0  0  0  0  0
  -30.0030  -19.2290   21.1410 C   0  0  0  0  0  3  0  0  0  0  0  0
  -31.0240  -18.0850   23.4800 C   0  0  0  0  0  3  0  0  0  0  0  0
  -30.1790  -20.0500   22.2850 C   0  0  0  0  0  0  0  0  0  0  0  0
  -30.3540  -17.8510   21.1410 C   0  0  0  0  0  0  0  0  0  0  0  0
  -30.6750  -19.4490   23.4750 C   0  0  0  0  0  0  0  0  0  0  0  0
  -30.9000  -17.2880   22.3270 C   0  0  0  0  0  0  0  0  0  0  0  0
  -30.8920  -20.2360   24.7590 C   0  0  0  0  0  1  0  0  0  0  0  0
  -31.4120  -15.8590   22.4080 C   0  0  0  0  0  1  0  0  0  0  0  0
  -30.2190  -17.0550   19.8320 C   0  0  0  0  0  2  0  0  0  0  0  0
  -30.4840  -14.6070   19.4470 C   0  0  0  0  0  0  0  0  0  0  0  0
  -30.2460  -12.2690   18.6950 C   0  0  0  0  0  2  0  0  0  0  0  0
  -29.1880  -12.1980   17.5750 C   0  0  0  0  0  2  0  0  0  0  0  0
  -27.7740  -12.0450   18.1680 C   0  0  0  0  0  2  0  0  0  0  0  0
  -27.4840  -13.0680   19.2980 C   0  0  0  0  0  3  0  0  0  0  0  0
  -28.6450  -13.1110   20.3170 C   0  0  0  0  0  2  0  0  0  0  0  0
  -29.8870  -13.3910   19.5780 N   0  0  0  0  0  0  0  0  0  0  0  0
  -31.5260  -14.7760   18.8080 O   0  0  0  0  0  0  0  0  0  0  0  0
  -29.8090  -15.6510   19.9570 N   0  0  0  0  0  0  0  0  0  0  0  0
  -28.9390  -15.4620   20.4280 H   0  0  0  0  0  0  0  0  0  0  0  0
  -25.2350  -13.6890   20.3870 C   0  0  0  0  0  0  0  0  0  0  0  0
  -24.2030  -12.9210   20.8550 C   0  0  0  0  0  0  0  0  0  0  0  0
  -24.6040  -11.5630   20.6660 C   0  0  0  0  0  0  0  0  0  0  0  0
  -26.2040  -12.7980   19.9490 N   0  0  0  0  0  0  0  0  0  0  0  0
  -25.8350  -11.5100   20.1710 N   0  0  0  0  0  0  0  0  0  0  0  0
  -23.8660  -10.3100   20.8730 C   0  0  0  0  0  0  0  0  0  0  0  0
  -24.3230   -9.3250   21.7760 C   0  0  0  0  0  3  0  0  0  0  0  0
  -23.5860   -8.1360   21.9710 C   0  0  0  0  0  3  0  0  0  0  0  0
  -22.3780   -7.9270   21.2650 C   0  0  0  0  0  0  0  0  0  0  0  0
  -21.9400   -8.9000   20.3500 C   0  0  0  0  0  3  0  0  0  0  0  0
  -22.6780  -10.0800   20.1530 C   0  0  0  0  0  3  0  0  0  0  0  0
  -21.6090   -6.7930   21.3720 O   0  0  0  0  0  0  0  0  0  0  0  0
  -21.4970   -6.1070   22.5560 C   0  0  0  0  0  0  0  0  0  0  0  0
  -21.0490   -6.7340   23.7390 C   0  0  0  0  0  3  0  0  0  0  0  0
  -20.8820   -5.9770   24.9170 C   0  0  0  0  0  3  0  0  0  0  0  0
  -21.1540   -4.5950   24.9110 C   0  0  0  0  0  0  0  0  0  0  0  0
  -21.5970   -3.9700   23.7320 C   0  0  0  0  0  3  0  0  0  0  0  0
  -21.7640   -4.7240   22.5570 C   0  0  0  0  0  0  0  0  0  0  0  0
  -22.1700   -4.1120   21.4180 F   0  0  0  0  0  0  0  0  0  0  0  0
  -20.9870   -3.8670   26.0380 F   0  0  0  0  0  0  0  0  0  0  0  0
  -22.8780  -13.4150   21.3600 C   0  0  0  0  0  0  0  0  0  0  0  0
  -22.2820  -12.7050   22.3110 N   0  0  0  0  0  0  0  0  0  0  0  0
  -22.3870  -14.4640   20.9440 O   0  0  0  0  0  0  0  0  0  0  0  0
  -22.6960  -11.8560   22.6650 H   0  0  0  0  0  0  0  0  0  0  0  0
  -21.3990  -13.0150   22.6910 H   0  0  0  0  0  0  0  0  0  0  0  0
  -25.4250  -15.0640   20.2790 N   0  0  0  0  0  0  0  0  0  0  0  0
  -24.7090  -15.7300   20.5460 H   0  0  0  0  0  0  0  0  0  0  0  0
  -26.2390  -15.5010   19.8660 H   0  0  0  0  0  0  0  0  0  0  0  0
  -29.2160  -24.6190   20.1640 C   0  0  0  0  0  2  0  0  0  0  0  0
  -29.1160  -26.0800   20.6710 C   0  0  0  0  0  2  0  0  0  0  0  0
  -28.8390  -27.0100   19.6210 O   0  0  0  0  0  0  0  0  0  0  0  0
  -24.7690  -31.7060   23.1390 C   0  0  0  0  0  0  0  0  0  0  0  0
  -27.6380  -27.6710   19.7290 C   0  0  0  0  0  0  0  0  0  0  0  0
  -23.6340  -30.3680   21.3940 C   0  0  0  0  0  3  0  0  0  0  0  0
  -25.1640  -29.0240   19.8570 C   0  0  0  0  0  0  0  0  0  0  0  0
  -26.1320  -30.8810   21.2250 C   0  0  0  0  0  2  0  0  0  0  0  0
  -26.2930  -29.5670   20.4880 C   0  0  0  0  0  0  0  0  0  0  0  0
  -27.5340  -28.8950   20.4260 C   0  0  0  0  0  3  0  0  0  0  0  0
  -26.4990  -27.1330   19.0990 C   0  0  0  0  0  3  0  0  0  0  0  0
  -25.2610  -27.8030   19.1640 C   0  0  0  0  0  3  0  0  0  0  0  0
  -23.8750  -29.8070   19.9660 C   0  0  0  0  0  2  0  0  0  0  0  0
  -24.8620  -30.9960   21.9800 N   0  0  0  0  0  0  0  0  0  0  0  0
  -23.6760  -31.8800   23.6970 O   0  0  0  0  0  0  0  0  0  0  0  0
  -23.0440  -29.2430   22.2730 C   0  0  0  0  0  0  0  0  0  0  0  0
  -21.7300  -29.0050   22.1340 N   0  0  0  0  0  0  0  0  0  0  0  0
  -23.7630  -28.5910   23.0350 O   0  0  0  0  0  0  0  0  0  0  0  0
  -21.2100  -29.5880   21.4950 H   0  0  0  0  0  0  0  0  0  0  0  0
  -18.4160  -27.6270   22.5610 C   0  0  0  0  0  0  0  0  0  0  0  0
  -20.9630  -27.9690   22.8270 C   0  0  0  0  0  3  0  0  0  0  0  0
  -21.1180  -26.6000   22.1250 C   0  0  0  0  0  2  0  0  0  0  0  0
  -20.0160  -26.3210   21.0980 C   0  0  0  0  0  2  0  0  0  0  0  0
  -18.6390  -26.3500   21.7680 C   0  0  0  0  0  2  0  0  0  0  0  0
  -19.5080  -28.3960   23.0450 C   0  0  0  0  0  0  0  0  0  0  0  0
  -19.2470  -29.5940   23.7440 C   0  0  0  0  0  3  0  0  0  0  0  0
  -17.9260  -30.0250   23.9650 C   0  0  0  0  0  3  0  0  0  0  0  0
  -16.8480  -29.2520   23.5000 C   0  0  0  0  0  3  0  0  0  0  0  0
  -17.0940  -28.0540   22.8040 C   0  0  0  0  0  3  0  0  0  0  0  0
  -26.0230  -32.3530   23.8080 C   0  0  0  0  0  3  0  0  0  0  0  0
  -26.6320  -31.4750   24.9690 C   0  0  1  0  0  0  0  0  0  0  0  0
  -25.5880  -31.0140   26.0130 C   0  0  0  0  0  1  0  0  0  0  0  0
  -27.3170  -30.2130   24.3930 C   0  0  0  0  0  1  0  0  0  0  0  0
  -27.7310  -32.2750   25.7100 C   0  0  0  0  0  1  0  0  0  0  0  0
  -25.6250  -33.6740   24.3090 N   0  0  0  0  0  0  0  0  0  0  0  0
  -25.8700  -34.8320   23.6790 C   0  0  0  0  0  0  0  0  0  0  0  0
  -26.5280  -34.9010   22.6370 O   0  0  0  0  0  0  0  0  0  0  0  0
  -25.0350  -33.6880   25.1290 H   0  0  0  0  0  0  0  0  0  0  0  0
  -24.0170  -36.5250   23.5530 C   0  0  0  0  0  1  0  0  0  0  0  0
  -25.2920  -36.1150   24.3040 C   0  0  0  0  0  3  0  0  0  0  0  0
  -27.3700  -37.0390   25.2290 C   0  0  0  0  0  1  0  0  0  0  0  0
  -26.2480  -37.2430   24.3170 N   0  0  0  0  0  0  0  0  0  0  0  0
  -25.7820  -38.1080   24.5760 H   0  0  0  0  0  0  0  0  0  0  0  0
  2 10  1  0
  2  1  1  0
  3  4  1  0
  3  6  1  0
  3  2  1  0
  5  1  1  0
  6  5  1  0
  7  5  1  0
  8 11  2  0
  8 10  1  0
 10 12  2  0
 11 13  1  0
 12  9  1  0
 12 14  1  0
 13 15  1  0
 13  9  2  0
 16 25  1  0
 16 11  1  0
 17 23  1  0
 17 25  1  0
 18 23  1  0
 19 20  1  0
 19 18  1  0
 21 20  1  0
 21 30  1  0
 21 22  1  0
 23 22  1  0
 24 17  2  0
 25 26  1  0
 27 28  2  0
 28 47  1  0
 29 28  1  0
 29 32  1  0
 30 31  1  0
 30 27  1  0
 31 29  2  0
 32 33  1  0
 33 34  2  0
 35 38  1  0
 35 34  1  0
 36 35  2  0
 37 36  1  0
 37 32  2  0
 38 39  1  0
 39 44  2  0
 39 40  1  0
 40 41  2  0
 42 41  1  0
 42 46  1  0
 43 42  2  0
 44 43  1  0
 45 44  1  0
 47 48  1  0
 48 50  1  0
 48 51  1  0
 49 47  2  0
 52 27  1  0
 52 53  1  0
 54 52  1  0
 55 56  1  0
 55  6  1  0
 57 59  1  0
 57 56  1  0
 58 69  2  0
 59 64  1  0
 60 68  1  0
 60 70  1  0
 61 67  1  0
 61 63  1  0
 62 68  1  0
 63 62  1  0
 64 63  2  0
 65 66  1  0
 65 59  2  0
 66 61  2  0
 67 60  1  0
 68 58  1  0
 70 72  2  0
 71 70  1  0
 73 71  1  0
 74 83  2  0
 74 79  1  0
 75 71  1  0
 75 79  1  0
 76 75  1  0
 77 78  1  0
 77 76  1  0
 78 74  1  0
 79 80  2  0
 80 81  1  0
 82 81  2  0
 83 82  1  0
 84 58  1  0
 84 89  1  0
 84 85  1  0
 85 88  1  1
 85 86  1  0
 87 85  1  0
 89 92  1  0
 90 94  1  0
 90 89  1  0
 91 90  2  0
 94 93  1  0
 94 96  1  0
 96 97  1  0
 96 95  1  0
M  ISO  4  17 100  25 100  56 101  57 101
M  END
>  <TORSDO>  (10) 
F 20

>  <SCORE>  (10) 
-10.186

>  <name>  (10) 
9

>  <ligand_id>  (10) 
9

>  <original_smiles>  (10) 
[H]c1c([H])c([H])c2c(c1[H])C([H])([H])C([H])([H])C([H])([H])C2([H])N([H])C(=O)C1([H])N(C(=O)C([H])(N([H])C(=O)C([H])(N([H])C([H])([H])[H])C([H])([H])[H])C(C([H])([H])[H])(C([H])([H])[H])C([H])([H])[H])C([H])([H])c2c([H])c(OC([H])([H])C([H])([H])N3N([H])C([H])([H])C([H])(c4c([H])c(C([H])([H])N([H])C(=O)N5C([H])([H])C([H])([H])C([H])([H])C([H])(n6nc(-c7c([H])c([H])c(Oc8c([H])c([H])c(F)c([H])c8F)c([H])c7[H])c(C(=O)N([H])[H])c6N([H])[H])C5([H])[H])c(C([H])([H])[H])c([H])c4C([H])([H])[H])C3([H])C([H])([H])[H])c([H])c([H])c2C1([H])[H]

>  <smiles>  (10) 
[H]c1c([H])c([H])c2c(c1[H])C([H])([H])C([H])([H])C([H])([H])C2([H])N([H])C(=O)C1([H])N(C(=O)C([H])(N([H])C(=O)C([H])(N([H])C([H])([H])[H])C([H])([H])[H])C(C([H])([H])[H])(C([H])([H])[H])C([H])([H])[H])C([H])([H])c2c([H])c(OC([H])([H])C([H])([H])N3N([H])C([H])([H])C([H])(c4c([H])c(C([H])([H])N([H])C(=O)N5C([H])([H])C([H])([H])C([H])([H])C([H])(n6nc(-c7c([H])c([H])c(Oc8c([H])c([H])c(F)c([H])c8F)c([H])c7[H])c(C(=O)N([H])[H])c6N([H])[H])C5([H])[H])c(C([H])([H])[H])c([H])c4C([H])([H])[H])C3([H])C([H])([H])[H])c([H])c([H])c2C1([H])[H]

$$$$
10:0:0
     RDKit          3D

100110  0  0  1  0  0  0  0  0999 V2000
  -30.6440  -14.8570   19.3200 C   0  0  0  0  0  0  0  0  0  0  0  0
  -30.3940  -12.5050   18.5130 C   0  0  0  0  0  2  0  0  0  0  0  0
  -29.3360  -12.4170   17.3900 C   0  0  0  0  0  2  0  0  0  0  0  0
  -27.9240  -12.2440   17.9780 C   0  0  0  0  0  2  0  0  0  0  0  0
  -27.6310  -13.2600   19.1090 C   0  0  0  0  0  3  0  0  0  0  0  0
  -28.7840  -13.2970   20.1270 C   0  0  0  0  0  2  0  0  0  0  0  0
  -30.0330  -13.6250   19.4120 N   0  0  0  0  0  0  0  0  0  0  0  0
  -31.6210  -15.0180   18.5830 O   0  0  0  0  0  0  0  0  0  0  0  0
  -32.0810  -19.1690   21.8370 C   0  0  0  0  0  3  0  0  0  0  0  0
  -31.2370  -18.2090   21.2510 C   0  0  0  0  0  0  0  0  0  0  0  0
  -30.5330  -18.5070   20.0480 C   0  0  0  0  0  0  0  0  0  0  0  0
  -32.3020  -20.4140   21.2370 C   0  0  0  0  0  0  0  0  0  0  0  0
  -30.5870  -19.8700   19.5350 C   0  0  0  0  0  0  0  0  0  0  0  0
  -31.6240  -20.7230   20.0330 C   0  0  0  0  0  0  0  0  0  0  0  0
  -29.8350  -17.3060   19.3340 C   0  0  0  0  0  2  0  0  0  0  0  0
  -29.9880  -15.9910   21.3880 C   0  0  0  0  0  2  0  0  0  0  0  0
  -31.1230  -16.8520   21.9510 C   0  0  0  0  0  3  0  0  0  0  0  0
  -32.1030  -21.9360   19.2330 C   0  0  0  0  0  1  0  0  0  0  0  0
  -30.9410  -16.9620   23.4800 C   0  0  0  0  0  1  0  0  0  0  0  0
  -30.0350  -15.9320   19.9280 N   0  0  0  0  0  0  0  0  0  0  0  0
  -25.3800  -13.8960   20.1830 C   0  0  0  0  0  0  0  0  0  0  0  0
  -24.3530  -13.1370   20.6770 C   0  0  0  0  0  0  0  0  0  0  0  0
  -24.7640  -11.7770   20.5330 C   0  0  0  0  0  0  0  0  0  0  0  0
  -26.3510  -12.9980   19.7660 N   0  0  0  0  0  0  0  0  0  0  0  0
  -25.9930  -11.7170   20.0370 N   0  0  0  0  0  0  0  0  0  0  0  0
  -24.0340  -10.5270   20.7850 C   0  0  0  0  0  0  0  0  0  0  0  0
  -24.5140   -9.5620   21.6980 C   0  0  0  0  0  3  0  0  0  0  0  0
  -23.7850   -8.3770   21.9340 C   0  0  0  0  0  3  0  0  0  0  0  0
  -22.5620   -8.1490   21.2590 C   0  0  0  0  0  0  0  0  0  0  0  0
  -22.1010   -9.1040   20.3350 C   0  0  0  0  0  3  0  0  0  0  0  0
  -22.8310  -10.2790   20.0960 C   0  0  0  0  0  3  0  0  0  0  0  0
  -21.7990   -7.0160   21.4060 O   0  0  0  0  0  0  0  0  0  0  0  0
  -21.7610   -6.3210   22.5890 C   0  0  0  0  0  0  0  0  0  0  0  0
  -21.2950   -6.9120   23.7840 C   0  0  0  0  0  3  0  0  0  0  0  0
  -21.2060   -6.1420   24.9610 C   0  0  0  0  0  3  0  0  0  0  0  0
  -21.5750   -4.7830   24.9440 C   0  0  0  0  0  0  0  0  0  0  0  0
  -22.0360   -4.1930   23.7540 C   0  0  0  0  0  3  0  0  0  0  0  0
  -22.1260   -4.9600   22.5790 C   0  0  0  0  0  0  0  0  0  0  0  0
  -22.5500   -4.3820   21.4300 F   0  0  0  0  0  0  0  0  0  0  0  0
  -21.4830   -4.0420   26.0720 F   0  0  0  0  0  0  0  0  0  0  0  0
  -23.0240  -13.6410   21.1630 C   0  0  0  0  0  0  0  0  0  0  0  0
  -22.4160  -12.9470   22.1200 N   0  0  0  0  0  0  0  0  0  0  0  0
  -22.5380  -14.6830   20.7270 O   0  0  0  0  0  0  0  0  0  0  0  0
  -22.8240  -12.1030   22.4960 H   0  0  0  0  0  0  0  0  0  0  0  0
  -21.5310  -13.2670   22.4850 H   0  0  0  0  0  0  0  0  0  0  0  0
  -25.5610  -15.2670   20.0340 N   0  0  0  0  0  0  0  0  0  0  0  0
  -24.8410  -15.9370   20.2790 H   0  0  0  0  0  0  0  0  0  0  0  0
  -26.3770  -15.6980   19.6190 H   0  0  0  0  0  0  0  0  0  0  0  0
  -34.7320  -21.0330   21.6210 C   0  0  0  0  0  1  0  0  0  0  0  0
  -33.0130  -21.4920   23.4340 C   0  0  0  0  0  1  0  0  0  0  0  0
  -33.2700  -21.3900   21.9200 C   0  0  0  0  0  3  0  0  0  0  0  0
  -29.6080  -20.4950   18.4790 C   0  0  0  0  0  2  0  0  0  0  0  0
  -28.5280  -21.5290   19.0730 C   0  0  0  0  0  2  0  0  0  0  0  0
  -29.3070  -24.8200   17.5890 C   0  0  0  0  0  2  0  0  0  0  0  0
  -29.2100  -23.2930   17.3620 C   0  0  0  0  0  2  0  0  0  0  0  0
  -27.6710  -23.9730   19.0370 C   0  0  0  0  0  2  0  0  0  0  0  0
  -27.9520  -25.2390   18.1590 C   0  0  0  0  0  3  0  0  0  0  0  0
  -28.1570  -22.7640   18.2680 N   0  0  2  0  0  4  0  0  0  0  0  0
  -27.3950  -22.4890   17.6630 H   0  0  0  0  0  0  0  0  0  0  0  0
  -28.0540  -26.5680   18.7860 O   0  0  0  0  0  0  0  0  0  0  0  0
  -24.9640  -30.9970   23.5110 C   0  0  0  0  0  0  0  0  0  0  0  0
  -26.9430  -27.3690   19.0730 C   0  0  0  0  0  0  0  0  0  0  0  0
  -23.5080  -30.1700   21.6930 C   0  0  0  0  0  3  0  0  0  0  0  0
  -24.6980  -29.0020   19.7550 C   0  0  0  0  0  0  0  0  0  0  0  0
  -26.0320  -30.4130   21.3260 C   0  0  0  0  0  2  0  0  0  0  0  0
  -25.9460  -29.2650   20.3300 C   0  0  0  0  0  0  0  0  0  0  0  0
  -27.0670  -28.4610   19.9820 C   0  0  0  0  0  3  0  0  0  0  0  0
  -25.6670  -27.1430   18.5060 C   0  0  0  0  0  3  0  0  0  0  0  0
  -24.5580  -27.9470   18.8400 C   0  0  0  0  0  3  0  0  0  0  0  0
  -23.5390  -29.8870   20.1680 C   0  0  0  0  0  2  0  0  0  0  0  0
  -24.8590  -30.5260   22.2350 N   0  0  0  0  0  0  0  0  0  0  0  0
  -23.9610  -31.1680   24.2180 O   0  0  0  0  0  0  0  0  0  0  0  0
  -22.8610  -28.9610   22.4110 C   0  0  0  0  0  0  0  0  0  0  0  0
  -21.5360  -28.8080   22.2560 N   0  0  0  0  0  0  0  0  0  0  0  0
  -23.5490  -28.1740   23.0650 O   0  0  0  0  0  0  0  0  0  0  0  0
  -21.0380  -29.4990   21.7110 H   0  0  0  0  0  0  0  0  0  0  0  0
  -18.2450  -27.3110   22.2090 C   0  0  0  0  0  0  0  0  0  0  0  0
  -20.7270  -27.7190   22.8050 C   0  0  0  0  0  3  0  0  0  0  0  0
  -21.0150  -26.3880   22.0720 C   0  0  0  0  0  2  0  0  0  0  0  0
  -20.0590  -26.1230   20.9040 C   0  0  0  0  0  2  0  0  0  0  0  0
  -18.6100  -26.0790   21.3960 C   0  0  0  0  0  2  0  0  0  0  0  0
  -19.2400  -28.0890   22.8570 C   0  0  0  0  0  0  0  0  0  0  0  0
  -18.8510  -29.2420   23.5700 C   0  0  0  0  0  3  0  0  0  0  0  0
  -17.4970  -29.6200   23.6450 C   0  0  0  0  0  3  0  0  0  0  0  0
  -16.5140  -28.8380   23.0140 C   0  0  0  0  0  3  0  0  0  0  0  0
  -16.8880  -27.6850   22.3020 C   0  0  0  0  0  3  0  0  0  0  0  0
  -26.3460  -31.3650   24.1360 C   0  0  0  0  0  3  0  0  0  0  0  0
  -26.7530  -30.4300   25.3400 C   0  0  1  0  0  0  0  0  0  0  0  0
  -25.6570  -30.2970   26.4230 C   0  0  0  0  0  1  0  0  0  0  0  0
  -27.0930  -29.0070   24.8370 C   0  0  0  0  0  1  0  0  0  0  0  0
  -28.0300  -30.9760   26.0200 C   0  0  0  0  0  1  0  0  0  0  0  0
  -26.2760  -32.7680   24.5710 N   0  0  0  0  0  0  0  0  0  0  0  0
  -27.0320  -33.7570   24.0750 C   0  0  0  0  0  0  0  0  0  0  0  0
  -27.9220  -33.5650   23.2410 O   0  0  0  0  0  0  0  0  0  0  0  0
  -25.5350  -33.0060   25.2110 H   0  0  0  0  0  0  0  0  0  0  0  0
  -26.1550  -36.0300   23.4550 C   0  0  0  0  0  1  0  0  0  0  0  0
  -26.7590  -35.1840   24.5860 C   0  0  0  0  0  3  0  0  0  0  0  0
  -28.4420  -35.2730   26.3720 C   0  0  0  0  0  1  0  0  0  0  0  0
  -27.9620  -35.8580   25.1230 N   0  0  0  0  0  0  0  0  0  0  0  0
  -27.7810  -36.8450   25.2830 H   0  0  0  0  0  0  0  0  0  0  0  0
  1  7  1  0
  1 20  1  0
  2  7  1  0
  3  4  1  0
  3  2  1  0
  5  4  1  0
  5 24  1  0
  5  6  1  0
  7  6  1  0
  8  1  2  0
 10  9  1  0
 10 17  1  0
 11 10  2  0
 12  9  2  0
 12 51  1  0
 13 14  2  0
 13 11  1  0
 14 12  1  0
 15 20  1  0
 15 11  1  0
 16 17  1  0
 17 19  1  0
 18 14  1  0
 20 16  1  0
 21 22  2  0
 22 41  1  0
 23 22  1  0
 23 26  1  0
 24 25  1  0
 24 21  1  0
 25 23  2  0
 26 27  1  0
 27 28  2  0
 29 32  1  0
 29 28  1  0
 30 29  2  0
 31 30  1  0
 31 26  2  0
 32 33  1  0
 33 34  1  0
 34 35  2  0
 36 35  1  0
 36 40  1  0
 37 36  2  0
 38 33  2  0
 38 37  1  0
 39 38  1  0
 41 42  1  0
 42 45  1  0
 42 44  1  0
 43 41  2  0
 46 21  1  0
 46 47  1  0
 48 46  1  0
 49 51  1  0
 51 50  1  0
 52 53  1  0
 52 13  1  0
 54 57  1  0
 55 54  1  0
 55 58  1  0
 57 60  1  0
 57 56  1  0
 58 56  1  0
 58 53  1  0
 58 59  1  6
 60 62  1  0
 61 72  2  0
 62 67  1  0
 63 71  1  0
 63 73  1  0
 64 70  1  0
 64 66  1  0
 65 71  1  0
 66 65  1  0
 67 66  2  0
 68 69  1  0
 68 62  2  0
 69 64  2  0
 70 63  1  0
 71 61  1  0
 73 75  2  0
 74 73  1  0
 76 74  1  0
 77 86  2  0
 77 82  1  0
 78 74  1  0
 78 82  1  0
 79 78  1  0
 80 81  1  0
 80 79  1  0
 81 77  1  0
 82 83  2  0
 83 84  1  0
 85 84  2  0
 86 85  1  0
 87 61  1  0
 87 92  1  0
 87 88  1  0
 88 91  1  1
 88 89  1  0
 90 88  1  0
 92 95  1  0
 93 92  1  0
 93 97  1  0
 94 93  2  0
 97 96  1  0
 97 99  1  0
 99100  1  0
 99 98  1  0
M  ISO  4   1 100  20 100  57 101  60 101
M  END
>  <TORSDO>  (11) 
F 19

>  <SCORE>  (11) 
-10.486

>  <name>  (11) 
10

>  <ligand_id>  (11) 
10

>  <original_smiles>  (11) 
[H]c1c([H])c([H])c2c(c1[H])C([H])([H])C([H])([H])C([H])([H])C2([H])N([H])C(=O)C1([H])N(C(=O)C([H])(N([H])C(=O)C([H])(N([H])C([H])([H])[H])C([H])([H])[H])C(C([H])([H])[H])(C([H])([H])[H])C([H])([H])[H])C([H])([H])c2c([H])c(OC3([H])C([H])([H])C([H])([H])[N+]([H])(C([H])([H])C([H])([H])c4c(C([H])([H])[H])c(C([H])(C([H])([H])[H])C([H])([H])[H])c([H])c5c4C([H])([H])N(C(=O)N4C([H])([H])C([H])([H])C([H])([H])C([H])(n6nc(-c7c([H])c([H])c(Oc8c([H])c([H])c(F)c([H])c8F)c([H])c7[H])c(C(=O)N([H])[H])c6N([H])[H])C4([H])[H])C([H])([H])C5([H])C([H])([H])[H])C3([H])[H])c([H])c([H])c2C1([H])[H]

>  <smiles>  (11) 
[H]c1c([H])c([H])c2c(c1[H])C([H])([H])C([H])([H])C([H])([H])C2([H])N([H])C(=O)C1([H])N(C(=O)C([H])(N([H])C(=O)C([H])(N([H])C([H])([H])[H])C([H])([H])[H])C(C([H])([H])[H])(C([H])([H])[H])C([H])([H])[H])C([H])([H])c2c([H])c(OC3([H])C([H])([H])C([H])([H])[N+]([H])(C([H])([H])C([H])([H])c4c(C([H])([H])[H])c(C([H])(C([H])([H])[H])C([H])([H])[H])c([H])c5c4C([H])([H])N(C(=O)N4C([H])([H])C([H])([H])C([H])([H])C([H])(n6nc(-c7c([H])c([H])c(Oc8c([H])c([H])c(F)c([H])c8F)c([H])c7[H])c(C(=O)N([H])[H])c6N([H])[H])C4([H])[H])C([H])([H])C5([H])C([H])([H])[H])C3([H])[H])c([H])c([H])c2C1([H])[H]

$$$$
11:0:0
     RDKit          3D

 98107  0  0  1  0  0  0  0  0999 V2000
  -28.3780  -19.7450   19.6910 C   0  0  0  0  0  0  0  0  0  0  0  0
  -28.1810  -21.0180   19.1020 C   0  0  0  0  0  0  0  0  0  0  0  0
  -29.6800  -19.3140   20.0840 C   0  0  0  0  0  0  0  0  0  0  0  0
  -29.2590  -21.9440   19.0280 C   0  0  0  0  0  0  0  0  0  0  0  0
  -30.7460  -20.2700   20.0760 C   0  0  0  0  0  0  0  0  0  0  0  0
  -30.5130  -21.6140   19.6310 C   0  0  0  0  0  0  0  0  0  0  0  0
  -27.1590  -18.8310   19.9070 C   0  0  0  0  0  1  0  0  0  0  0  0
  -26.7830  -21.3540   18.5570 C   0  0  0  0  0  1  0  0  0  0  0  0
  -29.0160  -23.2900   18.3490 C   0  0  0  0  0  1  0  0  0  0  0  0
  -32.1400  -19.8790   20.5750 C   0  0  0  0  0  1  0  0  0  0  0  0
  -32.1410  -23.5190   19.0790 C   0  0  0  0  0  2  0  0  0  0  0  0
  -31.1300  -23.3060   21.2220 C   0  0  0  0  0  2  0  0  0  0  0  0
  -31.7050  -24.9350   19.5120 C   0  0  0  0  0  3  0  0  0  0  0  0
  -31.4300  -24.8110   21.0290 C   0  0  0  0  0  3  0  0  0  0  0  0
  -32.7190  -26.0240   19.1110 C   0  0  0  0  0  1  0  0  0  0  0  0
  -31.4690  -22.5990   19.9890 N   0  0  0  0  0  0  0  0  0  0  0  0
  -30.2610  -25.6540   21.6230 C   0  0  0  0  0  2  0  0  0  0  0  0
  -30.2300  -27.0530   21.2910 O   0  0  0  0  0  0  0  0  0  0  0  0
  -25.4140  -31.7460   23.7150 C   0  0  0  0  0  0  0  0  0  0  0  0
  -28.9900  -27.6360   21.1490 C   0  0  0  0  0  0  0  0  0  0  0  0
  -24.6520  -30.2390   21.9140 C   0  0  0  0  0  3  0  0  0  0  0  0
  -26.4710  -28.8680   20.7800 C   0  0  0  0  0  0  0  0  0  0  0  0
  -27.1260  -30.8670   22.1300 C   0  0  0  0  0  2  0  0  0  0  0  0
  -27.4610  -29.5170   21.5300 C   0  0  0  0  0  0  0  0  0  0  0  0
  -28.7290  -28.9120   21.7030 C   0  0  0  0  0  3  0  0  0  0  0  0
  -27.9660  -26.9950   20.4220 C   0  0  0  0  0  3  0  0  0  0  0  0
  -26.7170  -27.6020   20.2290 C   0  0  0  0  0  3  0  0  0  0  0  0
  -25.1580  -29.5890   20.6000 C   0  0  0  0  0  2  0  0  0  0  0  0
  -25.7380  -30.9630   22.6480 N   0  0  0  0  0  0  0  0  0  0  0  0
  -24.2350  -31.8990   24.0620 O   0  0  0  0  0  0  0  0  0  0  0  0
  -23.9590  -29.1480   22.7650 C   0  0  0  0  0  0  0  0  0  0  0  0
  -22.6970  -28.8450   22.4240 N   0  0  0  0  0  0  0  0  0  0  0  0
  -24.5600  -28.5750   23.6780 O   0  0  0  0  0  0  0  0  0  0  0  0
  -22.2710  -29.3850   21.6840 H   0  0  0  0  0  0  0  0  0  0  0  0
  -19.3860  -27.3830   22.4670 C   0  0  0  0  0  0  0  0  0  0  0  0
  -21.8650  -27.8120   23.0440 C   0  0  0  0  0  3  0  0  0  0  0  0
  -22.1500  -26.4160   22.4390 C   0  0  0  0  0  2  0  0  0  0  0  0
  -21.1890  -26.0180   21.3100 C   0  0  0  0  0  2  0  0  0  0  0  0
  -19.7340  -26.0680   21.7930 C   0  0  0  0  0  2  0  0  0  0  0  0
  -20.3860  -28.2060   23.0480 C   0  0  0  0  0  0  0  0  0  0  0  0
  -20.0070  -29.4310   23.6420 C   0  0  0  0  0  3  0  0  0  0  0  0
  -18.6610  -29.8310   23.6670 C   0  0  0  0  0  3  0  0  0  0  0  0
  -17.6720  -29.0080   23.1030 C   0  0  0  0  0  3  0  0  0  0  0  0
  -18.0340  -27.7890   22.5040 C   0  0  0  0  0  3  0  0  0  0  0  0
  -26.5040  -32.5020   24.5310 C   0  0  0  0  0  3  0  0  0  0  0  0
  -26.8570  -31.8000   25.8980 C   0  0  1  0  0  0  0  0  0  0  0  0
  -25.6160  -31.4210   26.7410 C   0  0  0  0  0  1  0  0  0  0  0  0
  -27.6740  -30.5080   25.6530 C   0  0  0  0  0  1  0  0  0  0  0  0
  -27.7490  -32.7320   26.7510 C   0  0  0  0  0  1  0  0  0  0  0  0
  -26.0120  -33.8680   24.7590 N   0  0  0  0  0  0  0  0  0  0  0  0
  -26.3790  -34.9360   24.0380 C   0  0  0  0  0  0  0  0  0  0  0  0
  -27.2330  -34.8860   23.1480 O   0  0  0  0  0  0  0  0  0  0  0  0
  -25.2660  -33.9710   25.4320 H   0  0  0  0  0  0  0  0  0  0  0  0
  -24.5720  -36.5400   23.3340 C   0  0  0  0  0  1  0  0  0  0  0  0
  -25.6890  -36.2780   24.3570 C   0  0  0  0  0  3  0  0  0  0  0  0
  -27.5460  -37.3960   25.5100 C   0  0  0  0  0  1  0  0  0  0  0  0
  -26.6200  -37.4270   24.3800 N   0  0  0  0  0  0  0  0  0  0  0  0
  -26.1060  -38.3040   24.4150 H   0  0  0  0  0  0  0  0  0  0  0  0
  -29.8280  -17.8440   20.5630 C   0  0  0  0  0  2  0  0  0  0  0  0
  -30.9210  -16.9120   19.9890 C   0  0  0  0  0  2  0  0  0  0  0  0
  -31.8110  -14.6220   20.4820 C   0  0  0  0  0  0  0  0  0  0  0  0
  -31.6600  -12.2750   19.7810 C   0  0  0  0  0  2  0  0  0  0  0  0
  -30.7660  -12.2650   18.5210 C   0  0  0  0  0  2  0  0  0  0  0  0
  -29.2740  -12.1630   18.9140 C   0  0  0  0  0  2  0  0  0  0  0  0
  -28.8730  -13.2350   19.9660 C   0  0  0  0  0  3  0  0  0  0  0  0
  -29.8640  -13.1840   21.1500 C   0  0  0  0  0  2  0  0  0  0  0  0
  -31.2220  -13.4060   20.6130 N   0  0  0  0  0  0  0  0  0  0  0  0
  -32.9390  -14.7990   20.0160 O   0  0  0  0  0  0  0  0  0  0  0  0
  -30.9500  -15.6340   20.6940 N   0  0  0  0  0  0  0  0  0  0  0  0
  -30.0790  -15.3460   21.1250 H   0  0  0  0  0  0  0  0  0  0  0  0
  -26.5180  -14.0300   20.6480 C   0  0  0  0  0  0  0  0  0  0  0  0
  -25.3870  -13.3280   20.9800 C   0  0  0  0  0  0  0  0  0  0  0  0
  -25.7370  -11.9450   20.9100 C   0  0  0  0  0  0  0  0  0  0  0  0
  -27.4920  -13.0680   20.4060 N   0  0  0  0  0  0  0  0  0  0  0  0
  -27.0230  -11.8110   20.6080 N   0  0  0  0  0  0  0  0  0  0  0  0
  -24.9170  -10.7380   21.0540 C   0  0  0  0  0  0  0  0  0  0  0  0
  -25.2410   -9.7330   21.9900 C   0  0  0  0  0  3  0  0  0  0  0  0
  -24.4250   -8.5880   22.1180 C   0  0  0  0  0  3  0  0  0  0  0  0
  -23.2750   -8.4440   21.3080 C   0  0  0  0  0  0  0  0  0  0  0  0
  -22.9690   -9.4390   20.3620 C   0  0  0  0  0  3  0  0  0  0  0  0
  -23.7860  -10.5750   20.2320 C   0  0  0  0  0  3  0  0  0  0  0  0
  -22.4380   -7.3570   21.3460 O   0  0  0  0  0  0  0  0  0  0  0  0
  -22.2250   -6.6510   22.5020 C   0  0  0  0  0  0  0  0  0  0  0  0
  -21.6620   -7.2510   23.6500 C   0  0  0  0  0  3  0  0  0  0  0  0
  -21.3960   -6.4730   24.7920 C   0  0  0  0  0  3  0  0  0  0  0  0
  -21.6850   -5.0940   24.7910 C   0  0  0  0  0  0  0  0  0  0  0  0
  -22.2450   -4.4940   23.6490 C   0  0  0  0  0  3  0  0  0  0  0  0
  -22.5080   -5.2700   22.5070 C   0  0  0  0  0  0  0  0  0  0  0  0
  -23.0240   -4.6820   21.4000 F   0  0  0  0  0  0  0  0  0  0  0  0
  -21.4230   -4.3430   25.8870 F   0  0  0  0  0  0  0  0  0  0  0  0
  -24.0290  -13.9040   21.2650 C   0  0  0  0  0  0  0  0  0  0  0  0
  -23.2680  -13.2660   22.1450 N   0  0  0  0  0  0  0  0  0  0  0  0
  -23.6580  -14.9540   20.7420 O   0  0  0  0  0  0  0  0  0  0  0  0
  -23.5840  -12.4190   22.5970 H   0  0  0  0  0  0  0  0  0  0  0  0
  -22.3480  -13.6200   22.3690 H   0  0  0  0  0  0  0  0  0  0  0  0
  -26.7900  -15.3870   20.5180 N   0  0  0  0  0  0  0  0  0  0  0  0
  -26.0800  -16.0910   20.6810 H   0  0  0  0  0  0  0  0  0  0  0  0
  -27.6790  -15.7900   20.2560 H   0  0  0  0  0  0  0  0  0  0  0  0
  1  7  1  0
  1  3  1  0
  2  1  2  0
  3 59  1  0
  4  2  1  0
  4  6  2  0
  5  3  2  0
  5 10  1  0
  6 16  1  0
  6  5  1  0
  8  2  1  0
  9  4  1  0
 11 13  1  0
 11 16  1  0
 13 15  1  0
 13 14  1  0
 14 12  1  0
 14 17  1  0
 16 12  1  0
 18 17  1  0
 19 30  2  0
 20 18  1  0
 20 25  1  0
 21 29  1  0
 21 31  1  0
 22 24  1  0
 23 29  1  0
 24 25  2  0
 24 23  1  0
 26 20  2  0
 27 26  1  0
 27 22  2  0
 28 22  1  0
 28 21  1  0
 29 19  1  0
 31 33  2  0
 32 31  1  0
 34 32  1  0
 35 44  2  0
 35 40  1  0
 36 32  1  0
 36 40  1  0
 37 36  1  0
 38 39  1  0
 38 37  1  0
 39 35  1  0
 40 41  2  0
 41 42  1  0
 43 42  2  0
 44 43  1  0
 45 19  1  0
 45 50  1  0
 45 46  1  0
 46 47  1  1
 46 49  1  0
 48 46  1  0
 50 53  1  0
 51 55  1  0
 51 50  1  0
 52 51  2  0
 55 54  1  0
 55 57  1  0
 57 58  1  0
 57 56  1  0
 60 59  1  0
 60 69  1  0
 61 67  1  0
 61 69  1  0
 62 67  1  0
 63 64  1  0
 63 62  1  0
 65 64  1  0
 65 74  1  0
 65 66  1  0
 67 66  1  0
 68 61  2  0
 69 70  1  0
 71 72  2  0
 72 91  1  0
 73 72  1  0
 73 76  1  0
 74 75  1  0
 74 71  1  0
 75 73  2  0
 76 77  1  0
 77 78  2  0
 79 82  1  0
 79 78  1  0
 80 79  2  0
 81 80  1  0
 81 76  2  0
 82 83  1  0
 83 88  2  0
 83 84  1  0
 84 85  2  0
 86 85  1  0
 86 90  1  0
 87 86  2  0
 88 87  1  0
 89 88  1  0
 91 92  1  0
 92 95  1  0
 92 94  1  0
 93 91  2  0
 96 71  1  0
 96 97  1  0
 98 96  1  0
M  ISO  4  17 101  18 101  61 100  69 100
M  END
>  <TORSDO>  (12) 
F 20

>  <SCORE>  (12) 
-11.287

>  <name>  (12) 
11

>  <ligand_id>  (12) 
11

>  <original_smiles>  (12) 
[H]c1c([H])c([H])c2c(c1[H])C([H])([H])C([H])([H])C([H])([H])C2([H])N([H])C(=O)C1([H])N(C(=O)C([H])(N([H])C(=O)C([H])(N([H])C([H])([H])[H])C([H])([H])[H])C(C([H])([H])[H])(C([H])([H])[H])C([H])([H])[H])C([H])([H])c2c([H])c(OC([H])([H])C3([H])C([H])([H])N(c4c(C([H])([H])[H])c(C([H])([H])[H])c(C([H])([H])[H])c(C([H])([H])C([H])([H])N([H])C(=O)N5C([H])([H])C([H])([H])C([H])([H])C([H])(n6nc(-c7c([H])c([H])c(Oc8c([H])c([H])c(F)c([H])c8F)c([H])c7[H])c(C(=O)N([H])[H])c6N([H])[H])C5([H])[H])c4C([H])([H])[H])C([H])([H])C3([H])C([H])([H])[H])c([H])c([H])c2C1([H])[H]

>  <smiles>  (12) 
[H]c1c([H])c([H])c2c(c1[H])C([H])([H])C([H])([H])C([H])([H])C2([H])N([H])C(=O)C1([H])N(C(=O)C([H])(N([H])C(=O)C([H])(N([H])C([H])([H])[H])C([H])([H])[H])C(C([H])([H])[H])(C([H])([H])[H])C([H])([H])[H])C([H])([H])c2c([H])c(OC([H])([H])C3([H])C([H])([H])N(c4c(C([H])([H])[H])c(C([H])([H])[H])c(C([H])([H])[H])c(C([H])([H])C([H])([H])N([H])C(=O)N5C([H])([H])C([H])([H])C([H])([H])C([H])(n6nc(-c7c([H])c([H])c(Oc8c([H])c([H])c(F)c([H])c8F)c([H])c7[H])c(C(=O)N([H])[H])c6N([H])[H])C5([H])[H])c4C([H])([H])[H])C([H])([H])C3([H])C([H])([H])[H])c([H])c([H])c2C1([H])[H]

$$$$
12:0:0
     RDKit          3D

 96106  0  0  1  0  0  0  0  0999 V2000
  -27.9530  -23.8530   19.6410 C   0  0  0  0  0  3  0  0  0  0  0  0
  -30.2880  -22.3240   19.9230 C   0  0  0  0  0  3  0  0  0  0  0  0
  -26.6700  -20.3540   19.3620 C   0  0  0  0  0  3  0  0  0  0  0  0
  -27.8800  -22.4350   19.6130 C   0  0  0  0  0  0  0  0  0  0  0  0
  -29.0590  -21.6610   19.7430 C   0  0  0  0  0  0  0  0  0  0  0  0
  -30.3630  -23.7400   19.9240 C   0  0  0  0  0  0  0  0  0  0  0  0
  -29.1890  -24.5310   19.7610 C   0  0  0  0  0  0  0  0  0  0  0  0
  -26.6540  -21.7590   19.4220 C   0  0  0  0  0  0  0  0  0  0  0  0
  -28.9670  -20.2430   19.6810 C   0  0  0  0  0  0  0  0  0  0  0  0
  -31.7370  -24.3690   20.0700 C   0  0  0  0  0  1  0  0  0  0  0  0
  -25.3300  -22.4910   19.2490 C   0  0  0  0  0  1  0  0  0  0  0  0
  -27.7880  -19.6160   19.4820 N   0  0  0  0  0  0  0  0  0  0  0  0
  -29.2510  -26.0700   19.5690 C   0  0  0  0  0  2  0  0  0  0  0  0
  -28.7620  -26.8910   20.6500 O   0  0  0  0  0  0  0  0  0  0  0  0
  -24.6280  -31.9860   23.4290 C   0  0  0  0  0  0  0  0  0  0  0  0
  -27.5660  -27.5830   20.5320 C   0  0  0  0  0  0  0  0  0  0  0  0
  -23.5580  -30.5470   21.7280 C   0  0  0  0  0  3  0  0  0  0  0  0
  -25.1310  -29.0400   20.4000 C   0  0  0  0  0  0  0  0  0  0  0  0
  -26.0830  -30.9660   21.6760 C   0  0  0  0  0  2  0  0  0  0  0  0
  -26.2400  -29.5940   21.0500 C   0  0  0  0  0  0  0  0  0  0  0  0
  -27.4550  -28.8690   21.1210 C   0  0  0  0  0  3  0  0  0  0  0  0
  -26.4280  -27.0480   19.8820 C   0  0  0  0  0  3  0  0  0  0  0  0
  -25.2190  -27.7650   19.8190 C   0  0  0  0  0  3  0  0  0  0  0  0
  -23.8660  -29.8690   20.3670 C   0  0  0  0  0  2  0  0  0  0  0  0
  -24.7700  -31.1830   22.3350 N   0  0  0  0  0  0  0  0  0  0  0  0
  -23.5090  -32.2290   23.9030 O   0  0  0  0  0  0  0  0  0  0  0  0
  -22.8810  -29.5100   22.6530 C   0  0  0  0  0  0  0  0  0  0  0  0
  -21.5740  -29.2870   22.4470 N   0  0  0  0  0  0  0  0  0  0  0  0
  -23.5330  -28.9120   23.5150 O   0  0  0  0  0  0  0  0  0  0  0  0
  -21.1100  -29.8200   21.7240 H   0  0  0  0  0  0  0  0  0  0  0  0
  -18.2090  -28.0100   22.7730 C   0  0  0  0  0  0  0  0  0  0  0  0
  -20.7420  -28.3300   23.1770 C   0  0  0  0  0  3  0  0  0  0  0  0
  -20.9100  -26.9030   22.6080 C   0  0  0  0  0  2  0  0  0  0  0  0
  -19.8700  -26.5550   21.5380 C   0  0  0  0  0  2  0  0  0  0  0  0
  -18.4530  -26.6660   22.1070 C   0  0  0  0  0  2  0  0  0  0  0  0
  -19.2860  -28.7990   23.2600 C   0  0  0  0  0  0  0  0  0  0  0  0
  -19.0080  -30.0560   23.8380 C   0  0  0  0  0  3  0  0  0  0  0  0
  -17.6860  -30.5280   23.9360 C   0  0  0  0  0  3  0  0  0  0  0  0
  -16.6220  -29.7380   23.4650 C   0  0  0  0  0  3  0  0  0  0  0  0
  -16.8840  -28.4800   22.8910 C   0  0  0  0  0  3  0  0  0  0  0  0
  -25.8560  -32.6570   24.1170 C   0  0  0  0  0  3  0  0  0  0  0  0
  -25.5170  -34.0680   24.3460 N   0  0  0  0  0  0  0  0  0  0  0  0
  -25.9010  -35.0820   23.5580 C   0  0  0  0  0  0  0  0  0  0  0  0
  -26.6510  -34.9300   22.5910 O   0  0  0  0  0  0  0  0  0  0  0  0
  -24.8590  -34.2600   25.0880 H   0  0  0  0  0  0  0  0  0  0  0  0
  -24.2000  -36.8430   22.9730 C   0  0  0  0  0  1  0  0  0  0  0  0
  -25.3730  -36.4870   23.9010 C   0  0  0  0  0  3  0  0  0  0  0  0
  -27.4280  -37.4330   24.8550 C   0  0  0  0  0  1  0  0  0  0  0  0
  -26.4040  -37.5430   23.8190 N   0  0  0  0  0  0  0  0  0  0  0  0
  -25.9810  -38.4640   23.8870 H   0  0  0  0  0  0  0  0  0  0  0  0
  -26.2760  -31.9550   25.4670 C   0  0  1  0  0  0  0  0  0  0  0  0
  -25.1000  -31.7310   26.4460 C   0  0  0  0  0  1  0  0  0  0  0  0
  -26.9300  -30.5790   25.1940 C   0  0  0  0  0  1  0  0  0  0  0  0
  -27.3400  -32.8110   26.1940 C   0  0  0  0  0  1  0  0  0  0  0  0
  -30.1030  -19.4420   19.8030 O   0  0  0  0  0  0  0  0  0  0  0  0
  -31.3130  -14.7710   19.9460 C   0  0  0  0  0  0  0  0  0  0  0  0
  -30.9510  -12.5140   19.0090 C   0  0  0  0  0  2  0  0  0  0  0  0
  -30.0010  -12.6040   17.8000 C   0  0  0  0  0  2  0  0  0  0  0  0
  -28.5320  -12.5230   18.2580 C   0  0  0  0  0  2  0  0  0  0  0  0
  -28.2170  -13.4900   19.4310 C   0  0  0  0  0  3  0  0  0  0  0  0
  -29.2830  -13.3890   20.5450 C   0  0  0  0  0  2  0  0  0  0  0  0
  -30.6030  -13.6080   19.9330 N   0  0  0  0  0  0  0  0  0  0  0  0
  -32.4210  -14.8770   19.4100 O   0  0  0  0  0  0  0  0  0  0  0  0
  -31.3450  -18.0350   21.3610 C   0  0  0  0  0  2  0  0  0  0  0  0
  -31.4260  -16.5250   21.6230 C   0  0  0  0  0  2  0  0  0  0  0  0
  -30.0920  -16.9070   19.6990 C   0  0  0  0  0  2  0  0  0  0  0  0
  -30.0750  -18.1980   20.5440 C   0  0  0  0  0  3  0  0  0  0  0  0
  -30.7240  -15.8480   20.5230 N   0  0  0  0  0  0  0  0  0  0  0  0
  -25.8770  -14.2140   20.2140 C   0  0  0  0  0  0  0  0  0  0  0  0
  -24.7810  -13.4940   20.6120 C   0  0  0  0  0  0  0  0  0  0  0  0
  -25.1750  -12.1220   20.5690 C   0  0  0  0  0  0  0  0  0  0  0  0
  -26.8690  -13.2820   19.9520 N   0  0  0  0  0  0  0  0  0  0  0  0
  -26.4520  -12.0190   20.2250 N   0  0  0  0  0  0  0  0  0  0  0  0
  -24.3930  -10.8970   20.7790 C   0  0  0  0  0  0  0  0  0  0  0  0
  -24.7310   -9.9670   21.7860 C   0  0  0  0  0  3  0  0  0  0  0  0
  -23.9520   -8.8060   21.9790 C   0  0  0  0  0  3  0  0  0  0  0  0
  -22.8190   -8.5670   21.1640 C   0  0  0  0  0  0  0  0  0  0  0  0
  -22.5020   -9.4850   20.1460 C   0  0  0  0  0  3  0  0  0  0  0  0
  -23.2820  -10.6370   19.9520 C   0  0  0  0  0  3  0  0  0  0  0  0
  -22.0190   -7.4560   21.2630 O   0  0  0  0  0  0  0  0  0  0  0  0
  -21.7800   -6.8450   22.4680 C   0  0  0  0  0  0  0  0  0  0  0  0
  -21.1910   -7.5370   23.5500 C   0  0  0  0  0  3  0  0  0  0  0  0
  -20.8990   -6.8530   24.7470 C   0  0  0  0  0  3  0  0  0  0  0  0
  -21.1850   -5.4790   24.8620 C   0  0  0  0  0  0  0  0  0  0  0  0
  -21.7670   -4.7890   23.7850 C   0  0  0  0  0  3  0  0  0  0  0  0
  -22.0600   -5.4690   22.5900 C   0  0  0  0  0  0  0  0  0  0  0  0
  -22.6000   -4.7930   21.5470 F   0  0  0  0  0  0  0  0  0  0  0  0
  -20.8980   -4.8210   26.0100 F   0  0  0  0  0  0  0  0  0  0  0  0
  -23.4170  -14.0410   20.9200 C   0  0  0  0  0  0  0  0  0  0  0  0
  -22.6910  -13.3980   21.8290 N   0  0  0  0  0  0  0  0  0  0  0  0
  -23.0040  -15.0700   20.3890 O   0  0  0  0  0  0  0  0  0  0  0  0
  -23.0380  -12.5650   22.2810 H   0  0  0  0  0  0  0  0  0  0  0  0
  -21.7740  -13.7430   22.0750 H   0  0  0  0  0  0  0  0  0  0  0  0
  -26.1030  -15.5740   20.0330 N   0  0  0  0  0  0  0  0  0  0  0  0
  -25.3790  -16.2690   20.1820 H   0  0  0  0  0  0  0  0  0  0  0  0
  -26.9720  -15.9750   19.7060 H   0  0  0  0  0  0  0  0  0  0  0  0
  1  7  1  0
  2  6  1  0
  3  8  2  0
  3 12  1  0
  4  1  2  0
  4  5  1  0
  5  2  2  0
  6 10  1  0
  7  6  2  0
  8  4  1  0
  9  5  1  0
  9 55  1  0
 11  8  1  0
 12  9  2  0
 13  7  1  0
 13 14  1  0
 15 26  2  0
 16 14  1  0
 16 21  1  0
 17 25  1  0
 17 27  1  0
 18 20  1  0
 19 25  1  0
 20 21  2  0
 20 19  1  0
 22 16  2  0
 23 22  1  0
 23 18  2  0
 24 18  1  0
 24 17  1  0
 25 15  1  0
 27 29  2  0
 28 27  1  0
 30 28  1  0
 31 40  2  0
 31 36  1  0
 32 28  1  0
 32 36  1  0
 33 32  1  0
 34 35  1  0
 34 33  1  0
 35 31  1  0
 36 37  2  0
 37 38  1  0
 39 38  2  0
 40 39  1  0
 41 15  1  0
 41 42  1  0
 41 51  1  0
 42 45  1  0
 43 47  1  0
 43 42  1  0
 44 43  2  0
 47 46  1  0
 49 50  1  0
 49 47  1  0
 49 48  1  0
 51 54  1  1
 51 52  1  0
 53 51  1  0
 56 68  1  0
 57 62  1  0
 58 59  1  0
 58 57  1  0
 60 59  1  0
 60 72  1  0
 60 61  1  0
 62 56  1  0
 62 61  1  0
 63 56  2  0
 64 65  1  0
 66 68  1  0
 66 67  1  0
 67 55  1  0
 67 64  1  0
 68 65  1  0
 69 70  2  0
 70 89  1  0
 71 70  1  0
 71 74  1  0
 72 69  1  0
 72 73  1  0
 73 71  2  0
 74 75  1  0
 75 76  2  0
 77 80  1  0
 77 76  1  0
 78 77  2  0
 79 78  1  0
 79 74  2  0
 80 81  1  0
 81 86  2  0
 81 82  1  0
 82 83  2  0
 83 84  1  0
 84 88  1  0
 85 84  2  0
 86 85  1  0
 87 86  1  0
 89 90  1  0
 90 93  1  0
 90 92  1  0
 91 89  2  0
 94 95  1  0
 94 69  1  0
 96 94  1  0
M  ISO  4  13 101  14 101  56 100  68 100
M  END
>  <TORSDO>  (13) 
F 18

>  <SCORE>  (13) 
-13.252

>  <name>  (13) 
12

>  <ligand_id>  (13) 
12

>  <original_smiles>  (13) 
[H]c1nc(OC2([H])C([H])([H])N(C(=O)N3C([H])([H])C([H])([H])C([H])([H])C([H])(n4nc(-c5c([H])c([H])c(Oc6c([H])c([H])c(F)c([H])c6F)c([H])c5[H])c(C(=O)N([H])[H])c4N([H])[H])C3([H])[H])C([H])([H])C2([H])[H])c2c([H])c(C([H])([H])[H])c(C([H])([H])Oc3c([H])c([H])c4c(c3[H])C([H])([H])N(C(=O)C([H])(N([H])C(=O)C([H])(N([H])C([H])([H])[H])C([H])([H])[H])C(C([H])([H])[H])(C([H])([H])[H])C([H])([H])[H])C([H])(C(=O)N([H])C3([H])c5c([H])c([H])c([H])c([H])c5C([H])([H])C([H])([H])C3([H])[H])C4([H])[H])c([H])c2c1C([H])([H])[H]

>  <smiles>  (13) 
[H]c1nc(OC2([H])C([H])([H])N(C(=O)N3C([H])([H])C([H])([H])C([H])([H])C([H])(n4nc(-c5c([H])c([H])c(Oc6c([H])c([H])c(F)c([H])c6F)c([H])c5[H])c(C(=O)N([H])[H])c4N([H])[H])C3([H])[H])C([H])([H])C2([H])[H])c2c([H])c(C([H])([H])[H])c(C([H])([H])Oc3c([H])c([H])c4c(c3[H])C([H])([H])N(C(=O)C([H])(N([H])C(=O)C([H])(N([H])C([H])([H])[H])C([H])([H])[H])C(C([H])([H])[H])(C([H])([H])[H])C([H])([H])[H])C([H])(C(=O)N([H])C3([H])c5c([H])c([H])c([H])c([H])c5C([H])([H])C([H])([H])C3([H])[H])C4([H])[H])c([H])c2c1C([H])([H])[H]

$$$$
13:0:0
     RDKit          3D

 97108  0  0  1  0  0  0  0  0999 V2000
  -31.3030  -19.1030   20.2660 C   0  0  0  0  0  3  0  0  0  0  0  0
  -30.5720  -20.3100   20.1880 C   0  0  0  0  0  3  0  0  0  0  0  0
  -29.2640  -17.8420   19.9550 C   0  0  0  0  0  3  0  0  0  0  0  0
  -30.6540  -17.8500   20.2000 C   0  0  0  0  0  0  0  0  0  0  0  0
  -28.5130  -19.0470   19.8960 C   0  0  0  0  0  0  0  0  0  0  0  0
  -29.1630  -20.3060   20.0590 C   0  0  0  0  0  0  0  0  0  0  0  0
  -30.8990  -14.3420   19.6220 C   0  0  0  0  0  0  0  0  0  0  0  0
  -30.3380  -12.1590   18.5860 C   0  0  0  0  0  2  0  0  0  0  0  0
  -29.3130  -12.2890   17.4420 C   0  0  0  0  0  2  0  0  0  0  0  0
  -27.8800  -12.2210   17.9960 C   0  0  0  0  0  2  0  0  0  0  0  0
  -27.6660  -13.1840   19.1900 C   0  0  0  0  0  3  0  0  0  0  0  0
  -28.7900  -13.0450   20.2330 C   0  0  0  0  0  2  0  0  0  0  0  0
  -30.0970  -13.2330   19.5720 N   0  0  0  0  0  0  0  0  0  0  0  0
  -31.7920  -14.5080   18.7840 O   0  0  0  0  0  0  0  0  0  0  0  0
  -31.8750  -15.4130   22.7100 C   0  0  0  0  0  2  0  0  0  0  0  0
  -31.9530  -16.7750   22.0550 C   0  0  0  0  0  2  0  0  0  0  0  0
  -30.6750  -14.7810   22.0210 C   0  0  0  0  0  2  0  0  0  0  0  0
  -31.4150  -16.5750   20.6250 C   0  0  0  0  0  3  0  0  0  0  0  0
  -30.7080  -15.2540   20.6250 N   0  0  0  0  0  0  0  0  0  0  0  0
  -25.4160  -13.9520   20.1710 C   0  0  0  0  0  0  0  0  0  0  0  0
  -24.3300  -13.2550   20.6300 C   0  0  0  0  0  0  0  0  0  0  0  0
  -24.6710  -11.8730   20.5130 C   0  0  0  0  0  0  0  0  0  0  0  0
  -26.3510  -13.0000   19.8000 N   0  0  0  0  0  0  0  0  0  0  0  0
  -25.9140  -11.7410   20.0650 N   0  0  0  0  0  0  0  0  0  0  0  0
  -23.8640  -10.6670   20.7440 C   0  0  0  0  0  0  0  0  0  0  0  0
  -24.3140   -9.6270   21.5870 C   0  0  0  0  0  3  0  0  0  0  0  0
  -23.5120   -8.4870   21.8070 C   0  0  0  0  0  3  0  0  0  0  0  0
  -22.2460   -8.3780   21.1840 C   0  0  0  0  0  0  0  0  0  0  0  0
  -21.8130   -9.4060   20.3280 C   0  0  0  0  0  3  0  0  0  0  0  0
  -22.6150  -10.5370   20.1050 C   0  0  0  0  0  3  0  0  0  0  0  0
  -21.4110   -7.2950   21.3180 O   0  0  0  0  0  0  0  0  0  0  0  0
  -21.4470   -6.4910   22.4290 C   0  0  0  0  0  0  0  0  0  0  0  0
  -21.2350   -7.0050   23.7270 C   0  0  0  0  0  3  0  0  0  0  0  0
  -21.2120   -6.1340   24.8350 C   0  0  0  0  0  3  0  0  0  0  0  0
  -21.3900   -4.7490   24.6470 C   0  0  0  0  0  0  0  0  0  0  0  0
  -21.5940   -4.2350   23.3540 C   0  0  0  0  0  3  0  0  0  0  0  0
  -21.6190   -5.1040   22.2490 C   0  0  0  0  0  0  0  0  0  0  0  0
  -21.7960   -4.6000   21.0030 F   0  0  0  0  0  0  0  0  0  0  0  0
  -21.3590   -3.9110   25.7080 F   0  0  0  0  0  0  0  0  0  0  0  0
  -23.0130  -13.8330   21.0630 C   0  0  0  0  0  0  0  0  0  0  0  0
  -22.3390  -13.1840   22.0050 N   0  0  0  0  0  0  0  0  0  0  0  0
  -22.5960  -14.8930   20.5990 O   0  0  0  0  0  0  0  0  0  0  0  0
  -22.6910  -12.3240   22.4000 H   0  0  0  0  0  0  0  0  0  0  0  0
  -21.4590  -13.5520   22.3390 H   0  0  0  0  0  0  0  0  0  0  0  0
  -25.6780  -15.3090   20.0190 N   0  0  0  0  0  0  0  0  0  0  0  0
  -24.9960  -16.0250   20.2440 H   0  0  0  0  0  0  0  0  0  0  0  0
  -26.5360  -15.6850   19.6360 H   0  0  0  0  0  0  0  0  0  0  0  0
  -26.3920  -18.0270   18.7340 C   0  0  0  0  0  2  0  0  0  0  0  0
  -26.2790  -19.5260   18.5900 C   0  0  0  0  0  2  0  0  0  0  0  0
  -27.0220  -18.9340   19.7670 C   0  0  0  0  0  3  0  0  0  0  0  0
  -28.7130  -22.1870   21.6750 C   0  0  0  0  0  1  0  0  0  0  0  0
  -28.3700  -21.6210   20.2890 C   0  0  0  0  0  3  0  0  0  0  0  0
  -27.3990  -23.0490   18.2800 C   0  0  0  0  0  2  0  0  0  0  0  0
  -27.7810  -24.0610   19.3380 C   0  0  0  0  0  3  0  0  0  0  0  0
  -28.5330  -22.7160   19.2180 C   0  0  0  0  0  3  0  0  0  0  0  0
  -28.3810  -25.4070   18.8980 C   0  0  0  0  0  2  0  0  0  0  0  0
  -28.1820  -26.5150   19.8040 O   0  0  0  0  0  0  0  0  0  0  0  0
  -24.4140  -31.5680   23.1270 C   0  0  0  0  0  0  0  0  0  0  0  0
  -27.0040  -27.2440   19.8070 C   0  0  0  0  0  0  0  0  0  0  0  0
  -23.1960  -30.2850   21.4000 C   0  0  0  0  0  3  0  0  0  0  0  0
  -24.6330  -28.8040   19.8940 C   0  0  0  0  0  0  0  0  0  0  0  0
  -25.7310  -30.6030   21.2400 C   0  0  0  0  0  2  0  0  0  0  0  0
  -25.7950  -29.2680   20.5210 C   0  0  0  0  0  0  0  0  0  0  0  0
  -26.9790  -28.4940   20.4760 C   0  0  0  0  0  3  0  0  0  0  0  0
  -25.8180  -26.7960   19.1820 C   0  0  0  0  0  3  0  0  0  0  0  0
  -24.6400  -27.5690   19.2240 C   0  0  0  0  0  3  0  0  0  0  0  0
  -23.4040  -29.6830   19.9840 C   0  0  0  0  0  2  0  0  0  0  0  0
  -24.4660  -30.8300   21.9810 N   0  0  0  0  0  0  0  0  0  0  0  0
  -23.3340  -31.8300   23.6750 O   0  0  0  0  0  0  0  0  0  0  0  0
  -22.5200  -29.2220   22.2960 C   0  0  0  0  0  0  0  0  0  0  0  0
  -21.1870  -29.1100   22.1910 N   0  0  0  0  0  0  0  0  0  0  0  0
  -23.1930  -28.5040   23.0410 O   0  0  0  0  0  0  0  0  0  0  0  0
  -20.7080  -29.7400   21.5630 H   0  0  0  0  0  0  0  0  0  0  0  0
  -17.7680  -28.0680   22.7260 C   0  0  0  0  0  0  0  0  0  0  0  0
  -20.3450  -28.1530   22.9070 C   0  0  0  0  0  3  0  0  0  0  0  0
  -20.3380  -26.7780   22.1990 C   0  0  0  0  0  2  0  0  0  0  0  0
  -19.1810  -26.6160   21.2080 C   0  0  0  0  0  2  0  0  0  0  0  0
  -17.8360  -26.7790   21.9230 C   0  0  0  0  0  2  0  0  0  0  0  0
  -18.9470  -28.7210   23.1750 C   0  0  0  0  0  0  0  0  0  0  0  0
  -18.8290  -29.9330   23.8870 C   0  0  0  0  0  3  0  0  0  0  0  0
  -17.5640  -30.4920   24.1520 C   0  0  0  0  0  3  0  0  0  0  0  0
  -16.4010  -29.8340   23.7190 C   0  0  0  0  0  3  0  0  0  0  0  0
  -16.5040  -28.6230   23.0120 C   0  0  0  0  0  3  0  0  0  0  0  0
  -25.7070  -32.1400   23.7910 C   0  0  0  0  0  3  0  0  0  0  0  0
  -26.1370  -31.3580   25.0920 C   0  0  1  0  0  0  0  0  0  0  0  0
  -24.9990  -31.2070   26.1300 C   0  0  0  0  0  1  0  0  0  0  0  0
  -26.6420  -29.9400   24.7350 C   0  0  0  0  0  1  0  0  0  0  0  0
  -27.3150  -32.0890   25.7780 C   0  0  0  0  0  1  0  0  0  0  0  0
  -25.4600  -33.5560   24.0920 N   0  0  0  0  0  0  0  0  0  0  0  0
  -25.9170  -34.5810   23.3600 C   0  0  0  0  0  0  0  0  0  0  0  0
  -26.6590  -34.4290   22.3860 O   0  0  0  0  0  0  0  0  0  0  0  0
  -24.8120  -33.7530   24.8410 H   0  0  0  0  0  0  0  0  0  0  0  0
  -24.3520  -36.4830   22.8470 C   0  0  0  0  0  1  0  0  0  0  0  0
  -25.4800  -36.0000   23.7740 C   0  0  0  0  0  3  0  0  0  0  0  0
  -27.5770  -36.7410   24.8120 C   0  0  0  0  0  1  0  0  0  0  0  0
  -26.5860  -36.9810   23.7660 N   0  0  0  0  0  0  0  0  0  0  0  0
  -26.2290  -37.9260   23.8790 H   0  0  0  0  0  0  0  0  0  0  0  0
  2  1  2  0
  3  4  2  0
  4  1  1  0
  5  3  1  0
  5  6  2  0
  6  2  1  0
  6 52  1  0
  7 19  1  0
  8 13  1  0
  9 10  1  0
  9  8  1  0
 11 10  1  0
 11 23  1  0
 11 12  1  0
 13  7  1  0
 13 12  1  0
 14  7  2  0
 16 15  1  0
 17 15  1  0
 18  4  1  0
 18 19  1  0
 18 16  1  0
 19 17  1  0
 20 21  2  0
 21 40  1  0
 22 21  1  0
 22 25  1  0
 23 24  1  0
 23 20  1  0
 24 22  2  0
 25 26  1  0
 26 27  2  0
 28 31  1  0
 28 27  1  0
 29 28  2  0
 30 29  1  0
 30 25  2  0
 31 32  1  0
 32 33  1  0
 33 34  2  0
 35 34  1  0
 35 39  1  0
 36 35  2  0
 37 32  2  0
 37 36  1  0
 38 37  1  0
 40 41  1  0
 41 44  1  0
 41 43  1  0
 42 40  2  0
 45 20  1  0
 45 46  1  0
 47 45  1  0
 48 50  1  0
 49 48  1  0
 49 50  1  0
 50  5  1  0
 52 51  1  0
 53 55  1  0
 53 54  1  0
 54 56  1  0
 55 54  1  0
 55 52  1  0
 56 57  1  0
 57 59  1  0
 58 69  2  0
 59 64  1  0
 60 68  1  0
 60 70  1  0
 61 67  1  0
 61 63  1  0
 62 68  1  0
 63 62  1  0
 64 63  2  0
 65 66  1  0
 65 59  2  0
 66 61  2  0
 67 60  1  0
 68 58  1  0
 70 72  2  0
 71 70  1  0
 73 71  1  0
 74 83  2  0
 74 79  1  0
 75 71  1  0
 75 79  1  0
 76 75  1  0
 77 78  1  0
 77 76  1  0
 78 74  1  0
 79 80  2  0
 80 81  1  0
 82 81  2  0
 83 82  1  0
 84 58  1  0
 84 89  1  0
 84 85  1  0
 85 88  1  1
 85 86  1  0
 87 85  1  0
 89 92  1  0
 90 94  1  0
 90 89  1  0
 91 90  2  0
 94 93  1  0
 96 94  1  0
 96 97  1  0
 96 95  1  0
M  ISO  4   7 100  19 100  56 101  57 101
M  END
>  <TORSDO>  (14) 
F 20

>  <SCORE>  (14) 
-8.733

>  <name>  (14) 
13

>  <ligand_id>  (14) 
13

>  <original_smiles>  (14) 
[H]c1c([H])c([H])c2c(c1[H])C([H])([H])C([H])([H])C([H])([H])C2([H])N([H])C(=O)C1([H])N(C(=O)C([H])(N([H])C(=O)C([H])(N([H])C([H])([H])[H])C([H])([H])[H])C(C([H])([H])[H])(C([H])([H])[H])C([H])([H])[H])C([H])([H])c2c([H])c(OC([H])([H])C3([H])C([H])([H])C3([H])C([H])(c3c([H])c([H])c(C4([H])N(C(=O)N5C([H])([H])C([H])([H])C([H])([H])C([H])(n6nc(-c7c([H])c([H])c(Oc8c([H])c([H])c(F)c([H])c8F)c([H])c7[H])c(C(=O)N([H])[H])c6N([H])[H])C5([H])[H])C([H])([H])C([H])([H])C4([H])[H])c([H])c3C3([H])C([H])([H])C3([H])[H])C([H])([H])[H])c([H])c([H])c2C1([H])[H]

>  <smiles>  (14) 
[H]c1c([H])c([H])c2c(c1[H])C([H])([H])C([H])([H])C([H])([H])C2([H])N([H])C(=O)C1([H])N(C(=O)C([H])(N([H])C(=O)C([H])(N([H])C([H])([H])[H])C([H])([H])[H])C(C([H])([H])[H])(C([H])([H])[H])C([H])([H])[H])C([H])([H])c2c([H])c(OC([H])([H])C3([H])C([H])([H])C3([H])C([H])(c3c([H])c([H])c(C4([H])N(C(=O)N5C([H])([H])C([H])([H])C([H])([H])C([H])(n6nc(-c7c([H])c([H])c(Oc8c([H])c([H])c(F)c([H])c8F)c([H])c7[H])c(C(=O)N([H])[H])c6N([H])[H])C5([H])[H])C([H])([H])C([H])([H])C4([H])[H])c([H])c3C3([H])C([H])([H])C3([H])[H])C([H])([H])[H])c([H])c([H])c2C1([H])[H]

$$$$
14:0:0
     RDKit          3D

100111  0  0  1  0  0  0  0  0999 V2000
  -28.7970  -18.1970   19.3580 C   0  0  0  0  0  2  0  0  0  0  0  0
  -29.8760  -18.8360   21.4520 C   0  0  0  0  0  2  0  0  0  0  0  0
  -28.7330  -19.7050   18.8960 C   0  0  0  0  0  2  0  0  0  0  0  0
  -29.7150  -20.4120   21.0540 C   0  0  0  0  0  2  0  0  0  0  0  0
  -30.0450  -17.9010   20.2080 C   0  0  0  0  0  3  0  0  0  0  0  0
  -28.7550  -20.8230   19.9270 N   0  0  1  0  0  4  0  0  0  0  0  0
  -27.8360  -20.8090   20.3450 H   0  0  0  0  0  0  0  0  0  0  0  0
  -31.0690  -15.3660   20.8360 C   0  0  0  0  0  0  0  0  0  0  0  0
  -31.0200  -12.9870   20.0210 C   0  0  0  0  0  2  0  0  0  0  0  0
  -30.2470  -12.7750   18.7070 C   0  0  0  0  0  2  0  0  0  0  0  0
  -28.7390  -12.6000   18.9690 C   0  0  0  0  0  2  0  0  0  0  0  0
  -28.1680  -13.6030   20.0050 C   0  0  0  0  0  3  0  0  0  0  0  0
  -29.0890  -13.7690   21.2300 C   0  0  0  0  0  2  0  0  0  0  0  0
  -30.4040  -14.1570   20.6910 N   0  0  0  0  0  0  0  0  0  0  0  0
  -32.2600  -15.2900   21.1350 O   0  0  0  0  0  0  0  0  0  0  0  0
  -30.7360  -16.4960   20.0340 N   0  0  0  0  0  0  0  0  0  0  0  0
  -31.3030  -16.1740   17.6350 C   0  0  0  0  0  3  0  0  0  0  0  0
  -33.4540  -16.8870   16.8130 C   0  0  0  0  0  3  0  0  0  0  0  0
  -32.2230  -16.2540   16.5670 C   0  0  0  0  0  0  0  0  0  0  0  0
  -31.6600  -16.6340   18.9200 C   0  0  0  0  0  0  0  0  0  0  0  0
  -32.9310  -17.2750   19.0470 C   0  0  0  0  0  0  0  0  0  0  0  0
  -33.4090  -17.9850   20.3110 C   0  0  0  0  0  1  0  0  0  0  0  0
  -33.7880  -17.3980   18.0120 N   0  0  0  0  0  0  0  0  0  0  0  0
  -32.7710  -15.7970   13.9910 C   0  0  0  0  0  2  0  0  0  0  0  0
  -31.4490  -16.5250   14.0750 C   0  0  0  0  0  2  0  0  0  0  0  0
  -31.8910  -15.6570   15.2240 C   0  0  0  0  0  3  0  0  0  0  0  0
  -25.7000  -14.1270   20.4330 C   0  0  0  0  0  0  0  0  0  0  0  0
  -24.6210  -13.3240   20.6930 C   0  0  0  0  0  0  0  0  0  0  0  0
  -25.1290  -11.9970   20.7870 C   0  0  0  0  0  0  0  0  0  0  0  0
  -26.7920  -13.2790   20.3680 N   0  0  0  0  0  0  0  0  0  0  0  0
  -26.4490  -11.9980   20.6550 N   0  0  0  0  0  0  0  0  0  0  0  0
  -24.4260  -10.7110   20.9300 C   0  0  0  0  0  0  0  0  0  0  0  0
  -24.7670   -9.7930   21.9470 C   0  0  0  0  0  3  0  0  0  0  0  0
  -24.0600   -8.5750   22.0820 C   0  0  0  0  0  3  0  0  0  0  0  0
  -23.0020   -8.2680   21.1940 C   0  0  0  0  0  0  0  0  0  0  0  0
  -22.6820   -9.1770   20.1690 C   0  0  0  0  0  3  0  0  0  0  0  0
  -23.3900  -10.3840   20.0350 C   0  0  0  0  0  3  0  0  0  0  0  0
  -22.2780   -7.1030   21.2380 O   0  0  0  0  0  0  0  0  0  0  0  0
  -22.0370   -6.4430   22.4180 C   0  0  0  0  0  0  0  0  0  0  0  0
  -21.3990   -7.0740   23.5080 C   0  0  0  0  0  3  0  0  0  0  0  0
  -21.1100   -6.3420   24.6770 C   0  0  0  0  0  3  0  0  0  0  0  0
  -21.4460   -4.9770   24.7530 C   0  0  0  0  0  0  0  0  0  0  0  0
  -22.0750   -4.3450   23.6670 C   0  0  0  0  0  3  0  0  0  0  0  0
  -22.3660   -5.0740   22.5010 C   0  0  0  0  0  0  0  0  0  0  0  0
  -22.9530   -4.4540   21.4480 F   0  0  0  0  0  0  0  0  0  0  0  0
  -21.1610   -4.2710   25.8720 F   0  0  0  0  0  0  0  0  0  0  0  0
  -23.1860  -13.7560   20.7500 C   0  0  0  0  0  0  0  0  0  0  0  0
  -22.3680  -13.0940   21.5650 N   0  0  0  0  0  0  0  0  0  0  0  0
  -22.7840  -14.7170   20.0990 O   0  0  0  0  0  0  0  0  0  0  0  0
  -22.6990  -12.3170   22.1180 H   0  0  0  0  0  0  0  0  0  0  0  0
  -21.3980  -13.3750   21.6390 H   0  0  0  0  0  0  0  0  0  0  0  0
  -25.8430  -15.4910   20.2150 N   0  0  0  0  0  0  0  0  0  0  0  0
  -25.0530  -16.1310   20.2080 H   0  0  0  0  0  0  0  0  0  0  0  0
  -26.7250  -15.9480   20.0220 H   0  0  0  0  0  0  0  0  0  0  0  0
  -28.2930  -22.3270   17.8340 C   0  0  0  0  0  1  0  0  0  0  0  0
  -28.9330  -22.2540   19.2530 C   0  0  0  0  0  3  0  0  0  0  0  0
  -29.7340  -24.7260   19.7680 C   0  0  0  0  0  2  0  0  0  0  0  0
  -28.6470  -23.7040   19.9720 C   0  0  0  0  0  3  0  0  0  0  0  0
  -28.3970  -25.1850   19.2500 C   0  0  0  0  0  3  0  0  0  0  0  0
  -28.4220  -26.6370   19.7060 O   0  0  0  0  0  0  0  0  0  0  0  0
  -24.6220  -31.8500   23.0770 C   0  0  0  0  0  0  0  0  0  0  0  0
  -27.2950  -27.5010   19.6850 C   0  0  0  0  0  0  0  0  0  0  0  0
  -23.4200  -30.4810   21.4080 C   0  0  0  0  0  3  0  0  0  0  0  0
  -24.8820  -29.0730   19.8350 C   0  0  0  0  0  0  0  0  0  0  0  0
  -25.9410  -30.9020   21.1640 C   0  0  0  0  0  2  0  0  0  0  0  0
  -26.0530  -29.5630   20.4260 C   0  0  0  0  0  0  0  0  0  0  0  0
  -27.2600  -28.7890   20.3350 C   0  0  0  0  0  3  0  0  0  0  0  0
  -26.0940  -27.0850   19.0730 C   0  0  0  0  0  3  0  0  0  0  0  0
  -24.9090  -27.8480   19.1490 C   0  0  0  0  0  3  0  0  0  0  0  0
  -23.6140  -29.8920   19.9830 C   0  0  0  0  0  2  0  0  0  0  0  0
  -24.6790  -31.0960   21.9390 N   0  0  0  0  0  0  0  0  0  0  0  0
  -23.5480  -32.0540   23.6610 O   0  0  0  0  0  0  0  0  0  0  0  0
  -22.8360  -29.3920   22.3380 C   0  0  0  0  0  0  0  0  0  0  0  0
  -21.5190  -29.1410   22.2300 N   0  0  0  0  0  0  0  0  0  0  0  0
  -23.5630  -28.7810   23.1250 O   0  0  0  0  0  0  0  0  0  0  0  0
  -20.9890  -29.6830   21.5620 H   0  0  0  0  0  0  0  0  0  0  0  0
  -18.2390  -27.6800   22.6940 C   0  0  0  0  0  0  0  0  0  0  0  0
  -20.7720  -28.1280   22.9750 C   0  0  0  0  0  3  0  0  0  0  0  0
  -20.9840  -26.7250   22.3600 C   0  0  0  0  0  2  0  0  0  0  0  0
  -19.9110  -26.3460   21.3360 C   0  0  0  0  0  2  0  0  0  0  0  0
  -18.5220  -26.3670   21.9810 C   0  0  0  0  0  2  0  0  0  0  0  0
  -19.2980  -28.5130   23.1450 C   0  0  0  0  0  0  0  0  0  0  0  0
  -18.9850  -29.7390   23.7720 C   0  0  0  0  0  3  0  0  0  0  0  0
  -17.6450  -30.1330   23.9540 C   0  0  0  0  0  3  0  0  0  0  0  0
  -16.6010  -29.2960   23.5200 C   0  0  0  0  0  3  0  0  0  0  0  0
  -16.8990  -28.0720   22.8960 C   0  0  0  0  0  3  0  0  0  0  0  0
  -25.8980  -32.5080   23.6850 C   0  0  0  0  0  3  0  0  0  0  0  0
  -26.4930  -31.7070   24.9080 C   0  0  1  0  0  0  0  0  0  0  0  0
  -25.4520  -31.3830   26.0040 C   0  0  0  0  0  1  0  0  0  0  0  0
  -27.1140  -30.3700   24.4420 C   0  0  0  0  0  1  0  0  0  0  0  0
  -27.6300  -32.5230   25.5670 C   0  0  0  0  0  1  0  0  0  0  0  0
  -25.5410  -33.8770   24.0970 N   0  0  0  0  0  0  0  0  0  0  0  0
  -25.8270  -34.9830   23.3990 C   0  0  0  0  0  0  0  0  0  0  0  0
  -26.4860  -34.9680   22.3570 O   0  0  0  0  0  0  0  0  0  0  0  0
  -24.9430  -33.9620   24.9050 H   0  0  0  0  0  0  0  0  0  0  0  0
  -24.0260  -36.7280   23.1820 C   0  0  0  0  0  1  0  0  0  0  0  0
  -25.2950  -36.3230   23.9490 C   0  0  0  0  0  3  0  0  0  0  0  0
  -27.4030  -37.2360   24.8070 C   0  0  0  0  0  1  0  0  0  0  0  0
  -26.2820  -37.4200   23.8880 N   0  0  0  0  0  0  0  0  0  0  0  0
  -25.8420  -38.3100   24.1040 H   0  0  0  0  0  0  0  0  0  0  0  0
  1  5  1  0
  3  1  1  0
  3  6  1  0
  4  2  1  0
  5 16  1  0
  5  2  1  0
  6  7  1  1
  6  4  1  0
  8 15  2  0
  9 14  1  0
 10 11  1  0
 10  9  1  0
 12 11  1  0
 12 30  1  0
 12 13  1  0
 14  8  1  0
 14 13  1  0
 16  8  1  0
 17 20  1  0
 18 23  2  0
 19 18  1  0
 19 17  2  0
 20 21  2  0
 20 16  1  0
 21 22  1  0
 23 21  1  0
 24 25  1  0
 24 26  1  0
 25 26  1  0
 26 19  1  0
 27 28  2  0
 28 47  1  0
 28 29  1  0
 29 32  1  0
 30 27  1  0
 30 31  1  0
 31 29  2  0
 32 33  1  0
 33 34  2  0
 35 38  1  0
 35 34  1  0
 36 35  2  0
 37 36  1  0
 37 32  2  0
 38 39  1  0
 39 44  2  0
 39 40  1  0
 40 41  2  0
 41 42  1  0
 42 46  1  0
 43 42  2  0
 44 43  1  0
 45 44  1  0
 47 48  1  0
 48 51  1  0
 48 50  1  0
 49 47  2  0
 52 27  1  0
 53 52  1  0
 54 52  1  0
 56 55  1  0
 56  6  1  0
 57 58  1  0
 58 56  1  0
 59 60  1  0
 59 57  1  0
 59 58  1  0
 61 72  2  0
 62 60  1  0
 62 67  1  0
 63 71  1  0
 63 73  1  0
 64 70  1  0
 64 66  1  0
 65 71  1  0
 66 65  1  0
 67 66  2  0
 68 69  1  0
 68 62  2  0
 69 64  2  0
 70 63  1  0
 71 61  1  0
 73 75  2  0
 74 73  1  0
 76 74  1  0
 77 86  2  0
 77 82  1  0
 78 74  1  0
 78 82  1  0
 79 78  1  0
 80 81  1  0
 80 79  1  0
 81 77  1  0
 82 83  2  0
 83 84  1  0
 85 84  2  0
 86 85  1  0
 87 61  1  0
 87 92  1  0
 87 88  1  0
 88 91  1  1
 88 89  1  0
 90 88  1  0
 92 95  1  0
 93 97  1  0
 93 92  1  0
 94 93  2  0
 97 96  1  0
 99 97  1  0
 99100  1  0
 99 98  1  0
M  ISO  4   8 100  16 100  59 101  60 101
M  END
>  <TORSDO>  (15) 
F 20

>  <SCORE>  (15) 
-11.985

>  <name>  (15) 
14

>  <ligand_id>  (15) 
14

>  <original_smiles>  (15) 
[H]c1nc(C([H])([H])[H])c(N(C(=O)N2C([H])([H])C([H])([H])C([H])([H])C([H])(n3nc(-c4c([H])c([H])c(Oc5c([H])c([H])c(F)c([H])c5F)c([H])c4[H])c(C(=O)N([H])[H])c3N([H])[H])C2([H])[H])C2([H])C([H])([H])C([H])([H])[N+]([H])(C([H])(C([H])([H])[H])C3([H])C([H])([H])C3([H])Oc3c([H])c([H])c4c(c3[H])C([H])([H])N(C(=O)C([H])(N([H])C(=O)C([H])(N([H])C([H])([H])[H])C([H])([H])[H])C(C([H])([H])[H])(C([H])([H])[H])C([H])([H])[H])C([H])(C(=O)N([H])C3([H])c5c([H])c([H])c([H])c([H])c5C([H])([H])C([H])([H])C3([H])[H])C4([H])[H])C([H])([H])C2([H])[H])c([H])c1C1([H])C([H])([H])C1([H])[H]

>  <smiles>  (15) 
[H]c1nc(C([H])([H])[H])c(N(C(=O)N2C([H])([H])C([H])([H])C([H])([H])C([H])(n3nc(-c4c([H])c([H])c(Oc5c([H])c([H])c(F)c([H])c5F)c([H])c4[H])c(C(=O)N([H])[H])c3N([H])[H])C2([H])[H])C2([H])C([H])([H])C([H])([H])[N+]([H])(C([H])(C([H])([H])[H])C3([H])C([H])([H])C3([H])Oc3c([H])c([H])c4c(c3[H])C([H])([H])N(C(=O)C([H])(N([H])C(=O)C([H])(N([H])C([H])([H])[H])C([H])([H])[H])C(C([H])([H])[H])(C([H])([H])[H])C([H])([H])[H])C([H])(C(=O)N([H])C3([H])c5c([H])c([H])c([H])c([H])c5C([H])([H])C([H])([H])C3([H])[H])C4([H])[H])C([H])([H])C2([H])[H])c([H])c1C1([H])C([H])([H])C1([H])[H]

$$$$
15:0:0
     RDKit          3D

 97107  0  0  1  0  0  0  0  0999 V2000
  -29.1120  -22.9040   19.7190 C   0  0  0  0  0  2  0  0  0  0  0  0
  -27.2430  -22.3370   21.0960 C   0  0  0  0  0  2  0  0  0  0  0  0
  -28.6150  -21.7950   20.6530 C   0  0  0  0  0  3  0  0  0  0  0  0
  -28.6190  -24.2000   20.4060 C   0  0  0  0  0  3  0  0  0  0  0  0
  -26.9800  -24.5020   22.2850 C   0  0  0  0  0  1  0  0  0  0  0  0
  -27.3080  -23.8220   21.0090 N   0  0  2  0  0  4  0  0  0  0  0  0
  -26.5840  -24.0800   20.3550 H   0  0  0  0  0  0  0  0  0  0  0  0
  -29.4090  -19.3370   20.6220 C   0  0  0  0  0  3  0  0  0  0  0  0
  -27.7660  -20.0550   18.9920 C   0  0  0  0  0  3  0  0  0  0  0  0
  -28.5990  -20.3650   20.0810 C   0  0  0  0  0  0  0  0  0  0  0  0
  -29.4250  -18.0180   20.0870 C   0  0  0  0  0  0  0  0  0  0  0  0
  -27.7700  -18.7690   18.4230 C   0  0  0  0  0  0  0  0  0  0  0  0
  -28.6260  -17.7560   18.9330 C   0  0  0  0  0  0  0  0  0  0  0  0
  -26.8400  -18.5130   17.2450 C   0  0  0  0  0  1  0  0  0  0  0  0
  -28.6910  -16.4460   18.1610 C   0  0  0  0  0  1  0  0  0  0  0  0
  -30.7000  -14.4900   20.5600 C   0  0  0  0  0  0  0  0  0  0  0  0
  -30.4170  -12.3160   19.4230 C   0  0  0  0  0  2  0  0  0  0  0  0
  -29.4930  -12.5060   18.2030 C   0  0  0  0  0  2  0  0  0  0  0  0
  -28.0140  -12.3720   18.6150 C   0  0  0  0  0  2  0  0  0  0  0  0
  -27.6570  -13.2030   19.8770 C   0  0  0  0  0  3  0  0  0  0  0  0
  -28.7000  -12.9990   20.9930 C   0  0  0  0  0  2  0  0  0  0  0  0
  -30.0220  -13.3150   20.4300 N   0  0  0  0  0  0  0  0  0  0  0  0
  -31.8400  -14.6320   20.1070 O   0  0  0  0  0  0  0  0  0  0  0  0
  -30.6680  -17.0260   22.2370 C   0  0  0  0  0  2  0  0  0  0  0  0
  -29.6920  -15.8670   22.3560 C   0  0  0  0  0  2  0  0  0  0  0  0
  -30.4030  -16.9930   20.7300 C   0  0  0  0  0  3  0  0  0  0  0  0
  -29.9710  -15.5760   20.9440 N   0  0  0  0  0  0  0  0  0  0  0  0
  -25.2580  -13.8130   20.5720 C   0  0  0  0  0  0  0  0  0  0  0  0
  -24.1830  -13.0410   20.9200 C   0  0  0  0  0  0  0  0  0  0  0  0
  -24.6370  -11.6870   20.8730 C   0  0  0  0  0  0  0  0  0  0  0  0
  -26.3000  -12.9300   20.3400 N   0  0  0  0  0  0  0  0  0  0  0  0
  -25.9300  -11.6450   20.5760 N   0  0  0  0  0  0  0  0  0  0  0  0
  -23.9030  -10.4270   21.0410 C   0  0  0  0  0  0  0  0  0  0  0  0
  -24.3580   -9.4180   21.9190 C   0  0  0  0  0  3  0  0  0  0  0  0
  -23.6260   -8.2210   22.0740 C   0  0  0  0  0  3  0  0  0  0  0  0
  -22.4250   -8.0250   21.3520 C   0  0  0  0  0  0  0  0  0  0  0  0
  -21.9880   -9.0230   20.4630 C   0  0  0  0  0  3  0  0  0  0  0  0
  -22.7200  -10.2120   20.3050 C   0  0  0  0  0  3  0  0  0  0  0  0
  -21.6600   -6.8850   21.4240 O   0  0  0  0  0  0  0  0  0  0  0  0
  -21.6840   -6.0720   22.5280 C   0  0  0  0  0  0  0  0  0  0  0  0
  -21.4010   -6.5620   23.8220 C   0  0  0  0  0  3  0  0  0  0  0  0
  -21.3660   -5.6780   24.9190 C   0  0  0  0  0  3  0  0  0  0  0  0
  -21.6050   -4.3040   24.7240 C   0  0  0  0  0  0  0  0  0  0  0  0
  -21.8820   -3.8120   23.4360 C   0  0  0  0  0  3  0  0  0  0  0  0
  -21.9180   -4.6940   22.3410 C   0  0  0  0  0  0  0  0  0  0  0  0
  -22.1650   -4.2120   21.0990 F   0  0  0  0  0  0  0  0  0  0  0  0
  -21.5630   -3.4530   25.7750 F   0  0  0  0  0  0  0  0  0  0  0  0
  -22.7850  -13.5220   21.1860 C   0  0  0  0  0  0  0  0  0  0  0  0
  -22.0470  -12.8220   22.0410 N   0  0  0  0  0  0  0  0  0  0  0  0
  -22.3550  -14.5550   20.6720 O   0  0  0  0  0  0  0  0  0  0  0  0
  -22.4040  -11.9880   22.4830 H   0  0  0  0  0  0  0  0  0  0  0  0
  -21.1110  -13.1280   22.2600 H   0  0  0  0  0  0  0  0  0  0  0  0
  -25.4350  -15.1860   20.4180 N   0  0  0  0  0  0  0  0  0  0  0  0
  -24.6790  -15.8470   20.5550 H   0  0  0  0  0  0  0  0  0  0  0  0
  -26.3120  -15.6270   20.1730 H   0  0  0  0  0  0  0  0  0  0  0  0
  -28.5620  -25.4260   19.4430 C   0  0  0  0  0  2  0  0  0  0  0  0
  -28.4220  -26.7040   20.1030 O   0  0  0  0  0  0  0  0  0  0  0  0
  -24.6150  -31.8670   23.2070 C   0  0  0  0  0  0  0  0  0  0  0  0
  -27.2320  -27.4150   20.0810 C   0  0  0  0  0  0  0  0  0  0  0  0
  -23.4030  -30.4910   21.5490 C   0  0  0  0  0  3  0  0  0  0  0  0
  -24.8470  -28.9530   20.1160 C   0  0  0  0  0  0  0  0  0  0  0  0
  -25.9320  -30.8240   21.3630 C   0  0  0  0  0  2  0  0  0  0  0  0
  -26.0080  -29.4550   20.7150 C   0  0  0  0  0  0  0  0  0  0  0  0
  -27.1970  -28.6890   20.7030 C   0  0  0  0  0  3  0  0  0  0  0  0
  -26.0430  -26.9310   19.4850 C   0  0  0  0  0  3  0  0  0  0  0  0
  -24.8580  -27.6900   19.5040 C   0  0  0  0  0  3  0  0  0  0  0  0
  -23.6120  -29.8230   20.1640 C   0  0  0  0  0  2  0  0  0  0  0  0
  -24.6690  -31.0750   22.0980 N   0  0  0  0  0  0  0  0  0  0  0  0
  -23.5340  -32.1430   23.7460 O   0  0  0  0  0  0  0  0  0  0  0  0
  -22.7410  -29.4660   22.4970 C   0  0  0  0  0  0  0  0  0  0  0  0
  -21.4130  -29.3050   22.3720 N   0  0  0  0  0  0  0  0  0  0  0  0
  -23.4180  -28.8190   23.3000 O   0  0  0  0  0  0  0  0  0  0  0  0
  -20.9260  -29.8800   21.6980 H   0  0  0  0  0  0  0  0  0  0  0  0
  -18.0280  -28.1360   22.8490 C   0  0  0  0  0  0  0  0  0  0  0  0
  -20.5870  -28.3670   23.1310 C   0  0  0  0  0  3  0  0  0  0  0  0
  -20.6790  -26.9390   22.5430 C   0  0  0  0  0  2  0  0  0  0  0  0
  -19.5770  -26.6350   21.5230 C   0  0  0  0  0  2  0  0  0  0  0  0
  -18.1940  -26.7900   22.1630 C   0  0  0  0  0  2  0  0  0  0  0  0
  -19.1520  -28.8830   23.2900 C   0  0  0  0  0  0  0  0  0  0  0  0
  -18.9450  -30.1430   23.8910 C   0  0  0  0  0  3  0  0  0  0  0  0
  -17.6460  -30.6570   24.0570 C   0  0  0  0  0  3  0  0  0  0  0  0
  -16.5350  -29.9080   23.6330 C   0  0  0  0  0  3  0  0  0  0  0  0
  -16.7270  -28.6490   23.0340 C   0  0  0  0  0  3  0  0  0  0  0  0
  -25.9040  -32.4800   23.8370 C   0  0  0  0  0  3  0  0  0  0  0  0
  -25.5900  -33.8610   24.2310 N   0  0  0  0  0  0  0  0  0  0  0  0
  -25.9040  -34.9470   23.5110 C   0  0  0  0  0  0  0  0  0  0  0  0
  -26.5600  -34.8930   22.4670 O   0  0  0  0  0  0  0  0  0  0  0  0
  -25.0070  -33.9770   25.0470 H   0  0  0  0  0  0  0  0  0  0  0  0
  -24.1490  -36.7320   23.2630 C   0  0  0  0  0  1  0  0  0  0  0  0
  -25.4110  -36.3110   24.0330 C   0  0  0  0  0  3  0  0  0  0  0  0
  -27.5580  -37.1810   24.8460 C   0  0  0  0  0  1  0  0  0  0  0  0
  -26.4300  -37.3790   23.9400 N   0  0  0  0  0  0  0  0  0  0  0  0
  -26.0170  -38.2860   24.1410 H   0  0  0  0  0  0  0  0  0  0  0  0
  -26.4470  -31.6570   25.0690 C   0  0  1  0  0  0  0  0  0  0  0  0
  -25.3750  -31.3700   26.1440 C   0  0  0  0  0  1  0  0  0  0  0  0
  -27.0290  -30.3010   24.6050 C   0  0  0  0  0  1  0  0  0  0  0  0
  -27.6040  -32.4280   25.7460 C   0  0  0  0  0  1  0  0  0  0  0  0
  1  4  1  0
  1  3  1  0
  3 10  1  0
  3  2  1  0
  4 56  1  0
  4  6  1  0
  6  2  1  0
  6  5  1  0
  6  7  1  6
  9 10  1  0
 10  8  2  0
 11  8  1  0
 12 13  1  0
 12  9  2  0
 13 11  2  0
 14 12  1  0
 15 13  1  0
 16 27  1  0
 17 22  1  0
 18 19  1  0
 18 17  1  0
 20 19  1  0
 20 31  1  0
 20 21  1  0
 22 16  1  0
 22 21  1  0
 23 16  2  0
 24 25  1  0
 26 11  1  0
 26 27  1  0
 26 24  1  0
 27 25  1  0
 28 29  2  0
 29 48  1  0
 30 29  1  0
 30 33  1  0
 31 28  1  0
 31 32  1  0
 32 30  2  0
 33 34  1  0
 34 35  2  0
 36 39  1  0
 36 35  1  0
 37 36  2  0
 38 37  1  0
 38 33  2  0
 39 40  1  0
 40 41  1  0
 41 42  2  0
 43 42  1  0
 43 47  1  0
 44 43  2  0
 45 40  2  0
 45 44  1  0
 46 45  1  0
 48 49  1  0
 49 52  1  0
 49 51  1  0
 50 48  2  0
 53 54  1  0
 53 28  1  0
 55 53  1  0
 56 57  1  0
 58 69  2  0
 59 57  1  0
 59 64  1  0
 60 68  1  0
 60 70  1  0
 61 67  1  0
 61 63  1  0
 62 68  1  0
 63 62  1  0
 64 63  2  0
 65 66  1  0
 65 59  2  0
 66 61  2  0
 67 60  1  0
 68 58  1  0
 70 72  2  0
 71 70  1  0
 73 71  1  0
 74 83  2  0
 74 79  1  0
 75 71  1  0
 75 79  1  0
 76 75  1  0
 77 78  1  0
 77 76  1  0
 78 74  1  0
 79 80  2  0
 80 81  1  0
 82 81  2  0
 83 82  1  0
 84 58  1  0
 84 85  1  0
 84 94  1  0
 85 88  1  0
 86 90  1  0
 86 85  1  0
 87 86  2  0
 90 89  1  0
 92 90  1  0
 92 93  1  0
 92 91  1  0
 94 97  1  1
 94 95  1  0
 96 94  1  0
M  ISO  4  16 100  27 100  56 101  57 101
M  END
>  <TORSDO>  (16) 
F 18

>  <SCORE>  (16) 
-12.062

>  <name>  (16) 
15

>  <ligand_id>  (16) 
15

>  <original_smiles>  (16) 
[H]c1c([H])c([H])c2c(c1[H])C([H])([H])C([H])([H])C([H])([H])C2([H])N([H])C(=O)C1([H])N(C(=O)C([H])(N([H])C(=O)C([H])(N([H])C([H])([H])[H])C([H])([H])[H])C(C([H])([H])[H])(C([H])([H])[H])C([H])([H])[H])C([H])([H])c2c([H])c(OC([H])([H])C3([H])C([H])([H])C([H])(c4c([H])c(C([H])([H])[H])c(C([H])([H])[H])c(C5([H])N(C(=O)N6C([H])([H])C([H])([H])C([H])([H])C([H])(n7nc(-c8c([H])c([H])c(Oc9c([H])c([H])c(F)c([H])c9F)c([H])c8[H])c(C(=O)N([H])[H])c7N([H])[H])C6([H])[H])C([H])([H])C5([H])[H])c4[H])C([H])([H])[N+]3([H])C([H])([H])[H])c([H])c([H])c2C1([H])[H]

>  <smiles>  (16) 
[H]c1c([H])c([H])c2c(c1[H])C([H])([H])C([H])([H])C([H])([H])C2([H])N([H])C(=O)C1([H])N(C(=O)C([H])(N([H])C(=O)C([H])(N([H])C([H])([H])[H])C([H])([H])[H])C(C([H])([H])[H])(C([H])([H])[H])C([H])([H])[H])C([H])([H])c2c([H])c(OC([H])([H])C3([H])C([H])([H])C([H])(c4c([H])c(C([H])([H])[H])c(C([H])([H])[H])c(C5([H])N(C(=O)N6C([H])([H])C([H])([H])C([H])([H])C([H])(n7nc(-c8c([H])c([H])c(Oc9c([H])c([H])c(F)c([H])c9F)c([H])c8[H])c(C(=O)N([H])[H])c7N([H])[H])C6([H])[H])C([H])([H])C5([H])[H])c4[H])C([H])([H])[N+]3([H])C([H])([H])[H])c([H])c([H])c2C1([H])[H]

$$$$
16:0:0
     RDKit          3D

 95105  0  0  1  0  0  0  0  0999 V2000
  -29.5270  -21.1960   18.4750 C   0  0  0  0  0  0  0  0  0  0  0  0
  -29.4630  -22.4660   17.8880 C   0  0  0  0  0  0  0  0  0  0  0  0
  -29.2260  -20.9590   19.8440 C   0  0  0  0  0  0  0  0  0  0  0  0
  -29.0580  -23.6340   18.5740 C   0  0  0  0  0  0  0  0  0  0  0  0
  -28.8090  -22.1930   20.5550 C   0  0  0  0  0  0  0  0  0  0  0  0
  -28.7100  -23.5520   19.9490 C   0  0  0  0  0  0  0  0  0  0  0  0
  -29.9190  -20.1790   17.4210 C   0  0  0  0  0  2  0  0  0  0  0  0
  -29.8600  -22.4180   16.4300 C   0  0  0  0  0  2  0  0  0  0  0  0
  -30.4210  -21.0050   16.2290 C   0  0  0  0  0  2  0  0  0  0  0  0
  -28.9820  -24.9550   17.8190 C   0  0  0  0  0  1  0  0  0  0  0  0
  -28.4510  -22.0370   22.0250 C   0  0  0  0  0  1  0  0  0  0  0  0
  -30.6850  -14.9210   20.2990 C   0  0  0  0  0  0  0  0  0  0  0  0
  -30.4360  -12.6150   19.3130 C   0  0  0  0  0  2  0  0  0  0  0  0
  -29.5020  -12.5830   18.0860 C   0  0  0  0  0  2  0  0  0  0  0  0
  -28.0490  -12.3540   18.5360 C   0  0  0  0  0  2  0  0  0  0  0  0
  -27.6450  -13.2810   19.7080 C   0  0  0  0  0  3  0  0  0  0  0  0
  -28.7120  -13.3440   20.8260 C   0  0  0  0  0  2  0  0  0  0  0  0
  -29.9810  -13.7260   20.1950 N   0  0  0  0  0  0  0  0  0  0  0  0
  -31.8940  -14.8670   20.0510 O   0  0  0  0  0  0  0  0  0  0  0  0
  -28.5880  -18.2470   19.7520 C   0  0  0  0  0  2  0  0  0  0  0  0
  -30.7830  -18.8050   20.5950 C   0  0  0  0  0  2  0  0  0  0  0  0
  -28.7420  -16.7450   20.3020 C   0  0  0  0  0  2  0  0  0  0  0  0
  -30.8980  -17.3260   21.1900 C   0  0  0  0  0  2  0  0  0  0  0  0
  -29.3520  -19.4360   20.4610 C   0  0  0  0  0  3  0  0  0  0  0  0
  -30.1120  -16.2000   20.5690 N   0  0  0  0  0  0  0  0  0  0  0  0
  -25.2770  -13.8680   20.4720 C   0  0  0  0  0  0  0  0  0  0  0  0
  -24.2170  -13.0900   20.8450 C   0  0  0  0  0  0  0  0  0  0  0  0
  -24.6870  -11.7410   20.8150 C   0  0  0  0  0  0  0  0  0  0  0  0
  -26.3190  -12.9890   20.2260 N   0  0  0  0  0  0  0  0  0  0  0  0
  -25.9760  -11.7070   20.5030 N   0  0  0  0  0  0  0  0  0  0  0  0
  -23.9690  -10.4760   21.0050 C   0  0  0  0  0  0  0  0  0  0  0  0
  -24.3950   -9.5220   21.9540 C   0  0  0  0  0  3  0  0  0  0  0  0
  -23.6740   -8.3210   22.1320 C   0  0  0  0  0  3  0  0  0  0  0  0
  -22.5150   -8.0670   21.3590 C   0  0  0  0  0  0  0  0  0  0  0  0
  -22.1110   -9.0110   20.3980 C   0  0  0  0  0  3  0  0  0  0  0  0
  -22.8320  -10.2030   20.2200 C   0  0  0  0  0  3  0  0  0  0  0  0
  -21.7680   -6.9180   21.4460 O   0  0  0  0  0  0  0  0  0  0  0  0
  -21.6890   -6.1990   22.6120 C   0  0  0  0  0  0  0  0  0  0  0  0
  -21.1930   -6.7660   23.8060 C   0  0  0  0  0  3  0  0  0  0  0  0
  -21.0640   -5.9710   24.9610 C   0  0  0  0  0  3  0  0  0  0  0  0
  -21.4200   -4.6100   24.9250 C   0  0  0  0  0  0  0  0  0  0  0  0
  -21.9100   -4.0420   23.7350 C   0  0  0  0  0  3  0  0  0  0  0  0
  -22.0410   -4.8350   22.5810 C   0  0  0  0  0  0  0  0  0  0  0  0
  -22.4930   -4.2770   21.4320 F   0  0  0  0  0  0  0  0  0  0  0  0
  -21.2890   -3.8430   26.0320 F   0  0  0  0  0  0  0  0  0  0  0  0
  -22.8190  -13.5620   21.1170 C   0  0  0  0  0  0  0  0  0  0  0  0
  -22.0910  -12.8580   21.9760 N   0  0  0  0  0  0  0  0  0  0  0  0
  -22.3800  -14.5900   20.6010 O   0  0  0  0  0  0  0  0  0  0  0  0
  -22.4600  -12.0260   22.4130 H   0  0  0  0  0  0  0  0  0  0  0  0
  -21.1520  -13.1560   22.2020 H   0  0  0  0  0  0  0  0  0  0  0  0
  -25.4360  -15.2390   20.2940 N   0  0  0  0  0  0  0  0  0  0  0  0
  -24.6710  -15.8930   20.4190 H   0  0  0  0  0  0  0  0  0  0  0  0
  -26.2840  -15.6800   19.9690 H   0  0  0  0  0  0  0  0  0  0  0  0
  -28.1590  -24.8950   20.6980 C   0  0  0  0  0  2  0  0  0  0  0  0
  -28.3650  -26.3360   20.2290 O   0  0  0  0  0  0  0  0  0  0  0  0
  -24.6580  -31.8840   23.2380 C   0  0  0  0  0  0  0  0  0  0  0  0
  -27.2760  -27.2530   20.2130 C   0  0  0  0  0  0  0  0  0  0  0  0
  -23.4670  -30.4840   21.5930 C   0  0  0  0  0  3  0  0  0  0  0  0
  -24.9260  -28.9260   20.1740 C   0  0  0  0  0  0  0  0  0  0  0  0
  -26.0130  -30.7880   21.4240 C   0  0  0  0  0  2  0  0  0  0  0  0
  -26.0980  -29.4010   20.7760 C   0  0  0  0  0  0  0  0  0  0  0  0
  -27.2790  -28.5820   20.7750 C   0  0  0  0  0  3  0  0  0  0  0  0
  -26.0800  -26.8530   19.5830 C   0  0  0  0  0  3  0  0  0  0  0  0
  -24.9250  -27.6610   19.5630 C   0  0  0  0  0  3  0  0  0  0  0  0
  -23.6900  -29.8070   20.2150 C   0  0  0  0  0  2  0  0  0  0  0  0
  -24.7320  -31.0720   22.1420 N   0  0  0  0  0  0  0  0  0  0  0  0
  -23.5710  -32.1590   23.7670 O   0  0  0  0  0  0  0  0  0  0  0  0
  -22.7970  -29.4690   22.5500 C   0  0  0  0  0  0  0  0  0  0  0  0
  -21.4700  -29.2920   22.4200 N   0  0  0  0  0  0  0  0  0  0  0  0
  -23.4700  -28.8410   23.3710 O   0  0  0  0  0  0  0  0  0  0  0  0
  -20.9830  -29.8480   21.7300 H   0  0  0  0  0  0  0  0  0  0  0  0
  -18.0910  -28.0960   22.9250 C   0  0  0  0  0  0  0  0  0  0  0  0
  -20.6500  -28.3520   23.1870 C   0  0  0  0  0  3  0  0  0  0  0  0
  -20.7500  -26.9250   22.6050 C   0  0  0  0  0  2  0  0  0  0  0  0
  -19.6460  -26.6080   21.5920 C   0  0  0  0  0  2  0  0  0  0  0  0
  -18.2640  -26.7500   22.2390 C   0  0  0  0  0  2  0  0  0  0  0  0
  -19.2110  -28.8540   23.3550 C   0  0  0  0  0  0  0  0  0  0  0  0
  -18.9940  -30.1130   23.9570 C   0  0  0  0  0  3  0  0  0  0  0  0
  -17.6910  -30.6140   24.1290 C   0  0  0  0  0  3  0  0  0  0  0  0
  -16.5840  -29.8520   23.7130 C   0  0  0  0  0  3  0  0  0  0  0  0
  -16.7860  -28.5940   23.1180 C   0  0  0  0  0  3  0  0  0  0  0  0
  -25.9330  -32.5220   23.8690 C   0  0  0  0  0  3  0  0  0  0  0  0
  -25.6190  -33.9230   24.1900 N   0  0  0  0  0  0  0  0  0  0  0  0
  -25.9500  -34.9730   23.4260 C   0  0  0  0  0  0  0  0  0  0  0  0
  -26.6180  -34.8630   22.3940 O   0  0  0  0  0  0  0  0  0  0  0  0
  -25.0250  -34.0810   24.9900 H   0  0  0  0  0  0  0  0  0  0  0  0
  -24.2190  -36.7650   23.0660 C   0  0  0  0  0  1  0  0  0  0  0  0
  -25.4620  -36.3640   23.8770 C   0  0  0  0  0  3  0  0  0  0  0  0
  -27.5940  -37.2560   24.7060 C   0  0  0  0  0  1  0  0  0  0  0  0
  -26.4930  -37.4180   23.7610 N   0  0  0  0  0  0  0  0  0  0  0  0
  -26.0850  -38.3380   23.9060 H   0  0  0  0  0  0  0  0  0  0  0  0
  -26.4370  -31.7600   25.1570 C   0  0  1  0  0  0  0  0  0  0  0  0
  -25.3340  -31.5300   26.2160 C   0  0  0  0  0  1  0  0  0  0  0  0
  -27.0250  -30.3800   24.7840 C   0  0  0  0  0  1  0  0  0  0  0  0
  -27.5820  -32.5610   25.8230 C   0  0  0  0  0  1  0  0  0  0  0  0
  1  3  1  0
  2  1  2  0
  2  4  1  0
  3  5  2  0
  4  6  2  0
  5 11  1  0
  6  5  1  0
  6 54  1  0
  7  1  1  0
  8  2  1  0
  9  8  1  0
  9  7  1  0
 10  4  1  0
 12 25  1  0
 13 18  1  0
 14 15  1  0
 14 13  1  0
 16 15  1  0
 16 29  1  0
 16 17  1  0
 18 12  1  0
 18 17  1  0
 19 12  2  0
 20 22  1  0
 20 24  1  0
 21 23  1  0
 22 25  1  0
 24  3  1  0
 24 21  1  0
 25 23  1  0
 26 27  2  0
 27 46  1  0
 28 27  1  0
 28 31  1  0
 29 26  1  0
 29 30  1  0
 30 28  2  0
 31 32  1  0
 32 33  2  0
 34 37  1  0
 34 33  1  0
 35 34  2  0
 36 35  1  0
 36 31  2  0
 37 38  1  0
 38 39  1  0
 39 40  2  0
 41 40  1  0
 41 45  1  0
 42 41  2  0
 43 38  2  0
 43 42  1  0
 44 43  1  0
 46 47  1  0
 47 50  1  0
 47 49  1  0
 48 46  2  0
 51 52  1  0
 51 26  1  0
 53 51  1  0
 55 54  1  0
 56 67  2  0
 57 55  1  0
 57 62  1  0
 58 66  1  0
 58 68  1  0
 59 65  1  0
 59 61  1  0
 60 66  1  0
 61 60  1  0
 62 61  2  0
 63 57  2  0
 64 63  1  0
 64 59  2  0
 65 58  1  0
 66 56  1  0
 68 70  2  0
 69 68  1  0
 71 69  1  0
 72 81  2  0
 72 77  1  0
 73 69  1  0
 73 77  1  0
 74 73  1  0
 75 76  1  0
 75 74  1  0
 76 72  1  0
 77 78  2  0
 78 79  1  0
 80 79  2  0
 81 80  1  0
 82 56  1  0
 82 83  1  0
 82 92  1  0
 83 86  1  0
 84 88  1  0
 84 83  1  0
 85 84  2  0
 88 87  1  0
 90 88  1  0
 90 91  1  0
 90 89  1  0
 92 95  1  1
 92 93  1  0
 94 92  1  0
M  ISO  4  12 100  25 100  54 101  55 101
M  END
>  <TORSDO>  (17) 
F 17

>  <SCORE>  (17) 
-15.494

>  <name>  (17) 
16

>  <ligand_id>  (17) 
16

>  <original_smiles>  (17) 
[H]c1c([H])c([H])c2c(c1[H])C([H])([H])C([H])([H])C([H])([H])C2([H])N([H])C(=O)C1([H])N(C(=O)C([H])(N([H])C(=O)C([H])(N([H])C([H])([H])[H])C([H])([H])[H])C(C([H])([H])[H])(C([H])([H])[H])C([H])([H])[H])C([H])([H])c2c([H])c(OC([H])([H])c3c(C([H])([H])[H])c4c(c(C5([H])C([H])([H])C([H])([H])N(C(=O)N6C([H])([H])C([H])([H])C([H])([H])C([H])(n7nc(-c8c([H])c([H])c(Oc9c([H])c([H])c(F)c([H])c9F)c([H])c8[H])c(C(=O)N([H])[H])c7N([H])[H])C6([H])[H])C([H])([H])C5([H])[H])c3C([H])([H])[H])C([H])([H])C([H])([H])C4([H])[H])c([H])c([H])c2C1([H])[H]

>  <smiles>  (17) 
[H]c1c([H])c([H])c2c(c1[H])C([H])([H])C([H])([H])C([H])([H])C2([H])N([H])C(=O)C1([H])N(C(=O)C([H])(N([H])C(=O)C([H])(N([H])C([H])([H])[H])C([H])([H])[H])C(C([H])([H])[H])(C([H])([H])[H])C([H])([H])[H])C([H])([H])c2c([H])c(OC([H])([H])c3c(C([H])([H])[H])c4c(c(C5([H])C([H])([H])C([H])([H])N(C(=O)N6C([H])([H])C([H])([H])C([H])([H])C([H])(n7nc(-c8c([H])c([H])c(Oc9c([H])c([H])c(F)c([H])c9F)c([H])c8[H])c(C(=O)N([H])[H])c7N([H])[H])C6([H])[H])C([H])([H])C5([H])[H])c3C([H])([H])[H])C([H])([H])C([H])([H])C4([H])[H])c([H])c([H])c2C1([H])[H]

$$$$
17:0:0
     RDKit          3D

 94104  0  0  1  0  0  0  0  0999 V2000
  -28.8550  -21.4160   21.3230 C   0  0  0  0  0  3  0  0  0  0  0  0
  -29.4590  -20.7170   20.2350 C   0  0  0  0  0  0  0  0  0  0  0  0
  -29.7560  -21.5700   19.1320 C   0  0  0  0  0  0  0  0  0  0  0  0
  -29.4020  -22.9430   19.0730 C   0  0  0  0  0  3  0  0  0  0  0  0
  -28.4980  -22.8150   21.2770 C   0  0  0  0  0  0  0  0  0  0  0  0
  -28.7100  -23.6280   20.1130 C   0  0  0  0  0  0  0  0  0  0  0  0
  -30.4590  -21.1410   17.8660 C   0  0  0  0  0  3  0  0  0  0  0  0
  -29.8000  -23.5440   17.7450 C   0  0  0  0  0  3  0  0  0  0  0  0
  -30.4330  -22.3830   16.9490 C   0  0  0  0  0  3  0  0  0  0  0  0
  -27.8330  -23.4220   22.5020 C   0  0  0  0  0  1  0  0  0  0  0  0
  -30.6460  -14.7780   20.2530 C   0  0  0  0  0  0  0  0  0  0  0  0
  -30.3620  -12.5140   19.2490 C   0  0  0  0  0  2  0  0  0  0  0  0
  -29.4080  -12.5910   18.0400 C   0  0  0  0  0  2  0  0  0  0  0  0
  -27.9460  -12.4310   18.4970 C   0  0  0  0  0  2  0  0  0  0  0  0
  -27.5980  -13.3270   19.7160 C   0  0  0  0  0  3  0  0  0  0  0  0
  -28.6770  -13.2630   20.8190 C   0  0  0  0  0  2  0  0  0  0  0  0
  -29.9620  -13.5850   20.1910 N   0  0  0  0  0  0  0  0  0  0  0  0
  -31.8350  -14.8130   19.9200 O   0  0  0  0  0  0  0  0  0  0  0  0
  -29.8940  -18.3880   21.5870 C   0  0  0  0  0  2  0  0  0  0  0  0
  -29.0020  -18.2010   19.3690 C   0  0  0  0  0  2  0  0  0  0  0  0
  -30.4990  -16.9250   21.4820 C   0  0  0  0  0  2  0  0  0  0  0  0
  -29.6220  -16.7540   19.2120 C   0  0  0  0  0  2  0  0  0  0  0  0
  -29.8520  -19.1640   20.2420 C   0  0  0  0  0  3  0  0  0  0  0  0
  -29.9630  -15.9810   20.4460 N   0  0  0  0  0  0  0  0  0  0  0  0
  -25.2330  -13.9220   20.5020 C   0  0  0  0  0  0  0  0  0  0  0  0
  -24.1690  -13.1520   20.8810 C   0  0  0  0  0  0  0  0  0  0  0  0
  -24.6210  -11.7970   20.8220 C   0  0  0  0  0  0  0  0  0  0  0  0
  -26.2650  -13.0390   20.2330 N   0  0  0  0  0  0  0  0  0  0  0  0
  -25.9050  -11.7540   20.4900 N   0  0  0  0  0  0  0  0  0  0  0  0
  -23.8880  -10.5380   21.0080 C   0  0  0  0  0  0  0  0  0  0  0  0
  -24.3140   -9.5690   21.9430 C   0  0  0  0  0  3  0  0  0  0  0  0
  -23.5820   -8.3750   22.1190 C   0  0  0  0  0  3  0  0  0  0  0  0
  -22.4100   -8.1420   21.3610 C   0  0  0  0  0  0  0  0  0  0  0  0
  -22.0040   -9.0990   20.4140 C   0  0  0  0  0  3  0  0  0  0  0  0
  -22.7360  -10.2850   20.2370 C   0  0  0  0  0  3  0  0  0  0  0  0
  -21.6500   -7.0000   21.4460 O   0  0  0  0  0  0  0  0  0  0  0  0
  -21.5690   -6.2750   22.6070 C   0  0  0  0  0  0  0  0  0  0  0  0
  -21.0730   -6.8380   23.8030 C   0  0  0  0  0  3  0  0  0  0  0  0
  -20.9380   -6.0380   24.9550 C   0  0  0  0  0  3  0  0  0  0  0  0
  -21.2900   -4.6760   24.9130 C   0  0  0  0  0  0  0  0  0  0  0  0
  -21.7790   -4.1120   23.7220 C   0  0  0  0  0  3  0  0  0  0  0  0
  -21.9150   -4.9090   22.5710 C   0  0  0  0  0  0  0  0  0  0  0  0
  -22.3650   -4.3550   21.4190 F   0  0  0  0  0  0  0  0  0  0  0  0
  -21.1540   -3.9050   26.0190 F   0  0  0  0  0  0  0  0  0  0  0  0
  -22.7800  -13.6340   21.1850 C   0  0  0  0  0  0  0  0  0  0  0  0
  -22.0690  -12.9350   22.0610 N   0  0  0  0  0  0  0  0  0  0  0  0
  -22.3390  -14.6680   20.6840 O   0  0  0  0  0  0  0  0  0  0  0  0
  -22.4420  -12.1000   22.4870 H   0  0  0  0  0  0  0  0  0  0  0  0
  -21.1380  -13.2380   22.3100 H   0  0  0  0  0  0  0  0  0  0  0  0
  -25.4070  -15.2940   20.3420 N   0  0  0  0  0  0  0  0  0  0  0  0
  -24.6570  -15.9610   20.4780 H   0  0  0  0  0  0  0  0  0  0  0  0
  -26.2730  -15.7270   20.0450 H   0  0  0  0  0  0  0  0  0  0  0  0
  -27.9000  -24.9750   19.8320 C   0  0  0  0  0  2  0  0  0  0  0  0
  -28.2760  -26.3940   20.1580 O   0  0  0  0  0  0  0  0  0  0  0  0
  -24.6290  -31.8840   23.2310 C   0  0  0  0  0  0  0  0  0  0  0  0
  -27.2110  -27.3370   20.0830 C   0  0  0  0  0  0  0  0  0  0  0  0
  -23.4180  -30.5230   21.5740 C   0  0  0  0  0  3  0  0  0  0  0  0
  -24.8600  -29.0080   20.1050 C   0  0  0  0  0  0  0  0  0  0  0  0
  -25.9660  -30.8250   21.3910 C   0  0  0  0  0  2  0  0  0  0  0  0
  -26.0390  -29.4580   20.7140 C   0  0  0  0  0  0  0  0  0  0  0  0
  -27.2160  -28.6350   20.6970 C   0  0  0  0  0  3  0  0  0  0  0  0
  -26.0070  -26.9810   19.4200 C   0  0  0  0  0  3  0  0  0  0  0  0
  -24.8520  -27.7740   19.4470 C   0  0  0  0  0  3  0  0  0  0  0  0
  -23.6260  -29.8840   20.1780 C   0  0  0  0  0  2  0  0  0  0  0  0
  -24.6910  -31.0930   22.1210 N   0  0  0  0  0  0  0  0  0  0  0  0
  -23.5490  -32.1510   23.7740 O   0  0  0  0  0  0  0  0  0  0  0  0
  -22.7580  -29.4840   22.5150 C   0  0  0  0  0  0  0  0  0  0  0  0
  -21.4340  -29.2980   22.3790 N   0  0  0  0  0  0  0  0  0  0  0  0
  -23.4370  -28.8510   23.3270 O   0  0  0  0  0  0  0  0  0  0  0  0
  -20.9440  -29.8660   21.7000 H   0  0  0  0  0  0  0  0  0  0  0  0
  -18.0580  -28.0790   22.8570 C   0  0  0  0  0  0  0  0  0  0  0  0
  -20.6160  -28.3470   23.1350 C   0  0  0  0  0  3  0  0  0  0  0  0
  -20.7250  -26.9230   22.5430 C   0  0  0  0  0  2  0  0  0  0  0  0
  -19.6260  -26.6090   21.5240 C   0  0  0  0  0  2  0  0  0  0  0  0
  -18.2410  -26.7390   22.1650 C   0  0  0  0  0  2  0  0  0  0  0  0
  -19.1730  -28.8420   23.2980 C   0  0  0  0  0  0  0  0  0  0  0  0
  -18.9430  -30.0950   23.9050 C   0  0  0  0  0  3  0  0  0  0  0  0
  -17.6350  -30.5840   24.0790 C   0  0  0  0  0  3  0  0  0  0  0  0
  -16.5360  -29.8190   23.6520 C   0  0  0  0  0  3  0  0  0  0  0  0
  -16.7500  -28.5680   23.0460 C   0  0  0  0  0  3  0  0  0  0  0  0
  -25.9140  -32.5060   23.8590 C   0  0  0  0  0  3  0  0  0  0  0  0
  -25.6070  -33.9020   24.2030 N   0  0  0  0  0  0  0  0  0  0  0  0
  -25.8990  -34.9590   23.4330 C   0  0  0  0  0  0  0  0  0  0  0  0
  -26.5270  -34.8600   22.3770 O   0  0  0  0  0  0  0  0  0  0  0  0
  -25.0490  -34.0500   25.0320 H   0  0  0  0  0  0  0  0  0  0  0  0
  -24.1340  -36.7340   23.1740 C   0  0  0  0  0  1  0  0  0  0  0  0
  -25.4230  -36.3440   23.9150 C   0  0  0  0  0  3  0  0  0  0  0  0
  -27.5860  -37.2590   24.6310 C   0  0  0  0  0  1  0  0  0  0  0  0
  -26.4340  -37.4080   23.7430 N   0  0  0  0  0  0  0  0  0  0  0  0
  -26.0260  -38.3240   23.9080 H   0  0  0  0  0  0  0  0  0  0  0  0
  -26.4190  -31.7230   25.1320 C   0  0  1  0  0  0  0  0  0  0  0  0
  -25.3220  -31.4820   26.1950 C   0  0  0  0  0  1  0  0  0  0  0  0
  -27.0030  -30.3480   24.7310 C   0  0  0  0  0  1  0  0  0  0  0  0
  -27.5670  -32.5130   25.8030 C   0  0  0  0  0  1  0  0  0  0  0  0
  2  1  2  0
  3  2  1  0
  4  8  1  0
  4  3  1  0
  4  6  1  0
  5  1  1  0
  5 10  1  0
  6  5  2  0
  7  3  2  0
  9  8  2  0
  9  7  1  0
 11 24  1  0
 12 17  1  0
 13 14  1  0
 13 12  1  0
 15 14  1  0
 15 28  1  0
 15 16  1  0
 17 11  1  0
 17 16  1  0
 18 11  2  0
 20 23  1  0
 21 19  1  0
 22 20  1  0
 22 24  1  0
 23  2  1  0
 23 19  1  0
 24 21  1  0
 25 26  2  0
 26 45  1  0
 27 26  1  0
 27 30  1  0
 28 29  1  0
 28 25  1  0
 29 27  2  0
 30 31  1  0
 31 32  2  0
 33 36  1  0
 33 32  1  0
 34 33  2  0
 35 34  1  0
 35 30  2  0
 36 37  1  0
 37 38  1  0
 38 39  2  0
 40 39  1  0
 40 44  1  0
 41 40  2  0
 42 37  2  0
 42 41  1  0
 43 42  1  0
 45 46  1  0
 46 49  1  0
 46 48  1  0
 47 45  2  0
 50 51  1  0
 50 25  1  0
 52 50  1  0
 53  6  1  0
 53 54  1  0
 55 66  2  0
 56 54  1  0
 56 61  1  0
 57 65  1  0
 57 67  1  0
 58 64  1  0
 58 60  1  0
 59 65  1  0
 60 59  1  0
 61 60  2  0
 62 63  1  0
 62 56  2  0
 63 58  2  0
 64 57  1  0
 65 55  1  0
 67 69  2  0
 68 67  1  0
 70 68  1  0
 71 80  2  0
 71 76  1  0
 72 68  1  0
 72 76  1  0
 73 72  1  0
 74 75  1  0
 74 73  1  0
 75 71  1  0
 76 77  2  0
 77 78  1  0
 79 78  2  0
 80 79  1  0
 81 55  1  0
 81 82  1  0
 81 91  1  0
 82 85  1  0
 83 87  1  0
 83 82  1  0
 84 83  2  0
 87 86  1  0
 89 90  1  0
 89 87  1  0
 89 88  1  0
 91 94  1  1
 91 92  1  0
 93 91  1  0
M  ISO  4  11 100  24 100  53 101  54 101
M  END
>  <TORSDO>  (18) 
F 17

>  <SCORE>  (18) 
-14.695

>  <name>  (18) 
17

>  <ligand_id>  (18) 
17

>  <original_smiles>  (18) 
[H]c1c([H])c([H])c2c(c1[H])C([H])([H])C([H])([H])C([H])([H])C2([H])N([H])C(=O)C1([H])N(C(=O)C([H])(N([H])C(=O)C([H])(N([H])C([H])([H])[H])C([H])([H])[H])C(C([H])([H])[H])(C([H])([H])[H])C([H])([H])[H])C([H])([H])c2c([H])c(OC([H])([H])c3c(C([H])([H])[H])c([H])c(C4([H])C([H])([H])C([H])([H])N(C(=O)N5C([H])([H])C([H])([H])C([H])([H])C([H])(n6nc(-c7c([H])c([H])c(Oc8c([H])c([H])c(F)c([H])c8F)c([H])c7[H])c(C(=O)N([H])[H])c6N([H])[H])C5([H])[H])C([H])([H])C4([H])[H])c4c3C([H])([H])C([H])([H])C4([H])[H])c([H])c([H])c2C1([H])[H]

>  <smiles>  (18) 
[H]c1c([H])c([H])c2c(c1[H])C([H])([H])C([H])([H])C([H])([H])C2([H])N([H])C(=O)C1([H])N(C(=O)C([H])(N([H])C(=O)C([H])(N([H])C([H])([H])[H])C([H])([H])[H])C(C([H])([H])[H])(C([H])([H])[H])C([H])([H])[H])C([H])([H])c2c([H])c(OC([H])([H])c3c(C([H])([H])[H])c([H])c(C4([H])C([H])([H])C([H])([H])N(C(=O)N5C([H])([H])C([H])([H])C([H])([H])C([H])(n6nc(-c7c([H])c([H])c(Oc8c([H])c([H])c(F)c([H])c8F)c([H])c7[H])c(C(=O)N([H])[H])c6N([H])[H])C5([H])[H])C([H])([H])C4([H])[H])c4c3C([H])([H])C([H])([H])C4([H])[H])c([H])c([H])c2C1([H])[H]

$$$$
18:0:0
     RDKit          3D

 93103  0  0  1  0  0  0  0  0999 V2000
  -30.0660  -20.3500   21.1800 C   0  0  0  0  0  3  0  0  0  0  0  0
  -28.5410  -21.8530   19.3860 C   0  0  0  0  0  3  0  0  0  0  0  0
  -29.3020  -19.6340   20.2290 C   0  0  0  0  0  0  0  0  0  0  0  0
  -29.2650  -22.5680   20.3690 C   0  0  0  0  0  0  0  0  0  0  0  0
  -28.5570  -20.4270   19.3020 C   0  0  0  0  0  0  0  0  0  0  0  0
  -30.0560  -21.7740   21.2500 C   0  0  0  0  0  0  0  0  0  0  0  0
  -27.7320  -19.7780   18.2040 C   0  0  0  0  0  1  0  0  0  0  0  0
  -30.9100  -22.4410   22.3160 C   0  0  0  0  0  1  0  0  0  0  0  0
  -30.7620  -14.6270   19.8950 C   0  0  0  0  0  0  0  0  0  0  0  0
  -30.4260  -12.4510   18.7370 C   0  0  0  0  0  2  0  0  0  0  0  0
  -29.3690  -12.6350   17.6250 C   0  0  0  0  0  2  0  0  0  0  0  0
  -27.9380  -12.4740   18.1830 C   0  0  0  0  0  2  0  0  0  0  0  0
  -27.7160  -13.2650   19.5010 C   0  0  0  0  0  3  0  0  0  0  0  0
  -28.8750  -12.9990   20.4860 C   0  0  0  0  0  2  0  0  0  0  0  0
  -30.1120  -13.4170   19.8110 N   0  0  0  0  0  0  0  0  0  0  0  0
  -31.8680  -14.7680   19.3600 O   0  0  0  0  0  0  0  0  0  0  0  0
  -29.1190  -17.4680   21.6990 C   0  0  0  0  0  2  0  0  0  0  0  0
  -29.2510  -15.9510   21.4630 C   0  0  0  0  0  2  0  0  0  0  0  0
  -30.2490  -17.1190   19.6560 C   0  0  0  0  0  2  0  0  0  0  0  0
  -29.1840  -18.0640   20.2970 C   0  0  0  0  0  3  0  0  0  0  0  0
  -30.0290  -15.7510   20.2270 N   0  0  0  0  0  0  0  0  0  0  0  0
  -25.4060  -13.8540   20.4620 C   0  0  0  0  0  0  0  0  0  0  0  0
  -24.3690  -13.0730   20.8960 C   0  0  0  0  0  0  0  0  0  0  0  0
  -24.8080  -11.7210   20.7570 C   0  0  0  0  0  0  0  0  0  0  0  0
  -26.4130  -12.9760   20.0920 N   0  0  0  0  0  0  0  0  0  0  0  0
  -26.0630  -11.6860   20.3250 N   0  0  0  0  0  0  0  0  0  0  0  0
  -24.0880  -10.4570   20.9550 C   0  0  0  0  0  0  0  0  0  0  0  0
  -24.5510   -9.4770   21.8610 C   0  0  0  0  0  3  0  0  0  0  0  0
  -23.8310   -8.2780   22.0470 C   0  0  0  0  0  3  0  0  0  0  0  0
  -22.6350   -8.0490   21.3280 C   0  0  0  0  0  0  0  0  0  0  0  0
  -22.1890   -9.0180   20.4120 C   0  0  0  0  0  3  0  0  0  0  0  0
  -22.9100  -10.2090   20.2230 C   0  0  0  0  0  3  0  0  0  0  0  0
  -21.8820   -6.9040   21.4270 O   0  0  0  0  0  0  0  0  0  0  0  0
  -21.8010   -6.1950   22.5990 C   0  0  0  0  0  0  0  0  0  0  0  0
  -21.3270   -6.7810   23.7930 C   0  0  0  0  0  3  0  0  0  0  0  0
  -21.1940   -5.9990   24.9570 C   0  0  0  0  0  3  0  0  0  0  0  0
  -21.5240   -4.6310   24.9290 C   0  0  0  0  0  0  0  0  0  0  0  0
  -21.9900   -4.0440   23.7390 C   0  0  0  0  0  3  0  0  0  0  0  0
  -22.1260   -4.8230   22.5770 C   0  0  0  0  0  0  0  0  0  0  0  0
  -22.5560   -4.2480   21.4280 F   0  0  0  0  0  0  0  0  0  0  0  0
  -21.3880   -3.8770   26.0440 F   0  0  0  0  0  0  0  0  0  0  0  0
  -23.0110  -13.5480   21.3230 C   0  0  0  0  0  0  0  0  0  0  0  0
  -22.3700  -12.8300   22.2390 N   0  0  0  0  0  0  0  0  0  0  0  0
  -22.5300  -14.5910   20.8820 O   0  0  0  0  0  0  0  0  0  0  0  0
  -22.7730  -11.9860   22.6160 H   0  0  0  0  0  0  0  0  0  0  0  0
  -21.4620  -13.1300   22.5660 H   0  0  0  0  0  0  0  0  0  0  0  0
  -25.5680  -15.2300   20.3290 N   0  0  0  0  0  0  0  0  0  0  0  0
  -24.8230  -15.8840   20.5410 H   0  0  0  0  0  0  0  0  0  0  0  0
  -26.3860  -15.6750   19.9340 H   0  0  0  0  0  0  0  0  0  0  0  0
  -30.1220  -24.9070   19.5790 C   0  0  0  0  0  2  0  0  0  0  0  0
  -29.2300  -24.1190   20.4990 C   0  0  0  0  0  3  0  0  0  0  0  0
  -28.6420  -25.2160   19.5520 C   0  0  0  0  0  3  0  0  0  0  0  0
  -28.5640  -26.6160   19.9850 O   0  0  0  0  0  0  0  0  0  0  0  0
  -24.6700  -31.7700   23.0970 C   0  0  0  0  0  0  0  0  0  0  0  0
  -27.3750  -27.3470   19.9620 C   0  0  0  0  0  0  0  0  0  0  0  0
  -23.4860  -30.3710   21.4390 C   0  0  0  0  0  3  0  0  0  0  0  0
  -24.9620  -28.8670   19.9900 C   0  0  0  0  0  0  0  0  0  0  0  0
  -26.0140  -30.7530   21.2490 C   0  0  0  0  0  2  0  0  0  0  0  0
  -26.1170  -29.3880   20.5840 C   0  0  0  0  0  0  0  0  0  0  0  0
  -27.3230  -28.6380   20.5600 C   0  0  0  0  0  3  0  0  0  0  0  0
  -26.1930  -26.8560   19.3630 C   0  0  0  0  0  3  0  0  0  0  0  0
  -24.9990  -27.6050   19.3740 C   0  0  0  0  0  3  0  0  0  0  0  0
  -23.7070  -29.7140   20.0490 C   0  0  0  0  0  2  0  0  0  0  0  0
  -24.7420  -30.9810   21.9860 N   0  0  0  0  0  0  0  0  0  0  0  0
  -23.5830  -32.0190   23.6400 O   0  0  0  0  0  0  0  0  0  0  0  0
  -22.8490  -29.3290   22.3880 C   0  0  0  0  0  0  0  0  0  0  0  0
  -21.5250  -29.1340   22.2650 N   0  0  0  0  0  0  0  0  0  0  0  0
  -23.5430  -28.6990   23.1890 O   0  0  0  0  0  0  0  0  0  0  0  0
  -21.0250  -29.6960   21.5910 H   0  0  0  0  0  0  0  0  0  0  0  0
  -18.1640  -27.9110   22.7880 C   0  0  0  0  0  0  0  0  0  0  0  0
  -20.7240  -28.1730   23.0250 C   0  0  0  0  0  3  0  0  0  0  0  0
  -20.8230  -26.7580   22.4090 C   0  0  0  0  0  2  0  0  0  0  0  0
  -19.7060  -26.4570   21.4050 C   0  0  0  0  0  2  0  0  0  0  0  0
  -18.3340  -26.5800   22.0760 C   0  0  0  0  0  2  0  0  0  0  0  0
  -19.2860  -28.6660   23.2200 C   0  0  0  0  0  0  0  0  0  0  0  0
  -19.0720  -29.9120   23.8460 C   0  0  0  0  0  3  0  0  0  0  0  0
  -17.7680  -30.4040   24.0470 C   0  0  0  0  0  3  0  0  0  0  0  0
  -16.6600  -29.6450   23.6310 C   0  0  0  0  0  3  0  0  0  0  0  0
  -16.8590  -28.4000   23.0080 C   0  0  0  0  0  3  0  0  0  0  0  0
  -25.9430  -32.4150   23.7250 C   0  0  0  0  0  3  0  0  0  0  0  0
  -25.6020  -33.7950   24.1000 N   0  0  0  0  0  0  0  0  0  0  0  0
  -25.8870  -34.8770   23.3620 C   0  0  0  0  0  0  0  0  0  0  0  0
  -26.5340  -34.8200   22.3130 O   0  0  0  0  0  0  0  0  0  0  0  0
  -25.0210  -33.9120   24.9170 H   0  0  0  0  0  0  0  0  0  0  0  0
  -24.0980  -36.6270   23.1010 C   0  0  0  0  0  1  0  0  0  0  0  0
  -25.3720  -36.2380   23.8690 C   0  0  0  0  0  3  0  0  0  0  0  0
  -27.4990  -37.1670   24.6700 C   0  0  0  0  0  1  0  0  0  0  0  0
  -26.3700  -37.3240   23.7570 N   0  0  0  0  0  0  0  0  0  0  0  0
  -25.9410  -38.2280   23.9350 H   0  0  0  0  0  0  0  0  0  0  0  0
  -26.4940  -31.6210   24.9730 C   0  0  1  0  0  0  0  0  0  0  0  0
  -25.4170  -31.3210   26.0430 C   0  0  0  0  0  1  0  0  0  0  0  0
  -27.1110  -30.2720   24.5340 C   0  0  0  0  0  1  0  0  0  0  0  0
  -27.6290  -32.4260   25.6480 C   0  0  0  0  0  1  0  0  0  0  0  0
  1  6  1  0
  2  4  1  0
  3  1  2  0
  4  6  2  0
  5  2  2  0
  5  3  1  0
  6  8  1  0
  7  5  1  0
  9 21  1  0
 10 15  1  0
 11 12  1  0
 11 10  1  0
 13 12  1  0
 13 25  1  0
 13 14  1  0
 15  9  1  0
 15 14  1  0
 16  9  2  0
 18 17  1  0
 19 21  1  0
 19 20  1  0
 20  3  1  0
 20 17  1  0
 21 18  1  0
 22 23  2  0
 23 42  1  0
 24 23  1  0
 24 27  1  0
 25 26  1  0
 25 22  1  0
 26 24  2  0
 27 28  1  0
 28 29  2  0
 30 33  1  0
 30 29  1  0
 31 30  2  0
 32 31  1  0
 32 27  2  0
 33 34  1  0
 34 35  1  0
 35 36  2  0
 37 36  1  0
 37 41  1  0
 38 37  2  0
 39 34  2  0
 39 38  1  0
 40 39  1  0
 42 43  1  0
 43 46  1  0
 43 45  1  0
 44 42  2  0
 47 22  1  0
 47 48  1  0
 49 47  1  0
 50 51  1  0
 51  4  1  0
 52 50  1  0
 52 53  1  0
 52 51  1  0
 54 65  2  0
 55 53  1  0
 55 60  1  0
 56 64  1  0
 56 66  1  0
 57 63  1  0
 57 59  1  0
 58 64  1  0
 59 58  1  0
 60 59  2  0
 61 62  1  0
 61 55  2  0
 62 57  2  0
 63 56  1  0
 64 54  1  0
 66 68  2  0
 67 66  1  0
 69 67  1  0
 70 79  2  0
 70 75  1  0
 71 67  1  0
 71 75  1  0
 72 71  1  0
 73 74  1  0
 73 72  1  0
 74 70  1  0
 75 76  2  0
 76 77  1  0
 78 77  2  0
 79 78  1  0
 80 54  1  0
 80 81  1  0
 80 90  1  0
 81 84  1  0
 82 86  1  0
 82 81  1  0
 83 82  2  0
 86 85  1  0
 88 86  1  0
 88 89  1  0
 88 87  1  0
 90 93  1  1
 90 91  1  0
 92 90  1  0
M  ISO  4   9 100  21 100  52 101  53 101
M  END
>  <TORSDO>  (19) 
F 17

>  <SCORE>  (19) 
-13.798

>  <name>  (19) 
18

>  <ligand_id>  (19) 
18

>  <original_smiles>  (19) 
[H]c1c([H])c([H])c2c(c1[H])C([H])([H])C([H])([H])C([H])([H])C2([H])N([H])C(=O)C1([H])N(C(=O)C([H])(N([H])C(=O)C([H])(N([H])C([H])([H])[H])C([H])([H])[H])C(C([H])([H])[H])(C([H])([H])[H])C([H])([H])[H])C([H])([H])c2c([H])c(OC3([H])C([H])([H])C3([H])c3c([H])c(C([H])([H])[H])c(C4([H])C([H])([H])N(C(=O)N5C([H])([H])C([H])([H])C([H])([H])C([H])(n6nc(-c7c([H])c([H])c(Oc8c([H])c([H])c(F)c([H])c8F)c([H])c7[H])c(C(=O)N([H])[H])c6N([H])[H])C5([H])[H])C([H])([H])C4([H])[H])c([H])c3C([H])([H])[H])c([H])c([H])c2C1([H])[H]

>  <smiles>  (19) 
[H]c1c([H])c([H])c2c(c1[H])C([H])([H])C([H])([H])C([H])([H])C2([H])N([H])C(=O)C1([H])N(C(=O)C([H])(N([H])C(=O)C([H])(N([H])C([H])([H])[H])C([H])([H])[H])C(C([H])([H])[H])(C([H])([H])[H])C([H])([H])[H])C([H])([H])c2c([H])c(OC3([H])C([H])([H])C3([H])c3c([H])c(C([H])([H])[H])c(C4([H])C([H])([H])N(C(=O)N5C([H])([H])C([H])([H])C([H])([H])C([H])(n6nc(-c7c([H])c([H])c(Oc8c([H])c([H])c(F)c([H])c8F)c([H])c7[H])c(C(=O)N([H])[H])c6N([H])[H])C5([H])[H])C([H])([H])C4([H])[H])c([H])c3C([H])([H])[H])c([H])c([H])c2C1([H])[H]

$$$$
19:0:0
     RDKit          3D

 91100  0  0  1  0  0  0  0  0999 V2000
  -30.5340  -15.4560   20.3250 C   0  0  0  0  0  0  0  0  0  0  0  0
  -30.4750  -12.9810   19.4850 C   0  0  0  0  0  2  0  0  0  0  0  0
  -29.6060  -12.6420   18.2520 C   0  0  0  0  0  2  0  0  0  0  0  0
  -28.1620  -12.3480   18.6870 C   0  0  0  0  0  2  0  0  0  0  0  0
  -27.6530  -13.3670   19.7380 C   0  0  0  0  0  3  0  0  0  0  0  0
  -28.6720  -13.6580   20.8630 C   0  0  0  0  0  2  0  0  0  0  0  0
  -29.8750  -14.1880   20.1890 N   0  0  0  0  0  0  0  0  0  0  0  0
  -31.7630  -15.2580   20.3020 O   0  0  0  0  0  0  0  0  0  0  0  0
  -30.6830  -20.1510   19.7750 C   0  0  0  0  0  3  0  0  0  0  0  0
  -29.3520  -19.8640   20.1150 C   0  0  0  0  0  0  0  0  0  0  0  0
  -31.1400  -21.5060   19.6020 C   0  0  0  0  0  0  0  0  0  0  0  0
  -28.4930  -21.1550   20.1860 C   0  0  0  0  0  0  0  0  0  0  0  0
  -30.2830  -22.6770   19.6160 C   0  0  0  0  0  0  0  0  0  0  0  0
  -28.8920  -22.6390   19.9400 C   0  0  0  0  0  0  0  0  0  0  0  0
  -31.6180  -18.9240   19.6200 C   0  0  0  0  0  3  0  0  0  0  0  0
  -29.0920  -18.1510   20.4070 C   0  0  0  0  0  3  0  0  0  0  0  0
  -30.9550  -17.6170   19.0490 C   0  0  0  0  0  3  0  0  0  0  0  0
  -32.6480  -21.7010   19.4170 C   0  0  0  0  0  1  0  0  0  0  0  0
  -27.0350  -20.9340   20.5330 C   0  0  0  0  0  1  0  0  0  0  0  0
  -30.8720  -24.0340   19.2350 C   0  0  0  0  0  1  0  0  0  0  0  0
  -30.0610  -16.8650   19.9750 N   0  0  0  0  0  0  0  0  0  0  0  0
  -25.2770  -13.9190   20.4560 C   0  0  0  0  0  0  0  0  0  0  0  0
  -24.2060  -13.1430   20.7980 C   0  0  0  0  0  0  0  0  0  0  0  0
  -24.6730  -11.7920   20.7790 C   0  0  0  0  0  0  0  0  0  0  0  0
  -26.3240  -13.0440   20.2340 N   0  0  0  0  0  0  0  0  0  0  0  0
  -25.9730  -11.7570   20.4990 N   0  0  0  0  0  0  0  0  0  0  0  0
  -23.9390  -10.5300   20.9490 C   0  0  0  0  0  0  0  0  0  0  0  0
  -24.3510   -9.5540   21.8820 C   0  0  0  0  0  3  0  0  0  0  0  0
  -23.6130   -8.3620   22.0460 C   0  0  0  0  0  3  0  0  0  0  0  0
  -22.4490   -8.1360   21.2730 C   0  0  0  0  0  0  0  0  0  0  0  0
  -22.0580   -9.1000   20.3270 C   0  0  0  0  0  3  0  0  0  0  0  0
  -22.7950  -10.2830   20.1630 C   0  0  0  0  0  3  0  0  0  0  0  0
  -21.6860   -6.9960   21.3420 O   0  0  0  0  0  0  0  0  0  0  0  0
  -21.6240   -6.2410   22.4860 C   0  0  0  0  0  0  0  0  0  0  0  0
  -21.1780   -6.7810   23.7120 C   0  0  0  0  0  3  0  0  0  0  0  0
  -21.0650   -5.9530   24.8460 C   0  0  0  0  0  3  0  0  0  0  0  0
  -21.3860   -4.5850   24.7560 C   0  0  0  0  0  0  0  0  0  0  0  0
  -21.8240   -4.0440   23.5340 C   0  0  0  0  0  3  0  0  0  0  0  0
  -21.9390   -4.8700   22.4020 C   0  0  0  0  0  0  0  0  0  0  0  0
  -22.3430   -4.3390   21.2230 F   0  0  0  0  0  0  0  0  0  0  0  0
  -21.2690   -3.7870   25.8440 F   0  0  0  0  0  0  0  0  0  0  0  0
  -22.8020  -13.6230   21.0240 C   0  0  0  0  0  0  0  0  0  0  0  0
  -22.0520  -12.9410   21.8810 N   0  0  0  0  0  0  0  0  0  0  0  0
  -22.3810  -14.6410   20.4750 O   0  0  0  0  0  0  0  0  0  0  0  0
  -22.4090  -12.1210   22.3500 H   0  0  0  0  0  0  0  0  0  0  0  0
  -21.1080  -13.2450   22.0740 H   0  0  0  0  0  0  0  0  0  0  0  0
  -25.4410  -15.2910   20.2820 N   0  0  0  0  0  0  0  0  0  0  0  0
  -24.6720  -15.9430   20.3910 H   0  0  0  0  0  0  0  0  0  0  0  0
  -26.2940  -15.7320   19.9650 H   0  0  0  0  0  0  0  0  0  0  0  0
  -27.9300  -24.1460   19.8950 C   0  0  0  0  0  2  0  0  0  0  0  0
  -28.2480  -25.7940   19.9990 O   0  0  0  0  0  0  0  0  0  0  0  0
  -24.7080  -31.7910   23.1160 C   0  0  0  0  0  0  0  0  0  0  0  0
  -27.2610  -26.9380   19.9780 C   0  0  0  0  0  0  0  0  0  0  0  0
  -23.5240  -30.4460   21.4320 C   0  0  0  0  0  3  0  0  0  0  0  0
  -24.9770  -28.8690   19.9760 C   0  0  0  0  0  0  0  0  0  0  0  0
  -26.0960  -30.6370   21.3130 C   0  0  0  0  0  2  0  0  0  0  0  0
  -26.1660  -29.2390   20.6160 C   0  0  0  0  0  0  0  0  0  0  0  0
  -27.3010  -28.2970   20.5920 C   0  0  0  0  0  3  0  0  0  0  0  0
  -26.0400  -26.7400   19.2940 C   0  0  0  0  0  3  0  0  0  0  0  0
  -24.9430  -27.6430   19.2930 C   0  0  0  0  0  3  0  0  0  0  0  0
  -23.7640  -29.7990   20.0400 C   0  0  0  0  0  2  0  0  0  0  0  0
  -24.7990  -30.9860   22.0070 N   0  0  0  0  0  0  0  0  0  0  0  0
  -23.6150  -32.0710   23.6370 O   0  0  0  0  0  0  0  0  0  0  0  0
  -22.8160  -29.4280   22.3660 C   0  0  0  0  0  0  0  0  0  0  0  0
  -21.4830  -29.2850   22.2410 N   0  0  0  0  0  0  0  0  0  0  0  0
  -23.4750  -28.7680   23.1720 O   0  0  0  0  0  0  0  0  0  0  0  0
  -21.0030  -29.8660   21.5670 H   0  0  0  0  0  0  0  0  0  0  0  0
  -18.0820  -28.1170   22.7480 C   0  0  0  0  0  0  0  0  0  0  0  0
  -20.6520  -28.3290   22.9820 C   0  0  0  0  0  3  0  0  0  0  0  0
  -20.7180  -26.9220   22.3450 C   0  0  0  0  0  2  0  0  0  0  0  0
  -19.5970  -26.6620   21.3340 C   0  0  0  0  0  2  0  0  0  0  0  0
  -18.2270  -26.7980   22.0060 C   0  0  0  0  0  2  0  0  0  0  0  0
  -19.2200  -28.8420   23.1920 C   0  0  0  0  0  0  0  0  0  0  0  0
  -19.0290  -30.0760   23.8520 C   0  0  0  0  0  3  0  0  0  0  0  0
  -17.7330  -30.5850   24.0660 C   0  0  0  0  0  3  0  0  0  0  0  0
  -16.6110  -29.8570   23.6360 C   0  0  0  0  0  3  0  0  0  0  0  0
  -16.7860  -28.6240   22.9810 C   0  0  0  0  0  3  0  0  0  0  0  0
  -25.9740  -32.4160   23.7770 C   0  0  0  0  0  3  0  0  0  0  0  0
  -25.6450  -33.7980   24.1730 N   0  0  0  0  0  0  0  0  0  0  0  0
  -25.9400  -34.8930   23.4610 C   0  0  0  0  0  0  0  0  0  0  0  0
  -26.5780  -34.8480   22.4060 O   0  0  0  0  0  0  0  0  0  0  0  0
  -25.0720  -33.9050   24.9960 H   0  0  0  0  0  0  0  0  0  0  0  0
  -24.1650  -36.6710   23.2740 C   0  0  0  0  0  1  0  0  0  0  0  0
  -25.4540  -36.2560   24.0010 C   0  0  0  0  0  3  0  0  0  0  0  0
  -27.6120  -37.1560   24.7560 C   0  0  0  0  0  1  0  0  0  0  0  0
  -26.4600  -37.3340   23.8760 N   0  0  0  0  0  0  0  0  0  0  0  0
  -26.0440  -38.2400   24.0770 H   0  0  0  0  0  0  0  0  0  0  0  0
  -26.4820  -31.6010   25.0320 C   0  0  1  0  0  0  0  0  0  0  0  0
  -25.3800  -31.3260   26.0840 C   0  0  0  0  0  1  0  0  0  0  0  0
  -27.0680  -30.2370   24.6040 C   0  0  0  0  0  1  0  0  0  0  0  0
  -27.6270  -32.3720   25.7280 C   0  0  0  0  0  1  0  0  0  0  0  0
  2  7  1  0
  3  4  1  0
  3  2  1  0
  5  4  1  0
  5 25  1  0
  5  6  1  0
  7  1  1  0
  7  6  1  0
  8  1  2  0
  9 15  1  0
  9 10  1  0
 10 12  1  0
 10 16  2  0
 11 13  2  0
 11  9  1  0
 12 19  1  0
 13 14  1  0
 14 12  2  0
 17 15  2  0
 17 21  1  0
 18 11  1  0
 20 13  1  0
 21  1  1  0
 21 16  1  0
 22 23  2  0
 23 42  1  0
 24 23  1  0
 24 27  1  0
 25 22  1  0
 25 26  1  0
 26 24  2  0
 27 28  1  0
 28 29  2  0
 30 33  1  0
 30 29  1  0
 31 30  2  0
 32 31  1  0
 32 27  2  0
 33 34  1  0
 34 35  1  0
 35 36  2  0
 37 36  1  0
 37 41  1  0
 38 37  2  0
 39 34  2  0
 39 38  1  0
 40 39  1  0
 42 43  1  0
 43 46  1  0
 43 45  1  0
 44 42  2  0
 47 48  1  0
 47 22  1  0
 49 47  1  0
 50 14  1  0
 50 51  1  0
 52 63  2  0
 53 51  1  0
 53 58  1  0
 54 62  1  0
 54 64  1  0
 55 61  1  0
 55 57  1  0
 56 62  1  0
 57 56  1  0
 58 57  2  0
 59 53  2  0
 60 59  1  0
 60 55  2  0
 61 54  1  0
 62 52  1  0
 64 66  2  0
 65 64  1  0
 67 65  1  0
 68 77  2  0
 68 73  1  0
 69 65  1  0
 69 73  1  0
 70 69  1  0
 71 72  1  0
 71 70  1  0
 72 68  1  0
 73 74  2  0
 74 75  1  0
 76 75  2  0
 77 76  1  0
 78 52  1  0
 78 79  1  0
 78 88  1  0
 79 82  1  0
 80 84  1  0
 80 79  1  0
 81 80  2  0
 84 83  1  0
 86 84  1  0
 86 87  1  0
 86 85  1  0
 88 91  1  1
 88 89  1  0
 90 88  1  0
M  ISO  4   1 100  21 100  50 101  51 101
M  END
>  <TORSDO>  (20) 
F 16

>  <SCORE>  (20) 
-15.789

>  <name>  (20) 
19

>  <ligand_id>  (20) 
19

>  <original_smiles>  (20) 
[H]c1c([H])c([H])c2c(c1[H])C([H])([H])C([H])([H])C([H])([H])C2([H])N([H])C(=O)C1([H])N(C(=O)C([H])(N([H])C(=O)C([H])(N([H])C([H])([H])[H])C([H])([H])[H])C(C([H])([H])[H])(C([H])([H])[H])C([H])([H])[H])C([H])([H])c2c([H])c(OC([H])([H])c3c(C([H])([H])[H])c(C([H])([H])[H])c4c(c3C([H])([H])[H])C([H])([H])N(C(=O)N3C([H])([H])C([H])([H])C([H])([H])C([H])(n5nc(-c6c([H])c([H])c(Oc7c([H])c([H])c(F)c([H])c7F)c([H])c6[H])c(C(=O)N([H])[H])c5N([H])[H])C3([H])[H])C([H])([H])C4([H])[H])c([H])c([H])c2C1([H])[H]

>  <smiles>  (20) 
[H]c1c([H])c([H])c2c(c1[H])C([H])([H])C([H])([H])C([H])([H])C2([H])N([H])C(=O)C1([H])N(C(=O)C([H])(N([H])C(=O)C([H])(N([H])C([H])([H])[H])C([H])([H])[H])C(C([H])([H])[H])(C([H])([H])[H])C([H])([H])[H])C([H])([H])c2c([H])c(OC([H])([H])c3c(C([H])([H])[H])c(C([H])([H])[H])c4c(c3C([H])([H])[H])C([H])([H])N(C(=O)N3C([H])([H])C([H])([H])C([H])([H])C([H])(n5nc(-c6c([H])c([H])c(Oc7c([H])c([H])c(F)c([H])c7F)c([H])c6[H])c(C(=O)N([H])[H])c5N([H])[H])C3([H])[H])C([H])([H])C4([H])[H])c([H])c([H])c2C1([H])[H]

$$$$
20:0:0
     RDKit          3D

 94104  0  0  1  0  0  0  0  0999 V2000
  -29.2280  -21.3910   20.0410 C   0  0  0  0  0  3  0  0  0  0  0  0
  -28.7840  -20.4390   17.8490 C   0  0  0  0  0  3  0  0  0  0  0  0
  -29.0900  -20.2100   19.2150 C   0  0  0  0  0  0  0  0  0  0  0  0
  -29.1320  -22.6790   19.4000 C   0  0  0  0  0  0  0  0  0  0  0  0
  -28.9460  -22.7030   18.0310 C   0  0  0  0  0  0  0  0  0  0  0  0
  -29.8610  -24.6900   18.4430 C   0  0  0  0  0  2  0  0  0  0  0  0
  -29.3900  -24.1560   19.8270 C   0  0  2  0  0  0  0  0  0  0  0  0
  -30.4680  -24.2890   20.9090 C   0  0  0  0  0  1  0  0  0  0  0  0
  -28.7260  -21.6440   17.2480 N   0  0  0  0  0  0  0  0  0  0  0  0
  -29.1610  -23.9200   17.4590 O   0  0  0  0  0  0  0  0  0  0  0  0
  -30.7300  -14.6290   20.2440 C   0  0  0  0  0  0  0  0  0  0  0  0
  -30.4420  -12.4270   19.1480 C   0  0  0  0  0  2  0  0  0  0  0  0
  -29.4730  -12.5850   17.9580 C   0  0  0  0  0  2  0  0  0  0  0  0
  -28.0060  -12.4520   18.4130 C   0  0  0  0  0  2  0  0  0  0  0  0
  -27.6880  -13.2850   19.6860 C   0  0  0  0  0  3  0  0  0  0  0  0
  -28.7750  -13.1150   20.7690 C   0  0  0  0  0  2  0  0  0  0  0  0
  -30.0640  -13.4400   20.1510 N   0  0  0  0  0  0  0  0  0  0  0  0
  -31.9250  -14.7120   19.9370 O   0  0  0  0  0  0  0  0  0  0  0  0
  -30.1630  -17.8760   18.7090 C   0  0  0  0  0  2  0  0  0  0  0  0
  -29.5390  -18.1950   21.0370 C   0  0  0  0  0  2  0  0  0  0  0  0
  -29.8600  -16.3620   18.7630 C   0  0  0  0  0  2  0  0  0  0  0  0
  -29.4320  -16.6180   21.2170 C   0  0  0  0  0  2  0  0  0  0  0  0
  -29.1940  -18.6840   19.6050 C   0  0  0  0  0  3  0  0  0  0  0  0
  -29.9510  -15.7560   20.1080 N   0  0  0  0  0  0  0  0  0  0  0  0
  -25.3180  -13.8750   20.4750 C   0  0  0  0  0  0  0  0  0  0  0  0
  -24.2610  -13.0990   20.8600 C   0  0  0  0  0  0  0  0  0  0  0  0
  -24.7180  -11.7460   20.7960 C   0  0  0  0  0  0  0  0  0  0  0  0
  -26.3550  -12.9980   20.2030 N   0  0  0  0  0  0  0  0  0  0  0  0
  -26.0020  -11.7120   20.4560 N   0  0  0  0  0  0  0  0  0  0  0  0
  -23.9940  -10.4840   20.9810 C   0  0  0  0  0  0  0  0  0  0  0  0
  -24.4220   -9.5190   21.9190 C   0  0  0  0  0  3  0  0  0  0  0  0
  -23.6990   -8.3200   22.0950 C   0  0  0  0  0  3  0  0  0  0  0  0
  -22.5330   -8.0760   21.3320 C   0  0  0  0  0  0  0  0  0  0  0  0
  -22.1220   -9.0290   20.3840 C   0  0  0  0  0  3  0  0  0  0  0  0
  -22.8470  -10.2200   20.2050 C   0  0  0  0  0  3  0  0  0  0  0  0
  -21.7830   -6.9280   21.4170 O   0  0  0  0  0  0  0  0  0  0  0  0
  -21.6890   -6.2140   22.5840 C   0  0  0  0  0  0  0  0  0  0  0  0
  -21.1730   -6.7840   23.7690 C   0  0  0  0  0  3  0  0  0  0  0  0
  -21.0310   -5.9930   24.9260 C   0  0  0  0  0  3  0  0  0  0  0  0
  -21.3940   -4.6320   24.8980 C   0  0  0  0  0  0  0  0  0  0  0  0
  -21.9030   -4.0630   23.7190 C   0  0  0  0  0  3  0  0  0  0  0  0
  -22.0470   -4.8520   22.5640 C   0  0  0  0  0  0  0  0  0  0  0  0
  -22.5170   -4.2930   21.4230 F   0  0  0  0  0  0  0  0  0  0  0  0
  -21.2490   -3.8690   26.0070 F   0  0  0  0  0  0  0  0  0  0  0  0
  -22.8730  -13.5770   21.1690 C   0  0  0  0  0  0  0  0  0  0  0  0
  -22.1590  -12.8690   22.0390 N   0  0  0  0  0  0  0  0  0  0  0  0
  -22.4280  -14.6120   20.6770 O   0  0  0  0  0  0  0  0  0  0  0  0
  -22.5280  -12.0290   22.4620 H   0  0  0  0  0  0  0  0  0  0  0  0
  -21.2290  -13.1740   22.2860 H   0  0  0  0  0  0  0  0  0  0  0  0
  -25.4750  -15.2490   20.3120 N   0  0  0  0  0  0  0  0  0  0  0  0
  -24.7000  -15.8910   20.4350 H   0  0  0  0  0  0  0  0  0  0  0  0
  -26.3110  -15.6980   19.9610 H   0  0  0  0  0  0  0  0  0  0  0  0
  -28.1330  -25.0360   20.2170 C   0  0  0  0  0  2  0  0  0  0  0  0
  -28.3300  -26.5070   20.1950 O   0  0  0  0  0  0  0  0  0  0  0  0
  -24.6190  -31.9120   23.2280 C   0  0  0  0  0  0  0  0  0  0  0  0
  -27.2050  -27.3410   20.1690 C   0  0  0  0  0  0  0  0  0  0  0  0
  -23.4060  -30.4970   21.6120 C   0  0  0  0  0  3  0  0  0  0  0  0
  -24.8460  -28.9540   20.1770 C   0  0  0  0  0  0  0  0  0  0  0  0
  -25.9450  -30.8230   21.4050 C   0  0  0  0  0  2  0  0  0  0  0  0
  -26.0210  -29.4430   20.7640 C   0  0  0  0  0  0  0  0  0  0  0  0
  -27.2050  -28.6480   20.7510 C   0  0  0  0  0  3  0  0  0  0  0  0
  -26.0050  -26.9140   19.5530 C   0  0  0  0  0  3  0  0  0  0  0  0
  -24.8410  -27.6980   19.5600 C   0  0  0  0  0  3  0  0  0  0  0  0
  -23.6080  -29.8230   20.2330 C   0  0  0  0  0  2  0  0  0  0  0  0
  -24.6760  -31.0970   22.1360 N   0  0  0  0  0  0  0  0  0  0  0  0
  -23.5370  -32.1880   23.7680 O   0  0  0  0  0  0  0  0  0  0  0  0
  -22.7640  -29.4770   22.5820 C   0  0  0  0  0  0  0  0  0  0  0  0
  -21.4410  -29.2770   22.4570 N   0  0  0  0  0  0  0  0  0  0  0  0
  -23.4530  -28.8700   23.4050 O   0  0  0  0  0  0  0  0  0  0  0  0
  -20.9460  -29.8180   21.7630 H   0  0  0  0  0  0  0  0  0  0  0  0
  -18.0740  -28.0590   22.9810 C   0  0  0  0  0  0  0  0  0  0  0  0
  -20.6320  -28.3410   23.2390 C   0  0  0  0  0  3  0  0  0  0  0  0
  -20.7440  -26.9060   22.6760 C   0  0  0  0  0  2  0  0  0  0  0  0
  -19.6390  -26.5630   21.6720 C   0  0  0  0  0  2  0  0  0  0  0  0
  -18.2590  -26.7030   22.3200 C   0  0  0  0  0  2  0  0  0  0  0  0
  -19.1890  -28.8350   23.3990 C   0  0  0  0  0  0  0  0  0  0  0  0
  -18.9630  -30.1020   23.9790 C   0  0  0  0  0  3  0  0  0  0  0  0
  -17.6550  -30.5940   24.1450 C   0  0  0  0  0  3  0  0  0  0  0  0
  -16.5550  -29.8160   23.7430 C   0  0  0  0  0  3  0  0  0  0  0  0
  -16.7650  -28.5500   23.1700 C   0  0  0  0  0  3  0  0  0  0  0  0
  -25.9020  -32.5570   23.8340 C   0  0  0  0  0  3  0  0  0  0  0  0
  -25.5820  -33.9530   24.1670 N   0  0  0  0  0  0  0  0  0  0  0  0
  -25.9070  -35.0070   23.4070 C   0  0  0  0  0  0  0  0  0  0  0  0
  -26.5770  -34.9080   22.3760 O   0  0  0  0  0  0  0  0  0  0  0  0
  -24.9850  -34.1070   24.9660 H   0  0  0  0  0  0  0  0  0  0  0  0
  -24.1820  -36.8010   23.0390 C   0  0  0  0  0  1  0  0  0  0  0  0
  -25.4100  -36.3900   23.8670 C   0  0  0  0  0  3  0  0  0  0  0  0
  -27.5270  -37.2720   24.7430 C   0  0  0  0  0  1  0  0  0  0  0  0
  -26.4430  -37.4450   23.7800 N   0  0  0  0  0  0  0  0  0  0  0  0
  -26.0330  -38.3630   23.9250 H   0  0  0  0  0  0  0  0  0  0  0  0
  -26.4420  -31.7900   25.1040 C   0  0  1  0  0  0  0  0  0  0  0  0
  -25.3620  -31.5380   26.1810 C   0  0  0  0  0  1  0  0  0  0  0  0
  -27.0410  -30.4200   24.7070 C   0  0  0  0  0  1  0  0  0  0  0  0
  -27.5900  -32.5980   25.7540 C   0  0  0  0  0  1  0  0  0  0  0  0
  2  3  2  0
  3  1  1  0
  4  7  1  0
  4  1  2  0
  5  4  1  0
  6  7  1  0
  7 53  1  0
  7  8  1  1
  9  2  1  0
  9  5  2  0
 10  5  1  0
 10  6  1  0
 12 17  1  0
 13 14  1  0
 13 12  1  0
 15 14  1  0
 15 28  1  0
 15 16  1  0
 17 11  1  0
 17 16  1  0
 18 11  2  0
 19 21  1  0
 19 23  1  0
 20 22  1  0
 21 24  1  0
 23  3  1  0
 23 20  1  0
 24 11  1  0
 24 22  1  0
 25 26  2  0
 26 45  1  0
 27 26  1  0
 27 30  1  0
 28 29  1  0
 28 25  1  0
 29 27  2  0
 30 31  1  0
 31 32  2  0
 33 36  1  0
 33 32  1  0
 34 33  2  0
 35 34  1  0
 35 30  2  0
 36 37  1  0
 37 38  1  0
 38 39  2  0
 40 39  1  0
 40 44  1  0
 41 40  2  0
 42 37  2  0
 42 41  1  0
 43 42  1  0
 45 46  1  0
 46 49  1  0
 46 48  1  0
 47 45  2  0
 50 51  1  0
 50 25  1  0
 52 50  1  0
 54 53  1  0
 55 66  2  0
 56 54  1  0
 56 61  1  0
 57 65  1  0
 57 67  1  0
 58 64  1  0
 58 60  1  0
 59 65  1  0
 60 59  1  0
 61 60  2  0
 62 63  1  0
 62 56  2  0
 63 58  2  0
 64 57  1  0
 65 55  1  0
 67 69  2  0
 68 67  1  0
 70 68  1  0
 71 80  2  0
 71 76  1  0
 72 68  1  0
 72 76  1  0
 73 72  1  0
 74 75  1  0
 74 73  1  0
 75 71  1  0
 76 77  2  0
 77 78  1  0
 79 78  2  0
 80 79  1  0
 81 55  1  0
 81 82  1  0
 81 91  1  0
 82 85  1  0
 83 87  1  0
 83 82  1  0
 84 83  2  0
 87 86  1  0
 89 87  1  0
 89 90  1  0
 89 88  1  0
 91 94  1  1
 91 92  1  0
 93 91  1  0
M  ISO  4  11 100  24 100  53 101  54 101
M  END
>  <TORSDO>  (21) 
F 17

>  <SCORE>  (21) 
-15.159

>  <name>  (21) 
20

>  <ligand_id>  (21) 
20

>  <original_smiles>  (21) 
[H]c1nc2c(c([H])c1C1([H])C([H])([H])C([H])([H])N(C(=O)N3C([H])([H])C([H])([H])C([H])([H])C([H])(n4nc(-c5c([H])c([H])c(Oc6c([H])c([H])c(F)c([H])c6F)c([H])c5[H])c(C(=O)N([H])[H])c4N([H])[H])C3([H])[H])C([H])([H])C1([H])[H])C(C([H])([H])[H])(C([H])([H])Oc1c([H])c([H])c3c(c1[H])C([H])([H])N(C(=O)C([H])(N([H])C(=O)C([H])(N([H])C([H])([H])[H])C([H])([H])[H])C(C([H])([H])[H])(C([H])([H])[H])C([H])([H])[H])C([H])(C(=O)N([H])C1([H])c4c([H])c([H])c([H])c([H])c4C([H])([H])C([H])([H])C1([H])[H])C3([H])[H])C([H])([H])O2

>  <smiles>  (21) 
[H]c1nc2c(c([H])c1C1([H])C([H])([H])C([H])([H])N(C(=O)N3C([H])([H])C([H])([H])C([H])([H])C([H])(n4nc(-c5c([H])c([H])c(Oc6c([H])c([H])c(F)c([H])c6F)c([H])c5[H])c(C(=O)N([H])[H])c4N([H])[H])C3([H])[H])C([H])([H])C1([H])[H])C(C([H])([H])[H])(C([H])([H])Oc1c([H])c([H])c3c(c1[H])C([H])([H])N(C(=O)C([H])(N([H])C(=O)C([H])(N([H])C([H])([H])[H])C([H])([H])[H])C(C([H])([H])[H])(C([H])([H])[H])C([H])([H])[H])C([H])(C(=O)N([H])C1([H])c4c([H])c([H])c([H])c([H])c4C([H])([H])C([H])([H])C1([H])[H])C3([H])[H])C([H])([H])O2

$$$$
21:0:0
     RDKit          3D

 93103  0  0  1  0  0  0  0  0999 V2000
  -29.2950  -21.3580   20.6460 C   0  0  0  0  0  3  0  0  0  0  0  0
  -29.4570  -22.5550   18.1750 C   0  0  0  0  0  3  0  0  0  0  0  0
  -29.6030  -20.4430   19.5800 C   0  0  0  0  0  0  0  0  0  0  0  0
  -29.0150  -22.7800   20.4930 C   0  0  0  0  0  0  0  0  0  0  0  0
  -29.7140  -21.1360   18.3290 C   0  0  0  0  0  0  0  0  0  0  0  0
  -29.0520  -23.4490   19.2220 C   0  0  0  0  0  0  0  0  0  0  0  0
  -30.0360  -20.3390   17.0780 C   0  0  0  0  0  1  0  0  0  0  0  0
  -30.9690  -15.0590   19.8410 C   0  0  0  0  0  0  0  0  0  0  0  0
  -30.7250  -12.6980   18.9720 C   0  0  0  0  0  2  0  0  0  0  0  0
  -29.7340  -12.6420   17.7860 C   0  0  0  0  0  2  0  0  0  0  0  0
  -28.2880  -12.4770   18.2910 C   0  0  0  0  0  2  0  0  0  0  0  0
  -27.9580  -13.4390   19.4630 C   0  0  0  0  0  3  0  0  0  0  0  0
  -29.0690  -13.4370   20.5350 C   0  0  0  0  0  2  0  0  0  0  0  0
  -30.3140  -13.8270   19.8560 N   0  0  0  0  0  0  0  0  0  0  0  0
  -32.1340  -15.0630   19.4260 O   0  0  0  0  0  0  0  0  0  0  0  0
  -29.1250  -18.2100   21.0740 C   0  0  0  0  0  2  0  0  0  0  0  0
  -29.2580  -16.6530   20.9570 C   0  0  0  0  0  2  0  0  0  0  0  0
  -30.6720  -17.6880   19.3890 C   0  0  0  0  0  2  0  0  0  0  0  0
  -29.5460  -18.8010   19.7260 C   0  0  0  0  0  3  0  0  0  0  0  0
  -30.2850  -16.3040   19.9570 N   0  0  0  0  0  0  0  0  0  0  0  0
  -25.6400  -14.0830   20.3450 C   0  0  0  0  0  0  0  0  0  0  0  0
  -24.5740  -13.3360   20.7610 C   0  0  0  0  0  0  0  0  0  0  0  0
  -24.9860  -11.9710   20.6690 C   0  0  0  0  0  0  0  0  0  0  0  0
  -26.6390  -13.1770   20.0280 N   0  0  0  0  0  0  0  0  0  0  0  0
  -26.2560  -11.8980   20.2840 N   0  0  0  0  0  0  0  0  0  0  0  0
  -24.2260  -10.7300   20.8680 C   0  0  0  0  0  0  0  0  0  0  0  0
  -24.6330   -9.7550   21.8040 C   0  0  0  0  0  3  0  0  0  0  0  0
  -23.8730   -8.5810   21.9910 C   0  0  0  0  0  3  0  0  0  0  0  0
  -22.6900   -8.3740   21.2410 C   0  0  0  0  0  0  0  0  0  0  0  0
  -22.3020   -9.3380   20.2940 C   0  0  0  0  0  3  0  0  0  0  0  0
  -23.0630  -10.5030   20.1040 C   0  0  0  0  0  3  0  0  0  0  0  0
  -21.9030   -7.2520   21.3380 O   0  0  0  0  0  0  0  0  0  0  0  0
  -21.7650   -6.5690   22.5190 C   0  0  0  0  0  0  0  0  0  0  0  0
  -21.2410   -7.1810   23.6790 C   0  0  0  0  0  3  0  0  0  0  0  0
  -21.0530   -6.4230   24.8520 C   0  0  0  0  0  3  0  0  0  0  0  0
  -21.3780   -5.0540   24.8650 C   0  0  0  0  0  0  0  0  0  0  0  0
  -21.8940   -4.4410   23.7110 C   0  0  0  0  0  3  0  0  0  0  0  0
  -22.0840   -5.1960   22.5400 C   0  0  0  0  0  0  0  0  0  0  0  0
  -22.5620   -4.5960   21.4240 F   0  0  0  0  0  0  0  0  0  0  0  0
  -21.1900   -4.3240   25.9890 F   0  0  0  0  0  0  0  0  0  0  0  0
  -23.2140  -13.8550   21.1260 C   0  0  0  0  0  0  0  0  0  0  0  0
  -22.5200  -13.1740   22.0310 N   0  0  0  0  0  0  0  0  0  0  0  0
  -22.7780  -14.9000   20.6450 O   0  0  0  0  0  0  0  0  0  0  0  0
  -22.8860  -12.3280   22.4420 H   0  0  0  0  0  0  0  0  0  0  0  0
  -21.6090  -13.5030   22.3190 H   0  0  0  0  0  0  0  0  0  0  0  0
  -25.8320  -15.4510   20.1810 N   0  0  0  0  0  0  0  0  0  0  0  0
  -25.0830  -16.1180   20.3340 H   0  0  0  0  0  0  0  0  0  0  0  0
  -26.6540  -15.8670   19.7650 H   0  0  0  0  0  0  0  0  0  0  0  0
  -27.6600  -23.0490   22.7520 C   0  0  0  0  0  2  0  0  0  0  0  0
  -27.2320  -24.1660   21.8320 C   0  0  0  0  0  2  0  0  0  0  0  0
  -28.6180  -23.5760   21.7050 C   0  0  0  0  0  3  0  0  0  0  0  0
  -28.3310  -24.8790   18.8610 C   0  0  0  0  0  2  0  0  0  0  0  0
  -28.6140  -26.3290   19.3040 O   0  0  0  0  0  0  0  0  0  0  0  0
  -24.6310  -31.3710   22.8910 C   0  0  0  0  0  0  0  0  0  0  0  0
  -27.5040  -27.2500   19.3330 C   0  0  0  0  0  0  0  0  0  0  0  0
  -23.5120  -30.0760   21.1200 C   0  0  0  0  0  3  0  0  0  0  0  0
  -25.0500  -28.7960   19.5180 C   0  0  0  0  0  0  0  0  0  0  0  0
  -26.0360  -30.5550   20.9690 C   0  0  0  0  0  2  0  0  0  0  0  0
  -26.2040  -29.2570   20.1660 C   0  0  0  0  0  0  0  0  0  0  0  0
  -27.4290  -28.4990   20.0660 C   0  0  0  0  0  3  0  0  0  0  0  0
  -26.3160  -26.9080   18.6390 C   0  0  0  0  0  3  0  0  0  0  0  0
  -25.1170  -27.6350   18.7410 C   0  0  0  0  0  3  0  0  0  0  0  0
  -23.7600  -29.5790   19.6730 C   0  0  0  0  0  2  0  0  0  0  0  0
  -24.7450  -30.6840   21.7160 N   0  0  0  0  0  0  0  0  0  0  0  0
  -23.5350  -31.5130   23.4550 O   0  0  0  0  0  0  0  0  0  0  0  0
  -22.9300  -28.9160   21.9680 C   0  0  0  0  0  0  0  0  0  0  0  0
  -21.6140  -28.6680   21.8450 N   0  0  0  0  0  0  0  0  0  0  0  0
  -23.6630  -28.2480   22.7020 O   0  0  0  0  0  0  0  0  0  0  0  0
  -21.0760  -29.2660   21.2320 H   0  0  0  0  0  0  0  0  0  0  0  0
  -18.3250  -27.2160   22.2940 C   0  0  0  0  0  0  0  0  0  0  0  0
  -20.8740  -27.5980   22.5170 C   0  0  0  0  0  3  0  0  0  0  0  0
  -21.0350  -26.2530   21.7690 C   0  0  0  0  0  2  0  0  0  0  0  0
  -19.9160  -25.9890   20.7560 C   0  0  0  0  0  2  0  0  0  0  0  0
  -18.5530  -25.9720   21.4520 C   0  0  0  0  0  2  0  0  0  0  0  0
  -19.4140  -27.9870   22.7810 C   0  0  0  0  0  0  0  0  0  0  0  0
  -19.1460  -29.1520   23.5320 C   0  0  0  0  0  3  0  0  0  0  0  0
  -17.8210  -29.5480   23.7990 C   0  0  0  0  0  3  0  0  0  0  0  0
  -16.7480  -28.7730   23.3270 C   0  0  0  0  0  3  0  0  0  0  0  0
  -17.0010  -27.6080   22.5810 C   0  0  0  0  0  3  0  0  0  0  0  0
  -25.8690  -32.0310   23.5710 C   0  0  0  0  0  3  0  0  0  0  0  0
  -25.4810  -33.3890   23.9830 N   0  0  0  0  0  0  0  0  0  0  0  0
  -25.7630  -34.5050   23.2970 C   0  0  0  0  0  0  0  0  0  0  0  0
  -26.4430  -34.5010   22.2680 O   0  0  0  0  0  0  0  0  0  0  0  0
  -24.8760  -33.4610   24.7880 H   0  0  0  0  0  0  0  0  0  0  0  0
  -23.9330  -36.2170   23.0540 C   0  0  0  0  0  1  0  0  0  0  0  0
  -25.2000  -35.8350   23.8370 C   0  0  0  0  0  3  0  0  0  0  0  0
  -27.2820  -36.7950   24.7200 C   0  0  0  0  0  1  0  0  0  0  0  0
  -26.1710  -36.9510   23.7840 N   0  0  0  0  0  0  0  0  0  0  0  0
  -25.7120  -37.8350   23.9830 H   0  0  0  0  0  0  0  0  0  0  0  0
  -26.4030  -31.2120   24.8090 C   0  0  1  0  0  0  0  0  0  0  0  0
  -25.3100  -30.8690   25.8480 C   0  0  0  0  0  1  0  0  0  0  0  0
  -27.0500  -29.8830   24.3540 C   0  0  0  0  0  1  0  0  0  0  0  0
  -27.5120  -32.0160   25.5280 C   0  0  0  0  0  1  0  0  0  0  0  0
  2  5  2  0
  2  6  1  0
  3  1  2  0
  4  1  1  0
  4 51  1  0
  5  3  1  0
  6  4  2  0
  7  5  1  0
  8 14  1  0
  8 20  1  0
  9 14  1  0
 10 11  1  0
 10  9  1  0
 12 11  1  0
 12 24  1  0
 12 13  1  0
 14 13  1  0
 15  8  2  0
 17 16  1  0
 18 19  1  0
 18 20  1  0
 19  3  1  0
 19 16  1  0
 20 17  1  0
 21 22  2  0
 22 41  1  0
 23 22  1  0
 23 26  1  0
 24 25  1  0
 24 21  1  0
 25 23  2  0
 26 27  1  0
 27 28  2  0
 29 32  1  0
 29 28  1  0
 30 29  2  0
 31 30  1  0
 31 26  2  0
 32 33  1  0
 33 38  2  0
 33 34  1  0
 34 35  2  0
 35 36  1  0
 36 40  1  0
 37 36  2  0
 38 37  1  0
 39 38  1  0
 41 42  1  0
 42 45  1  0
 42 44  1  0
 43 41  2  0
 46 47  1  0
 46 21  1  0
 48 46  1  0
 50 49  1  0
 51 50  1  0
 51 49  1  0
 52  6  1  0
 52 53  1  0
 53 55  1  0
 54 65  2  0
 55 60  1  0
 56 64  1  0
 56 66  1  0
 57 63  1  0
 57 59  1  0
 58 64  1  0
 59 58  1  0
 60 59  2  0
 61 62  1  0
 61 55  2  0
 62 57  2  0
 63 56  1  0
 64 54  1  0
 66 68  2  0
 67 66  1  0
 69 67  1  0
 70 79  2  0
 70 75  1  0
 71 67  1  0
 71 75  1  0
 72 71  1  0
 73 74  1  0
 73 72  1  0
 74 70  1  0
 75 76  2  0
 76 77  1  0
 78 77  2  0
 79 78  1  0
 80 54  1  0
 80 81  1  0
 80 90  1  0
 81 84  1  0
 82 86  1  0
 82 81  1  0
 83 82  2  0
 86 85  1  0
 88 86  1  0
 88 89  1  0
 88 87  1  0
 90 93  1  1
 90 91  1  0
 92 90  1  0
M  ISO  4   8 100  20 100  52 101  53 101
M  END
>  <TORSDO>  (22) 
F 18

>  <SCORE>  (22) 
-11.717

>  <name>  (22) 
21

>  <ligand_id>  (22) 
21

>  <original_smiles>  (22) 
[H]c1c([H])c([H])c2c(c1[H])C([H])([H])C([H])([H])C([H])([H])C2([H])N([H])C(=O)C1([H])N(C(=O)C([H])(N([H])C(=O)C([H])(N([H])C([H])([H])[H])C([H])([H])[H])C(C([H])([H])[H])(C([H])([H])[H])C([H])([H])[H])C([H])([H])c2c([H])c(OC([H])([H])c3c([H])c(C([H])([H])[H])c(C4([H])C([H])([H])N(C(=O)N5C([H])([H])C([H])([H])C([H])([H])C([H])(n6nc(-c7c([H])c([H])c(Oc8c([H])c([H])c(F)c([H])c8F)c([H])c7[H])c(C(=O)N([H])[H])c6N([H])[H])C5([H])[H])C([H])([H])C4([H])[H])c([H])c3C3([H])C([H])([H])C3([H])[H])c([H])c([H])c2C1([H])[H]

>  <smiles>  (22) 
[H]c1c([H])c([H])c2c(c1[H])C([H])([H])C([H])([H])C([H])([H])C2([H])N([H])C(=O)C1([H])N(C(=O)C([H])(N([H])C(=O)C([H])(N([H])C([H])([H])[H])C([H])([H])[H])C(C([H])([H])[H])(C([H])([H])[H])C([H])([H])[H])C([H])([H])c2c([H])c(OC([H])([H])c3c([H])c(C([H])([H])[H])c(C4([H])C([H])([H])N(C(=O)N5C([H])([H])C([H])([H])C([H])([H])C([H])(n6nc(-c7c([H])c([H])c(Oc8c([H])c([H])c(F)c([H])c8F)c([H])c7[H])c(C(=O)N([H])[H])c6N([H])[H])C5([H])[H])C([H])([H])C4([H])[H])c([H])c3C3([H])C([H])([H])C3([H])[H])c([H])c([H])c2C1([H])[H]

$$$$
22:0:0
     RDKit          3D

 95105  0  0  1  0  0  0  0  0999 V2000
  -28.3360  -20.9020   19.8590 C   0  0  0  0  0  3  0  0  0  0  0  0
  -29.1190  -21.9660   20.4120 C   0  0  0  0  0  0  0  0  0  0  0  0
  -29.8250  -18.9880   20.6070 C   0  0  0  0  0  0  0  0  0  0  0  0
  -28.6320  -19.4820   19.9610 C   0  0  0  0  0  0  0  0  0  0  0  0
  -30.2110  -21.4630   21.1860 C   0  0  0  0  0  0  0  0  0  0  0  0
  -30.5550  -20.0510   21.2700 C   0  0  0  0  0  0  0  0  0  0  0  0
  -31.0770  -22.4930   21.9100 C   0  0  0  0  0  1  0  0  0  0  0  0
  -31.7890  -19.6520   22.0890 C   0  0  0  0  0  1  0  0  0  0  0  0
  -30.7400  -14.8300   20.6720 C   0  0  0  0  0  0  0  0  0  0  0  0
  -30.6500  -12.4750   19.8150 C   0  0  0  0  0  2  0  0  0  0  0  0
  -29.7750  -12.3860   18.5460 C   0  0  0  0  0  2  0  0  0  0  0  0
  -28.2960  -12.1840   18.9260 C   0  0  0  0  0  2  0  0  0  0  0  0
  -27.8230  -13.1370   20.0560 C   0  0  0  0  0  3  0  0  0  0  0  0
  -28.8330  -13.2150   21.2190 C   0  0  0  0  0  2  0  0  0  0  0  0
  -30.1210  -13.5940   20.6330 N   0  0  0  0  0  0  0  0  0  0  0  0
  -31.9740  -14.8500   20.6250 O   0  0  0  0  0  0  0  0  0  0  0  0
  -31.1030  -17.3240   19.1310 C   0  0  0  0  0  2  0  0  0  0  0  0
  -30.0190  -16.2790   18.9040 C   0  0  0  0  0  2  0  0  0  0  0  0
  -30.5250  -17.4900   20.5310 C   0  0  0  0  0  3  0  0  0  0  0  0
  -30.0160  -16.0110   20.3600 N   0  0  0  0  0  0  0  0  0  0  0  0
  -25.4120  -13.6620   20.7280 C   0  0  0  0  0  0  0  0  0  0  0  0
  -24.3500  -12.8630   21.0490 C   0  0  0  0  0  0  0  0  0  0  0  0
  -24.8410  -11.5220   21.0170 C   0  0  0  0  0  0  0  0  0  0  0  0
  -26.4790  -12.8090   20.5130 N   0  0  0  0  0  0  0  0  0  0  0  0
  -26.1430  -11.5150   20.7550 N   0  0  0  0  0  0  0  0  0  0  0  0
  -24.1320  -10.2430   21.1620 C   0  0  0  0  0  0  0  0  0  0  0  0
  -24.5230   -9.2860   22.1230 C   0  0  0  0  0  3  0  0  0  0  0  0
  -23.8120   -8.0730   22.2570 C   0  0  0  0  0  3  0  0  0  0  0  0
  -22.6960   -7.8100   21.4270 C   0  0  0  0  0  0  0  0  0  0  0  0
  -22.3260   -8.7570   20.4550 C   0  0  0  0  0  3  0  0  0  0  0  0
  -23.0380   -9.9610   20.3200 C   0  0  0  0  0  3  0  0  0  0  0  0
  -21.9610   -6.6500   21.4670 O   0  0  0  0  0  0  0  0  0  0  0  0
  -21.7910   -5.9460   22.6330 C   0  0  0  0  0  0  0  0  0  0  0  0
  -21.1740   -6.5190   23.7670 C   0  0  0  0  0  3  0  0  0  0  0  0
  -20.9580   -5.7380   24.9200 C   0  0  0  0  0  3  0  0  0  0  0  0
  -21.3490   -4.3860   24.9380 C   0  0  0  0  0  0  0  0  0  0  0  0
  -21.9580   -3.8130   23.8080 C   0  0  0  0  0  3  0  0  0  0  0  0
  -22.1760   -4.5900   22.6580 C   0  0  0  0  0  0  0  0  0  0  0  0
  -22.7440   -4.0270   21.5650 F   0  0  0  0  0  0  0  0  0  0  0  0
  -21.1330   -3.6340   26.0440 F   0  0  0  0  0  0  0  0  0  0  0  0
  -22.9360  -13.3100   21.2750 C   0  0  0  0  0  0  0  0  0  0  0  0
  -22.1930  -12.5950   22.1120 N   0  0  0  0  0  0  0  0  0  0  0  0
  -22.4970  -14.3310   20.7460 O   0  0  0  0  0  0  0  0  0  0  0  0
  -22.5600  -11.7670   22.5590 H   0  0  0  0  0  0  0  0  0  0  0  0
  -21.2440  -12.8790   22.3110 H   0  0  0  0  0  0  0  0  0  0  0  0
  -25.5540  -15.0370   20.5730 N   0  0  0  0  0  0  0  0  0  0  0  0
  -24.7710  -15.6730   20.6720 H   0  0  0  0  0  0  0  0  0  0  0  0
  -26.4110  -15.4970   20.2980 H   0  0  0  0  0  0  0  0  0  0  0  0
  -27.7930  -24.0430   19.2420 C   0  0  0  0  0  2  0  0  0  0  0  0
  -28.9570  -23.5480   20.0650 C   0  0  0  0  0  3  0  0  0  0  0  0
  -28.0030  -24.7680   20.5560 C   0  0  0  0  0  3  0  0  0  0  0  0
  -28.2860  -26.2630   20.3990 O   0  0  0  0  0  0  0  0  0  0  0  0
  -24.6810  -31.9070   23.3420 C   0  0  0  0  0  0  0  0  0  0  0  0
  -27.2190  -27.2050   20.3530 C   0  0  0  0  0  0  0  0  0  0  0  0
  -23.4800  -30.5400   21.6800 C   0  0  0  0  0  3  0  0  0  0  0  0
  -24.9170  -28.9450   20.2840 C   0  0  0  0  0  0  0  0  0  0  0  0
  -26.0370  -30.7720   21.5530 C   0  0  0  0  0  2  0  0  0  0  0  0
  -26.0930  -29.3860   20.9050 C   0  0  0  0  0  0  0  0  0  0  0  0
  -27.2490  -28.5320   20.9210 C   0  0  0  0  0  3  0  0  0  0  0  0
  -26.0180  -26.8450   19.7060 C   0  0  0  0  0  3  0  0  0  0  0  0
  -24.8880  -27.6860   19.6710 C   0  0  0  0  0  3  0  0  0  0  0  0
  -23.7070  -29.8580   20.3050 C   0  0  0  0  0  2  0  0  0  0  0  0
  -24.7520  -31.0920   22.2470 N   0  0  0  0  0  0  0  0  0  0  0  0
  -23.5920  -32.2140   23.8510 O   0  0  0  0  0  0  0  0  0  0  0  0
  -22.7680  -29.5420   22.6260 C   0  0  0  0  0  0  0  0  0  0  0  0
  -21.4410  -29.3950   22.4700 N   0  0  0  0  0  0  0  0  0  0  0  0
  -23.4120  -28.9030   23.4620 O   0  0  0  0  0  0  0  0  0  0  0  0
  -20.9800  -29.9580   21.7690 H   0  0  0  0  0  0  0  0  0  0  0  0
  -18.0220  -28.2960   22.9330 C   0  0  0  0  0  0  0  0  0  0  0  0
  -20.5850  -28.4750   23.2250 C   0  0  0  0  0  3  0  0  0  0  0  0
  -20.6470  -27.0460   22.6360 C   0  0  0  0  0  2  0  0  0  0  0  0
  -19.5440  -26.7680   21.6100 C   0  0  0  0  0  2  0  0  0  0  0  0
  -18.1620  -26.9500   22.2440 C   0  0  0  0  0  2  0  0  0  0  0  0
  -19.1600  -29.0200   23.3790 C   0  0  0  0  0  0  0  0  0  0  0  0
  -18.9740  -30.2820   23.9830 C   0  0  0  0  0  3  0  0  0  0  0  0
  -17.6830  -30.8210   24.1460 C   0  0  0  0  0  3  0  0  0  0  0  0
  -16.5600  -30.0940   23.7140 C   0  0  0  0  0  3  0  0  0  0  0  0
  -16.7300  -28.8340   23.1140 C   0  0  0  0  0  3  0  0  0  0  0  0
  -25.9630  -32.5110   23.9920 C   0  0  0  0  0  3  0  0  0  0  0  0
  -25.6850  -33.9230   24.2980 N   0  0  0  0  0  0  0  0  0  0  0  0
  -26.0240  -34.9550   23.5130 C   0  0  0  0  0  0  0  0  0  0  0  0
  -26.6710  -34.8170   22.4710 O   0  0  0  0  0  0  0  0  0  0  0  0
  -25.1080  -34.1050   25.1060 H   0  0  0  0  0  0  0  0  0  0  0  0
  -24.3100  -36.7690   23.1790 C   0  0  0  0  0  1  0  0  0  0  0  0
  -25.5740  -36.3620   23.9530 C   0  0  0  0  0  3  0  0  0  0  0  0
  -27.7430  -37.2420   24.6940 C   0  0  0  0  0  1  0  0  0  0  0  0
  -26.6170  -37.3960   23.7760 N   0  0  0  0  0  0  0  0  0  0  0  0
  -26.2290  -38.3250   23.9040 H   0  0  0  0  0  0  0  0  0  0  0  0
  -26.4210  -31.7440   25.2930 C   0  0  1  0  0  0  0  0  0  0  0  0
  -25.2910  -31.5460   26.3310 C   0  0  0  0  0  1  0  0  0  0  0  0
  -26.9800  -30.3460   24.9400 C   0  0  0  0  0  1  0  0  0  0  0  0
  -27.5720  -32.5180   25.9780 C   0  0  0  0  0  1  0  0  0  0  0  0
  -27.5050  -18.6440   17.8310 C   0  0  0  0  0  1  0  0  0  0  0  0
  -26.2210  -18.7180   20.0040 C   0  0  0  0  0  1  0  0  0  0  0  0
  -27.6050  -18.5210   19.3620 C   0  0  0  0  0  3  0  0  0  0  0  0
  1  4  2  0
  1  2  1  0
  2  5  2  0
  3  6  2  0
  4  3  1  0
  5  6  1  0
  5  7  1  0
  6  8  1  0
 10 15  1  0
 11 12  1  0
 11 10  1  0
 13 12  1  0
 13 24  1  0
 13 14  1  0
 15  9  1  0
 15 14  1  0
 16  9  2  0
 17 19  1  0
 18 17  1  0
 18 20  1  0
 19  3  1  0
 20 19  1  0
 20  9  1  0
 21 22  2  0
 22 41  1  0
 23 22  1  0
 23 26  1  0
 24 21  1  0
 24 25  1  0
 25 23  2  0
 26 27  1  0
 27 28  2  0
 29 32  1  0
 29 28  1  0
 30 29  2  0
 31 30  1  0
 31 26  2  0
 32 33  1  0
 33 38  2  0
 33 34  1  0
 34 35  2  0
 35 36  1  0
 36 40  1  0
 37 36  2  0
 38 37  1  0
 39 38  1  0
 41 42  1  0
 42 45  1  0
 42 44  1  0
 43 41  2  0
 46 47  1  0
 46 21  1  0
 48 46  1  0
 49 50  1  0
 49 51  1  0
 50  2  1  0
 50 51  1  0
 51 52  1  0
 53 64  2  0
 54 52  1  0
 54 59  1  0
 55 63  1  0
 55 65  1  0
 56 62  1  0
 56 58  1  0
 57 63  1  0
 58 59  2  0
 58 57  1  0
 60 54  2  0
 61 60  1  0
 61 56  2  0
 62 55  1  0
 63 53  1  0
 65 67  2  0
 66 65  1  0
 68 66  1  0
 69 78  2  0
 69 74  1  0
 70 66  1  0
 70 74  1  0
 71 70  1  0
 72 73  1  0
 72 71  1  0
 73 69  1  0
 74 75  2  0
 75 76  1  0
 77 76  2  0
 78 77  1  0
 79 53  1  0
 79 80  1  0
 79 89  1  0
 80 83  1  0
 81 85  1  0
 81 80  1  0
 82 81  2  0
 85 84  1  0
 87 88  1  0
 87 85  1  0
 87 86  1  0
 89 92  1  1
 89 90  1  0
 91 89  1  0
 93 95  1  0
 95  4  1  0
 95 94  1  0
M  ISO  4   9 100  20 100  51 101  52 101
M  END
>  <TORSDO>  (23) 
F 18

>  <SCORE>  (23) 
-13.805

>  <name>  (23) 
22

>  <ligand_id>  (23) 
22

>  <original_smiles>  (23) 
[H]c1c([H])c([H])c2c(c1[H])C([H])([H])C([H])([H])C([H])([H])C2([H])N([H])C(=O)C1([H])N(C(=O)C([H])(N([H])C(=O)C([H])(N([H])C([H])([H])[H])C([H])([H])[H])C(C([H])([H])[H])(C([H])([H])[H])C([H])([H])[H])C([H])([H])c2c([H])c(OC3([H])C([H])([H])C3([H])c3c([H])c(C([H])(C([H])([H])[H])C([H])([H])[H])c(C4([H])N(C(=O)N5C([H])([H])C([H])([H])C([H])([H])C([H])(n6nc(-c7c([H])c([H])c(Oc8c([H])c([H])c(F)c([H])c8F)c([H])c7[H])c(C(=O)N([H])[H])c6N([H])[H])C5([H])[H])C([H])([H])C4([H])[H])c(C([H])([H])[H])c3C([H])([H])[H])c([H])c([H])c2C1([H])[H]

>  <smiles>  (23) 
[H]c1c([H])c([H])c2c(c1[H])C([H])([H])C([H])([H])C([H])([H])C2([H])N([H])C(=O)C1([H])N(C(=O)C([H])(N([H])C(=O)C([H])(N([H])C([H])([H])[H])C([H])([H])[H])C(C([H])([H])[H])(C([H])([H])[H])C([H])([H])[H])C([H])([H])c2c([H])c(OC3([H])C([H])([H])C3([H])c3c([H])c(C([H])(C([H])([H])[H])C([H])([H])[H])c(C4([H])N(C(=O)N5C([H])([H])C([H])([H])C([H])([H])C([H])(n6nc(-c7c([H])c([H])c(Oc8c([H])c([H])c(F)c([H])c8F)c([H])c7[H])c(C(=O)N([H])[H])c6N([H])[H])C5([H])[H])C([H])([H])C4([H])[H])c(C([H])([H])[H])c3C([H])([H])[H])c([H])c([H])c2C1([H])[H]

$$$$
23:0:0
     RDKit          3D

 94104  0  0  1  0  0  0  0  0999 V2000
  -28.5320  -22.6270   18.9560 C   0  0  0  0  0  3  0  0  0  0  0  0
  -29.0930  -23.1250   21.2180 C   0  0  0  0  0  3  0  0  0  0  0  0
  -28.8320  -21.2370   19.1250 C   0  0  0  0  0  0  0  0  0  0  0  0
  -29.3140  -20.7420   20.3890 C   0  0  0  0  0  0  0  0  0  0  0  0
  -28.6400  -23.6130   19.9710 C   0  0  0  0  0  0  0  0  0  0  0  0
  -29.4240  -21.7410   21.4250 C   0  0  0  0  0  0  0  0  0  0  0  0
  -29.8770  -21.3610   22.8270 C   0  0  0  0  0  1  0  0  0  0  0  0
  -30.9160  -14.7950   20.3570 C   0  0  0  0  0  0  0  0  0  0  0  0
  -30.5890  -12.5500   19.3210 C   0  0  0  0  0  2  0  0  0  0  0  0
  -29.6450  -12.6000   18.1060 C   0  0  0  0  0  2  0  0  0  0  0  0
  -28.1870  -12.4200   18.5610 C   0  0  0  0  0  2  0  0  0  0  0  0
  -27.8220  -13.3150   19.7780 C   0  0  0  0  0  3  0  0  0  0  0  0
  -28.9040  -13.2610   20.8800 C   0  0  0  0  0  2  0  0  0  0  0  0
  -30.1690  -13.6390   20.2410 N   0  0  0  0  0  0  0  0  0  0  0  0
  -32.1190  -14.7040   20.0910 O   0  0  0  0  0  0  0  0  0  0  0  0
  -28.6910  -18.0980   20.8550 C   0  0  0  0  0  2  0  0  0  0  0  0
  -30.7480  -18.6070   19.6320 C   0  0  0  0  0  2  0  0  0  0  0  0
  -29.2250  -16.6250   21.1710 C   0  0  0  0  0  2  0  0  0  0  0  0
  -31.3170  -17.2060   20.0260 C   0  0  0  0  0  2  0  0  0  0  0  0
  -29.7670  -19.2160   20.6500 C   0  0  0  0  0  3  0  0  0  0  0  0
  -30.3680  -16.0920   20.3650 N   0  0  0  0  0  0  0  0  0  0  0  0
  -25.4450  -13.8760   20.5530 C   0  0  0  0  0  0  0  0  0  0  0  0
  -24.3880  -13.0910   20.9190 C   0  0  0  0  0  0  0  0  0  0  0  0
  -24.8560  -11.7420   20.8570 C   0  0  0  0  0  0  0  0  0  0  0  0
  -26.4910  -13.0080   20.2880 N   0  0  0  0  0  0  0  0  0  0  0  0
  -26.1450  -11.7180   20.5360 N   0  0  0  0  0  0  0  0  0  0  0  0
  -24.1380  -10.4730   21.0290 C   0  0  0  0  0  0  0  0  0  0  0  0
  -24.5600   -9.5060   21.9690 C   0  0  0  0  0  3  0  0  0  0  0  0
  -23.8380   -8.3030   22.1310 C   0  0  0  0  0  3  0  0  0  0  0  0
  -22.6800   -8.0600   21.3550 C   0  0  0  0  0  0  0  0  0  0  0  0
  -22.2780   -9.0160   20.4050 C   0  0  0  0  0  3  0  0  0  0  0  0
  -23.0000  -10.2090   20.2410 C   0  0  0  0  0  3  0  0  0  0  0  0
  -21.9300   -6.9110   21.4300 O   0  0  0  0  0  0  0  0  0  0  0  0
  -21.8180   -6.1970   22.5960 C   0  0  0  0  0  0  0  0  0  0  0  0
  -21.3090   -6.7760   23.7790 C   0  0  0  0  0  3  0  0  0  0  0  0
  -21.1480   -5.9860   24.9350 C   0  0  0  0  0  3  0  0  0  0  0  0
  -21.4840   -4.6210   24.9080 C   0  0  0  0  0  0  0  0  0  0  0  0
  -21.9860   -4.0420   23.7300 C   0  0  0  0  0  3  0  0  0  0  0  0
  -22.1500   -4.8280   22.5770 C   0  0  0  0  0  0  0  0  0  0  0  0
  -22.6120   -4.2590   21.4370 F   0  0  0  0  0  0  0  0  0  0  0  0
  -21.3230   -3.8600   26.0170 F   0  0  0  0  0  0  0  0  0  0  0  0
  -22.9920  -13.5580   21.2120 C   0  0  0  0  0  0  0  0  0  0  0  0
  -22.2760  -12.8490   22.0780 N   0  0  0  0  0  0  0  0  0  0  0  0
  -22.5430  -14.5880   20.7090 O   0  0  0  0  0  0  0  0  0  0  0  0
  -22.6520  -12.0170   22.5090 H   0  0  0  0  0  0  0  0  0  0  0  0
  -21.3390  -13.1450   22.3150 H   0  0  0  0  0  0  0  0  0  0  0  0
  -25.5980  -15.2500   20.3980 N   0  0  0  0  0  0  0  0  0  0  0  0
  -24.8310  -15.8970   20.5510 H   0  0  0  0  0  0  0  0  0  0  0  0
  -26.4450  -15.7070   20.0870 H   0  0  0  0  0  0  0  0  0  0  0  0
  -29.5580  -20.3850   16.7590 C   0  0  0  0  0  2  0  0  0  0  0  0
  -28.0950  -20.7030   16.5500 C   0  0  0  0  0  2  0  0  0  0  0  0
  -28.6050  -20.3170   17.9390 C   0  0  0  0  0  3  0  0  0  0  0  0
  -27.9190  -25.0000   19.7290 C   0  0  0  0  0  2  0  0  0  0  0  0
  -28.3160  -26.3790   20.1670 O   0  0  0  0  0  0  0  0  0  0  0  0
  -24.6990  -31.8790   23.2670 C   0  0  0  0  0  0  0  0  0  0  0  0
  -27.2650  -27.3330   20.1040 C   0  0  0  0  0  0  0  0  0  0  0  0
  -23.4890  -30.5130   21.6130 C   0  0  0  0  0  3  0  0  0  0  0  0
  -24.9270  -29.0090   20.1420 C   0  0  0  0  0  0  0  0  0  0  0  0
  -26.0360  -30.8160   21.4300 C   0  0  0  0  0  2  0  0  0  0  0  0
  -26.1080  -29.4510   20.7540 C   0  0  0  0  0  0  0  0  0  0  0  0
  -27.2790  -28.6250   20.7340 C   0  0  0  0  0  3  0  0  0  0  0  0
  -26.0590  -26.9960   19.4300 C   0  0  0  0  0  3  0  0  0  0  0  0
  -24.9100  -27.7890   19.4710 C   0  0  0  0  0  3  0  0  0  0  0  0
  -23.6950  -29.8820   20.2170 C   0  0  0  0  0  2  0  0  0  0  0  0
  -24.7610  -31.0850   22.1590 N   0  0  0  0  0  0  0  0  0  0  0  0
  -23.6170  -32.1490   23.8060 O   0  0  0  0  0  0  0  0  0  0  0  0
  -22.8320  -29.4700   22.5520 C   0  0  0  0  0  0  0  0  0  0  0  0
  -21.5060  -29.2910   22.4240 N   0  0  0  0  0  0  0  0  0  0  0  0
  -23.5130  -28.8290   23.3570 O   0  0  0  0  0  0  0  0  0  0  0  0
  -21.0150  -29.8580   21.7470 H   0  0  0  0  0  0  0  0  0  0  0  0
  -18.1300  -28.0810   22.9130 C   0  0  0  0  0  0  0  0  0  0  0  0
  -20.6880  -28.3410   23.1810 C   0  0  0  0  0  3  0  0  0  0  0  0
  -20.7920  -26.9190   22.5820 C   0  0  0  0  0  2  0  0  0  0  0  0
  -19.6870  -26.6090   21.5680 C   0  0  0  0  0  2  0  0  0  0  0  0
  -18.3070  -26.7420   22.2180 C   0  0  0  0  0  2  0  0  0  0  0  0
  -19.2480  -28.8370   23.3530 C   0  0  0  0  0  0  0  0  0  0  0  0
  -19.0290  -30.0910   23.9650 C   0  0  0  0  0  3  0  0  0  0  0  0
  -17.7240  -30.5870   24.1420 C   0  0  0  0  0  3  0  0  0  0  0  0
  -16.6190  -29.8260   23.7220 C   0  0  0  0  0  3  0  0  0  0  0  0
  -16.8230  -28.5750   23.1110 C   0  0  0  0  0  3  0  0  0  0  0  0
  -25.9830  -32.5010   23.8930 C   0  0  0  0  0  3  0  0  0  0  0  0
  -25.6770  -33.8980   24.2330 N   0  0  0  0  0  0  0  0  0  0  0  0
  -25.9750  -34.9520   23.4630 C   0  0  0  0  0  0  0  0  0  0  0  0
  -26.6110  -34.8530   22.4100 O   0  0  0  0  0  0  0  0  0  0  0  0
  -25.1100  -34.0500   25.0550 H   0  0  0  0  0  0  0  0  0  0  0  0
  -24.2110  -36.7240   23.1860 C   0  0  0  0  0  1  0  0  0  0  0  0
  -25.4950  -36.3380   23.9370 C   0  0  0  0  0  3  0  0  0  0  0  0
  -27.6570  -37.2530   24.6590 C   0  0  0  0  0  1  0  0  0  0  0  0
  -26.5090  -37.4020   23.7690 N   0  0  0  0  0  0  0  0  0  0  0  0
  -26.1000  -38.3180   23.9290 H   0  0  0  0  0  0  0  0  0  0  0  0
  -26.4940  -31.7170   25.1640 C   0  0  1  0  0  0  0  0  0  0  0  0
  -25.3970  -31.4790   26.2270 C   0  0  0  0  0  1  0  0  0  0  0  0
  -27.0680  -30.3370   24.7650 C   0  0  0  0  0  1  0  0  0  0  0  0
  -27.6490  -32.5000   25.8310 C   0  0  0  0  0  1  0  0  0  0  0  0
  1  3  2  0
  1  5  1  0
  2  6  1  0
  3  4  1  0
  4  6  2  0
  5  2  2  0
  6  7  1  0
  8 21  1  0
  9 14  1  0
 10 11  1  0
 10  9  1  0
 12 11  1  0
 12 25  1  0
 12 13  1  0
 14  8  1  0
 14 13  1  0
 15  8  2  0
 16 18  1  0
 17 19  1  0
 17 20  1  0
 19 21  1  0
 20  4  1  0
 20 16  1  0
 21 18  1  0
 22 23  2  0
 23 42  1  0
 24 23  1  0
 24 27  1  0
 25 26  1  0
 25 22  1  0
 26 24  2  0
 27 28  1  0
 28 29  2  0
 30 33  1  0
 30 29  1  0
 31 30  2  0
 32 31  1  0
 32 27  2  0
 33 34  1  0
 34 35  1  0
 35 36  2  0
 37 36  1  0
 37 41  1  0
 38 37  2  0
 39 34  2  0
 39 38  1  0
 40 39  1  0
 42 43  1  0
 43 46  1  0
 43 45  1  0
 44 42  2  0
 47 48  1  0
 47 22  1  0
 49 47  1  0
 50 52  1  0
 51 50  1  0
 51 52  1  0
 52  3  1  0
 53  5  1  0
 53 54  1  0
 55 66  2  0
 56 54  1  0
 56 61  1  0
 57 65  1  0
 57 67  1  0
 58 64  1  0
 58 60  1  0
 59 65  1  0
 60 59  1  0
 61 60  2  0
 62 63  1  0
 62 56  2  0
 63 58  2  0
 64 57  1  0
 65 55  1  0
 67 69  2  0
 68 67  1  0
 70 68  1  0
 71 80  2  0
 71 76  1  0
 72 68  1  0
 72 76  1  0
 73 72  1  0
 74 75  1  0
 74 73  1  0
 75 71  1  0
 76 77  2  0
 77 78  1  0
 79 78  2  0
 80 79  1  0
 81 55  1  0
 81 82  1  0
 81 91  1  0
 82 85  1  0
 83 87  1  0
 83 82  1  0
 84 83  2  0
 87 86  1  0
 89 90  1  0
 89 87  1  0
 89 88  1  0
 91 94  1  1
 91 92  1  0
 93 91  1  0
M  ISO  4   8 100  21 100  53 101  54 101
M  END
>  <TORSDO>  (24) 
F 18

>  <SCORE>  (24) 
-14.305

>  <name>  (24) 
23

>  <ligand_id>  (24) 
23

>  <original_smiles>  (24) 
[H]c1c([H])c([H])c2c(c1[H])C([H])([H])C([H])([H])C([H])([H])C2([H])N([H])C(=O)C1([H])N(C(=O)C([H])(N([H])C(=O)C([H])(N([H])C([H])([H])[H])C([H])([H])[H])C(C([H])([H])[H])(C([H])([H])[H])C([H])([H])[H])C([H])([H])c2c([H])c(OC([H])([H])c3c([H])c(C([H])([H])[H])c(C4([H])C([H])([H])C([H])([H])N(C(=O)N5C([H])([H])C([H])([H])C([H])([H])C([H])(n6nc(-c7c([H])c([H])c(Oc8c([H])c([H])c(F)c([H])c8F)c([H])c7[H])c(C(=O)N([H])[H])c6N([H])[H])C5([H])[H])C([H])([H])C4([H])[H])c(C4([H])C([H])([H])C4([H])[H])c3[H])c([H])c([H])c2C1([H])[H]

>  <smiles>  (24) 
[H]c1c([H])c([H])c2c(c1[H])C([H])([H])C([H])([H])C([H])([H])C2([H])N([H])C(=O)C1([H])N(C(=O)C([H])(N([H])C(=O)C([H])(N([H])C([H])([H])[H])C([H])([H])[H])C(C([H])([H])[H])(C([H])([H])[H])C([H])([H])[H])C([H])([H])c2c([H])c(OC([H])([H])c3c([H])c(C([H])([H])[H])c(C4([H])C([H])([H])C([H])([H])N(C(=O)N5C([H])([H])C([H])([H])C([H])([H])C([H])(n6nc(-c7c([H])c([H])c(Oc8c([H])c([H])c(F)c([H])c8F)c([H])c7[H])c(C(=O)N([H])[H])c6N([H])[H])C5([H])[H])C([H])([H])C4([H])[H])c(C4([H])C([H])([H])C4([H])[H])c3[H])c([H])c([H])c2C1([H])[H]

$$$$
24:0:0
     RDKit          3D

 96106  0  0  1  0  0  0  0  0999 V2000
  -30.6850  -21.7440   19.1320 C   0  0  0  0  0  3  0  0  0  0  0  0
  -29.7770  -21.5350   21.3140 C   0  0  0  0  0  0  0  0  0  0  0  0
  -30.1390  -22.4400   20.2450 C   0  0  0  0  0  0  0  0  0  0  0  0
  -30.8190  -20.3140   19.0160 C   0  0  0  0  0  0  0  0  0  0  0  0
  -29.8180  -20.0690   21.1730 C   0  0  0  0  0  0  0  0  0  0  0  0
  -30.3670  -19.3750   20.0240 C   0  0  0  0  0  0  0  0  0  0  0  0
  -31.4410  -19.8790   17.6870 C   0  0  0  0  0  1  0  0  0  0  0  0
  -29.1890  -19.2090   22.2600 C   0  0  0  0  0  1  0  0  0  0  0  0
  -30.5330  -22.8810   23.3930 C   0  0  0  0  0  2  0  0  0  0  0  0
  -29.6780  -21.8430   24.0570 C   0  0  0  0  0  2  0  0  0  0  0  0
  -29.4030  -22.2380   22.6090 C   0  0  0  0  0  3  0  0  0  0  0  0
  -30.2190  -24.0860   20.3290 C   0  0  0  0  0  3  0  0  0  0  0  0
  -29.0410  -25.2110   19.9900 C   0  0  0  0  0  3  0  0  0  0  0  0
  -29.1700  -26.7110   20.3260 O   0  0  0  0  0  0  0  0  0  0  0  0
  -25.2360  -31.7850   23.8320 C   0  0  0  0  0  0  0  0  0  0  0  0
  -28.0660  -27.6260   20.3100 C   0  0  0  0  0  0  0  0  0  0  0  0
  -24.1440  -30.6410   21.9350 C   0  0  0  0  0  3  0  0  0  0  0  0
  -25.6930  -29.2940   20.3840 C   0  0  0  0  0  0  0  0  0  0  0  0
  -26.6900  -30.9540   21.9510 C   0  0  0  0  0  2  0  0  0  0  0  0
  -26.8240  -29.6730   21.1160 C   0  0  0  0  0  0  0  0  0  0  0  0
  -28.0090  -28.8590   21.0660 C   0  0  0  0  0  3  0  0  0  0  0  0
  -26.9130  -27.3380   19.5460 C   0  0  0  0  0  3  0  0  0  0  0  0
  -25.7460  -28.1370   19.5860 C   0  0  0  0  0  3  0  0  0  0  0  0
  -24.4500  -30.1670   20.4880 C   0  0  0  0  0  2  0  0  0  0  0  0
  -25.3720  -31.1410   22.6320 N   0  0  0  0  0  0  0  0  0  0  0  0
  -24.1210  -31.9810   24.3400 O   0  0  0  0  0  0  0  0  0  0  0  0
  -23.4300  -29.5000   22.7030 C   0  0  0  0  0  0  0  0  0  0  0  0
  -22.1210  -29.3200   22.4510 N   0  0  0  0  0  0  0  0  0  0  0  0
  -24.0580  -28.7840   23.4870 O   0  0  0  0  0  0  0  0  0  0  0  0
  -21.6740  -29.9520   21.8010 H   0  0  0  0  0  0  0  0  0  0  0  0
  -18.7620  -27.9680   22.4950 C   0  0  0  0  0  0  0  0  0  0  0  0
  -21.2750  -28.2740   23.0270 C   0  0  0  0  0  3  0  0  0  0  0  0
  -21.4860  -26.9240   22.3020 C   0  0  0  0  0  2  0  0  0  0  0  0
  -20.4910  -26.6920   21.1590 C   0  0  0  0  0  2  0  0  0  0  0  0
  -19.0510  -26.7180   21.6820 C   0  0  0  0  0  2  0  0  0  0  0  0
  -19.8060  -28.7060   23.1130 C   0  0  0  0  0  0  0  0  0  0  0  0
  -19.4840  -29.8770   23.8310 C   0  0  0  0  0  3  0  0  0  0  0  0
  -18.1500  -30.3140   23.9360 C   0  0  0  0  0  3  0  0  0  0  0  0
  -17.1190  -29.5730   23.3330 C   0  0  0  0  0  3  0  0  0  0  0  0
  -17.4250  -28.4000   22.6190 C   0  0  0  0  0  3  0  0  0  0  0  0
  -26.4720  -32.3280   24.6110 C   0  0  0  0  0  3  0  0  0  0  0  0
  -26.1700  -33.7080   25.0250 N   0  0  0  0  0  0  0  0  0  0  0  0
  -26.5830  -34.8070   24.3800 C   0  0  0  0  0  0  0  0  0  0  0  0
  -27.3260  -34.7640   23.3970 O   0  0  0  0  0  0  0  0  0  0  0  0
  -25.5180  -33.8150   25.7880 H   0  0  0  0  0  0  0  0  0  0  0  0
  -24.9260  -36.6750   24.0520 C   0  0  0  0  0  1  0  0  0  0  0  0
  -26.0970  -36.1720   24.9100 C   0  0  0  0  0  3  0  0  0  0  0  0
  -28.1920  -36.9290   25.9450 C   0  0  0  0  0  1  0  0  0  0  0  0
  -27.1610  -37.1990   24.9480 N   0  0  0  0  0  0  0  0  0  0  0  0
  -26.7700  -38.1170   25.1420 H   0  0  0  0  0  0  0  0  0  0  0  0
  -26.8490  -31.4470   25.8640 C   0  0  1  0  0  0  0  0  0  0  0  0
  -25.6590  -31.1720   26.8160 C   0  0  0  0  0  1  0  0  0  0  0  0
  -27.4220  -30.0810   25.4230 C   0  0  0  0  0  1  0  0  0  0  0  0
  -27.9620  -32.1480   26.6800 C   0  0  0  0  0  1  0  0  0  0  0  0
  -30.2390  -17.7560   19.7070 C   0  0  0  0  0  3  0  0  0  0  0  0
  -31.0630  -15.3610   20.5880 C   0  0  0  0  0  0  0  0  0  0  0  0
  -31.0380  -12.9500   19.8480 C   0  0  0  0  0  2  0  0  0  0  0  0
  -30.1900  -12.8040   18.5620 C   0  0  0  0  0  2  0  0  0  0  0  0
  -28.7060  -12.6050   18.9120 C   0  0  0  0  0  2  0  0  0  0  0  0
  -28.2070  -13.5890   20.0020 C   0  0  0  0  0  3  0  0  0  0  0  0
  -29.1900  -13.7060   21.1870 C   0  0  0  0  0  2  0  0  0  0  0  0
  -30.5020  -14.0890   20.6450 N   0  0  0  0  0  0  0  0  0  0  0  0
  -32.2550  -15.4470   20.2750 O   0  0  0  0  0  0  0  0  0  0  0  0
  -30.2660  -16.5210   20.6610 N   0  0  0  0  0  0  0  0  0  0  0  0
  -29.3740  -16.3460   21.1000 H   0  0  0  0  0  0  0  0  0  0  0  0
  -25.8010  -14.1490   20.6810 C   0  0  0  0  0  0  0  0  0  0  0  0
  -24.7210  -13.3660   20.9730 C   0  0  0  0  0  0  0  0  0  0  0  0
  -25.1770  -12.0150   20.8870 C   0  0  0  0  0  0  0  0  0  0  0  0
  -26.8500  -13.2780   20.4370 N   0  0  0  0  0  0  0  0  0  0  0  0
  -26.4780  -11.9840   20.6200 N   0  0  0  0  0  0  0  0  0  0  0  0
  -24.4360  -10.7510   20.9810 C   0  0  0  0  0  0  0  0  0  0  0  0
  -24.8320   -9.7280   21.8710 C   0  0  0  0  0  3  0  0  0  0  0  0
  -24.0930   -8.5290   21.9590 C   0  0  0  0  0  3  0  0  0  0  0  0
  -22.9430   -8.3440   21.1550 C   0  0  0  0  0  0  0  0  0  0  0  0
  -22.5660   -9.3550   20.2540 C   0  0  0  0  0  3  0  0  0  0  0  0
  -23.3040  -10.5460   20.1630 C   0  0  0  0  0  3  0  0  0  0  0  0
  -22.1760   -7.2040   21.1550 O   0  0  0  0  0  0  0  0  0  0  0  0
  -22.0620   -6.4110   22.2690 C   0  0  0  0  0  0  0  0  0  0  0  0
  -21.5840   -6.9160   23.4980 C   0  0  0  0  0  3  0  0  0  0  0  0
  -21.4170   -6.0520   24.5980 C   0  0  0  0  0  3  0  0  0  0  0  0
  -21.7210   -4.6830   24.4720 C   0  0  0  0  0  0  0  0  0  0  0  0
  -22.1990   -4.1780   23.2490 C   0  0  0  0  0  3  0  0  0  0  0  0
  -22.3670   -5.0400   22.1510 C   0  0  0  0  0  0  0  0  0  0  0  0
  -22.8020   -4.5420   20.9690 F   0  0  0  0  0  0  0  0  0  0  0  0
  -21.5580   -3.8510   25.5270 F   0  0  0  0  0  0  0  0  0  0  0  0
  -23.3160  -13.8390   21.2230 C   0  0  0  0  0  0  0  0  0  0  0  0
  -22.5620  -13.1140   22.0400 N   0  0  0  0  0  0  0  0  0  0  0  0
  -22.8960  -14.8860   20.7280 O   0  0  0  0  0  0  0  0  0  0  0  0
  -22.9160  -12.2700   22.4690 H   0  0  0  0  0  0  0  0  0  0  0  0
  -21.6180  -13.4080   22.2440 H   0  0  0  0  0  0  0  0  0  0  0  0
  -25.9750  -15.5280   20.5780 N   0  0  0  0  0  0  0  0  0  0  0  0
  -25.2030  -16.1760   20.6940 H   0  0  0  0  0  0  0  0  0  0  0  0
  -26.8170  -15.9770   20.2480 H   0  0  0  0  0  0  0  0  0  0  0  0
  -28.8990  -18.0250   17.4240 C   0  0  0  0  0  2  0  0  0  0  0  0
  -28.6890  -16.6070   17.8770 C   0  0  0  0  0  2  0  0  0  0  0  0
  -28.9530  -17.6810   18.8940 C   0  0  0  0  0  3  0  0  0  0  0  0
  1  3  1  0
  2 11  1  0
  3 12  1  0
  3  2  2  0
  4  1  2  0
  4  6  1  0
  5  2  1  0
  5  8  1  0
  6  5  2  0
  7  4  1  0
  9 10  1  0
 11  9  1  0
 11 10  1  0
 13 14  1  0
 13 12  2  0
 15 26  2  0
 16 14  1  0
 16 21  1  0
 17 25  1  0
 17 27  1  0
 18 24  1  0
 18 20  1  0
 19 25  1  0
 20 19  1  0
 21 20  2  0
 22 23  1  0
 22 16  2  0
 23 18  2  0
 24 17  1  0
 25 15  1  0
 27 29  2  0
 28 27  1  0
 30 28  1  0
 31 40  2  0
 31 36  1  0
 32 28  1  0
 32 36  1  0
 33 32  1  0
 34 35  1  0
 34 33  1  0
 35 31  1  0
 36 37  2  0
 37 38  1  0
 39 38  2  0
 40 39  1  0
 41 15  1  0
 41 42  1  0
 41 51  1  0
 42 45  1  0
 43 47  1  0
 43 42  1  0
 44 43  2  0
 47 46  1  0
 47 49  1  0
 49 50  1  0
 49 48  1  0
 51 54  1  1
 51 52  1  0
 53 51  1  0
 55  6  1  0
 55 64  1  0
 56 62  1  0
 56 64  1  0
 57 62  1  0
 58 59  1  0
 58 57  1  0
 60 59  1  0
 60 69  1  0
 60 61  1  0
 62 61  1  0
 63 56  2  0
 64 65  1  0
 66 67  2  0
 67 86  1  0
 68 67  1  0
 68 71  1  0
 69 70  1  0
 69 66  1  0
 70 68  2  0
 71 72  1  0
 72 73  2  0
 74 77  1  0
 74 73  1  0
 75 74  2  0
 76 75  1  0
 76 71  2  0
 77 78  1  0
 78 79  1  0
 79 80  2  0
 81 80  1  0
 81 85  1  0
 82 81  2  0
 83 78  2  0
 83 82  1  0
 84 83  1  0
 86 87  1  0
 87 90  1  0
 87 89  1  0
 88 86  2  0
 91 66  1  0
 91 92  1  0
 93 91  1  0
 94 95  1  0
 94 96  1  0
 95 96  1  0
 96 55  1  0
M  ISO  4  13 101  14 101  56 100  64 100
M  END
>  <TORSDO>  (25) 
F 21

>  <SCORE>  (25) 
-8.453

>  <name>  (25) 
24

>  <ligand_id>  (25) 
24

>  <original_smiles>  (25) 
[H]c1c([H])c([H])c2c(c1[H])C([H])([H])C([H])([H])C([H])([H])C2([H])N([H])C(=O)C1([H])N(C(=O)C([H])(N([H])C(=O)C([H])(N([H])C([H])([H])[H])C([H])([H])[H])C(C([H])([H])[H])(C([H])([H])[H])C([H])([H])[H])C([H])([H])c2c([H])c(OC([H])([H])C([H])([H])c3c([H])c(C([H])([H])[H])c(C([H])(N([H])C(=O)N4C([H])([H])C([H])([H])C([H])([H])C([H])(n5nc(-c6c([H])c([H])c(Oc7c([H])c([H])c(F)c([H])c7F)c([H])c6[H])c(C(=O)N([H])[H])c5N([H])[H])C4([H])[H])C4([H])C([H])([H])C4([H])[H])c(C([H])([H])[H])c3C3([H])C([H])([H])C3([H])[H])c([H])c([H])c2C1([H])[H]

>  <smiles>  (25) 
[H]c1c([H])c([H])c2c(c1[H])C([H])([H])C([H])([H])C([H])([H])C2([H])N([H])C(=O)C1([H])N(C(=O)C([H])(N([H])C(=O)C([H])(N([H])C([H])([H])[H])C([H])([H])[H])C(C([H])([H])[H])(C([H])([H])[H])C([H])([H])[H])C([H])([H])c2c([H])c(OC([H])([H])C([H])([H])c3c([H])c(C([H])([H])[H])c(C([H])(N([H])C(=O)N4C([H])([H])C([H])([H])C([H])([H])C([H])(n5nc(-c6c([H])c([H])c(Oc7c([H])c([H])c(F)c([H])c7F)c([H])c6[H])c(C(=O)N([H])[H])c5N([H])[H])C4([H])[H])C4([H])C([H])([H])C4([H])[H])c(C([H])([H])[H])c3C3([H])C([H])([H])C3([H])[H])c([H])c([H])c2C1([H])[H]

$$$$
25:0:0
     RDKit          3D

 93102  0  0  1  0  0  0  0  0999 V2000
  -30.9180  -21.9100   20.5640 C   0  0  0  0  0  0  0  0  0  0  0  0
  -31.0540  -23.2630   20.9370 C   0  0  0  0  0  0  0  0  0  0  0  0
  -29.6480  -21.4760   20.1390 C   0  0  0  0  0  0  0  0  0  0  0  0
  -28.9310  -23.7450   20.2000 C   0  0  0  0  0  0  0  0  0  0  0  0
  -32.1330  -20.9910   20.5300 C   0  0  0  0  0  1  0  0  0  0  0  0
  -32.3330  -23.7950   21.5630 C   0  0  0  0  0  1  0  0  0  0  0  0
  -30.0670  -24.1620   20.7500 N   0  0  0  0  0  0  0  0  0  0  0  0
  -28.6750  -22.4270   19.9240 N   0  0  0  0  0  0  0  0  0  0  0  0
  -27.8670  -24.8660   19.8570 C   0  0  0  0  0  2  0  0  0  0  0  0
  -28.1880  -26.3360   19.9330 O   0  0  0  0  0  0  0  0  0  0  0  0
  -24.5600  -31.7550   23.0850 C   0  0  0  0  0  0  0  0  0  0  0  0
  -27.1000  -27.2370   19.8880 C   0  0  0  0  0  0  0  0  0  0  0  0
  -23.3250  -30.3940   21.4390 C   0  0  0  0  0  3  0  0  0  0  0  0
  -24.7470  -28.8830   19.9440 C   0  0  0  0  0  0  0  0  0  0  0  0
  -25.8640  -30.7120   21.2140 C   0  0  0  0  0  2  0  0  0  0  0  0
  -25.9300  -29.3470   20.5330 C   0  0  0  0  0  0  0  0  0  0  0  0
  -27.1100  -28.5370   20.4930 C   0  0  0  0  0  3  0  0  0  0  0  0
  -25.8930  -26.8480   19.2590 C   0  0  0  0  0  3  0  0  0  0  0  0
  -24.7330  -27.6440   19.2920 C   0  0  0  0  0  3  0  0  0  0  0  0
  -23.5090  -29.7530   20.0410 C   0  0  0  0  0  2  0  0  0  0  0  0
  -24.6050  -30.9700   21.9690 N   0  0  0  0  0  0  0  0  0  0  0  0
  -23.4870  -32.0200   23.6460 O   0  0  0  0  0  0  0  0  0  0  0  0
  -22.6790  -29.3560   22.3880 C   0  0  0  0  0  0  0  0  0  0  0  0
  -21.3500  -29.1870   22.2890 N   0  0  0  0  0  0  0  0  0  0  0  0
  -23.3730  -28.7070   23.1750 O   0  0  0  0  0  0  0  0  0  0  0  0
  -20.8470  -29.7600   21.6260 H   0  0  0  0  0  0  0  0  0  0  0  0
  -17.9800  -27.9970   22.8480 C   0  0  0  0  0  0  0  0  0  0  0  0
  -20.5460  -28.2350   23.0570 C   0  0  0  0  0  3  0  0  0  0  0  0
  -20.6220  -26.8170   22.4430 C   0  0  0  0  0  2  0  0  0  0  0  0
  -19.4920  -26.5290   21.4480 C   0  0  0  0  0  2  0  0  0  0  0  0
  -18.1290  -26.6650   22.1320 C   0  0  0  0  0  2  0  0  0  0  0  0
  -19.1150  -28.7400   23.2680 C   0  0  0  0  0  0  0  0  0  0  0  0
  -18.9180  -29.9890   23.8990 C   0  0  0  0  0  3  0  0  0  0  0  0
  -17.6210  -30.4920   24.1130 C   0  0  0  0  0  3  0  0  0  0  0  0
  -16.5020  -29.7450   23.7080 C   0  0  0  0  0  3  0  0  0  0  0  0
  -16.6820  -28.4990   23.0820 C   0  0  0  0  0  3  0  0  0  0  0  0
  -25.8530  -32.3740   23.6960 C   0  0  0  0  0  3  0  0  0  0  0  0
  -25.5450  -33.7600   24.0770 N   0  0  0  0  0  0  0  0  0  0  0  0
  -25.8860  -34.8400   23.3620 C   0  0  0  0  0  0  0  0  0  0  0  0
  -26.5620  -34.7730   22.3310 O   0  0  0  0  0  0  0  0  0  0  0  0
  -24.9390  -33.8850   24.8760 H   0  0  0  0  0  0  0  0  0  0  0  0
  -24.1710  -36.6570   23.0610 C   0  0  0  0  0  1  0  0  0  0  0  0
  -25.4010  -36.2130   23.8680 C   0  0  0  0  0  3  0  0  0  0  0  0
  -27.5300  -37.0530   24.7600 C   0  0  0  0  0  1  0  0  0  0  0  0
  -26.4400  -37.2640   23.8100 N   0  0  0  0  0  0  0  0  0  0  0  0
  -26.0370  -38.1800   23.9920 H   0  0  0  0  0  0  0  0  0  0  0  0
  -26.4010  -31.5650   24.9360 C   0  0  1  0  0  0  0  0  0  0  0  0
  -25.3310  -31.2860   26.0190 C   0  0  0  0  0  1  0  0  0  0  0  0
  -26.9790  -30.2010   24.4900 C   0  0  0  0  0  1  0  0  0  0  0  0
  -27.5640  -32.3400   25.5950 C   0  0  0  0  0  1  0  0  0  0  0  0
  -29.4660  -20.1440   19.6820 O   0  0  0  0  0  0  0  0  0  0  0  0
  -30.6000  -14.7130   19.9770 C   0  0  0  0  0  0  0  0  0  0  0  0
  -30.2600  -12.4510   18.9740 C   0  0  0  0  0  2  0  0  0  0  0  0
  -29.2560  -12.5400   17.8080 C   0  0  0  0  0  2  0  0  0  0  0  0
  -27.8250  -12.3360   18.3340 C   0  0  0  0  0  2  0  0  0  0  0  0
  -27.5210  -13.2200   19.5720 C   0  0  0  0  0  3  0  0  0  0  0  0
  -28.6510  -13.1920   20.6250 C   0  0  0  0  0  2  0  0  0  0  0  0
  -29.9060  -13.5210   19.9380 N   0  0  0  0  0  0  0  0  0  0  0  0
  -31.7700  -14.7350   19.5840 O   0  0  0  0  0  0  0  0  0  0  0  0
  -28.3110  -17.8600   19.8120 C   0  0  0  0  0  2  0  0  0  0  0  0
  -30.0650  -18.2810   21.4870 C   0  0  0  0  0  2  0  0  0  0  0  0
  -29.1870  -16.6600   19.2820 C   0  0  0  0  0  2  0  0  0  0  0  0
  -30.8070  -16.9920   20.9480 C   0  0  0  0  0  2  0  0  0  0  0  0
  -29.0490  -19.0210   20.5560 C   0  0  0  0  0  3  0  0  0  0  0  0
  -29.9720  -15.9210   20.3140 N   0  0  0  0  0  0  0  0  0  0  0  0
  -25.1930  -13.8030   20.4520 C   0  0  0  0  0  0  0  0  0  0  0  0
  -24.1530  -13.0280   20.8820 C   0  0  0  0  0  0  0  0  0  0  0  0
  -24.6170  -11.6780   20.8230 C   0  0  0  0  0  0  0  0  0  0  0  0
  -26.2190  -12.9270   20.1500 N   0  0  0  0  0  0  0  0  0  0  0  0
  -25.8860  -11.6430   20.4360 N   0  0  0  0  0  0  0  0  0  0  0  0
  -23.9080  -10.4150   21.0530 C   0  0  0  0  0  0  0  0  0  0  0  0
  -24.3660   -9.4730   22.0010 C   0  0  0  0  0  3  0  0  0  0  0  0
  -23.6540   -8.2750   22.2170 C   0  0  0  0  0  3  0  0  0  0  0  0
  -22.4720   -8.0090   21.4850 C   0  0  0  0  0  0  0  0  0  0  0  0
  -22.0360   -8.9380   20.5240 C   0  0  0  0  0  3  0  0  0  0  0  0
  -22.7490  -10.1280   20.3050 C   0  0  0  0  0  3  0  0  0  0  0  0
  -21.7290   -6.8610   21.6130 O   0  0  0  0  0  0  0  0  0  0  0  0
  -21.6710   -6.1670   22.7960 C   0  0  0  0  0  0  0  0  0  0  0  0
  -21.1810   -6.7590   23.9820 C   0  0  0  0  0  3  0  0  0  0  0  0
  -21.0730   -5.9910   25.1590 C   0  0  0  0  0  3  0  0  0  0  0  0
  -21.4450   -4.6330   25.1510 C   0  0  0  0  0  0  0  0  0  0  0  0
  -21.9280   -4.0410   23.9700 C   0  0  0  0  0  3  0  0  0  0  0  0
  -22.0380   -4.8070   22.7960 C   0  0  0  0  0  0  0  0  0  0  0  0
  -22.4850   -4.2270   21.6540 F   0  0  0  0  0  0  0  0  0  0  0  0
  -21.3360   -3.8920   26.2770 F   0  0  0  0  0  0  0  0  0  0  0  0
  -22.7730  -13.5010   21.2370 C   0  0  0  0  0  0  0  0  0  0  0  0
  -22.0980  -12.7950   22.1370 N   0  0  0  0  0  0  0  0  0  0  0  0
  -22.3030  -14.5290   20.7500 O   0  0  0  0  0  0  0  0  0  0  0  0
  -22.4950  -11.9640   22.5490 H   0  0  0  0  0  0  0  0  0  0  0  0
  -21.1740  -13.0910   22.4180 H   0  0  0  0  0  0  0  0  0  0  0  0
  -25.3440  -15.1760   20.2660 N   0  0  0  0  0  0  0  0  0  0  0  0
  -24.5860  -15.8310   20.4230 H   0  0  0  0  0  0  0  0  0  0  0  0
  -26.1830  -15.6180   19.9160 H   0  0  0  0  0  0  0  0  0  0  0  0
  1  2  2  0
  2  6  1  0
  3  1  1  0
  4  7  2  0
  5  1  1  0
  7  2  1  0
  8  3  2  0
  8  4  1  0
  9 10  1  0
  9  4  1  0
 11 22  2  0
 12 10  1  0
 12 17  1  0
 13 21  1  0
 13 23  1  0
 14 20  1  0
 14 16  1  0
 15 21  1  0
 16 15  1  0
 17 16  2  0
 18 19  1  0
 18 12  2  0
 19 14  2  0
 20 13  1  0
 21 11  1  0
 23 25  2  0
 24 23  1  0
 26 24  1  0
 27 36  2  0
 27 32  1  0
 28 24  1  0
 28 32  1  0
 29 28  1  0
 30 31  1  0
 30 29  1  0
 31 27  1  0
 32 33  2  0
 33 34  1  0
 35 34  2  0
 36 35  1  0
 37 11  1  0
 37 38  1  0
 37 47  1  0
 38 41  1  0
 39 43  1  0
 39 38  1  0
 40 39  2  0
 43 42  1  0
 45 43  1  0
 45 46  1  0
 45 44  1  0
 47 50  1  1
 47 48  1  0
 49 47  1  0
 51  3  1  0
 52 65  1  0
 53 58  1  0
 54 55  1  0
 54 53  1  0
 56 55  1  0
 56 69  1  0
 56 57  1  0
 58 52  1  0
 58 57  1  0
 59 52  2  0
 60 64  1  0
 62 60  1  0
 62 65  1  0
 63 61  1  0
 64 51  1  0
 64 61  1  0
 65 63  1  0
 66 67  2  0
 67 86  1  0
 68 67  1  0
 68 71  1  0
 69 70  1  0
 69 66  1  0
 70 68  2  0
 71 72  1  0
 72 73  2  0
 74 77  1  0
 74 73  1  0
 75 74  2  0
 76 75  1  0
 76 71  2  0
 77 78  1  0
 78 83  2  0
 78 79  1  0
 79 80  2  0
 81 80  1  0
 81 85  1  0
 82 81  2  0
 83 82  1  0
 84 83  1  0
 86 87  1  0
 87 90  1  0
 87 89  1  0
 88 86  2  0
 91 92  1  0
 91 66  1  0
 93 91  1  0
M  ISO  4   9 101  10 101  52 100  65 100
M  END
>  <TORSDO>  (26) 
F 18

>  <SCORE>  (26) 
-12.788

>  <name>  (26) 
25

>  <ligand_id>  (26) 
25

>  <original_smiles>  (26) 
[H]c1c([H])c([H])c2c(c1[H])C([H])([H])C([H])([H])C([H])([H])C2([H])N([H])C(=O)C1([H])N(C(=O)C([H])(N([H])C(=O)C([H])(N([H])C([H])([H])[H])C([H])([H])[H])C(C([H])([H])[H])(C([H])([H])[H])C([H])([H])[H])C([H])([H])c2c([H])c(OC([H])([H])c3nc(OC4([H])C([H])([H])C([H])([H])N(C(=O)N5C([H])([H])C([H])([H])C([H])([H])C([H])(n6nc(-c7c([H])c([H])c(Oc8c([H])c([H])c(F)c([H])c8F)c([H])c7[H])c(C(=O)N([H])[H])c6N([H])[H])C5([H])[H])C([H])([H])C4([H])[H])c(C([H])([H])[H])c(C([H])([H])[H])n3)c([H])c([H])c2C1([H])[H]

>  <smiles>  (26) 
[H]c1c([H])c([H])c2c(c1[H])C([H])([H])C([H])([H])C([H])([H])C2([H])N([H])C(=O)C1([H])N(C(=O)C([H])(N([H])C(=O)C([H])(N([H])C([H])([H])[H])C([H])([H])[H])C(C([H])([H])[H])(C([H])([H])[H])C([H])([H])[H])C([H])([H])c2c([H])c(OC([H])([H])c3nc(OC4([H])C([H])([H])C([H])([H])N(C(=O)N5C([H])([H])C([H])([H])C([H])([H])C([H])(n6nc(-c7c([H])c([H])c(Oc8c([H])c([H])c(F)c([H])c8F)c([H])c7[H])c(C(=O)N([H])[H])c6N([H])[H])C5([H])[H])C([H])([H])C4([H])[H])c(C([H])([H])[H])c(C([H])([H])[H])n3)c([H])c([H])c2C1([H])[H]

$$$$
26:0:0
     RDKit          3D

 98108  0  0  1  0  0  0  0  0999 V2000
  -32.2890  -19.6160   22.4930 C   0  0  0  0  0  3  0  0  0  0  0  0
  -31.8300  -19.0030   21.3230 C   0  0  0  0  0  3  0  0  0  0  0  0
  -30.0270  -20.6520   21.1130 C   0  0  0  0  0  0  0  0  0  0  0  0
  -31.5820  -20.6880   23.0480 C   0  0  0  0  0  0  0  0  0  0  0  0
  -30.6560  -19.4310   20.6490 C   0  0  0  0  0  0  0  0  0  0  0  0
  -30.4770  -21.2320   22.3440 C   0  0  0  0  0  0  0  0  0  0  0  0
  -32.0130  -21.1810   24.4190 C   0  0  0  0  0  1  0  0  0  0  0  0
  -28.0940  -20.7350   19.2680 C   0  0  0  0  0  2  0  0  0  0  0  0
  -27.2250  -21.8820   18.7060 C   0  0  0  0  0  2  0  0  0  0  0  0
  -29.1870  -22.7820   19.7750 C   0  0  0  0  0  2  0  0  0  0  0  0
  -28.8430  -21.3990   20.4190 C   0  0  0  0  0  3  0  0  0  0  0  0
  -28.0590  -23.1950   18.7800 C   0  0  1  0  0  0  0  0  0  0  0  0
  -28.6530  -23.5010   17.3910 C   0  0  0  0  0  1  0  0  0  0  0  0
  -27.2040  -24.4320   19.2780 C   0  0  0  0  0  2  0  0  0  0  0  0
  -27.7120  -25.7800   19.0280 O   0  0  0  0  0  0  0  0  0  0  0  0
  -25.2630  -30.7820   23.5230 C   0  0  0  0  0  0  0  0  0  0  0  0
  -26.7980  -26.7970   19.2600 C   0  0  0  0  0  0  0  0  0  0  0  0
  -23.7580  -30.1380   21.6700 C   0  0  0  0  0  3  0  0  0  0  0  0
  -24.8190  -28.7570   19.8040 C   0  0  0  0  0  0  0  0  0  0  0  0
  -26.3000  -29.9870   21.3940 C   0  0  0  0  0  2  0  0  0  0  0  0
  -26.0720  -28.8420   20.4230 C   0  0  0  0  0  0  0  0  0  0  0  0
  -27.0710  -27.8730   20.1450 C   0  0  0  0  0  3  0  0  0  0  0  0
  -25.5400  -26.7580   18.6210 C   0  0  0  0  0  3  0  0  0  0  0  0
  -24.5510  -27.7190   18.8960 C   0  0  0  0  0  3  0  0  0  0  0  0
  -23.7950  -29.8150   20.1530 C   0  0  0  0  0  2  0  0  0  0  0  0
  -25.1290  -30.2990   22.2540 N   0  0  0  0  0  0  0  0  0  0  0  0
  -24.2740  -31.1270   24.1870 O   0  0  0  0  0  0  0  0  0  0  0  0
  -22.9080  -29.0630   22.3880 C   0  0  0  0  0  0  0  0  0  0  0  0
  -21.5740  -29.1710   22.2650 N   0  0  0  0  0  0  0  0  0  0  0  0
  -23.4480  -28.1470   23.0140 O   0  0  0  0  0  0  0  0  0  0  0  0
  -21.2110  -29.9530   21.7400 H   0  0  0  0  0  0  0  0  0  0  0  0
  -18.0290  -28.5230   22.5310 C   0  0  0  0  0  0  0  0  0  0  0  0
  -20.5820  -28.2510   22.8220 C   0  0  0  0  0  3  0  0  0  0  0  0
  -20.4430  -26.9850   21.9460 C   0  0  0  0  0  2  0  0  0  0  0  0
  -19.3290  -27.0950   20.9000 C   0  0  0  0  0  2  0  0  0  0  0  0
  -17.9780  -27.3440   21.5760 C   0  0  0  0  0  2  0  0  0  0  0  0
  -19.2530  -28.9600   23.1040 C   0  0  0  0  0  0  0  0  0  0  0  0
  -19.2460  -30.0840   23.9580 C   0  0  0  0  0  3  0  0  0  0  0  0
  -18.0470  -30.7640   24.2450 C   0  0  0  0  0  3  0  0  0  0  0  0
  -16.8360  -30.3180   23.6880 C   0  0  0  0  0  3  0  0  0  0  0  0
  -16.8270  -29.1980   22.8380 C   0  0  0  0  0  3  0  0  0  0  0  0
  -26.6630  -30.9470   24.1900 C   0  0  0  0  0  3  0  0  0  0  0  0
  -27.0040  -29.7960   25.2140 C   0  0  1  0  0  0  0  0  0  0  0  0
  -25.9040  -29.5600   26.2750 C   0  0  0  0  0  1  0  0  0  0  0  0
  -27.2400  -28.4590   24.4720 C   0  0  0  0  0  1  0  0  0  0  0  0
  -28.3230  -30.1270   25.9530 C   0  0  0  0  0  1  0  0  0  0  0  0
  -26.6840  -32.2580   24.8570 N   0  0  0  0  0  0  0  0  0  0  0  0
  -27.3550  -33.3270   24.4110 C   0  0  0  0  0  0  0  0  0  0  0  0
  -28.0890  -33.2920   23.4190 O   0  0  0  0  0  0  0  0  0  0  0  0
  -26.0630  -32.3740   25.6440 H   0  0  0  0  0  0  0  0  0  0  0  0
  -26.2350  -35.5780   24.4230 C   0  0  0  0  0  1  0  0  0  0  0  0
  -27.1870  -34.6470   25.1890 C   0  0  0  0  0  3  0  0  0  0  0  0
  -29.3160  -34.6480   26.4100 C   0  0  0  0  0  1  0  0  0  0  0  0
  -28.4650  -35.3440   25.4490 N   0  0  0  0  0  0  0  0  0  0  0  0
  -28.2970  -36.2840   25.7970 H   0  0  0  0  0  0  0  0  0  0  0  0
  -30.1870  -23.6000   22.5630 C   0  0  0  0  0  1  0  0  0  0  0  0
  -29.7580  -22.2770   22.8860 O   0  0  0  0  0  0  0  0  0  0  0  0
  -30.1460  -18.6380   19.6150 O   0  0  0  0  0  0  0  0  0  0  0  0
  -30.6550  -14.1670   19.8820 C   0  0  0  0  0  0  0  0  0  0  0  0
  -30.3770  -11.8180   19.1550 C   0  0  0  0  0  2  0  0  0  0  0  0
  -29.3940  -11.7760   17.9660 C   0  0  0  0  0  2  0  0  0  0  0  0
  -27.9380  -11.6930   18.4650 C   0  0  0  0  0  2  0  0  0  0  0  0
  -27.6210  -12.7400   19.5650 C   0  0  0  0  0  3  0  0  0  0  0  0
  -28.7150  -12.7520   20.6570 C   0  0  0  0  0  2  0  0  0  0  0  0
  -30.0090  -12.9720   19.9940 N   0  0  0  0  0  0  0  0  0  0  0  0
  -31.7800  -14.2630   19.3820 O   0  0  0  0  0  0  0  0  0  0  0  0
  -30.5320  -16.4490   20.9020 C   0  0  0  0  0  2  0  0  0  0  0  0
  -29.3990  -16.2260   19.2020 C   0  0  0  0  0  2  0  0  0  0  0  0
  -30.5050  -17.2210   19.5700 C   0  0  0  0  0  3  0  0  0  0  0  0
  -29.9400  -15.2800   20.2140 N   0  0  0  0  0  0  0  0  0  0  0  0
  -25.3130  -13.4800   20.4230 C   0  0  0  0  0  0  0  0  0  0  0  0
  -24.2280  -12.7690   20.8600 C   0  0  0  0  0  0  0  0  0  0  0  0
  -24.6100  -11.3930   20.8060 C   0  0  0  0  0  0  0  0  0  0  0  0
  -26.2900  -12.5400   20.1310 N   0  0  0  0  0  0  0  0  0  0  0  0
  -25.8730  -11.2810   20.4200 N   0  0  0  0  0  0  0  0  0  0  0  0
  -23.8250  -10.1750   21.0440 C   0  0  0  0  0  0  0  0  0  0  0  0
  -24.3010   -9.1440   21.8860 C   0  0  0  0  0  3  0  0  0  0  0  0
  -23.5210   -7.9910   22.1150 C   0  0  0  0  0  3  0  0  0  0  0  0
  -22.2510   -7.8590   21.5030 C   0  0  0  0  0  0  0  0  0  0  0  0
  -21.7930   -8.8770   20.6480 C   0  0  0  0  0  3  0  0  0  0  0  0
  -22.5730  -10.0220   20.4170 C   0  0  0  0  0  3  0  0  0  0  0  0
  -21.4350   -6.7630   21.6470 O   0  0  0  0  0  0  0  0  0  0  0  0
  -21.5120   -5.9480   22.7490 C   0  0  0  0  0  0  0  0  0  0  0  0
  -21.1620   -6.4040   24.0380 C   0  0  0  0  0  3  0  0  0  0  0  0
  -21.1890   -5.5130   25.1310 C   0  0  0  0  0  3  0  0  0  0  0  0
  -21.5560   -4.1690   24.9350 C   0  0  0  0  0  0  0  0  0  0  0  0
  -21.9000   -3.7120   23.6510 C   0  0  0  0  0  3  0  0  0  0  0  0
  -21.8750   -4.6000   22.5610 C   0  0  0  0  0  0  0  0  0  0  0  0
  -22.1860   -4.1490   21.3210 F   0  0  0  0  0  0  0  0  0  0  0  0
  -21.5760   -3.3110   25.9820 F   0  0  0  0  0  0  0  0  0  0  0  0
  -22.8790  -13.3250   21.2170 C   0  0  0  0  0  0  0  0  0  0  0  0
  -22.1780  -12.6830   22.1430 N   0  0  0  0  0  0  0  0  0  0  0  0
  -22.4610  -14.3640   20.7080 O   0  0  0  0  0  0  0  0  0  0  0  0
  -22.5300  -11.8420   22.5760 H   0  0  0  0  0  0  0  0  0  0  0  0
  -21.2750  -13.0370   22.4260 H   0  0  0  0  0  0  0  0  0  0  0  0
  -25.5450  -14.8390   20.2310 N   0  0  0  0  0  0  0  0  0  0  0  0
  -24.8310  -15.5400   20.3910 H   0  0  0  0  0  0  0  0  0  0  0  0
  -26.4090  -15.2270   19.8740 H   0  0  0  0  0  0  0  0  0  0  0  0
  1  4  1  0
  2  1  2  0
  3  6  1  0
  4  7  1  0
  5  3  2  0
  5  2  1  0
  6 57  1  0
  6  4  2  0
  8 11  1  0
  9 12  1  0
  9  8  1  0
 10 11  1  0
 11  3  1  0
 12 13  1  6
 12 14  1  0
 12 10  1  0
 15 17  1  0
 15 14  1  0
 16 27  2  0
 17 22  1  0
 18 26  1  0
 18 28  1  0
 19 25  1  0
 19 21  1  0
 20 26  1  0
 21 20  1  0
 22 21  2  0
 23 24  1  0
 23 17  2  0
 24 19  2  0
 25 18  1  0
 26 16  1  0
 28 30  2  0
 29 28  1  0
 31 29  1  0
 32 41  2  0
 32 37  1  0
 33 29  1  0
 33 37  1  0
 34 33  1  0
 35 36  1  0
 35 34  1  0
 36 32  1  0
 37 38  2  0
 38 39  1  0
 40 39  2  0
 41 40  1  0
 42 16  1  0
 42 47  1  0
 42 43  1  0
 43 46  1  1
 43 44  1  0
 45 43  1  0
 47 50  1  0
 48 47  1  0
 48 52  1  0
 49 48  2  0
 52 51  1  0
 52 54  1  0
 54 55  1  0
 54 53  1  0
 56 57  1  0
 58  5  1  0
 59 65  1  0
 59 70  1  0
 60 65  1  0
 61 62  1  0
 61 60  1  0
 63 62  1  0
 63 74  1  0
 63 64  1  0
 65 64  1  0
 66 59  2  0
 68 69  1  0
 68 70  1  0
 69 58  1  0
 69 67  1  0
 70 67  1  0
 71 72  2  0
 72 91  1  0
 73 72  1  0
 73 76  1  0
 74 75  1  0
 74 71  1  0
 75 73  2  0
 76 77  1  0
 77 78  2  0
 79 82  1  0
 79 78  1  0
 80 79  2  0
 81 80  1  0
 81 76  2  0
 82 83  1  0
 83 84  1  0
 84 85  2  0
 86 85  1  0
 86 90  1  0
 87 86  2  0
 88 83  2  0
 88 87  1  0
 89 88  1  0
 91 92  1  0
 92 95  1  0
 92 94  1  0
 93 91  2  0
 96 97  1  0
 96 71  1  0
 98 96  1  0
M  ISO  4  14 101  15 101  59 100  70 100
M  END
>  <TORSDO>  (27) 
F 20

>  <SCORE>  (27) 
-12.496

>  <name>  (27) 
26

>  <ligand_id>  (27) 
26

>  <original_smiles>  (27) 
[H]c1c([H])c([H])c2c(c1[H])C([H])([H])C([H])([H])C([H])([H])C2([H])N([H])C(=O)C1([H])N(C(=O)C([H])(N([H])C(=O)C([H])(N([H])C([H])([H])[H])C([H])([H])[H])C(C([H])([H])[H])(C([H])([H])[H])C([H])([H])[H])C([H])([H])c2c([H])c(OC([H])([H])C3(C([H])([H])[H])C([H])([H])C([H])([H])C([H])(c4c(OC5([H])C([H])([H])N(C(=O)N6C([H])([H])C([H])([H])C([H])([H])C([H])(n7nc(-c8c([H])c([H])c(Oc9c([H])c([H])c(F)c([H])c9F)c([H])c8[H])c(C(=O)N([H])[H])c7N([H])[H])C6([H])[H])C5([H])[H])c([H])c([H])c(C([H])([H])[H])c4OC([H])([H])[H])C3([H])[H])c([H])c([H])c2C1([H])[H]

>  <smiles>  (27) 
[H]c1c([H])c([H])c2c(c1[H])C([H])([H])C([H])([H])C([H])([H])C2([H])N([H])C(=O)C1([H])N(C(=O)C([H])(N([H])C(=O)C([H])(N([H])C([H])([H])[H])C([H])([H])[H])C(C([H])([H])[H])(C([H])([H])[H])C([H])([H])[H])C([H])([H])c2c([H])c(OC([H])([H])C3(C([H])([H])[H])C([H])([H])C([H])([H])C([H])(c4c(OC5([H])C([H])([H])N(C(=O)N6C([H])([H])C([H])([H])C([H])([H])C([H])(n7nc(-c8c([H])c([H])c(Oc9c([H])c([H])c(F)c([H])c9F)c([H])c8[H])c(C(=O)N([H])[H])c7N([H])[H])C6([H])[H])C5([H])[H])c([H])c([H])c(C([H])([H])[H])c4OC([H])([H])[H])C3([H])[H])c([H])c([H])c2C1([H])[H]

$$$$
27:0:0
     RDKit          3D

100110  0  0  1  0  0  0  0  0999 V2000
  -30.4550  -22.3310   19.6060 C   0  0  0  0  0  0  0  0  0  0  0  0
  -31.6640  -22.8160   19.0240 C   0  0  0  0  0  0  0  0  0  0  0  0
  -29.9970  -21.0420   19.1700 C   0  0  0  0  0  0  0  0  0  0  0  0
  -32.1300  -22.2850   17.7950 C   0  0  0  0  0  0  0  0  0  0  0  0
  -30.3510  -20.6070   17.8610 C   0  0  0  0  0  0  0  0  0  0  0  0
  -31.4290  -21.2220   17.1790 C   0  0  0  0  0  0  0  0  0  0  0  0
  -32.5270  -23.8480   19.7430 C   0  0  0  0  0  1  0  0  0  0  0  0
  -33.3620  -22.8900   17.1190 C   0  0  0  0  0  1  0  0  0  0  0  0
  -29.5490  -19.5190   17.1430 C   0  0  0  0  0  1  0  0  0  0  0  0
  -31.8860  -20.7080   15.8120 C   0  0  0  0  0  1  0  0  0  0  0  0
  -28.1090  -23.2220   20.2540 C   0  0  0  0  0  2  0  0  0  0  0  0
  -27.5090  -24.4390   20.9700 C   0  0  0  0  0  2  0  0  0  0  0  0
  -29.8660  -24.7600   20.5600 C   0  0  0  0  0  2  0  0  0  0  0  0
  -29.6150  -23.2140   20.5920 C   0  0  0  0  0  3  0  0  0  0  0  0
  -28.5940  -25.5330   20.9780 C   0  0  0  0  0  3  0  0  0  0  0  0
  -28.4580  -26.6790   20.1050 O   0  0  0  0  0  0  0  0  0  0  0  0
  -24.6070  -31.8580   23.2260 C   0  0  0  0  0  0  0  0  0  0  0  0
  -27.3000  -27.4260   20.1680 C   0  0  0  0  0  0  0  0  0  0  0  0
  -23.4320  -30.4680   21.5530 C   0  0  0  0  0  3  0  0  0  0  0  0
  -24.9130  -28.9450   20.1430 C   0  0  0  0  0  0  0  0  0  0  0  0
  -25.9630  -30.8270   21.4050 C   0  0  0  0  0  2  0  0  0  0  0  0
  -26.0590  -29.4570   20.7650 C   0  0  0  0  0  0  0  0  0  0  0  0
  -27.2590  -28.7020   20.7810 C   0  0  0  0  0  3  0  0  0  0  0  0
  -26.1480  -26.9520   19.5120 C   0  0  0  0  0  3  0  0  0  0  0  0
  -24.9510  -27.6900   19.5150 C   0  0  0  0  0  3  0  0  0  0  0  0
  -23.6680  -29.8050   20.1720 C   0  0  0  0  0  2  0  0  0  0  0  0
  -24.6850  -31.0670   22.1190 N   0  0  0  0  0  0  0  0  0  0  0  0
  -23.5150  -32.1250   23.7500 O   0  0  0  0  0  0  0  0  0  0  0  0
  -22.7690  -29.4360   22.4940 C   0  0  0  0  0  0  0  0  0  0  0  0
  -21.4400  -29.2800   22.3700 N   0  0  0  0  0  0  0  0  0  0  0  0
  -23.4450  -28.7810   23.2910 O   0  0  0  0  0  0  0  0  0  0  0  0
  -20.9560  -29.8610   21.7000 H   0  0  0  0  0  0  0  0  0  0  0  0
  -18.0420  -28.1580   22.8790 C   0  0  0  0  0  0  0  0  0  0  0  0
  -20.6100  -28.3380   23.1220 C   0  0  0  0  0  3  0  0  0  0  0  0
  -20.6660  -26.9250   22.4980 C   0  0  0  0  0  2  0  0  0  0  0  0
  -19.5410  -26.6640   21.4920 C   0  0  0  0  0  2  0  0  0  0  0  0
  -18.1730  -26.8250   22.1610 C   0  0  0  0  0  2  0  0  0  0  0  0
  -19.1880  -28.8760   23.3160 C   0  0  0  0  0  0  0  0  0  0  0  0
  -19.0120  -30.1250   23.9490 C   0  0  0  0  0  3  0  0  0  0  0  0
  -17.7250  -30.6560   24.1510 C   0  0  0  0  0  3  0  0  0  0  0  0
  -16.5940  -29.9340   23.7300 C   0  0  0  0  0  3  0  0  0  0  0  0
  -16.7540  -28.6870   23.0990 C   0  0  0  0  0  3  0  0  0  0  0  0
  -25.8810  -32.4880   23.8710 C   0  0  0  0  0  3  0  0  0  0  0  0
  -26.3800  -31.7090   25.1500 C   0  0  1  0  0  0  0  0  0  0  0  0
  -25.2700  -31.4580   26.1960 C   0  0  0  0  0  1  0  0  0  0  0  0
  -26.9750  -30.3360   24.7530 C   0  0  0  0  0  1  0  0  0  0  0  0
  -27.5160  -32.5010   25.8370 C   0  0  0  0  0  1  0  0  0  0  0  0
  -25.5660  -33.8830   24.2050 N   0  0  0  0  0  0  0  0  0  0  0  0
  -25.8890  -34.9380   23.4460 C   0  0  0  0  0  0  0  0  0  0  0  0
  -26.5590  -34.8400   22.4130 O   0  0  0  0  0  0  0  0  0  0  0  0
  -24.9690  -34.0320   25.0050 H   0  0  0  0  0  0  0  0  0  0  0  0
  -24.1460  -36.7170   23.1010 C   0  0  0  0  0  1  0  0  0  0  0  0
  -25.3940  -36.3220   23.9070 C   0  0  0  0  0  3  0  0  0  0  0  0
  -27.5220  -37.2280   24.7290 C   0  0  0  0  0  1  0  0  0  0  0  0
  -26.4180  -37.3840   23.7870 N   0  0  0  0  0  0  0  0  0  0  0  0
  -26.0030  -38.3000   23.9320 H   0  0  0  0  0  0  0  0  0  0  0  0
  -29.2350  -20.0740   20.1170 C   0  0  0  0  0  2  0  0  0  0  0  0
  -29.4590  -17.9310   21.4900 C   0  0  0  0  0  2  0  0  0  0  0  0
  -30.2870  -17.7680   19.6510 C   0  0  0  0  0  2  0  0  0  0  0  0
  -30.4610  -16.9160   20.9130 C   0  0  0  0  0  3  0  0  0  0  0  0
  -30.0710  -18.9090   20.5650 N   0  0  1  0  0  4  0  0  0  0  0  0
  -30.9510  -19.2310   20.9360 H   0  0  0  0  0  0  0  0  0  0  0  0
  -30.7240  -14.4840   20.2770 C   0  0  0  0  0  0  0  0  0  0  0  0
  -30.4110  -12.3230   19.1210 C   0  0  0  0  0  2  0  0  0  0  0  0
  -29.4400  -12.5200   17.9370 C   0  0  0  0  0  2  0  0  0  0  0  0
  -27.9770  -12.3790   18.4020 C   0  0  0  0  0  2  0  0  0  0  0  0
  -27.6680  -13.2200   19.6700 C   0  0  0  0  0  3  0  0  0  0  0  0
  -28.7460  -12.9970   20.7550 C   0  0  0  0  0  2  0  0  0  0  0  0
  -30.0560  -13.3040   20.1590 N   0  0  0  0  0  0  0  0  0  0  0  0
  -31.8410  -14.6710   19.7870 O   0  0  0  0  0  0  0  0  0  0  0  0
  -30.0260  -15.5030   20.8280 N   0  0  0  0  0  0  0  0  0  0  0  0
  -29.1140  -15.2660   21.1920 H   0  0  0  0  0  0  0  0  0  0  0  0
  -25.2910  -13.8420   20.4350 C   0  0  0  0  0  0  0  0  0  0  0  0
  -24.2260  -13.0750   20.8260 C   0  0  0  0  0  0  0  0  0  0  0  0
  -24.6760  -11.7210   20.7790 C   0  0  0  0  0  0  0  0  0  0  0  0
  -26.3230  -12.9530   20.1770 N   0  0  0  0  0  0  0  0  0  0  0  0
  -25.9590  -11.6730   20.4420 N   0  0  0  0  0  0  0  0  0  0  0  0
  -23.9450  -10.4630   20.9810 C   0  0  0  0  0  0  0  0  0  0  0  0
  -24.3780   -9.5000   21.9180 C   0  0  0  0  0  3  0  0  0  0  0  0
  -23.6500   -8.3060   22.1060 C   0  0  0  0  0  3  0  0  0  0  0  0
  -22.4740   -8.0670   21.3550 C   0  0  0  0  0  0  0  0  0  0  0  0
  -22.0610   -9.0180   20.4060 C   0  0  0  0  0  3  0  0  0  0  0  0
  -22.7900  -10.2040   20.2160 C   0  0  0  0  0  3  0  0  0  0  0  0
  -21.7150   -6.9250   21.4520 O   0  0  0  0  0  0  0  0  0  0  0  0
  -21.6510   -6.2010   22.6150 C   0  0  0  0  0  0  0  0  0  0  0  0
  -21.1810   -6.7660   23.8200 C   0  0  0  0  0  3  0  0  0  0  0  0
  -21.0660   -5.9670   24.9750 C   0  0  0  0  0  3  0  0  0  0  0  0
  -21.4110   -4.6030   24.9260 C   0  0  0  0  0  0  0  0  0  0  0  0
  -21.8740   -4.0370   23.7250 C   0  0  0  0  0  3  0  0  0  0  0  0
  -21.9910   -4.8330   22.5720 C   0  0  0  0  0  0  0  0  0  0  0  0
  -22.4180   -4.2770   21.4130 F   0  0  0  0  0  0  0  0  0  0  0  0
  -21.2920   -3.8330   26.0330 F   0  0  0  0  0  0  0  0  0  0  0  0
  -22.8390  -13.5620   21.1330 C   0  0  0  0  0  0  0  0  0  0  0  0
  -22.1230  -12.8640   22.0080 N   0  0  0  0  0  0  0  0  0  0  0  0
  -22.3980  -14.5950   20.6310 O   0  0  0  0  0  0  0  0  0  0  0  0
  -22.4930  -12.0270   22.4350 H   0  0  0  0  0  0  0  0  0  0  0  0
  -21.1930  -13.1700   22.2540 H   0  0  0  0  0  0  0  0  0  0  0  0
  -25.4630  -15.2120   20.2580 N   0  0  0  0  0  0  0  0  0  0  0  0
  -24.6960  -15.8660   20.3680 H   0  0  0  0  0  0  0  0  0  0  0  0
  -26.2940  -15.6380   19.8710 H   0  0  0  0  0  0  0  0  0  0  0  0
  2  1  2  0
  2  7  1  0
  3  1  1  0
  3 57  1  0
  4  2  1  0
  5  3  2  0
  6  4  2  0
  6  5  1  0
  8  4  1  0
  9  5  1  0
 10  6  1  0
 11 14  1  0
 11 12  1  0
 12 15  1  0
 13 14  1  0
 13 15  1  0
 14  1  1  0
 15 16  1  0
 16 18  1  0
 17 28  2  0
 18 23  1  0
 19 27  1  0
 19 29  1  0
 20 26  1  0
 20 22  1  0
 21 27  1  0
 22 23  2  0
 22 21  1  0
 24 25  1  0
 24 18  2  0
 25 20  2  0
 26 19  1  0
 27 17  1  0
 29 31  2  0
 30 29  1  0
 32 30  1  0
 33 42  2  0
 33 38  1  0
 34 30  1  0
 34 38  1  0
 35 34  1  0
 36 37  1  0
 36 35  1  0
 37 33  1  0
 38 39  2  0
 39 40  1  0
 41 40  2  0
 42 41  1  0
 43 17  1  0
 43 48  1  0
 43 44  1  0
 44 47  1  1
 44 45  1  0
 46 44  1  0
 48 51  1  0
 49 53  1  0
 49 48  1  0
 50 49  2  0
 53 52  1  0
 55 53  1  0
 55 56  1  0
 55 54  1  0
 57 61  1  0
 59 61  1  0
 59 60  1  0
 60 71  1  0
 60 58  1  0
 61 62  1  1
 61 58  1  0
 63 71  1  0
 64 69  1  0
 65 66  1  0
 65 64  1  0
 67 66  1  0
 67 76  1  0
 67 68  1  0
 69 63  1  0
 69 68  1  0
 70 63  2  0
 71 72  1  0
 73 74  2  0
 74 93  1  0
 75 74  1  0
 75 78  1  0
 76 73  1  0
 76 77  1  0
 77 75  2  0
 78 79  1  0
 79 80  2  0
 81 84  1  0
 81 80  1  0
 82 81  2  0
 83 82  1  0
 83 78  2  0
 84 85  1  0
 85 86  1  0
 86 87  2  0
 88 87  1  0
 88 92  1  0
 89 88  2  0
 90 85  2  0
 90 89  1  0
 91 90  1  0
 93 94  1  0
 94 97  1  0
 94 96  1  0
 95 93  2  0
 98 99  1  0
 98 73  1  0
100 98  1  0
M  ISO  4  15 101  16 101  63 100  71 100
M  END
>  <TORSDO>  (28) 
F 19

>  <SCORE>  (28) 
-14.222

>  <name>  (28) 
27

>  <ligand_id>  (28) 
27

>  <original_smiles>  (28) 
[H]c1c([H])c([H])c2c(c1[H])C([H])([H])C([H])([H])C([H])([H])C2([H])N([H])C(=O)C1([H])N(C(=O)C([H])(N([H])C(=O)C([H])(N([H])C([H])([H])[H])C([H])([H])[H])C(C([H])([H])[H])(C([H])([H])[H])C([H])([H])[H])C([H])([H])c2c([H])c(OC3([H])C([H])([H])C([H])([H])C([H])(c4c(C([H])([H])[H])c(C([H])([H])[H])c(C([H])([H])[H])c(C([H])([H])[H])c4C([H])([H])[N+]4([H])C([H])([H])C([H])(N([H])C(=O)N5C([H])([H])C([H])([H])C([H])([H])C([H])(n6nc(-c7c([H])c([H])c(Oc8c([H])c([H])c(F)c([H])c8F)c([H])c7[H])c(C(=O)N([H])[H])c6N([H])[H])C5([H])[H])C4([H])[H])C3([H])[H])c([H])c([H])c2C1([H])[H]

>  <smiles>  (28) 
[H]c1c([H])c([H])c2c(c1[H])C([H])([H])C([H])([H])C([H])([H])C2([H])N([H])C(=O)C1([H])N(C(=O)C([H])(N([H])C(=O)C([H])(N([H])C([H])([H])[H])C([H])([H])[H])C(C([H])([H])[H])(C([H])([H])[H])C([H])([H])[H])C([H])([H])c2c([H])c(OC3([H])C([H])([H])C([H])([H])C([H])(c4c(C([H])([H])[H])c(C([H])([H])[H])c(C([H])([H])[H])c(C([H])([H])[H])c4C([H])([H])[N+]4([H])C([H])([H])C([H])(N([H])C(=O)N5C([H])([H])C([H])([H])C([H])([H])C([H])(n6nc(-c7c([H])c([H])c(Oc8c([H])c([H])c(F)c([H])c8F)c([H])c7[H])c(C(=O)N([H])[H])c6N([H])[H])C5([H])[H])C4([H])[H])C3([H])[H])c([H])c([H])c2C1([H])[H]

$$$$
28:0:0
     RDKit          3D

 99106  0  0  1  0  0  0  0  0999 V2000
  -24.2220  -29.3310   19.6370 C   0  0  0  0  0  2  0  0  0  0  0  0
  -24.3840  -29.0740   17.9610 C   0  0  0  0  0  0  0  0  0  0  0  0
  -24.9680  -27.5920   17.4050 C   0  0  0  0  0  0  0  0  0  0  0  0
  -25.6290  -26.3180   18.2540 C   0  0  0  0  0  3  0  0  0  0  0  0
  -25.5700  -25.8670   19.7300 C   0  0  0  0  0  2  0  0  0  0  0  0
  -24.8120  -27.2410   20.7640 C   0  0  0  0  0  3  0  0  0  0  0  0
  -23.9500  -30.1450   16.9840 C   0  0  0  0  0  1  0  0  0  0  0  0
  -25.1140  -27.4800   15.9000 C   0  0  0  0  0  1  0  0  0  0  0  0
  -24.9660  -25.6840   22.5250 C   0  0  0  0  0  1  0  0  0  0  0  0
  -24.6570  -26.9820   22.1010 O   0  0  0  0  0  0  0  0  0  0  0  0
  -27.2500  -26.0950   18.2770 C   0  0  0  0  0  2  0  0  0  0  0  0
  -27.9860  -26.1030   19.7180 O   0  0  0  0  0  0  0  0  0  0  0  0
  -26.3990  -30.3440   25.2650 C   0  0  0  0  0  0  0  0  0  0  0  0
  -28.8720  -27.1100   20.1090 C   0  0  0  0  0  3  0  0  0  0  0  0
  -24.7000  -29.6250   23.2630 C   0  0  0  0  0  2  0  0  0  0  0  0
  -27.1090  -28.6340   20.3980 C   0  0  0  0  0  2  0  0  0  0  0  0
  -27.7740  -29.6080   23.1610 C   0  0  0  0  0  2  0  0  0  0  0  0
  -28.1420  -28.9190   21.5710 C   0  0  0  0  0  3  0  0  0  0  0  0
  -28.8820  -27.7250   21.4280 C   0  0  0  0  0  2  0  0  0  0  0  0
  -28.6690  -28.0280   19.0850 C   0  0  0  0  0  2  0  0  0  0  0  0
  -27.6730  -28.9430   19.2130 C   0  0  0  0  0  2  0  0  0  0  0  0
  -24.3230  -28.7690   21.4090 C   0  0  0  0  0  2  0  0  0  0  0  0
  -26.2950  -29.8540   23.9480 N   0  0  0  0  0  0  0  0  0  0  0  0
  -25.4230  -30.8330   25.8540 O   0  0  0  0  0  0  0  0  0  0  0  0
  -23.7410  -29.1100   24.0740 C   0  0  0  0  0  0  0  0  0  0  0  0
  -22.5910  -29.1340   23.4480 N   0  0  0  0  0  0  0  0  0  0  0  0
  -24.0980  -28.4610   25.0340 O   0  0  0  0  0  0  0  0  0  0  0  0
  -22.4800  -29.7070   22.6240 H   0  0  0  0  0  0  0  0  0  0  0  0
  -19.4540  -28.0680   22.3930 C   0  0  0  0  0  0  0  0  0  0  0  0
  -21.6310  -28.1290   23.6720 C   0  0  0  0  0  3  0  0  0  0  0  0
  -21.9990  -26.8260   22.9320 C   0  0  0  0  0  2  0  0  0  0  0  0
  -21.4520  -26.7740   21.5100 C   0  0  0  0  0  2  0  0  0  0  0  0
  -19.9240  -26.8580   21.5960 C   0  0  0  0  0  2  0  0  0  0  0  0
  -20.2970  -28.7090   23.3230 C   0  0  0  0  0  0  0  0  0  0  0  0
  -19.8910  -29.8970   23.9670 C   0  0  0  0  0  3  0  0  0  0  0  0
  -18.6090  -30.4150   23.7340 C   0  0  0  0  0  3  0  0  0  0  0  0
  -17.7360  -29.7360   22.8690 C   0  0  0  0  0  3  0  0  0  0  0  0
  -18.1560  -28.5730   22.1960 C   0  0  0  0  0  3  0  0  0  0  0  0
  -27.7250  -30.2930   26.1540 C   0  0  0  0  0  3  0  0  0  0  0  0
  -28.0600  -31.6430   26.6940 N   0  0  0  0  0  0  0  0  0  0  0  0
  -29.1090  -32.4170   26.3600 C   0  0  0  0  0  0  0  0  0  0  0  0
  -29.9390  -32.0750   25.5160 O   0  0  0  0  0  0  0  0  0  0  0  0
  -27.3810  -32.0270   27.3350 H   0  0  0  0  0  0  0  0  0  0  0  0
  -28.7230  -34.9110   26.1520 C   0  0  0  0  0  1  0  0  0  0  0  0
  -29.2610  -33.7930   27.0610 C   0  0  0  0  0  3  0  0  0  0  0  0
  -31.1770  -33.2970   28.5290 C   0  0  0  0  0  1  0  0  0  0  0  0
  -30.6530  -34.1260   27.4480 N   0  0  0  0  0  0  0  0  0  0  0  0
  -30.7200  -35.0980   27.7350 H   0  0  0  0  0  0  0  0  0  0  0  0
  -27.6040  -29.3010   27.3920 C   0  0  1  0  0  0  0  0  0  0  0  0
  -26.3140  -29.5320   28.2170 C   0  0  0  0  0  1  0  0  0  0  0  0
  -27.6080  -27.8320   26.9510 C   0  0  0  0  0  1  0  0  0  0  0  0
  -28.8150  -29.4150   28.3510 C   0  0  0  0  0  1  0  0  0  0  0  0
  -26.5220  -23.9280   19.6580 C   0  0  0  0  0  1  0  0  0  0  0  0
  -32.6350  -17.8170   18.8650 C   0  0  0  0  0  0  0  0  0  0  0  0
  -34.0290  -15.4330   18.1380 C   0  0  0  0  0  2  0  0  0  0  0  0
  -33.5180  -14.3430   17.1130 C   0  0  0  0  0  2  0  0  0  0  0  0
  -32.4800  -13.4150   17.7480 C   0  0  0  0  0  2  0  0  0  0  0  0
  -31.5900  -14.2530   18.6770 C   0  0  0  0  0  3  0  0  0  0  0  0
  -32.3370  -15.1850   19.6620 C   0  0  0  0  0  2  0  0  0  0  0  0
  -32.8980  -16.2960   18.8530 N   0  0  0  0  0  0  0  0  0  0  0  0
  -33.8140  -18.1620   18.5230 O   0  0  0  0  0  0  0  0  0  0  0  0
  -28.9340  -21.1880   18.2370 C   0  0  0  0  0  2  0  0  0  0  0  0
  -29.1660  -21.2500   20.2420 C   0  0  0  0  0  2  0  0  0  0  0  0
  -30.5200  -20.1350   18.1240 C   0  0  0  0  0  2  0  0  0  0  0  0
  -30.6400  -20.0360   20.1070 C   0  0  0  0  0  2  0  0  0  0  0  0
  -28.2860  -22.5530   19.2790 C   0  0  0  0  0  2  0  0  0  0  0  0
  -31.2780  -18.8950   19.0130 N   0  0  0  0  0  0  0  0  0  0  0  0
  -29.2410  -13.9150   19.4710 C   0  0  0  0  0  0  0  0  0  0  0  0
  -28.6040  -12.8860   20.0920 C   0  0  0  0  0  0  0  0  0  0  0  0
  -29.6010  -11.8880   20.3320 C   0  0  0  0  0  0  0  0  0  0  0  0
  -30.5520  -13.5120   19.3450 N   0  0  0  0  0  0  0  0  0  0  0  0
  -30.7940  -12.3140   19.9290 N   0  0  0  0  0  0  0  0  0  0  0  0
  -29.4650  -10.5280   20.8650 C   0  0  0  0  0  0  0  0  0  0  0  0
  -30.5700   -9.8220   21.3860 C   0  0  0  0  0  3  0  0  0  0  0  0
  -30.4040   -8.5240   21.9160 C   0  0  0  0  0  3  0  0  0  0  0  0
  -29.1230   -7.9240   21.9320 C   0  0  0  0  0  0  0  0  0  0  0  0
  -28.0300   -8.6240   21.3920 C   0  0  0  0  0  3  0  0  0  0  0  0
  -28.1990   -9.9120   20.8590 C   0  0  0  0  0  3  0  0  0  0  0  0
  -28.8700   -6.6590   22.4050 O   0  0  0  0  0  0  0  0  0  0  0  0
  -29.8820   -5.8250   22.8060 C   0  0  0  0  0  0  0  0  0  0  0  0
  -31.1300   -6.3240   23.2370 C   0  0  0  0  0  3  0  0  0  0  0  0
  -32.1180   -5.4350   23.7090 C   0  0  0  0  0  3  0  0  0  0  0  0
  -31.8560   -4.0530   23.7570 C   0  0  0  0  0  0  0  0  0  0  0  0
  -30.6090   -3.5560   23.3370 C   0  0  0  0  0  3  0  0  0  0  0  0
  -29.6250   -4.4410   22.8650 C   0  0  0  0  0  0  0  0  0  0  0  0
  -28.4190   -3.9600   22.4780 F   0  0  0  0  0  0  0  0  0  0  0  0
  -32.8000   -3.1990   24.2170 F   0  0  0  0  0  0  0  0  0  0  0  0
  -27.1310  -12.7980   20.3430 C   0  0  0  0  0  0  0  0  0  0  0  0
  -26.7350  -12.1410   21.4240 N   0  0  0  0  0  0  0  0  0  0  0  0
  -26.3230  -13.3670   19.6070 O   0  0  0  0  0  0  0  0  0  0  0  0
  -27.3990  -11.6970   22.0380 H   0  0  0  0  0  0  0  0  0  0  0  0
  -25.7500  -12.0800   21.6410 H   0  0  0  0  0  0  0  0  0  0  0  0
  -28.8220  -15.1480   18.9710 N   0  0  0  0  0  0  0  0  0  0  0  0
  -27.8500  -15.4360   18.9990 H   0  0  0  0  0  0  0  0  0  0  0  0
  -29.4140  -15.8000   18.4770 H   0  0  0  0  0  0  0  0  0  0  0  0
  -25.7240  -22.9830   20.5980 C   0  0  0  0  0  2  0  0  0  0  0  0
  -23.1510  -23.0950   21.1350 C   0  0  0  0  0  2  0  0  0  0  0  0
  -23.8400  -22.8980   22.4570 C   0  0  0  0  0  2  0  0  0  0  0  0
  -24.5560  -23.6310   21.3370 C   0  0  0  0  0  3  0  0  0  0  0  0
  1 22  1  0
  2  1  1  0
  3  2  2  0
  3  4  1  0
  4 11  1  0
  4  5  1  0
  5  6  1  0
  6 22  1  0
  6 10  1  0
  7  2  1  0
  8  3  1  0
 10  9  1  0
 11 12  1  0
 13 24  2  0
 14 12  1  0
 14 19  1  0
 15 23  1  0
 15 25  1  0
 16 18  1  0
 17 23  1  0
 18 17  1  0
 19 18  1  0
 20 21  1  0
 20 14  1  0
 21 16  1  0
 23 13  1  0
 25 27  2  0
 26 25  1  0
 28 26  1  0
 29 34  1  0
 30 26  1  0
 31 30  1  0
 32 33  1  0
 32 31  1  0
 33 29  1  0
 34 30  1  0
 34 35  2  0
 36 35  1  0
 37 36  2  0
 38 29  2  0
 38 37  1  0
 39 13  1  0
 39 40  1  0
 39 49  1  0
 40 43  1  0
 41 40  1  0
 41 45  1  0
 42 41  2  0
 45 44  1  0
 45 47  1  0
 47 48  1  0
 47 46  1  0
 49 50  1  1
 49 52  1  0
 51 49  1  0
 53 96  1  0
 54 67  1  0
 55 60  1  0
 56 57  1  0
 56 55  1  0
 58 57  1  0
 58 71  1  0
 58 59  1  0
 60 54  1  0
 60 59  1  0
 61 54  2  0
 62 66  1  0
 64 62  1  0
 64 67  1  0
 65 63  1  0
 66 63  1  0
 67 65  1  0
 68 69  2  0
 69 70  1  0
 69 88  1  0
 70 73  1  0
 71 68  1  0
 71 72  1  0
 72 70  2  0
 73 74  1  0
 74 75  2  0
 75 76  1  0
 76 79  1  0
 77 76  2  0
 78 73  2  0
 78 77  1  0
 79 80  1  0
 80 85  2  0
 80 81  1  0
 81 82  2  0
 82 83  1  0
 83 87  1  0
 84 83  2  0
 85 84  1  0
 86 85  1  0
 88 89  1  0
 89 92  1  0
 89 91  1  0
 90 88  2  0
 93 94  1  0
 93 68  1  0
 95 93  1  0
 96 99  1  0
 97 99  1  0
 97 98  1  0
 99 98  1  0
M  ISO  4  11 101  12 101  54 100  67 100
M  END
>  <TORSDO>  (29) 
F 21

>  <SCORE>  (29) 
-2.788

>  <name>  (29) 
28

>  <ligand_id>  (29) 
28

>  <original_smiles>  (29) 
[H]c1c([H])c([H])c2c(c1[H])C([H])([H])C([H])([H])C([H])([H])C2([H])N([H])C(=O)C1([H])N(C(=O)C([H])(N([H])C(=O)C([H])(N([H])C([H])([H])[H])C([H])([H])[H])C(C([H])([H])[H])(C([H])([H])[H])C([H])([H])[H])C([H])([H])c2c([H])c(OC([H])([H])c3c(C([H])([H])[H])c(C([H])([H])[H])c([H])c(OC([H])([H])[H])c3C([H])(C([H])([H])C3([H])C([H])([H])C3([H])[H])C3([H])C([H])([H])C([H])([H])N(C(=O)N4C([H])([H])C([H])([H])C([H])([H])C([H])(n5nc(-c6c([H])c([H])c(Oc7c([H])c([H])c(F)c([H])c7F)c([H])c6[H])c(C(=O)N([H])[H])c5N([H])[H])C4([H])[H])C([H])([H])C3([H])[H])c([H])c([H])c2C1([H])[H]

>  <smiles>  (29) 
[H]c1c([H])c([H])c2c(c1[H])C([H])([H])C([H])([H])C([H])([H])C2([H])N([H])C(=O)C1([H])N(C(=O)C([H])(N([H])C(=O)C([H])(N([H])C([H])([H])[H])C([H])([H])[H])C(C([H])([H])[H])(C([H])([H])[H])C([H])([H])[H])C([H])([H])c2c([H])c(OC([H])([H])c3c(C([H])([H])[H])c(C([H])([H])[H])c([H])c(OC([H])([H])[H])c3C([H])(C([H])([H])C3([H])C([H])([H])C3([H])[H])C3([H])C([H])([H])C([H])([H])N(C(=O)N4C([H])([H])C([H])([H])C([H])([H])C([H])(n5nc(-c6c([H])c([H])c(Oc7c([H])c([H])c(F)c([H])c7F)c([H])c6[H])c(C(=O)N([H])[H])c5N([H])[H])C4([H])[H])C([H])([H])C3([H])[H])c([H])c([H])c2C1([H])[H]

$$$$
29:0:0
     RDKit          3D

 95104  0  0  1  0  0  0  0  0999 V2000
  -29.6350  -20.0060   20.8720 C   0  0  0  0  0  2  0  0  0  0  0  0
  -29.7090  -19.9510   18.4630 C   0  0  0  0  0  2  0  0  0  0  0  0
  -29.1830  -17.4080   18.9030 C   0  0  0  0  0  2  0  0  0  0  0  0
  -30.1530  -18.5440   20.4810 C   0  0  0  0  0  3  0  0  0  0  0  0
  -29.0730  -20.8050   19.6150 C   0  0  0  0  0  3  0  0  0  0  0  0
  -29.2710  -17.2140   20.4140 C   0  0  0  0  0  3  0  0  0  0  0  0
  -30.2180  -18.5620   18.9480 C   0  0  2  0  0  0  0  0  0  0  0  0
  -30.5440  -14.7820   20.4000 C   0  0  0  0  0  0  0  0  0  0  0  0
  -30.4120  -12.5100   19.3610 C   0  0  0  0  0  2  0  0  0  0  0  0
  -29.4680  -12.6140   18.1400 C   0  0  0  0  0  2  0  0  0  0  0  0
  -27.9940  -12.4360   18.5600 C   0  0  0  0  0  2  0  0  0  0  0  0
  -27.6270  -13.2920   19.7990 C   0  0  0  0  0  3  0  0  0  0  0  0
  -28.6820  -13.1410   20.9190 C   0  0  0  0  0  2  0  0  0  0  0  0
  -29.9860  -13.5230   20.3560 N   0  0  0  0  0  0  0  0  0  0  0  0
  -31.6730  -14.9790   19.9430 O   0  0  0  0  0  0  0  0  0  0  0  0
  -29.7050  -15.7980   20.8300 N   0  0  0  0  0  0  0  0  0  0  0  0
  -28.9600  -15.3700   21.3600 H   0  0  0  0  0  0  0  0  0  0  0  0
  -25.2320  -13.8860   20.5100 C   0  0  0  0  0  0  0  0  0  0  0  0
  -24.1640  -13.1120   20.8770 C   0  0  0  0  0  0  0  0  0  0  0  0
  -24.6290  -11.7610   20.8480 C   0  0  0  0  0  0  0  0  0  0  0  0
  -26.2770  -13.0070   20.2780 N   0  0  0  0  0  0  0  0  0  0  0  0
  -25.9200  -11.7230   20.5410 N   0  0  0  0  0  0  0  0  0  0  0  0
  -23.9040  -10.4980   21.0390 C   0  0  0  0  0  0  0  0  0  0  0  0
  -24.3360   -9.5330   21.9740 C   0  0  0  0  0  3  0  0  0  0  0  0
  -23.6120   -8.3330   22.1520 C   0  0  0  0  0  3  0  0  0  0  0  0
  -22.4430   -8.0910   21.3930 C   0  0  0  0  0  0  0  0  0  0  0  0
  -22.0300   -9.0460   20.4460 C   0  0  0  0  0  3  0  0  0  0  0  0
  -22.7540  -10.2360   20.2670 C   0  0  0  0  0  3  0  0  0  0  0  0
  -21.6890   -6.9460   21.4790 O   0  0  0  0  0  0  0  0  0  0  0  0
  -21.6370   -6.2050   22.6330 C   0  0  0  0  0  0  0  0  0  0  0  0
  -21.1980   -6.7590   23.8560 C   0  0  0  0  0  3  0  0  0  0  0  0
  -21.0940   -5.9440   25.0010 C   0  0  0  0  0  3  0  0  0  0  0  0
  -21.4180   -4.5760   24.9240 C   0  0  0  0  0  0  0  0  0  0  0  0
  -21.8490   -4.0210   23.7060 C   0  0  0  0  0  3  0  0  0  0  0  0
  -21.9550   -4.8330   22.5630 C   0  0  0  0  0  0  0  0  0  0  0  0
  -22.3520   -4.2900   21.3870 F   0  0  0  0  0  0  0  0  0  0  0  0
  -21.3110   -3.7910   26.0210 F   0  0  0  0  0  0  0  0  0  0  0  0
  -22.7660  -13.5870   21.1490 C   0  0  0  0  0  0  0  0  0  0  0  0
  -22.0340  -12.8860   22.0080 N   0  0  0  0  0  0  0  0  0  0  0  0
  -22.3310  -14.6150   20.6330 O   0  0  0  0  0  0  0  0  0  0  0  0
  -22.3990  -12.0540   22.4480 H   0  0  0  0  0  0  0  0  0  0  0  0
  -21.0960  -13.1880   22.2310 H   0  0  0  0  0  0  0  0  0  0  0  0
  -25.3960  -15.2570   20.3340 N   0  0  0  0  0  0  0  0  0  0  0  0
  -24.6300  -15.9130   20.4460 H   0  0  0  0  0  0  0  0  0  0  0  0
  -26.2490  -15.6950   20.0100 H   0  0  0  0  0  0  0  0  0  0  0  0
  -31.4780  -18.1160   16.7500 C   0  0  0  0  0  1  0  0  0  0  0  0
  -32.7540  -19.1080   18.7110 C   0  0  0  0  0  1  0  0  0  0  0  0
  -31.5740  -18.2120   18.2830 C   0  0  0  0  0  3  0  0  0  0  0  0
  -28.8120  -22.6840   17.8560 C   0  0  0  0  0  1  0  0  0  0  0  0
  -29.2040  -22.4370   19.3420 C   0  0  0  0  0  3  0  0  0  0  0  0
  -28.4970  -23.6420   20.2030 C   0  0  0  0  0  3  0  0  0  0  0  0
  -27.1490  -23.2510   20.3980 O   0  0  0  0  0  0  0  0  0  0  0  0
  -26.7420  -23.1990   19.5400 H   0  0  0  0  0  0  0  0  0  0  0  0
  -28.4690  -25.1550   19.5600 C   0  0  0  0  0  2  0  0  0  0  0  0
  -28.3250  -26.4600   20.2910 O   0  0  0  0  0  0  0  0  0  0  0  0
  -24.5810  -31.9220   23.2310 C   0  0  0  0  0  0  0  0  0  0  0  0
  -27.1990  -27.3130   20.1960 C   0  0  0  0  0  0  0  0  0  0  0  0
  -23.3830  -30.5200   21.5910 C   0  0  0  0  0  3  0  0  0  0  0  0
  -24.8360  -28.9570   20.1710 C   0  0  0  0  0  0  0  0  0  0  0  0
  -25.9250  -30.8240   21.4180 C   0  0  0  0  0  2  0  0  0  0  0  0
  -26.0040  -29.4390   20.7740 C   0  0  0  0  0  0  0  0  0  0  0  0
  -27.1820  -28.6270   20.7800 C   0  0  0  0  0  3  0  0  0  0  0  0
  -26.0010  -26.8900   19.5790 C   0  0  0  0  0  3  0  0  0  0  0  0
  -24.8390  -27.6900   19.5660 C   0  0  0  0  0  3  0  0  0  0  0  0
  -23.6000  -29.8360   20.2150 C   0  0  0  0  0  2  0  0  0  0  0  0
  -24.6490  -31.1070   22.1360 N   0  0  0  0  0  0  0  0  0  0  0  0
  -23.4970  -32.2040   23.7600 O   0  0  0  0  0  0  0  0  0  0  0  0
  -22.7130  -29.5110   22.5540 C   0  0  0  0  0  0  0  0  0  0  0  0
  -21.3850  -29.3400   22.4290 N   0  0  0  0  0  0  0  0  0  0  0  0
  -23.3870  -28.8820   23.3750 O   0  0  0  0  0  0  0  0  0  0  0  0
  -20.9000  -29.8960   21.7390 H   0  0  0  0  0  0  0  0  0  0  0  0
  -18.0000  -28.1740   22.9440 C   0  0  0  0  0  0  0  0  0  0  0  0
  -20.5620  -28.4080   23.2010 C   0  0  0  0  0  3  0  0  0  0  0  0
  -20.6470  -26.9780   22.6190 C   0  0  0  0  0  2  0  0  0  0  0  0
  -19.5370  -26.6710   21.6100 C   0  0  0  0  0  2  0  0  0  0  0  0
  -18.1600  -26.8260   22.2600 C   0  0  0  0  0  2  0  0  0  0  0  0
  -19.1280  -28.9230   23.3720 C   0  0  0  0  0  0  0  0  0  0  0  0
  -18.9240  -30.1850   23.9710 C   0  0  0  0  0  3  0  0  0  0  0  0
  -17.6250  -30.6970   24.1470 C   0  0  0  0  0  3  0  0  0  0  0  0
  -16.5110  -29.9440   23.7370 C   0  0  0  0  0  3  0  0  0  0  0  0
  -16.7000  -28.6850   23.1410 C   0  0  0  0  0  3  0  0  0  0  0  0
  -25.8620  -32.5570   23.8560 C   0  0  0  0  0  3  0  0  0  0  0  0
  -25.5530  -33.9580   24.1780 N   0  0  0  0  0  0  0  0  0  0  0  0
  -25.8960  -35.0090   23.4210 C   0  0  0  0  0  0  0  0  0  0  0  0
  -26.5760  -34.9000   22.3960 O   0  0  0  0  0  0  0  0  0  0  0  0
  -24.9510  -34.1150   24.9720 H   0  0  0  0  0  0  0  0  0  0  0  0
  -24.1870  -36.8150   23.0370 C   0  0  0  0  0  1  0  0  0  0  0  0
  -25.4100  -36.4010   23.8700 C   0  0  0  0  0  3  0  0  0  0  0  0
  -27.5340  -37.2720   24.7420 C   0  0  0  0  0  1  0  0  0  0  0  0
  -26.4520  -37.4470   23.7780 N   0  0  0  0  0  0  0  0  0  0  0  0
  -26.0480  -38.3700   23.9170 H   0  0  0  0  0  0  0  0  0  0  0  0
  -26.3690  -31.7940   25.1420 C   0  0  1  0  0  0  0  0  0  0  0  0
  -25.2670  -31.5650   26.2040 C   0  0  0  0  0  1  0  0  0  0  0  0
  -26.9510  -30.4120   24.7650 C   0  0  0  0  0  1  0  0  0  0  0  0
  -27.5180  -32.5900   25.8050 C   0  0  0  0  0  1  0  0  0  0  0  0
  2  7  1  0
  2  5  1  0
  3  7  1  0
  3  6  1  0
  4  1  1  0
  5 50  1  0
  5  1  1  0
  6  4  1  0
  6 16  1  0
  7 48  1  1
  7  4  1  0
  8 16  1  0
  9 14  1  0
 10 11  1  0
 10  9  1  0
 12 11  1  0
 12 21  1  0
 12 13  1  0
 14  8  1  0
 14 13  1  0
 15  8  2  0
 16 17  1  0
 18 19  2  0
 19 38  1  0
 20 19  1  0
 20 23  1  0
 21 18  1  0
 21 22  1  0
 22 20  2  0
 23 24  1  0
 24 25  2  0
 26 29  1  0
 26 25  1  0
 27 26  2  0
 28 27  1  0
 28 23  2  0
 29 30  1  0
 30 31  1  0
 31 32  2  0
 33 32  1  0
 33 37  1  0
 34 33  2  0
 35 30  2  0
 35 34  1  0
 36 35  1  0
 38 39  1  0
 39 42  1  0
 39 41  1  0
 40 38  2  0
 43 44  1  0
 43 18  1  0
 45 43  1  0
 46 48  1  0
 48 47  1  0
 50 49  1  0
 50 51  1  0
 51 54  1  0
 51 52  1  0
 53 52  1  0
 54 55  1  0
 56 67  2  0
 57 55  1  0
 57 62  1  0
 58 66  1  0
 58 68  1  0
 59 65  1  0
 59 61  1  0
 60 66  1  0
 61 62  2  0
 61 60  1  0
 63 57  2  0
 64 63  1  0
 64 59  2  0
 65 58  1  0
 66 56  1  0
 68 70  2  0
 69 68  1  0
 71 69  1  0
 72 81  2  0
 72 77  1  0
 73 69  1  0
 73 77  1  0
 74 73  1  0
 75 76  1  0
 75 74  1  0
 76 72  1  0
 77 78  2  0
 78 79  1  0
 80 79  2  0
 81 80  1  0
 82 56  1  0
 82 83  1  0
 82 92  1  0
 83 86  1  0
 84 88  1  0
 84 83  1  0
 85 84  2  0
 88 87  1  0
 90 88  1  0
 90 91  1  0
 90 89  1  0
 92 95  1  1
 92 93  1  0
 94 92  1  0
M  ISO  4   8 100  16 100  54 101  55 101
M  END
>  <TORSDO>  (30) 
F 21

>  <SCORE>  (30) 
-13.956

>  <name>  (30) 
29

>  <ligand_id>  (30) 
29

>  <original_smiles>  (30) 
[H]OC([H])(C([H])([H])Oc1c([H])c([H])c2c(c1[H])C([H])([H])N(C(=O)C([H])(N([H])C(=O)C([H])(N([H])C([H])([H])[H])C([H])([H])[H])C(C([H])([H])[H])(C([H])([H])[H])C([H])([H])[H])C([H])(C(=O)N([H])C1([H])c3c([H])c([H])c([H])c([H])c3C([H])([H])C([H])([H])C1([H])[H])C2([H])[H])C([H])(C([H])([H])[H])C1([H])C([H])([H])C2([H])C([H])(N([H])C(=O)N3C([H])([H])C([H])([H])C([H])([H])C([H])(n4nc(-c5c([H])c([H])c(Oc6c([H])c([H])c(F)c([H])c6F)c([H])c5[H])c(C(=O)N([H])[H])c4N([H])[H])C3([H])[H])C([H])([H])C2(C([H])(C([H])([H])[H])C([H])([H])[H])C1([H])[H]

>  <smiles>  (30) 
[H]OC([H])(C([H])([H])Oc1c([H])c([H])c2c(c1[H])C([H])([H])N(C(=O)C([H])(N([H])C(=O)C([H])(N([H])C([H])([H])[H])C([H])([H])[H])C(C([H])([H])[H])(C([H])([H])[H])C([H])([H])[H])C([H])(C(=O)N([H])C1([H])c3c([H])c([H])c([H])c([H])c3C([H])([H])C([H])([H])C1([H])[H])C2([H])[H])C([H])(C([H])([H])[H])C1([H])C([H])([H])C2([H])C([H])(N([H])C(=O)N3C([H])([H])C([H])([H])C([H])([H])C([H])(n4nc(-c5c([H])c([H])c(Oc6c([H])c([H])c(F)c([H])c6F)c([H])c5[H])c(C(=O)N([H])[H])c4N([H])[H])C3([H])[H])C([H])([H])C2(C([H])(C([H])([H])[H])C([H])([H])[H])C1([H])[H]

$$$$
30:0:0
     RDKit          3D

 97109  0  0  1  0  0  0  0  0999 V2000
  -30.5620  -20.5500   20.6960 C   0  0  0  0  0  0  0  0  0  0  0  0
  -30.5140  -20.9140   22.0750 C   0  0  0  0  0  0  0  0  0  0  0  0
  -29.9890  -21.5120   19.7830 C   0  0  0  0  0  0  0  0  0  0  0  0
  -29.4370  -22.7480   20.2500 C   0  0  0  0  0  0  0  0  0  0  0  0
  -29.7800  -22.0720   22.4450 C   0  0  0  0  0  0  0  0  0  0  0  0
  -30.0670  -21.2700   18.2800 C   0  0  0  0  0  1  0  0  0  0  0  0
  -29.5240  -22.4480   23.8950 C   0  0  0  0  0  1  0  0  0  0  0  0
  -29.2950  -22.9670   21.5660 N   0  0  0  0  0  0  0  0  0  0  0  0
  -31.0470  -14.8500   20.0410 C   0  0  0  0  0  0  0  0  0  0  0  0
  -30.6650  -12.6410   18.9910 C   0  0  0  0  0  2  0  0  0  0  0  0
  -29.6960  -12.8110   17.8030 C   0  0  0  0  0  2  0  0  0  0  0  0
  -28.2360  -12.7080   18.2830 C   0  0  0  0  0  2  0  0  0  0  0  0
  -27.9470  -13.5850   19.5300 C   0  0  0  0  0  3  0  0  0  0  0  0
  -29.0380  -13.4180   20.6120 C   0  0  0  0  0  2  0  0  0  0  0  0
  -30.3360  -13.6850   19.9810 N   0  0  0  0  0  0  0  0  0  0  0  0
  -32.1940  -14.9210   19.5870 O   0  0  0  0  0  0  0  0  0  0  0  0
  -31.1060  -16.8880   21.4040 C   0  0  0  0  0  2  0  0  0  0  0  0
  -29.9620  -17.0250   19.5150 C   0  0  0  0  0  2  0  0  0  0  0  0
  -31.4240  -19.3880   20.1170 C   0  0  0  0  0  3  0  0  0  0  0  0
  -31.8240  -17.9950   20.6230 C   0  0  0  0  0  3  0  0  0  0  0  0
  -31.0360  -18.1100   19.3410 C   0  0  0  0  0  3  0  0  0  0  0  0
  -30.4080  -15.9870   20.4750 N   0  0  0  0  0  0  0  0  0  0  0  0
  -25.6100  -14.2500   20.3620 C   0  0  0  0  0  0  0  0  0  0  0  0
  -24.5290  -13.5070   20.7520 C   0  0  0  0  0  0  0  0  0  0  0  0
  -24.9390  -12.1410   20.6680 C   0  0  0  0  0  0  0  0  0  0  0  0
  -26.6110  -13.3390   20.0630 N   0  0  0  0  0  0  0  0  0  0  0  0
  -26.2140  -12.0640   20.3080 N   0  0  0  0  0  0  0  0  0  0  0  0
  -24.1730  -10.9010   20.8530 C   0  0  0  0  0  0  0  0  0  0  0  0
  -24.5870   -9.9050   21.7640 C   0  0  0  0  0  3  0  0  0  0  0  0
  -23.8220   -8.7320   21.9390 C   0  0  0  0  0  3  0  0  0  0  0  0
  -22.6280   -8.5460   21.2030 C   0  0  0  0  0  0  0  0  0  0  0  0
  -22.2330   -9.5300   20.2800 C   0  0  0  0  0  3  0  0  0  0  0  0
  -22.9980  -10.6950   20.1020 C   0  0  0  0  0  3  0  0  0  0  0  0
  -21.8350   -7.4270   21.2870 O   0  0  0  0  0  0  0  0  0  0  0  0
  -21.7800   -6.6680   22.4300 C   0  0  0  0  0  0  0  0  0  0  0  0
  -21.3770   -7.2130   23.6670 C   0  0  0  0  0  3  0  0  0  0  0  0
  -21.2670   -6.3820   24.8000 C   0  0  0  0  0  3  0  0  0  0  0  0
  -21.5510   -5.0070   24.6970 C   0  0  0  0  0  0  0  0  0  0  0  0
  -21.9480   -4.4620   23.4630 C   0  0  0  0  0  3  0  0  0  0  0  0
  -22.0590   -5.2900   22.3320 C   0  0  0  0  0  0  0  0  0  0  0  0
  -22.4210   -4.7550   21.1410 F   0  0  0  0  0  0  0  0  0  0  0  0
  -21.4400   -4.2070   25.7830 F   0  0  0  0  0  0  0  0  0  0  0  0
  -23.1630  -14.0280   21.0900 C   0  0  0  0  0  0  0  0  0  0  0  0
  -22.4470  -13.3410   21.9740 N   0  0  0  0  0  0  0  0  0  0  0  0
  -22.7430  -15.0790   20.6080 O   0  0  0  0  0  0  0  0  0  0  0  0
  -22.8020  -12.4900   22.3850 H   0  0  0  0  0  0  0  0  0  0  0  0
  -21.5300  -13.6710   22.2430 H   0  0  0  0  0  0  0  0  0  0  0  0
  -25.8220  -15.6180   20.2140 N   0  0  0  0  0  0  0  0  0  0  0  0
  -25.0920  -16.3010   20.3800 H   0  0  0  0  0  0  0  0  0  0  0  0
  -26.6870  -16.0330   19.8900 H   0  0  0  0  0  0  0  0  0  0  0  0
  -32.1970  -20.9060   24.1040 C   0  0  0  0  0  2  0  0  0  0  0  0
  -32.7670  -19.9510   23.1020 C   0  0  0  0  0  2  0  0  0  0  0  0
  -31.2650  -20.1690   23.1540 C   0  0  0  0  0  3  0  0  0  0  0  0
  -27.7150  -24.1140   18.7520 C   0  0  0  0  0  2  0  0  0  0  0  0
  -29.0890  -23.9800   19.3730 C   0  0  0  0  0  3  0  0  0  0  0  0
  -28.1240  -25.1290   19.7930 C   0  0  0  0  0  3  0  0  0  0  0  0
  -28.2420  -26.4940   19.2600 O   0  0  0  0  0  0  0  0  0  0  0  0
  -24.6030  -31.5020   22.9150 C   0  0  0  0  0  0  0  0  0  0  0  0
  -27.0930  -27.2790   19.3640 C   0  0  0  0  0  0  0  0  0  0  0  0
  -23.3080  -30.1610   21.2960 C   0  0  0  0  0  3  0  0  0  0  0  0
  -24.6800  -28.7630   19.6590 C   0  0  0  0  0  0  0  0  0  0  0  0
  -25.8060  -30.6000   20.9160 C   0  0  0  0  0  2  0  0  0  0  0  0
  -25.8770  -29.2710   20.1810 C   0  0  0  0  0  0  0  0  0  0  0  0
  -27.0880  -28.5420   20.0220 C   0  0  0  0  0  3  0  0  0  0  0  0
  -25.8710  -26.8130   18.8300 C   0  0  0  0  0  3  0  0  0  0  0  0
  -24.6760  -27.5380   18.9750 C   0  0  0  0  0  3  0  0  0  0  0  0
  -23.4220  -29.5810   19.8630 C   0  0  0  0  0  2  0  0  0  0  0  0
  -24.5960  -30.7680   21.7660 N   0  0  0  0  0  0  0  0  0  0  0  0
  -23.5630  -31.7050   23.5550 O   0  0  0  0  0  0  0  0  0  0  0  0
  -22.7670  -29.0620   22.2400 C   0  0  0  0  0  0  0  0  0  0  0  0
  -21.4550  -28.7860   22.1520 N   0  0  0  0  0  0  0  0  0  0  0  0
  -23.5230  -28.4620   23.0080 O   0  0  0  0  0  0  0  0  0  0  0  0
  -20.9000  -29.3270   21.5050 H   0  0  0  0  0  0  0  0  0  0  0  0
  -18.2230  -27.2380   22.6370 C   0  0  0  0  0  0  0  0  0  0  0  0
  -20.7390  -27.7640   22.9170 C   0  0  0  0  0  3  0  0  0  0  0  0
  -20.9930  -26.3530   22.3350 C   0  0  0  0  0  2  0  0  0  0  0  0
  -19.9330  -25.9220   21.3160 C   0  0  0  0  0  2  0  0  0  0  0  0
  -18.5420  -25.9180   21.9570 C   0  0  0  0  0  2  0  0  0  0  0  0
  -19.2540  -28.1110   23.0730 C   0  0  0  0  0  0  0  0  0  0  0  0
  -18.9020  -29.3430   23.6690 C   0  0  0  0  0  3  0  0  0  0  0  0
  -17.5500  -29.7020   23.8330 C   0  0  0  0  0  3  0  0  0  0  0  0
  -16.5350  -28.8270   23.4130 C   0  0  0  0  0  3  0  0  0  0  0  0
  -16.8710  -27.5970   22.8200 C   0  0  0  0  0  3  0  0  0  0  0  0
  -25.9160  -32.1430   23.4660 C   0  0  0  0  0  3  0  0  0  0  0  0
  -25.5790  -33.4850   23.9600 N   0  0  0  0  0  0  0  0  0  0  0  0
  -25.8490  -34.6250   23.3100 C   0  0  0  0  0  0  0  0  0  0  0  0
  -26.4790  -34.6570   22.2490 O   0  0  0  0  0  0  0  0  0  0  0  0
  -25.0150  -33.5320   24.7950 H   0  0  0  0  0  0  0  0  0  0  0  0
  -24.0590  -36.3890   23.2180 C   0  0  0  0  0  1  0  0  0  0  0  0
  -25.3410  -35.9380   23.9360 C   0  0  0  0  0  3  0  0  0  0  0  0
  -27.4800  -36.7950   24.7850 C   0  0  0  0  0  1  0  0  0  0  0  0
  -26.3390  -37.0300   23.9040 N   0  0  0  0  0  0  0  0  0  0  0  0
  -25.9120  -37.9150   24.1650 H   0  0  0  0  0  0  0  0  0  0  0  0
  -26.5940  -31.2840   24.6040 C   0  0  1  0  0  0  0  0  0  0  0  0
  -25.6290  -30.8960   25.7490 C   0  0  0  0  0  1  0  0  0  0  0  0
  -27.1860  -29.9800   24.0230 C   0  0  0  0  0  1  0  0  0  0  0  0
  -27.7760  -32.0710   25.2190 C   0  0  0  0  0  1  0  0  0  0  0  0
  1  2  1  0
  2  5  2  0
  2 53  1  0
  3  4  1  0
  3  1  2  0
  4  8  2  0
  5  7  1  0
  6  3  1  0
  8  5  1  0
  9 22  1  0
 10 15  1  0
 11 12  1  0
 11 10  1  0
 13 12  1  0
 13 26  1  0
 13 14  1  0
 15  9  1  0
 15 14  1  0
 16  9  2  0
 18 22  1  0
 19 20  1  0
 19  1  1  0
 20 17  1  0
 21 18  1  0
 21 19  1  0
 21 20  1  0
 22 17  1  0
 23 24  2  0
 24 43  1  0
 25 24  1  0
 25 28  1  0
 26 27  1  0
 26 23  1  0
 27 25  2  0
 28 29  1  0
 29 30  2  0
 31 34  1  0
 31 30  1  0
 32 31  2  0
 33 32  1  0
 33 28  2  0
 34 35  1  0
 35 36  1  0
 36 37  2  0
 38 37  1  0
 38 42  1  0
 39 38  2  0
 40 35  2  0
 40 39  1  0
 41 40  1  0
 43 44  1  0
 44 47  1  0
 44 46  1  0
 45 43  2  0
 48 23  1  0
 48 49  1  0
 50 48  1  0
 52 53  1  0
 52 51  1  0
 53 51  1  0
 54 55  1  0
 54 56  1  0
 55 56  1  0
 55  4  1  0
 56 57  1  0
 57 59  1  0
 58 69  2  0
 59 64  1  0
 60 68  1  0
 60 70  1  0
 61 67  1  0
 61 63  1  0
 62 68  1  0
 63 62  1  0
 64 63  2  0
 65 66  1  0
 65 59  2  0
 66 61  2  0
 67 60  1  0
 68 58  1  0
 70 72  2  0
 71 70  1  0
 73 71  1  0
 74 83  2  0
 74 79  1  0
 75 71  1  0
 75 79  1  0
 76 75  1  0
 77 78  1  0
 77 76  1  0
 78 74  1  0
 79 80  2  0
 80 81  1  0
 82 81  2  0
 83 82  1  0
 84 58  1  0
 84 85  1  0
 84 94  1  0
 85 88  1  0
 86 90  1  0
 86 85  1  0
 87 86  2  0
 90 89  1  0
 92 90  1  0
 92 93  1  0
 92 91  1  0
 94 97  1  1
 94 95  1  0
 96 94  1  0
M  ISO  4   9 100  22 100  56 101  57 101
M  END
>  <TORSDO>  (31) 
F 18

>  <SCORE>  (31) 
-13.644

>  <name>  (31) 
30

>  <ligand_id>  (31) 
30

>  <original_smiles>  (31) 
[H]c1c([H])c([H])c2c(c1[H])C([H])([H])C([H])([H])C([H])([H])C2([H])N([H])C(=O)C1([H])N(C(=O)C([H])(N([H])C(=O)C([H])(N([H])C([H])([H])[H])C([H])([H])[H])C(C([H])([H])[H])(C([H])([H])[H])C([H])([H])[H])C([H])([H])c2c([H])c(OC3([H])C([H])([H])C3([H])c3nc(C([H])([H])[H])c(C4([H])C([H])([H])C4([H])[H])c(C4([H])C5([H])C([H])([H])N(C(=O)N6C([H])([H])C([H])([H])C([H])([H])C([H])(n7nc(-c8c([H])c([H])c(Oc9c([H])c([H])c(F)c([H])c9F)c([H])c8[H])c(C(=O)N([H])[H])c7N([H])[H])C6([H])[H])C([H])([H])C45[H])c3C([H])([H])[H])c([H])c([H])c2C1([H])[H]

>  <smiles>  (31) 
[H]c1c([H])c([H])c2c(c1[H])C([H])([H])C([H])([H])C([H])([H])C2([H])N([H])C(=O)C1([H])N(C(=O)C([H])(N([H])C(=O)C([H])(N([H])C([H])([H])[H])C([H])([H])[H])C(C([H])([H])[H])(C([H])([H])[H])C([H])([H])[H])C([H])([H])c2c([H])c(OC3([H])C([H])([H])C3([H])c3nc(C([H])([H])[H])c(C4([H])C([H])([H])C4([H])[H])c(C4([H])C5([H])C([H])([H])N(C(=O)N6C([H])([H])C([H])([H])C([H])([H])C([H])(n7nc(-c8c([H])c([H])c(Oc9c([H])c([H])c(F)c([H])c9F)c([H])c8[H])c(C(=O)N([H])[H])c7N([H])[H])C6([H])[H])C([H])([H])C45[H])c3C([H])([H])[H])c([H])c([H])c2C1([H])[H]

$$$$
31:0:0
     RDKit          3D

108118  0  0  1  0  0  0  0  0999 V2000
  -28.7250  -18.7590   20.3860 C   0  0  0  0  0  2  0  0  0  0  0  0
  -30.5670  -19.9740   19.4450 C   0  0  0  0  0  3  0  0  0  0  0  0
  -29.0170  -20.1200   19.5160 C   0  0  0  0  0  3  0  0  0  0  0  0
  -29.9630  -17.6950   20.4250 C   0  0  0  0  0  3  0  0  0  0  0  0
  -30.8660  -18.4040   19.3910 C   0  0  0  0  0  3  0  0  0  0  0  0
  -30.5980  -14.9850   20.3290 C   0  0  0  0  0  0  0  0  0  0  0  0
  -30.5320  -12.5680   19.5770 C   0  0  0  0  0  2  0  0  0  0  0  0
  -29.6350  -12.4360   18.3270 C   0  0  0  0  0  2  0  0  0  0  0  0
  -28.1600  -12.2400   18.7360 C   0  0  0  0  0  2  0  0  0  0  0  0
  -27.7140  -13.2550   19.8250 C   0  0  0  0  0  3  0  0  0  0  0  0
  -28.7380  -13.3650   20.9730 C   0  0  0  0  0  2  0  0  0  0  0  0
  -30.0270  -13.7220   20.3680 N   0  0  0  0  0  0  0  0  0  0  0  0
  -31.8090  -15.0900   20.0930 O   0  0  0  0  0  0  0  0  0  0  0  0
  -29.7670  -16.1300   20.3570 N   0  0  0  0  0  0  0  0  0  0  0  0
  -28.8010  -15.8630   20.4600 H   0  0  0  0  0  0  0  0  0  0  0  0
  -25.3420  -13.9030   20.5420 C   0  0  0  0  0  0  0  0  0  0  0  0
  -24.2550  -13.1580   20.9070 C   0  0  0  0  0  0  0  0  0  0  0  0
  -24.6840  -11.7950   20.8820 C   0  0  0  0  0  0  0  0  0  0  0  0
  -26.3630  -12.9950   20.3130 N   0  0  0  0  0  0  0  0  0  0  0  0
  -25.9760  -11.7220   20.5870 N   0  0  0  0  0  0  0  0  0  0  0  0
  -23.9200  -10.5550   21.0680 C   0  0  0  0  0  0  0  0  0  0  0  0
  -24.3230   -9.5720   22.0000 C   0  0  0  0  0  3  0  0  0  0  0  0
  -23.5610   -8.3970   22.1740 C   0  0  0  0  0  3  0  0  0  0  0  0
  -22.3840   -8.1950   21.4150 C   0  0  0  0  0  0  0  0  0  0  0  0
  -21.9990   -9.1650   20.4720 C   0  0  0  0  0  3  0  0  0  0  0  0
  -22.7620  -10.3330   20.2960 C   0  0  0  0  0  3  0  0  0  0  0  0
  -21.5940   -7.0720   21.4980 O   0  0  0  0  0  0  0  0  0  0  0  0
  -21.5370   -6.3150   22.6400 C   0  0  0  0  0  0  0  0  0  0  0  0
  -21.1040   -6.8520   23.8720 C   0  0  0  0  0  3  0  0  0  0  0  0
  -20.9960   -6.0210   25.0040 C   0  0  0  0  0  3  0  0  0  0  0  0
  -21.3120   -4.6520   24.9050 C   0  0  0  0  0  0  0  0  0  0  0  0
  -21.7410   -4.1150   23.6790 C   0  0  0  0  0  3  0  0  0  0  0  0
  -21.8510   -4.9430   22.5490 C   0  0  0  0  0  0  0  0  0  0  0  0
  -22.2410   -4.4160   21.3650 F   0  0  0  0  0  0  0  0  0  0  0  0
  -21.2040   -3.8500   25.9900 F   0  0  0  0  0  0  0  0  0  0  0  0
  -22.8700  -13.6740   21.1580 C   0  0  0  0  0  0  0  0  0  0  0  0
  -22.1100  -13.0050   22.0190 N   0  0  0  0  0  0  0  0  0  0  0  0
  -22.4680  -14.7100   20.6280 O   0  0  0  0  0  0  0  0  0  0  0  0
  -22.4430  -12.1680   22.4730 H   0  0  0  0  0  0  0  0  0  0  0  0
  -21.1810  -13.3410   22.2280 H   0  0  0  0  0  0  0  0  0  0  0  0
  -25.5410  -15.2690   20.3580 N   0  0  0  0  0  0  0  0  0  0  0  0
  -24.7750  -15.9290   20.4400 H   0  0  0  0  0  0  0  0  0  0  0  0
  -26.3740  -15.6840   19.9650 H   0  0  0  0  0  0  0  0  0  0  0  0
  -30.8040  -20.3990   16.9450 C   0  0  0  0  0  3  0  0  0  0  0  0
  -32.8510  -22.2670   17.3430 C   0  0  0  0  0  3  0  0  0  0  0  0
  -31.2140  -20.7070   18.2620 C   0  0  0  0  0  0  0  0  0  0  0  0
  -31.4150  -21.0020   15.8310 C   0  0  0  0  0  0  0  0  0  0  0  0
  -32.4420  -21.9470   16.0310 C   0  0  0  0  0  0  0  0  0  0  0  0
  -32.2490  -21.6500   18.4670 C   0  0  0  0  0  0  0  0  0  0  0  0
  -30.9630  -20.6070   14.4330 C   0  0  0  0  0  1  0  0  0  0  0  0
  -33.1260  -22.6160   14.8510 C   0  0  0  0  0  1  0  0  0  0  0  0
  -33.5250  -22.9810   20.0160 C   0  0  0  0  0  1  0  0  0  0  0  0
  -32.6390  -21.8990   19.7660 O   0  0  0  0  0  0  0  0  0  0  0  0
  -32.2870  -18.0660   19.5610 N   0  0  0  0  0  4  0  0  0  0  0  0
  -32.6480  -18.4520   20.4150 H   0  0  0  0  0  0  0  0  0  0  0  0
  -32.8210  -18.4310   18.7910 H   0  0  0  0  0  0  0  0  0  0  0  0
  -32.3950  -17.0600   19.5810 H   0  0  0  0  0  0  0  0  0  0  0  0
  -28.0980  -21.5750   19.6360 C   0  0  0  0  0  3  0  0  0  0  0  0
  -26.4950  -20.1770   18.0970 C   0  0  0  0  0  1  0  0  0  0  0  0
  -27.6730  -22.1490   17.1460 C   0  0  0  0  0  1  0  0  0  0  0  0
  -27.0250  -21.6010   18.4400 C   0  0  2  0  0  0  0  0  0  0  0  0
  -25.2130  -23.6420   18.1410 C   0  0  0  0  0  2  0  0  0  0  0  0
  -24.5050  -22.3500   17.9410 C   0  0  0  0  0  2  0  0  0  0  0  0
  -25.7500  -22.3890   18.8280 C   0  0  0  0  0  3  0  0  0  0  0  0
  -29.2090  -23.0660   21.4500 C   0  0  0  0  0  1  0  0  0  0  0  0
  -28.6790  -23.1410   20.0140 C   0  0  0  0  0  3  0  0  0  0  0  0
  -27.7980  -24.5890   19.9040 C   0  0  0  0  0  2  0  0  0  0  0  0
  -28.1630  -26.0710   20.2540 O   0  0  0  0  0  0  0  0  0  0  0  0
  -24.6100  -31.8110   23.3100 C   0  0  0  0  0  0  0  0  0  0  0  0
  -27.1580  -27.1130   20.2040 C   0  0  0  0  0  0  0  0  0  0  0  0
  -23.4240  -30.4750   21.6150 C   0  0  0  0  0  3  0  0  0  0  0  0
  -24.8690  -28.9130   20.1830 C   0  0  0  0  0  0  0  0  0  0  0  0
  -25.9860  -30.6840   21.5250 C   0  0  0  0  0  2  0  0  0  0  0  0
  -26.0450  -29.3110   20.8350 C   0  0  0  0  0  0  0  0  0  0  0  0
  -27.1900  -28.4230   20.8380 C   0  0  0  0  0  3  0  0  0  0  0  0
  -25.9680  -26.8450   19.5000 C   0  0  0  0  0  3  0  0  0  0  0  0
  -24.8410  -27.6890   19.5070 C   0  0  0  0  0  3  0  0  0  0  0  0
  -23.6610  -29.8340   20.2250 C   0  0  0  0  0  2  0  0  0  0  0  0
  -24.6910  -31.0120   22.2050 N   0  0  0  0  0  0  0  0  0  0  0  0
  -23.5170  -32.1060   23.8170 O   0  0  0  0  0  0  0  0  0  0  0  0
  -22.7040  -29.4590   22.5350 C   0  0  0  0  0  0  0  0  0  0  0  0
  -21.3750  -29.3290   22.3790 N   0  0  0  0  0  0  0  0  0  0  0  0
  -23.3420  -28.7890   23.3520 O   0  0  0  0  0  0  0  0  0  0  0  0
  -20.9190  -29.9120   21.6910 H   0  0  0  0  0  0  0  0  0  0  0  0
  -17.9400  -28.2630   22.8340 C   0  0  0  0  0  0  0  0  0  0  0  0
  -20.5100  -28.3980   23.1080 C   0  0  0  0  0  3  0  0  0  0  0  0
  -20.5490  -26.9900   22.4680 C   0  0  0  0  0  2  0  0  0  0  0  0
  -19.4320  -26.7630   21.4440 C   0  0  0  0  0  2  0  0  0  0  0  0
  -18.0570  -26.9390   22.0950 C   0  0  0  0  0  2  0  0  0  0  0  0
  -19.0930  -28.9540   23.2940 C   0  0  0  0  0  0  0  0  0  0  0  0
  -18.9290  -30.1940   23.9480 C   0  0  0  0  0  3  0  0  0  0  0  0
  -17.6480  -30.7440   24.1420 C   0  0  0  0  0  3  0  0  0  0  0  0
  -16.5110  -30.0470   23.7000 C   0  0  0  0  0  3  0  0  0  0  0  0
  -16.6570  -28.8080   23.0530 C   0  0  0  0  0  3  0  0  0  0  0  0
  -25.8830  -32.4040   23.9850 C   0  0  0  0  0  3  0  0  0  0  0  0
  -26.3030  -31.6380   25.3010 C   0  0  1  0  0  0  0  0  0  0  0  0
  -25.1490  -31.4630   26.3160 C   0  0  0  0  0  1  0  0  0  0  0  0
  -26.8540  -30.2340   24.9660 C   0  0  0  0  0  1  0  0  0  0  0  0
  -27.4490  -32.4010   26.0050 C   0  0  0  0  0  1  0  0  0  0  0  0
  -25.6140  -33.8190   24.2790 N   0  0  0  0  0  0  0  0  0  0  0  0
  -25.9820  -34.8480   23.5040 C   0  0  0  0  0  0  0  0  0  0  0  0
  -26.6520  -34.7030   22.4780 O   0  0  0  0  0  0  0  0  0  0  0  0
  -25.0230  -34.0070   25.0760 H   0  0  0  0  0  0  0  0  0  0  0  0
  -24.2940  -36.6780   23.1280 C   0  0  0  0  0  1  0  0  0  0  0  0
  -25.5360  -36.2610   23.9320 C   0  0  0  0  0  3  0  0  0  0  0  0
  -27.6990  -37.1200   24.7140 C   0  0  0  0  0  1  0  0  0  0  0  0
  -26.5940  -37.2830   23.7740 N   0  0  0  0  0  0  0  0  0  0  0  0
  -26.2160  -38.2200   23.8930 H   0  0  0  0  0  0  0  0  0  0  0  0
  1  4  1  0
  2 46  1  0
  2  3  1  0
  3 58  1  0
  3  1  1  0
  4 14  1  0
  5  2  1  0
  5 54  1  0
  5  4  1  0
  6 14  1  0
  6 12  1  0
  7 12  1  0
  8  9  1  0
  8  7  1  0
 10  9  1  0
 10 19  1  0
 10 11  1  0
 12 11  1  0
 13  6  2  0
 14 15  1  0
 16 17  2  0
 17 36  1  0
 18 17  1  0
 18 21  1  0
 19 16  1  0
 19 20  1  0
 20 18  2  0
 21 22  1  0
 22 23  2  0
 24 27  1  0
 24 23  1  0
 25 24  2  0
 26 25  1  0
 26 21  2  0
 27 28  1  0
 28 29  1  0
 29 30  2  0
 31 30  1  0
 31 35  1  0
 32 31  2  0
 33 28  2  0
 33 32  1  0
 34 33  1  0
 36 37  1  0
 37 40  1  0
 37 39  1  0
 38 36  2  0
 41 42  1  0
 41 16  1  0
 43 41  1  0
 44 46  1  0
 45 49  1  0
 46 49  2  0
 47 48  1  0
 47 44  2  0
 48 45  2  0
 49 53  1  0
 50 47  1  0
 51 48  1  0
 53 52  1  0
 54 57  1  0
 54 55  1  0
 56 54  1  0
 58 61  1  0
 58 66  1  0
 61 59  1  6
 60 61  1  0
 61 64  1  0
 62 64  1  0
 63 62  1  0
 63 64  1  0
 66 65  1  0
 67 66  1  0
 67 68  1  0
 69 80  2  0
 70 68  1  0
 70 75  1  0
 71 79  1  0
 71 81  1  0
 72 78  1  0
 72 74  1  0
 73 79  1  0
 74 75  2  0
 74 73  1  0
 76 77  1  0
 76 70  2  0
 77 72  2  0
 78 71  1  0
 79 69  1  0
 81 83  2  0
 82 81  1  0
 84 82  1  0
 85 94  2  0
 85 90  1  0
 86 82  1  0
 86 90  1  0
 87 86  1  0
 88 89  1  0
 88 87  1  0
 89 85  1  0
 90 91  2  0
 91 92  1  0
 93 92  2  0
 94 93  1  0
 95 69  1  0
 95100  1  0
 95 96  1  0
 96 99  1  1
 96 97  1  0
 98 96  1  0
100103  1  0
101105  1  0
101100  1  0
102101  2  0
105104  1  0
107108  1  0
107105  1  0
107106  1  0
M  ISO  4   6 100  14 100  67 101  68 101
M  END
>  <TORSDO>  (32) 
F 24

>  <SCORE>  (32) 
-13.941

>  <name>  (32) 
31

>  <ligand_id>  (32) 
31

>  <original_smiles>  (32) 
[H]c1c([H])c([H])c2c(c1[H])C([H])([H])C([H])([H])C([H])([H])C2([H])N([H])C(=O)C1([H])N(C(=O)C([H])(N([H])C(=O)C([H])(N([H])C([H])([H])[H])C([H])([H])[H])C(C([H])([H])[H])(C([H])([H])[H])C([H])([H])[H])C([H])([H])c2c([H])c(OC([H])([H])C([H])(C([H])([H])[H])C([H])(C3([H])C([H])([H])C([H])(N([H])C(=O)N4C([H])([H])C([H])([H])C([H])([H])C([H])(n5nc(-c6c([H])c([H])c(Oc7c([H])c([H])c(F)c([H])c7F)c([H])c6[H])c(C(=O)N([H])[H])c5N([H])[H])C4([H])[H])C([H])([N+]([H])([H])[H])C3([H])c3c([H])c(C([H])([H])[H])c(C([H])([H])[H])c([H])c3OC([H])([H])[H])C(C([H])([H])[H])(C([H])([H])[H])C3([H])C([H])([H])C3([H])[H])c([H])c([H])c2C1([H])[H]

>  <smiles>  (32) 
[H]c1c([H])c([H])c2c(c1[H])C([H])([H])C([H])([H])C([H])([H])C2([H])N([H])C(=O)C1([H])N(C(=O)C([H])(N([H])C(=O)C([H])(N([H])C([H])([H])[H])C([H])([H])[H])C(C([H])([H])[H])(C([H])([H])[H])C([H])([H])[H])C([H])([H])c2c([H])c(OC([H])([H])C([H])(C([H])([H])[H])C([H])(C3([H])C([H])([H])C([H])(N([H])C(=O)N4C([H])([H])C([H])([H])C([H])([H])C([H])(n5nc(-c6c([H])c([H])c(Oc7c([H])c([H])c(F)c([H])c7F)c([H])c6[H])c(C(=O)N([H])[H])c5N([H])[H])C4([H])[H])C([H])([N+]([H])([H])[H])C3([H])c3c([H])c(C([H])([H])[H])c(C([H])([H])[H])c([H])c3OC([H])([H])[H])C(C([H])([H])[H])(C([H])([H])[H])C3([H])C([H])([H])C3([H])[H])c([H])c([H])c2C1([H])[H]

$$$$
32:0:0
     RDKit          3D

104114  0  0  1  0  0  0  0  0999 V2000
  -31.7980  -22.7840   22.0060 C   0  0  0  0  0  3  0  0  0  0  0  0
  -30.8220  -22.5540   21.0240 C   0  0  0  0  0  0  0  0  0  0  0  0
  -30.6650  -21.3060   20.4360 C   0  0  0  0  0  0  0  0  0  0  0  0
  -32.5980  -21.7040   22.4290 C   0  0  0  0  0  0  0  0  0  0  0  0
  -31.4620  -20.2030   20.8220 C   0  0  0  0  0  0  0  0  0  0  0  0
  -32.4380  -20.4130   21.8490 C   0  0  0  0  0  0  0  0  0  0  0  0
  -29.5860  -21.3520   19.3790 C   0  0  0  0  0  3  0  0  0  0  0  0
  -28.9740  -22.7690   19.5010 C   0  0  0  0  0  3  0  0  0  0  0  0
  -29.8350  -23.5680   20.5120 C   0  0  0  0  0  3  0  0  0  0  0  0
  -33.6290  -21.9640   23.5190 C   0  0  0  0  0  1  0  0  0  0  0  0
  -33.3370  -19.2860   22.3580 C   0  0  0  0  0  1  0  0  0  0  0  0
  -29.0590  -24.0780   21.6640 N   0  0  0  0  0  4  0  0  0  0  0  0
  -29.7250  -24.2600   22.3980 H   0  0  0  0  0  0  0  0  0  0  0  0
  -28.4690  -23.3320   21.9980 H   0  0  0  0  0  0  0  0  0  0  0  0
  -28.2330  -25.2950   21.4650 C   0  0  0  0  0  3  0  0  0  0  0  0
  -26.6530  -26.8580   22.8430 C   0  0  0  0  0  1  0  0  0  0  0  0
  -26.1480  -24.4140   22.6970 C   0  0  0  0  0  1  0  0  0  0  0  0
  -27.2860  -25.4580   22.6990 C   0  0  0  0  0  3  0  0  0  0  0  0
  -29.1380  -26.5360   21.1840 C   0  0  0  0  0  2  0  0  0  0  0  0
  -28.8020  -27.1140   19.9200 O   0  0  0  0  0  0  0  0  0  0  0  0
  -24.7190  -31.7910   23.3510 C   0  0  0  0  0  0  0  0  0  0  0  0
  -27.6260  -27.8160   19.9350 C   0  0  0  0  0  0  0  0  0  0  0  0
  -23.6120  -30.5040   21.5490 C   0  0  0  0  0  3  0  0  0  0  0  0
  -25.1650  -29.1770   20.0200 C   0  0  0  0  0  0  0  0  0  0  0  0
  -26.1140  -30.9990   21.4490 C   0  0  0  0  0  2  0  0  0  0  0  0
  -26.2780  -29.7030   20.6880 C   0  0  0  0  0  0  0  0  0  0  0  0
  -27.5120  -29.0290   20.6450 C   0  0  0  0  0  3  0  0  0  0  0  0
  -26.5090  -27.3020   19.2460 C   0  0  0  0  0  3  0  0  0  0  0  0
  -25.2740  -27.9740   19.2980 C   0  0  0  0  0  3  0  0  0  0  0  0
  -23.8790  -29.9660   20.1160 C   0  0  0  0  0  2  0  0  0  0  0  0
  -24.8310  -31.1050   22.1780 N   0  0  0  0  0  0  0  0  0  0  0  0
  -23.6150  -31.9650   23.8860 O   0  0  0  0  0  0  0  0  0  0  0  0
  -22.9850  -29.3690   22.3900 C   0  0  0  0  0  0  0  0  0  0  0  0
  -21.6700  -29.1590   22.2170 N   0  0  0  0  0  0  0  0  0  0  0  0
  -23.6750  -28.6860   23.1490 O   0  0  0  0  0  0  0  0  0  0  0  0
  -21.1730  -29.7680   21.5840 H   0  0  0  0  0  0  0  0  0  0  0  0
  -18.3230  -27.8460   22.5410 C   0  0  0  0  0  0  0  0  0  0  0  0
  -20.8720  -28.1240   22.8740 C   0  0  0  0  0  3  0  0  0  0  0  0
  -21.0110  -26.7680   22.1450 C   0  0  0  0  0  2  0  0  0  0  0  0
  -19.9290  -26.5390   21.0850 C   0  0  0  0  0  2  0  0  0  0  0  0
  -18.5370  -26.5840   21.7210 C   0  0  0  0  0  2  0  0  0  0  0  0
  -19.4210  -28.5770   23.0660 C   0  0  0  0  0  0  0  0  0  0  0  0
  -19.1680  -29.7630   23.7880 C   0  0  0  0  0  3  0  0  0  0  0  0
  -17.8520  -30.2170   23.9940 C   0  0  0  0  0  3  0  0  0  0  0  0
  -16.7680  -29.4780   23.4870 C   0  0  0  0  0  3  0  0  0  0  0  0
  -17.0050  -28.2950   22.7660 C   0  0  0  0  0  3  0  0  0  0  0  0
  -25.9650  -32.4050   24.0630 C   0  0  0  0  0  3  0  0  0  0  0  0
  -25.6320  -33.7880   24.4280 N   0  0  0  0  0  0  0  0  0  0  0  0
  -25.9980  -34.8660   23.7220 C   0  0  0  0  0  0  0  0  0  0  0  0
  -26.7220  -34.8000   22.7230 O   0  0  0  0  0  0  0  0  0  0  0  0
  -24.9920  -33.9130   25.1980 H   0  0  0  0  0  0  0  0  0  0  0  0
  -24.2810  -36.6610   23.3240 C   0  0  0  0  0  1  0  0  0  0  0  0
  -25.4750  -36.2360   24.1930 C   0  0  0  0  0  3  0  0  0  0  0  0
  -27.5530  -37.1020   25.1720 C   0  0  0  0  0  1  0  0  0  0  0  0
  -26.5060  -37.2970   24.1740 N   0  0  0  0  0  0  0  0  0  0  0  0
  -26.0860  -38.2110   24.3270 H   0  0  0  0  0  0  0  0  0  0  0  0
  -26.4200  -31.5890   25.3350 C   0  0  1  0  0  0  0  0  0  0  0  0
  -25.2710  -31.2900   26.3270 C   0  0  0  0  0  1  0  0  0  0  0  0
  -27.0510  -30.2390   24.9220 C   0  0  0  0  0  1  0  0  0  0  0  0
  -27.5190  -32.3690   26.0950 C   0  0  0  0  0  1  0  0  0  0  0  0
  -31.2750  -18.8490   20.1290 C   0  0  0  0  0  2  0  0  0  0  0  0
  -29.5120  -17.1690   20.7810 C   0  0  0  0  0  2  0  0  0  0  0  0
  -31.4350  -16.4760   20.9190 C   0  0  0  0  0  2  0  0  0  0  0  0
  -30.0990  -15.9210   21.4340 C   0  0  0  0  0  3  0  0  0  0  0  0
  -30.8140  -17.7980   21.0690 N   0  0  1  0  0  4  0  0  0  0  0  0
  -30.8750  -18.1080   22.0270 H   0  0  0  0  0  0  0  0  0  0  0  0
  -29.8900  -13.9050   19.8560 C   0  0  0  0  0  0  0  0  0  0  0  0
  -29.4670  -11.8300   18.5930 C   0  0  0  0  0  2  0  0  0  0  0  0
  -28.3420  -12.0160   17.5570 C   0  0  0  0  0  2  0  0  0  0  0  0
  -26.9660  -11.7610   18.1950 C   0  0  0  0  0  2  0  0  0  0  0  0
  -26.7750  -12.5380   19.5220 C   0  0  0  0  0  3  0  0  0  0  0  0
  -27.9900  -12.3500   20.4600 C   0  0  0  0  0  2  0  0  0  0  0  0
  -29.2150  -12.7330   19.7280 N   0  0  0  0  0  0  0  0  0  0  0  0
  -30.7370  -14.2790   19.0430 O   0  0  0  0  0  0  0  0  0  0  0  0
  -29.6010  -14.6140   20.9600 N   0  0  0  0  0  0  0  0  0  0  0  0
  -28.9350  -14.1610   21.5700 H   0  0  0  0  0  0  0  0  0  0  0  0
  -24.4800  -12.9700   20.6110 C   0  0  0  0  0  0  0  0  0  0  0  0
  -23.5220  -12.1190   21.0940 C   0  0  0  0  0  0  0  0  0  0  0  0
  -24.0420  -10.8010   20.9190 C   0  0  0  0  0  0  0  0  0  0  0  0
  -25.5240  -12.1640   20.1800 N   0  0  0  0  0  0  0  0  0  0  0  0
  -25.2700  -10.8520   20.4190 N   0  0  0  0  0  0  0  0  0  0  0  0
  -23.4200   -9.4910   21.1480 C   0  0  0  0  0  0  0  0  0  0  0  0
  -23.9780   -8.5550   22.0470 C   0  0  0  0  0  3  0  0  0  0  0  0
  -23.3500   -7.3090   22.2630 C   0  0  0  0  0  3  0  0  0  0  0  0
  -22.1540   -6.9880   21.5810 C   0  0  0  0  0  0  0  0  0  0  0  0
  -21.6150   -7.9140   20.6690 C   0  0  0  0  0  3  0  0  0  0  0  0
  -22.2430   -9.1510   20.4510 C   0  0  0  0  0  3  0  0  0  0  0  0
  -21.4880   -5.7930   21.7080 O   0  0  0  0  0  0  0  0  0  0  0  0
  -21.5170   -5.0750   22.8770 C   0  0  0  0  0  0  0  0  0  0  0  0
  -21.0500   -5.6150   24.0960 C   0  0  0  0  0  3  0  0  0  0  0  0
  -21.0330   -4.8190   25.2580 C   0  0  0  0  0  3  0  0  0  0  0  0
  -21.4710   -3.4830   25.2040 C   0  0  0  0  0  0  0  0  0  0  0  0
  -21.9320   -2.9410   23.9900 C   0  0  0  0  0  3  0  0  0  0  0  0
  -21.9510   -3.7340   22.8310 C   0  0  0  0  0  0  0  0  0  0  0  0
  -22.3760   -3.2020   21.6590 F   0  0  0  0  0  0  0  0  0  0  0  0
  -21.4480   -2.7150   26.3180 F   0  0  0  0  0  0  0  0  0  0  0  0
  -22.1610  -12.5000   21.6020 C   0  0  0  0  0  0  0  0  0  0  0  0
  -21.6150  -11.7220   22.5310 N   0  0  0  0  0  0  0  0  0  0  0  0
  -21.5960  -13.5200   21.2120 O   0  0  0  0  0  0  0  0  0  0  0  0
  -22.0900  -10.8960   22.8640 H   0  0  0  0  0  0  0  0  0  0  0  0
  -20.7100  -11.9560   22.9130 H   0  0  0  0  0  0  0  0  0  0  0  0
  -24.5440  -14.3540   20.4870 N   0  0  0  0  0  0  0  0  0  0  0  0
  -23.7690  -14.9560   20.7470 H   0  0  0  0  0  0  0  0  0  0  0  0
  -25.3140  -14.8620   20.0680 H   0  0  0  0  0  0  0  0  0  0  0  0
  1  4  1  0
  2  1  2  0
  3  5  2  0
  3  2  1  0
  4 10  1  0
  5  6  1  0
  6 11  1  0
  6  4  2  0
  7  8  2  0
  7  3  1  0
  8  9  1  0
  9  2  1  0
  9 12  1  0
 12 14  1  0
 12 13  1  0
 15 19  1  0
 15 12  1  0
 15 18  1  0
 17 18  1  0
 18 16  1  0
 20 22  1  0
 20 19  1  0
 21 32  2  0
 22 27  1  0
 23 31  1  0
 23 33  1  0
 24 30  1  0
 24 26  1  0
 25 31  1  0
 26 25  1  0
 27 26  2  0
 28 29  1  0
 28 22  2  0
 29 24  2  0
 30 23  1  0
 31 21  1  0
 33 35  2  0
 34 33  1  0
 36 34  1  0
 37 46  2  0
 37 42  1  0
 38 34  1  0
 38 42  1  0
 39 38  1  0
 40 41  1  0
 40 39  1  0
 41 37  1  0
 42 43  2  0
 43 44  1  0
 45 44  2  0
 46 45  1  0
 47 21  1  0
 47 48  1  0
 47 57  1  0
 48 51  1  0
 49 53  1  0
 49 48  1  0
 50 49  2  0
 53 52  1  0
 55 53  1  0
 55 56  1  0
 55 54  1  0
 57 60  1  1
 57 58  1  0
 59 57  1  0
 61  5  1  0
 61 65  1  0
 62 65  1  0
 62 64  1  0
 63 65  1  0
 63 64  1  0
 64 75  1  0
 65 66  1  1
 67 75  1  0
 68 73  1  0
 69 70  1  0
 69 68  1  0
 71 70  1  0
 71 80  1  0
 71 72  1  0
 73 67  1  0
 73 72  1  0
 74 67  2  0
 75 76  1  0
 77 78  2  0
 78 97  1  0
 79 78  1  0
 79 82  1  0
 80 81  1  0
 80 77  1  0
 81 79  2  0
 82 83  1  0
 83 84  2  0
 85 88  1  0
 85 84  1  0
 86 85  2  0
 87 86  1  0
 87 82  2  0
 88 89  1  0
 89 90  1  0
 90 91  2  0
 92 91  1  0
 92 96  1  0
 93 92  2  0
 94 89  2  0
 94 93  1  0
 95 94  1  0
 97 98  1  0
 98100  1  0
 98101  1  0
 99 97  2  0
102 77  1  0
102103  1  0
104102  1  0
M  ISO  4  19 101  20 101  67 100  75 100
M  END
>  <TORSDO>  (33) 
F 22

>  <SCORE>  (33) 
-6.340

>  <name>  (33) 
32

>  <ligand_id>  (33) 
32

>  <original_smiles>  (33) 
[H]c1c([H])c([H])c2c(c1[H])C([H])([H])C([H])([H])C([H])([H])C2([H])N([H])C(=O)C1([H])N(C(=O)C([H])(N([H])C(=O)C([H])(N([H])C([H])([H])[H])C([H])([H])[H])C(C([H])([H])[H])(C([H])([H])[H])C([H])([H])[H])C([H])([H])c2c([H])c(OC([H])([H])C([H])(C([H])(C([H])([H])[H])C([H])([H])[H])[N+]([H])([H])C3([H])c4c([H])c(C([H])([H])[H])c(C([H])([H])[H])c(C([H])([H])[N+]5([H])C([H])([H])C([H])(N([H])C(=O)N6C([H])([H])C([H])([H])C([H])([H])C([H])(n7nc(-c8c([H])c([H])c(Oc9c([H])c([H])c(F)c([H])c9F)c([H])c8[H])c(C(=O)N([H])[H])c7N([H])[H])C6([H])[H])C5([H])[H])c4C([H])([H])C3([H])[H])c([H])c([H])c2C1([H])[H]

>  <smiles>  (33) 
[H]c1c([H])c([H])c2c(c1[H])C([H])([H])C([H])([H])C([H])([H])C2([H])N([H])C(=O)C1([H])N(C(=O)C([H])(N([H])C(=O)C([H])(N([H])C([H])([H])[H])C([H])([H])[H])C(C([H])([H])[H])(C([H])([H])[H])C([H])([H])[H])C([H])([H])c2c([H])c(OC([H])([H])C([H])(C([H])(C([H])([H])[H])C([H])([H])[H])[N+]([H])([H])C3([H])c4c([H])c(C([H])([H])[H])c(C([H])([H])[H])c(C([H])([H])[N+]5([H])C([H])([H])C([H])(N([H])C(=O)N6C([H])([H])C([H])([H])C([H])([H])C([H])(n7nc(-c8c([H])c([H])c(Oc9c([H])c([H])c(F)c([H])c9F)c([H])c8[H])c(C(=O)N([H])[H])c7N([H])[H])C6([H])[H])C5([H])[H])c4C([H])([H])C3([H])[H])c([H])c([H])c2C1([H])[H]

$$$$
33:0:0
     RDKit          3D

 93102  0  0  1  0  0  0  0  0999 V2000
  -28.9410  -23.4180   19.8070 C   0  0  0  0  0  3  0  0  0  0  0  0
  -29.2400  -22.0210   19.7210 C   0  0  0  0  0  3  0  0  0  0  0  0
  -29.0650  -24.1420   21.0240 C   0  0  0  0  0  0  0  0  0  0  0  0
  -29.4770  -23.3810   22.1660 C   0  0  0  0  0  0  0  0  0  0  0  0
  -29.7730  -21.9800   22.0730 C   0  0  0  0  0  0  0  0  0  0  0  0
  -29.6770  -21.2710   20.8460 C   0  0  0  0  0  0  0  0  0  0  0  0
  -29.6010  -24.0570   23.5350 C   0  0  0  0  0  1  0  0  0  0  0  0
  -30.2150  -21.2110   23.3140 C   0  0  0  0  0  1  0  0  0  0  0  0
  -28.7500  -25.6820   21.1840 C   0  0  0  0  0  2  0  0  0  0  0  0
  -28.6620  -26.5930   20.0480 O   0  0  0  0  0  0  0  0  0  0  0  0
  -24.7320  -31.7580   23.2060 C   0  0  0  0  0  0  0  0  0  0  0  0
  -27.5380  -27.4170   20.0550 C   0  0  0  0  0  0  0  0  0  0  0  0
  -23.5900  -30.3540   21.5230 C   0  0  0  0  0  3  0  0  0  0  0  0
  -25.1100  -28.8990   20.0700 C   0  0  0  0  0  0  0  0  0  0  0  0
  -26.1110  -30.7880   21.3580 C   0  0  0  0  0  2  0  0  0  0  0  0
  -26.2520  -29.4290   20.6870 C   0  0  0  0  0  0  0  0  0  0  0  0
  -27.4730  -28.6960   20.6790 C   0  0  0  0  0  3  0  0  0  0  0  0
  -26.3820  -26.9260   19.4190 C   0  0  0  0  0  3  0  0  0  0  0  0
  -25.1740  -27.6500   19.4280 C   0  0  0  0  0  3  0  0  0  0  0  0
  -23.8370  -29.7190   20.1290 C   0  0  0  0  0  2  0  0  0  0  0  0
  -24.8300  -30.9820   22.0870 N   0  0  0  0  0  0  0  0  0  0  0  0
  -23.6370  -31.9780   23.7430 O   0  0  0  0  0  0  0  0  0  0  0  0
  -22.9650  -29.2880   22.4560 C   0  0  0  0  0  0  0  0  0  0  0  0
  -21.6510  -29.0520   22.3060 N   0  0  0  0  0  0  0  0  0  0  0  0
  -23.6620  -28.6780   23.2700 O   0  0  0  0  0  0  0  0  0  0  0  0
  -21.1470  -29.5980   21.6230 H   0  0  0  0  0  0  0  0  0  0  0  0
  -18.3350  -27.6700   22.7050 C   0  0  0  0  0  0  0  0  0  0  0  0
  -20.8660  -28.0660   23.0490 C   0  0  0  0  0  3  0  0  0  0  0  0
  -21.0620  -26.6470   22.4670 C   0  0  0  0  0  2  0  0  0  0  0  0
  -20.0090  -26.2730   21.4200 C   0  0  0  0  0  2  0  0  0  0  0  0
  -18.6040  -26.3370   22.0250 C   0  0  0  0  0  2  0  0  0  0  0  0
  -19.3970  -28.4880   23.1720 C   0  0  0  0  0  0  0  0  0  0  0  0
  -19.0940  -29.7320   23.7670 C   0  0  0  0  0  3  0  0  0  0  0  0
  -17.7580  -30.1600   23.8980 C   0  0  0  0  0  3  0  0  0  0  0  0
  -16.7090  -29.3400   23.4470 C   0  0  0  0  0  3  0  0  0  0  0  0
  -16.9980  -28.0960   22.8570 C   0  0  0  0  0  3  0  0  0  0  0  0
  -25.9880  -32.4220   23.8500 C   0  0  0  0  0  3  0  0  0  0  0  0
  -25.6350  -33.8080   24.1810 N   0  0  0  0  0  0  0  0  0  0  0  0
  -25.9460  -34.8750   23.4300 C   0  0  0  0  0  0  0  0  0  0  0  0
  -26.6310  -34.7950   22.4070 O   0  0  0  0  0  0  0  0  0  0  0  0
  -25.0260  -33.9430   24.9750 H   0  0  0  0  0  0  0  0  0  0  0  0
  -24.1660  -36.6150   23.0690 C   0  0  0  0  0  1  0  0  0  0  0  0
  -25.4130  -36.2450   23.8890 C   0  0  0  0  0  3  0  0  0  0  0  0
  -27.5140  -37.1920   24.7380 C   0  0  0  0  0  1  0  0  0  0  0  0
  -26.4140  -37.3310   23.7880 N   0  0  0  0  0  0  0  0  0  0  0  0
  -25.9780  -38.2370   23.9380 H   0  0  0  0  0  0  0  0  0  0  0  0
  -26.5060  -31.6580   25.1290 C   0  0  1  0  0  0  0  0  0  0  0  0
  -25.4030  -31.3880   26.1790 C   0  0  0  0  0  1  0  0  0  0  0  0
  -27.1280  -30.2960   24.7400 C   0  0  0  0  0  1  0  0  0  0  0  0
  -27.6240  -32.4790   25.8130 C   0  0  0  0  0  1  0  0  0  0  0  0
  -30.1360  -19.9400   20.7710 O   0  0  0  0  0  0  0  0  0  0  0  0
  -31.0410  -14.6990   20.1830 C   0  0  0  0  0  0  0  0  0  0  0  0
  -30.7200  -12.4430   19.1900 C   0  0  0  0  0  2  0  0  0  0  0  0
  -29.7950  -12.5470   17.9600 C   0  0  0  0  0  2  0  0  0  0  0  0
  -28.3200  -12.4230   18.3920 C   0  0  0  0  0  2  0  0  0  0  0  0
  -27.9680  -13.3340   19.5990 C   0  0  0  0  0  3  0  0  0  0  0  0
  -29.0250  -13.2410   20.7200 C   0  0  0  0  0  2  0  0  0  0  0  0
  -30.3310  -13.5270   20.1170 N   0  0  0  0  0  0  0  0  0  0  0  0
  -32.2280  -14.7120   19.8400 O   0  0  0  0  0  0  0  0  0  0  0  0
  -29.8000  -18.1350   19.0370 C   0  0  0  0  0  2  0  0  0  0  0  0
  -28.9980  -17.7480   21.3680 C   0  0  0  0  0  2  0  0  0  0  0  0
  -30.8090  -16.9680   19.2790 C   0  0  0  0  0  2  0  0  0  0  0  0
  -30.0440  -16.5820   21.4910 C   0  0  0  0  0  2  0  0  0  0  0  0
  -29.2800  -18.8570   20.3030 C   0  0  0  0  0  3  0  0  0  0  0  0
  -30.3520  -15.9000   20.2130 N   0  0  0  0  0  0  0  0  0  0  0  0
  -25.5940  -13.9720   20.3320 C   0  0  0  0  0  0  0  0  0  0  0  0
  -24.5180  -13.2190   20.7130 C   0  0  0  0  0  0  0  0  0  0  0  0
  -24.9570  -11.8590   20.6900 C   0  0  0  0  0  0  0  0  0  0  0  0
  -26.6220  -13.0740   20.0990 N   0  0  0  0  0  0  0  0  0  0  0  0
  -26.2460  -11.7970   20.3760 N   0  0  0  0  0  0  0  0  0  0  0  0
  -24.2100  -10.6110   20.8930 C   0  0  0  0  0  0  0  0  0  0  0  0
  -24.6010   -9.6650   21.8660 C   0  0  0  0  0  3  0  0  0  0  0  0
  -23.8570   -8.4800   22.0550 C   0  0  0  0  0  3  0  0  0  0  0  0
  -22.7050   -8.2340   21.2710 C   0  0  0  0  0  0  0  0  0  0  0  0
  -22.3320   -9.1680   20.2870 C   0  0  0  0  0  3  0  0  0  0  0  0
  -23.0770  -10.3440   20.0970 C   0  0  0  0  0  3  0  0  0  0  0  0
  -21.9330   -7.1010   21.3670 O   0  0  0  0  0  0  0  0  0  0  0  0
  -21.7910   -6.4250   22.5540 C   0  0  0  0  0  0  0  0  0  0  0  0
  -21.2870   -7.0530   23.7150 C   0  0  0  0  0  3  0  0  0  0  0  0
  -21.0940   -6.3030   24.8920 C   0  0  0  0  0  3  0  0  0  0  0  0
  -21.3940   -4.9270   24.9080 C   0  0  0  0  0  0  0  0  0  0  0  0
  -21.8900   -4.3000   23.7520 C   0  0  0  0  0  3  0  0  0  0  0  0
  -22.0850   -5.0470   22.5770 C   0  0  0  0  0  0  0  0  0  0  0  0
  -22.5440   -4.4340   21.4590 F   0  0  0  0  0  0  0  0  0  0  0  0
  -21.2010   -4.2040   26.0360 F   0  0  0  0  0  0  0  0  0  0  0  0
  -23.1300  -13.7220   20.9880 C   0  0  0  0  0  0  0  0  0  0  0  0
  -22.3970  -13.0530   21.8700 N   0  0  0  0  0  0  0  0  0  0  0  0
  -22.7050  -14.7460   20.4530 O   0  0  0  0  0  0  0  0  0  0  0  0
  -22.7510  -12.2250   22.3240 H   0  0  0  0  0  0  0  0  0  0  0  0
  -21.4660  -13.3740   22.0940 H   0  0  0  0  0  0  0  0  0  0  0  0
  -25.7810  -15.3380   20.1430 N   0  0  0  0  0  0  0  0  0  0  0  0
  -25.0180  -16.0020   20.2320 H   0  0  0  0  0  0  0  0  0  0  0  0
  -26.6430  -15.7600   19.8260 H   0  0  0  0  0  0  0  0  0  0  0  0
  1  3  1  0
  2  1  2  0
  2  6  1  0
  3  9  1  0
  3  4  2  0
  4  7  1  0
  5  4  1  0
  5  8  1  0
  6  5  2  0
 10 12  1  0
 10  9  1  0
 11 22  2  0
 12 17  1  0
 13 21  1  0
 13 23  1  0
 14 20  1  0
 14 16  1  0
 15 21  1  0
 16 15  1  0
 17 16  2  0
 18 19  1  0
 18 12  2  0
 19 14  2  0
 20 13  1  0
 21 11  1  0
 23 25  2  0
 24 23  1  0
 26 24  1  0
 27 36  2  0
 27 32  1  0
 28 24  1  0
 28 32  1  0
 29 28  1  0
 30 31  1  0
 30 29  1  0
 31 27  1  0
 32 33  2  0
 33 34  1  0
 35 34  2  0
 36 35  1  0
 37 11  1  0
 37 38  1  0
 37 47  1  0
 38 41  1  0
 39 43  1  0
 39 38  1  0
 40 39  2  0
 43 42  1  0
 45 43  1  0
 45 46  1  0
 45 44  1  0
 47 50  1  1
 47 48  1  0
 49 47  1  0
 51  6  1  0
 52 65  1  0
 53 58  1  0
 54 55  1  0
 54 53  1  0
 56 55  1  0
 56 69  1  0
 56 57  1  0
 58 52  1  0
 58 57  1  0
 59 52  2  0
 60 62  1  0
 60 64  1  0
 61 63  1  0
 62 65  1  0
 64 51  1  0
 64 61  1  0
 65 63  1  0
 66 67  2  0
 67 86  1  0
 68 67  1  0
 68 71  1  0
 69 66  1  0
 69 70  1  0
 70 68  2  0
 71 72  1  0
 72 73  2  0
 74 77  1  0
 74 73  1  0
 75 74  2  0
 76 75  1  0
 76 71  2  0
 77 78  1  0
 78 83  2  0
 78 79  1  0
 79 80  2  0
 80 81  1  0
 81 85  1  0
 82 81  2  0
 83 82  1  0
 84 83  1  0
 86 87  1  0
 87 90  1  0
 87 89  1  0
 88 86  2  0
 91 92  1  0
 91 66  1  0
 93 91  1  0
M  ISO  4   9 101  10 101  52 100  65 100
M  END
>  <TORSDO>  (34) 
F 18

>  <SCORE>  (34) 
-14.024

>  <name>  (34) 
33

>  <ligand_id>  (34) 
33

>  <original_smiles>  (34) 
[H]c1c([H])c([H])c2c(c1[H])C([H])([H])C([H])([H])C([H])([H])C2([H])N([H])C(=O)C1([H])N(C(=O)C([H])(N([H])C(=O)C([H])(N([H])C([H])([H])[H])C([H])([H])[H])C(C([H])([H])[H])(C([H])([H])[H])C([H])([H])[H])C([H])([H])c2c([H])c(OC([H])([H])c3c([H])c([H])c(OC4([H])C([H])([H])C([H])([H])N(C(=O)N5C([H])([H])C([H])([H])C([H])([H])C([H])(n6nc(-c7c([H])c([H])c(Oc8c([H])c([H])c(F)c([H])c8F)c([H])c7[H])c(C(=O)N([H])[H])c6N([H])[H])C5([H])[H])C([H])([H])C4([H])[H])c(C([H])([H])[H])c3C([H])([H])[H])c([H])c([H])c2C1([H])[H]

>  <smiles>  (34) 
[H]c1c([H])c([H])c2c(c1[H])C([H])([H])C([H])([H])C([H])([H])C2([H])N([H])C(=O)C1([H])N(C(=O)C([H])(N([H])C(=O)C([H])(N([H])C([H])([H])[H])C([H])([H])[H])C(C([H])([H])[H])(C([H])([H])[H])C([H])([H])[H])C([H])([H])c2c([H])c(OC([H])([H])c3c([H])c([H])c(OC4([H])C([H])([H])C([H])([H])N(C(=O)N5C([H])([H])C([H])([H])C([H])([H])C([H])(n6nc(-c7c([H])c([H])c(Oc8c([H])c([H])c(F)c([H])c8F)c([H])c7[H])c(C(=O)N([H])[H])c6N([H])[H])C5([H])[H])C([H])([H])C4([H])[H])c(C([H])([H])[H])c3C([H])([H])[H])c([H])c([H])c2C1([H])[H]

$$$$
34:0:0
     RDKit          3D

100110  0  0  1  0  0  0  0  0999 V2000
  -26.2300  -23.2080   21.5080 C   0  0  0  0  0  2  0  0  0  0  0  0
  -23.9160  -24.2410   22.2310 C   0  0  0  0  0  2  0  0  0  0  0  0
  -23.1810  -25.6060   21.9940 C   0  0  0  0  0  2  0  0  0  0  0  0
  -25.4740  -25.7170   21.2540 C   0  0  0  0  0  2  0  0  0  0  0  0
  -25.0770  -24.2260   21.2100 C   0  0  0  0  0  3  0  0  0  0  0  0
  -24.1810  -26.4290   21.2740 N   0  0  2  0  0  4  0  0  0  0  0  0
  -23.8620  -26.2770   20.3390 H   0  0  0  0  0  0  0  0  0  0  0  0
  -24.1730  -27.9190   21.2150 C   0  0  0  0  0  2  0  0  0  0  0  0
  -23.9370  -28.3900   19.7690 C   0  0  0  0  0  2  0  0  0  0  0  0
  -24.2080  -29.8050   19.4850 O   0  0  0  0  0  0  0  0  0  0  0  0
  -27.8870  -32.1400   25.0310 C   0  0  0  0  0  0  0  0  0  0  0  0
  -24.1080  -30.4730   20.6710 C   0  0  0  0  0  0  0  0  0  0  0  0
  -25.5300  -31.5410   25.4340 C   0  0  0  0  0  3  0  0  0  0  0  0
  -24.0620  -31.3070   23.3630 C   0  0  0  0  0  0  0  0  0  0  0  0
  -26.2690  -32.4260   23.1750 C   0  0  0  0  0  2  0  0  0  0  0  0
  -25.1620  -31.6150   22.5510 C   0  0  0  0  0  0  0  0  0  0  0  0
  -25.2080  -31.1920   21.1950 C   0  0  0  0  0  3  0  0  0  0  0  0
  -22.9370  -30.3360   21.4440 C   0  0  0  0  0  3  0  0  0  0  0  0
  -22.9300  -30.6830   22.8060 C   0  0  0  0  0  3  0  0  0  0  0  0
  -24.1220  -31.7290   24.8090 C   0  0  0  0  0  2  0  0  0  0  0  0
  -26.6310  -32.0190   24.5440 N   0  0  0  0  0  0  0  0  0  0  0  0
  -28.1250  -31.8670   26.2150 O   0  0  0  0  0  0  0  0  0  0  0  0
  -25.7060  -30.0490   25.8150 C   0  0  0  0  0  0  0  0  0  0  0  0
  -25.5740  -29.7510   27.1050 N   0  0  0  0  0  0  0  0  0  0  0  0
  -25.9240  -29.1950   24.9440 O   0  0  0  0  0  0  0  0  0  0  0  0
  -25.4090  -30.4970   27.7850 H   0  0  0  0  0  0  0  0  0  0  0  0
  -25.7600  -27.8700   30.2000 C   0  0  0  0  0  0  0  0  0  0  0  0
  -25.6550  -28.4200   27.6880 C   0  0  0  0  0  3  0  0  0  0  0  0
  -24.2160  -27.7960   27.6660 C   0  0  0  0  0  2  0  0  0  0  0  0
  -23.5180  -27.8630   29.0260 C   0  0  0  0  0  2  0  0  0  0  0  0
  -24.3950  -27.2220   30.0840 C   0  0  0  0  0  2  0  0  0  0  0  0
  -26.3620  -28.4370   29.0560 C   0  0  0  0  0  0  0  0  0  0  0  0
  -27.6640  -28.9870   29.1670 C   0  0  0  0  0  3  0  0  0  0  0  0
  -28.3420  -29.0010   30.4010 C   0  0  0  0  0  3  0  0  0  0  0  0
  -27.6980  -28.4980   31.5380 C   0  0  0  0  0  3  0  0  0  0  0  0
  -26.4190  -27.9180   31.4510 C   0  0  0  0  0  3  0  0  0  0  0  0
  -29.0640  -32.6570   24.1400 C   0  0  0  0  0  3  0  0  0  0  0  0
  -29.6190  -33.8180   24.8410 N   0  0  0  0  0  0  0  0  0  0  0  0
  -29.2100  -35.0770   24.6690 C   0  0  0  0  0  0  0  0  0  0  0  0
  -28.3500  -35.3870   23.8440 O   0  0  0  0  0  0  0  0  0  0  0  0
  -30.2990  -33.6250   25.5560 H   0  0  0  0  0  0  0  0  0  0  0  0
  -29.0090  -36.3930   26.7980 C   0  0  0  0  0  1  0  0  0  0  0  0
  -29.8700  -36.1560   25.5500 C   0  0  0  0  0  3  0  0  0  0  0  0
  -31.0990  -37.3680   23.7990 C   0  0  0  0  0  1  0  0  0  0  0  0
  -30.0850  -37.4370   24.8430 N   0  0  0  0  0  0  0  0  0  0  0  0
  -30.3570  -38.1690   25.4980 H   0  0  0  0  0  0  0  0  0  0  0  0
  -30.1570  -31.5580   23.8740 C   0  0  1  0  0  0  0  0  0  0  0  0
  -30.7070  -30.9190   25.1650 C   0  0  0  0  0  1  0  0  0  0  0  0
  -29.5790  -30.4330   22.9870 C   0  0  0  0  0  1  0  0  0  0  0  0
  -31.3280  -32.1850   23.1000 C   0  0  0  0  0  1  0  0  0  0  0  0
  -27.4380  -23.2450   20.6780 N   0  0  0  0  0  4  0  0  0  0  0  0
  -27.9720  -24.0710   20.8740 H   0  0  0  0  0  0  0  0  0  0  0  0
  -27.9820  -22.4620   20.9940 H   0  0  0  0  0  0  0  0  0  0  0  0
  -27.2830  -22.9980   19.2270 C   0  0  0  0  0  2  0  0  0  0  0  0
  -28.9260  -28.3030   15.4250 C   0  0  0  0  0  0  0  0  0  0  0  0
  -29.7700  -28.1240   13.1310 C   0  0  0  0  0  2  0  0  0  0  0  0
  -28.9550  -27.0960   12.3270 C   0  0  0  0  0  2  0  0  0  0  0  0
  -29.5540  -25.6940   12.5030 C   0  0  0  0  0  2  0  0  0  0  0  0
  -29.8140  -25.3190   13.9850 C   0  0  0  0  0  3  0  0  0  0  0  0
  -30.5510  -26.4730   14.7170 C   0  0  0  0  0  2  0  0  0  0  0  0
  -29.7770  -27.7150   14.5300 N   0  0  0  0  0  0  0  0  0  0  0  0
  -28.1860  -29.2500   15.1640 O   0  0  0  0  0  0  0  0  0  0  0  0
  -28.7490  -25.0210   18.8700 C   0  0  0  0  0  3  0  0  0  0  0  0
  -26.8980  -24.6810   17.2940 C   0  0  0  0  0  3  0  0  0  0  0  0
  -29.0550  -26.2040   18.1950 C   0  0  0  0  0  0  0  0  0  0  0  0
  -27.6450  -24.2550   18.4340 C   0  0  0  0  0  0  0  0  0  0  0  0
  -27.1870  -25.9020   16.6290 C   0  0  0  0  0  0  0  0  0  0  0  0
  -28.3150  -26.6490   17.1090 C   0  0  0  0  0  0  0  0  0  0  0  0
  -30.1860  -27.1420   18.5530 C   0  0  0  0  0  3  0  0  0  0  0  0
  -30.0440  -28.2710   17.5410 C   0  0  0  0  0  3  0  0  0  0  0  0
  -26.2660  -26.3200   15.4660 C   0  0  0  0  0  1  0  0  0  0  0  0
  -28.9610  -27.8230   16.6580 N   0  0  0  0  0  0  0  0  0  0  0  0
  -30.3390  -22.9850   14.9640 C   0  0  0  0  0  0  0  0  0  0  0  0
  -31.2110  -22.0210   14.5910 C   0  0  0  0  0  0  0  0  0  0  0  0
  -31.9180  -22.5400   13.4490 C   0  0  0  0  0  0  0  0  0  0  0  0
  -30.5290  -24.0490   14.0960 N   0  0  0  0  0  0  0  0  0  0  0  0
  -31.5270  -23.7830   13.2100 N   0  0  0  0  0  0  0  0  0  0  0  0
  -32.8940  -21.9150   12.5550 C   0  0  0  0  0  0  0  0  0  0  0  0
  -34.1560  -22.5030   12.2940 C   0  0  0  0  0  3  0  0  0  0  0  0
  -35.0790  -21.8620   11.4430 C   0  0  0  0  0  3  0  0  0  0  0  0
  -34.7510  -20.6230   10.8400 C   0  0  0  0  0  0  0  0  0  0  0  0
  -33.4880  -20.0580   11.0860 C   0  0  0  0  0  3  0  0  0  0  0  0
  -32.5670  -20.6970   11.9290 C   0  0  0  0  0  3  0  0  0  0  0  0
  -35.5750  -19.9340    9.9820 O   0  0  0  0  0  0  0  0  0  0  0  0
  -36.9420  -20.0190   10.0720 C   0  0  0  0  0  0  0  0  0  0  0  0
  -37.6350  -19.6310   11.2390 C   0  0  0  0  0  3  0  0  0  0  0  0
  -39.0430  -19.6780   11.2690 C   0  0  0  0  0  3  0  0  0  0  0  0
  -39.7600  -20.0940   10.1320 C   0  0  0  0  0  0  0  0  0  0  0  0
  -39.0710  -20.4710    8.9660 C   0  0  0  0  0  3  0  0  0  0  0  0
  -37.6660  -20.4340    8.9370 C   0  0  0  0  0  0  0  0  0  0  0  0
  -37.0140  -20.7840    7.8030 F   0  0  0  0  0  0  0  0  0  0  0  0
  -41.1140  -20.1230   10.1610 F   0  0  0  0  0  0  0  0  0  0  0  0
  -31.3510  -20.6430   15.1780 C   0  0  0  0  0  0  0  0  0  0  0  0
  -32.5590  -20.1080   15.2310 N   0  0  0  0  0  0  0  0  0  0  0  0
  -30.3690  -20.0520   15.6430 O   0  0  0  0  0  0  0  0  0  0  0  0
  -33.3730  -20.5940   14.8780 H   0  0  0  0  0  0  0  0  0  0  0  0
  -32.6850  -19.1970   15.6450 H   0  0  0  0  0  0  0  0  0  0  0  0
  -29.3580  -23.0490   15.9690 N   0  0  0  0  0  0  0  0  0  0  0  0
  -29.1710  -22.2750   16.5940 H   0  0  0  0  0  0  0  0  0  0  0  0
  -28.8210  -23.8740   16.1890 H   0  0  0  0  0  0  0  0  0  0  0  0
  3  2  1  0
  4  6  1  0
  5  4  1  0
  5  1  1  0
  5  2  1  0
  6  3  1  0
  6  7  1  6
  8  6  1  0
  9  8  1  0
 10  9  1  0
 10 12  1  0
 11 22  2  0
 12 17  2  0
 12 18  1  0
 13 23  1  0
 14 20  1  0
 15 21  1  0
 16 15  1  0
 16 14  2  0
 17 16  1  0
 18 19  2  0
 19 14  1  0
 20 13  1  0
 21 11  1  0
 21 13  1  0
 23 24  1  0
 24 26  1  0
 25 23  2  0
 27 36  1  0
 28 24  1  0
 28 32  1  0
 29 28  1  0
 29 30  1  0
 30 31  1  0
 31 27  1  0
 32 33  1  0
 32 27  2  0
 33 34  2  0
 34 35  1  0
 36 35  2  0
 37 38  1  0
 37 11  1  0
 38 41  1  0
 39 38  1  0
 39 43  1  0
 40 39  2  0
 43 42  1  0
 44 45  1  0
 45 46  1  0
 45 43  1  0
 47 37  1  0
 47 48  1  1
 49 47  1  0
 50 47  1  0
 51 52  1  0
 51 53  1  0
 51  1  1  0
 54 51  1  0
 55 72  1  0
 56 61  1  0
 57 58  1  0
 57 56  1  0
 59 58  1  0
 59 76  1  0
 59 60  1  0
 61 60  1  0
 61 55  1  0
 62 55  2  0
 64 66  2  0
 65 69  1  0
 65 63  2  0
 66 63  1  0
 66 54  1  0
 67 68  2  0
 67 64  1  0
 68 65  1  0
 70 69  2  0
 71 67  1  0
 72 68  1  0
 72 70  1  0
 73 98  1  0
 74 73  2  0
 74 93  1  0
 75 74  1  0
 76 73  1  0
 77 75  2  0
 77 76  1  0
 78 75  1  0
 79 78  1  0
 80 79  2  0
 81 82  2  0
 81 80  1  0
 82 83  1  0
 83 78  2  0
 84 85  1  0
 84 81  1  0
 85 86  1  0
 86 87  2  0
 88 92  1  0
 88 87  1  0
 89 88  2  0
 90 89  1  0
 90 85  2  0
 91 90  1  0
 93 94  1  0
 93 95  2  0
 94 97  1  0
 96 94  1  0
 98100  1  0
 98 99  1  0
M  ISO  4   9 101  10 101  55 100  72 100
M  END
>  <TORSDO>  (35) 
F 21

>  <SCORE>  (35) 
-4.815

>  <name>  (35) 
34

>  <ligand_id>  (35) 
34

>  <original_smiles>  (35) 
[H]c1c([H])c([H])c2c(c1[H])C([H])([H])C([H])([H])C([H])([H])C2([H])N([H])C(=O)C1([H])N(C(=O)C([H])(N([H])C(=O)C([H])(N([H])C([H])([H])[H])C([H])([H])[H])C(C([H])([H])[H])(C([H])([H])[H])C([H])([H])[H])C([H])([H])c2c([H])c(OC([H])([H])C([H])([H])[N+]3([H])C([H])([H])C([H])([H])C([H])(C([H])([H])[N+]([H])([H])C([H])([H])c4c([H])c(C([H])([H])[H])c5c(c4[H])C([H])([H])C([H])([H])N5C(=O)N4C([H])([H])C([H])([H])C([H])([H])C([H])(n5nc(-c6c([H])c([H])c(Oc7c([H])c([H])c(F)c([H])c7F)c([H])c6[H])c(C(=O)N([H])[H])c5N([H])[H])C4([H])[H])C3([H])[H])c([H])c([H])c2C1([H])[H]

>  <smiles>  (35) 
[H]c1c([H])c([H])c2c(c1[H])C([H])([H])C([H])([H])C([H])([H])C2([H])N([H])C(=O)C1([H])N(C(=O)C([H])(N([H])C(=O)C([H])(N([H])C([H])([H])[H])C([H])([H])[H])C(C([H])([H])[H])(C([H])([H])[H])C([H])([H])[H])C([H])([H])c2c([H])c(OC([H])([H])C([H])([H])[N+]3([H])C([H])([H])C([H])([H])C([H])(C([H])([H])[N+]([H])([H])C([H])([H])c4c([H])c(C([H])([H])[H])c5c(c4[H])C([H])([H])C([H])([H])N5C(=O)N4C([H])([H])C([H])([H])C([H])([H])C([H])(n5nc(-c6c([H])c([H])c(Oc7c([H])c([H])c(F)c([H])c7F)c([H])c6[H])c(C(=O)N([H])[H])c5N([H])[H])C4([H])[H])C3([H])[H])c([H])c([H])c2C1([H])[H]

$$$$
35:0:0
     RDKit          3D

103113  0  0  1  0  0  0  0  0999 V2000
  -28.2740  -19.7500   18.9010 C   0  0  0  0  0  0  0  0  0  0  0  0
  -30.9200  -20.0850   16.8730 C   0  0  0  0  0  2  0  0  0  0  0  0
  -31.1330  -21.8350   18.9020 C   0  0  0  0  0  2  0  0  0  0  0  0
  -29.5210  -19.9660   19.7940 C   0  0  0  0  0  3  0  0  0  0  0  0
  -29.4260  -20.3200   16.5760 C   0  0  0  0  0  3  0  0  0  0  0  0
  -29.8760  -21.5420   19.7690 C   0  0  0  0  0  3  0  0  0  0  0  0
  -31.0810  -21.5510   17.3510 C   0  0  2  0  0  0  0  0  0  0  0  0
  -29.7880  -21.8380   16.4670 C   0  0  1  0  0  0  0  0  0  0  0  0
  -32.3770  -22.2250   16.8560 C   0  0  0  0  0  1  0  0  0  0  0  0
  -30.0950  -22.2500   15.0100 C   0  0  0  0  0  1  0  0  0  0  0  0
  -28.7730  -22.9150   16.9130 C   0  0  0  0  0  1  0  0  0  0  0  0
  -27.0630  -19.8480   16.8050 C   0  0  0  0  0  1  0  0  0  0  0  0
  -28.3350  -19.9480   17.5460 N   0  0  0  0  0  0  0  0  0  0  0  0
  -27.2010  -19.4930   19.4550 O   0  0  0  0  0  0  0  0  0  0  0  0
  -31.1130  -14.6630   20.7610 C   0  0  0  0  0  0  0  0  0  0  0  0
  -30.7780  -12.4510   19.6580 C   0  0  0  0  0  2  0  0  0  0  0  0
  -29.9240  -12.5960   18.3820 C   0  0  0  0  0  2  0  0  0  0  0  0
  -28.4270  -12.4750   18.7240 C   0  0  0  0  0  2  0  0  0  0  0  0
  -28.0250  -13.3570   19.9320 C   0  0  0  0  0  3  0  0  0  0  0  0
  -29.0160  -13.2070   21.1120 C   0  0  0  0  0  2  0  0  0  0  0  0
  -30.3560  -13.5190   20.5970 N   0  0  0  0  0  0  0  0  0  0  0  0
  -32.3140  -14.6100   20.4790 O   0  0  0  0  0  0  0  0  0  0  0  0
  -29.2560  -16.4590   20.7630 C   0  0  0  0  0  2  0  0  0  0  0  0
  -31.4430  -17.0130   21.6230 C   0  0  0  0  0  2  0  0  0  0  0  0
  -28.9480  -17.8970   21.3340 C   0  0  0  0  0  2  0  0  0  0  0  0
  -31.2300  -18.3730   20.8480 C   0  0  0  0  0  2  0  0  0  0  0  0
  -30.5720  -15.8880   21.1540 N   0  0  0  0  0  0  0  0  0  0  0  0
  -29.8790  -18.9980   20.9570 N   0  0  0  0  0  0  0  0  0  0  0  0
  -25.6230  -14.0530   20.5080 C   0  0  0  0  0  0  0  0  0  0  0  0
  -24.5080  -13.3250   20.8160 C   0  0  0  0  0  0  0  0  0  0  0  0
  -24.9200  -11.9580   20.8230 C   0  0  0  0  0  0  0  0  0  0  0  0
  -26.6440  -13.1320   20.3410 N   0  0  0  0  0  0  0  0  0  0  0  0
  -26.2230  -11.8660   20.5950 N   0  0  0  0  0  0  0  0  0  0  0  0
  -24.1350  -10.7260   20.9700 C   0  0  0  0  0  0  0  0  0  0  0  0
  -24.4940   -9.7310   21.9060 C   0  0  0  0  0  3  0  0  0  0  0  0
  -23.7140   -8.5630   22.0420 C   0  0  0  0  0  3  0  0  0  0  0  0
  -22.5590   -8.3830   21.2440 C   0  0  0  0  0  0  0  0  0  0  0  0
  -22.2190   -9.3660   20.2990 C   0  0  0  0  0  3  0  0  0  0  0  0
  -23.0000  -10.5260   20.1600 C   0  0  0  0  0  3  0  0  0  0  0  0
  -21.7540   -7.2710   21.2920 O   0  0  0  0  0  0  0  0  0  0  0  0
  -21.6640   -6.4970   22.4210 C   0  0  0  0  0  0  0  0  0  0  0  0
  -21.2390   -7.0270   23.6580 C   0  0  0  0  0  3  0  0  0  0  0  0
  -21.0960   -6.1810   24.7760 C   0  0  0  0  0  3  0  0  0  0  0  0
  -21.3660   -4.8040   24.6560 C   0  0  0  0  0  0  0  0  0  0  0  0
  -21.7830   -4.2730   23.4220 C   0  0  0  0  0  3  0  0  0  0  0  0
  -21.9300   -5.1170   22.3080 C   0  0  0  0  0  0  0  0  0  0  0  0
  -22.3140   -4.5960   21.1170 F   0  0  0  0  0  0  0  0  0  0  0  0
  -21.2200   -3.9890   25.7260 F   0  0  0  0  0  0  0  0  0  0  0  0
  -23.1170  -13.8600   20.9930 C   0  0  0  0  0  0  0  0  0  0  0  0
  -22.3190  -13.2260   21.8430 N   0  0  0  0  0  0  0  0  0  0  0  0
  -22.7450  -14.8780   20.4090 O   0  0  0  0  0  0  0  0  0  0  0  0
  -22.6320  -12.4050   22.3410 H   0  0  0  0  0  0  0  0  0  0  0  0
  -21.3820  -13.5660   22.0030 H   0  0  0  0  0  0  0  0  0  0  0  0
  -25.8420  -15.4150   20.3280 N   0  0  0  0  0  0  0  0  0  0  0  0
  -25.0770  -16.0790   20.3650 H   0  0  0  0  0  0  0  0  0  0  0  0
  -26.7000  -15.8190   19.9800 H   0  0  0  0  0  0  0  0  0  0  0  0
  -29.5430  -22.5110   20.9000 N   0  0  0  0  0  4  0  0  0  0  0  0
  -30.0490  -22.2210   21.7240 H   0  0  0  0  0  0  0  0  0  0  0  0
  -28.5680  -22.3650   21.1180 H   0  0  0  0  0  0  0  0  0  0  0  0
  -31.0650  -24.4580   21.3810 C   0  0  0  0  0  1  0  0  0  0  0  0
  -29.7690  -24.0200   20.6690 C   0  0  0  0  0  3  0  0  0  0  0  0
  -28.5950  -25.0330   21.0450 C   0  0  0  0  0  2  0  0  0  0  0  0
  -28.7910  -26.4650   20.6810 O   0  0  0  0  0  0  0  0  0  0  0  0
  -24.7190  -31.8320   23.2770 C   0  0  0  0  0  0  0  0  0  0  0  0
  -27.6560  -27.2780   20.5450 C   0  0  0  0  0  0  0  0  0  0  0  0
  -23.6700  -30.3550   21.5990 C   0  0  0  0  0  3  0  0  0  0  0  0
  -25.2570  -28.8150   20.3160 C   0  0  0  0  0  0  0  0  0  0  0  0
  -26.2040  -30.7500   21.5760 C   0  0  0  0  0  2  0  0  0  0  0  0
  -26.3670  -29.3570   20.9780 C   0  0  0  0  0  0  0  0  0  0  0  0
  -27.5720  -28.6000   21.0810 C   0  0  0  0  0  3  0  0  0  0  0  0
  -26.5320  -26.7950   19.8400 C   0  0  0  0  0  3  0  0  0  0  0  0
  -25.3430  -27.5420   19.7350 C   0  0  0  0  0  3  0  0  0  0  0  0
  -23.9960  -29.6510   20.2560 C   0  0  0  0  0  2  0  0  0  0  0  0
  -24.8790  -30.9980   22.2080 N   0  0  0  0  0  0  0  0  0  0  0  0
  -23.5950  -32.0900   23.7310 O   0  0  0  0  0  0  0  0  0  0  0  0
  -22.9750  -29.3430   22.5410 C   0  0  0  0  0  0  0  0  0  0  0  0
  -21.6630  -29.1360   22.3440 N   0  0  0  0  0  0  0  0  0  0  0  0
  -23.6200  -28.7460   23.4070 O   0  0  0  0  0  0  0  0  0  0  0  0
  -21.2020  -29.6700   21.6210 H   0  0  0  0  0  0  0  0  0  0  0  0
  -18.2710  -27.9370   22.7290 C   0  0  0  0  0  0  0  0  0  0  0  0
  -20.8190  -28.1980   23.0870 C   0  0  0  0  0  3  0  0  0  0  0  0
  -20.9420  -26.7660   22.5160 C   0  0  0  0  0  2  0  0  0  0  0  0
  -19.8760  -26.4420   21.4650 C   0  0  0  0  0  2  0  0  0  0  0  0
  -18.4730  -26.5870   22.0610 C   0  0  0  0  0  2  0  0  0  0  0  0
  -19.3750  -28.6990   23.1970 C   0  0  0  0  0  0  0  0  0  0  0  0
  -19.1340  -29.9620   23.7810 C   0  0  0  0  0  3  0  0  0  0  0  0
  -17.8240  -30.4630   23.9010 C   0  0  0  0  0  3  0  0  0  0  0  0
  -16.7350  -29.6960   23.4500 C   0  0  0  0  0  3  0  0  0  0  0  0
  -16.9600  -28.4340   22.8700 C   0  0  0  0  0  3  0  0  0  0  0  0
  -25.9380  -32.5210   23.9630 C   0  0  0  0  0  3  0  0  0  0  0  0
  -26.3950  -31.7970   25.2900 C   0  0  1  0  0  0  0  0  0  0  0  0
  -25.2370  -31.5280   26.2810 C   0  0  0  0  0  1  0  0  0  0  0  0
  -27.0650  -30.4400   24.9710 C   0  0  0  0  0  1  0  0  0  0  0  0
  -27.4570  -32.6530   26.0170 C   0  0  0  0  0  1  0  0  0  0  0  0
  -25.5650  -33.9160   24.2380 N   0  0  0  0  0  0  0  0  0  0  0  0
  -25.9110  -34.9600   23.4740 C   0  0  0  0  0  0  0  0  0  0  0  0
  -26.6460  -34.8540   22.4880 O   0  0  0  0  0  0  0  0  0  0  0  0
  -24.9180  -34.0700   24.9980 H   0  0  0  0  0  0  0  0  0  0  0  0
  -24.1540  -36.6890   22.9690 C   0  0  0  0  0  1  0  0  0  0  0  0
  -25.3540  -36.3420   23.8660 C   0  0  0  0  0  3  0  0  0  0  0  0
  -27.3960  -37.3210   24.8140 C   0  0  0  0  0  1  0  0  0  0  0  0
  -26.3590  -37.4250   23.7910 N   0  0  0  0  0  0  0  0  0  0  0  0
  -25.9150  -38.3350   23.8810 H   0  0  0  0  0  0  0  0  0  0  0  0
  1 14  2  0
  2  7  1  0
  3  6  1  0
  4  1  1  0
  4 28  1  0
  5  2  1  0
  5 13  1  0
  6  4  1  0
  6 57  1  0
  7  9  1  6
  7  3  1  0
  8  5  1  0
  8 11  1  1
  8  7  1  0
 10  8  1  0
 12 13  1  0
 13  1  1  0
 15 27  1  0
 16 21  1  0
 17 18  1  0
 17 16  1  0
 19 18  1  0
 19 32  1  0
 19 20  1  0
 21 15  1  0
 21 20  1  0
 22 15  2  0
 23 27  1  0
 23 25  1  0
 26 24  1  0
 27 24  1  0
 28 26  1  0
 28 25  1  0
 29 30  2  0
 30 31  1  0
 30 49  1  0
 31 34  1  0
 32 29  1  0
 32 33  1  0
 33 31  2  0
 34 35  1  0
 35 36  2  0
 37 40  1  0
 37 36  1  0
 38 37  2  0
 39 38  1  0
 39 34  2  0
 40 41  1  0
 41 42  1  0
 42 43  2  0
 44 43  1  0
 44 48  1  0
 45 44  2  0
 46 41  2  0
 46 45  1  0
 47 46  1  0
 49 50  1  0
 50 53  1  0
 50 52  1  0
 51 49  2  0
 54 55  1  0
 54 29  1  0
 56 54  1  0
 57 59  1  0
 57 58  1  0
 61 57  1  0
 61 62  1  0
 61 60  1  0
 63 62  1  0
 64 75  2  0
 65 63  1  0
 65 70  1  0
 66 74  1  0
 66 76  1  0
 67 69  1  0
 68 74  1  0
 69 70  2  0
 69 68  1  0
 71 65  2  0
 72 71  1  0
 72 67  2  0
 73 67  1  0
 73 66  1  0
 74 64  1  0
 76 78  2  0
 77 76  1  0
 79 77  1  0
 80 89  2  0
 80 85  1  0
 81 77  1  0
 81 85  1  0
 82 81  1  0
 83 84  1  0
 83 82  1  0
 84 80  1  0
 85 86  2  0
 86 87  1  0
 88 87  2  0
 89 88  1  0
 90 64  1  0
 90 95  1  0
 90 91  1  0
 91 94  1  1
 91 92  1  0
 93 91  1  0
 95 98  1  0
 96100  1  0
 96 95  1  0
 97 96  2  0
100 99  1  0
102100  1  0
102103  1  0
102101  1  0
M  ISO  4  15 100  27 100  62 101  63 101
M  END
>  <TORSDO>  (36) 
F 19

>  <SCORE>  (36) 
-13.220

>  <name>  (36) 
35

>  <ligand_id>  (36) 
35

>  <original_smiles>  (36) 
[H]c1c([H])c([H])c2c(c1[H])C([H])([H])C([H])([H])C([H])([H])C2([H])N([H])C(=O)C1([H])N(C(=O)C([H])(N([H])C(=O)C([H])(N([H])C([H])([H])[H])C([H])([H])[H])C(C([H])([H])[H])(C([H])([H])[H])C([H])([H])[H])C([H])([H])c2c([H])c(OC([H])([H])C([H])(C([H])([H])[H])[N+]([H])([H])C3([H])C([H])(N4C([H])([H])C([H])([H])N(C(=O)N5C([H])([H])C([H])([H])C([H])([H])C([H])(n6nc(-c7c([H])c([H])c(Oc8c([H])c([H])c(F)c([H])c8F)c([H])c7[H])c(C(=O)N([H])[H])c6N([H])[H])C5([H])[H])C([H])([H])C4([H])[H])C(=O)N(C([H])([H])[H])C4([H])C([H])([H])C(C([H])([H])[H])(C3([H])[H])C4(C([H])([H])[H])C([H])([H])[H])c([H])c([H])c2C1([H])[H]

>  <smiles>  (36) 
[H]c1c([H])c([H])c2c(c1[H])C([H])([H])C([H])([H])C([H])([H])C2([H])N([H])C(=O)C1([H])N(C(=O)C([H])(N([H])C(=O)C([H])(N([H])C([H])([H])[H])C([H])([H])[H])C(C([H])([H])[H])(C([H])([H])[H])C([H])([H])[H])C([H])([H])c2c([H])c(OC([H])([H])C([H])(C([H])([H])[H])[N+]([H])([H])C3([H])C([H])(N4C([H])([H])C([H])([H])N(C(=O)N5C([H])([H])C([H])([H])C([H])([H])C([H])(n6nc(-c7c([H])c([H])c(Oc8c([H])c([H])c(F)c([H])c8F)c([H])c7[H])c(C(=O)N([H])[H])c6N([H])[H])C5([H])[H])C([H])([H])C4([H])[H])C(=O)N(C([H])([H])[H])C4([H])C([H])([H])C(C([H])([H])[H])(C3([H])[H])C4(C([H])([H])[H])C([H])([H])[H])c([H])c([H])c2C1([H])[H]

$$$$
36:0:0
     RDKit          3D

 96106  0  0  1  0  0  0  0  0999 V2000
  -28.6510  -21.9240   19.1830 C   0  0  0  0  0  3  0  0  0  0  0  0
  -29.1010  -23.3770   19.1380 C   0  0  0  0  0  0  0  0  0  0  0  0
  -29.6430  -20.9110   19.4700 C   0  0  0  0  0  0  0  0  0  0  0  0
  -30.4230  -23.1240   19.3830 C   0  0  0  0  0  0  0  0  0  0  0  0
  -32.0760  -21.9770   19.7840 C   0  0  0  0  0  2  0  0  0  0  0  0
  -31.8640  -23.5270   19.5290 C   0  0  2  0  0  0  0  0  0  0  0  0
  -32.0710  -24.4980   20.6870 C   0  0  0  0  0  1  0  0  0  0  0  0
  -32.4190  -24.1130   18.2320 C   0  0  0  0  0  1  0  0  0  0  0  0
  -30.6910  -21.8100   19.5570 N   0  0  0  0  0  0  0  0  0  0  0  0
  -30.7460  -15.1910   19.1380 C   0  0  0  0  0  0  0  0  0  0  0  0
  -30.5330  -12.8200   18.1990 C   0  0  0  0  0  2  0  0  0  0  0  0
  -29.3730  -12.7080   17.1770 C   0  0  0  0  0  2  0  0  0  0  0  0
  -28.0230  -12.4500   17.8770 C   0  0  0  0  0  2  0  0  0  0  0  0
  -27.8320  -13.3560   19.1170 C   0  0  0  0  0  3  0  0  0  0  0  0
  -29.0970  -13.3370   20.0120 C   0  0  0  0  0  2  0  0  0  0  0  0
  -30.1880  -13.8930   19.1890 N   0  0  0  0  0  0  0  0  0  0  0  0
  -31.8360  -15.2590   18.5560 O   0  0  0  0  0  0  0  0  0  0  0  0
  -29.0130  -16.4130   20.5440 C   0  0  0  0  0  2  0  0  0  0  0  0
  -30.2040  -17.9150   18.9350 C   0  0  0  0  0  3  0  0  0  0  0  0
  -28.1860  -17.7030   20.7600 C   0  0  0  0  0  2  0  0  0  0  0  0
  -29.8410  -19.2920   19.8640 C   0  0  0  0  0  0  0  0  0  0  0  0
  -28.3000  -19.9520   21.7570 C   0  0  0  0  0  1  0  0  0  0  0  0
  -30.0300  -16.4170   19.4710 N   0  0  0  0  0  0  0  0  0  0  0  0
  -29.0320  -18.8790   21.0410 N   0  0  1  0  0  4  0  0  0  0  0  0
  -29.7100  -18.5520   21.7130 H   0  0  0  0  0  0  0  0  0  0  0  0
  -25.6920  -13.9280   20.4070 C   0  0  0  0  0  0  0  0  0  0  0  0
  -24.6930  -13.1500   20.9200 C   0  0  0  0  0  0  0  0  0  0  0  0
  -25.0580  -11.8000   20.6280 C   0  0  0  0  0  0  0  0  0  0  0  0
  -26.6120  -13.0510   19.8530 N   0  0  0  0  0  0  0  0  0  0  0  0
  -26.2500  -11.7580   20.0450 N   0  0  0  0  0  0  0  0  0  0  0  0
  -24.3110  -10.5510   20.8190 C   0  0  0  0  0  0  0  0  0  0  0  0
  -24.8050   -9.5160   21.6440 C   0  0  0  0  0  3  0  0  0  0  0  0
  -24.0580   -8.3310   21.8270 C   0  0  0  0  0  3  0  0  0  0  0  0
  -22.8060   -8.1760   21.1890 C   0  0  0  0  0  0  0  0  0  0  0  0
  -22.3320   -9.1990   20.3480 C   0  0  0  0  0  3  0  0  0  0  0  0
  -23.0780  -10.3740   20.1620 C   0  0  0  0  0  3  0  0  0  0  0  0
  -22.0230   -7.0510   21.2910 O   0  0  0  0  0  0  0  0  0  0  0  0
  -21.9390   -6.3370   22.4600 C   0  0  0  0  0  0  0  0  0  0  0  0
  -21.5140   -6.9320   23.6670 C   0  0  0  0  0  3  0  0  0  0  0  0
  -21.3770   -6.1440   24.8280 C   0  0  0  0  0  3  0  0  0  0  0  0
  -21.6560   -4.7650   24.7810 C   0  0  0  0  0  0  0  0  0  0  0  0
  -22.0740   -4.1710   23.5770 C   0  0  0  0  0  3  0  0  0  0  0  0
  -22.2130   -4.9550   22.4190 C   0  0  0  0  0  0  0  0  0  0  0  0
  -22.5970   -4.3740   21.2560 F   0  0  0  0  0  0  0  0  0  0  0  0
  -21.5160   -4.0070   25.8940 F   0  0  0  0  0  0  0  0  0  0  0  0
  -23.4170  -13.6370   21.5420 C   0  0  0  0  0  0  0  0  0  0  0  0
  -22.8590  -12.8740   22.4770 N   0  0  0  0  0  0  0  0  0  0  0  0
  -22.9330  -14.7250   21.2370 O   0  0  0  0  0  0  0  0  0  0  0  0
  -23.2690  -11.9910   22.7440 H   0  0  0  0  0  0  0  0  0  0  0  0
  -22.0100  -13.1790   22.9320 H   0  0  0  0  0  0  0  0  0  0  0  0
  -25.8730  -15.3060   20.3340 N   0  0  0  0  0  0  0  0  0  0  0  0
  -25.0960  -15.9090   20.5790 H   0  0  0  0  0  0  0  0  0  0  0  0
  -26.4700  -15.7070   19.6240 H   0  0  0  0  0  0  0  0  0  0  0  0
  -27.3970  -24.5250   17.5430 C   0  0  0  0  0  1  0  0  0  0  0  0
  -28.3900  -24.8250   18.6750 C   0  0  0  0  0  3  0  0  0  0  0  0
  -28.2410  -26.1950   19.4570 O   0  0  0  0  0  0  0  0  0  0  0  0
  -24.5460  -31.5620   22.9960 C   0  0  0  0  0  0  0  0  0  0  0  0
  -27.1370  -27.1500   19.4880 C   0  0  0  0  0  0  0  0  0  0  0  0
  -23.3230  -30.2620   21.3010 C   0  0  0  0  0  3  0  0  0  0  0  0
  -24.7570  -28.8540   19.7020 C   0  0  0  0  0  0  0  0  0  0  0  0
  -25.8660  -30.6100   21.0620 C   0  0  0  0  0  2  0  0  0  0  0  0
  -25.9520  -29.2760   20.2920 C   0  0  0  0  0  0  0  0  0  0  0  0
  -27.1380  -28.4440   20.1680 C   0  0  0  0  0  3  0  0  0  0  0  0
  -25.8820  -26.8310   18.9170 C   0  0  0  0  0  3  0  0  0  0  0  0
  -24.7370  -27.6450   19.0010 C   0  0  0  0  0  3  0  0  0  0  0  0
  -23.5080  -29.7080   19.8660 C   0  0  0  0  0  2  0  0  0  0  0  0
  -24.6010  -30.8290   21.8410 N   0  0  0  0  0  0  0  0  0  0  0  0
  -23.4710  -31.7710   23.5820 O   0  0  0  0  0  0  0  0  0  0  0  0
  -22.7100  -29.1610   22.2040 C   0  0  0  0  0  0  0  0  0  0  0  0
  -21.3950  -28.9100   22.0630 N   0  0  0  0  0  0  0  0  0  0  0  0
  -23.4190  -28.5380   22.9980 O   0  0  0  0  0  0  0  0  0  0  0  0
  -20.8750  -29.4700   21.4000 H   0  0  0  0  0  0  0  0  0  0  0  0
  -18.1170  -27.4080   22.4280 C   0  0  0  0  0  0  0  0  0  0  0  0
  -20.6350  -27.8840   22.7810 C   0  0  0  0  0  3  0  0  0  0  0  0
  -20.8780  -26.4840   22.1720 C   0  0  0  0  0  2  0  0  0  0  0  0
  -19.8360  -26.0970   21.1150 C   0  0  0  0  0  2  0  0  0  0  0  0
  -18.4300  -26.1010   21.7200 C   0  0  0  0  0  2  0  0  0  0  0  0
  -19.1520  -28.2510   22.9140 C   0  0  0  0  0  0  0  0  0  0  0  0
  -18.8040  -29.4700   23.5380 C   0  0  0  0  0  3  0  0  0  0  0  0
  -17.4570  -29.8470   23.6800 C   0  0  0  0  0  3  0  0  0  0  0  0
  -16.4360  -29.0030   23.2100 C   0  0  0  0  0  3  0  0  0  0  0  0
  -16.7680  -27.7850   22.5900 C   0  0  0  0  0  3  0  0  0  0  0  0
  -25.8260  -32.1910   23.6250 C   0  0  0  0  0  3  0  0  0  0  0  0
  -25.4980  -33.5670   24.0260 N   0  0  0  0  0  0  0  0  0  0  0  0
  -25.7740  -34.6610   23.3050 C   0  0  0  0  0  0  0  0  0  0  0  0
  -26.3990  -34.6180   22.2420 O   0  0  0  0  0  0  0  0  0  0  0  0
  -24.9330  -33.6730   24.8570 H   0  0  0  0  0  0  0  0  0  0  0  0
  -23.9870  -36.4260   23.1260 C   0  0  0  0  0  1  0  0  0  0  0  0
  -25.2820  -36.0200   23.8470 C   0  0  0  0  0  3  0  0  0  0  0  0
  -27.4390  -36.9300   24.5920 C   0  0  0  0  0  1  0  0  0  0  0  0
  -26.2820  -37.1020   23.7170 N   0  0  0  0  0  0  0  0  0  0  0  0
  -25.8630  -38.0060   23.9190 H   0  0  0  0  0  0  0  0  0  0  0  0
  -26.3720  -31.3730   24.8600 C   0  0  1  0  0  0  0  0  0  0  0  0
  -25.3020  -31.0790   25.9370 C   0  0  0  0  0  1  0  0  0  0  0  0
  -26.9650  -30.0190   24.4070 C   0  0  0  0  0  1  0  0  0  0  0  0
  -27.5250  -32.1550   25.5320 C   0  0  0  0  0  1  0  0  0  0  0  0
  1  3  2  0
  2  1  1  0
  2  4  2  0
  3  9  1  0
  3 21  1  0
  4  6  1  0
  4  9  1  0
  6  5  1  0
  6  7  1  1
  8  6  1  0
  9  5  1  0
 10 16  1  0
 10 23  1  0
 11 16  1  0
 12 13  1  0
 12 11  1  0
 14 13  1  0
 14 29  1  0
 14 15  1  0
 16 15  1  0
 17 10  2  0
 18 20  1  0
 19 23  1  0
 19 21  2  0
 20 24  1  0
 21 24  1  0
 23 18  1  0
 24 25  1  1
 24 22  1  0
 26 27  2  0
 27 46  1  0
 28 31  1  0
 28 27  1  0
 29 30  1  0
 29 26  1  0
 30 28  2  0
 31 32  1  0
 32 33  2  0
 34 37  1  0
 34 33  1  0
 35 34  2  0
 36 35  1  0
 36 31  2  0
 37 38  1  0
 38 39  1  0
 39 40  2  0
 41 40  1  0
 41 45  1  0
 42 41  2  0
 43 38  2  0
 43 42  1  0
 44 43  1  0
 46 47  1  0
 47 49  1  0
 47 50  1  0
 48 46  2  0
 51 26  1  0
 51 52  1  0
 53 51  1  0
 55 54  1  0
 55  2  1  0
 55 56  1  0
 56 58  1  0
 57 68  2  0
 58 63  1  0
 59 67  1  0
 59 69  1  0
 60 66  1  0
 60 62  1  0
 61 67  1  0
 62 61  1  0
 63 62  2  0
 64 65  1  0
 64 58  2  0
 65 60  2  0
 66 59  1  0
 67 57  1  0
 69 71  2  0
 70 69  1  0
 72 70  1  0
 73 82  2  0
 73 78  1  0
 74 70  1  0
 74 78  1  0
 75 74  1  0
 76 77  1  0
 76 75  1  0
 77 73  1  0
 78 79  2  0
 79 80  1  0
 81 80  2  0
 82 81  1  0
 83 57  1  0
 83 84  1  0
 83 93  1  0
 84 87  1  0
 85 89  1  0
 85 84  1  0
 86 85  2  0
 89 88  1  0
 91 89  1  0
 91 92  1  0
 91 90  1  0
 93 96  1  1
 93 94  1  0
 95 93  1  0
M  ISO  4  10 100  23 100  55 101  56 101
M  END
>  <TORSDO>  (37) 
F 17

>  <SCORE>  (37) 
-10.473

>  <name>  (37) 
36

>  <ligand_id>  (37) 
36

>  <original_smiles>  (37) 
[H]c1c([H])c([H])c2c(c1[H])C([H])([H])C([H])([H])C([H])([H])C2([H])N([H])C(=O)C1([H])N(C(=O)C([H])(N([H])C(=O)C([H])(N([H])C([H])([H])[H])C([H])([H])[H])C(C([H])([H])[H])(C([H])([H])[H])C([H])([H])[H])C([H])([H])c2c([H])c(OC([H])(c3c([H])c(C4([H])C([H])([H])N(C(=O)N5C([H])([H])C([H])([H])C([H])([H])C([H])(n6nc(-c7c([H])c([H])c(Oc8c([H])c([H])c(F)c([H])c8F)c([H])c7[H])c(C(=O)N([H])[H])c6N([H])[H])C5([H])[H])C([H])([H])C([H])([H])[N+]4([H])C([H])([H])[H])n4c3C(C([H])([H])[H])(C([H])([H])[H])C4([H])[H])C([H])([H])[H])c([H])c([H])c2C1([H])[H]

>  <smiles>  (37) 
[H]c1c([H])c([H])c2c(c1[H])C([H])([H])C([H])([H])C([H])([H])C2([H])N([H])C(=O)C1([H])N(C(=O)C([H])(N([H])C(=O)C([H])(N([H])C([H])([H])[H])C([H])([H])[H])C(C([H])([H])[H])(C([H])([H])[H])C([H])([H])[H])C([H])([H])c2c([H])c(OC([H])(c3c([H])c(C4([H])C([H])([H])N(C(=O)N5C([H])([H])C([H])([H])C([H])([H])C([H])(n6nc(-c7c([H])c([H])c(Oc8c([H])c([H])c(F)c([H])c8F)c([H])c7[H])c(C(=O)N([H])[H])c6N([H])[H])C5([H])[H])C([H])([H])C([H])([H])[N+]4([H])C([H])([H])[H])n4c3C(C([H])([H])[H])(C([H])([H])[H])C4([H])[H])C([H])([H])[H])c([H])c([H])c2C1([H])[H]

$$$$
37:0:0
     RDKit          3D

100110  0  0  1  0  0  0  0  0999 V2000
  -34.4990  -14.1150   20.3150 C   0  0  0  0  0  0  0  0  0  0  0  0
  -34.3740  -11.7290   20.9410 C   0  0  0  0  0  2  0  0  0  0  0  0
  -33.8350  -10.9260   19.7350 C   0  0  0  0  0  2  0  0  0  0  0  0
  -32.2910  -10.9300   19.7030 C   0  0  0  0  0  2  0  0  0  0  0  0
  -31.6910  -12.3480   19.9020 C   0  0  0  0  0  3  0  0  0  0  0  0
  -32.3500  -13.0180   21.1250 C   0  0  0  0  0  2  0  0  0  0  0  0
  -33.7970  -13.0820   20.8670 N   0  0  0  0  0  0  0  0  0  0  0  0
  -35.7250  -14.0510   20.1600 O   0  0  0  0  0  0  0  0  0  0  0  0
  -31.6760  -18.1390   17.5830 C   0  0  0  0  0  3  0  0  0  0  0  0
  -32.6210  -17.3190   18.2210 C   0  0  0  0  0  0  0  0  0  0  0  0
  -33.2950  -16.3360   17.4740 C   0  0  0  0  0  0  0  0  0  0  0  0
  -31.4410  -18.0540   16.1990 C   0  0  0  0  0  0  0  0  0  0  0  0
  -33.1010  -16.2530   16.0610 C   0  0  0  0  0  0  0  0  0  0  0  0
  -32.2160  -17.1650   15.3930 C   0  0  0  0  0  0  0  0  0  0  0  0
  -34.2320  -15.3970   18.2560 C   0  0  0  0  0  2  0  0  0  0  0  0
  -33.8930  -18.4230   20.2010 C   0  0  0  0  0  2  0  0  0  0  0  0
  -32.4310  -18.5780   20.5430 C   0  0  0  0  0  2  0  0  0  0  0  0
  -32.8970  -16.0080   20.2860 C   0  0  0  0  0  2  0  0  0  0  0  0
  -32.8930  -17.4050   19.6990 C   0  0  1  0  0  0  0  0  0  0  0  0
  -30.3030  -18.9140   15.6640 C   0  0  0  0  0  1  0  0  0  0  0  0
  -33.8310  -15.1370   15.3030 C   0  0  0  0  0  1  0  0  0  0  0  0
  -33.7720  -15.0290   19.6150 N   0  0  0  0  0  0  0  0  0  0  0  0
  -29.2890  -13.2120   19.5770 C   0  0  0  0  0  0  0  0  0  0  0  0
  -28.0720  -12.6620   19.8860 C   0  0  0  0  0  0  0  0  0  0  0  0
  -28.3540  -11.4110   20.5160 C   0  0  0  0  0  0  0  0  0  0  0  0
  -30.2370  -12.3040   20.0240 N   0  0  0  0  0  0  0  0  0  0  0  0
  -29.6620  -11.2390   20.6370 N   0  0  0  0  0  0  0  0  0  0  0  0
  -27.4540  -10.3390   20.9610 C   0  0  0  0  0  0  0  0  0  0  0  0
  -27.2200  -10.0940   22.3320 C   0  0  0  0  0  3  0  0  0  0  0  0
  -26.3360   -9.0700   22.7360 C   0  0  0  0  0  3  0  0  0  0  0  0
  -25.6750   -8.2820   21.7650 C   0  0  0  0  0  0  0  0  0  0  0  0
  -25.9290   -8.5170   20.4020 C   0  0  0  0  0  3  0  0  0  0  0  0
  -26.8120   -9.5330   20.0020 C   0  0  0  0  0  3  0  0  0  0  0  0
  -24.8200   -7.2480   22.0640 O   0  0  0  0  0  0  0  0  0  0  0  0
  -23.5950   -7.4710   22.6380 C   0  0  0  0  0  0  0  0  0  0  0  0
  -23.0270   -8.7610   22.7060 C   0  0  0  0  0  3  0  0  0  0  0  0
  -21.7350   -8.9350   23.2430 C   0  0  0  0  0  3  0  0  0  0  0  0
  -21.0080   -7.8200   23.7020 C   0  0  0  0  0  0  0  0  0  0  0  0
  -21.5700   -6.5330   23.6300 C   0  0  0  0  0  3  0  0  0  0  0  0
  -22.8590   -6.3590   23.0970 C   0  0  0  0  0  0  0  0  0  0  0  0
  -23.3880   -5.1150   23.0100 F   0  0  0  0  0  0  0  0  0  0  0  0
  -19.7650   -7.9850   24.2100 F   0  0  0  0  0  0  0  0  0  0  0  0
  -26.7220  -13.2180   19.5360 C   0  0  0  0  0  0  0  0  0  0  0  0
  -25.6570  -12.5770   20.0040 N   0  0  0  0  0  0  0  0  0  0  0  0
  -26.6060  -14.2550   18.8840 O   0  0  0  0  0  0  0  0  0  0  0  0
  -25.7530  -11.7360   20.5540 H   0  0  0  0  0  0  0  0  0  0  0  0
  -24.7320  -12.9320   19.8100 H   0  0  0  0  0  0  0  0  0  0  0  0
  -29.6660  -14.3910   18.9420 N   0  0  0  0  0  0  0  0  0  0  0  0
  -28.9930  -15.0560   18.5770 H   0  0  0  0  0  0  0  0  0  0  0  0
  -30.6250  -14.6770   18.7850 H   0  0  0  0  0  0  0  0  0  0  0  0
  -30.7850  -16.3510   13.4580 C   0  0  0  0  0  1  0  0  0  0  0  0
  -32.0660  -17.1120   13.8470 C   0  0  0  0  0  3  0  0  0  0  0  0
  -32.1920  -18.4350   13.0380 C   0  0  0  0  0  2  0  0  0  0  0  0
  -33.5830  -18.9100   12.8480 N   0  0  0  0  0  4  0  0  0  0  0  0
  -33.9900  -18.4580   12.0430 H   0  0  0  0  0  0  0  0  0  0  0  0
  -34.1190  -18.6070   13.6480 H   0  0  0  0  0  0  0  0  0  0  0  0
  -33.6980  -20.3920   12.7310 C   0  0  0  0  0  2  0  0  0  0  0  0
  -33.0140  -20.0540   10.1960 C   0  0  0  0  0  1  0  0  0  0  0  0
  -33.7090  -20.9220   11.2670 C   0  0  0  0  0  3  0  0  0  0  0  0
  -33.3510  -22.3150   11.1620 O   0  0  0  0  0  0  0  0  0  0  0  0
  -34.0130  -27.4790   16.0050 C   0  0  0  0  0  0  0  0  0  0  0  0
  -32.7140  -23.0150   12.1720 C   0  0  0  0  0  0  0  0  0  0  0  0
  -31.9540  -26.1200   16.1710 C   0  0  0  0  0  3  0  0  0  0  0  0
  -31.4920  -24.5720   14.2040 C   0  0  0  0  0  0  0  0  0  0  0  0
  -33.1330  -26.4340   13.9200 C   0  0  0  0  0  2  0  0  0  0  0  0
  -32.6090  -25.0670   13.5230 C   0  0  0  0  0  0  0  0  0  0  0  0
  -33.2170  -24.2970   12.5050 C   0  0  0  0  0  3  0  0  0  0  0  0
  -31.5920  -22.5320   12.8900 C   0  0  0  0  0  3  0  0  0  0  0  0
  -30.9830  -23.3020   13.8950 C   0  0  0  0  0  3  0  0  0  0  0  0
  -30.8830  -25.4570   15.2660 C   0  0  0  0  0  2  0  0  0  0  0  0
  -33.0940  -26.6890   15.3800 N   0  0  0  0  0  0  0  0  0  0  0  0
  -33.8990  -27.7670   17.2050 O   0  0  0  0  0  0  0  0  0  0  0  0
  -32.4020  -25.0970   17.2390 C   0  0  0  0  0  0  0  0  0  0  0  0
  -31.4440  -24.6170   18.0480 N   0  0  0  0  0  0  0  0  0  0  0  0
  -33.5800  -24.7330   17.3110 O   0  0  0  0  0  0  0  0  0  0  0  0
  -30.5080  -24.9830   17.9380 H   0  0  0  0  0  0  0  0  0  0  0  0
  -29.7010  -22.6740   20.5430 C   0  0  0  0  0  0  0  0  0  0  0  0
  -31.6260  -23.6150   19.0970 C   0  0  0  0  0  3  0  0  0  0  0  0
  -31.7350  -22.1910   18.5020 C   0  0  0  0  0  2  0  0  0  0  0  0
  -30.3900  -21.4600   18.4330 C   0  0  0  0  0  2  0  0  0  0  0  0
  -29.7810  -21.3340   19.8310 C   0  0  0  0  0  2  0  0  0  0  0  0
  -30.5580  -23.7500   20.1890 C   0  0  0  0  0  0  0  0  0  0  0  0
  -30.4150  -24.9860   20.8560 C   0  0  0  0  0  3  0  0  0  0  0  0
  -29.4450  -25.1530   21.8610 C   0  0  0  0  0  3  0  0  0  0  0  0
  -28.6120  -24.0800   22.2180 C   0  0  0  0  0  3  0  0  0  0  0  0
  -28.7430  -22.8430   21.5640 C   0  0  0  0  0  3  0  0  0  0  0  0
  -35.2310  -28.0800   15.2380 C   0  0  0  0  0  3  0  0  0  0  0  0
  -36.5780  -27.3010   15.5000 C   0  0  1  0  0  0  0  0  0  0  0  0
  -36.9160  -27.1330   17.0000 C   0  0  0  0  0  1  0  0  0  0  0  0
  -36.5240  -25.8920   14.8670 C   0  0  0  0  0  1  0  0  0  0  0  0
  -37.7550  -28.0480   14.8280 C   0  0  0  0  0  1  0  0  0  0  0  0
  -35.3560  -29.4870   15.6420 N   0  0  0  0  0  0  0  0  0  0  0  0
  -34.9750  -30.5290   14.8920 C   0  0  0  0  0  0  0  0  0  0  0  0
  -34.5420  -30.4050   13.7430 O   0  0  0  0  0  0  0  0  0  0  0  0
  -35.6400  -29.6620   16.5940 H   0  0  0  0  0  0  0  0  0  0  0  0
  -33.7100  -32.4240   15.9610 C   0  0  0  0  0  1  0  0  0  0  0  0
  -35.0960  -31.9320   15.5150 C   0  0  0  0  0  3  0  0  0  0  0  0
  -37.1340  -32.7010   14.3820 C   0  0  0  0  0  1  0  0  0  0  0  0
  -35.7080  -32.9280   14.6090 N   0  0  0  0  0  0  0  0  0  0  0  0
  -35.5920  -33.8680   14.9780 H   0  0  0  0  0  0  0  0  0  0  0  0
  1  7  1  0
  3  2  1  0
  4  3  1  0
  5  4  1  0
  5 26  1  0
  5  6  1  0
  7  2  1  0
  7  6  1  0
  8  1  2  0
  9 10  1  0
 10 19  1  0
 11 10  2  0
 11 15  1  0
 12  9  2  0
 13 11  1  0
 14 13  2  0
 14 12  1  0
 15 22  1  0
 16 17  1  0
 19 16  1  6
 19 18  1  0
 19 17  1  0
 20 12  1  0
 21 13  1  0
 22 18  1  0
 22  1  1  0
 23 24  2  0
 23 26  1  0
 24 25  1  0
 25 27  2  0
 25 28  1  0
 26 27  1  0
 28 29  1  0
 29 30  2  0
 31 34  1  0
 31 30  1  0
 32 31  2  0
 33 32  1  0
 33 28  2  0
 34 35  1  0
 35 36  2  0
 35 40  1  0
 36 37  1  0
 37 38  2  0
 38 42  1  0
 39 38  1  0
 40 39  2  0
 41 40  1  0
 43 24  1  0
 43 44  1  0
 44 46  1  0
 45 43  2  0
 47 44  1  0
 48 23  1  0
 49 48  1  0
 50 48  1  0
 52 51  1  0
 52 14  1  0
 53 52  1  0
 54 53  1  0
 54 56  1  0
 55 54  1  0
 57 54  1  0
 59 58  1  0
 59 57  1  0
 60 59  1  0
 60 62  1  0
 61 72  2  0
 62 67  2  0
 62 68  1  0
 63 73  1  0
 64 70  1  0
 65 71  1  0
 66 65  1  0
 66 64  2  0
 67 66  1  0
 68 69  2  0
 69 64  1  0
 70 63  1  0
 71 61  1  0
 71 63  1  0
 73 75  2  0
 73 74  1  0
 76 74  1  0
 77 86  1  0
 78 74  1  0
 78 82  1  0
 79 78  1  0
 80 79  1  0
 80 81  1  0
 81 77  1  0
 82 77  2  0
 82 83  1  0
 83 84  2  0
 84 85  1  0
 86 85  2  0
 87 88  1  0
 87 92  1  0
 87 61  1  0
 88 89  1  1
 90 88  1  0
 91 88  1  0
 92 95  1  0
 93 97  1  0
 93 92  1  0
 94 93  2  0
 97 96  1  0
 98 99  1  0
 99100  1  0
 99 97  1  0
M  ISO  4   1 100  22 100  59 101  60 101
M  END
>  <TORSDO>  (38) 
F 20

>  <SCORE>  (38) 
-4.034

>  <name>  (38) 
37

>  <ligand_id>  (38) 
37

>  <original_smiles>  (38) 
[H]c1c([H])c([H])c2c(c1[H])C([H])([H])C([H])([H])C([H])([H])C2([H])N([H])C(=O)C1([H])N(C(=O)C([H])(N([H])C(=O)C([H])(N([H])C([H])([H])[H])C([H])([H])[H])C(C([H])([H])[H])(C([H])([H])[H])C([H])([H])[H])C([H])([H])c2c([H])c(OC([H])(C([H])([H])[H])C([H])([H])[N+]([H])([H])C([H])([H])C([H])(c3c(C([H])([H])[H])c([H])c4c(c3C([H])([H])[H])C([H])([H])N(C(=O)N3C([H])([H])C([H])([H])C([H])([H])C([H])(n5nc(-c6c([H])c([H])c(Oc7c([H])c([H])c(F)c([H])c7F)c([H])c6[H])c(C(=O)N([H])[H])c5N([H])[H])C3([H])[H])C([H])([H])C43C([H])([H])C3([H])[H])C([H])([H])[H])c([H])c([H])c2C1([H])[H]

>  <smiles>  (38) 
[H]c1c([H])c([H])c2c(c1[H])C([H])([H])C([H])([H])C([H])([H])C2([H])N([H])C(=O)C1([H])N(C(=O)C([H])(N([H])C(=O)C([H])(N([H])C([H])([H])[H])C([H])([H])[H])C(C([H])([H])[H])(C([H])([H])[H])C([H])([H])[H])C([H])([H])c2c([H])c(OC([H])(C([H])([H])[H])C([H])([H])[N+]([H])([H])C([H])([H])C([H])(c3c(C([H])([H])[H])c([H])c4c(c3C([H])([H])[H])C([H])([H])N(C(=O)N3C([H])([H])C([H])([H])C([H])([H])C([H])(n5nc(-c6c([H])c([H])c(Oc7c([H])c([H])c(F)c([H])c7F)c([H])c6[H])c(C(=O)N([H])[H])c5N([H])[H])C3([H])[H])C([H])([H])C43C([H])([H])C3([H])[H])C([H])([H])[H])c([H])c([H])c2C1([H])[H]

$$$$
38:0:0
     RDKit          3D

100109  0  0  1  0  0  0  0  0999 V2000
  -31.5520  -19.8200   20.8690 C   0  0  0  0  0  3  0  0  0  0  0  0
  -30.8480  -19.3110   21.9780 C   0  0  0  0  0  0  0  0  0  0  0  0
  -31.7940  -21.2000   20.7270 C   0  0  0  0  0  0  0  0  0  0  0  0
  -30.4570  -20.1980   23.0150 C   0  0  0  0  0  0  0  0  0  0  0  0
  -31.3480  -22.1010   21.7240 C   0  0  0  0  0  0  0  0  0  0  0  0
  -30.7410  -21.5830   22.9030 C   0  0  0  0  0  0  0  0  0  0  0  0
  -32.5230  -21.6820   19.4830 C   0  0  0  0  0  1  0  0  0  0  0  0
  -29.7280  -19.6780   24.2520 C   0  0  0  0  0  1  0  0  0  0  0  0
  -30.5830  -14.4040   19.8280 C   0  0  0  0  0  0  0  0  0  0  0  0
  -30.1090  -12.4350   18.4090 C   0  0  0  0  0  2  0  0  0  0  0  0
  -29.0010  -12.7350   17.3810 C   0  0  0  0  0  2  0  0  0  0  0  0
  -27.6110  -12.4770   17.9940 C   0  0  0  0  0  2  0  0  0  0  0  0
  -27.4390  -13.1790   19.3650 C   0  0  0  0  0  3  0  0  0  0  0  0
  -28.6340  -12.8640   20.2900 C   0  0  0  0  0  2  0  0  0  0  0  0
  -29.8690  -13.2690   19.5970 N   0  0  0  0  0  0  0  0  0  0  0  0
  -31.5670  -14.7230   19.1480 O   0  0  0  0  0  0  0  0  0  0  0  0
  -29.4230  -17.4720   20.9530 C   0  0  0  0  0  2  0  0  0  0  0  0
  -31.7120  -16.8970   21.8130 C   0  0  0  0  0  2  0  0  0  0  0  0
  -29.0550  -15.9750   20.9900 C   0  0  0  0  0  2  0  0  0  0  0  0
  -31.2520  -15.4350   21.9550 C   0  0  0  0  0  2  0  0  0  0  0  0
  -30.4980  -17.8220   21.9990 C   0  0  0  0  0  3  0  0  0  0  0  0
  -30.2450  -15.1010   20.9410 N   0  0  0  0  0  0  0  0  0  0  0  0
  -25.1410  -13.6830   20.4070 C   0  0  0  0  0  0  0  0  0  0  0  0
  -24.1540  -12.8590   20.8730 C   0  0  0  0  0  0  0  0  0  0  0  0
  -24.6440  -11.5270   20.7130 C   0  0  0  0  0  0  0  0  0  0  0  0
  -26.1690  -12.8480   19.9970 N   0  0  0  0  0  0  0  0  0  0  0  0
  -25.8820  -11.5440   20.2350 N   0  0  0  0  0  0  0  0  0  0  0  0
  -23.9870  -10.2330   20.9280 C   0  0  0  0  0  0  0  0  0  0  0  0
  -24.4750   -9.3100   21.8800 C   0  0  0  0  0  3  0  0  0  0  0  0
  -23.8160   -8.0780   22.0820 C   0  0  0  0  0  3  0  0  0  0  0  0
  -22.6590   -7.7610   21.3320 C   0  0  0  0  0  0  0  0  0  0  0  0
  -22.1930   -8.6730   20.3680 C   0  0  0  0  0  3  0  0  0  0  0  0
  -22.8540   -9.8960   20.1640 C   0  0  0  0  0  3  0  0  0  0  0  0
  -21.9710   -6.5770   21.4410 O   0  0  0  0  0  0  0  0  0  0  0  0
  -21.8510   -5.9210   22.6410 C   0  0  0  0  0  0  0  0  0  0  0  0
  -21.2440   -6.5280   23.7630 C   0  0  0  0  0  3  0  0  0  0  0  0
  -21.0740   -5.7930   24.9530 C   0  0  0  0  0  3  0  0  0  0  0  0
  -21.5060   -4.4540   25.0230 C   0  0  0  0  0  0  0  0  0  0  0  0
  -22.1080   -3.8490   23.9060 C   0  0  0  0  0  3  0  0  0  0  0  0
  -22.2770   -4.5800   22.7170 C   0  0  0  0  0  0  0  0  0  0  0  0
  -22.8370   -3.9860   21.6350 F   0  0  0  0  0  0  0  0  0  0  0  0
  -21.3370   -3.7450   26.1630 F   0  0  0  0  0  0  0  0  0  0  0  0
  -22.7910  -13.2740   21.3490 C   0  0  0  0  0  0  0  0  0  0  0  0
  -22.2130  -12.5280   22.2820 N   0  0  0  0  0  0  0  0  0  0  0  0
  -22.2490  -14.2950   20.9230 O   0  0  0  0  0  0  0  0  0  0  0  0
  -22.6670  -11.7030   22.6480 H   0  0  0  0  0  0  0  0  0  0  0  0
  -21.3050  -12.7880   22.6420 H   0  0  0  0  0  0  0  0  0  0  0  0
  -25.2420  -15.0660   20.2820 N   0  0  0  0  0  0  0  0  0  0  0  0
  -24.4740  -15.6820   20.5230 H   0  0  0  0  0  0  0  0  0  0  0  0
  -26.0240  -15.5520   19.8630 H   0  0  0  0  0  0  0  0  0  0  0  0
  -31.4240  -22.5440   24.9320 C   0  0  0  0  0  1  0  0  0  0  0  0
  -30.4030  -22.4030   23.9490 O   0  0  0  0  0  0  0  0  0  0  0  0
  -31.5060  -23.4810   21.5050 N   0  0  0  0  0  0  0  0  0  0  0  0
  -32.1540  -23.7450   20.7710 H   0  0  0  0  0  0  0  0  0  0  0  0
  -30.3220  -24.3460   21.5910 C   0  0  0  0  0  2  0  0  0  0  0  0
  -30.4830  -25.6430   20.7540 C   0  0  0  0  0  3  0  0  0  0  0  0
  -31.7410  -26.2140   21.0850 O   0  0  0  0  0  0  0  0  0  0  0  0
  -32.0450  -26.6980   20.3220 H   0  0  0  0  0  0  0  0  0  0  0  0
  -29.3530  -26.6950   20.9630 C   0  0  0  0  0  2  0  0  0  0  0  0
  -28.3220  -26.5280   19.9920 O   0  0  0  0  0  0  0  0  0  0  0  0
  -24.4960  -31.7280   23.1430 C   0  0  0  0  0  0  0  0  0  0  0  0
  -27.1870  -27.3110   20.0720 C   0  0  0  0  0  0  0  0  0  0  0  0
  -23.2950  -30.3090   21.5050 C   0  0  0  0  0  3  0  0  0  0  0  0
  -24.7640  -28.7770   20.0880 C   0  0  0  0  0  0  0  0  0  0  0  0
  -25.8150  -30.6910   21.3060 C   0  0  0  0  0  2  0  0  0  0  0  0
  -25.9140  -29.3180   20.6750 C   0  0  0  0  0  0  0  0  0  0  0  0
  -27.1260  -28.5920   20.6750 C   0  0  0  0  0  3  0  0  0  0  0  0
  -26.0190  -26.7830   19.4870 C   0  0  0  0  0  3  0  0  0  0  0  0
  -24.8070  -27.4990   19.5020 C   0  0  0  0  0  3  0  0  0  0  0  0
  -23.5090  -29.6200   20.1300 C   0  0  0  0  0  2  0  0  0  0  0  0
  -24.5530  -30.9220   22.0440 N   0  0  0  0  0  0  0  0  0  0  0  0
  -23.4160  -31.9950   23.6870 O   0  0  0  0  0  0  0  0  0  0  0  0
  -22.6520  -29.2920   22.4700 C   0  0  0  0  0  0  0  0  0  0  0  0
  -21.3290  -29.0990   22.3410 N   0  0  0  0  0  0  0  0  0  0  0  0
  -23.3390  -28.6800   23.2910 O   0  0  0  0  0  0  0  0  0  0  0  0
  -20.8330  -29.6420   21.6470 H   0  0  0  0  0  0  0  0  0  0  0  0
  -17.9560  -27.9160   22.8780 C   0  0  0  0  0  0  0  0  0  0  0  0
  -20.5190  -28.1580   23.1160 C   0  0  0  0  0  3  0  0  0  0  0  0
  -20.6060  -26.7320   22.5270 C   0  0  0  0  0  2  0  0  0  0  0  0
  -19.4870  -26.4240   21.5270 C   0  0  0  0  0  2  0  0  0  0  0  0
  -18.1160  -26.5730   22.1920 C   0  0  0  0  0  2  0  0  0  0  0  0
  -19.0850  -28.6680   23.2990 C   0  0  0  0  0  0  0  0  0  0  0  0
  -18.8840  -29.9280   23.9040 C   0  0  0  0  0  3  0  0  0  0  0  0
  -17.5850  -30.4360   24.0920 C   0  0  0  0  0  3  0  0  0  0  0  0
  -16.4690  -29.6810   23.6920 C   0  0  0  0  0  3  0  0  0  0  0  0
  -16.6570  -28.4240   23.0910 C   0  0  0  0  0  3  0  0  0  0  0  0
  -25.7820  -32.3660   23.7550 C   0  0  0  0  0  3  0  0  0  0  0  0
  -25.4580  -33.7530   24.1160 N   0  0  0  0  0  0  0  0  0  0  0  0
  -25.7740  -34.8250   23.3790 C   0  0  0  0  0  0  0  0  0  0  0  0
  -26.4420  -34.7550   22.3430 O   0  0  0  0  0  0  0  0  0  0  0  0
  -24.8550  -33.8830   24.9150 H   0  0  0  0  0  0  0  0  0  0  0  0
  -24.0350  -36.6120   23.0530 C   0  0  0  0  0  1  0  0  0  0  0  0
  -25.2690  -36.1960   23.8690 C   0  0  0  0  0  3  0  0  0  0  0  0
  -27.3800  -37.0760   24.7590 C   0  0  0  0  0  1  0  0  0  0  0  0
  -26.2930  -37.2610   23.8020 N   0  0  0  0  0  0  0  0  0  0  0  0
  -25.8750  -38.1720   23.9700 H   0  0  0  0  0  0  0  0  0  0  0  0
  -26.3400  -31.5750   25.0020 C   0  0  1  0  0  0  0  0  0  0  0  0
  -25.2680  -31.2680   26.0740 C   0  0  0  0  0  1  0  0  0  0  0  0
  -26.9620  -30.2270   24.5680 C   0  0  0  0  0  1  0  0  0  0  0  0
  -27.4680  -32.3910   25.6780 C   0  0  0  0  0  1  0  0  0  0  0  0
  1  2  1  0
  2  4  2  0
  3  1  2  0
  3  5  1  0
  4  8  1  0
  5  6  2  0
  6  4  1  0
  6 52  1  0
  7  3  1  0
  9 22  1  0
 10 15  1  0
 11 12  1  0
 11 10  1  0
 13 12  1  0
 13 26  1  0
 13 14  1  0
 15  9  1  0
 15 14  1  0
 16  9  2  0
 17 19  1  0
 17 21  1  0
 18 20  1  0
 18 21  1  0
 21  2  1  0
 22 19  1  0
 22 20  1  0
 23 24  2  0
 24 43  1  0
 25 24  1  0
 25 28  1  0
 26 27  1  0
 26 23  1  0
 27 25  2  0
 28 29  1  0
 29 30  2  0
 31 34  1  0
 31 30  1  0
 32 31  2  0
 33 32  1  0
 33 28  2  0
 34 35  1  0
 35 40  2  0
 35 36  1  0
 36 37  2  0
 37 38  1  0
 38 42  1  0
 39 38  2  0
 40 39  1  0
 41 40  1  0
 43 44  1  0
 44 47  1  0
 44 46  1  0
 45 43  2  0
 48 23  1  0
 48 49  1  0
 50 48  1  0
 52 51  1  0
 53 55  1  0
 53  5  1  0
 54 53  1  0
 56 59  1  0
 56 57  1  0
 56 55  1  0
 58 57  1  0
 60 62  1  0
 60 59  1  0
 61 72  2  0
 62 67  1  0
 63 71  1  0
 63 73  1  0
 64 70  1  0
 64 66  1  0
 65 71  1  0
 66 65  1  0
 67 66  2  0
 68 69  1  0
 68 62  2  0
 69 64  2  0
 70 63  1  0
 71 61  1  0
 73 75  2  0
 74 73  1  0
 76 74  1  0
 77 86  2  0
 77 82  1  0
 78 74  1  0
 78 82  1  0
 79 78  1  0
 80 81  1  0
 80 79  1  0
 81 77  1  0
 82 83  2  0
 83 84  1  0
 85 84  2  0
 86 85  1  0
 87 61  1  0
 87 88  1  0
 87 97  1  0
 88 91  1  0
 89 93  1  0
 89 88  1  0
 90 89  2  0
 93 92  1  0
 95 93  1  0
 95 96  1  0
 95 94  1  0
 97100  1  1
 97 98  1  0
 99 97  1  0
M  ISO  4   9 100  22 100  59 101  60 101
M  END
>  <TORSDO>  (39) 
F 22

>  <SCORE>  (39) 
-9.485

>  <name>  (39) 
38

>  <ligand_id>  (39) 
38

>  <original_smiles>  (39) 
[H]OC([H])(C([H])([H])Oc1c([H])c([H])c2c(c1[H])C([H])([H])N(C(=O)C([H])(N([H])C(=O)C([H])(N([H])C([H])([H])[H])C([H])([H])[H])C(C([H])([H])[H])(C([H])([H])[H])C([H])([H])[H])C([H])(C(=O)N([H])C1([H])c3c([H])c([H])c([H])c([H])c3C([H])([H])C([H])([H])C1([H])[H])C2([H])[H])C([H])([H])N([H])c1c(OC([H])([H])[H])c(C([H])([H])[H])c(C2([H])C([H])([H])C([H])([H])N(C(=O)N3C([H])([H])C([H])([H])C([H])([H])C([H])(n4nc(-c5c([H])c([H])c(Oc6c([H])c([H])c(F)c([H])c6F)c([H])c5[H])c(C(=O)N([H])[H])c4N([H])[H])C3([H])[H])C([H])([H])C2([H])[H])c([H])c1C([H])([H])[H]

>  <smiles>  (39) 
[H]OC([H])(C([H])([H])Oc1c([H])c([H])c2c(c1[H])C([H])([H])N(C(=O)C([H])(N([H])C(=O)C([H])(N([H])C([H])([H])[H])C([H])([H])[H])C(C([H])([H])[H])(C([H])([H])[H])C([H])([H])[H])C([H])(C(=O)N([H])C1([H])c3c([H])c([H])c([H])c([H])c3C([H])([H])C([H])([H])C1([H])[H])C2([H])[H])C([H])([H])N([H])c1c(OC([H])([H])[H])c(C([H])([H])[H])c(C2([H])C([H])([H])C([H])([H])N(C(=O)N3C([H])([H])C([H])([H])C([H])([H])C([H])(n4nc(-c5c([H])c([H])c(Oc6c([H])c([H])c(F)c([H])c6F)c([H])c5[H])c(C(=O)N([H])[H])c4N([H])[H])C3([H])[H])C([H])([H])C2([H])[H])c([H])c1C([H])([H])[H]

$$$$
39:0:0
     RDKit          3D

 99109  0  0  1  0  0  0  0  0999 V2000
  -28.9780  -22.0750   16.7890 C   0  0  0  0  0  3  0  0  0  0  0  0
  -31.0010  -21.3070   18.5690 C   0  0  0  0  0  3  0  0  0  0  0  0
  -29.6150  -23.0640   17.5740 C   0  0  0  0  0  0  0  0  0  0  0  0
  -30.6340  -22.6580   18.4670 C   0  0  0  0  0  0  0  0  0  0  0  0
  -29.3200  -20.7100   16.9070 C   0  0  0  0  0  0  0  0  0  0  0  0
  -30.3340  -20.3220   17.8170 C   0  0  0  0  0  0  0  0  0  0  0  0
  -29.1870  -24.4850   17.5470 C   0  0  0  0  0  0  0  0  0  0  0  0
  -29.5130  -25.2960   18.5830 C   0  0  0  0  0  0  0  0  0  0  0  0
  -31.3190  -23.6780   19.3490 C   0  0  0  0  0  2  0  0  0  0  0  0
  -30.3680  -24.8080   19.7460 C   0  0  0  0  0  2  0  0  0  0  0  0
  -28.5760  -19.6940   16.0550 C   0  0  0  0  0  1  0  0  0  0  0  0
  -28.3650  -24.9270   16.3380 C   0  0  0  0  0  1  0  0  0  0  0  0
  -30.6950  -18.8710   18.0870 C   0  0  0  0  0  2  0  0  0  0  0  0
  -29.9060  -18.4100   19.2450 N   0  0  0  0  0  4  0  0  0  0  0  0
  -29.6620  -19.2380   19.7610 H   0  0  0  0  0  0  0  0  0  0  0  0
  -29.0470  -18.0020   18.9150 H   0  0  0  0  0  0  0  0  0  0  0  0
  -31.5840  -14.0400   20.6240 C   0  0  0  0  0  0  0  0  0  0  0  0
  -31.1000  -12.0580   19.2760 C   0  0  0  0  0  2  0  0  0  0  0  0
  -30.2080  -12.5100   18.1000 C   0  0  0  0  0  2  0  0  0  0  0  0
  -28.7180  -12.4930   18.4970 C   0  0  0  0  0  2  0  0  0  0  0  0
  -28.4400  -13.1950   19.8540 C   0  0  0  0  0  3  0  0  0  0  0  0
  -29.4530  -12.7380   20.9320 C   0  0  0  0  0  2  0  0  0  0  0  0
  -30.8110  -12.9470   20.4040 N   0  0  0  0  0  0  0  0  0  0  0  0
  -32.7720  -14.1160   20.2980 O   0  0  0  0  0  0  0  0  0  0  0  0
  -29.9060  -17.2010   21.4760 C   0  0  0  0  0  2  0  0  0  0  0  0
  -30.5470  -15.8840   21.9290 C   0  0  0  0  0  2  0  0  0  0  0  0
  -30.8160  -16.0940   19.5520 C   0  0  0  0  0  2  0  0  0  0  0  0
  -30.6130  -17.4830   20.1550 C   0  0  0  0  0  3  0  0  0  0  0  0
  -30.8570  -15.1700   20.6900 N   0  0  0  0  0  0  0  0  0  0  0  0
  -26.0680  -13.9610   20.5000 C   0  0  0  0  0  0  0  0  0  0  0  0
  -24.9400  -13.2600   20.8290 C   0  0  0  0  0  0  0  0  0  0  0  0
  -25.3070  -11.8810   20.7830 C   0  0  0  0  0  0  0  0  0  0  0  0
  -27.0570  -13.0120   20.2880 N   0  0  0  0  0  0  0  0  0  0  0  0
  -26.6000  -11.7550   20.5110 N   0  0  0  0  0  0  0  0  0  0  0  0
  -24.4920  -10.6700   20.9220 C   0  0  0  0  0  0  0  0  0  0  0  0
  -24.7890   -9.6900   21.8950 C   0  0  0  0  0  3  0  0  0  0  0  0
  -23.9800   -8.5410   22.0190 C   0  0  0  0  0  3  0  0  0  0  0  0
  -22.8600   -8.3670   21.1730 C   0  0  0  0  0  0  0  0  0  0  0  0
  -22.5840   -9.3330   20.1900 C   0  0  0  0  0  3  0  0  0  0  0  0
  -23.3930  -10.4730   20.0620 C   0  0  0  0  0  3  0  0  0  0  0  0
  -22.0330   -7.2710   21.2080 O   0  0  0  0  0  0  0  0  0  0  0  0
  -21.7670   -6.6060   22.3760 C   0  0  0  0  0  0  0  0  0  0  0  0
  -21.0910   -7.2270   23.4480 C   0  0  0  0  0  3  0  0  0  0  0  0
  -20.7710   -6.4870   24.6040 C   0  0  0  0  0  3  0  0  0  0  0  0
  -21.1220   -5.1270   24.6870 C   0  0  0  0  0  0  0  0  0  0  0  0
  -21.7930   -4.5050   23.6200 C   0  0  0  0  0  3  0  0  0  0  0  0
  -22.1090   -5.2420   22.4660 C   0  0  0  0  0  0  0  0  0  0  0  0
  -22.7340   -4.6330   21.4300 F   0  0  0  0  0  0  0  0  0  0  0  0
  -20.8100   -4.4120   25.7940 F   0  0  0  0  0  0  0  0  0  0  0  0
  -23.5700  -13.8280   21.0700 C   0  0  0  0  0  0  0  0  0  0  0  0
  -22.7700  -13.1710   21.9040 N   0  0  0  0  0  0  0  0  0  0  0  0
  -23.2180  -14.8880   20.5560 O   0  0  0  0  0  0  0  0  0  0  0  0
  -23.0630  -12.3130   22.3460 H   0  0  0  0  0  0  0  0  0  0  0  0
  -21.8480  -13.5320   22.1020 H   0  0  0  0  0  0  0  0  0  0  0  0
  -26.3270  -15.3190   20.3420 N   0  0  0  0  0  0  0  0  0  0  0  0
  -25.5870  -16.0110   20.3830 H   0  0  0  0  0  0  0  0  0  0  0  0
  -27.2050  -15.6860   20.0030 H   0  0  0  0  0  0  0  0  0  0  0  0
  -29.0190  -26.7160   18.7850 C   0  0  0  0  0  2  0  0  0  0  0  0
  -28.4380  -26.8310   20.0790 O   0  0  0  0  0  0  0  0  0  0  0  0
  -24.5960  -31.8960   23.1800 C   0  0  0  0  0  0  0  0  0  0  0  0
  -27.2420  -27.4900   20.1100 C   0  0  0  0  0  0  0  0  0  0  0  0
  -23.3750  -30.4730   21.5610 C   0  0  0  0  0  3  0  0  0  0  0  0
  -24.8240  -28.9250   20.1420 C   0  0  0  0  0  0  0  0  0  0  0  0
  -25.8890  -30.8540   21.3320 C   0  0  0  0  0  2  0  0  0  0  0  0
  -25.9760  -29.4760   20.7170 C   0  0  0  0  0  0  0  0  0  0  0  0
  -27.1840  -28.7570   20.7150 C   0  0  0  0  0  3  0  0  0  0  0  0
  -26.0800  -26.9300   19.5380 C   0  0  0  0  0  3  0  0  0  0  0  0
  -24.8660  -27.6450   19.5570 C   0  0  0  0  0  3  0  0  0  0  0  0
  -23.5730  -29.7730   20.1870 C   0  0  0  0  0  2  0  0  0  0  0  0
  -24.6380  -31.0890   22.0830 N   0  0  0  0  0  0  0  0  0  0  0  0
  -23.5210  -32.1700   23.7310 O   0  0  0  0  0  0  0  0  0  0  0  0
  -22.7390  -29.4600   22.5380 C   0  0  0  0  0  0  0  0  0  0  0  0
  -21.4160  -29.2690   22.4190 N   0  0  0  0  0  0  0  0  0  0  0  0
  -23.4320  -28.8480   23.3560 O   0  0  0  0  0  0  0  0  0  0  0  0
  -20.9210  -29.8140   21.7280 H   0  0  0  0  0  0  0  0  0  0  0  0
  -18.0460  -28.0910   22.9620 C   0  0  0  0  0  0  0  0  0  0  0  0
  -20.6080  -28.3370   23.2030 C   0  0  0  0  0  3  0  0  0  0  0  0
  -20.6980  -26.9050   22.6290 C   0  0  0  0  0  2  0  0  0  0  0  0
  -19.5820  -26.5830   21.6300 C   0  0  0  0  0  2  0  0  0  0  0  0
  -18.2090  -26.7370   22.2900 C   0  0  0  0  0  2  0  0  0  0  0  0
  -19.1730  -28.8490   23.3760 C   0  0  0  0  0  0  0  0  0  0  0  0
  -18.9680  -30.1170   23.9620 C   0  0  0  0  0  3  0  0  0  0  0  0
  -17.6690  -30.6260   24.1400 C   0  0  0  0  0  3  0  0  0  0  0  0
  -16.5560  -29.8630   23.7450 C   0  0  0  0  0  3  0  0  0  0  0  0
  -16.7450  -28.5980   23.1620 C   0  0  0  0  0  3  0  0  0  0  0  0
  -25.8890  -32.5320   23.7810 C   0  0  0  0  0  3  0  0  0  0  0  0
  -26.4680  -31.7270   25.0090 C   0  0  1  0  0  0  0  0  0  0  0  0
  -25.4120  -31.4100   26.0940 C   0  0  0  0  0  1  0  0  0  0  0  0
  -27.0840  -30.3890   24.5400 C   0  0  0  0  0  1  0  0  0  0  0  0
  -27.6090  -32.5330   25.6740 C   0  0  0  0  0  1  0  0  0  0  0  0
  -25.5650  -33.9100   24.1680 N   0  0  0  0  0  0  0  0  0  0  0  0
  -25.8530  -34.9930   23.4340 C   0  0  0  0  0  0  0  0  0  0  0  0
  -26.4940  -34.9380   22.3800 O   0  0  0  0  0  0  0  0  0  0  0  0
  -24.9970  -34.0270   24.9940 H   0  0  0  0  0  0  0  0  0  0  0  0
  -24.0860  -36.7620   23.1770 C   0  0  0  0  0  1  0  0  0  0  0  0
  -25.3500  -36.3540   23.9500 C   0  0  0  0  0  3  0  0  0  0  0  0
  -27.4720  -37.2630   24.7880 C   0  0  0  0  0  1  0  0  0  0  0  0
  -26.3610  -37.4300   23.8550 N   0  0  0  0  0  0  0  0  0  0  0  0
  -25.9370  -38.3380   24.0260 H   0  0  0  0  0  0  0  0  0  0  0  0
  1  5  2  0
  1  3  1  0
  3  4  2  0
  4  2  1  0
  4  9  1  0
  5  6  1  0
  6 13  1  0
  6  2  2  0
  7  3  1  0
  7  8  2  0
  8 58  1  0
  8 10  1  0
  9 10  1  0
 11  5  1  0
 12  7  1  0
 13 14  1  0
 14 15  1  0
 16 14  1  0
 17 29  1  0
 18 23  1  0
 19 20  1  0
 19 18  1  0
 21 20  1  0
 21 33  1  0
 21 22  1  0
 23 17  1  0
 23 22  1  0
 24 17  2  0
 25 26  1  0
 27 28  1  0
 27 29  1  0
 28 14  1  0
 28 25  1  0
 29 26  1  0
 30 31  2  0
 31 50  1  0
 32 31  1  0
 32 35  1  0
 33 30  1  0
 33 34  1  0
 34 32  2  0
 35 36  1  0
 36 37  2  0
 38 41  1  0
 38 37  1  0
 39 38  2  0
 40 39  1  0
 40 35  2  0
 41 42  1  0
 42 47  2  0
 42 43  1  0
 43 44  2  0
 44 45  1  0
 45 49  1  0
 46 45  2  0
 47 46  1  0
 48 47  1  0
 50 51  1  0
 51 54  1  0
 51 53  1  0
 52 50  2  0
 55 56  1  0
 55 30  1  0
 57 55  1  0
 58 59  1  0
 59 61  1  0
 60 71  2  0
 61 66  1  0
 62 70  1  0
 62 72  1  0
 63 69  1  0
 63 65  1  0
 64 70  1  0
 65 64  1  0
 66 65  2  0
 67 68  1  0
 67 61  2  0
 68 63  2  0
 69 62  1  0
 70 60  1  0
 72 74  2  0
 73 72  1  0
 75 73  1  0
 76 85  2  0
 76 81  1  0
 77 73  1  0
 77 81  1  0
 78 77  1  0
 79 80  1  0
 79 78  1  0
 80 76  1  0
 81 82  2  0
 82 83  1  0
 84 83  2  0
 85 84  1  0
 86 60  1  0
 86 91  1  0
 86 87  1  0
 87 90  1  1
 87 88  1  0
 89 87  1  0
 91 94  1  0
 92 96  1  0
 92 91  1  0
 93 92  2  0
 96 95  1  0
 98 96  1  0
 98 99  1  0
 98 97  1  0
M  ISO  4  17 100  29 100  58 101  59 101
M  END
>  <TORSDO>  (40) 
F 19

>  <SCORE>  (40) 
-13.436

>  <name>  (40) 
39

>  <ligand_id>  (40) 
39

>  <original_smiles>  (40) 
[H]c1c([H])c([H])c2c(c1[H])C([H])([H])C([H])([H])C([H])([H])C2([H])N([H])C(=O)C1([H])N(C(=O)C([H])(N([H])C(=O)C([H])(N([H])C([H])([H])[H])C([H])([H])[H])C(C([H])([H])[H])(C([H])([H])[H])C([H])([H])[H])C([H])([H])c2c([H])c(OC([H])([H])C3=C(C([H])([H])[H])c4c([H])c(C([H])([H])[H])c(C([H])([H])[N+]([H])([H])C5([H])C([H])([H])N(C(=O)N6C([H])([H])C([H])([H])C([H])([H])C([H])(n7nc(-c8c([H])c([H])c(Oc9c([H])c([H])c(F)c([H])c9F)c([H])c8[H])c(C(=O)N([H])[H])c7N([H])[H])C6([H])[H])C([H])([H])C5([H])[H])c([H])c4C([H])([H])C3([H])[H])c([H])c([H])c2C1([H])[H]

>  <smiles>  (40) 
[H]c1c([H])c([H])c2c(c1[H])C([H])([H])C([H])([H])C([H])([H])C2([H])N([H])C(=O)C1([H])N(C(=O)C([H])(N([H])C(=O)C([H])(N([H])C([H])([H])[H])C([H])([H])[H])C(C([H])([H])[H])(C([H])([H])[H])C([H])([H])[H])C([H])([H])c2c([H])c(OC([H])([H])C3=C(C([H])([H])[H])c4c([H])c(C([H])([H])[H])c(C([H])([H])[N+]([H])([H])C5([H])C([H])([H])N(C(=O)N6C([H])([H])C([H])([H])C([H])([H])C([H])(n7nc(-c8c([H])c([H])c(Oc9c([H])c([H])c(F)c([H])c9F)c([H])c8[H])c(C(=O)N([H])[H])c7N([H])[H])C6([H])[H])C([H])([H])C5([H])[H])c([H])c4C([H])([H])C3([H])[H])c([H])c([H])c2C1([H])[H]

$$$$
40:0:0
     RDKit          3D

100110  0  0  1  0  0  0  0  0999 V2000
  -28.6250  -24.1870   17.7740 C   0  0  0  0  0  3  0  0  0  0  0  0
  -29.1280  -24.9740   18.8280 C   0  0  0  0  0  0  0  0  0  0  0  0
  -28.9020  -22.8110   17.7130 C   0  0  0  0  0  0  0  0  0  0  0  0
  -29.9010  -24.3760   19.8570 C   0  0  0  0  0  0  0  0  0  0  0  0
  -30.1180  -22.9780   19.8360 C   0  0  0  0  0  0  0  0  0  0  0  0
  -29.6750  -22.2120   18.7300 C   0  0  0  0  0  0  0  0  0  0  0  0
  -28.3710  -22.0020   16.5450 C   0  0  0  0  0  1  0  0  0  0  0  0
  -30.5090  -25.2230   20.9720 C   0  0  0  0  0  1  0  0  0  0  0  0
  -30.8200  -22.2840   20.9950 C   0  0  0  0  0  1  0  0  0  0  0  0
  -28.8380  -26.4630   18.8150 C   0  0  0  0  0  2  0  0  0  0  0  0
  -28.4310  -26.9340   20.0960 O   0  0  0  0  0  0  0  0  0  0  0  0
  -24.5430  -31.9210   23.2830 C   0  0  0  0  0  0  0  0  0  0  0  0
  -27.2270  -27.5800   20.1410 C   0  0  0  0  0  0  0  0  0  0  0  0
  -23.3410  -30.5190   21.6340 C   0  0  0  0  0  3  0  0  0  0  0  0
  -24.8040  -29.0060   20.1980 C   0  0  0  0  0  0  0  0  0  0  0  0
  -25.8550  -30.9170   21.4250 C   0  0  0  0  0  2  0  0  0  0  0  0
  -25.9520  -29.5510   20.7860 C   0  0  0  0  0  0  0  0  0  0  0  0
  -27.1640  -28.8360   20.7720 C   0  0  0  0  0  3  0  0  0  0  0  0
  -26.0620  -27.0220   19.5720 C   0  0  0  0  0  3  0  0  0  0  0  0
  -24.8480  -27.7340   19.5990 C   0  0  0  0  0  3  0  0  0  0  0  0
  -23.5520  -29.8500   20.2490 C   0  0  0  0  0  2  0  0  0  0  0  0
  -24.5980  -31.1330   22.1740 N   0  0  0  0  0  0  0  0  0  0  0  0
  -23.4630  -32.1770   23.8300 O   0  0  0  0  0  0  0  0  0  0  0  0
  -22.7090  -29.4830   22.5880 C   0  0  0  0  0  0  0  0  0  0  0  0
  -21.3870  -29.2830   22.4600 N   0  0  0  0  0  0  0  0  0  0  0  0
  -23.4010  -28.8620   23.3990 O   0  0  0  0  0  0  0  0  0  0  0  0
  -20.8890  -29.8380   21.7770 H   0  0  0  0  0  0  0  0  0  0  0  0
  -18.0320  -28.0410   22.9400 C   0  0  0  0  0  0  0  0  0  0  0  0
  -20.5840  -28.3330   23.2270 C   0  0  0  0  0  3  0  0  0  0  0  0
  -20.7080  -26.9040   22.6480 C   0  0  0  0  0  2  0  0  0  0  0  0
  -19.6180  -26.5700   21.6260 C   0  0  0  0  0  2  0  0  0  0  0  0
  -18.2310  -26.6940   22.2650 C   0  0  0  0  0  2  0  0  0  0  0  0
  -19.1370  -28.8160   23.3780 C   0  0  0  0  0  0  0  0  0  0  0  0
  -18.8990  -30.0770   23.9690 C   0  0  0  0  0  3  0  0  0  0  0  0
  -17.5870  -30.5610   24.1270 C   0  0  0  0  0  3  0  0  0  0  0  0
  -16.4950  -29.7830   23.7040 C   0  0  0  0  0  3  0  0  0  0  0  0
  -16.7190  -28.5260   23.1160 C   0  0  0  0  0  3  0  0  0  0  0  0
  -25.8280  -32.5580   23.9000 C   0  0  0  0  0  3  0  0  0  0  0  0
  -26.3350  -31.8100   25.1950 C   0  0  1  0  0  0  0  0  0  0  0  0
  -25.2330  -31.5990   26.2590 C   0  0  0  0  0  1  0  0  0  0  0  0
  -26.9140  -30.4220   24.8330 C   0  0  0  0  0  1  0  0  0  0  0  0
  -27.4840  -32.6120   25.8500 C   0  0  0  0  0  1  0  0  0  0  0  0
  -25.5250  -33.9630   24.1930 N   0  0  0  0  0  0  0  0  0  0  0  0
  -25.8960  -34.9980   23.4250 C   0  0  0  0  0  0  0  0  0  0  0  0
  -26.5990  -34.8670   22.4200 O   0  0  0  0  0  0  0  0  0  0  0  0
  -24.8970  -34.1390   24.9640 H   0  0  0  0  0  0  0  0  0  0  0  0
  -24.2080  -36.8070   22.9640 C   0  0  0  0  0  1  0  0  0  0  0  0
  -25.4040  -36.3980   23.8380 C   0  0  0  0  0  3  0  0  0  0  0  0
  -27.5150  -37.2610   24.7500 C   0  0  0  0  0  1  0  0  0  0  0  0
  -26.4540  -37.4370   23.7610 N   0  0  0  0  0  0  0  0  0  0  0  0
  -26.0520  -38.3620   23.8900 H   0  0  0  0  0  0  0  0  0  0  0  0
  -30.0310  -20.8950   18.6180 O   0  0  0  0  0  0  0  0  0  0  0  0
  -31.2630  -20.0230   16.7440 C   0  0  0  0  0  2  0  0  0  0  0  0
  -31.1200  -18.5630   17.1320 C   0  0  0  0  0  2  0  0  0  0  0  0
  -31.3510  -20.7120   18.1020 C   0  0  0  0  0  3  0  0  0  0  0  0
  -32.0920  -19.6980   18.9990 C   0  0  0  0  0  3  0  0  0  0  0  0
  -33.5480  -20.1070   19.2820 C   0  0  0  0  0  1  0  0  0  0  0  0
  -32.0300  -18.3980   18.2870 N   0  0  1  0  0  4  0  0  0  0  0  0
  -32.9450  -18.2560   17.8820 H   0  0  0  0  0  0  0  0  0  0  0  0
  -31.7750  -17.2240   19.1570 C   0  0  0  0  0  2  0  0  0  0  0  0
  -31.2850  -14.4160   20.3560 C   0  0  0  0  0  0  0  0  0  0  0  0
  -30.6560  -12.2360   19.5800 C   0  0  0  0  0  2  0  0  0  0  0  0
  -29.7920  -12.4660   18.3250 C   0  0  0  0  0  2  0  0  0  0  0  0
  -28.3210  -12.5190   18.7360 C   0  0  0  0  0  2  0  0  0  0  0  0
  -28.0180  -13.4280   19.9630 C   0  0  0  0  0  3  0  0  0  0  0  0
  -29.0890  -13.3100   21.0970 C   0  0  0  0  0  2  0  0  0  0  0  0
  -30.4340  -13.3650   20.4800 N   0  0  0  0  0  0  0  0  0  0  0  0
  -31.9340  -14.9590   21.2210 O   0  0  0  0  0  0  0  0  0  0  0  0
  -32.5290  -15.3830   17.3840 C   0  0  0  0  0  2  0  0  0  0  0  0
  -32.9670  -14.5250   18.5530 C   0  0  0  0  0  2  0  0  0  0  0  0
  -31.4800  -15.9620   18.3300 C   0  0  0  0  0  3  0  0  0  0  0  0
  -31.6020  -14.6970   19.0750 N   0  0  0  0  0  0  0  0  0  0  0  0
  -25.5940  -14.0710   20.5880 C   0  0  0  0  0  0  0  0  0  0  0  0
  -24.4890  -13.3130   20.8740 C   0  0  0  0  0  0  0  0  0  0  0  0
  -24.9230  -11.9530   20.8460 C   0  0  0  0  0  0  0  0  0  0  0  0
  -26.6410  -13.1780   20.4140 N   0  0  0  0  0  0  0  0  0  0  0  0
  -26.2330  -11.8980   20.6330 N   0  0  0  0  0  0  0  0  0  0  0  0
  -24.1600  -10.6990   20.9570 C   0  0  0  0  0  0  0  0  0  0  0  0
  -24.5200   -9.7000   21.8880 C   0  0  0  0  0  3  0  0  0  0  0  0
  -23.7600   -8.5140   21.9970 C   0  0  0  0  0  3  0  0  0  0  0  0
  -22.6260   -8.3190   21.1720 C   0  0  0  0  0  0  0  0  0  0  0  0
  -22.2880   -9.3050   20.2280 C   0  0  0  0  0  3  0  0  0  0  0  0
  -23.0480  -10.4830   20.1190 C   0  0  0  0  0  3  0  0  0  0  0  0
  -21.8440   -7.1890   21.1930 O   0  0  0  0  0  0  0  0  0  0  0  0
  -21.6960   -6.4370   22.3310 C   0  0  0  0  0  0  0  0  0  0  0  0
  -21.1760   -6.9830   23.5250 C   0  0  0  0  0  3  0  0  0  0  0  0
  -20.9750   -6.1570   24.6480 C   0  0  0  0  0  3  0  0  0  0  0  0
  -21.2840   -4.7860   24.5800 C   0  0  0  0  0  0  0  0  0  0  0  0
  -21.7970   -4.2390   23.3910 C   0  0  0  0  0  3  0  0  0  0  0  0
  -21.9990   -5.0620   22.2700 C   0  0  0  0  0  0  0  0  0  0  0  0
  -22.4730   -4.5240   21.1190 F   0  0  0  0  0  0  0  0  0  0  0  0
  -21.0830   -3.9900   25.6570 F   0  0  0  0  0  0  0  0  0  0  0  0
  -23.0840  -13.8110   21.0700 C   0  0  0  0  0  0  0  0  0  0  0  0
  -22.3020  -13.1240   21.8950 N   0  0  0  0  0  0  0  0  0  0  0  0
  -22.6900  -14.8430   20.5300 O   0  0  0  0  0  0  0  0  0  0  0  0
  -22.6330  -12.2900   22.3550 H   0  0  0  0  0  0  0  0  0  0  0  0
  -21.3580  -13.4380   22.0720 H   0  0  0  0  0  0  0  0  0  0  0  0
  -25.7900  -15.4390   20.4330 N   0  0  0  0  0  0  0  0  0  0  0  0
  -25.0310  -16.1080   20.5100 H   0  0  0  0  0  0  0  0  0  0  0  0
  -26.6760  -15.8700   20.2010 H   0  0  0  0  0  0  0  0  0  0  0  0
  1  2  1  0
  2  4  2  0
  3  1  2  0
  3  6  1  0
  4  8  1  0
  5  4  1  0
  5  9  1  0
  6  5  2  0
  7  3  1  0
 10  2  1  0
 10 11  1  0
 11 13  1  0
 12 23  2  0
 13 18  1  0
 14 22  1  0
 14 24  1  0
 15 21  1  0
 15 17  1  0
 16 22  1  0
 17 16  1  0
 18 17  2  0
 19 20  1  0
 19 13  2  0
 20 15  2  0
 21 14  1  0
 22 12  1  0
 24 26  2  0
 25 24  1  0
 27 25  1  0
 28 37  2  0
 28 33  1  0
 29 25  1  0
 29 33  1  0
 30 29  1  0
 31 32  1  0
 31 30  1  0
 32 28  1  0
 33 34  2  0
 34 35  1  0
 36 35  2  0
 37 36  1  0
 38 12  1  0
 38 43  1  0
 38 39  1  0
 39 42  1  1
 39 40  1  0
 41 39  1  0
 43 46  1  0
 44 48  1  0
 44 43  1  0
 45 44  2  0
 48 47  1  0
 50 48  1  0
 50 51  1  0
 50 49  1  0
 52  6  1  0
 53 54  1  0
 53 55  1  0
 54 58  1  0
 55 52  1  0
 55 56  1  0
 56 57  1  0
 58 56  1  0
 58 60  1  0
 58 59  1  6
 61 67  1  0
 61 68  2  0
 62 67  1  0
 63 64  1  0
 63 62  1  0
 65 64  1  0
 65 76  1  0
 65 66  1  0
 67 66  1  0
 69 71  1  0
 69 70  1  0
 70 72  1  0
 71 72  1  0
 71 60  1  0
 72 61  1  0
 73 74  2  0
 74 93  1  0
 75 74  1  0
 75 78  1  0
 76 73  1  0
 76 77  1  0
 77 75  2  0
 78 79  1  0
 79 80  2  0
 81 84  1  0
 81 80  1  0
 82 81  2  0
 83 82  1  0
 83 78  2  0
 84 85  1  0
 85 86  1  0
 86 87  2  0
 88 87  1  0
 88 92  1  0
 89 88  2  0
 90 85  2  0
 90 89  1  0
 91 90  1  0
 93 94  1  0
 94 97  1  0
 94 96  1  0
 95 93  2  0
 98 99  1  0
 98 73  1  0
100 98  1  0
M  ISO  4  10 101  11 101  61 100  72 100
M  END
>  <TORSDO>  (41) 
F 20

>  <SCORE>  (41) 
-13.011

>  <name>  (41) 
40

>  <ligand_id>  (41) 
40

>  <original_smiles>  (41) 
[H]c1c([H])c([H])c2c(c1[H])C([H])([H])C([H])([H])C([H])([H])C2([H])N([H])C(=O)C1([H])N(C(=O)C([H])(N([H])C(=O)C([H])(N([H])C([H])([H])[H])C([H])([H])[H])C(C([H])([H])[H])(C([H])([H])[H])C([H])([H])[H])C([H])([H])c2c([H])c(OC([H])([H])c3c([H])c(C([H])([H])[H])c(OC4([H])C([H])([H])C([H])([H])[N+]([H])(C([H])([H])C5([H])N(C(=O)N6C([H])([H])C([H])([H])C([H])([H])C([H])(n7nc(-c8c([H])c([H])c(Oc9c([H])c([H])c(F)c([H])c9F)c([H])c8[H])c(C(=O)N([H])[H])c7N([H])[H])C6([H])[H])C([H])([H])C5([H])[H])C4([H])C([H])([H])[H])c(C([H])([H])[H])c3C([H])([H])[H])c([H])c([H])c2C1([H])[H]

>  <smiles>  (41) 
[H]c1c([H])c([H])c2c(c1[H])C([H])([H])C([H])([H])C([H])([H])C2([H])N([H])C(=O)C1([H])N(C(=O)C([H])(N([H])C(=O)C([H])(N([H])C([H])([H])[H])C([H])([H])[H])C(C([H])([H])[H])(C([H])([H])[H])C([H])([H])[H])C([H])([H])c2c([H])c(OC([H])([H])c3c([H])c(C([H])([H])[H])c(OC4([H])C([H])([H])C([H])([H])[N+]([H])(C([H])([H])C5([H])N(C(=O)N6C([H])([H])C([H])([H])C([H])([H])C([H])(n7nc(-c8c([H])c([H])c(Oc9c([H])c([H])c(F)c([H])c9F)c([H])c8[H])c(C(=O)N([H])[H])c7N([H])[H])C6([H])[H])C([H])([H])C5([H])[H])C4([H])C([H])([H])[H])c(C([H])([H])[H])c3C([H])([H])[H])c([H])c([H])c2C1([H])[H]

$$$$
41:0:0
     RDKit          3D

 96106  0  0  1  0  0  0  0  0999 V2000
  -31.4510  -19.7700   19.0150 C   0  0  0  0  0  3  0  0  0  0  0  0
  -31.6100  -21.6440   17.5220 C   0  0  0  0  0  3  0  0  0  0  0  0
  -30.2960  -20.2940   19.6490 C   0  0  0  0  0  0  0  0  0  0  0  0
  -32.1330  -20.4420   17.9970 C   0  0  0  0  0  0  0  0  0  0  0  0
  -30.4910  -22.2320   18.1380 C   0  0  0  0  0  0  0  0  0  0  0  0
  -29.9120  -21.6830   19.3340 C   0  0  0  0  0  0  0  0  0  0  0  0
  -33.3570  -19.8290   17.3500 C   0  0  0  0  0  1  0  0  0  0  0  0
  -29.9100  -23.4220   17.3840 C   0  0  0  0  0  1  0  0  0  0  0  0
  -30.6760  -14.7190   20.3620 C   0  0  0  0  0  0  0  0  0  0  0  0
  -30.3360  -12.4700   19.3310 C   0  0  0  0  0  2  0  0  0  0  0  0
  -29.3960  -12.5350   18.1130 C   0  0  0  0  0  2  0  0  0  0  0  0
  -27.9380  -12.3450   18.5650 C   0  0  0  0  0  2  0  0  0  0  0  0
  -27.5680  -13.2470   19.7710 C   0  0  0  0  0  3  0  0  0  0  0  0
  -28.6450  -13.2360   20.8830 C   0  0  0  0  0  2  0  0  0  0  0  0
  -29.9360  -13.5570   20.2610 N   0  0  0  0  0  0  0  0  0  0  0  0
  -31.8670  -14.6800   20.0460 O   0  0  0  0  0  0  0  0  0  0  0  0
  -29.0010  -18.0280   19.5920 C   0  0  0  0  0  2  0  0  0  0  0  0
  -30.4060  -18.4480   21.5950 C   0  0  0  0  0  2  0  0  0  0  0  0
  -28.8870  -16.5640   20.1780 C   0  0  0  0  0  2  0  0  0  0  0  0
  -31.0250  -17.0250   21.2710 C   0  0  0  0  0  2  0  0  0  0  0  0
  -29.5600  -19.1830   20.4990 C   0  0  0  0  0  3  0  0  0  0  0  0
  -30.1260  -15.9550   20.7310 N   0  0  0  0  0  0  0  0  0  0  0  0
  -25.2010  -13.8550   20.5290 C   0  0  0  0  0  0  0  0  0  0  0  0
  -24.1350  -13.0860   20.9060 C   0  0  0  0  0  0  0  0  0  0  0  0
  -24.5930  -11.7340   20.8740 C   0  0  0  0  0  0  0  0  0  0  0  0
  -26.2370  -12.9680   20.2860 N   0  0  0  0  0  0  0  0  0  0  0  0
  -25.8800  -11.6890   20.5580 N   0  0  0  0  0  0  0  0  0  0  0  0
  -23.8650  -10.4760   21.0670 C   0  0  0  0  0  0  0  0  0  0  0  0
  -24.3100   -9.4990   21.9830 C   0  0  0  0  0  3  0  0  0  0  0  0
  -23.5820   -8.3030   22.1650 C   0  0  0  0  0  3  0  0  0  0  0  0
  -22.3940   -8.0790   21.4290 C   0  0  0  0  0  0  0  0  0  0  0  0
  -21.9690   -9.0440   20.4990 C   0  0  0  0  0  3  0  0  0  0  0  0
  -22.6980  -10.2290   20.3160 C   0  0  0  0  0  3  0  0  0  0  0  0
  -21.6360   -6.9360   21.5220 O   0  0  0  0  0  0  0  0  0  0  0  0
  -21.6170   -6.1770   22.6640 C   0  0  0  0  0  0  0  0  0  0  0  0
  -21.2410   -6.7190   23.9120 C   0  0  0  0  0  3  0  0  0  0  0  0
  -21.1680   -5.8880   25.0480 C   0  0  0  0  0  3  0  0  0  0  0  0
  -21.4590   -4.5150   24.9350 C   0  0  0  0  0  0  0  0  0  0  0  0
  -21.8260   -3.9720   23.6910 C   0  0  0  0  0  3  0  0  0  0  0  0
  -21.9020   -4.8010   22.5590 C   0  0  0  0  0  0  0  0  0  0  0  0
  -22.2380   -4.2700   21.3590 F   0  0  0  0  0  0  0  0  0  0  0  0
  -21.3800   -3.7140   26.0230 F   0  0  0  0  0  0  0  0  0  0  0  0
  -22.7410  -13.5700   21.1830 C   0  0  0  0  0  0  0  0  0  0  0  0
  -22.0150  -12.8750   22.0520 N   0  0  0  0  0  0  0  0  0  0  0  0
  -22.3050  -14.5970   20.6650 O   0  0  0  0  0  0  0  0  0  0  0  0
  -22.3820  -12.0450   22.4930 H   0  0  0  0  0  0  0  0  0  0  0  0
  -21.0790  -13.1800   22.2810 H   0  0  0  0  0  0  0  0  0  0  0  0
  -25.3680  -15.2260   20.3480 N   0  0  0  0  0  0  0  0  0  0  0  0
  -24.6030  -15.8820   20.4670 H   0  0  0  0  0  0  0  0  0  0  0  0
  -26.2170  -15.6640   20.0180 H   0  0  0  0  0  0  0  0  0  0  0  0
  -27.1540  -23.9990   20.3920 C   0  0  0  0  0  2  0  0  0  0  0  0
  -27.6430  -22.5700   20.0010 C   0  0  0  0  0  2  0  0  0  0  0  0
  -29.4590  -24.0230   20.2960 C   0  0  0  0  0  2  0  0  0  0  0  0
  -28.2510  -24.9580   19.8710 C   0  0  0  0  0  3  0  0  0  0  0  0
  -29.0970  -22.5710   20.1350 N   0  0  0  0  0  0  0  0  0  0  0  0
  -28.3010  -26.4000   20.2780 O   0  0  0  0  0  0  0  0  0  0  0  0
  -24.6260  -31.8640   23.2280 C   0  0  0  0  0  0  0  0  0  0  0  0
  -27.2000  -27.2730   20.1620 C   0  0  0  0  0  0  0  0  0  0  0  0
  -23.4100  -30.4690   21.5950 C   0  0  0  0  0  3  0  0  0  0  0  0
  -24.8460  -28.9150   20.1520 C   0  0  0  0  0  0  0  0  0  0  0  0
  -25.9500  -30.7690   21.4040 C   0  0  0  0  0  2  0  0  0  0  0  0
  -26.0170  -29.3890   20.7570 C   0  0  0  0  0  0  0  0  0  0  0  0
  -27.1920  -28.5740   20.7600 C   0  0  0  0  0  3  0  0  0  0  0  0
  -26.0220  -26.8820   19.4890 C   0  0  0  0  0  3  0  0  0  0  0  0
  -24.8530  -27.6690   19.5080 C   0  0  0  0  0  3  0  0  0  0  0  0
  -23.6130  -29.7940   20.2120 C   0  0  0  0  0  2  0  0  0  0  0  0
  -24.6800  -31.0530   22.1310 N   0  0  0  0  0  0  0  0  0  0  0  0
  -23.5470  -32.1450   23.7690 O   0  0  0  0  0  0  0  0  0  0  0  0
  -22.7490  -29.4540   22.5580 C   0  0  0  0  0  0  0  0  0  0  0  0
  -21.4210  -29.2800   22.4380 N   0  0  0  0  0  0  0  0  0  0  0  0
  -23.4310  -28.8270   23.3750 O   0  0  0  0  0  0  0  0  0  0  0  0
  -20.9320  -29.8380   21.7530 H   0  0  0  0  0  0  0  0  0  0  0  0
  -18.0460  -28.0860   22.9510 C   0  0  0  0  0  0  0  0  0  0  0  0
  -20.6050  -28.3450   23.2150 C   0  0  0  0  0  3  0  0  0  0  0  0
  -20.7050  -26.9120   22.6440 C   0  0  0  0  0  2  0  0  0  0  0  0
  -19.6010  -26.5860   21.6340 C   0  0  0  0  0  2  0  0  0  0  0  0
  -18.2200  -26.7340   22.2800 C   0  0  0  0  0  2  0  0  0  0  0  0
  -19.1650  -28.8490   23.3760 C   0  0  0  0  0  0  0  0  0  0  0  0
  -18.9480  -30.1140   23.9640 C   0  0  0  0  0  3  0  0  0  0  0  0
  -17.6430  -30.6150   24.1320 C   0  0  0  0  0  3  0  0  0  0  0  0
  -16.5380  -29.8480   23.7230 C   0  0  0  0  0  3  0  0  0  0  0  0
  -16.7410  -28.5850   23.1380 C   0  0  0  0  0  3  0  0  0  0  0  0
  -25.9140  -32.4930   23.8420 C   0  0  0  0  0  3  0  0  0  0  0  0
  -25.6080  -33.8900   24.1820 N   0  0  0  0  0  0  0  0  0  0  0  0
  -25.9310  -34.9470   23.4260 C   0  0  0  0  0  0  0  0  0  0  0  0
  -26.5880  -34.8500   22.3860 O   0  0  0  0  0  0  0  0  0  0  0  0
  -25.0250  -34.0410   24.9920 H   0  0  0  0  0  0  0  0  0  0  0  0
  -24.1940  -36.7410   23.1090 C   0  0  0  0  0  1  0  0  0  0  0  0
  -25.4490  -36.3330   23.8970 C   0  0  0  0  0  3  0  0  0  0  0  0
  -27.5970  -37.2160   24.6960 C   0  0  0  0  0  1  0  0  0  0  0  0
  -26.4790  -37.3880   23.7720 N   0  0  0  0  0  0  0  0  0  0  0  0
  -26.0750  -38.3080   23.9320 H   0  0  0  0  0  0  0  0  0  0  0  0
  -26.4400  -31.7170   25.1120 C   0  0  1  0  0  0  0  0  0  0  0  0
  -25.3560  -31.4780   26.1880 C   0  0  0  0  0  1  0  0  0  0  0  0
  -27.0170  -30.3390   24.7110 C   0  0  0  0  0  1  0  0  0  0  0  0
  -27.5980  -32.5070   25.7650 C   0  0  0  0  0  1  0  0  0  0  0  0
  1  3  1  0
  2  4  1  0
  2  5  2  0
  4  1  2  0
  5  6  1  0
  6  3  2  0
  6 55  1  0
  7  4  1  0
  8  5  1  0
  9 22  1  0
 10 15  1  0
 11 12  1  0
 11 10  1  0
 13 12  1  0
 13 26  1  0
 13 14  1  0
 15  9  1  0
 15 14  1  0
 16  9  2  0
 17 19  1  0
 17 21  1  0
 19 22  1  0
 20 18  1  0
 21  3  1  0
 21 18  1  0
 22 20  1  0
 23 24  2  0
 24 43  1  0
 25 24  1  0
 25 28  1  0
 26 23  1  0
 26 27  1  0
 27 25  2  0
 28 29  1  0
 29 30  2  0
 31 34  1  0
 31 30  1  0
 32 31  2  0
 33 32  1  0
 33 28  2  0
 34 35  1  0
 35 36  1  0
 36 37  2  0
 38 37  1  0
 38 42  1  0
 39 38  2  0
 40 35  2  0
 40 39  1  0
 41 40  1  0
 43 44  1  0
 44 47  1  0
 44 46  1  0
 45 43  2  0
 48 49  1  0
 48 23  1  0
 50 48  1  0
 52 55  1  0
 52 51  1  0
 54 56  1  0
 54 53  1  0
 54 51  1  0
 55 53  1  0
 57 68  2  0
 58 56  1  0
 58 63  1  0
 59 67  1  0
 59 69  1  0
 60 66  1  0
 60 62  1  0
 61 67  1  0
 62 63  2  0
 62 61  1  0
 64 65  1  0
 64 58  2  0
 65 60  2  0
 66 59  1  0
 67 57  1  0
 69 71  2  0
 70 69  1  0
 72 70  1  0
 73 82  2  0
 73 78  1  0
 74 70  1  0
 74 78  1  0
 75 74  1  0
 76 77  1  0
 76 75  1  0
 77 73  1  0
 78 79  2  0
 79 80  1  0
 81 80  2  0
 82 81  1  0
 83 57  1  0
 83 84  1  0
 83 93  1  0
 84 87  1  0
 85 89  1  0
 85 84  1  0
 86 85  2  0
 89 88  1  0
 91 89  1  0
 91 92  1  0
 91 90  1  0
 93 96  1  1
 93 94  1  0
 95 93  1  0
M  ISO  4   9 100  22 100  54 101  56 101
M  END
>  <TORSDO>  (42) 
F 17

>  <SCORE>  (42) 
-15.335

>  <name>  (42) 
41

>  <ligand_id>  (42) 
41

>  <original_smiles>  (42) 
[H]c1c([H])c([H])c2c(c1[H])C([H])([H])C([H])([H])C([H])([H])C2([H])N([H])C(=O)C1([H])N(C(=O)C([H])(N([H])C(=O)C([H])(N([H])C([H])([H])[H])C([H])([H])[H])C(C([H])([H])[H])(C([H])([H])[H])C([H])([H])[H])C([H])([H])c2c([H])c(OC3([H])C([H])([H])N(c4c(C([H])([H])[H])c([H])c(C([H])([H])[H])c([H])c4C4([H])C([H])([H])C([H])([H])N(C(=O)N5C([H])([H])C([H])([H])C([H])([H])C([H])(n6nc(-c7c([H])c([H])c(Oc8c([H])c([H])c(F)c([H])c8F)c([H])c7[H])c(C(=O)N([H])[H])c6N([H])[H])C5([H])[H])C([H])([H])C4([H])[H])C([H])([H])C3([H])[H])c([H])c([H])c2C1([H])[H]

>  <smiles>  (42) 
[H]c1c([H])c([H])c2c(c1[H])C([H])([H])C([H])([H])C([H])([H])C2([H])N([H])C(=O)C1([H])N(C(=O)C([H])(N([H])C(=O)C([H])(N([H])C([H])([H])[H])C([H])([H])[H])C(C([H])([H])[H])(C([H])([H])[H])C([H])([H])[H])C([H])([H])c2c([H])c(OC3([H])C([H])([H])N(c4c(C([H])([H])[H])c([H])c(C([H])([H])[H])c([H])c4C4([H])C([H])([H])C([H])([H])N(C(=O)N5C([H])([H])C([H])([H])C([H])([H])C([H])(n6nc(-c7c([H])c([H])c(Oc8c([H])c([H])c(F)c([H])c8F)c([H])c7[H])c(C(=O)N([H])[H])c6N([H])[H])C5([H])[H])C([H])([H])C4([H])[H])C([H])([H])C3([H])[H])c([H])c([H])c2C1([H])[H]

$$$$
42:0:0
     RDKit          3D

 96106  0  0  1  0  0  0  0  0999 V2000
  -29.8090  -21.6620   19.6170 C   0  0  0  0  0  0  0  0  0  0  0  0
  -30.2170  -20.4770   20.3720 C   0  0  0  0  0  0  0  0  0  0  0  0
  -30.6380  -21.9490   18.4910 C   0  0  0  0  0  0  0  0  0  0  0  0
  -31.6210  -20.3280   20.4770 C   0  0  0  0  0  0  0  0  0  0  0  0
  -31.9330  -21.3800   18.4510 C   0  0  0  0  0  0  0  0  0  0  0  0
  -30.1980  -22.8790   17.3680 C   0  0  0  0  0  1  0  0  0  0  0  0
  -32.3170  -19.6330   21.6310 C   0  0  0  0  0  1  0  0  0  0  0  0
  -32.8640  -21.4970   17.2580 C   0  0  0  0  0  1  0  0  0  0  0  0
  -32.4540  -20.7350   19.5060 N   0  0  0  0  0  0  0  0  0  0  0  0
  -30.6370  -14.7020   20.0420 C   0  0  0  0  0  0  0  0  0  0  0  0
  -30.3360  -12.4800   18.9560 C   0  0  0  0  0  2  0  0  0  0  0  0
  -29.3310  -12.6390   17.7930 C   0  0  0  0  0  2  0  0  0  0  0  0
  -27.8820  -12.5010   18.2980 C   0  0  0  0  0  2  0  0  0  0  0  0
  -27.6100  -13.3080   19.5960 C   0  0  0  0  0  3  0  0  0  0  0  0
  -28.7320  -13.1390   20.6420 C   0  0  0  0  0  2  0  0  0  0  0  0
  -29.9880  -13.4920   19.9760 N   0  0  0  0  0  0  0  0  0  0  0  0
  -31.8090  -14.8050   19.6630 O   0  0  0  0  0  0  0  0  0  0  0  0
  -29.7620  -18.1680   19.1230 C   0  0  0  0  0  2  0  0  0  0  0  0
  -29.5340  -18.1220   21.5920 C   0  0  0  0  0  2  0  0  0  0  0  0
  -29.3140  -16.6530   19.2160 C   0  0  0  0  0  2  0  0  0  0  0  0
  -30.3120  -16.7430   21.4360 C   0  0  0  0  0  2  0  0  0  0  0  0
  -29.4280  -19.0850   20.3510 C   0  0  0  0  0  3  0  0  0  0  0  0
  -29.8970  -15.8430   20.3260 N   0  0  0  0  0  0  0  0  0  0  0  0
  -25.2670  -13.8760   20.4610 C   0  0  0  0  0  0  0  0  0  0  0  0
  -24.2210  -13.0880   20.8660 C   0  0  0  0  0  0  0  0  0  0  0  0
  -24.6870  -11.7410   20.7800 C   0  0  0  0  0  0  0  0  0  0  0  0
  -26.2970  -13.0050   20.1530 N   0  0  0  0  0  0  0  0  0  0  0  0
  -25.9580  -11.7140   20.4030 N   0  0  0  0  0  0  0  0  0  0  0  0
  -23.9760  -10.4710   20.9780 C   0  0  0  0  0  0  0  0  0  0  0  0
  -24.4310   -9.5040   21.8990 C   0  0  0  0  0  3  0  0  0  0  0  0
  -23.7170   -8.3000   22.0820 C   0  0  0  0  0  3  0  0  0  0  0  0
  -22.5330   -8.0580   21.3460 C   0  0  0  0  0  0  0  0  0  0  0  0
  -22.1020   -9.0150   20.4130 C   0  0  0  0  0  3  0  0  0  0  0  0
  -22.8150  -10.2090   20.2290 C   0  0  0  0  0  3  0  0  0  0  0  0
  -21.7860   -6.9080   21.4390 O   0  0  0  0  0  0  0  0  0  0  0  0
  -21.7190   -6.1900   22.6060 C   0  0  0  0  0  0  0  0  0  0  0  0
  -21.2370   -6.7580   23.8060 C   0  0  0  0  0  3  0  0  0  0  0  0
  -21.1180   -5.9630   24.9620 C   0  0  0  0  0  3  0  0  0  0  0  0
  -21.4730   -4.6020   24.9210 C   0  0  0  0  0  0  0  0  0  0  0  0
  -21.9500   -4.0350   23.7270 C   0  0  0  0  0  3  0  0  0  0  0  0
  -22.0700   -4.8260   22.5730 C   0  0  0  0  0  0  0  0  0  0  0  0
  -22.5090   -4.2680   21.4190 F   0  0  0  0  0  0  0  0  0  0  0  0
  -21.3530   -3.8370   26.0320 F   0  0  0  0  0  0  0  0  0  0  0  0
  -22.8410  -13.5550   21.2270 C   0  0  0  0  0  0  0  0  0  0  0  0
  -22.1670  -12.8250   22.1110 N   0  0  0  0  0  0  0  0  0  0  0  0
  -22.3730  -14.5950   20.7640 O   0  0  0  0  0  0  0  0  0  0  0  0
  -22.5680  -11.9830   22.4980 H   0  0  0  0  0  0  0  0  0  0  0  0
  -21.2450  -13.1070   22.4050 H   0  0  0  0  0  0  0  0  0  0  0  0
  -25.4230  -15.2470   20.3050 N   0  0  0  0  0  0  0  0  0  0  0  0
  -24.6720  -15.9060   20.4740 H   0  0  0  0  0  0  0  0  0  0  0  0
  -26.2740  -15.6910   19.9790 H   0  0  0  0  0  0  0  0  0  0  0  0
  -29.6280  -24.1730   20.7440 C   0  0  0  0  0  2  0  0  0  0  0  0
  -28.0110  -23.9230   19.4810 C   0  0  0  0  0  2  0  0  0  0  0  0
  -28.9390  -22.8660   20.2140 C   0  0  0  0  0  3  0  0  0  0  0  0
  -28.3210  -25.0180   20.5560 C   0  0  0  0  0  3  0  0  0  0  0  0
  -28.4740  -26.4750   20.2320 O   0  0  0  0  0  0  0  0  0  0  0  0
  -24.6380  -31.8670   23.2340 C   0  0  0  0  0  0  0  0  0  0  0  0
  -27.3410  -27.3120   20.2160 C   0  0  0  0  0  0  0  0  0  0  0  0
  -23.4730  -30.4570   21.5760 C   0  0  0  0  0  3  0  0  0  0  0  0
  -24.9610  -28.9090   20.1750 C   0  0  0  0  0  0  0  0  0  0  0  0
  -26.0150  -30.7930   21.4330 C   0  0  0  0  0  2  0  0  0  0  0  0
  -26.1180  -29.4110   20.7870 C   0  0  0  0  0  0  0  0  0  0  0  0
  -27.3110  -28.6250   20.7910 C   0  0  0  0  0  3  0  0  0  0  0  0
  -26.1630  -26.8640   19.5850 C   0  0  0  0  0  3  0  0  0  0  0  0
  -24.9840  -27.6410   19.5690 C   0  0  0  0  0  3  0  0  0  0  0  0
  -23.7190  -29.7780   20.2020 C   0  0  0  0  0  2  0  0  0  0  0  0
  -24.7270  -31.0580   22.1380 N   0  0  0  0  0  0  0  0  0  0  0  0
  -23.5440  -32.1400   23.7510 O   0  0  0  0  0  0  0  0  0  0  0  0
  -22.7990  -29.4390   22.5270 C   0  0  0  0  0  0  0  0  0  0  0  0
  -21.4710  -29.2770   22.4030 N   0  0  0  0  0  0  0  0  0  0  0  0
  -23.4710  -28.7980   23.3380 O   0  0  0  0  0  0  0  0  0  0  0  0
  -20.9850  -29.8510   21.7300 H   0  0  0  0  0  0  0  0  0  0  0  0
  -18.0790  -28.1220   22.9180 C   0  0  0  0  0  0  0  0  0  0  0  0
  -20.6450  -28.3360   23.1630 C   0  0  0  0  0  3  0  0  0  0  0  0
  -20.7150  -26.9130   22.5570 C   0  0  0  0  0  2  0  0  0  0  0  0
  -19.5950  -26.6300   21.5500 C   0  0  0  0  0  2  0  0  0  0  0  0
  -18.2240  -26.7850   22.2130 C   0  0  0  0  0  2  0  0  0  0  0  0
  -19.2150  -28.8580   23.3490 C   0  0  0  0  0  0  0  0  0  0  0  0
  -19.0220  -30.1130   23.9680 C   0  0  0  0  0  3  0  0  0  0  0  0
  -17.7280  -30.6330   24.1540 C   0  0  0  0  0  3  0  0  0  0  0  0
  -16.6060  -29.8930   23.7370 C   0  0  0  0  0  3  0  0  0  0  0  0
  -16.7830  -28.6370   23.1280 C   0  0  0  0  0  3  0  0  0  0  0  0
  -25.9050  -32.5110   23.8760 C   0  0  0  0  0  3  0  0  0  0  0  0
  -26.4060  -31.7430   25.1610 C   0  0  1  0  0  0  0  0  0  0  0  0
  -25.2990  -31.4990   26.2130 C   0  0  0  0  0  1  0  0  0  0  0  0
  -27.0040  -30.3700   24.7800 C   0  0  0  0  0  1  0  0  0  0  0  0
  -27.5400  -32.5440   25.8410 C   0  0  0  0  0  1  0  0  0  0  0  0
  -25.5860  -33.9100   24.2030 N   0  0  0  0  0  0  0  0  0  0  0  0
  -25.9130  -34.9610   23.4400 C   0  0  0  0  0  0  0  0  0  0  0  0
  -26.5790  -34.8560   22.4070 O   0  0  0  0  0  0  0  0  0  0  0  0
  -24.9930  -34.0630   25.0050 H   0  0  0  0  0  0  0  0  0  0  0  0
  -24.1740  -36.7420   23.0760 C   0  0  0  0  0  1  0  0  0  0  0  0
  -25.4180  -36.3500   23.8900 C   0  0  0  0  0  3  0  0  0  0  0  0
  -27.5460  -37.2530   24.7180 C   0  0  0  0  0  1  0  0  0  0  0  0
  -26.4450  -37.4080   23.7710 N   0  0  0  0  0  0  0  0  0  0  0  0
  -26.0350  -38.3280   23.9100 H   0  0  0  0  0  0  0  0  0  0  0  0
  1  2  1  0
  2  4  2  0
  3  1  2  0
  4  7  1  0
  5  3  1  0
  5  9  2  0
  6  3  1  0
  8  5  1  0
  9  4  1  0
 10 23  1  0
 11 16  1  0
 12 13  1  0
 12 11  1  0
 14 13  1  0
 14 27  1  0
 14 15  1  0
 16 10  1  0
 16 15  1  0
 17 10  2  0
 18 20  1  0
 18 22  1  0
 20 23  1  0
 21 19  1  0
 22  2  1  0
 22 19  1  0
 23 21  1  0
 24 25  2  0
 25 44  1  0
 26 25  1  0
 26 29  1  0
 27 28  1  0
 27 24  1  0
 28 26  2  0
 29 30  1  0
 30 31  2  0
 32 35  1  0
 32 31  1  0
 33 32  2  0
 34 33  1  0
 34 29  2  0
 35 36  1  0
 36 37  1  0
 37 38  2  0
 39 38  1  0
 39 43  1  0
 40 39  2  0
 41 36  2  0
 41 40  1  0
 42 41  1  0
 44 45  1  0
 45 48  1  0
 45 47  1  0
 46 44  2  0
 49 24  1  0
 49 50  1  0
 51 49  1  0
 53 54  1  0
 53 55  1  0
 54  1  1  0
 54 52  1  0
 55 56  1  0
 55 52  1  0
 57 68  2  0
 58 56  1  0
 58 63  1  0
 59 67  1  0
 59 69  1  0
 60 66  1  0
 60 62  1  0
 61 67  1  0
 62 63  2  0
 62 61  1  0
 64 58  2  0
 65 64  1  0
 65 60  2  0
 66 59  1  0
 67 57  1  0
 69 71  2  0
 70 69  1  0
 72 70  1  0
 73 82  2  0
 73 78  1  0
 74 70  1  0
 74 78  1  0
 75 74  1  0
 76 77  1  0
 76 75  1  0
 77 73  1  0
 78 79  2  0
 79 80  1  0
 81 80  2  0
 82 81  1  0
 83 57  1  0
 83 88  1  0
 83 84  1  0
 84 87  1  1
 84 85  1  0
 86 84  1  0
 88 91  1  0
 89 93  1  0
 89 88  1  0
 90 89  2  0
 93 92  1  0
 95 93  1  0
 95 96  1  0
 95 94  1  0
M  ISO  4  10 100  23 100  55 101  56 101
M  END
>  <TORSDO>  (43) 
F 17

>  <SCORE>  (43) 
-15.021

>  <name>  (43) 
42

>  <ligand_id>  (43) 
42

>  <original_smiles>  (43) 
[H]c1c([H])c([H])c2c(c1[H])C([H])([H])C([H])([H])C([H])([H])C2([H])N([H])C(=O)C1([H])N(C(=O)C([H])(N([H])C(=O)C([H])(N([H])C([H])([H])[H])C([H])([H])[H])C(C([H])([H])[H])(C([H])([H])[H])C([H])([H])[H])C([H])([H])c2c([H])c(OC3([H])C([H])([H])C([H])(c4c(C([H])([H])[H])c(C([H])([H])[H])nc(C([H])([H])[H])c4C4([H])C([H])([H])C([H])([H])N(C(=O)N5C([H])([H])C([H])([H])C([H])([H])C([H])(n6nc(-c7c([H])c([H])c(Oc8c([H])c([H])c(F)c([H])c8F)c([H])c7[H])c(C(=O)N([H])[H])c6N([H])[H])C5([H])[H])C([H])([H])C4([H])[H])C3([H])[H])c([H])c([H])c2C1([H])[H]

>  <smiles>  (43) 
[H]c1c([H])c([H])c2c(c1[H])C([H])([H])C([H])([H])C([H])([H])C2([H])N([H])C(=O)C1([H])N(C(=O)C([H])(N([H])C(=O)C([H])(N([H])C([H])([H])[H])C([H])([H])[H])C(C([H])([H])[H])(C([H])([H])[H])C([H])([H])[H])C([H])([H])c2c([H])c(OC3([H])C([H])([H])C([H])(c4c(C([H])([H])[H])c(C([H])([H])[H])nc(C([H])([H])[H])c4C4([H])C([H])([H])C([H])([H])N(C(=O)N5C([H])([H])C([H])([H])C([H])([H])C([H])(n6nc(-c7c([H])c([H])c(Oc8c([H])c([H])c(F)c([H])c8F)c([H])c7[H])c(C(=O)N([H])[H])c6N([H])[H])C5([H])[H])C([H])([H])C4([H])[H])C3([H])[H])c([H])c([H])c2C1([H])[H]

$$$$
43:0:0
     RDKit          3D

 98107  0  0  1  0  0  0  0  0999 V2000
  -29.4740  -22.6570   19.7860 C   0  0  0  0  0  0  0  0  0  0  0  0
  -28.5950  -23.8420   19.7990 C   0  0  0  0  0  0  0  0  0  0  0  0
  -28.9730  -21.2730   19.8190 C   0  0  0  0  0  0  0  0  0  0  0  0
  -27.2280  -23.5200   19.9970 C   0  0  0  0  0  0  0  0  0  0  0  0
  -27.5660  -21.1920   20.0040 C   0  0  0  0  0  0  0  0  0  0  0  0
  -30.9840  -22.8300   19.7480 C   0  0  0  0  0  1  0  0  0  0  0  0
  -26.1310  -24.5600   20.0850 C   0  0  0  0  0  1  0  0  0  0  0  0
  -26.8070  -19.8830   20.1410 C   0  0  0  0  0  1  0  0  0  0  0  0
  -26.7560  -22.2630   20.1090 N   0  0  0  0  0  0  0  0  0  0  0  0
  -29.3310  -18.6610   19.3140 C   0  0  0  0  0  2  0  0  0  0  0  0
  -30.9360  -19.8300   20.5990 C   0  0  0  0  0  2  0  0  0  0  0  0
  -29.9720  -17.6110   20.3200 C   0  0  0  0  0  3  0  0  0  0  0  0
  -31.3080  -18.3060   20.5700 C   0  0  0  0  0  3  0  0  0  0  0  0
  -29.7880  -20.0540   19.6980 N   0  0  0  0  0  0  0  0  0  0  0  0
  -30.7710  -15.0420   19.8700 C   0  0  0  0  0  0  0  0  0  0  0  0
  -30.6480  -12.7260   18.9400 C   0  0  0  0  0  2  0  0  0  0  0  0
  -29.6270  -12.7150   17.7760 C   0  0  0  0  0  2  0  0  0  0  0  0
  -28.1780  -12.5350   18.2870 C   0  0  0  0  0  2  0  0  0  0  0  0
  -27.8530  -13.4630   19.4840 C   0  0  0  0  0  3  0  0  0  0  0  0
  -28.9690  -13.3880   20.5500 C   0  0  0  0  0  2  0  0  0  0  0  0
  -30.2240  -13.7780   19.8870 N   0  0  0  0  0  0  0  0  0  0  0  0
  -31.9310  -15.2200   19.4910 O   0  0  0  0  0  0  0  0  0  0  0  0
  -29.9060  -16.0890   20.1340 N   0  0  0  0  0  0  0  0  0  0  0  0
  -29.0000  -15.7380   20.3990 H   0  0  0  0  0  0  0  0  0  0  0  0
  -25.5370  -14.0690   20.4150 C   0  0  0  0  0  0  0  0  0  0  0  0
  -24.4840  -13.2940   20.8310 C   0  0  0  0  0  0  0  0  0  0  0  0
  -24.9190  -11.9390   20.7070 C   0  0  0  0  0  0  0  0  0  0  0  0
  -26.5390  -13.1810   20.0590 N   0  0  0  0  0  0  0  0  0  0  0  0
  -26.1820  -11.8930   20.3040 N   0  0  0  0  0  0  0  0  0  0  0  0
  -24.1840  -10.6810   20.8930 C   0  0  0  0  0  0  0  0  0  0  0  0
  -24.5960   -9.7180   21.8410 C   0  0  0  0  0  3  0  0  0  0  0  0
  -23.8630   -8.5240   22.0110 C   0  0  0  0  0  3  0  0  0  0  0  0
  -22.7030   -8.2860   21.2360 C   0  0  0  0  0  0  0  0  0  0  0  0
  -22.3130   -9.2350   20.2780 C   0  0  0  0  0  3  0  0  0  0  0  0
  -23.0460  -10.4220   20.1030 C   0  0  0  0  0  3  0  0  0  0  0  0
  -21.9420   -7.1440   21.3210 O   0  0  0  0  0  0  0  0  0  0  0  0
  -21.7830   -6.4710   22.5070 C   0  0  0  0  0  0  0  0  0  0  0  0
  -21.2080   -7.0860   23.6410 C   0  0  0  0  0  3  0  0  0  0  0  0
  -20.9990   -6.3390   24.8170 C   0  0  0  0  0  3  0  0  0  0  0  0
  -21.3510   -4.9760   24.8590 C   0  0  0  0  0  0  0  0  0  0  0  0
  -21.9160   -4.3610   23.7270 C   0  0  0  0  0  3  0  0  0  0  0  0
  -22.1290   -5.1060   22.5550 C   0  0  0  0  0  0  0  0  0  0  0  0
  -22.6540   -4.5020   21.4620 F   0  0  0  0  0  0  0  0  0  0  0  0
  -21.1430   -4.2560   25.9850 F   0  0  0  0  0  0  0  0  0  0  0  0
  -23.1190  -13.7800   21.2230 C   0  0  0  0  0  0  0  0  0  0  0  0
  -22.4390  -13.0620   22.1110 N   0  0  0  0  0  0  0  0  0  0  0  0
  -22.6640  -14.8320   20.7760 O   0  0  0  0  0  0  0  0  0  0  0  0
  -22.8160  -12.2090   22.4950 H   0  0  0  0  0  0  0  0  0  0  0  0
  -21.5250  -13.3710   22.4100 H   0  0  0  0  0  0  0  0  0  0  0  0
  -25.7180  -15.4410   20.2800 N   0  0  0  0  0  0  0  0  0  0  0  0
  -24.9720  -16.1030   20.4590 H   0  0  0  0  0  0  0  0  0  0  0  0
  -26.5190  -15.8670   19.8310 H   0  0  0  0  0  0  0  0  0  0  0  0
  -31.9600  -17.8400   21.8030 N   0  0  0  0  0  4  0  0  0  0  0  0
  -31.2980  -17.4100   22.4240 H   0  0  0  0  0  0  0  0  0  0  0  0
  -32.3890  -18.6120   22.2790 H   0  0  0  0  0  0  0  0  0  0  0  0
  -32.6780  -17.1730   21.5820 H   0  0  0  0  0  0  0  0  0  0  0  0
  -29.0070  -25.3600   19.3810 C   0  0  0  0  0  2  0  0  0  0  0  0
  -28.7290  -26.6320   20.1550 O   0  0  0  0  0  0  0  0  0  0  0  0
  -24.5910  -31.7590   23.1610 C   0  0  0  0  0  0  0  0  0  0  0  0
  -27.5960  -27.4750   19.9970 C   0  0  0  0  0  0  0  0  0  0  0  0
  -23.5490  -30.3840   21.3970 C   0  0  0  0  0  3  0  0  0  0  0  0
  -25.1500  -28.9970   19.9560 C   0  0  0  0  0  0  0  0  0  0  0  0
  -26.0770  -30.8380   21.3570 C   0  0  0  0  0  2  0  0  0  0  0  0
  -26.2610  -29.5030   20.6380 C   0  0  0  0  0  0  0  0  0  0  0  0
  -27.4820  -28.7510   20.6500 C   0  0  0  0  0  3  0  0  0  0  0  0
  -26.4660  -27.0620   19.2550 C   0  0  0  0  0  3  0  0  0  0  0  0
  -25.2580  -27.7870   19.2550 C   0  0  0  0  0  3  0  0  0  0  0  0
  -23.8640  -29.7970   19.9950 C   0  0  0  0  0  2  0  0  0  0  0  0
  -24.7540  -31.0130   22.0280 N   0  0  0  0  0  0  0  0  0  0  0  0
  -23.4690  -31.9450   23.6570 O   0  0  0  0  0  0  0  0  0  0  0  0
  -22.8990  -29.2830   22.2710 C   0  0  0  0  0  0  0  0  0  0  0  0
  -21.5800  -29.0770   22.1090 N   0  0  0  0  0  0  0  0  0  0  0  0
  -23.5850  -28.6210   23.0550 O   0  0  0  0  0  0  0  0  0  0  0  0
  -21.0840  -29.6600   21.4510 H   0  0  0  0  0  0  0  0  0  0  0  0
  -18.2180  -27.8080   22.5570 C   0  0  0  0  0  0  0  0  0  0  0  0
  -20.7820  -28.0600   22.7960 C   0  0  0  0  0  3  0  0  0  0  0  0
  -20.8800  -26.6950   22.0790 C   0  0  0  0  0  2  0  0  0  0  0  0
  -19.7560  -26.4720   21.0610 C   0  0  0  0  0  2  0  0  0  0  0  0
  -18.3900  -26.5330   21.7530 C   0  0  0  0  0  2  0  0  0  0  0  0
  -19.3430  -28.5330   23.0340 C   0  0  0  0  0  0  0  0  0  0  0  0
  -19.1300  -29.7300   23.7540 C   0  0  0  0  0  3  0  0  0  0  0  0
  -17.8270  -30.2020   23.9970 C   0  0  0  0  0  3  0  0  0  0  0  0
  -16.7190  -29.4710   23.5330 C   0  0  0  0  0  3  0  0  0  0  0  0
  -16.9130  -28.2770   22.8210 C   0  0  0  0  0  3  0  0  0  0  0  0
  -25.8010  -32.4310   23.8770 C   0  0  0  0  0  3  0  0  0  0  0  0
  -26.2420  -31.6750   25.1890 C   0  0  1  0  0  0  0  0  0  0  0  0
  -25.0790  -31.3960   26.1700 C   0  0  0  0  0  1  0  0  0  0  0  0
  -26.9020  -30.3190   24.8500 C   0  0  0  0  0  1  0  0  0  0  0  0
  -27.3080  -32.5090   25.9390 C   0  0  0  0  0  1  0  0  0  0  0  0
  -25.4240  -33.8180   24.1880 N   0  0  0  0  0  0  0  0  0  0  0  0
  -25.7430  -34.8820   23.4390 C   0  0  0  0  0  0  0  0  0  0  0  0
  -26.4580  -34.8010   22.4350 O   0  0  0  0  0  0  0  0  0  0  0  0
  -24.7890  -33.9540   24.9620 H   0  0  0  0  0  0  0  0  0  0  0  0
  -23.9530  -36.5980   23.0200 C   0  0  0  0  0  1  0  0  0  0  0  0
  -25.1860  -36.2540   23.8700 C   0  0  0  0  0  3  0  0  0  0  0  0
  -27.2510  -37.2420   24.7550 C   0  0  0  0  0  1  0  0  0  0  0  0
  -26.1750  -37.3490   23.7720 N   0  0  0  0  0  0  0  0  0  0  0  0
  -25.7280  -38.2560   23.8890 H   0  0  0  0  0  0  0  0  0  0  0  0
  1  2  2  0
  1  3  1  0
  2  4  1  0
  3  5  2  0
  4  7  1  0
  4  9  2  0
  5  9  1  0
  5  8  1  0
  6  1  1  0
 10 14  1  0
 10 12  1  0
 12 23  1  0
 12 13  1  0
 13 11  1  0
 13 53  1  0
 14  3  1  0
 14 11  1  0
 15 21  1  0
 15 23  1  0
 16 21  1  0
 17 18  1  0
 17 16  1  0
 19 18  1  0
 19 28  1  0
 19 20  1  0
 21 20  1  0
 22 15  2  0
 23 24  1  0
 25 26  2  0
 26 45  1  0
 27 26  1  0
 27 30  1  0
 28 29  1  0
 28 25  1  0
 29 27  2  0
 30 31  1  0
 31 32  2  0
 33 36  1  0
 33 32  1  0
 34 33  2  0
 35 34  1  0
 35 30  2  0
 36 37  1  0
 37 42  2  0
 37 38  1  0
 38 39  2  0
 39 40  1  0
 40 44  1  0
 41 40  2  0
 42 41  1  0
 43 42  1  0
 45 46  1  0
 46 49  1  0
 46 48  1  0
 47 45  2  0
 50 25  1  0
 50 51  1  0
 52 50  1  0
 53 55  1  0
 53 54  1  0
 56 53  1  0
 57  2  1  0
 57 58  1  0
 59 70  2  0
 60 58  1  0
 60 65  1  0
 61 69  1  0
 61 71  1  0
 62 68  1  0
 62 64  1  0
 63 69  1  0
 64 65  2  0
 64 63  1  0
 66 60  2  0
 67 66  1  0
 67 62  2  0
 68 61  1  0
 69 59  1  0
 71 73  2  0
 72 71  1  0
 74 72  1  0
 75 84  2  0
 75 80  1  0
 76 72  1  0
 76 80  1  0
 77 76  1  0
 78 79  1  0
 78 77  1  0
 79 75  1  0
 80 81  2  0
 81 82  1  0
 83 82  2  0
 84 83  1  0
 85 59  1  0
 85 90  1  0
 85 86  1  0
 86 89  1  1
 86 87  1  0
 88 86  1  0
 90 93  1  0
 91 95  1  0
 91 90  1  0
 92 91  2  0
 95 94  1  0
 97 95  1  0
 97 98  1  0
 97 96  1  0
M  ISO  4  15 100  23 100  57 101  58 101
M  END
>  <TORSDO>  (44) 
F 19

>  <SCORE>  (44) 
-12.656

>  <name>  (44) 
43

>  <ligand_id>  (44) 
43

>  <original_smiles>  (44) 
[H]c1c([H])c([H])c2c(c1[H])C([H])([H])C([H])([H])C([H])([H])C2([H])N([H])C(=O)C1([H])N(C(=O)C([H])(N([H])C(=O)C([H])(N([H])C([H])([H])[H])C([H])([H])[H])C(C([H])([H])[H])(C([H])([H])[H])C([H])([H])[H])C([H])([H])c2c([H])c(OC([H])([H])c3c(C([H])([H])[H])nc(C([H])([H])[H])c(N4C([H])([H])C([H])(N([H])C(=O)N5C([H])([H])C([H])([H])C([H])([H])C([H])(n6nc(-c7c([H])c([H])c(Oc8c([H])c([H])c(F)c([H])c8F)c([H])c7[H])c(C(=O)N([H])[H])c6N([H])[H])C5([H])[H])C([H])([N+]([H])([H])[H])C4([H])[H])c3C([H])([H])[H])c([H])c([H])c2C1([H])[H]

>  <smiles>  (44) 
[H]c1c([H])c([H])c2c(c1[H])C([H])([H])C([H])([H])C([H])([H])C2([H])N([H])C(=O)C1([H])N(C(=O)C([H])(N([H])C(=O)C([H])(N([H])C([H])([H])[H])C([H])([H])[H])C(C([H])([H])[H])(C([H])([H])[H])C([H])([H])[H])C([H])([H])c2c([H])c(OC([H])([H])c3c(C([H])([H])[H])nc(C([H])([H])[H])c(N4C([H])([H])C([H])(N([H])C(=O)N5C([H])([H])C([H])([H])C([H])([H])C([H])(n6nc(-c7c([H])c([H])c(Oc8c([H])c([H])c(F)c([H])c8F)c([H])c7[H])c(C(=O)N([H])[H])c6N([H])[H])C5([H])[H])C([H])([N+]([H])([H])[H])C4([H])[H])c3C([H])([H])[H])c([H])c([H])c2C1([H])[H]

$$$$
44:0:0
     RDKit          3D

103114  0  0  1  0  0  0  0  0999 V2000
  -27.8140  -20.7630   20.6820 C   0  0  0  0  0  2  0  0  0  0  0  0
  -26.8240  -21.6870   19.9420 C   0  0  0  0  0  2  0  0  0  0  0  0
  -28.1780  -21.8600   17.9560 C   0  0  0  0  0  2  0  0  0  0  0  0
  -29.3380  -20.9970   18.5240 C   0  0  0  0  0  3  0  0  0  0  0  0
  -29.0430  -20.2670   19.8820 C   0  0  0  0  0  3  0  0  0  0  0  0
  -29.9510  -20.1020   17.4270 C   0  0  0  0  0  1  0  0  0  0  0  0
  -27.4720  -22.6510   19.0050 N   0  0  1  0  0  4  0  0  0  0  0  0
  -28.1760  -23.1500   19.5340 H   0  0  0  0  0  0  0  0  0  0  0  0
  -31.0390  -16.0710   21.6040 C   0  0  0  0  0  3  0  0  0  0  0  0
  -30.2910  -18.7160   22.2870 C   0  0  0  0  0  3  0  0  0  0  0  0
  -31.3510  -16.5730   22.8880 C   0  0  0  0  0  0  0  0  0  0  0  0
  -30.3460  -16.8900   20.6980 C   0  0  0  0  0  0  0  0  0  0  0  0
  -30.9670  -17.9000   23.2260 C   0  0  0  0  0  0  0  0  0  0  0  0
  -29.9810  -18.1940   21.0140 C   0  0  0  0  0  0  0  0  0  0  0  0
  -28.9080  -17.7060   19.0340 C   0  0  0  0  0  2  0  0  0  0  0  0
  -29.8850  -16.5210   19.3210 C   0  0  0  0  0  3  0  0  0  0  0  0
  -31.2600  -18.4580   24.6080 C   0  0  0  0  0  1  0  0  0  0  0  0
  -29.2790  -18.8020   19.9600 N   0  0  0  0  0  0  0  0  0  0  0  0
  -29.8490  -14.1370   18.5260 C   0  0  0  0  0  0  0  0  0  0  0  0
  -29.2330  -12.0020   17.4510 C   0  0  0  0  0  2  0  0  0  0  0  0
  -27.9720  -12.2230   16.5920 C   0  0  0  0  0  2  0  0  0  0  0  0
  -26.6980  -12.0460   17.4420 C   0  0  0  0  0  2  0  0  0  0  0  0
  -26.7490  -12.8420   18.7750 C   0  0  0  0  0  3  0  0  0  0  0  0
  -28.0920  -12.6130   19.5050 C   0  0  0  0  0  2  0  0  0  0  0  0
  -29.1750  -12.9550   18.5710 N   0  0  0  0  0  0  0  0  0  0  0  0
  -30.7990  -14.3230   17.7620 O   0  0  0  0  0  0  0  0  0  0  0  0
  -29.3330  -15.1510   19.2510 N   0  0  0  0  0  0  0  0  0  0  0  0
  -28.5290  -14.9490   19.8230 H   0  0  0  0  0  0  0  0  0  0  0  0
  -24.7070  -13.3910   20.2400 C   0  0  0  0  0  0  0  0  0  0  0  0
  -23.7860  -12.5920   20.8630 C   0  0  0  0  0  0  0  0  0  0  0  0
  -24.1810  -11.2460   20.5880 C   0  0  0  0  0  0  0  0  0  0  0  0
  -25.6050  -12.5300   19.6290 N   0  0  0  0  0  0  0  0  0  0  0  0
  -25.3110  -11.2310   19.8920 N   0  0  0  0  0  0  0  0  0  0  0  0
  -23.5170   -9.9740   20.8970 C   0  0  0  0  0  0  0  0  0  0  0  0
  -24.0850   -9.0420   21.7930 C   0  0  0  0  0  3  0  0  0  0  0  0
  -23.4170   -7.8340   22.0880 C   0  0  0  0  0  3  0  0  0  0  0  0
  -22.1690   -7.5480   21.4870 C   0  0  0  0  0  0  0  0  0  0  0  0
  -21.6190   -8.4690   20.5760 C   0  0  0  0  0  3  0  0  0  0  0  0
  -22.2870   -9.6680   20.2800 C   0  0  0  0  0  3  0  0  0  0  0  0
  -21.4600   -6.3890   21.6940 O   0  0  0  0  0  0  0  0  0  0  0  0
  -21.5060   -5.7220   22.8930 C   0  0  0  0  0  0  0  0  0  0  0  0
  -21.0660   -6.3180   24.0940 C   0  0  0  0  0  3  0  0  0  0  0  0
  -21.0650   -5.5740   25.2900 C   0  0  0  0  0  3  0  0  0  0  0  0
  -21.4930   -4.2330   25.2860 C   0  0  0  0  0  0  0  0  0  0  0  0
  -21.9270   -3.6350   24.0900 C   0  0  0  0  0  3  0  0  0  0  0  0
  -21.9300   -4.3780   22.8960 C   0  0  0  0  0  0  0  0  0  0  0  0
  -22.3280   -3.7910   21.7410 F   0  0  0  0  0  0  0  0  0  0  0  0
  -21.4850   -3.5150   26.4340 F   0  0  0  0  0  0  0  0  0  0  0  0
  -22.5540  -13.0470   21.5910 C   0  0  0  0  0  0  0  0  0  0  0  0
  -22.1470  -12.3190   22.6250 N   0  0  0  0  0  0  0  0  0  0  0  0
  -21.9710  -14.0840   21.2740 O   0  0  0  0  0  0  0  0  0  0  0  0
  -22.6360  -11.4790   22.8980 H   0  0  0  0  0  0  0  0  0  0  0  0
  -21.3340  -12.6050   23.1500 H   0  0  0  0  0  0  0  0  0  0  0  0
  -24.8430  -14.7710   20.1220 N   0  0  0  0  0  0  0  0  0  0  0  0
  -24.1630  -15.4140   20.5100 H   0  0  0  0  0  0  0  0  0  0  0  0
  -25.5490  -15.2320   19.5610 H   0  0  0  0  0  0  0  0  0  0  0  0
  -32.1400  -14.1920   23.6760 C   0  0  0  0  0  2  0  0  0  0  0  0
  -31.3540  -14.7910   24.8170 C   0  0  0  0  0  2  0  0  0  0  0  0
  -32.0890  -15.6930   23.8550 C   0  0  0  0  0  3  0  0  0  0  0  0
  -25.3450  -23.0860   17.6880 C   0  0  0  0  0  1  0  0  0  0  0  0
  -26.5030  -23.7100   18.5110 C   0  0  0  0  0  3  0  0  0  0  0  0
  -27.1220  -24.9320   17.7260 C   0  0  0  0  0  2  0  0  0  0  0  0
  -27.3310  -26.1880   18.4150 O   0  0  0  0  0  0  0  0  0  0  0  0
  -24.9900  -31.0700   23.0380 C   0  0  0  0  0  0  0  0  0  0  0  0
  -26.2860  -27.0460   18.7250 C   0  0  0  0  0  0  0  0  0  0  0  0
  -23.2870  -30.1380   21.5070 C   0  0  0  0  0  3  0  0  0  0  0  0
  -24.1850  -28.7800   19.5390 C   0  0  0  0  0  0  0  0  0  0  0  0
  -25.7450  -30.2660   20.8000 C   0  0  0  0  0  2  0  0  0  0  0  0
  -25.5000  -29.0450   19.9350 C   0  0  0  0  0  0  0  0  0  0  0  0
  -26.5490  -28.1790   19.5380 C   0  0  0  0  0  3  0  0  0  0  0  0
  -24.9540  -26.8260   18.3080 C   0  0  0  0  0  3  0  0  0  0  0  0
  -23.9090  -27.6710   18.7230 C   0  0  0  0  0  3  0  0  0  0  0  0
  -23.1090  -29.7290   20.0210 C   0  0  0  0  0  2  0  0  0  0  0  0
  -24.7060  -30.4950   21.8330 N   0  0  0  0  0  0  0  0  0  0  0  0
  -24.0930  -31.3360   23.8480 O   0  0  0  0  0  0  0  0  0  0  0  0
  -22.7190  -29.0130   22.4050 C   0  0  0  0  0  0  0  0  0  0  0  0
  -21.4060  -28.7630   22.2950 N   0  0  0  0  0  0  0  0  0  0  0  0
  -23.4580  -28.3730   23.1590 O   0  0  0  0  0  0  0  0  0  0  0  0
  -20.8650  -29.3360   21.6600 H   0  0  0  0  0  0  0  0  0  0  0  0
  -18.1770  -27.1670   22.5910 C   0  0  0  0  0  0  0  0  0  0  0  0
  -20.6640  -27.7280   23.0150 C   0  0  0  0  0  3  0  0  0  0  0  0
  -20.9730  -26.3240   22.4450 C   0  0  0  0  0  2  0  0  0  0  0  0
  -19.9800  -25.8780   21.3690 C   0  0  0  0  0  2  0  0  0  0  0  0
  -18.5540  -25.8540   21.9260 C   0  0  0  0  0  2  0  0  0  0  0  0
  -19.1680  -28.0550   23.0900 C   0  0  0  0  0  0  0  0  0  0  0  0
  -18.7650  -29.2790   23.6660 C   0  0  0  0  0  3  0  0  0  0  0  0
  -17.4030  -29.6210   23.7490 C   0  0  0  0  0  3  0  0  0  0  0  0
  -16.4250  -28.7310   23.2690 C   0  0  0  0  0  3  0  0  0  0  0  0
  -16.8130  -27.5060   22.6970 C   0  0  0  0  0  3  0  0  0  0  0  0
  -26.4520  -31.4460   23.4390 C   0  0  0  0  0  3  0  0  0  0  0  0
  -27.1230  -30.3910   24.4010 C   0  0  1  0  0  0  0  0  0  0  0  0
  -26.2290  -29.9780   25.5940 C   0  0  0  0  0  1  0  0  0  0  0  0
  -27.4970  -29.1080   23.6230 C   0  0  0  0  0  1  0  0  0  0  0  0
  -28.4440  -30.9650   24.9650 C   0  0  0  0  0  1  0  0  0  0  0  0
  -26.4120  -32.7700   24.0710 N   0  0  0  0  0  0  0  0  0  0  0  0
  -26.7540  -33.9140   23.4650 C   0  0  0  0  0  0  0  0  0  0  0  0
  -27.2090  -33.9550   22.3180 O   0  0  0  0  0  0  0  0  0  0  0  0
  -26.0090  -32.8190   24.9960 H   0  0  0  0  0  0  0  0  0  0  0  0
  -25.2820  -35.9260   23.7740 C   0  0  0  0  0  1  0  0  0  0  0  0
  -26.5590  -35.2210   24.2570 C   0  0  0  0  0  3  0  0  0  0  0  0
  -28.9010  -35.6580   24.8440 C   0  0  0  0  0  1  0  0  0  0  0  0
  -27.7080  -36.1460   24.1570 N   0  0  0  0  0  0  0  0  0  0  0  0
  -27.4720  -37.0580   24.5370 H   0  0  0  0  0  0  0  0  0  0  0  0
  2  1  1  0
  3  4  1  0
  3  7  1  0
  4  6  1  0
  4  5  1  0
  5 18  1  0
  5  1  1  0
  7  8  1  1
  7  2  1  0
  9 11  1  0
 10 13  1  0
 11 13  2  0
 11 59  1  0
 12 14  1  0
 12  9  2  0
 13 17  1  0
 14 10  2  0
 15 16  1  0
 15 18  1  0
 16 27  1  0
 16 12  1  0
 18 14  1  0
 19 25  1  0
 19 27  1  0
 20 25  1  0
 21 22  1  0
 21 20  1  0
 23 22  1  0
 23 24  1  0
 23 32  1  0
 25 24  1  0
 26 19  2  0
 27 28  1  0
 29 30  2  0
 30 49  1  0
 31 30  1  0
 31 34  1  0
 32 33  1  0
 32 29  1  0
 33 31  2  0
 34 35  1  0
 35 36  2  0
 37 40  1  0
 37 36  1  0
 38 37  2  0
 39 38  1  0
 39 34  2  0
 40 41  1  0
 41 46  2  0
 41 42  1  0
 42 43  2  0
 44 43  1  0
 44 48  1  0
 45 44  2  0
 46 45  1  0
 47 46  1  0
 49 50  1  0
 50 52  1  0
 50 53  1  0
 51 49  2  0
 54 29  1  0
 54 55  1  0
 56 54  1  0
 57 59  1  0
 57 58  1  0
 59 58  1  0
 61 60  1  0
 61  7  1  0
 62 63  1  0
 62 61  1  0
 63 65  1  0
 64 75  2  0
 65 70  1  0
 66 74  1  0
 66 76  1  0
 67 69  1  0
 67 73  1  0
 68 74  1  0
 69 68  1  0
 70 69  2  0
 71 72  1  0
 71 65  2  0
 72 67  2  0
 73 66  1  0
 74 64  1  0
 76 78  2  0
 77 76  1  0
 79 77  1  0
 80 89  2  0
 80 85  1  0
 81 77  1  0
 81 85  1  0
 82 81  1  0
 83 84  1  0
 83 82  1  0
 84 80  1  0
 85 86  2  0
 86 87  1  0
 88 87  2  0
 89 88  1  0
 90 64  1  0
 90 95  1  0
 90 91  1  0
 91 94  1  1
 91 92  1  0
 93 91  1  0
 95 98  1  0
 96 95  1  0
 96100  1  0
 97 96  2  0
100 99  1  0
102100  1  0
102103  1  0
102101  1  0
M  ISO  4  19 100  27 100  62 101  63 101
M  END
>  <TORSDO>  (45) 
F 20

>  <SCORE>  (45) 
11.632

>  <name>  (45) 
44

>  <ligand_id>  (45) 
44

>  <original_smiles>  (45) 
[H]c1c([H])c([H])c2c(c1[H])C([H])([H])C([H])([H])C([H])([H])C2([H])N([H])C(=O)C1([H])N(C(=O)C([H])(N([H])C(=O)C([H])(N([H])C([H])([H])[H])C([H])([H])[H])C(C([H])([H])[H])(C([H])([H])[H])C([H])([H])[H])C([H])([H])c2c([H])c(OC([H])([H])C([H])(C([H])([H])[H])[N+]3([H])C([H])([H])C([H])([H])C([H])(N4c5c([H])c(C([H])([H])[H])c(C6([H])C([H])([H])C6([H])[H])c([H])c5C([H])(N([H])C(=O)N5C([H])([H])C([H])([H])C([H])([H])C([H])(n6nc(-c7c([H])c([H])c(Oc8c([H])c([H])c(F)c([H])c8F)c([H])c7[H])c(C(=O)N([H])[H])c6N([H])[H])C5([H])[H])C4([H])[H])C([H])(C([H])([H])[H])C3([H])[H])c([H])c([H])c2C1([H])[H]

>  <smiles>  (45) 
[H]c1c([H])c([H])c2c(c1[H])C([H])([H])C([H])([H])C([H])([H])C2([H])N([H])C(=O)C1([H])N(C(=O)C([H])(N([H])C(=O)C([H])(N([H])C([H])([H])[H])C([H])([H])[H])C(C([H])([H])[H])(C([H])([H])[H])C([H])([H])[H])C([H])([H])c2c([H])c(OC([H])([H])C([H])(C([H])([H])[H])[N+]3([H])C([H])([H])C([H])([H])C([H])(N4c5c([H])c(C([H])([H])[H])c(C6([H])C([H])([H])C6([H])[H])c([H])c5C([H])(N([H])C(=O)N5C([H])([H])C([H])([H])C([H])([H])C([H])(n6nc(-c7c([H])c([H])c(Oc8c([H])c([H])c(F)c([H])c8F)c([H])c7[H])c(C(=O)N([H])[H])c6N([H])[H])C5([H])[H])C4([H])[H])C([H])(C([H])([H])[H])C3([H])[H])c([H])c([H])c2C1([H])[H]

$$$$
45:0:0
     RDKit          3D

102112  0  0  1  0  0  0  0  0999 V2000
  -30.7360  -20.4510   17.5200 C   0  0  0  0  0  3  0  0  0  0  0  0
  -29.9570  -21.5440   17.9220 C   0  0  0  0  0  3  0  0  0  0  0  0
  -30.8270  -19.3310   18.3680 C   0  0  0  0  0  0  0  0  0  0  0  0
  -29.3250  -21.4890   19.1730 C   0  0  0  0  0  0  0  0  0  0  0  0
  -30.2740  -19.4240   19.6690 C   0  0  0  0  0  0  0  0  0  0  0  0
  -29.5560  -20.4960   20.0640 N   0  0  0  0  0  0  0  0  0  0  0  0
  -30.9410  -14.6400   20.3650 C   0  0  0  0  0  0  0  0  0  0  0  0
  -30.5670  -12.5160   19.1520 C   0  0  0  0  0  2  0  0  0  0  0  0
  -29.6210  -12.7500   17.9570 C   0  0  0  0  0  2  0  0  0  0  0  0
  -28.1510  -12.6040   18.3900 C   0  0  0  0  0  2  0  0  0  0  0  0
  -27.8290  -13.4060   19.6740 C   0  0  0  0  0  3  0  0  0  0  0  0
  -28.8950  -13.1690   20.7710 C   0  0  0  0  0  2  0  0  0  0  0  0
  -30.2120  -13.4960   20.1990 N   0  0  0  0  0  0  0  0  0  0  0  0
  -32.0450  -14.7760   19.8260 O   0  0  0  0  0  0  0  0  0  0  0  0
  -31.6280  -17.8520   21.0850 C   0  0  0  0  0  2  0  0  0  0  0  0
  -29.1390  -17.8020   21.1600 C   0  0  0  0  0  2  0  0  0  0  0  0
  -31.4390  -16.5120   21.8490 C   0  0  0  0  0  2  0  0  0  0  0  0
  -29.1480  -16.2720   20.9590 C   0  0  0  0  0  2  0  0  0  0  0  0
  -30.3530  -18.3660   20.5930 N   0  0  0  0  0  0  0  0  0  0  0  0
  -30.4630  -15.6160   21.1870 N   0  0  0  0  0  0  0  0  0  0  0  0
  -25.4400  -14.0380   20.3840 C   0  0  0  0  0  0  0  0  0  0  0  0
  -24.3700  -13.2720   20.7620 C   0  0  0  0  0  0  0  0  0  0  0  0
  -24.8250  -11.9190   20.7360 C   0  0  0  0  0  0  0  0  0  0  0  0
  -26.4790  -13.1470   20.1580 N   0  0  0  0  0  0  0  0  0  0  0  0
  -26.1130  -11.8700   20.4250 N   0  0  0  0  0  0  0  0  0  0  0  0
  -24.0950  -10.6610   20.9350 C   0  0  0  0  0  0  0  0  0  0  0  0
  -24.5120   -9.7120   21.8940 C   0  0  0  0  0  3  0  0  0  0  0  0
  -23.7860   -8.5150   22.0770 C   0  0  0  0  0  3  0  0  0  0  0  0
  -22.6290   -8.2610   21.3030 C   0  0  0  0  0  0  0  0  0  0  0  0
  -22.2330   -9.2000   20.3340 C   0  0  0  0  0  3  0  0  0  0  0  0
  -22.9590  -10.3870   20.1480 C   0  0  0  0  0  3  0  0  0  0  0  0
  -21.8750   -7.1160   21.3970 O   0  0  0  0  0  0  0  0  0  0  0  0
  -21.7900   -6.4040   22.5670 C   0  0  0  0  0  0  0  0  0  0  0  0
  -21.2820   -6.9810   23.7520 C   0  0  0  0  0  3  0  0  0  0  0  0
  -21.1480   -6.1960   24.9140 C   0  0  0  0  0  3  0  0  0  0  0  0
  -21.5070   -4.8350   24.8890 C   0  0  0  0  0  0  0  0  0  0  0  0
  -22.0090   -4.2590   23.7090 C   0  0  0  0  0  3  0  0  0  0  0  0
  -22.1470   -5.0410   22.5490 C   0  0  0  0  0  0  0  0  0  0  0  0
  -22.6110   -4.4780   21.4080 F   0  0  0  0  0  0  0  0  0  0  0  0
  -21.3690   -4.0770   26.0020 F   0  0  0  0  0  0  0  0  0  0  0  0
  -22.9760  -13.7580   21.0330 C   0  0  0  0  0  0  0  0  0  0  0  0
  -22.2480  -13.0670   21.9050 N   0  0  0  0  0  0  0  0  0  0  0  0
  -22.5390  -14.7800   20.5090 O   0  0  0  0  0  0  0  0  0  0  0  0
  -22.6150  -12.2380   22.3480 H   0  0  0  0  0  0  0  0  0  0  0  0
  -21.3130  -13.3750   22.1330 H   0  0  0  0  0  0  0  0  0  0  0  0
  -25.6060  -15.4050   20.1860 N   0  0  0  0  0  0  0  0  0  0  0  0
  -24.8260  -16.0500   20.2500 H   0  0  0  0  0  0  0  0  0  0  0  0
  -26.4300  -15.8190   19.7760 H   0  0  0  0  0  0  0  0  0  0  0  0
  -31.0830  -17.6300   16.3750 C   0  0  0  0  0  2  0  0  0  0  0  0
  -30.4110  -16.9280   17.5210 C   0  0  0  0  0  2  0  0  0  0  0  0
  -31.3760  -18.0550   17.8020 C   0  0  0  0  0  3  0  0  0  0  0  0
  -27.0380  -21.9590   20.1610 C   0  0  0  0  0  1  0  0  0  0  0  0
  -28.3270  -22.5670   19.5770 C   0  0  0  0  0  3  0  0  0  0  0  0
  -28.9540  -23.5560   20.4720 N   0  0  0  0  0  4  0  0  0  0  0  0
  -28.2320  -24.1310   20.8680 H   0  0  0  0  0  0  0  0  0  0  0  0
  -29.4180  -23.0660   21.2210 H   0  0  0  0  0  0  0  0  0  0  0  0
  -29.9460  -24.4420   19.8200 C   0  0  0  0  0  2  0  0  0  0  0  0
  -30.3980  -25.5970   20.7400 C   0  0  0  0  0  3  0  0  0  0  0  0
  -30.9110  -25.0090   21.9260 O   0  0  0  0  0  0  0  0  0  0  0  0
  -31.3810  -25.6850   22.4090 H   0  0  0  0  0  0  0  0  0  0  0  0
  -29.2980  -26.6430   21.0760 C   0  0  0  0  0  2  0  0  0  0  0  0
  -28.4850  -26.8310   19.9270 O   0  0  0  0  0  0  0  0  0  0  0  0
  -24.5740  -31.8760   23.2040 C   0  0  0  0  0  0  0  0  0  0  0  0
  -27.3260  -27.5540   20.0630 C   0  0  0  0  0  0  0  0  0  0  0  0
  -23.4000  -30.4760   21.5330 C   0  0  0  0  0  3  0  0  0  0  0  0
  -24.8940  -28.9840   20.1010 C   0  0  0  0  0  0  0  0  0  0  0  0
  -25.9160  -30.8890   21.3540 C   0  0  0  0  0  2  0  0  0  0  0  0
  -26.0350  -29.5260   20.7060 C   0  0  0  0  0  0  0  0  0  0  0  0
  -27.2560  -28.8140   20.7000 C   0  0  0  0  0  3  0  0  0  0  0  0
  -26.1690  -27.0210   19.4590 C   0  0  0  0  0  3  0  0  0  0  0  0
  -24.9510  -27.7240   19.4850 C   0  0  0  0  0  3  0  0  0  0  0  0
  -23.6310  -29.8160   20.1460 C   0  0  0  0  0  2  0  0  0  0  0  0
  -24.6470  -31.0950   22.0880 N   0  0  0  0  0  0  0  0  0  0  0  0
  -23.4870  -32.1200   23.7450 O   0  0  0  0  0  0  0  0  0  0  0  0
  -22.7620  -29.4320   22.4740 C   0  0  0  0  0  0  0  0  0  0  0  0
  -21.4450  -29.2150   22.3210 N   0  0  0  0  0  0  0  0  0  0  0  0
  -23.4480  -28.8180   23.2930 O   0  0  0  0  0  0  0  0  0  0  0  0
  -20.9560  -29.7630   21.6270 H   0  0  0  0  0  0  0  0  0  0  0  0
  -18.1010  -27.9190   22.7420 C   0  0  0  0  0  0  0  0  0  0  0  0
  -20.6420  -28.2490   23.0700 C   0  0  0  0  0  3  0  0  0  0  0  0
  -20.8000  -26.8250   22.4890 C   0  0  0  0  0  2  0  0  0  0  0  0
  -19.7290  -26.4760   21.4510 C   0  0  0  0  0  2  0  0  0  0  0  0
  -18.3310  -26.5780   22.0650 C   0  0  0  0  0  2  0  0  0  0  0  0
  -19.1870  -28.7100   23.2000 C   0  0  0  0  0  0  0  0  0  0  0  0
  -18.9210  -29.9620   23.7940 C   0  0  0  0  0  3  0  0  0  0  0  0
  -17.6000  -30.4280   23.9320 C   0  0  0  0  0  3  0  0  0  0  0  0
  -16.5270  -29.6360   23.4880 C   0  0  0  0  0  3  0  0  0  0  0  0
  -16.7790  -28.3800   22.9040 C   0  0  0  0  0  3  0  0  0  0  0  0
  -25.8480  -32.5160   23.8390 C   0  0  0  0  0  3  0  0  0  0  0  0
  -25.5300  -33.9130   24.1620 N   0  0  0  0  0  0  0  0  0  0  0  0
  -25.8690  -34.9650   23.4040 C   0  0  0  0  0  0  0  0  0  0  0  0
  -26.5590  -34.8620   22.3850 O   0  0  0  0  0  0  0  0  0  0  0  0
  -24.9230  -34.0660   24.9540 H   0  0  0  0  0  0  0  0  0  0  0  0
  -24.1500  -36.7520   22.9870 C   0  0  0  0  0  1  0  0  0  0  0  0
  -25.3600  -36.3500   23.8450 C   0  0  0  0  0  3  0  0  0  0  0  0
  -27.4560  -37.2400   24.7620 C   0  0  0  0  0  1  0  0  0  0  0  0
  -26.3930  -37.4070   23.7750 N   0  0  0  0  0  0  0  0  0  0  0  0
  -25.9770  -38.3230   23.9140 H   0  0  0  0  0  0  0  0  0  0  0  0
  -26.3600  -31.7500   25.1210 C   0  0  1  0  0  0  0  0  0  0  0  0
  -25.2570  -31.4980   26.1750 C   0  0  0  0  0  1  0  0  0  0  0  0
  -26.9620  -30.3800   24.7320 C   0  0  0  0  0  1  0  0  0  0  0  0
  -27.4890  -32.5580   25.8010 C   0  0  0  0  0  1  0  0  0  0  0  0
  1  2  2  0
  1  3  1  0
  2  4  1  0
  3  5  2  0
  4 53  1  0
  4  6  2  0
  5  6  1  0
  5 19  1  0
  7 20  1  0
  8 13  1  0
  9 10  1  0
  9  8  1  0
 11 10  1  0
 11 24  1  0
 11 12  1  0
 13  7  1  0
 13 12  1  0
 14  7  2  0
 15 17  1  0
 18 16  1  0
 18 20  1  0
 19 15  1  0
 19 16  1  0
 20 17  1  0
 21 22  2  0
 22 41  1  0
 23 22  1  0
 23 26  1  0
 24 21  1  0
 24 25  1  0
 25 23  2  0
 26 27  1  0
 27 28  2  0
 29 32  1  0
 29 28  1  0
 30 29  2  0
 31 30  1  0
 31 26  2  0
 32 33  1  0
 33 34  1  0
 34 35  2  0
 36 35  1  0
 36 40  1  0
 37 36  2  0
 38 33  2  0
 38 37  1  0
 39 38  1  0
 41 42  1  0
 42 45  1  0
 42 44  1  0
 43 41  2  0
 46 47  1  0
 46 21  1  0
 48 46  1  0
 49 50  1  0
 49 51  1  0
 50 51  1  0
 51  3  1  0
 53 52  1  0
 53 54  1  0
 54 55  1  0
 54 56  1  0
 57 54  1  0
 58 57  1  0
 58 61  1  0
 58 59  1  0
 59 60  1  0
 62 64  1  0
 62 61  1  0
 63 74  2  0
 64 69  1  0
 65 73  1  0
 65 75  1  0
 66 72  1  0
 66 68  1  0
 67 73  1  0
 68 67  1  0
 69 68  2  0
 70 71  1  0
 70 64  2  0
 71 66  2  0
 72 65  1  0
 73 63  1  0
 75 77  2  0
 76 75  1  0
 78 76  1  0
 79 88  2  0
 79 84  1  0
 80 76  1  0
 80 84  1  0
 81 80  1  0
 82 83  1  0
 82 81  1  0
 83 79  1  0
 84 85  2  0
 85 86  1  0
 87 86  2  0
 88 87  1  0
 89 63  1  0
 89 90  1  0
 89 99  1  0
 90 93  1  0
 91 95  1  0
 91 90  1  0
 92 91  2  0
 95 94  1  0
 97 95  1  0
 97 98  1  0
 97 96  1  0
 99102  1  1
 99100  1  0
101 99  1  0
M  ISO  4   7 100  20 100  61 101  62 101
M  END
>  <TORSDO>  (46) 
F 23

>  <SCORE>  (46) 
-12.331

>  <name>  (46) 
45

>  <ligand_id>  (46) 
45

>  <original_smiles>  (46) 
[H]OC([H])(C([H])([H])Oc1c([H])c([H])c2c(c1[H])C([H])([H])N(C(=O)C([H])(N([H])C(=O)C([H])(N([H])C([H])([H])[H])C([H])([H])[H])C(C([H])([H])[H])(C([H])([H])[H])C([H])([H])[H])C([H])(C(=O)N([H])C1([H])c3c([H])c([H])c([H])c([H])c3C([H])([H])C([H])([H])C1([H])[H])C2([H])[H])C([H])([H])[N+]([H])([H])C([H])(c1nc(N2C([H])([H])C([H])([H])N(C(=O)N3C([H])([H])C([H])([H])C([H])([H])C([H])(n4nc(-c5c([H])c([H])c(Oc6c([H])c([H])c(F)c([H])c6F)c([H])c5[H])c(C(=O)N([H])[H])c4N([H])[H])C3([H])[H])C([H])([H])C2([H])[H])c(C2([H])C([H])([H])C2([H])[H])c([H])c1[H])C([H])([H])[H]

>  <smiles>  (46) 
[H]OC([H])(C([H])([H])Oc1c([H])c([H])c2c(c1[H])C([H])([H])N(C(=O)C([H])(N([H])C(=O)C([H])(N([H])C([H])([H])[H])C([H])([H])[H])C(C([H])([H])[H])(C([H])([H])[H])C([H])([H])[H])C([H])(C(=O)N([H])C1([H])c3c([H])c([H])c([H])c([H])c3C([H])([H])C([H])([H])C1([H])[H])C2([H])[H])C([H])([H])[N+]([H])([H])C([H])(c1nc(N2C([H])([H])C([H])([H])N(C(=O)N3C([H])([H])C([H])([H])C([H])([H])C([H])(n4nc(-c5c([H])c([H])c(Oc6c([H])c([H])c(F)c([H])c6F)c([H])c5[H])c(C(=O)N([H])[H])c4N([H])[H])C3([H])[H])C([H])([H])C2([H])[H])c(C2([H])C([H])([H])C2([H])[H])c([H])c1[H])C([H])([H])[H]

$$$$
46:0:0
     RDKit          3D

106117  0  0  1  0  0  0  0  0999 V2000
  -28.8970  -20.8270   20.2920 C   0  0  0  0  0  3  0  0  0  0  0  0
  -27.8460  -19.2420   18.7510 C   0  0  0  0  0  3  0  0  0  0  0  0
  -27.9210  -21.5890   18.1860 C   0  0  0  0  0  0  0  0  0  0  0  0
  -28.5740  -21.8470   19.3820 C   0  0  0  0  0  0  0  0  0  0  0  0
  -27.5330  -20.2720   17.8290 C   0  0  0  0  0  0  0  0  0  0  0  0
  -28.5200  -19.5040   19.9740 C   0  0  0  0  0  0  0  0  0  0  0  0
  -27.6490  -22.8860   17.5080 C   0  0  0  0  0  0  0  0  0  0  0  0
  -28.7570  -23.3370   19.5580 C   0  0  0  0  0  3  0  0  0  0  0  0
  -28.0680  -23.8540   18.3490 N   0  0  0  0  0  0  0  0  0  0  0  0
  -27.0710  -23.0460   16.4300 O   0  0  0  0  0  0  0  0  0  0  0  0
  -25.3260  -19.4800   16.8800 C   0  0  0  0  0  1  0  0  0  0  0  0
  -27.5030  -18.8500   15.7260 C   0  0  0  0  0  1  0  0  0  0  0  0
  -26.7630  -19.9110   16.5560 C   0  0  0  0  0  3  0  0  0  0  0  0
  -28.7910  -18.4960   20.9080 N   0  0  0  0  0  0  0  0  0  0  0  0
  -29.4030  -18.7670   21.6740 H   0  0  0  0  0  0  0  0  0  0  0  0
  -28.9660  -17.1270   20.4420 C   0  0  0  0  0  2  0  0  0  0  0  0
  -30.0900  -14.5430   19.8120 C   0  0  0  0  0  0  0  0  0  0  0  0
  -29.4940  -12.7000   18.2840 C   0  0  0  0  0  2  0  0  0  0  0  0
  -28.2940  -13.0390   17.3860 C   0  0  0  0  0  2  0  0  0  0  0  0
  -26.9740  -12.6870   18.0940 C   0  0  0  0  0  2  0  0  0  0  0  0
  -26.8960  -13.2870   19.5220 C   0  0  0  0  0  3  0  0  0  0  0  0
  -28.1810  -12.9810   20.3240 C   0  0  0  0  0  2  0  0  0  0  0  0
  -29.3530  -13.4330   19.5500 N   0  0  0  0  0  0  0  0  0  0  0  0
  -30.8270  -15.0800   18.9770 O   0  0  0  0  0  0  0  0  0  0  0  0
  -31.3150  -15.6900   23.0440 C   0  0  0  0  0  2  0  0  0  0  0  0
  -30.5610  -16.8670   22.4530 C   0  0  0  0  0  2  0  0  0  0  0  0
  -31.2650  -14.6380   21.9350 C   0  0  0  0  0  2  0  0  0  0  0  0
  -29.4990  -16.2090   21.5640 C   0  0  0  0  0  3  0  0  0  0  0  0
  -30.0910  -14.9400   21.1020 N   0  0  0  0  0  0  0  0  0  0  0  0
  -24.6590  -13.5630   20.7680 C   0  0  0  0  0  0  0  0  0  0  0  0
  -23.7560  -12.6490   21.2410 C   0  0  0  0  0  0  0  0  0  0  0  0
  -24.3050  -11.3620   20.9460 C   0  0  0  0  0  0  0  0  0  0  0  0
  -25.6990  -12.8250   20.2220 N   0  0  0  0  0  0  0  0  0  0  0  0
  -25.4980  -11.4910   20.3800 N   0  0  0  0  0  0  0  0  0  0  0  0
  -23.7370  -10.0200   21.1210 C   0  0  0  0  0  0  0  0  0  0  0  0
  -24.2790   -9.1020   22.0480 C   0  0  0  0  0  3  0  0  0  0  0  0
  -23.7020   -7.8230   22.2080 C   0  0  0  0  0  3  0  0  0  0  0  0
  -22.5730   -7.4510   21.4400 C   0  0  0  0  0  0  0  0  0  0  0  0
  -22.0510   -8.3610   20.5030 C   0  0  0  0  0  3  0  0  0  0  0  0
  -22.6290   -9.6310   20.3400 C   0  0  0  0  0  3  0  0  0  0  0  0
  -21.9630   -6.2210   21.5110 O   0  0  0  0  0  0  0  0  0  0  0  0
  -21.8420   -5.5450   22.6980 C   0  0  0  0  0  0  0  0  0  0  0  0
  -21.1240   -6.0790   23.7900 C   0  0  0  0  0  3  0  0  0  0  0  0
  -20.9660   -5.3220   24.9680 C   0  0  0  0  0  3  0  0  0  0  0  0
  -21.5160   -4.0290   25.0530 C   0  0  0  0  0  0  0  0  0  0  0  0
  -22.2260   -3.4930   23.9650 C   0  0  0  0  0  3  0  0  0  0  0  0
  -22.3860   -4.2480   22.7900 C   0  0  0  0  0  0  0  0  0  0  0  0
  -23.0530   -3.7170   21.7350 F   0  0  0  0  0  0  0  0  0  0  0  0
  -21.3590   -3.2970   26.1800 F   0  0  0  0  0  0  0  0  0  0  0  0
  -22.4160  -12.9460   21.8510 C   0  0  0  0  0  0  0  0  0  0  0  0
  -21.9780  -12.1230   22.7960 N   0  0  0  0  0  0  0  0  0  0  0  0
  -21.7690  -13.9410   21.5250 O   0  0  0  0  0  0  0  0  0  0  0  0
  -22.5140  -11.3160   23.0800 H   0  0  0  0  0  0  0  0  0  0  0  0
  -21.0900  -12.3020   23.2440 H   0  0  0  0  0  0  0  0  0  0  0  0
  -24.6850  -14.9520   20.7450 N   0  0  0  0  0  0  0  0  0  0  0  0
  -23.9310  -15.5230   21.1100 H   0  0  0  0  0  0  0  0  0  0  0  0
  -25.4550  -15.5000   20.3860 H   0  0  0  0  0  0  0  0  0  0  0  0
  -30.2600  -23.7580   19.6400 C   0  0  0  0  0  2  0  0  0  0  0  0
  -32.0600  -25.4110   20.3730 C   0  0  0  0  0  1  0  0  0  0  0  0
  -30.5850  -25.0060   20.5200 C   0  0  0  0  0  3  0  0  0  0  0  0
  -29.6590  -26.1720   20.1620 C   0  0  0  0  0  2  0  0  0  0  0  0
  -29.6700  -27.3430   20.9870 O   0  0  0  0  0  0  0  0  0  0  0  0
  -25.5730  -32.0670   24.4590 C   0  0  0  0  0  0  0  0  0  0  0  0
  -28.4780  -28.0580   21.0160 C   0  0  0  0  0  0  0  0  0  0  0  0
  -24.5000  -30.8680   22.5900 C   0  0  0  0  0  3  0  0  0  0  0  0
  -26.0610  -29.5430   21.0870 C   0  0  0  0  0  0  0  0  0  0  0  0
  -27.0300  -31.2610   22.6080 C   0  0  0  0  0  2  0  0  0  0  0  0
  -27.1750  -29.9810   21.8140 C   0  0  0  0  0  0  0  0  0  0  0  0
  -28.3820  -29.2400   21.7890 C   0  0  0  0  0  3  0  0  0  0  0  0
  -27.3290  -27.6550   20.2850 C   0  0  0  0  0  3  0  0  0  0  0  0
  -26.1310  -28.3740   20.3280 C   0  0  0  0  0  3  0  0  0  0  0  0
  -24.8060  -30.3770   21.1550 C   0  0  0  0  0  2  0  0  0  0  0  0
  -25.7160  -31.4050   23.2790 N   0  0  0  0  0  0  0  0  0  0  0  0
  -24.4540  -32.2640   24.9530 O   0  0  0  0  0  0  0  0  0  0  0  0
  -23.8090  -29.7210   23.3680 C   0  0  0  0  0  0  0  0  0  0  0  0
  -22.5740  -29.3820   22.9600 N   0  0  0  0  0  0  0  0  0  0  0  0
  -24.3870  -29.1460   24.2930 O   0  0  0  0  0  0  0  0  0  0  0  0
  -22.1660  -29.9040   22.1980 H   0  0  0  0  0  0  0  0  0  0  0  0
  -19.3680  -27.7380   22.6930 C   0  0  0  0  0  0  0  0  0  0  0  0
  -21.7460  -28.3180   23.5250 C   0  0  0  0  0  3  0  0  0  0  0  0
  -22.1650  -26.9340   22.9750 C   0  0  0  0  0  2  0  0  0  0  0  0
  -21.3640  -26.5080   21.7410 C   0  0  0  0  0  2  0  0  0  0  0  0
  -19.8690  -26.4490   22.0640 C   0  0  0  0  0  2  0  0  0  0  0  0
  -20.2520  -28.6230   23.3650 C   0  0  0  0  0  0  0  0  0  0  0  0
  -19.7420  -29.8260   23.9010 C   0  0  0  0  0  3  0  0  0  0  0  0
  -18.3770  -30.1480   23.7730 C   0  0  0  0  0  3  0  0  0  0  0  0
  -17.5040  -29.2610   23.1200 C   0  0  0  0  0  3  0  0  0  0  0  0
  -17.9990  -28.0580   22.5870 C   0  0  0  0  0  3  0  0  0  0  0  0
  -26.8040  -32.6320   25.2330 C   0  0  0  0  0  3  0  0  0  0  0  0
  -26.4920  -34.0170   25.6080 N   0  0  0  0  0  0  0  0  0  0  0  0
  -26.8890  -35.0960   24.9210 C   0  0  0  0  0  0  0  0  0  0  0  0
  -27.6280  -35.0300   23.9340 O   0  0  0  0  0  0  0  0  0  0  0  0
  -25.8420  -34.1450   26.3690 H   0  0  0  0  0  0  0  0  0  0  0  0
  -25.2100  -36.9260   24.5300 C   0  0  0  0  0  1  0  0  0  0  0  0
  -26.3880  -36.4690   25.4070 C   0  0  0  0  0  3  0  0  0  0  0  0
  -28.4760  -37.2720   26.4170 C   0  0  0  0  0  1  0  0  0  0  0  0
  -27.4380  -37.5090   25.4170 N   0  0  0  0  0  0  0  0  0  0  0  0
  -27.0350  -38.4260   25.5900 H   0  0  0  0  0  0  0  0  0  0  0  0
  -27.1840  -31.7780   26.5040 C   0  0  1  0  0  0  0  0  0  0  0  0
  -25.9660  -31.3790   27.3700 C   0  0  0  0  0  1  0  0  0  0  0  0
  -27.9100  -30.4770   26.0920 C   0  0  0  0  0  1  0  0  0  0  0  0
  -28.1720  -32.5710   27.3940 C   0  0  0  0  0  1  0  0  0  0  0  0
  -27.6070  -25.2370   18.2360 C   0  0  0  0  0  2  0  0  0  0  0  0
  -25.3990  -26.6720   18.1090 C   0  0  0  0  0  2  0  0  0  0  0  0
  -25.0470  -25.3060   17.5740 C   0  0  0  0  0  2  0  0  0  0  0  0
  -26.1460  -25.4540   18.6030 C   0  0  0  0  0  3  0  0  0  0  0  0
  2  6  2  0
  3  4  1  0
  4  8  1  0
  4  1  2  0
  5  3  2  0
  5  2  1  0
  6  1  1  0
  6 14  1  0
  7  3  1  0
  7  9  1  0
  8 58  1  0
  9  8  1  0
 10  7  2  0
 12 13  1  0
 13 11  1  0
 13  5  1  0
 14 15  1  0
 16 14  1  0
 17 29  1  0
 18 23  1  0
 19 20  1  0
 19 18  1  0
 21 20  1  0
 21 33  1  0
 21 22  1  0
 23 17  1  0
 23 22  1  0
 24 17  2  0
 26 25  1  0
 27 25  1  0
 28 16  1  0
 28 26  1  0
 29 28  1  0
 29 27  1  0
 30 31  2  0
 31 50  1  0
 32 35  1  0
 32 31  1  0
 33 34  1  0
 33 30  1  0
 34 32  2  0
 35 36  1  0
 36 37  2  0
 38 41  1  0
 38 37  1  0
 39 38  2  0
 40 39  1  0
 40 35  2  0
 41 42  1  0
 42 47  2  0
 42 43  1  0
 43 44  2  0
 44 45  1  0
 45 49  1  0
 46 45  2  0
 47 46  1  0
 48 47  1  0
 50 51  1  0
 51 53  1  0
 51 54  1  0
 52 50  2  0
 55 30  1  0
 55 56  1  0
 57 55  1  0
 58 60  1  0
 60 59  1  0
 61 60  1  0
 61 62  1  0
 62 64  1  0
 63 74  2  0
 64 69  1  0
 65 73  1  0
 65 75  1  0
 66 72  1  0
 66 68  1  0
 67 73  1  0
 68 67  1  0
 69 68  2  0
 70 71  1  0
 70 64  2  0
 71 66  2  0
 72 65  1  0
 73 63  1  0
 75 77  2  0
 76 75  1  0
 78 76  1  0
 79 84  1  0
 80 76  1  0
 81 80  1  0
 82 83  1  0
 82 81  1  0
 83 79  1  0
 84 80  1  0
 84 85  2  0
 86 85  1  0
 87 86  2  0
 88 79  2  0
 88 87  1  0
 89 63  1  0
 89 90  1  0
 89 99  1  0
 90 93  1  0
 91 95  1  0
 91 90  1  0
 92 91  2  0
 95 94  1  0
 95 97  1  0
 97 98  1  0
 97 96  1  0
 99100  1  1
 99102  1  0
101 99  1  0
103  9  1  0
103106  1  0
104106  1  0
105104  1  0
105106  1  0
M  ISO  4  17 100  29 100  61 101  62 101
M  END
>  <TORSDO>  (47) 
F 24

>  <SCORE>  (47) 
-5.487

>  <name>  (47) 
46

>  <ligand_id>  (47) 
46

>  <original_smiles>  (47) 
[H]c1c([H])c([H])c2c(c1[H])C([H])([H])C([H])([H])C([H])([H])C2([H])N([H])C(=O)C1([H])N(C(=O)C([H])(N([H])C(=O)C([H])(N([H])C([H])([H])[H])C([H])([H])[H])C(C([H])([H])[H])(C([H])([H])[H])C([H])([H])[H])C([H])([H])c2c([H])c(OC([H])([H])C([H])(C([H])([H])[H])C([H])([H])C3([H])c4c([H])c(N([H])C([H])([H])C5([H])N(C(=O)N6C([H])([H])C([H])([H])C([H])([H])C([H])(n7nc(-c8c([H])c([H])c(Oc9c([H])c([H])c(F)c([H])c9F)c([H])c8[H])c(C(=O)N([H])[H])c7N([H])[H])C6([H])[H])C([H])([H])C([H])([H])C5([H])[H])c([H])c(C([H])(C([H])([H])[H])C([H])([H])[H])c4C(=O)N3C([H])([H])C3([H])C([H])([H])C3([H])[H])c([H])c([H])c2C1([H])[H]

>  <smiles>  (47) 
[H]c1c([H])c([H])c2c(c1[H])C([H])([H])C([H])([H])C([H])([H])C2([H])N([H])C(=O)C1([H])N(C(=O)C([H])(N([H])C(=O)C([H])(N([H])C([H])([H])[H])C([H])([H])[H])C(C([H])([H])[H])(C([H])([H])[H])C([H])([H])[H])C([H])([H])c2c([H])c(OC([H])([H])C([H])(C([H])([H])[H])C([H])([H])C3([H])c4c([H])c(N([H])C([H])([H])C5([H])N(C(=O)N6C([H])([H])C([H])([H])C([H])([H])C([H])(n7nc(-c8c([H])c([H])c(Oc9c([H])c([H])c(F)c([H])c9F)c([H])c8[H])c(C(=O)N([H])[H])c7N([H])[H])C6([H])[H])C([H])([H])C([H])([H])C5([H])[H])c([H])c(C([H])(C([H])([H])[H])C([H])([H])[H])c4C(=O)N3C([H])([H])C3([H])C([H])([H])C3([H])[H])c([H])c([H])c2C1([H])[H]

$$$$
47:0:0
     RDKit          3D

 94103  0  0  1  0  0  0  0  0999 V2000
  -31.4190  -23.0470   19.7100 C   0  0  0  0  0  3  0  0  0  0  0  0
  -28.8600  -22.6270   20.6900 C   0  0  0  0  0  3  0  0  0  0  0  0
  -31.0960  -21.7790   20.2500 C   0  0  0  0  0  0  0  0  0  0  0  0
  -30.4910  -24.1100   19.6690 C   0  0  0  0  0  0  0  0  0  0  0  0
  -29.7850  -21.5310   20.7400 C   0  0  0  0  0  0  0  0  0  0  0  0
  -29.1870  -23.9310   20.1830 C   0  0  0  0  0  0  0  0  0  0  0  0
  -32.2020  -20.7370   20.3020 C   0  0  0  0  0  1  0  0  0  0  0  0
  -30.9150  -25.4270   19.0450 C   0  0  0  0  0  1  0  0  0  0  0  0
  -29.3690  -20.1900   21.4490 C   0  0  0  0  0  2  0  0  0  0  0  0
  -30.7460  -14.6530   20.0630 C   0  0  0  0  0  0  0  0  0  0  0  0
  -30.3650  -12.4690   18.9390 C   0  0  0  0  0  2  0  0  0  0  0  0
  -29.3570  -12.6040   17.7790 C   0  0  0  0  0  2  0  0  0  0  0  0
  -27.9220  -12.4090   18.2970 C   0  0  0  0  0  2  0  0  0  0  0  0
  -27.6280  -13.2600   19.5560 C   0  0  0  0  0  3  0  0  0  0  0  0
  -28.7550  -13.1530   20.6130 C   0  0  0  0  0  2  0  0  0  0  0  0
  -30.0230  -13.4900   19.9550 N   0  0  0  0  0  0  0  0  0  0  0  0
  -31.8860  -14.7080   19.5960 O   0  0  0  0  0  0  0  0  0  0  0  0
  -29.0300  -16.4770   20.0320 C   0  0  0  0  0  2  0  0  0  0  0  0
  -31.1330  -16.7070   21.3410 C   0  0  0  0  0  2  0  0  0  0  0  0
  -28.7020  -17.9860   20.3760 C   0  0  0  0  0  2  0  0  0  0  0  0
  -30.5280  -18.0140   21.9230 C   0  0  0  0  0  2  0  0  0  0  0  0
  -30.2010  -15.7870   20.6450 N   0  0  0  0  0  0  0  0  0  0  0  0
  -29.8080  -18.8300   20.9100 N   0  0  2  0  0  4  0  0  0  0  0  0
  -30.4500  -19.0180   20.1550 H   0  0  0  0  0  0  0  0  0  0  0  0
  -25.2920  -13.8400   20.4520 C   0  0  0  0  0  0  0  0  0  0  0  0
  -24.2540  -13.0550   20.8750 C   0  0  0  0  0  0  0  0  0  0  0  0
  -24.7200  -11.7080   20.7850 C   0  0  0  0  0  0  0  0  0  0  0  0
  -26.3190  -12.9680   20.1280 N   0  0  0  0  0  0  0  0  0  0  0  0
  -25.9870  -11.6800   20.3950 N   0  0  0  0  0  0  0  0  0  0  0  0
  -24.0110  -10.4380   20.9890 C   0  0  0  0  0  0  0  0  0  0  0  0
  -24.4650   -9.4810   21.9210 C   0  0  0  0  0  3  0  0  0  0  0  0
  -23.7560   -8.2760   22.1130 C   0  0  0  0  0  3  0  0  0  0  0  0
  -22.5780   -8.0210   21.3710 C   0  0  0  0  0  0  0  0  0  0  0  0
  -22.1430   -8.9660   20.4260 C   0  0  0  0  0  3  0  0  0  0  0  0
  -22.8530  -10.1630   20.2330 C   0  0  0  0  0  3  0  0  0  0  0  0
  -21.8410   -6.8660   21.4720 O   0  0  0  0  0  0  0  0  0  0  0  0
  -21.7760   -6.1530   22.6430 C   0  0  0  0  0  0  0  0  0  0  0  0
  -21.2860   -6.7280   23.8360 C   0  0  0  0  0  3  0  0  0  0  0  0
  -21.1680   -5.9400   24.9990 C   0  0  0  0  0  3  0  0  0  0  0  0
  -21.5320   -4.5810   24.9680 C   0  0  0  0  0  0  0  0  0  0  0  0
  -22.0150   -4.0060   23.7800 C   0  0  0  0  0  3  0  0  0  0  0  0
  -22.1330   -4.7900   22.6190 C   0  0  0  0  0  0  0  0  0  0  0  0
  -22.5790   -4.2270   21.4700 F   0  0  0  0  0  0  0  0  0  0  0  0
  -21.4120   -3.8210   26.0820 F   0  0  0  0  0  0  0  0  0  0  0  0
  -22.8760  -13.5210   21.2430 C   0  0  0  0  0  0  0  0  0  0  0  0
  -22.2000  -12.8020   22.1310 N   0  0  0  0  0  0  0  0  0  0  0  0
  -22.4060  -14.5570   20.7740 O   0  0  0  0  0  0  0  0  0  0  0  0
  -22.5930  -11.9620   22.5320 H   0  0  0  0  0  0  0  0  0  0  0  0
  -21.2790  -13.1010   22.4200 H   0  0  0  0  0  0  0  0  0  0  0  0
  -25.4320  -15.2150   20.2890 N   0  0  0  0  0  0  0  0  0  0  0  0
  -24.6510  -15.8450   20.4430 H   0  0  0  0  0  0  0  0  0  0  0  0
  -26.2130  -15.6590   19.8270 H   0  0  0  0  0  0  0  0  0  0  0  0
  -28.0820  -25.0280   20.0450 C   0  0  0  0  0  2  0  0  0  0  0  0
  -28.3590  -26.4670   20.2470 O   0  0  0  0  0  0  0  0  0  0  0  0
  -24.5920  -31.8560   23.2190 C   0  0  0  0  0  0  0  0  0  0  0  0
  -27.2440  -27.3210   20.1780 C   0  0  0  0  0  0  0  0  0  0  0  0
  -23.4070  -30.4560   21.5670 C   0  0  0  0  0  3  0  0  0  0  0  0
  -24.8740  -28.9220   20.1520 C   0  0  0  0  0  0  0  0  0  0  0  0
  -25.9480  -30.7870   21.4070 C   0  0  0  0  0  2  0  0  0  0  0  0
  -26.0380  -29.4120   20.7590 C   0  0  0  0  0  0  0  0  0  0  0  0
  -27.2260  -28.6230   20.7630 C   0  0  0  0  0  3  0  0  0  0  0  0
  -26.0510  -26.8910   19.5430 C   0  0  0  0  0  3  0  0  0  0  0  0
  -24.8820  -27.6660   19.5370 C   0  0  0  0  0  3  0  0  0  0  0  0
  -23.6360  -29.7890   20.1870 C   0  0  0  0  0  2  0  0  0  0  0  0
  -24.6680  -31.0490   22.1220 N   0  0  0  0  0  0  0  0  0  0  0  0
  -23.5040  -32.1300   23.7440 O   0  0  0  0  0  0  0  0  0  0  0  0
  -22.7410  -29.4330   22.5180 C   0  0  0  0  0  0  0  0  0  0  0  0
  -21.4140  -29.2620   22.3880 N   0  0  0  0  0  0  0  0  0  0  0  0
  -23.4170  -28.7970   23.3320 O   0  0  0  0  0  0  0  0  0  0  0  0
  -20.9300  -29.8270   21.7050 H   0  0  0  0  0  0  0  0  0  0  0  0
  -18.0290  -28.0940   22.8880 C   0  0  0  0  0  0  0  0  0  0  0  0
  -20.5900  -28.3250   23.1520 C   0  0  0  0  0  3  0  0  0  0  0  0
  -20.6750  -26.8970   22.5650 C   0  0  0  0  0  2  0  0  0  0  0  0
  -19.5680  -26.5940   21.5510 C   0  0  0  0  0  2  0  0  0  0  0  0
  -18.1890  -26.7490   22.1990 C   0  0  0  0  0  2  0  0  0  0  0  0
  -19.1550  -28.8400   23.3220 C   0  0  0  0  0  0  0  0  0  0  0  0
  -18.9520  -30.0980   23.9280 C   0  0  0  0  0  3  0  0  0  0  0  0
  -17.6520  -30.6110   24.1030 C   0  0  0  0  0  3  0  0  0  0  0  0
  -16.5390  -29.8620   23.6850 C   0  0  0  0  0  3  0  0  0  0  0  0
  -16.7280  -28.6040   23.0840 C   0  0  0  0  0  3  0  0  0  0  0  0
  -25.8690  -32.4910   23.8520 C   0  0  0  0  0  3  0  0  0  0  0  0
  -25.5550  -33.8890   24.1750 N   0  0  0  0  0  0  0  0  0  0  0  0
  -25.8920  -34.9410   23.4150 C   0  0  0  0  0  0  0  0  0  0  0  0
  -26.5720  -34.8330   22.3910 O   0  0  0  0  0  0  0  0  0  0  0  0
  -24.9560  -34.0460   24.9720 H   0  0  0  0  0  0  0  0  0  0  0  0
  -24.1740  -36.7350   23.0270 C   0  0  0  0  0  1  0  0  0  0  0  0
  -25.3990  -36.3290   23.8630 C   0  0  0  0  0  3  0  0  0  0  0  0
  -27.5170  -37.2120   24.7360 C   0  0  0  0  0  1  0  0  0  0  0  0
  -26.4350  -37.3800   23.7700 N   0  0  0  0  0  0  0  0  0  0  0  0
  -26.0270  -38.3000   23.9100 H   0  0  0  0  0  0  0  0  0  0  0  0
  -26.3720  -31.7240   25.1370 C   0  0  1  0  0  0  0  0  0  0  0  0
  -25.2660  -31.4910   26.1920 C   0  0  0  0  0  1  0  0  0  0  0  0
  -26.9600  -30.3450   24.7550 C   0  0  0  0  0  1  0  0  0  0  0  0
  -27.5150  -32.5210   25.8060 C   0  0  0  0  0  1  0  0  0  0  0  0
  1  3  1  0
  2  5  1  0
  3  7  1  0
  3  5  2  0
  4  1  2  0
  4  6  1  0
  5  9  1  0
  6  2  2  0
  8  4  1  0
 10 22  1  0
 11 16  1  0
 12 13  1  0
 12 11  1  0
 14 13  1  0
 14 28  1  0
 14 15  1  0
 16 10  1  0
 16 15  1  0
 17 10  2  0
 18 20  1  0
 18 22  1  0
 19 21  1  0
 20 23  1  0
 22 19  1  0
 23  9  1  0
 23 21  1  0
 23 24  1  6
 25 26  2  0
 26 45  1  0
 27 26  1  0
 27 30  1  0
 28 29  1  0
 28 25  1  0
 29 27  2  0
 30 31  1  0
 31 32  2  0
 33 36  1  0
 33 32  1  0
 34 33  2  0
 35 34  1  0
 35 30  2  0
 36 37  1  0
 37 38  1  0
 38 39  2  0
 40 39  1  0
 40 44  1  0
 41 40  2  0
 42 37  2  0
 42 41  1  0
 43 42  1  0
 45 46  1  0
 46 49  1  0
 46 48  1  0
 47 45  2  0
 50 51  1  0
 50 25  1  0
 52 50  1  0
 53  6  1  0
 53 54  1  0
 55 66  2  0
 56 54  1  0
 56 61  1  0
 57 65  1  0
 57 67  1  0
 58 64  1  0
 58 60  1  0
 59 65  1  0
 60 61  2  0
 60 59  1  0
 62 56  2  0
 63 62  1  0
 63 58  2  0
 64 57  1  0
 65 55  1  0
 67 69  2  0
 68 67  1  0
 70 68  1  0
 71 80  2  0
 71 76  1  0
 72 68  1  0
 72 76  1  0
 73 72  1  0
 74 75  1  0
 74 73  1  0
 75 71  1  0
 76 77  2  0
 77 78  1  0
 79 78  2  0
 80 79  1  0
 81 55  1  0
 81 82  1  0
 81 91  1  0
 82 85  1  0
 83 87  1  0
 83 82  1  0
 84 83  2  0
 87 86  1  0
 89 87  1  0
 89 90  1  0
 89 88  1  0
 91 94  1  1
 91 92  1  0
 93 91  1  0
M  ISO  4  10 100  22 100  53 101  54 101
M  END
>  <TORSDO>  (48) 
F 18

>  <SCORE>  (48) 
-14.646

>  <name>  (48) 
47

>  <ligand_id>  (48) 
47

>  <original_smiles>  (48) 
[H]c1c([H])c([H])c2c(c1[H])C([H])([H])C([H])([H])C([H])([H])C2([H])N([H])C(=O)C1([H])N(C(=O)C([H])(N([H])C(=O)C([H])(N([H])C([H])([H])[H])C([H])([H])[H])C(C([H])([H])[H])(C([H])([H])[H])C([H])([H])[H])C([H])([H])c2c([H])c(OC([H])([H])c3c([H])c(C([H])([H])[N+]4([H])C([H])([H])C([H])([H])N(C(=O)N5C([H])([H])C([H])([H])C([H])([H])C([H])(n6nc(-c7c([H])c([H])c(Oc8c([H])c([H])c(F)c([H])c8F)c([H])c7[H])c(C(=O)N([H])[H])c6N([H])[H])C5([H])[H])C([H])([H])C4([H])[H])c(C([H])([H])[H])c([H])c3C([H])([H])[H])c([H])c([H])c2C1([H])[H]

>  <smiles>  (48) 
[H]c1c([H])c([H])c2c(c1[H])C([H])([H])C([H])([H])C([H])([H])C2([H])N([H])C(=O)C1([H])N(C(=O)C([H])(N([H])C(=O)C([H])(N([H])C([H])([H])[H])C([H])([H])[H])C(C([H])([H])[H])(C([H])([H])[H])C([H])([H])[H])C([H])([H])c2c([H])c(OC([H])([H])c3c([H])c(C([H])([H])[N+]4([H])C([H])([H])C([H])([H])N(C(=O)N5C([H])([H])C([H])([H])C([H])([H])C([H])(n6nc(-c7c([H])c([H])c(Oc8c([H])c([H])c(F)c([H])c8F)c([H])c7[H])c(C(=O)N([H])[H])c6N([H])[H])C5([H])[H])C([H])([H])C4([H])[H])c(C([H])([H])[H])c([H])c3C([H])([H])[H])c([H])c([H])c2C1([H])[H]

$$$$
48:0:0
     RDKit          3D

101111  0  0  1  0  0  0  0  0999 V2000
  -33.8500  -20.7470   18.4950 C   0  0  0  0  0  3  0  0  0  0  0  0
  -31.8420  -20.5080   19.8970 C   0  0  0  0  0  0  0  0  0  0  0  0
  -32.8660  -21.3240   19.3120 C   0  0  0  0  0  0  0  0  0  0  0  0
  -33.8620  -19.3760   18.2210 C   0  0  0  0  0  0  0  0  0  0  0  0
  -32.8820  -18.5410   18.8060 C   0  0  0  0  0  0  0  0  0  0  0  0
  -31.8930  -19.0860   19.6770 C   0  0  0  0  0  0  0  0  0  0  0  0
  -33.0320  -22.8280   19.5220 C   0  0  0  0  0  1  0  0  0  0  0  0
  -34.9540  -18.8410   17.3050 C   0  0  0  0  0  1  0  0  0  0  0  0
  -32.9010  -17.0470   18.5050 C   0  0  0  0  0  1  0  0  0  0  0  0
  -30.6820  -14.5180   20.5010 C   0  0  0  0  0  0  0  0  0  0  0  0
  -30.3210  -12.3580   19.3600 C   0  0  0  0  0  2  0  0  0  0  0  0
  -29.4020  -12.5470   18.1380 C   0  0  0  0  0  2  0  0  0  0  0  0
  -27.9250  -12.4100   18.5540 C   0  0  0  0  0  2  0  0  0  0  0  0
  -27.5670  -13.2690   19.7950 C   0  0  0  0  0  3  0  0  0  0  0  0
  -28.6130  -13.1100   20.9220 C   0  0  0  0  0  2  0  0  0  0  0  0
  -29.9450  -13.3780   20.3540 N   0  0  0  0  0  0  0  0  0  0  0  0
  -31.8520  -14.5900   20.1290 O   0  0  0  0  0  0  0  0  0  0  0  0
  -29.6830  -17.9030   19.8590 C   0  0  0  0  0  2  0  0  0  0  0  0
  -31.4760  -17.6270   21.6170 C   0  0  0  0  0  2  0  0  0  0  0  0
  -29.2240  -16.4300   20.0640 C   0  0  0  0  0  2  0  0  0  0  0  0
  -30.6430  -16.4010   22.0770 C   0  0  0  0  0  2  0  0  0  0  0  0
  -31.0370  -18.1670   20.3340 N   0  0  0  0  0  0  0  0  0  0  0  0
  -30.0510  -15.6150   20.9810 N   0  0  0  0  0  0  0  0  0  0  0  0
  -25.1570  -13.8790   20.4480 C   0  0  0  0  0  0  0  0  0  0  0  0
  -24.0830  -13.1070   20.8050 C   0  0  0  0  0  0  0  0  0  0  0  0
  -24.5510  -11.7590   20.8130 C   0  0  0  0  0  0  0  0  0  0  0  0
  -26.2090  -12.9960   20.2580 N   0  0  0  0  0  0  0  0  0  0  0  0
  -25.8480  -11.7190   20.5350 N   0  0  0  0  0  0  0  0  0  0  0  0
  -23.8230  -10.4980   21.0100 C   0  0  0  0  0  0  0  0  0  0  0  0
  -24.2460   -9.5420   21.9590 C   0  0  0  0  0  3  0  0  0  0  0  0
  -23.5180   -8.3460   22.1450 C   0  0  0  0  0  3  0  0  0  0  0  0
  -22.3540   -8.0980   21.3790 C   0  0  0  0  0  0  0  0  0  0  0  0
  -21.9520   -9.0440   20.4180 C   0  0  0  0  0  3  0  0  0  0  0  0
  -22.6800  -10.2300   20.2320 C   0  0  0  0  0  3  0  0  0  0  0  0
  -21.6000   -6.9530   21.4720 O   0  0  0  0  0  0  0  0  0  0  0  0
  -21.5550   -6.2140   22.6260 C   0  0  0  0  0  0  0  0  0  0  0  0
  -21.1470   -6.7770   23.8550 C   0  0  0  0  0  3  0  0  0  0  0  0
  -21.0450   -5.9670   25.0020 C   0  0  0  0  0  3  0  0  0  0  0  0
  -21.3450   -4.5940   24.9240 C   0  0  0  0  0  0  0  0  0  0  0  0
  -21.7470   -4.0290   23.7000 C   0  0  0  0  0  3  0  0  0  0  0  0
  -21.8480   -4.8370   22.5550 C   0  0  0  0  0  0  0  0  0  0  0  0
  -22.2170   -4.2840   21.3740 F   0  0  0  0  0  0  0  0  0  0  0  0
  -21.2410   -3.8120   26.0240 F   0  0  0  0  0  0  0  0  0  0  0  0
  -22.6790  -13.5860   21.0360 C   0  0  0  0  0  0  0  0  0  0  0  0
  -21.9360  -12.9020   21.8990 N   0  0  0  0  0  0  0  0  0  0  0  0
  -22.2490  -14.6010   20.4870 O   0  0  0  0  0  0  0  0  0  0  0  0
  -22.2960  -12.0820   22.3620 H   0  0  0  0  0  0  0  0  0  0  0  0
  -20.9930  -13.2020   22.1020 H   0  0  0  0  0  0  0  0  0  0  0  0
  -25.3170  -15.2460   20.2500 N   0  0  0  0  0  0  0  0  0  0  0  0
  -24.5410  -15.8930   20.3390 H   0  0  0  0  0  0  0  0  0  0  0  0
  -26.1730  -15.6920   19.9450 H   0  0  0  0  0  0  0  0  0  0  0  0
  -31.0630  -21.9880   21.9350 C   0  0  0  0  0  2  0  0  0  0  0  0
  -29.8350  -22.8840   22.1310 C   0  0  0  0  0  2  0  0  0  0  0  0
  -30.6890  -21.1520   20.7050 C   0  0  0  0  0  3  0  0  0  0  0  0
  -29.7550  -22.0670   19.8700 C   0  0  0  0  0  3  0  0  0  0  0  0
  -28.5890  -21.3000   19.2280 C   0  0  0  0  0  1  0  0  0  0  0  0
  -29.2420  -23.1210   20.7910 N   0  0  2  0  0  4  0  0  0  0  0  0
  -28.2500  -22.9570   20.8800 H   0  0  0  0  0  0  0  0  0  0  0  0
  -29.4000  -24.5180   20.2820 C   0  0  0  0  0  2  0  0  0  0  0  0
  -28.3430  -25.4900   20.8490 C   0  0  0  0  0  2  0  0  0  0  0  0
  -28.4350  -26.7680   20.2020 O   0  0  0  0  0  0  0  0  0  0  0  0
  -24.5920  -31.9220   23.2460 C   0  0  0  0  0  0  0  0  0  0  0  0
  -27.2670  -27.4930   20.1920 C   0  0  0  0  0  0  0  0  0  0  0  0
  -23.3980  -30.5090   21.6030 C   0  0  0  0  0  3  0  0  0  0  0  0
  -24.8640  -28.9780   20.1860 C   0  0  0  0  0  0  0  0  0  0  0  0
  -25.9200  -30.8880   21.4070 C   0  0  0  0  0  2  0  0  0  0  0  0
  -26.0160  -29.5150   20.7740 C   0  0  0  0  0  0  0  0  0  0  0  0
  -27.2250  -28.7820   20.7690 C   0  0  0  0  0  3  0  0  0  0  0  0
  -26.1030  -26.9740   19.5850 C   0  0  0  0  0  3  0  0  0  0  0  0
  -24.9020  -27.7080   19.5860 C   0  0  0  0  0  3  0  0  0  0  0  0
  -23.6140  -29.8270   20.2270 C   0  0  0  0  0  2  0  0  0  0  0  0
  -24.6550  -31.1190   22.1460 N   0  0  0  0  0  0  0  0  0  0  0  0
  -23.5090  -32.1890   23.7830 O   0  0  0  0  0  0  0  0  0  0  0  0
  -22.7500  -29.4850   22.5640 C   0  0  0  0  0  0  0  0  0  0  0  0
  -21.4250  -29.3060   22.4390 N   0  0  0  0  0  0  0  0  0  0  0  0
  -23.4360  -28.8590   23.3760 O   0  0  0  0  0  0  0  0  0  0  0  0
  -20.9340  -29.8640   21.7550 H   0  0  0  0  0  0  0  0  0  0  0  0
  -18.0490  -28.1190   22.9370 C   0  0  0  0  0  0  0  0  0  0  0  0
  -20.6080  -28.3700   23.2100 C   0  0  0  0  0  3  0  0  0  0  0  0
  -20.7070  -26.9390   22.6320 C   0  0  0  0  0  2  0  0  0  0  0  0
  -19.6050  -26.6190   21.6190 C   0  0  0  0  0  2  0  0  0  0  0  0
  -18.2230  -26.7690   22.2630 C   0  0  0  0  0  2  0  0  0  0  0  0
  -19.1700  -28.8780   23.3680 C   0  0  0  0  0  0  0  0  0  0  0  0
  -18.9560  -30.1420   23.9590 C   0  0  0  0  0  3  0  0  0  0  0  0
  -17.6520  -30.6470   24.1240 C   0  0  0  0  0  3  0  0  0  0  0  0
  -16.5460  -29.8850   23.7100 C   0  0  0  0  0  3  0  0  0  0  0  0
  -16.7450  -28.6230   23.1230 C   0  0  0  0  0  3  0  0  0  0  0  0
  -25.8760  -32.5580   23.8670 C   0  0  0  0  0  3  0  0  0  0  0  0
  -26.3980  -31.7880   25.1400 C   0  0  1  0  0  0  0  0  0  0  0  0
  -25.3080  -31.5400   26.2090 C   0  0  0  0  0  1  0  0  0  0  0  0
  -26.9870  -30.4150   24.7400 C   0  0  0  0  0  1  0  0  0  0  0  0
  -27.5470  -32.5860   25.8010 C   0  0  0  0  0  1  0  0  0  0  0  0
  -25.5600  -33.9550   24.1950 N   0  0  0  0  0  0  0  0  0  0  0  0
  -25.8890  -35.0070   23.4320 C   0  0  0  0  0  0  0  0  0  0  0  0
  -26.5620  -34.9040   22.4010 O   0  0  0  0  0  0  0  0  0  0  0  0
  -24.9640  -34.1090   24.9940 H   0  0  0  0  0  0  0  0  0  0  0  0
  -24.1510  -36.7870   23.0680 C   0  0  0  0  0  1  0  0  0  0  0  0
  -25.3940  -36.3930   23.8830 C   0  0  0  0  0  3  0  0  0  0  0  0
  -27.5260  -37.2880   24.7090 C   0  0  0  0  0  1  0  0  0  0  0  0
  -26.4200  -37.4530   23.7690 N   0  0  0  0  0  0  0  0  0  0  0  0
  -26.0080  -38.3690   23.9240 H   0  0  0  0  0  0  0  0  0  0  0  0
  1  3  1  0
  3  7  1  0
  3  2  2  0
  4  1  2  0
  4  5  1  0
  5  6  2  0
  6  2  1  0
  6 22  1  0
  8  4  1  0
  9  5  1  0
 10 23  1  0
 11 16  1  0
 12 13  1  0
 12 11  1  0
 14 13  1  0
 14 27  1  0
 14 15  1  0
 16 10  1  0
 16 15  1  0
 17 10  2  0
 18 20  1  0
 18 22  1  0
 19 21  1  0
 20 23  1  0
 22 19  1  0
 23 21  1  0
 24 25  2  0
 25 26  1  0
 25 44  1  0
 26 29  1  0
 27 24  1  0
 27 28  1  0
 28 26  2  0
 29 30  1  0
 30 31  2  0
 32 35  1  0
 32 31  1  0
 33 32  2  0
 34 33  1  0
 34 29  2  0
 35 36  1  0
 36 37  1  0
 37 38  2  0
 39 38  1  0
 39 43  1  0
 40 39  2  0
 41 36  2  0
 41 40  1  0
 42 41  1  0
 44 45  1  0
 45 48  1  0
 45 47  1  0
 46 44  2  0
 49 50  1  0
 49 24  1  0
 51 49  1  0
 52 53  1  0
 54  2  1  0
 54 52  1  0
 55 56  1  0
 55 54  1  0
 55 57  1  0
 57 58  1  1
 57 53  1  0
 59 57  1  0
 59 60  1  0
 61 60  1  0
 62 73  2  0
 63 61  1  0
 63 68  1  0
 64 72  1  0
 64 74  1  0
 65 71  1  0
 65 67  1  0
 66 72  1  0
 67 66  1  0
 68 67  2  0
 69 70  1  0
 69 63  2  0
 70 65  2  0
 71 64  1  0
 72 62  1  0
 74 76  2  0
 75 74  1  0
 77 75  1  0
 78 87  2  0
 78 83  1  0
 79 75  1  0
 79 83  1  0
 80 79  1  0
 81 82  1  0
 81 80  1  0
 82 78  1  0
 83 84  2  0
 84 85  1  0
 86 85  2  0
 87 86  1  0
 88 62  1  0
 88 93  1  0
 88 89  1  0
 89 92  1  1
 89 90  1  0
 91 89  1  0
 93 96  1  0
 94 98  1  0
 94 93  1  0
 95 94  2  0
 98 97  1  0
100 98  1  0
100101  1  0
100 99  1  0
M  ISO  4  10 100  23 100  60 101  61 101
M  END
>  <TORSDO>  (49) 
F 19

>  <SCORE>  (49) 
-14.723

>  <name>  (49) 
48

>  <ligand_id>  (49) 
48

>  <original_smiles>  (49) 
[H]c1c([H])c([H])c2c(c1[H])C([H])([H])C([H])([H])C([H])([H])C2([H])N([H])C(=O)C1([H])N(C(=O)C([H])(N([H])C(=O)C([H])(N([H])C([H])([H])[H])C([H])([H])[H])C(C([H])([H])[H])(C([H])([H])[H])C([H])([H])[H])C([H])([H])c2c([H])c(OC([H])([H])C([H])([H])[N+]3([H])C([H])([H])C([H])([H])C([H])(c4c(N5C([H])([H])C([H])([H])N(C(=O)N6C([H])([H])C([H])([H])C([H])([H])C([H])(n7nc(-c8c([H])c([H])c(Oc9c([H])c([H])c(F)c([H])c9F)c([H])c8[H])c(C(=O)N([H])[H])c7N([H])[H])C6([H])[H])C([H])([H])C5([H])[H])c(C([H])([H])[H])c(C([H])([H])[H])c([H])c4C([H])([H])[H])C3([H])C([H])([H])[H])c([H])c([H])c2C1([H])[H]

>  <smiles>  (49) 
[H]c1c([H])c([H])c2c(c1[H])C([H])([H])C([H])([H])C([H])([H])C2([H])N([H])C(=O)C1([H])N(C(=O)C([H])(N([H])C(=O)C([H])(N([H])C([H])([H])[H])C([H])([H])[H])C(C([H])([H])[H])(C([H])([H])[H])C([H])([H])[H])C([H])([H])c2c([H])c(OC([H])([H])C([H])([H])[N+]3([H])C([H])([H])C([H])([H])C([H])(c4c(N5C([H])([H])C([H])([H])N(C(=O)N6C([H])([H])C([H])([H])C([H])([H])C([H])(n7nc(-c8c([H])c([H])c(Oc9c([H])c([H])c(F)c([H])c9F)c([H])c8[H])c(C(=O)N([H])[H])c7N([H])[H])C6([H])[H])C([H])([H])C5([H])[H])c(C([H])([H])[H])c(C([H])([H])[H])c([H])c4C([H])([H])[H])C3([H])C([H])([H])[H])c([H])c([H])c2C1([H])[H]

$$$$
49:0:0
     RDKit          3D

 95101  0  0  1  0  0  0  0  0999 V2000
  -24.8910  -24.5280   20.6880 C   0  0  0  0  0  3  0  0  0  0  0  0
  -25.2330  -23.6550   22.6880 C   0  0  0  0  0  3  0  0  0  0  0  0
  -24.0220  -25.8660   21.1630 C   0  0  0  0  0  0  0  0  0  0  0  0
  -23.7790  -26.0620   22.7690 C   0  0  0  0  0  3  0  0  0  0  0  0
  -24.4670  -24.8390   23.3120 C   0  0  0  0  0  0  0  0  0  0  0  0
  -25.6380  -23.2180   21.3120 C   0  0  0  0  0  0  0  0  0  0  0  0
  -22.9810  -27.5760   23.9420 C   0  0  0  0  0  1  0  0  0  0  0  0
  -22.0370  -29.4760   23.0820 C   0  0  0  0  0 15  0  0  0  0  0  0
  -21.8950  -28.9530   20.4230 C   0  0  0  0  0 15  0  0  0  0  0  0
  -23.5850  -27.2240   19.8660 C   0  0  0  0  0  3  0  0  0  0  0  0
  -24.4070  -24.7960   24.8300 C   0  0  0  0  0  1  0  0  0  0  0  0
  -23.1130  -26.4570   18.6030 C   0  0  0  0  0  1  0  0  0  0  0  0
  -30.0100  -16.8710   19.6710 C   0  0  0  0  0  0  0  0  0  0  0  0
  -30.7500  -14.3100   18.7390 C   0  0  0  0  0  2  0  0  0  0  0  0
  -29.9430  -13.5610   17.6100 C   0  0  0  0  0  2  0  0  0  0  0  0
  -28.6260  -12.9980   18.1560 C   0  0  0  0  0  2  0  0  0  0  0  0
  -28.0460  -14.0020   19.1680 C   0  0  0  0  0  3  0  0  0  0  0  0
  -29.0180  -14.4620   20.2600 C   0  0  0  0  0  2  0  0  0  0  0  0
  -29.9100  -15.3710   19.5650 N   0  0  0  0  0  0  0  0  0  0  0  0
  -31.1980  -16.9850   19.2210 O   0  0  0  0  0  0  0  0  0  0  0  0
  -27.3130  -21.0060   19.6360 C   0  0  0  0  0  3  0  0  0  0  0  0
  -27.2360  -20.4580   21.6250 C   0  0  0  0  0  3  0  0  0  0  0  0
  -28.7270  -19.7660   19.5440 C   0  0  0  0  0  3  0  0  0  0  0  0
  -27.7590  -18.7520   21.0190 C   0  0  0  0  0  3  0  0  0  0  0  0
  -26.5830  -21.7760   20.8880 N   0  0  0  0  0  0  0  0  0  0  0  0
  -28.9400  -18.1640   19.9860 N   0  0  0  0  0  0  0  0  0  0  0  0
  -25.8610  -14.4660   20.2700 C   0  0  0  0  0  0  0  0  0  0  0  0
  -24.8700  -13.6560   20.7280 C   0  0  0  0  0  0  0  0  0  0  0  0
  -25.3170  -12.3150   20.5080 C   0  0  0  0  0  0  0  0  0  0  0  0
  -26.8220  -13.6110   19.7810 N   0  0  0  0  0  0  0  0  0  0  0  0
  -26.5400  -12.3060   19.9930 N   0  0  0  0  0  0  0  0  0  0  0  0
  -24.6220  -11.0430   20.6890 C   0  0  0  0  0  0  0  0  0  0  0  0
  -25.0580  -10.0880   21.6320 C   0  0  0  0  0  3  0  0  0  0  0  0
  -24.3500   -8.8790   21.7970 C   0  0  0  0  0  3  0  0  0  0  0  0
  -23.1980   -8.6210   21.0180 C   0  0  0  0  0  0  0  0  0  0  0  0
  -22.7850   -9.5660   20.0630 C   0  0  0  0  0  3  0  0  0  0  0  0
  -23.4930  -10.7670   19.8950 C   0  0  0  0  0  3  0  0  0  0  0  0
  -22.4600   -7.4660   21.0920 O   0  0  0  0  0  0  0  0  0  0  0  0
  -22.1690   -6.8780   22.2960 C   0  0  0  0  0  0  0  0  0  0  0  0
  -21.5350   -7.5870   23.3400 C   0  0  0  0  0  3  0  0  0  0  0  0
  -21.1910   -6.9220   24.5340 C   0  0  0  0  0  3  0  0  0  0  0  0
  -21.4720   -5.5500   24.6820 C   0  0  0  0  0  0  0  0  0  0  0  0
  -22.0990   -4.8420   23.6430 C   0  0  0  0  0  3  0  0  0  0  0  0
  -22.4440   -5.5040   22.4510 C   0  0  0  0  0  0  0  0  0  0  0  0
  -23.0290   -4.8140   21.4430 F   0  0  0  0  0  0  0  0  0  0  0  0
  -21.1350   -4.9090   25.8260 F   0  0  0  0  0  0  0  0  0  0  0  0
  -23.5410  -14.1120   21.2400 C   0  0  0  0  0  0  0  0  0  0  0  0
  -22.9640  -13.3760   22.1810 N   0  0  0  0  0  0  0  0  0  0  0  0
  -23.0320  -15.1580   20.8410 O   0  0  0  0  0  0  0  0  0  0  0  0
  -23.3970  -12.5300   22.5210 H   0  0  0  0  0  0  0  0  0  0  0  0
  -22.0760  -13.6640   22.5680 H   0  0  0  0  0  0  0  0  0  0  0  0
  -26.0200  -15.8490   20.2010 N   0  0  0  0  0  0  0  0  0  0  0  0
  -25.2770  -16.4800   20.4800 H   0  0  0  0  0  0  0  0  0  0  0  0
  -26.7870  -16.3190   19.7410 H   0  0  0  0  0  0  0  0  0  0  0  0
  -25.3580  -27.3880   19.8110 O   0  0  0  0  0  0  0  0  0  0  0  0
  -24.7160  -32.0100   23.0750 C   0  0  0  0  0  0  0  0  0  0  0  0
  -26.3820  -28.0850   19.1210 C   0  0  0  0  0  3  0  0  0  0  0  0
  -23.6870  -30.5580   21.4170 C   0  0  0  0  0  3  0  0  0  0  0  0
  -24.7820  -30.1010   19.2370 C   0  0  0  0  0  3  0  0  0  0  0  0
  -26.0070  -31.3630   21.0130 C   0  0  0  0  0  2  0  0  0  0  0  0
  -25.9610  -30.2520   19.9660 C   0  0  0  0  0  3  0  0  0  0  0  0
  -26.8930  -29.2110   19.8350 C   0  0  0  0  0  2  0  0  0  0  0  0
  -25.7680  -28.3320   17.9300 C   0  0  0  0  0  2  0  0  0  0  0  0
  -24.7110  -29.2260   18.1330 C   0  0  0  0  0  2  0  0  0  0  0  0
  -23.6220  -30.7780   19.8290 C   0  0  0  0  0  2  0  0  0  0  0  0
  -24.7820  -31.4200   21.8570 N   0  0  0  0  0  0  0  0  0  0  0  0
  -23.6580  -32.0870   23.7210 O   0  0  0  0  0  0  0  0  0  0  0  0
  -24.1030  -29.0800   22.0240 C   0  0  0  0  0  0  0  0  0  0  0  0
  -23.3850  -27.8230   22.0950 N   0  0  0  0  0  0  0  0  0  0  0  0
  -24.8730  -29.0180   22.9280 O   0  0  0  0  0  0  0  0  0  0  0  0
  -24.0050  -27.0920   22.4190 H   0  0  0  0  0  0  0  0  0  0  0  0
  -18.4020  -27.7630   22.8290 C   0  0  0  0  0  0  0  0  0  0  0  0
  -21.2520  -27.1510   22.4120 C   0  0  0  0  0  2  0  0  0  0  0  0
  -20.7010  -26.1690   21.4650 C   0  0  0  0  0  2  0  0  0  0  0  0
  -19.2950  -26.4590   20.9390 C   0  0  0  0  0  2  0  0  0  0  0  0
  -18.2400  -26.5250   22.0330 C   0  0  0  0  0  2  0  0  0  0  0  0
  -19.7530  -28.2430   22.9340 C   0  0  0  0  0  0  0  0  0  0  0  0
  -19.5620  -29.6180   23.5380 C   0  0  0  0  0  3  0  0  0  0  0  0
  -18.3850  -30.2110   24.1250 C   0  0  0  0  0  3  0  0  0  0  0  0
  -17.1570  -29.5600   24.0360 C   0  0  0  0  0  3  0  0  0  0  0  0
  -17.1860  -28.3500   23.3350 C   0  0  0  0  0  3  0  0  0  0  0  0
  -26.0060  -32.5840   23.7050 C   0  0  0  0  0  3  0  0  0  0  0  0
  -25.6460  -33.8690   24.3070 N   0  0  0  0  0  0  0  0  0  0  0  0
  -25.8670  -35.0540   23.7300 C   0  0  0  0  0  0  0  0  0  0  0  0
  -26.4560  -35.1740   22.6510 O   0  0  0  0  0  0  0  0  0  0  0  0
  -25.1130  -33.8380   25.1640 H   0  0  0  0  0  0  0  0  0  0  0  0
  -24.0710  -36.8100   23.8140 C   0  0  0  0  0  1  0  0  0  0  0  0
  -25.3650  -36.3050   24.4720 C   0  0  0  0  0  3  0  0  0  0  0  0
  -27.5190  -37.0840   25.3530 C   0  0  0  0  0  1  0  0  0  0  0  0
  -26.3630  -37.3960   24.5180 N   0  0  0  0  0  0  0  0  0  0  0  0
  -25.9420  -38.2530   24.8650 H   0  0  0  0  0  0  0  0  0  0  0  0
  -26.6590  -31.6220   24.7730 C   0  0  1  0  0  0  0  0  0  0  0  0
  -25.6470  -31.0370   25.7890 C   0  0  0  0  0  1  0  0  0  0  0  0
  -27.4440  -30.4640   24.1100 C   0  0  0  0  0  1  0  0  0  0  0  0
  -27.7370  -32.3940   25.5630 C   0  0  0  0  0  1  0  0  0  0  0  0
  1  3  2  0
  1  6  1  0
  2  5  1  0
  3  4  1  0
  4  5  2  0
  5 11  1  0
  6  2  2  0
 10 12  1  0
 10  3  1  0
 13 26  1  0
 14 19  1  0
 15 16  1  0
 15 14  1  0
 17 16  1  0
 17 30  1  0
 17 18  1  0
 19 13  1  0
 19 18  1  0
 20 13  2  0
 21 25  1  0
 23 21  2  0
 23 26  1  0
 24 22  2  0
 25  6  1  0
 25 22  1  0
 26 24  1  0
 27 28  2  0
 28 47  1  0
 29 32  1  0
 29 28  1  0
 30 31  1  0
 30 27  1  0
 31 29  2  0
 32 33  1  0
 33 34  2  0
 35 38  1  0
 35 34  1  0
 36 35  2  0
 37 36  1  0
 37 32  2  0
 38 39  1  0
 39 44  2  0
 39 40  1  0
 40 41  2  0
 41 42  1  0
 42 46  1  0
 43 42  2  0
 44 43  1  0
 45 44  1  0
 47 48  1  0
 48 50  1  0
 48 51  1  0
 49 47  2  0
 52 27  1  0
 52 53  1  0
 54 52  1  0
 55 10  1  0
 56 67  2  0
 57 55  1  0
 57 62  1  0
 58 66  1  0
 58 68  1  0
 59 64  1  0
 59 65  1  0
 59 61  1  0
 60 66  1  0
 61 62  1  0
 61 60  1  0
 63 64  1  0
 63 57  1  0
 65 58  1  0
 66 56  1  0
 68 69  1  0
 68 70  2  0
 69 71  1  0
 69  7  1  0
 72 77  2  0
 72 81  1  0
 73 77  1  0
 74 73  1  0
 75 74  1  0
 75 76  1  0
 76 72  1  0
 77 78  1  0
 78 79  2  0
 80 79  1  0
 81 80  2  0
 82 56  1  0
 82 83  1  0
 82 92  1  0
 83 86  1  0
 84 83  1  0
 84 88  1  0
 85 84  2  0
 88 87  1  0
 88 90  1  0
 90 91  1  0
 90 89  1  0
 92 95  1  1
 92 93  1  0
 94 92  1  0
M  ISO  4  10 101  13 100  26 100  55 101
M  END
>  <TORSDO>  (50) 
F 16

>  <SCORE>  (50) 
-6.374

>  <name>  (50) 
49

>  <ligand_id>  (50) 
49

>  <original_smiles>  (50) 
[H]c1c([H])c([H])c2c(c1[H])C([H])([H])C([H])([H])C([H])([H])C2([H])N([H])C(=O)C1([H])N(C(=O)C([H])(N([H])C(=O)C([H])(N([H])C([H])([H])[H])C([H])([H])[H])C(C([H])([H])[H])(C([H])([H])[H])C([H])([H])[H])C([H])([H])c2c([H])c(OC3(C([H])([H])[H])c4c([H])c(N5C([H])([H])C([H])([H])N(C(=O)N6C([H])([H])C([H])([H])C([H])([H])C([H])(n7nc(-c8c([H])c([H])c(Oc9c([H])c([H])c(F)c([H])c9F)c([H])c8[H])c(C(=O)N([H])[H])c7N([H])[H])C6([H])[H])C([H])([H])C5([H])[H])c([H])c(C([H])([H])[H])c4C([H])([H])C([H])([H])C3([H])[H])c([H])c([H])c2C1([H])[H]

>  <smiles>  (50) 
[H]c1c([H])c([H])c2c(c1[H])C([H])([H])C([H])([H])C([H])([H])C2([H])N([H])C(=O)C1([H])N(C(=O)C([H])(N([H])C(=O)C([H])(N([H])C([H])([H])[H])C([H])([H])[H])C(C([H])([H])[H])(C([H])([H])[H])C([H])([H])[H])C([H])([H])c2c([H])c(OC3(C([H])([H])[H])c4c([H])c(N5C([H])([H])C([H])([H])N(C(=O)N6C([H])([H])C([H])([H])C([H])([H])C([H])(n7nc(-c8c([H])c([H])c(Oc9c([H])c([H])c(F)c([H])c9F)c([H])c8[H])c(C(=O)N([H])[H])c7N([H])[H])C6([H])[H])C([H])([H])C5([H])[H])c([H])c(C([H])([H])[H])c4C([H])([H])C([H])([H])C3([H])[H])c([H])c([H])c2C1([H])[H]

$$$$
50:0:0
     RDKit          3D

102114  0  0  1  0  0  0  0  0999 V2000
  -29.5950  -21.4730   23.3980 C   0  0  0  0  0  3  0  0  0  0  0  0
  -29.6970  -22.0330   22.1190 C   0  0  0  0  0  0  0  0  0  0  0  0
  -29.8720  -20.1430   23.6160 C   0  0  0  0  0  0  0  0  0  0  0  0
  -29.6640  -21.2130   20.9250 C   0  0  0  0  0  0  0  0  0  0  0  0
  -30.0180  -19.7420   21.1520 C   0  0  0  0  0  0  0  0  0  0  0  0
  -30.2510  -19.3640   22.5220 C   0  0  0  0  0  0  0  0  0  0  0  0
  -30.9820  -15.1180   19.3250 C   0  0  0  0  0  0  0  0  0  0  0  0
  -30.6510  -12.7900   18.4180 C   0  0  0  0  0  2  0  0  0  0  0  0
  -29.5660  -12.7910   17.3180 C   0  0  0  0  0  2  0  0  0  0  0  0
  -28.1690  -12.6170   17.9420 C   0  0  0  0  0  2  0  0  0  0  0  0
  -27.9410  -13.5500   19.1600 C   0  0  0  0  0  3  0  0  0  0  0  0
  -29.1370  -13.5310   20.1370 C   0  0  0  0  0  2  0  0  0  0  0  0
  -30.3290  -13.8940   19.3620 N   0  0  0  0  0  0  0  0  0  0  0  0
  -32.1190  -15.1490   18.8470 O   0  0  0  0  0  0  0  0  0  0  0  0
  -29.5950  -16.9600   20.5880 C   0  0  0  0  0  2  0  0  0  0  0  0
  -30.4460  -17.7360   18.8680 C   0  0  0  0  0  2  0  0  0  0  0  0
  -30.3080  -18.3540   20.3000 C   0  0  0  0  0  3  0  0  0  0  0  0
  -30.2540  -16.3260   19.4260 N   0  0  0  0  0  0  0  0  0  0  0  0
  -25.7220  -14.1680   20.2810 C   0  0  0  0  0  0  0  0  0  0  0  0
  -24.6830  -13.4090   20.7470 C   0  0  0  0  0  0  0  0  0  0  0  0
  -25.0710  -12.0470   20.5540 C   0  0  0  0  0  0  0  0  0  0  0  0
  -26.6750  -13.2700   19.8300 N   0  0  0  0  0  0  0  0  0  0  0  0
  -26.3000  -11.9840   20.0560 N   0  0  0  0  0  0  0  0  0  0  0  0
  -24.3160  -10.8040   20.7600 C   0  0  0  0  0  0  0  0  0  0  0  0
  -24.7620   -9.8080   21.6570 C   0  0  0  0  0  3  0  0  0  0  0  0
  -24.0080   -8.6310   21.8530 C   0  0  0  0  0  3  0  0  0  0  0  0
  -22.7930   -8.4420   21.1520 C   0  0  0  0  0  0  0  0  0  0  0  0
  -22.3660   -9.4260   20.2420 C   0  0  0  0  0  3  0  0  0  0  0  0
  -23.1210  -10.5930   20.0440 C   0  0  0  0  0  3  0  0  0  0  0  0
  -22.0070   -7.3200   21.2590 O   0  0  0  0  0  0  0  0  0  0  0  0
  -21.8500   -6.6620   22.4530 C   0  0  0  0  0  0  0  0  0  0  0  0
  -21.3480   -7.3130   23.6020 C   0  0  0  0  0  3  0  0  0  0  0  0
  -21.1360   -6.5830   24.7880 C   0  0  0  0  0  3  0  0  0  0  0  0
  -21.4170   -5.2040   24.8280 C   0  0  0  0  0  0  0  0  0  0  0  0
  -21.9130   -4.5540   23.6830 C   0  0  0  0  0  3  0  0  0  0  0  0
  -22.1250   -5.2810   22.4980 C   0  0  0  0  0  0  0  0  0  0  0  0
  -22.5820   -4.6440   21.3930 F   0  0  0  0  0  0  0  0  0  0  0  0
  -21.2070   -4.5000   25.9650 F   0  0  0  0  0  0  0  0  0  0  0  0
  -23.3650  -13.9190   21.2520 C   0  0  0  0  0  0  0  0  0  0  0  0
  -22.7470  -13.2000   22.1830 N   0  0  0  0  0  0  0  0  0  0  0  0
  -22.9000  -14.9870   20.8580 O   0  0  0  0  0  0  0  0  0  0  0  0
  -23.1400  -12.3350   22.5200 H   0  0  0  0  0  0  0  0  0  0  0  0
  -21.8680  -13.5210   22.5640 H   0  0  0  0  0  0  0  0  0  0  0  0
  -25.9270  -15.5400   20.1770 N   0  0  0  0  0  0  0  0  0  0  0  0
  -25.2220  -16.2150   20.4510 H   0  0  0  0  0  0  0  0  0  0  0  0
  -26.7430  -15.9650   19.7560 H   0  0  0  0  0  0  0  0  0  0  0  0
  -29.9380  -18.1450   25.4330 C   0  0  0  0  0  2  0  0  0  0  0  0
  -28.6710  -19.6680   25.9650 C   0  0  0  0  0  2  0  0  0  0  0  0
  -29.8930  -19.6240   25.0480 C   0  0  0  0  0  3  0  0  0  0  0  0
  -28.3470  -17.5590   27.2640 C   0  0  0  0  0  1  0  0  0  0  0  0
  -29.2800  -18.5440   26.6810 N   0  0  1  0  0  4  0  0  0  0  0  0
  -29.9540  -18.8700   27.3580 H   0  0  0  0  0  0  0  0  0  0  0  0
  -30.6500  -24.2040   23.3280 C   0  0  0  0  0  2  0  0  0  0  0  0
  -29.1880  -24.4760   23.0880 C   0  0  0  0  0  2  0  0  0  0  0  0
  -29.9370  -23.5270   22.1640 C   0  0  0  0  0  3  0  0  0  0  0  0
  -29.9930  -23.0580   18.8380 C   0  0  0  0  0  2  0  0  0  0  0  0
  -29.1720  -22.0390   19.6140 C   0  0  0  0  0  3  0  0  0  0  0  0
  -28.6090  -23.5740   19.2390 C   0  0  0  0  0  3  0  0  0  0  0  0
  -28.3610  -25.0560   19.9380 C   0  0  0  0  0  2  0  0  0  0  0  0
  -28.2370  -26.4350   19.2780 O   0  0  0  0  0  0  0  0  0  0  0  0
  -24.5100  -31.6090   22.9450 C   0  0  0  0  0  0  0  0  0  0  0  0
  -27.1040  -27.2860   19.4520 C   0  0  0  0  0  0  0  0  0  0  0  0
  -23.2680  -30.2720   21.2860 C   0  0  0  0  0  3  0  0  0  0  0  0
  -24.6930  -28.8670   19.6770 C   0  0  0  0  0  0  0  0  0  0  0  0
  -25.7870  -30.6870   20.9830 C   0  0  0  0  0  2  0  0  0  0  0  0
  -25.8840  -29.3480   20.2390 C   0  0  0  0  0  0  0  0  0  0  0  0
  -27.0910  -28.5760   20.1080 C   0  0  0  0  0  3  0  0  0  0  0  0
  -25.8830  -26.8810   18.8770 C   0  0  0  0  0  3  0  0  0  0  0  0
  -24.7000  -27.6450   18.9830 C   0  0  0  0  0  3  0  0  0  0  0  0
  -23.4330  -29.6960   19.8530 C   0  0  0  0  0  2  0  0  0  0  0  0
  -24.5440  -30.8730   21.7940 N   0  0  0  0  0  0  0  0  0  0  0  0
  -23.4510  -31.8050   23.5590 O   0  0  0  0  0  0  0  0  0  0  0  0
  -22.6970  -29.1710   22.2140 C   0  0  0  0  0  0  0  0  0  0  0  0
  -21.3870  -28.8890   22.0940 N   0  0  0  0  0  0  0  0  0  0  0  0
  -23.4330  -28.5740   23.0040 O   0  0  0  0  0  0  0  0  0  0  0  0
  -20.8460  -29.4290   21.4330 H   0  0  0  0  0  0  0  0  0  0  0  0
  -18.1510  -27.3210   22.5180 C   0  0  0  0  0  0  0  0  0  0  0  0
  -20.6620  -27.8560   22.8350 C   0  0  0  0  0  3  0  0  0  0  0  0
  -20.9290  -26.4530   22.2410 C   0  0  0  0  0  2  0  0  0  0  0  0
  -19.8850  -26.0300   21.2020 C   0  0  0  0  0  2  0  0  0  0  0  0
  -18.4850  -26.0120   21.8230 C   0  0  0  0  0  2  0  0  0  0  0  0
  -19.1730  -28.1940   22.9790 C   0  0  0  0  0  0  0  0  0  0  0  0
  -18.8080  -29.4130   23.5910 C   0  0  0  0  0  3  0  0  0  0  0  0
  -17.4540  -29.7640   23.7450 C   0  0  0  0  0  3  0  0  0  0  0  0
  -16.4470  -28.8910   23.3000 C   0  0  0  0  0  3  0  0  0  0  0  0
  -16.7950  -27.6720   22.6920 C   0  0  0  0  0  3  0  0  0  0  0  0
  -25.8000  -32.2600   23.5340 C   0  0  0  0  0  3  0  0  0  0  0  0
  -25.4480  -33.6110   23.9990 N   0  0  0  0  0  0  0  0  0  0  0  0
  -25.6750  -34.7390   23.3110 C   0  0  0  0  0  0  0  0  0  0  0  0
  -26.2720  -34.7530   22.2300 O   0  0  0  0  0  0  0  0  0  0  0  0
  -24.9090  -33.6700   24.8490 H   0  0  0  0  0  0  0  0  0  0  0  0
  -23.8380  -36.4570   23.2440 C   0  0  0  0  0  1  0  0  0  0  0  0
  -25.1620  -36.0600   23.9160 C   0  0  0  0  0  3  0  0  0  0  0  0
  -27.3070  -37.0030   24.6500 C   0  0  0  0  0  1  0  0  0  0  0  0
  -26.1270  -37.1750   23.8050 N   0  0  0  0  0  0  0  0  0  0  0  0
  -25.6870  -38.0570   24.0550 H   0  0  0  0  0  0  0  0  0  0  0  0
  -26.4360  -31.4220   24.7110 C   0  0  1  0  0  0  0  0  0  0  0  0
  -25.4270  -31.0460   25.8210 C   0  0  0  0  0  1  0  0  0  0  0  0
  -27.0550  -30.1080   24.1790 C   0  0  0  0  0  1  0  0  0  0  0  0
  -27.5880  -32.2210   25.3620 C   0  0  0  0  0  1  0  0  0  0  0  0
  -32.3100  -18.3190   22.8790 C   0  0  0  0  0  1  0  0  0  0  0  0
  -30.8910  -18.1980   22.8570 O   0  0  0  0  0  0  0  0  0  0  0  0
  1  3  1  0
  2 55  1  0
  2  1  2  0
  3 49  1  0
  4  5  2  0
  4  2  1  0
  5  6  1  0
  6102  1  0
  6  3  2  0
  7 13  1  0
  7 18  1  0
  8 13  1  0
  9 10  1  0
  9  8  1  0
 11 10  1  0
 11 22  1  0
 11 12  1  0
 13 12  1  0
 14  7  2  0
 16 18  1  0
 16 17  1  0
 17 15  1  0
 17  5  1  0
 18 15  1  0
 19 20  2  0
 20 39  1  0
 21 20  1  0
 21 24  1  0
 22 23  1  0
 22 19  1  0
 23 21  2  0
 24 25  1  0
 25 26  2  0
 27 30  1  0
 27 26  1  0
 28 27  2  0
 29 28  1  0
 29 24  2  0
 30 31  1  0
 31 36  2  0
 31 32  1  0
 32 33  2  0
 33 34  1  0
 34 38  1  0
 35 34  2  0
 36 35  1  0
 37 36  1  0
 39 40  1  0
 40 42  1  0
 40 43  1  0
 41 39  2  0
 44 19  1  0
 44 45  1  0
 46 44  1  0
 47 51  1  0
 48 51  1  0
 49 47  1  0
 49 48  1  0
 51 50  1  0
 51 52  1  1
 54 53  1  0
 55 54  1  0
 55 53  1  0
 56 58  1  0
 56 57  1  0
 57  4  1  0
 58 57  1  0
 58 59  1  0
 60 62  1  0
 60 59  1  0
 61 72  2  0
 62 67  1  0
 63 71  1  0
 63 73  1  0
 64 70  1  0
 64 66  1  0
 65 71  1  0
 66 65  1  0
 67 66  2  0
 68 69  1  0
 68 62  2  0
 69 64  2  0
 70 63  1  0
 71 61  1  0
 73 75  2  0
 74 73  1  0
 76 74  1  0
 77 86  2  0
 77 82  1  0
 78 74  1  0
 78 82  1  0
 79 78  1  0
 80 81  1  0
 80 79  1  0
 81 77  1  0
 82 83  2  0
 83 84  1  0
 85 84  2  0
 86 85  1  0
 87 61  1  0
 87 88  1  0
 87 97  1  0
 88 91  1  0
 89 93  1  0
 89 88  1  0
 90 89  2  0
 93 92  1  0
 95 93  1  0
 95 96  1  0
 95 94  1  0
 97100  1  1
 97 98  1  0
 99 97  1  0
102101  1  0
M  ISO  4   7 100  18 100  59 101  60 101
M  END
>  <TORSDO>  (51) 
F 21

>  <SCORE>  (51) 
1.606

>  <name>  (51) 
50

>  <ligand_id>  (51) 
50

>  <original_smiles>  (51) 
[H]c1c([H])c([H])c2c(c1[H])C([H])([H])C([H])([H])C([H])([H])C2([H])N([H])C(=O)C1([H])N(C(=O)C([H])(N([H])C(=O)C([H])(N([H])C([H])([H])[H])C([H])([H])[H])C(C([H])([H])[H])(C([H])([H])[H])C([H])([H])[H])C([H])([H])c2c([H])c(OC([H])([H])C3([H])C([H])([H])C3([H])c3c(C4([H])C([H])([H])N(C(=O)N5C([H])([H])C([H])([H])C([H])([H])C([H])(n6nc(-c7c([H])c([H])c(Oc8c([H])c([H])c(F)c([H])c8F)c([H])c7[H])c(C(=O)N([H])[H])c6N([H])[H])C5([H])[H])C4([H])[H])c(OC([H])([H])[H])c(C4([H])C([H])([H])[N+]([H])(C([H])([H])[H])C4([H])[H])c([H])c3C3([H])C([H])([H])C3([H])[H])c([H])c([H])c2C1([H])[H]

>  <smiles>  (51) 
[H]c1c([H])c([H])c2c(c1[H])C([H])([H])C([H])([H])C([H])([H])C2([H])N([H])C(=O)C1([H])N(C(=O)C([H])(N([H])C(=O)C([H])(N([H])C([H])([H])[H])C([H])([H])[H])C(C([H])([H])[H])(C([H])([H])[H])C([H])([H])[H])C([H])([H])c2c([H])c(OC([H])([H])C3([H])C([H])([H])C3([H])c3c(C4([H])C([H])([H])N(C(=O)N5C([H])([H])C([H])([H])C([H])([H])C([H])(n6nc(-c7c([H])c([H])c(Oc8c([H])c([H])c(F)c([H])c8F)c([H])c7[H])c(C(=O)N([H])[H])c6N([H])[H])C5([H])[H])C4([H])[H])c(OC([H])([H])[H])c(C4([H])C([H])([H])[N+]([H])(C([H])([H])[H])C4([H])[H])c([H])c3C3([H])C([H])([H])C3([H])[H])c([H])c([H])c2C1([H])[H]

$$$$
51:0:0
     RDKit          3D

101111  0  0  1  0  0  0  0  0999 V2000
  -30.3110  -23.0260   22.1670 C   0  0  0  0  0  0  0  0  0  0  0  0
  -30.5570  -22.7000   23.5350 C   0  0  0  0  0  0  0  0  0  0  0  0
  -30.5000  -21.9980   21.1800 C   0  0  0  0  0  0  0  0  0  0  0  0
  -30.8790  -21.3770   23.9200 C   0  0  0  0  0  0  0  0  0  0  0  0
  -31.0790  -20.3740   22.9420 C   0  0  0  0  0  0  0  0  0  0  0  0
  -30.8360  -20.6530   21.5660 C   0  0  0  0  0  0  0  0  0  0  0  0
  -30.5370  -23.7880   24.6190 C   0  0  0  0  0  1  0  0  0  0  0  0
  -30.4250  -22.3430   19.6920 C   0  0  0  0  0  1  0  0  0  0  0  0
  -31.0130  -21.0320   25.4070 C   0  0  0  0  0  1  0  0  0  0  0  0
  -31.6110  -19.0160   23.4110 C   0  0  0  0  0  1  0  0  0  0  0  0
  -30.9230  -25.3190   21.0510 C   0  0  0  0  0  2  0  0  0  0  0  0
  -28.5430  -24.8740   21.2180 C   0  0  0  0  0  2  0  0  0  0  0  0
  -29.9010  -24.5000   21.8430 C   0  0  0  0  0  3  0  0  0  0  0  0
  -30.2150  -26.6580   20.7790 C   0  0  0  0  0  3  0  0  0  0  0  0
  -28.6940  -26.3890   20.9220 C   0  0  0  0  0  3  0  0  0  0  0  0
  -30.6450  -27.2990   19.4490 C   0  0  0  0  0  1  0  0  0  0  0  0
  -27.9720  -26.7400   19.7420 O   0  0  0  0  0  0  0  0  0  0  0  0
  -24.4010  -31.9320   23.1640 C   0  0  0  0  0  0  0  0  0  0  0  0
  -26.8560  -27.5340   19.8830 C   0  0  0  0  0  0  0  0  0  0  0  0
  -23.1160  -30.6120   21.5130 C   0  0  0  0  0  3  0  0  0  0  0  0
  -24.4970  -29.0810   20.0090 C   0  0  0  0  0  0  0  0  0  0  0  0
  -25.6420  -30.9160   21.2590 C   0  0  0  0  0  2  0  0  0  0  0  0
  -25.6790  -29.5600   20.5870 C   0  0  0  0  0  0  0  0  0  0  0  0
  -26.8640  -28.7910   20.5320 C   0  0  0  0  0  3  0  0  0  0  0  0
  -25.6620  -27.0710   19.2970 C   0  0  0  0  0  3  0  0  0  0  0  0
  -24.4800  -27.8310   19.3650 C   0  0  0  0  0  3  0  0  0  0  0  0
  -23.2750  -29.9660   20.1090 C   0  0  0  0  0  2  0  0  0  0  0  0
  -24.4060  -31.1660   22.0370 N   0  0  0  0  0  0  0  0  0  0  0  0
  -23.3410  -32.2140   23.7420 O   0  0  0  0  0  0  0  0  0  0  0  0
  -22.4650  -29.5780   22.4600 C   0  0  0  0  0  0  0  0  0  0  0  0
  -21.1350  -29.4240   22.3540 N   0  0  0  0  0  0  0  0  0  0  0  0
  -23.1520  -28.9200   23.2450 O   0  0  0  0  0  0  0  0  0  0  0  0
  -20.6420  -30.0080   21.6930 H   0  0  0  0  0  0  0  0  0  0  0  0
  -17.7470  -28.2890   22.8940 C   0  0  0  0  0  0  0  0  0  0  0  0
  -20.3160  -28.4830   23.1160 C   0  0  0  0  0  3  0  0  0  0  0  0
  -20.3740  -27.0680   22.4970 C   0  0  0  0  0  2  0  0  0  0  0  0
  -19.2430  -26.7990   21.4990 C   0  0  0  0  0  2  0  0  0  0  0  0
  -17.8790  -26.9560   22.1770 C   0  0  0  0  0  2  0  0  0  0  0  0
  -18.8920  -29.0140   23.3210 C   0  0  0  0  0  0  0  0  0  0  0  0
  -18.7150  -30.2640   23.9510 C   0  0  0  0  0  3  0  0  0  0  0  0
  -17.4260  -30.7900   24.1580 C   0  0  0  0  0  3  0  0  0  0  0  0
  -16.2960  -30.0620   23.7480 C   0  0  0  0  0  3  0  0  0  0  0  0
  -16.4580  -28.8140   23.1220 C   0  0  0  0  0  3  0  0  0  0  0  0
  -25.7190  -32.5100   23.7680 C   0  0  0  0  0  3  0  0  0  0  0  0
  -26.2400  -31.6990   25.0180 C   0  0  1  0  0  0  0  0  0  0  0  0
  -25.1620  -31.4710   26.1030 C   0  0  0  0  0  1  0  0  0  0  0  0
  -26.7760  -30.3140   24.5870 C   0  0  0  0  0  1  0  0  0  0  0  0
  -27.4250  -32.4480   25.6710 C   0  0  0  0  0  1  0  0  0  0  0  0
  -25.4630  -33.9110   24.1250 N   0  0  0  0  0  0  0  0  0  0  0  0
  -25.8300  -34.9640   23.3810 C   0  0  0  0  0  0  0  0  0  0  0  0
  -26.4910  -34.8540   22.3440 O   0  0  0  0  0  0  0  0  0  0  0  0
  -24.8740  -34.0740   24.9290 H   0  0  0  0  0  0  0  0  0  0  0  0
  -24.1650  -36.8240   23.0670 C   0  0  0  0  0  1  0  0  0  0  0  0
  -25.3960  -36.3610   23.8640 C   0  0  0  0  0  3  0  0  0  0  0  0
  -27.5640  -37.1570   24.6980 C   0  0  0  0  0  1  0  0  0  0  0  0
  -26.4650  -37.3780   23.7620 N   0  0  0  0  0  0  0  0  0  0  0  0
  -26.0930  -38.3090   23.9230 H   0  0  0  0  0  0  0  0  0  0  0  0
  -30.9530  -19.5000   20.5230 C   0  0  0  0  0  2  0  0  0  0  0  0
  -29.8290  -17.4140   19.6240 C   0  0  0  0  0  2  0  0  0  0  0  0
  -30.1860  -17.3150   21.6240 C   0  0  0  0  0  2  0  0  0  0  0  0
  -29.2280  -16.5380   20.7260 C   0  0  0  0  0  3  0  0  0  0  0  0
  -29.9270  -18.4330   20.6910 N   0  0  1  0  0  4  0  0  0  0  0  0
  -29.0190  -18.8400   20.8580 H   0  0  0  0  0  0  0  0  0  0  0  0
  -30.0900  -14.2070   19.9530 C   0  0  0  0  0  0  0  0  0  0  0  0
  -29.9220  -12.0030   18.8380 C   0  0  0  0  0  2  0  0  0  0  0  0
  -28.8590  -12.0910   17.7230 C   0  0  0  0  0  2  0  0  0  0  0  0
  -27.4400  -11.8470   18.2790 C   0  0  0  0  0  2  0  0  0  0  0  0
  -27.1450  -12.6910   19.5470 C   0  0  0  0  0  3  0  0  0  0  0  0
  -28.3020  -12.5390   20.5610 C   0  0  0  0  0  2  0  0  0  0  0  0
  -29.5510  -12.9580   19.8920 N   0  0  0  0  0  0  0  0  0  0  0  0
  -31.1000  -14.5500   19.3310 O   0  0  0  0  0  0  0  0  0  0  0  0
  -29.3320  -15.0690   20.6540 N   0  0  0  0  0  0  0  0  0  0  0  0
  -28.5800  -14.5930   21.1320 H   0  0  0  0  0  0  0  0  0  0  0  0
  -24.7840  -13.1630   20.4680 C   0  0  0  0  0  0  0  0  0  0  0  0
  -23.8010  -12.3310   20.9310 C   0  0  0  0  0  0  0  0  0  0  0  0
  -24.3350  -11.0090   20.8520 C   0  0  0  0  0  0  0  0  0  0  0  0
  -25.8550  -12.3430   20.1400 N   0  0  0  0  0  0  0  0  0  0  0  0
  -25.5910  -11.0430   20.4250 N   0  0  0  0  0  0  0  0  0  0  0  0
  -23.7060   -9.7060   21.1020 C   0  0  0  0  0  0  0  0  0  0  0  0
  -24.2210   -8.8110   22.0640 C   0  0  0  0  0  3  0  0  0  0  0  0
  -23.5890   -7.5700   22.3000 C   0  0  0  0  0  3  0  0  0  0  0  0
  -22.4280   -7.2170   21.5710 C   0  0  0  0  0  0  0  0  0  0  0  0
  -21.9330   -8.1020   20.5970 C   0  0  0  0  0  3  0  0  0  0  0  0
  -22.5660   -9.3340   20.3620 C   0  0  0  0  0  3  0  0  0  0  0  0
  -21.7610   -6.0240   21.7140 O   0  0  0  0  0  0  0  0  0  0  0  0
  -21.7230   -5.3600   22.9150 C   0  0  0  0  0  0  0  0  0  0  0  0
  -21.1900   -5.9560   24.0790 C   0  0  0  0  0  3  0  0  0  0  0  0
  -21.1040   -5.2130   25.2730 C   0  0  0  0  0  3  0  0  0  0  0  0
  -21.5420   -3.8750   25.3040 C   0  0  0  0  0  0  0  0  0  0  0  0
  -22.0690   -3.2800   24.1450 C   0  0  0  0  0  3  0  0  0  0  0  0
  -22.1560   -4.0190   22.9530 C   0  0  0  0  0  0  0  0  0  0  0  0
  -22.6440   -3.4340   21.8330 F   0  0  0  0  0  0  0  0  0  0  0  0
  -21.4520   -3.1590   26.4490 F   0  0  0  0  0  0  0  0  0  0  0  0
  -22.4080  -12.7250   21.3340 C   0  0  0  0  0  0  0  0  0  0  0  0
  -21.8060  -11.9900   22.2630 N   0  0  0  0  0  0  0  0  0  0  0  0
  -21.8630  -13.7200   20.8590 O   0  0  0  0  0  0  0  0  0  0  0  0
  -22.2610  -11.1860   22.6690 H   0  0  0  0  0  0  0  0  0  0  0  0
  -20.8770  -12.2370   22.5730 H   0  0  0  0  0  0  0  0  0  0  0  0
  -24.8530  -14.5410   20.2820 N   0  0  0  0  0  0  0  0  0  0  0  0
  -24.0580  -15.1490   20.4530 H   0  0  0  0  0  0  0  0  0  0  0  0
  -25.6350  -15.0250   19.8600 H   0  0  0  0  0  0  0  0  0  0  0  0
  1  2  1  0
  2  4  2  0
  2  7  1  0
  3  6  1  0
  3  1  2  0
  4  9  1  0
  5 10  1  0
  5  4  1  0
  6  5  2  0
  8  3  1  0
 11 13  1  0
 12 13  1  0
 13  1  1  0
 14 16  1  0
 14 15  1  0
 14 11  1  0
 15 17  1  0
 15 12  1  0
 17 19  1  0
 18 29  2  0
 19 24  1  0
 20 28  1  0
 20 30  1  0
 21 27  1  0
 21 23  1  0
 22 28  1  0
 23 22  1  0
 24 23  2  0
 25 26  1  0
 25 19  2  0
 26 21  2  0
 27 20  1  0
 28 18  1  0
 30 32  2  0
 31 30  1  0
 33 31  1  0
 34 43  2  0
 34 39  1  0
 35 31  1  0
 35 39  1  0
 36 35  1  0
 37 38  1  0
 37 36  1  0
 38 34  1  0
 39 40  2  0
 40 41  1  0
 42 41  2  0
 43 42  1  0
 44 18  1  0
 44 49  1  0
 44 45  1  0
 45 48  1  1
 45 46  1  0
 47 45  1  0
 49 52  1  0
 50 54  1  0
 50 49  1  0
 51 50  2  0
 54 53  1  0
 56 54  1  0
 56 57  1  0
 56 55  1  0
 58 62  1  0
 58  6  1  0
 59 62  1  0
 59 61  1  0
 61 72  1  0
 61 60  1  0
 62 63  1  1
 62 60  1  0
 64 72  1  0
 65 70  1  0
 66 67  1  0
 66 65  1  0
 68 67  1  0
 68 77  1  0
 68 69  1  0
 70 64  1  0
 70 69  1  0
 71 64  2  0
 72 73  1  0
 74 75  2  0
 75 94  1  0
 76 75  1  0
 76 79  1  0
 77 78  1  0
 77 74  1  0
 78 76  2  0
 79 80  1  0
 80 81  2  0
 82 85  1  0
 82 81  1  0
 83 82  2  0
 84 83  1  0
 84 79  2  0
 85 86  1  0
 86 91  2  0
 86 87  1  0
 87 88  2  0
 88 89  1  0
 89 93  1  0
 90 89  2  0
 91 90  1  0
 92 91  1  0
 94 95  1  0
 95 98  1  0
 95 97  1  0
 96 94  2  0
 99100  1  0
 99 74  1  0
101 99  1  0
M  ISO  4  15 101  17 101  64 100  72 100
M  END
>  <TORSDO>  (52) 
F 19

>  <SCORE>  (52) 
-10.189

>  <name>  (52) 
51

>  <ligand_id>  (52) 
51

>  <original_smiles>  (52) 
[H]c1c([H])c([H])c2c(c1[H])C([H])([H])C([H])([H])C([H])([H])C2([H])N([H])C(=O)C1([H])N(C(=O)C([H])(N([H])C(=O)C([H])(N([H])C([H])([H])[H])C([H])([H])[H])C(C([H])([H])[H])(C([H])([H])[H])C([H])([H])[H])C([H])([H])c2c([H])c(OC3([H])C([H])([H])C([H])(c4c(C([H])([H])[H])c(C([H])([H])[H])c(C([H])([H])[H])c(C([H])([H])[N+]5([H])C([H])([H])C([H])(N([H])C(=O)N6C([H])([H])C([H])([H])C([H])([H])C([H])(n7nc(-c8c([H])c([H])c(Oc9c([H])c([H])c(F)c([H])c9F)c([H])c8[H])c(C(=O)N([H])[H])c7N([H])[H])C6([H])[H])C5([H])[H])c4C([H])([H])[H])C([H])([H])C3([H])C([H])([H])[H])c([H])c([H])c2C1([H])[H]

>  <smiles>  (52) 
[H]c1c([H])c([H])c2c(c1[H])C([H])([H])C([H])([H])C([H])([H])C2([H])N([H])C(=O)C1([H])N(C(=O)C([H])(N([H])C(=O)C([H])(N([H])C([H])([H])[H])C([H])([H])[H])C(C([H])([H])[H])(C([H])([H])[H])C([H])([H])[H])C([H])([H])c2c([H])c(OC3([H])C([H])([H])C([H])(c4c(C([H])([H])[H])c(C([H])([H])[H])c(C([H])([H])[H])c(C([H])([H])[N+]5([H])C([H])([H])C([H])(N([H])C(=O)N6C([H])([H])C([H])([H])C([H])([H])C([H])(n7nc(-c8c([H])c([H])c(Oc9c([H])c([H])c(F)c([H])c9F)c([H])c8[H])c(C(=O)N([H])[H])c7N([H])[H])C6([H])[H])C5([H])[H])c4C([H])([H])[H])C([H])([H])C3([H])C([H])([H])[H])c([H])c([H])c2C1([H])[H]

$$$$
52:0:0
     RDKit          3D

 99109  0  0  1  0  0  0  0  0999 V2000
  -29.9130  -21.6520   19.8040 C   0  0  0  0  0  0  0  0  0  0  0  0
  -29.0960  -22.7540   19.3320 C   0  0  0  0  0  0  0  0  0  0  0  0
  -29.0330  -23.9950   20.0560 C   0  0  0  0  0  0  0  0  0  0  0  0
  -30.5520  -21.8700   21.0570 C   0  0  0  0  0  0  0  0  0  0  0  0
  -29.7510  -24.0560   21.2640 C   0  0  0  0  0  0  0  0  0  0  0  0
  -28.2330  -22.6260   18.0720 C   0  0  0  0  0  1  0  0  0  0  0  0
  -31.3810  -20.8620   21.8280 C   0  0  0  0  0  1  0  0  0  0  0  0
  -29.7400  -25.2450   22.2060 C   0  0  0  0  0  1  0  0  0  0  0  0
  -30.4730  -23.0280   21.7320 N   0  0  0  0  0  0  0  0  0  0  0  0
  -30.8680  -20.6960   17.6410 C   0  0  0  0  0  2  0  0  0  0  0  0
  -31.3530  -19.3830   17.0600 C   0  0  0  0  0  2  0  0  0  0  0  0
  -30.1110  -20.3460   18.9290 C   0  0  0  0  0  3  0  0  0  0  0  0
  -30.8170  -18.9860   19.4220 C   0  0  0  0  0  3  0  0  0  0  0  0
  -32.7980  -17.8450   18.3620 C   0  0  0  0  0  1  0  0  0  0  0  0
  -31.4400  -18.4260   18.1810 N   0  0  2  0  0  4  0  0  0  0  0  0
  -30.8570  -17.6590   17.8830 H   0  0  0  0  0  0  0  0  0  0  0  0
  -30.7070  -14.5340   20.4260 C   0  0  0  0  0  0  0  0  0  0  0  0
  -30.3460  -12.3370   19.3690 C   0  0  0  0  0  2  0  0  0  0  0  0
  -29.4260  -12.5000   18.1450 C   0  0  0  0  0  2  0  0  0  0  0  0
  -27.9530  -12.3830   18.5710 C   0  0  0  0  0  2  0  0  0  0  0  0
  -27.6020  -13.2610   19.8060 C   0  0  0  0  0  3  0  0  0  0  0  0
  -28.6530  -13.1390   20.9310 C   0  0  0  0  0  2  0  0  0  0  0  0
  -29.9780  -13.3830   20.3410 N   0  0  0  0  0  0  0  0  0  0  0  0
  -31.8930  -14.5840   20.0890 O   0  0  0  0  0  0  0  0  0  0  0  0
  -29.7270  -16.4950   19.4060 C   0  0  0  0  0  2  0  0  0  0  0  0
  -30.7210  -16.8950   21.1650 C   0  0  0  0  0  2  0  0  0  0  0  0
  -29.9700  -17.8310   20.1660 C   0  0  1  0  0  0  0  0  0  0  0  0
  -28.6990  -18.4140   20.8210 C   0  0  0  0  0  1  0  0  0  0  0  0
  -30.0350  -15.7020   20.6100 N   0  0  0  0  0  0  0  0  0  0  0  0
  -25.2020  -13.8670   20.4920 C   0  0  0  0  0  0  0  0  0  0  0  0
  -24.1310  -13.0990   20.8570 C   0  0  0  0  0  0  0  0  0  0  0  0
  -24.5930  -11.7470   20.8460 C   0  0  0  0  0  0  0  0  0  0  0  0
  -26.2490  -12.9850   20.2820 N   0  0  0  0  0  0  0  0  0  0  0  0
  -25.8840  -11.7050   20.5520 N   0  0  0  0  0  0  0  0  0  0  0  0
  -23.8630  -10.4880   21.0410 C   0  0  0  0  0  0  0  0  0  0  0  0
  -24.2970   -9.5170   21.9720 C   0  0  0  0  0  3  0  0  0  0  0  0
  -23.5710   -8.3220   22.1540 C   0  0  0  0  0  3  0  0  0  0  0  0
  -22.3910   -8.0890   21.4060 C   0  0  0  0  0  0  0  0  0  0  0  0
  -21.9750   -9.0450   20.4620 C   0  0  0  0  0  3  0  0  0  0  0  0
  -22.7040  -10.2320   20.2790 C   0  0  0  0  0  3  0  0  0  0  0  0
  -21.6350   -6.9450   21.5000 O   0  0  0  0  0  0  0  0  0  0  0  0
  -21.6020   -6.1930   22.6470 C   0  0  0  0  0  0  0  0  0  0  0  0
  -21.2140   -6.7440   23.8870 C   0  0  0  0  0  3  0  0  0  0  0  0
  -21.1330   -5.9210   25.0290 C   0  0  0  0  0  3  0  0  0  0  0  0
  -21.4250   -4.5470   24.9280 C   0  0  0  0  0  0  0  0  0  0  0  0
  -21.7990   -3.9940   23.6900 C   0  0  0  0  0  3  0  0  0  0  0  0
  -21.8850   -4.8150   22.5530 C   0  0  0  0  0  0  0  0  0  0  0  0
  -22.2310   -4.2750   21.3580 F   0  0  0  0  0  0  0  0  0  0  0  0
  -21.3370   -3.7530   26.0200 F   0  0  0  0  0  0  0  0  0  0  0  0
  -22.7290  -13.5750   21.1100 C   0  0  0  0  0  0  0  0  0  0  0  0
  -21.9940  -12.8870   21.9770 N   0  0  0  0  0  0  0  0  0  0  0  0
  -22.2970  -14.5960   20.5760 O   0  0  0  0  0  0  0  0  0  0  0  0
  -22.3550  -12.0580   22.4250 H   0  0  0  0  0  0  0  0  0  0  0  0
  -21.0560  -13.1930   22.1960 H   0  0  0  0  0  0  0  0  0  0  0  0
  -25.3670  -15.2370   20.3040 N   0  0  0  0  0  0  0  0  0  0  0  0
  -24.6070  -15.9000   20.4090 H   0  0  0  0  0  0  0  0  0  0  0  0
  -26.2330  -15.6710   20.0170 H   0  0  0  0  0  0  0  0  0  0  0  0
  -28.0660  -25.1420   19.6310 C   0  0  0  0  0  2  0  0  0  0  0  0
  -28.2900  -26.5230   20.0750 O   0  0  0  0  0  0  0  0  0  0  0  0
  -24.6220  -31.8830   23.2450 C   0  0  0  0  0  0  0  0  0  0  0  0
  -27.1650  -27.3620   20.0780 C   0  0  0  0  0  0  0  0  0  0  0  0
  -23.3910  -30.4970   21.6260 C   0  0  0  0  0  3  0  0  0  0  0  0
  -24.8070  -28.9650   20.1630 C   0  0  0  0  0  0  0  0  0  0  0  0
  -25.9310  -30.8070   21.4040 C   0  0  0  0  0  2  0  0  0  0  0  0
  -25.9900  -29.4400   20.7420 C   0  0  0  0  0  0  0  0  0  0  0  0
  -27.1740  -28.6500   20.6990 C   0  0  0  0  0  3  0  0  0  0  0  0
  -25.9470  -26.9390   19.4900 C   0  0  0  0  0  3  0  0  0  0  0  0
  -24.7830  -27.7190   19.5340 C   0  0  0  0  0  3  0  0  0  0  0  0
  -23.5790  -29.8420   20.2370 C   0  0  0  0  0  2  0  0  0  0  0  0
  -24.6700  -31.0770   22.1460 N   0  0  0  0  0  0  0  0  0  0  0  0
  -23.5480  -32.1620   23.7950 O   0  0  0  0  0  0  0  0  0  0  0  0
  -22.7490  -29.4640   22.5810 C   0  0  0  0  0  0  0  0  0  0  0  0
  -21.4240  -29.2760   22.4600 N   0  0  0  0  0  0  0  0  0  0  0  0
  -23.4370  -28.8420   23.3980 O   0  0  0  0  0  0  0  0  0  0  0  0
  -20.9320  -29.8260   21.7710 H   0  0  0  0  0  0  0  0  0  0  0  0
  -18.0520  -28.0600   22.9630 C   0  0  0  0  0  0  0  0  0  0  0  0
  -20.6090  -28.3410   23.2380 C   0  0  0  0  0  3  0  0  0  0  0  0
  -20.7250  -26.9050   22.6790 C   0  0  0  0  0  2  0  0  0  0  0  0
  -19.6270  -26.5620   21.6660 C   0  0  0  0  0  2  0  0  0  0  0  0
  -18.2410  -26.7050   22.3040 C   0  0  0  0  0  2  0  0  0  0  0  0
  -19.1640  -28.8360   23.3890 C   0  0  0  0  0  0  0  0  0  0  0  0
  -18.9340  -30.1020   23.9680 C   0  0  0  0  0  3  0  0  0  0  0  0
  -17.6260  -30.5970   24.1240 C   0  0  0  0  0  3  0  0  0  0  0  0
  -16.5280  -29.8180   23.7160 C   0  0  0  0  0  3  0  0  0  0  0  0
  -16.7420  -28.5520   23.1440 C   0  0  0  0  0  3  0  0  0  0  0  0
  -25.9170  -32.5090   23.8450 C   0  0  0  0  0  3  0  0  0  0  0  0
  -25.6100  -33.9050   24.1900 N   0  0  0  0  0  0  0  0  0  0  0  0
  -25.9230  -34.9600   23.4300 C   0  0  0  0  0  0  0  0  0  0  0  0
  -26.5730  -34.8620   22.3850 O   0  0  0  0  0  0  0  0  0  0  0  0
  -25.0320  -34.0490   25.0060 H   0  0  0  0  0  0  0  0  0  0  0  0
  -24.1830  -36.7470   23.1180 C   0  0  0  0  0  1  0  0  0  0  0  0
  -25.4450  -36.3470   23.9020 C   0  0  0  0  0  3  0  0  0  0  0  0
  -27.5950  -37.2290   24.6930 C   0  0  0  0  0  1  0  0  0  0  0  0
  -26.4730  -37.4020   23.7730 N   0  0  0  0  0  0  0  0  0  0  0  0
  -26.0680  -38.3210   23.9360 H   0  0  0  0  0  0  0  0  0  0  0  0
  -26.4530  -31.7280   25.1080 C   0  0  1  0  0  0  0  0  0  0  0  0
  -25.3770  -31.4840   26.1930 C   0  0  0  0  0  1  0  0  0  0  0  0
  -27.0280  -30.3520   24.7000 C   0  0  0  0  0  1  0  0  0  0  0  0
  -27.6140  -32.5200   25.7560 C   0  0  0  0  0  1  0  0  0  0  0  0
  1  4  1  0
  2  1  2  0
  2  3  1  0
  3  5  2  0
  4  9  2  0
  4  7  1  0
  5  9  1  0
  5  8  1  0
  6  2  1  0
 10 12  1  0
 11 10  1  0
 11 15  1  0
 12 13  1  0
 12  1  1  0
 13 15  1  0
 13 27  1  0
 15 14  1  0
 15 16  1  6
 17 29  1  0
 18 23  1  0
 19 20  1  0
 19 18  1  0
 21 20  1  0
 21 33  1  0
 21 22  1  0
 23 17  1  0
 23 22  1  0
 24 17  2  0
 25 27  1  0
 25 29  1  0
 27 28  1  1
 27 26  1  0
 29 26  1  0
 30 31  2  0
 31 50  1  0
 32 31  1  0
 32 35  1  0
 33 30  1  0
 33 34  1  0
 34 32  2  0
 35 36  1  0
 36 37  2  0
 38 41  1  0
 38 37  1  0
 39 38  2  0
 40 39  1  0
 40 35  2  0
 41 42  1  0
 42 43  1  0
 43 44  2  0
 45 44  1  0
 45 49  1  0
 46 45  2  0
 47 42  2  0
 47 46  1  0
 48 47  1  0
 50 51  1  0
 51 54  1  0
 51 53  1  0
 52 50  2  0
 55 56  1  0
 55 30  1  0
 57 55  1  0
 58  3  1  0
 58 59  1  0
 59 61  1  0
 60 71  2  0
 61 66  1  0
 62 70  1  0
 62 72  1  0
 63 69  1  0
 63 65  1  0
 64 70  1  0
 65 64  1  0
 66 65  2  0
 67 68  1  0
 67 61  2  0
 68 63  2  0
 69 62  1  0
 70 60  1  0
 72 74  2  0
 73 72  1  0
 75 73  1  0
 76 85  2  0
 76 81  1  0
 77 73  1  0
 77 81  1  0
 78 77  1  0
 79 80  1  0
 79 78  1  0
 80 76  1  0
 81 82  2  0
 82 83  1  0
 84 83  2  0
 85 84  1  0
 86 60  1  0
 86 87  1  0
 86 96  1  0
 87 90  1  0
 88 92  1  0
 88 87  1  0
 89 88  2  0
 92 91  1  0
 94 92  1  0
 94 95  1  0
 94 93  1  0
 96 99  1  1
 96 97  1  0
 98 96  1  0
M  ISO  4  17 100  29 100  58 101  59 101
M  END
>  <TORSDO>  (53) 
F 18

>  <SCORE>  (53) 
-15.060

>  <name>  (53) 
52

>  <ligand_id>  (53) 
52

>  <original_smiles>  (53) 
[H]c1c([H])c([H])c2c(c1[H])C([H])([H])C([H])([H])C([H])([H])C2([H])N([H])C(=O)C1([H])N(C(=O)C([H])(N([H])C(=O)C([H])(N([H])C([H])([H])[H])C([H])([H])[H])C(C([H])([H])[H])(C([H])([H])[H])C([H])([H])[H])C([H])([H])c2c([H])c(OC([H])([H])c3c(C([H])([H])[H])nc(C([H])([H])[H])c(C4([H])C([H])([H])C([H])([H])[N+]([H])(C([H])([H])[H])C4([H])C4(C([H])([H])[H])C([H])([H])N(C(=O)N5C([H])([H])C([H])([H])C([H])([H])C([H])(n6nc(-c7c([H])c([H])c(Oc8c([H])c([H])c(F)c([H])c8F)c([H])c7[H])c(C(=O)N([H])[H])c6N([H])[H])C5([H])[H])C4([H])[H])c3C([H])([H])[H])c([H])c([H])c2C1([H])[H]

>  <smiles>  (53) 
[H]c1c([H])c([H])c2c(c1[H])C([H])([H])C([H])([H])C([H])([H])C2([H])N([H])C(=O)C1([H])N(C(=O)C([H])(N([H])C(=O)C([H])(N([H])C([H])([H])[H])C([H])([H])[H])C(C([H])([H])[H])(C([H])([H])[H])C([H])([H])[H])C([H])([H])c2c([H])c(OC([H])([H])c3c(C([H])([H])[H])nc(C([H])([H])[H])c(C4([H])C([H])([H])C([H])([H])[N+]([H])(C([H])([H])[H])C4([H])C4(C([H])([H])[H])C([H])([H])N(C(=O)N5C([H])([H])C([H])([H])C([H])([H])C([H])(n6nc(-c7c([H])c([H])c(Oc8c([H])c([H])c(F)c([H])c8F)c([H])c7[H])c(C(=O)N([H])[H])c6N([H])[H])C5([H])[H])C4([H])[H])c3C([H])([H])[H])c([H])c([H])c2C1([H])[H]

$$$$
53:0:0
     RDKit          3D

 94104  0  0  1  0  0  0  0  0999 V2000
  -29.2200  -22.1280   21.0640 C   0  0  0  0  0  3  0  0  0  0  0  0
  -29.3330  -20.7160   21.1520 C   0  0  0  0  0  3  0  0  0  0  0  0
  -29.7970  -22.0260   18.7210 C   0  0  0  0  0  3  0  0  0  0  0  0
  -29.4510  -22.8070   19.8440 C   0  0  0  0  0  0  0  0  0  0  0  0
  -29.9130  -20.6180   18.7980 C   0  0  0  0  0  0  0  0  0  0  0  0
  -29.6860  -19.9360   20.0190 C   0  0  0  0  0  0  0  0  0  0  0  0
  -28.4930  -24.8580   18.5830 C   0  0  0  0  0  2  0  0  0  0  0  0
  -29.3760  -24.3220   19.6920 C   0  0  0  0  0  3  0  0  0  0  0  0
  -28.1670  -25.1990   20.0150 C   0  0  0  0  0  3  0  0  0  0  0  0
  -28.3420  -26.6220   20.2160 O   0  0  0  0  0  0  0  0  0  0  0  0
  -24.5720  -31.8790   23.2340 C   0  0  0  0  0  0  0  0  0  0  0  0
  -27.1870  -27.3910   20.1700 C   0  0  0  0  0  0  0  0  0  0  0  0
  -23.3580  -30.4710   21.6080 C   0  0  0  0  0  3  0  0  0  0  0  0
  -24.8000  -28.9280   20.1800 C   0  0  0  0  0  0  0  0  0  0  0  0
  -25.8870  -30.8200   21.3970 C   0  0  0  0  0  2  0  0  0  0  0  0
  -25.9670  -29.4460   20.7580 C   0  0  0  0  0  0  0  0  0  0  0  0
  -27.1640  -28.6860   20.7470 C   0  0  0  0  0  3  0  0  0  0  0  0
  -25.9990  -26.9040   19.5740 C   0  0  0  0  0  3  0  0  0  0  0  0
  -24.8130  -27.6580   19.5840 C   0  0  0  0  0  3  0  0  0  0  0  0
  -23.5580  -29.7870   20.2300 C   0  0  0  0  0  2  0  0  0  0  0  0
  -24.6250  -31.0730   22.1370 N   0  0  0  0  0  0  0  0  0  0  0  0
  -23.4930  -32.1560   23.7780 O   0  0  0  0  0  0  0  0  0  0  0  0
  -22.7100  -29.4530   22.5750 C   0  0  0  0  0  0  0  0  0  0  0  0
  -21.3850  -29.2670   22.4540 N   0  0  0  0  0  0  0  0  0  0  0  0
  -23.3980  -28.8330   23.3910 O   0  0  0  0  0  0  0  0  0  0  0  0
  -20.8920  -29.8190   21.7660 H   0  0  0  0  0  0  0  0  0  0  0  0
  -18.0150  -28.0690   22.9690 C   0  0  0  0  0  0  0  0  0  0  0  0
  -20.5730  -28.3340   23.2330 C   0  0  0  0  0  3  0  0  0  0  0  0
  -20.6770  -26.8980   22.6670 C   0  0  0  0  0  2  0  0  0  0  0  0
  -19.5720  -26.5660   21.6580 C   0  0  0  0  0  2  0  0  0  0  0  0
  -18.1920  -26.7140   22.3040 C   0  0  0  0  0  2  0  0  0  0  0  0
  -19.1340  -28.8360   23.3900 C   0  0  0  0  0  0  0  0  0  0  0  0
  -18.9140  -30.1050   23.9700 C   0  0  0  0  0  3  0  0  0  0  0  0
  -17.6080  -30.6050   24.1350 C   0  0  0  0  0  3  0  0  0  0  0  0
  -16.5040  -29.8340   23.7300 C   0  0  0  0  0  3  0  0  0  0  0  0
  -16.7090  -28.5690   23.1520 C   0  0  0  0  0  3  0  0  0  0  0  0
  -25.8610  -32.5140   23.8420 C   0  0  0  0  0  3  0  0  0  0  0  0
  -26.3940  -31.7450   25.1140 C   0  0  1  0  0  0  0  0  0  0  0  0
  -25.3110  -31.5020   26.1910 C   0  0  0  0  0  1  0  0  0  0  0  0
  -26.9830  -30.3710   24.7180 C   0  0  0  0  0  1  0  0  0  0  0  0
  -27.5460  -32.5460   25.7660 C   0  0  0  0  0  1  0  0  0  0  0  0
  -25.5520  -33.9120   24.1730 N   0  0  0  0  0  0  0  0  0  0  0  0
  -25.8780  -34.9640   23.4100 C   0  0  0  0  0  0  0  0  0  0  0  0
  -26.5420  -34.8610   22.3750 O   0  0  0  0  0  0  0  0  0  0  0  0
  -24.9570  -34.0680   24.9730 H   0  0  0  0  0  0  0  0  0  0  0  0
  -24.1440  -36.7550   23.0620 C   0  0  0  0  0  1  0  0  0  0  0  0
  -25.3900  -36.3520   23.8680 C   0  0  0  0  0  3  0  0  0  0  0  0
  -27.5260  -37.2400   24.6920 C   0  0  0  0  0  1  0  0  0  0  0  0
  -26.4210  -37.4070   23.7520 N   0  0  0  0  0  0  0  0  0  0  0  0
  -26.0140  -38.3260   23.9030 H   0  0  0  0  0  0  0  0  0  0  0  0
  -31.8000  -19.7140   17.3660 C   0  0  0  0  0  1  0  0  0  0  0  0
  -30.2840  -19.8480   17.5400 C   0  0  0  0  0  2  0  0  0  0  0  0
  -29.8440  -18.5540   20.0170 O   0  0  0  0  0  0  0  0  0  0  0  0
  -30.7300  -14.4780   20.1470 C   0  0  0  0  0  0  0  0  0  0  0  0
  -30.2780  -12.3770   18.9230 C   0  0  0  0  0  2  0  0  0  0  0  0
  -29.2730  -12.6250   17.7820 C   0  0  0  0  0  2  0  0  0  0  0  0
  -27.8290  -12.4810   18.2950 C   0  0  0  0  0  2  0  0  0  0  0  0
  -27.5780  -13.2850   19.5990 C   0  0  0  0  0  3  0  0  0  0  0  0
  -28.6960  -13.0340   20.6390 C   0  0  0  0  0  2  0  0  0  0  0  0
  -29.9850  -13.3410   20.0000 N   0  0  0  0  0  0  0  0  0  0  0  0
  -31.8140  -14.6140   19.5730 O   0  0  0  0  0  0  0  0  0  0  0  0
  -30.4720  -17.5560   22.1660 C   0  0  0  0  0  2  0  0  0  0  0  0
  -31.2100  -16.2810   21.7470 C   0  0  0  0  0  2  0  0  0  0  0  0
  -29.1200  -16.3070   20.6230 C   0  0  0  0  0  2  0  0  0  0  0  0
  -29.3890  -17.7500   21.1130 C   0  0  0  0  0  3  0  0  0  0  0  0
  -30.2680  -15.4520   20.9780 N   0  0  0  0  0  0  0  0  0  0  0  0
  -25.2330  -13.9040   20.4540 C   0  0  0  0  0  0  0  0  0  0  0  0
  -24.1770  -13.1360   20.8650 C   0  0  0  0  0  0  0  0  0  0  0  0
  -24.6190  -11.7800   20.7810 C   0  0  0  0  0  0  0  0  0  0  0  0
  -26.2530  -13.0160   20.1490 N   0  0  0  0  0  0  0  0  0  0  0  0
  -25.8900  -11.7320   20.4020 N   0  0  0  0  0  0  0  0  0  0  0  0
  -23.8870  -10.5230   20.9810 C   0  0  0  0  0  0  0  0  0  0  0  0
  -24.3380   -9.5420   21.8930 C   0  0  0  0  0  3  0  0  0  0  0  0
  -23.6060   -8.3510   22.0810 C   0  0  0  0  0  3  0  0  0  0  0  0
  -22.4100   -8.1300   21.3580 C   0  0  0  0  0  0  0  0  0  0  0  0
  -21.9790   -9.0980   20.4340 C   0  0  0  0  0  3  0  0  0  0  0  0
  -22.7110  -10.2820   20.2440 C   0  0  0  0  0  3  0  0  0  0  0  0
  -21.6480   -6.9920   21.4570 O   0  0  0  0  0  0  0  0  0  0  0  0
  -21.6040   -6.2530   22.6130 C   0  0  0  0  0  0  0  0  0  0  0  0
  -21.2010   -6.8190   23.8430 C   0  0  0  0  0  3  0  0  0  0  0  0
  -21.1040   -6.0080   24.9920 C   0  0  0  0  0  3  0  0  0  0  0  0
  -21.4000   -4.6350   24.9120 C   0  0  0  0  0  0  0  0  0  0  0  0
  -21.7970   -4.0690   23.6870 C   0  0  0  0  0  3  0  0  0  0  0  0
  -21.8960   -4.8760   22.5400 C   0  0  0  0  0  0  0  0  0  0  0  0
  -22.2570   -4.3230   21.3580 F   0  0  0  0  0  0  0  0  0  0  0  0
  -21.3000   -3.8540   26.0130 F   0  0  0  0  0  0  0  0  0  0  0  0
  -22.8030  -13.6240   21.2240 C   0  0  0  0  0  0  0  0  0  0  0  0
  -22.1150  -12.9160   22.1130 N   0  0  0  0  0  0  0  0  0  0  0  0
  -22.3520  -14.6660   20.7530 O   0  0  0  0  0  0  0  0  0  0  0  0
  -22.4930  -12.0710   22.5150 H   0  0  0  0  0  0  0  0  0  0  0  0
  -21.1950  -13.2240   22.3970 H   0  0  0  0  0  0  0  0  0  0  0  0
  -25.4030  -15.2760   20.2940 N   0  0  0  0  0  0  0  0  0  0  0  0
  -24.6480  -15.9340   20.4520 H   0  0  0  0  0  0  0  0  0  0  0  0
  -26.2290  -15.7110   19.9030 H   0  0  0  0  0  0  0  0  0  0  0  0
  1  2  1  0
  3  5  2  0
  3  4  1  0
  4  1  2  0
  5  6  1  0
  6  2  2  0
  7  8  1  0
  7  9  1  0
  8  4  1  0
  8  9  1  0
  9 10  1  0
 11 22  2  0
 12 10  1  0
 12 17  1  0
 13 21  1  0
 13 23  1  0
 14 20  1  0
 14 16  1  0
 15 21  1  0
 16 15  1  0
 17 16  2  0
 18 19  1  0
 18 12  2  0
 19 14  2  0
 20 13  1  0
 21 11  1  0
 23 25  2  0
 24 23  1  0
 26 24  1  0
 27 36  2  0
 27 32  1  0
 28 24  1  0
 28 32  1  0
 29 28  1  0
 30 31  1  0
 30 29  1  0
 31 27  1  0
 32 33  2  0
 33 34  1  0
 35 34  2  0
 36 35  1  0
 37 11  1  0
 37 42  1  0
 37 38  1  0
 38 41  1  1
 38 39  1  0
 40 38  1  0
 42 45  1  0
 43 47  1  0
 43 42  1  0
 44 43  2  0
 47 46  1  0
 49 47  1  0
 49 50  1  0
 49 48  1  0
 51 52  1  0
 52  5  1  0
 53  6  1  0
 54 66  1  0
 55 60  1  0
 56 57  1  0
 56 55  1  0
 58 57  1  0
 58 70  1  0
 58 59  1  0
 60 54  1  0
 60 59  1  0
 61 54  2  0
 63 62  1  0
 64 66  1  0
 64 65  1  0
 65 53  1  0
 65 62  1  0
 66 63  1  0
 67 68  2  0
 68 87  1  0
 69 68  1  0
 69 72  1  0
 70 71  1  0
 70 67  1  0
 71 69  2  0
 72 73  1  0
 73 74  2  0
 75 78  1  0
 75 74  1  0
 76 75  2  0
 77 76  1  0
 77 72  2  0
 78 79  1  0
 79 80  1  0
 80 81  2  0
 82 81  1  0
 82 86  1  0
 83 82  2  0
 84 79  2  0
 84 83  1  0
 85 84  1  0
 87 88  1  0
 88 91  1  0
 88 90  1  0
 89 87  2  0
 92 93  1  0
 92 67  1  0
 94 92  1  0
M  ISO  4   9 101  10 101  54 100  66 100
M  END
>  <TORSDO>  (54) 
F 19

>  <SCORE>  (54) 
-14.345

>  <name>  (54) 
53

>  <ligand_id>  (54) 
53

>  <original_smiles>  (54) 
[H]c1c([H])c([H])c2c(c1[H])C([H])([H])C([H])([H])C([H])([H])C2([H])N([H])C(=O)C1([H])N(C(=O)C([H])(N([H])C(=O)C([H])(N([H])C([H])([H])[H])C([H])([H])[H])C(C([H])([H])[H])(C([H])([H])[H])C([H])([H])[H])C([H])([H])c2c([H])c(OC3([H])C([H])([H])C3([H])c3c([H])c([H])c(OC4([H])C([H])([H])N(C(=O)N5C([H])([H])C([H])([H])C([H])([H])C([H])(n6nc(-c7c([H])c([H])c(Oc8c([H])c([H])c(F)c([H])c8F)c([H])c7[H])c(C(=O)N([H])[H])c6N([H])[H])C5([H])[H])C([H])([H])C4([H])[H])c(C([H])([H])C([H])([H])[H])c3[H])c([H])c([H])c2C1([H])[H]

>  <smiles>  (54) 
[H]c1c([H])c([H])c2c(c1[H])C([H])([H])C([H])([H])C([H])([H])C2([H])N([H])C(=O)C1([H])N(C(=O)C([H])(N([H])C(=O)C([H])(N([H])C([H])([H])[H])C([H])([H])[H])C(C([H])([H])[H])(C([H])([H])[H])C([H])([H])[H])C([H])([H])c2c([H])c(OC3([H])C([H])([H])C3([H])c3c([H])c([H])c(OC4([H])C([H])([H])N(C(=O)N5C([H])([H])C([H])([H])C([H])([H])C([H])(n6nc(-c7c([H])c([H])c(Oc8c([H])c([H])c(F)c([H])c8F)c([H])c7[H])c(C(=O)N([H])[H])c6N([H])[H])C5([H])[H])C([H])([H])C4([H])[H])c(C([H])([H])C([H])([H])[H])c3[H])c([H])c([H])c2C1([H])[H]

$$$$
54:0:0
     RDKit          3D

106119  0  0  1  0  0  0  0  0999 V2000
  -32.9140  -17.5450   18.1910 C   0  0  0  0  0  3  0  0  0  0  0  0
  -32.0030  -18.6140   18.0590 C   0  0  0  0  0  3  0  0  0  0  0  0
  -33.8600  -17.5190   19.2340 C   0  0  0  0  0  0  0  0  0  0  0  0
  -33.8800  -18.5900   20.1710 C   0  0  0  0  0  0  0  0  0  0  0  0
  -32.8860  -19.6120   20.1050 C   0  0  0  0  0  0  0  0  0  0  0  0
  -31.9830  -19.6590   19.0060 C   0  0  0  0  0  0  0  0  0  0  0  0
  -31.2890  -14.6200   18.9140 C   0  0  0  0  0  0  0  0  0  0  0  0
  -30.4600  -12.6060   17.9290 C   0  0  0  0  0  2  0  0  0  0  0  0
  -29.2670  -12.8210   16.9930 C   0  0  0  0  0  2  0  0  0  0  0  0
  -27.9610  -12.6300   17.7640 C   0  0  0  0  0  2  0  0  0  0  0  0
  -27.8950  -13.5600   18.9990 C   0  0  0  0  0  3  0  0  0  0  0  0
  -29.2010  -13.4940   19.8510 C   0  0  0  0  0  2  0  0  0  0  0  0
  -30.4300  -13.5790   19.0230 N   0  0  0  0  0  0  0  0  0  0  0  0
  -31.1680  -15.4930   18.0690 O   0  0  0  0  0  0  0  0  0  0  0  0
  -33.2320  -14.6310   20.4380 C   0  0  0  0  0  2  0  0  0  0  0  0
  -33.5870  -14.3430   18.1210 C   0  0  0  0  0  2  0  0  0  0  0  0
  -34.8850  -16.4030   19.3000 C   0  0  0  0  0  3  0  0  0  0  0  0
  -34.6280  -15.1420   20.1110 C   0  0  0  0  0  3  0  0  0  0  0  0
  -34.8140  -15.0330   18.6380 C   0  0  0  0  0  3  0  0  0  0  0  0
  -32.5630  -14.2590   19.1910 N   0  0  0  0  0  0  0  0  0  0  0  0
  -25.7890  -14.1620   20.3740 C   0  0  0  0  0  0  0  0  0  0  0  0
  -24.7790  -13.3980   20.8920 C   0  0  0  0  0  0  0  0  0  0  0  0
  -25.1020  -12.0410   20.5680 C   0  0  0  0  0  0  0  0  0  0  0  0
  -26.6790  -13.2800   19.7750 N   0  0  0  0  0  0  0  0  0  0  0  0
  -26.2740  -11.9890   19.9430 N   0  0  0  0  0  0  0  0  0  0  0  0
  -24.3360  -10.8030   20.7670 C   0  0  0  0  0  0  0  0  0  0  0  0
  -24.8040   -9.7750   21.6180 C   0  0  0  0  0  3  0  0  0  0  0  0
  -24.0430   -8.6030   21.8160 C   0  0  0  0  0  3  0  0  0  0  0  0
  -22.7960   -8.4500   21.1660 C   0  0  0  0  0  0  0  0  0  0  0  0
  -22.3410   -9.4600   20.3010 C   0  0  0  0  0  3  0  0  0  0  0  0
  -23.1040  -10.6230   20.1000 C   0  0  0  0  0  3  0  0  0  0  0  0
  -22.0020   -7.3350   21.2710 O   0  0  0  0  0  0  0  0  0  0  0  0
  -21.9080   -6.6260   22.4400 C   0  0  0  0  0  0  0  0  0  0  0  0
  -21.4890   -7.2240   23.6470 C   0  0  0  0  0  3  0  0  0  0  0  0
  -21.3520   -6.4440   24.8100 C   0  0  0  0  0  3  0  0  0  0  0  0
  -21.6200   -5.0630   24.7710 C   0  0  0  0  0  0  0  0  0  0  0  0
  -22.0370   -4.4640   23.5680 C   0  0  0  0  0  3  0  0  0  0  0  0
  -22.1800   -5.2440   22.4070 C   0  0  0  0  0  0  0  0  0  0  0  0
  -22.5660   -4.6560   21.2490 F   0  0  0  0  0  0  0  0  0  0  0  0
  -21.4780   -4.3080   25.8870 F   0  0  0  0  0  0  0  0  0  0  0  0
  -23.5370  -13.8920   21.5810 C   0  0  0  0  0  0  0  0  0  0  0  0
  -22.9930  -13.1010   22.4980 N   0  0  0  0  0  0  0  0  0  0  0  0
  -23.0770  -15.0090   21.3460 O   0  0  0  0  0  0  0  0  0  0  0  0
  -23.3880  -12.1920   22.6980 H   0  0  0  0  0  0  0  0  0  0  0  0
  -22.1750  -13.4000   23.0110 H   0  0  0  0  0  0  0  0  0  0  0  0
  -26.0180  -15.5370   20.3460 N   0  0  0  0  0  0  0  0  0  0  0  0
  -25.3520  -16.1990   20.7260 H   0  0  0  0  0  0  0  0  0  0  0  0
  -26.8000  -15.9760   19.8740 H   0  0  0  0  0  0  0  0  0  0  0  0
  -35.8630  -19.8880   21.3240 C   0  0  0  0  0  2  0  0  0  0  0  0
  -36.4420  -18.5560   20.9460 C   0  0  0  0  0  2  0  0  0  0  0  0
  -34.9570  -18.6710   21.2360 C   0  0  0  0  0  3  0  0  0  0  0  0
  -32.3300  -20.2280   22.5810 C   0  0  0  0  0  2  0  0  0  0  0  0
  -31.5390  -21.2210   21.7790 C   0  0  0  0  0  2  0  0  0  0  0  0
  -32.8240  -20.6440   21.2100 C   0  0  0  0  0  3  0  0  0  0  0  0
  -31.1060  -20.7640   18.8920 N   0  0  0  0  0  0  0  0  0  0  0  0
  -30.9020  -21.1810   19.7920 H   0  0  0  0  0  0  0  0  0  0  0  0
  -30.4510  -21.8700   16.7140 C   0  0  0  0  0  2  0  0  0  0  0  0
  -28.7440  -21.3550   18.4540 C   0  0  0  0  0  2  0  0  0  0  0  0
  -30.3720  -23.3660   17.1170 C   0  0  0  0  0  2  0  0  0  0  0  0
  -28.7210  -22.8420   18.8600 C   0  0  0  0  0  2  0  0  0  0  0  0
  -30.0810  -20.8970   17.8530 C   0  0  0  0  0  3  0  0  0  0  0  0
  -29.0700  -23.7630   17.7390 N   0  0  1  0  0  4  0  0  0  0  0  0
  -28.3560  -23.6470   17.0320 H   0  0  0  0  0  0  0  0  0  0  0  0
  -29.0920  -25.2180   18.1190 C   0  0  0  0  0  2  0  0  0  0  0  0
  -27.8090  -25.8230   18.7590 C   0  0  0  0  0  2  0  0  0  0  0  0
  -27.2400  -26.8010   17.9010 O   0  0  0  0  0  0  0  0  0  0  0  0
  -24.5270  -31.2480   22.8210 C   0  0  0  0  0  0  0  0  0  0  0  0
  -26.1650  -27.4950   18.4040 C   0  0  0  0  0  0  0  0  0  0  0  0
  -22.9210  -30.3130   21.1870 C   0  0  0  0  0  3  0  0  0  0  0  0
  -23.9480  -29.0440   19.2280 C   0  0  0  0  0  0  0  0  0  0  0  0
  -25.3900  -30.5690   20.5860 C   0  0  0  0  0  2  0  0  0  0  0  0
  -25.2330  -29.3680   19.6760 C   0  0  0  0  0  0  0  0  0  0  0  0
  -26.3470  -28.5910   19.2760 C   0  0  0  0  0  3  0  0  0  0  0  0
  -24.8640  -27.1690   17.9720 C   0  0  0  0  0  3  0  0  0  0  0  0
  -23.7520  -27.9360   18.3840 C   0  0  0  0  0  3  0  0  0  0  0  0
  -22.8180  -29.9430   19.6850 C   0  0  0  0  0  2  0  0  0  0  0  0
  -24.3070  -30.7130   21.5870 N   0  0  0  0  0  0  0  0  0  0  0  0
  -23.5910  -31.4500   23.6060 O   0  0  0  0  0  0  0  0  0  0  0  0
  -22.3560  -29.1380   22.0190 C   0  0  0  0  0  0  0  0  0  0  0  0
  -21.0200  -29.0070   22.0350 N   0  0  0  0  0  0  0  0  0  0  0  0
  -23.1090  -28.3580   22.6060 O   0  0  0  0  0  0  0  0  0  0  0  0
  -20.4720  -29.6910   21.5340 H   0  0  0  0  0  0  0  0  0  0  0  0
  -17.6950  -27.7310   22.6420 C   0  0  0  0  0  0  0  0  0  0  0  0
  -20.2690  -27.9540   22.7170 C   0  0  0  0  0  3  0  0  0  0  0  0
  -20.3070  -26.6370   21.9100 C   0  0  0  0  0  2  0  0  0  0  0  0
  -19.1120  -26.4740   20.9640 C   0  0  0  0  0  2  0  0  0  0  0  0
  -17.7960  -26.5070   21.7480 C   0  0  0  0  0  2  0  0  0  0  0  0
  -18.8570  -28.4180   23.0840 C   0  0  0  0  0  0  0  0  0  0  0  0
  -18.7060  -29.5720   23.8850 C   0  0  0  0  0  3  0  0  0  0  0  0
  -17.4270  -30.0350   24.2480 C   0  0  0  0  0  3  0  0  0  0  0  0
  -16.2820  -29.3400   23.8200 C   0  0  0  0  0  3  0  0  0  0  0  0
  -16.4170  -28.1900   23.0230 C   0  0  0  0  0  3  0  0  0  0  0  0
  -25.9590  -31.6480   23.2970 C   0  0  0  0  0  3  0  0  0  0  0  0
  -25.8610  -32.9660   23.9370 N   0  0  0  0  0  0  0  0  0  0  0  0
  -26.2210  -34.1190   23.3630 C   0  0  0  0  0  0  0  0  0  0  0  0
  -26.7500  -34.1760   22.2480 O   0  0  0  0  0  0  0  0  0  0  0  0
  -25.3930  -32.9980   24.8320 H   0  0  0  0  0  0  0  0  0  0  0  0
  -24.6860  -36.0960   23.6000 C   0  0  0  0  0  1  0  0  0  0  0  0
  -25.9520  -35.4170   24.1470 C   0  0  0  0  0  3  0  0  0  0  0  0
  -28.2480  -35.9090   24.8640 C   0  0  0  0  0  1  0  0  0  0  0  0
  -27.0820  -36.3700   24.1160 N   0  0  0  0  0  0  0  0  0  0  0  0
  -26.8050  -37.2740   24.4890 H   0  0  0  0  0  0  0  0  0  0  0  0
  -26.6080  -30.5960   24.2770 C   0  0  1  0  0  0  0  0  0  0  0  0
  -25.6990  -30.2210   25.4700 C   0  0  0  0  0  1  0  0  0  0  0  0
  -26.9640  -29.2910   23.5240 C   0  0  0  0  0  1  0  0  0  0  0  0
  -27.9340  -31.1540   24.8470 C   0  0  0  0  0  1  0  0  0  0  0  0
  1  3  1  0
  2  1  2  0
  2  6  1  0
  3  4  2  0
  4 51  1  0
  5  4  1  0
  5 54  1  0
  6  5  2  0
  7 13  1  0
  7 20  1  0
  8 13  1  0
  9 10  1  0
  9  8  1  0
 11 10  1  0
 11 24  1  0
 11 12  1  0
 13 12  1  0
 14  7  2  0
 16 20  1  0
 17  3  1  0
 17 18  1  0
 18 15  1  0
 19 16  1  0
 19 17  1  0
 19 18  1  0
 20 15  1  0
 21 22  2  0
 22 41  1  0
 23 26  1  0
 23 22  1  0
 24 25  1  0
 24 21  1  0
 25 23  2  0
 26 27  1  0
 27 28  2  0
 29 32  1  0
 29 28  1  0
 30 29  2  0
 31 30  1  0
 31 26  2  0
 32 33  1  0
 33 34  1  0
 34 35  2  0
 36 35  1  0
 36 40  1  0
 37 36  2  0
 38 33  2  0
 38 37  1  0
 39 38  1  0
 41 42  1  0
 42 44  1  0
 42 45  1  0
 43 41  2  0
 46 21  1  0
 46 47  1  0
 48 46  1  0
 50 51  1  0
 50 49  1  0
 51 49  1  0
 53 52  1  0
 54 53  1  0
 54 52  1  0
 55  6  1  0
 55 56  1  0
 57 59  1  0
 57 61  1  0
 58 60  1  0
 59 62  1  0
 61 58  1  0
 61 55  1  0
 62 64  1  0
 62 60  1  0
 62 63  1  6
 64 65  1  0
 66 68  1  0
 66 65  1  0
 67 78  2  0
 68 73  1  0
 69 77  1  0
 69 79  1  0
 70 72  1  0
 70 76  1  0
 71 77  1  0
 72 71  1  0
 73 72  2  0
 74 75  1  0
 74 68  2  0
 75 70  2  0
 76 69  1  0
 77 67  1  0
 79 80  1  0
 79 81  2  0
 82 80  1  0
 83 92  2  0
 83 88  1  0
 84 80  1  0
 84 88  1  0
 85 84  1  0
 86 87  1  0
 86 85  1  0
 87 83  1  0
 88 89  2  0
 89 90  1  0
 91 90  2  0
 92 91  1  0
 93 67  1  0
 93 94  1  0
 93103  1  0
 94 97  1  0
 95 94  1  0
 95 99  1  0
 96 95  2  0
 99 98  1  0
101 99  1  0
101102  1  0
101100  1  0
103106  1  1
103104  1  0
105103  1  0
M  ISO  4   7 100  20 100  65 101  66 101
M  END
>  <TORSDO>  (55) 
F 22

>  <SCORE>  (55) 
-7.158

>  <name>  (55) 
54

>  <ligand_id>  (55) 
54

>  <original_smiles>  (55) 
[H]c1c([H])c([H])c2c(c1[H])C([H])([H])C([H])([H])C([H])([H])C2([H])N([H])C(=O)C1([H])N(C(=O)C([H])(N([H])C(=O)C([H])(N([H])C([H])([H])[H])C([H])([H])[H])C(C([H])([H])[H])(C([H])([H])[H])C([H])([H])[H])C([H])([H])c2c([H])c(OC([H])([H])C([H])([H])[N+]3([H])C([H])([H])C([H])([H])C([H])(N([H])c4c([H])c([H])c(C5([H])C6([H])C([H])([H])N(C(=O)N7C([H])([H])C([H])([H])C([H])([H])C([H])(n8nc(-c9c([H])c([H])c(Oc%10c([H])c([H])c(F)c([H])c%10F)c([H])c9[H])c(C(=O)N([H])[H])c8N([H])[H])C7([H])[H])C([H])([H])C56[H])c(C5([H])C([H])([H])C5([H])[H])c4C4([H])C([H])([H])C4([H])[H])C([H])([H])C3([H])[H])c([H])c([H])c2C1([H])[H]

>  <smiles>  (55) 
[H]c1c([H])c([H])c2c(c1[H])C([H])([H])C([H])([H])C([H])([H])C2([H])N([H])C(=O)C1([H])N(C(=O)C([H])(N([H])C(=O)C([H])(N([H])C([H])([H])[H])C([H])([H])[H])C(C([H])([H])[H])(C([H])([H])[H])C([H])([H])[H])C([H])([H])c2c([H])c(OC([H])([H])C([H])([H])[N+]3([H])C([H])([H])C([H])([H])C([H])(N([H])c4c([H])c([H])c(C5([H])C6([H])C([H])([H])N(C(=O)N7C([H])([H])C([H])([H])C([H])([H])C([H])(n8nc(-c9c([H])c([H])c(Oc%10c([H])c([H])c(F)c([H])c%10F)c([H])c9[H])c(C(=O)N([H])[H])c8N([H])[H])C7([H])[H])C([H])([H])C56[H])c(C5([H])C([H])([H])C5([H])[H])c4C4([H])C([H])([H])C4([H])[H])C([H])([H])C3([H])[H])c([H])c([H])c2C1([H])[H]

$$$$
55:0:0
     RDKit          3D

 98108  0  0  1  0  0  0  0  0999 V2000
  -26.4840  -23.0270   19.0430 C   0  0  0  0  0  3  0  0  0  0  0  0
  -26.6890  -20.2290   18.6780 C   0  0  0  0  0  3  0  0  0  0  0  0
  -27.4570  -22.2800   19.7330 C   0  0  0  0  0  0  0  0  0  0  0  0
  -27.5930  -20.8910   19.5410 C   0  0  0  0  0  0  0  0  0  0  0  0
  -25.6380  -22.3730   18.1240 C   0  0  0  0  0  0  0  0  0  0  0  0
  -25.7240  -20.9680   17.9580 C   0  0  0  0  0  0  0  0  0  0  0  0
  -29.3870  -21.6040   20.9590 C   0  0  0  0  0  2  0  0  0  0  0  0
  -28.3220  -22.7610   20.8760 C   0  0  0  0  0  3  0  0  0  0  0  0
  -28.6430  -20.2780   20.4940 C   0  0  0  0  0  3  0  0  0  0  0  0
  -24.6000  -23.1890   17.3760 C   0  0  0  0  0  1  0  0  0  0  0  0
  -24.7610  -20.2230   17.0460 C   0  0  0  0  0  1  0  0  0  0  0  0
  -30.9020  -14.8930   20.2160 C   0  0  0  0  0  0  0  0  0  0  0  0
  -30.6820  -12.6300   19.2180 C   0  0  0  0  0  2  0  0  0  0  0  0
  -29.7320  -12.6980   18.0030 C   0  0  0  0  0  2  0  0  0  0  0  0
  -28.2660  -12.5330   18.4490 C   0  0  0  0  0  2  0  0  0  0  0  0
  -27.8980  -13.4320   19.6600 C   0  0  0  0  0  3  0  0  0  0  0  0
  -28.9680  -13.3610   20.7730 C   0  0  0  0  0  2  0  0  0  0  0  0
  -30.2610  -13.6840   20.1610 N   0  0  0  0  0  0  0  0  0  0  0  0
  -32.0850  -15.0050   19.8810 O   0  0  0  0  0  0  0  0  0  0  0  0
  -29.7750  -16.7370   19.0730 C   0  0  0  0  0  2  0  0  0  0  0  0
  -30.2200  -16.9730   21.4580 C   0  0  0  0  0  2  0  0  0  0  0  0
  -28.8720  -17.9930   19.2910 C   0  0  0  0  0  2  0  0  0  0  0  0
  -30.4030  -18.5130   21.1200 C   0  0  0  0  0  2  0  0  0  0  0  0
  -30.1160  -16.0200   20.3180 N   0  0  0  0  0  0  0  0  0  0  0  0
  -29.5240  -19.1000   20.0490 N   0  0  2  0  0  4  0  0  0  0  0  0
  -30.1610  -19.5150   19.3860 H   0  0  0  0  0  0  0  0  0  0  0  0
  -25.5380  -14.0250   20.4680 C   0  0  0  0  0  0  0  0  0  0  0  0
  -24.4680  -13.2490   20.8230 C   0  0  0  0  0  0  0  0  0  0  0  0
  -24.9110  -11.8950   20.7150 C   0  0  0  0  0  0  0  0  0  0  0  0
  -26.5620  -13.1430   20.1660 N   0  0  0  0  0  0  0  0  0  0  0  0
  -26.1930  -11.8530   20.3750 N   0  0  0  0  0  0  0  0  0  0  0  0
  -24.1710  -10.6350   20.8570 C   0  0  0  0  0  0  0  0  0  0  0  0
  -24.5130   -9.6880   21.8460 C   0  0  0  0  0  3  0  0  0  0  0  0
  -23.7770   -8.4920   21.9770 C   0  0  0  0  0  3  0  0  0  0  0  0
  -22.6820   -8.2340   21.1170 C   0  0  0  0  0  0  0  0  0  0  0  0
  -22.3600   -9.1700   20.1190 C   0  0  0  0  0  3  0  0  0  0  0  0
  -23.0980  -10.3590   19.9870 C   0  0  0  0  0  3  0  0  0  0  0  0
  -21.9260   -7.0880   21.1550 O   0  0  0  0  0  0  0  0  0  0  0  0
  -21.6280   -6.4590   22.3380 C   0  0  0  0  0  0  0  0  0  0  0  0
  -20.8880   -7.1010   23.3550 C   0  0  0  0  0  3  0  0  0  0  0  0
  -20.5450   -6.3970   24.5270 C   0  0  0  0  0  3  0  0  0  0  0  0
  -20.9280   -5.0500   24.6770 C   0  0  0  0  0  0  0  0  0  0  0  0
  -21.6590   -4.4090   23.6630 C   0  0  0  0  0  3  0  0  0  0  0  0
  -22.0050   -5.1100   22.4950 C   0  0  0  0  0  0  0  0  0  0  0  0
  -22.6910   -4.4810   21.5110 F   0  0  0  0  0  0  0  0  0  0  0  0
  -20.5890   -4.3710   25.7980 F   0  0  0  0  0  0  0  0  0  0  0  0
  -23.0860  -13.7320   21.1490 C   0  0  0  0  0  0  0  0  0  0  0  0
  -22.3670  -13.0050   21.9980 N   0  0  0  0  0  0  0  0  0  0  0  0
  -22.6510  -14.7860   20.6860 O   0  0  0  0  0  0  0  0  0  0  0  0
  -22.7320  -12.1530   22.3970 H   0  0  0  0  0  0  0  0  0  0  0  0
  -21.4390  -13.3100   22.2560 H   0  0  0  0  0  0  0  0  0  0  0  0
  -25.7200  -15.4010   20.3530 N   0  0  0  0  0  0  0  0  0  0  0  0
  -24.9650  -16.0610   20.5050 H   0  0  0  0  0  0  0  0  0  0  0  0
  -26.5750  -15.8340   20.0350 H   0  0  0  0  0  0  0  0  0  0  0  0
  -27.6020  -24.8840   22.1210 C   0  0  0  0  0  1  0  0  0  0  0  0
  -28.6390  -24.3290   21.1170 C   0  0  0  0  0  3  0  0  0  0  0  0
  -28.7890  -25.3910   19.9450 C   0  0  0  0  0  2  0  0  0  0  0  0
  -28.7200  -26.8220   20.3210 O   0  0  0  0  0  0  0  0  0  0  0  0
  -24.6280  -31.9340   23.3070 C   0  0  0  0  0  0  0  0  0  0  0  0
  -27.5330  -27.5660   20.2550 C   0  0  0  0  0  0  0  0  0  0  0  0
  -23.5400  -30.5350   21.5870 C   0  0  0  0  0  3  0  0  0  0  0  0
  -25.1010  -29.0690   20.1950 C   0  0  0  0  0  0  0  0  0  0  0  0
  -26.0700  -30.9530   21.5130 C   0  0  0  0  0  2  0  0  0  0  0  0
  -26.2250  -29.5950   20.8420 C   0  0  0  0  0  0  0  0  0  0  0  0
  -27.4420  -28.8530   20.8640 C   0  0  0  0  0  3  0  0  0  0  0  0
  -26.3780  -27.0830   19.5950 C   0  0  0  0  0  3  0  0  0  0  0  0
  -25.1780  -27.8180   19.5690 C   0  0  0  0  0  3  0  0  0  0  0  0
  -23.8340  -29.8980   20.2040 C   0  0  0  0  0  2  0  0  0  0  0  0
  -24.7620  -31.1580   22.1930 N   0  0  0  0  0  0  0  0  0  0  0  0
  -23.5160  -32.1580   23.8060 O   0  0  0  0  0  0  0  0  0  0  0  0
  -22.8810  -29.4710   22.4970 C   0  0  0  0  0  0  0  0  0  0  0  0
  -21.5630  -29.2710   22.3330 N   0  0  0  0  0  0  0  0  0  0  0  0
  -23.5550  -28.8310   23.3090 O   0  0  0  0  0  0  0  0  0  0  0  0
  -21.0810  -29.8420   21.6510 H   0  0  0  0  0  0  0  0  0  0  0  0
  -18.1850  -28.0590   22.7780 C   0  0  0  0  0  0  0  0  0  0  0  0
  -20.7450  -28.2940   23.0530 C   0  0  0  0  0  3  0  0  0  0  0  0
  -20.8400  -26.8980   22.3990 C   0  0  0  0  0  2  0  0  0  0  0  0
  -19.7340  -26.6350   21.3720 C   0  0  0  0  0  2  0  0  0  0  0  0
  -18.3540  -26.7480   22.0270 C   0  0  0  0  0  2  0  0  0  0  0  0
  -19.3080  -28.7910   23.2460 C   0  0  0  0  0  0  0  0  0  0  0  0
  -19.0970  -30.0200   23.9080 C   0  0  0  0  0  3  0  0  0  0  0  0
  -17.7960  -30.5170   24.1060 C   0  0  0  0  0  3  0  0  0  0  0  0
  -16.6860  -29.7810   23.6540 C   0  0  0  0  0  3  0  0  0  0  0  0
  -16.8820  -28.5530   22.9960 C   0  0  0  0  0  3  0  0  0  0  0  0
  -25.8620  -32.5950   23.9940 C   0  0  0  0  0  3  0  0  0  0  0  0
  -25.5190  -33.9980   24.2680 N   0  0  0  0  0  0  0  0  0  0  0  0
  -25.8840  -35.0340   23.5010 C   0  0  0  0  0  0  0  0  0  0  0  0
  -26.6160  -34.9130   22.5150 O   0  0  0  0  0  0  0  0  0  0  0  0
  -24.8760  -34.1650   25.0280 H   0  0  0  0  0  0  0  0  0  0  0  0
  -24.1600  -36.7950   22.9940 C   0  0  0  0  0  1  0  0  0  0  0  0
  -25.3530  -36.4270   23.8910 C   0  0  0  0  0  3  0  0  0  0  0  0
  -27.4080  -37.3740   24.8400 C   0  0  0  0  0  1  0  0  0  0  0  0
  -26.3780  -37.4920   23.8130 N   0  0  0  0  0  0  0  0  0  0  0  0
  -25.9500  -38.4100   23.8970 H   0  0  0  0  0  0  0  0  0  0  0  0
  -26.3020  -31.8600   25.3210 C   0  0  1  0  0  0  0  0  0  0  0  0
  -25.1390  -31.6180   26.3100 C   0  0  0  0  0  1  0  0  0  0  0  0
  -26.9450  -30.4900   25.0010 C   0  0  0  0  0  1  0  0  0  0  0  0
  -27.3800  -32.6960   26.0480 C   0  0  0  0  0  1  0  0  0  0  0  0
  1  3  1  0
  2  4  1  0
  3  8  1  0
  4  3  2  0
  4  9  1  0
  5  1  2  0
  6  5  1  0
  6  2  2  0
  8  7  1  0
  8 56  1  0
  9  7  1  0
 10  5  1  0
 11  6  1  0
 12 24  1  0
 13 18  1  0
 14 15  1  0
 14 13  1  0
 16 15  1  0
 16 30  1  0
 16 17  1  0
 18 12  1  0
 18 17  1  0
 19 12  2  0
 20 22  1  0
 20 24  1  0
 22 25  1  0
 23 21  1  0
 24 21  1  0
 25 26  1  6
 25  9  1  0
 25 23  1  0
 27 28  2  0
 28 47  1  0
 29 28  1  0
 29 32  1  0
 30 31  1  0
 30 27  1  0
 31 29  2  0
 32 33  1  0
 33 34  2  0
 35 38  1  0
 35 34  1  0
 36 35  2  0
 37 36  1  0
 37 32  2  0
 38 39  1  0
 39 44  2  0
 39 40  1  0
 40 41  2  0
 41 42  1  0
 42 46  1  0
 43 42  2  0
 44 43  1  0
 45 44  1  0
 47 48  1  0
 48 51  1  0
 48 50  1  0
 49 47  2  0
 52 27  1  0
 52 53  1  0
 54 52  1  0
 56 55  1  0
 57 58  1  0
 57 56  1  0
 59 70  2  0
 60 58  1  0
 60 65  1  0
 61 69  1  0
 61 71  1  0
 62 68  1  0
 62 64  1  0
 63 69  1  0
 64 65  2  0
 64 63  1  0
 66 60  2  0
 67 66  1  0
 67 62  2  0
 68 61  1  0
 69 59  1  0
 71 73  2  0
 72 71  1  0
 74 72  1  0
 75 84  2  0
 75 80  1  0
 76 72  1  0
 76 80  1  0
 77 76  1  0
 78 79  1  0
 78 77  1  0
 79 75  1  0
 80 81  2  0
 81 82  1  0
 83 82  2  0
 84 83  1  0
 85 59  1  0
 85 86  1  0
 85 95  1  0
 86 89  1  0
 87 91  1  0
 87 86  1  0
 88 87  2  0
 91 90  1  0
 93 91  1  0
 93 94  1  0
 93 92  1  0
 95 98  1  1
 95 96  1  0
 97 95  1  0
M  ISO  4  12 100  24 100  57 101  58 101
M  END
>  <TORSDO>  (56) 
F 18

>  <SCORE>  (56) 
-14.562

>  <name>  (56) 
55

>  <ligand_id>  (56) 
55

>  <original_smiles>  (56) 
[H]c1c([H])c([H])c2c(c1[H])C([H])([H])C([H])([H])C([H])([H])C2([H])N([H])C(=O)C1([H])N(C(=O)C([H])(N([H])C(=O)C([H])(N([H])C([H])([H])[H])C([H])([H])[H])C(C([H])([H])[H])(C([H])([H])[H])C([H])([H])[H])C([H])([H])c2c([H])c(OC([H])([H])C([H])(C([H])([H])[H])C3([H])c4c([H])c(C([H])([H])[H])c(C([H])([H])[H])c([H])c4C([H])([N+]4([H])C([H])([H])C([H])([H])N(C(=O)N5C([H])([H])C([H])([H])C([H])([H])C([H])(n6nc(-c7c([H])c([H])c(Oc8c([H])c([H])c(F)c([H])c8F)c([H])c7[H])c(C(=O)N([H])[H])c6N([H])[H])C5([H])[H])C([H])([H])C4([H])[H])C3([H])[H])c([H])c([H])c2C1([H])[H]

>  <smiles>  (56) 
[H]c1c([H])c([H])c2c(c1[H])C([H])([H])C([H])([H])C([H])([H])C2([H])N([H])C(=O)C1([H])N(C(=O)C([H])(N([H])C(=O)C([H])(N([H])C([H])([H])[H])C([H])([H])[H])C(C([H])([H])[H])(C([H])([H])[H])C([H])([H])[H])C([H])([H])c2c([H])c(OC([H])([H])C([H])(C([H])([H])[H])C3([H])c4c([H])c(C([H])([H])[H])c(C([H])([H])[H])c([H])c4C([H])([N+]4([H])C([H])([H])C([H])([H])N(C(=O)N5C([H])([H])C([H])([H])C([H])([H])C([H])(n6nc(-c7c([H])c([H])c(Oc8c([H])c([H])c(F)c([H])c8F)c([H])c7[H])c(C(=O)N([H])[H])c6N([H])[H])C5([H])[H])C([H])([H])C4([H])[H])C3([H])[H])c([H])c([H])c2C1([H])[H]

$$$$
56:0:0
     RDKit          3D

 97106  0  0  1  0  0  0  0  0999 V2000
  -29.6930  -22.6490   18.4270 C   0  0  0  0  0  2  0  0  0  0  0  0
  -30.0710  -23.2800   20.7680 C   0  0  0  0  0  2  0  0  0  0  0  0
  -29.5370  -22.1510   19.8720 C   0  0  0  0  0  3  0  0  0  0  0  0
  -30.0930  -24.1550   18.4610 C   0  0  1  0  0  0  0  0  0  0  0  0
  -29.9590  -24.6140   19.9720 C   0  0  2  0  0  0  0  0  0  0  0  0
  -31.5350  -24.2930   17.9170 C   0  0  0  0  0  1  0  0  0  0  0  0
  -29.2030  -24.9550   17.4810 C   0  0  0  0  0  1  0  0  0  0  0  0
  -31.0820  -25.5730   20.4460 C   0  0  0  0  0  1  0  0  0  0  0  0
  -29.4720  -18.3250   20.6860 C   0  0  0  0  0  3  0  0  0  0  0  0
  -31.7760  -19.0310   20.7070 C   0  0  0  0  0  3  0  0  0  0  0  0
  -30.0220  -20.6960   20.1890 C   0  0  0  0  0  0  0  0  0  0  0  0
  -30.8260  -18.0120   20.8990 C   0  0  0  0  0  0  0  0  0  0  0  0
  -29.0670  -19.6400   20.3430 C   0  0  0  0  0  0  0  0  0  0  0  0
  -31.4020  -20.3490   20.3530 C   0  0  0  0  0  0  0  0  0  0  0  0
  -27.5730  -19.8730   20.1680 C   0  0  0  0  0  1  0  0  0  0  0  0
  -32.5520  -21.3310   20.1750 C   0  0  0  0  0  1  0  0  0  0  0  0
  -31.2700  -16.6480   21.4460 C   0  0  0  0  0  2  0  0  0  0  0  0
  -31.1230  -14.4990   20.1720 C   0  0  0  0  0  0  0  0  0  0  0  0
  -30.7070  -12.3690   18.9850 C   0  0  0  0  0  2  0  0  0  0  0  0
  -29.7200  -12.5870   17.8210 C   0  0  0  0  0  2  0  0  0  0  0  0
  -28.2640  -12.4800   18.3130 C   0  0  0  0  0  2  0  0  0  0  0  0
  -27.9970  -13.3290   19.5840 C   0  0  0  0  0  3  0  0  0  0  0  0
  -29.0880  -13.0800   20.6500 C   0  0  0  0  0  2  0  0  0  0  0  0
  -30.3950  -13.3570   20.0310 N   0  0  0  0  0  0  0  0  0  0  0  0
  -32.2020  -14.6750   19.6010 O   0  0  0  0  0  0  0  0  0  0  0  0
  -30.5760  -15.4550   20.9460 N   0  0  0  0  0  0  0  0  0  0  0  0
  -29.6730  -15.2510   21.3420 H   0  0  0  0  0  0  0  0  0  0  0  0
  -25.6530  -14.0000   20.4060 C   0  0  0  0  0  0  0  0  0  0  0  0
  -24.5760  -13.2550   20.8050 C   0  0  0  0  0  0  0  0  0  0  0  0
  -24.9900  -11.8900   20.7290 C   0  0  0  0  0  0  0  0  0  0  0  0
  -26.6570  -13.0900   20.1150 N   0  0  0  0  0  0  0  0  0  0  0  0
  -26.2640  -11.8150   20.3650 N   0  0  0  0  0  0  0  0  0  0  0  0
  -24.2310  -10.6480   20.9250 C   0  0  0  0  0  0  0  0  0  0  0  0
  -24.6300   -9.6800   21.8730 C   0  0  0  0  0  3  0  0  0  0  0  0
  -23.8740   -8.5020   22.0560 C   0  0  0  0  0  3  0  0  0  0  0  0
  -22.7040   -8.2850   21.2900 C   0  0  0  0  0  0  0  0  0  0  0  0
  -22.3230   -9.2410   20.3330 C   0  0  0  0  0  3  0  0  0  0  0  0
  -23.0800  -10.4100   20.1480 C   0  0  0  0  0  3  0  0  0  0  0  0
  -21.9200   -7.1600   21.3820 O   0  0  0  0  0  0  0  0  0  0  0  0
  -21.7960   -6.4630   22.5580 C   0  0  0  0  0  0  0  0  0  0  0  0
  -21.2830   -7.0640   23.7280 C   0  0  0  0  0  3  0  0  0  0  0  0
  -21.1070   -6.2940   24.8940 C   0  0  0  0  0  3  0  0  0  0  0  0
  -21.4320   -4.9240   24.8910 C   0  0  0  0  0  0  0  0  0  0  0  0
  -21.9380   -4.3230   23.7240 C   0  0  0  0  0  3  0  0  0  0  0  0
  -22.1160   -5.0910   22.5610 C   0  0  0  0  0  0  0  0  0  0  0  0
  -22.5840   -4.5030   21.4330 F   0  0  0  0  0  0  0  0  0  0  0  0
  -21.2560   -4.1820   26.0090 F   0  0  0  0  0  0  0  0  0  0  0  0
  -23.2090  -13.7720   21.1460 C   0  0  0  0  0  0  0  0  0  0  0  0
  -22.5010  -13.0880   22.0390 N   0  0  0  0  0  0  0  0  0  0  0  0
  -22.7790  -14.8160   20.6560 O   0  0  0  0  0  0  0  0  0  0  0  0
  -22.8610  -12.2420   22.4540 H   0  0  0  0  0  0  0  0  0  0  0  0
  -21.5850  -13.4170   22.3110 H   0  0  0  0  0  0  0  0  0  0  0  0
  -25.8580  -15.3670   20.2470 N   0  0  0  0  0  0  0  0  0  0  0  0
  -25.1190  -16.0460   20.3960 H   0  0  0  0  0  0  0  0  0  0  0  0
  -26.7080  -15.7820   19.8850 H   0  0  0  0  0  0  0  0  0  0  0  0
  -28.6010  -25.3220   20.3050 C   0  0  0  0  0  2  0  0  0  0  0  0
  -28.6270  -26.7310   19.9910 O   0  0  0  0  0  0  0  0  0  0  0  0
  -24.6060  -31.7190   23.1290 C   0  0  0  0  0  0  0  0  0  0  0  0
  -27.4260  -27.4090   20.0120 C   0  0  0  0  0  0  0  0  0  0  0  0
  -23.4660  -30.3090   21.4480 C   0  0  0  0  0  3  0  0  0  0  0  0
  -24.9840  -28.8410   20.0190 C   0  0  0  0  0  0  0  0  0  0  0  0
  -25.9810  -30.7500   21.2880 C   0  0  0  0  0  2  0  0  0  0  0  0
  -26.1190  -29.3930   20.6260 C   0  0  0  0  0  0  0  0  0  0  0  0
  -27.3440  -28.6870   20.6140 C   0  0  0  0  0  3  0  0  0  0  0  0
  -26.2730  -26.8720   19.3990 C   0  0  0  0  0  3  0  0  0  0  0  0
  -25.0560  -27.5810   19.4000 C   0  0  0  0  0  3  0  0  0  0  0  0
  -23.7130  -29.6600   20.0610 C   0  0  0  0  0  2  0  0  0  0  0  0
  -24.7010  -30.9400   22.0140 N   0  0  0  0  0  0  0  0  0  0  0  0
  -23.5100  -31.9480   23.6600 O   0  0  0  0  0  0  0  0  0  0  0  0
  -22.8360  -29.2500   22.3830 C   0  0  0  0  0  0  0  0  0  0  0  0
  -21.5160  -29.0430   22.2490 N   0  0  0  0  0  0  0  0  0  0  0  0
  -23.5310  -28.6200   23.1840 O   0  0  0  0  0  0  0  0  0  0  0  0
  -21.0140  -29.6070   21.5760 H   0  0  0  0  0  0  0  0  0  0  0  0
  -18.1650  -27.7750   22.7180 C   0  0  0  0  0  0  0  0  0  0  0  0
  -20.7180  -28.0690   22.9930 C   0  0  0  0  0  3  0  0  0  0  0  0
  -20.8440  -26.6570   22.3760 C   0  0  0  0  0  2  0  0  0  0  0  0
  -19.7460  -26.3450   21.3540 C   0  0  0  0  0  2  0  0  0  0  0  0
  -18.3630  -26.4480   22.0040 C   0  0  0  0  0  2  0  0  0  0  0  0
  -19.2710  -28.5430   23.1680 C   0  0  0  0  0  0  0  0  0  0  0  0
  -19.0330  -29.7860   23.7940 C   0  0  0  0  0  3  0  0  0  0  0  0
  -17.7200  -30.2610   23.9740 C   0  0  0  0  0  3  0  0  0  0  0  0
  -16.6290  -29.4890   23.5420 C   0  0  0  0  0  3  0  0  0  0  0  0
  -16.8510  -28.2480   22.9200 C   0  0  0  0  0  3  0  0  0  0  0  0
  -25.8640  -32.3790   23.7770 C   0  0  0  0  0  3  0  0  0  0  0  0
  -26.3930  -31.6000   25.0430 C   0  0  1  0  0  0  0  0  0  0  0  0
  -25.2970  -31.2990   26.0920 C   0  0  0  0  0  1  0  0  0  0  0  0
  -27.0310  -30.2540   24.6280 C   0  0  0  0  0  1  0  0  0  0  0  0
  -27.5040  -32.4220   25.7370 C   0  0  0  0  0  1  0  0  0  0  0  0
  -25.5080  -33.7600   24.1270 N   0  0  0  0  0  0  0  0  0  0  0  0
  -25.8190  -34.8360   23.3910 C   0  0  0  0  0  0  0  0  0  0  0  0
  -26.5080  -34.7720   22.3680 O   0  0  0  0  0  0  0  0  0  0  0  0
  -24.8970  -33.8810   24.9220 H   0  0  0  0  0  0  0  0  0  0  0  0
  -24.0340  -36.5740   23.0460 C   0  0  0  0  0  1  0  0  0  0  0  0
  -25.2790  -36.1990   23.8650 C   0  0  0  0  0  3  0  0  0  0  0  0
  -27.3730  -37.1440   24.7360 C   0  0  0  0  0  1  0  0  0  0  0  0
  -26.2750  -37.2900   23.7830 N   0  0  0  0  0  0  0  0  0  0  0  0
  -25.8340  -38.1910   23.9490 H   0  0  0  0  0  0  0  0  0  0  0  0
  1  4  1  0
  1  3  1  0
  3 11  1  0
  3  2  1  0
  4  5  1  0
  5 56  1  0
  5  8  1  1
  5  2  1  0
  4  6  1  6
  7  4  1  0
  9 12  1  0
 10 12  2  0
 11 13  1  0
 11 14  2  0
 12 17  1  0
 13  9  2  0
 14 10  1  0
 15 13  1  0
 16 14  1  0
 18 26  1  0
 19 24  1  0
 20 21  1  0
 20 19  1  0
 22 21  1  0
 22 31  1  0
 22 23  1  0
 24 18  1  0
 24 23  1  0
 25 18  2  0
 26 27  1  0
 26 17  1  0
 28 29  2  0
 29 48  1  0
 30 29  1  0
 30 33  1  0
 31 32  1  0
 31 28  1  0
 32 30  2  0
 33 34  1  0
 34 35  2  0
 36 39  1  0
 36 35  1  0
 37 36  2  0
 38 37  1  0
 38 33  2  0
 39 40  1  0
 40 45  2  0
 40 41  1  0
 41 42  2  0
 43 42  1  0
 43 47  1  0
 44 43  2  0
 45 44  1  0
 46 45  1  0
 48 49  1  0
 49 52  1  0
 49 51  1  0
 50 48  2  0
 53 54  1  0
 53 28  1  0
 55 53  1  0
 57 59  1  0
 57 56  1  0
 58 69  2  0
 59 64  1  0
 60 68  1  0
 60 70  1  0
 61 67  1  0
 61 63  1  0
 62 68  1  0
 63 62  1  0
 64 63  2  0
 65 66  1  0
 65 59  2  0
 66 61  2  0
 67 60  1  0
 68 58  1  0
 70 72  2  0
 71 70  1  0
 73 71  1  0
 74 83  2  0
 74 79  1  0
 75 71  1  0
 75 79  1  0
 76 75  1  0
 77 78  1  0
 77 76  1  0
 78 74  1  0
 79 80  2  0
 80 81  1  0
 82 81  2  0
 83 82  1  0
 84 58  1  0
 84 89  1  0
 84 85  1  0
 85 88  1  1
 85 86  1  0
 87 85  1  0
 89 92  1  0
 90 94  1  0
 90 89  1  0
 91 90  2  0
 94 93  1  0
 96 94  1  0
 96 97  1  0
 96 95  1  0
M  ISO  4  18 100  26 100  56 101  57 101
M  END
>  <TORSDO>  (57) 
F 19

>  <SCORE>  (57) 
-14.044

>  <name>  (57) 
56

>  <ligand_id>  (57) 
56

>  <original_smiles>  (57) 
[H]c1c([H])c([H])c2c(c1[H])C([H])([H])C([H])([H])C([H])([H])C2([H])N([H])C(=O)C1([H])N(C(=O)C([H])(N([H])C(=O)C([H])(N([H])C([H])([H])[H])C([H])([H])[H])C(C([H])([H])[H])(C([H])([H])[H])C([H])([H])[H])C([H])([H])c2c([H])c(OC([H])([H])C3(C([H])([H])[H])C([H])([H])C([H])(c4c(C([H])([H])[H])c([H])c(C([H])([H])N([H])C(=O)N5C([H])([H])C([H])([H])C([H])([H])C([H])(n6nc(-c7c([H])c([H])c(Oc8c([H])c([H])c(F)c([H])c8F)c([H])c7[H])c(C(=O)N([H])[H])c6N([H])[H])C5([H])[H])c([H])c4C([H])([H])[H])C([H])([H])C3(C([H])([H])[H])C([H])([H])[H])c([H])c([H])c2C1([H])[H]

>  <smiles>  (57) 
[H]c1c([H])c([H])c2c(c1[H])C([H])([H])C([H])([H])C([H])([H])C2([H])N([H])C(=O)C1([H])N(C(=O)C([H])(N([H])C(=O)C([H])(N([H])C([H])([H])[H])C([H])([H])[H])C(C([H])([H])[H])(C([H])([H])[H])C([H])([H])[H])C([H])([H])c2c([H])c(OC([H])([H])C3(C([H])([H])[H])C([H])([H])C([H])(c4c(C([H])([H])[H])c([H])c(C([H])([H])N([H])C(=O)N5C([H])([H])C([H])([H])C([H])([H])C([H])(n6nc(-c7c([H])c([H])c(Oc8c([H])c([H])c(F)c([H])c8F)c([H])c7[H])c(C(=O)N([H])[H])c6N([H])[H])C5([H])[H])c([H])c4C([H])([H])[H])C([H])([H])C3(C([H])([H])[H])C([H])([H])[H])c([H])c([H])c2C1([H])[H]

$$$$
57:0:0
     RDKit          3D

 95105  0  0  1  0  0  0  0  0999 V2000
  -30.0610  -24.3210   21.5890 C   0  0  0  0  0  2  0  0  0  0  0  0
  -29.4380  -22.7670   19.8280 C   0  0  0  0  0  2  0  0  0  0  0  0
  -29.8120  -22.9050   22.1310 C   0  0  0  0  0  3  0  0  0  0  0  0
  -29.7000  -24.3010   20.0910 C   0  0  2  0  0  0  0  0  0  0  0  0
  -28.4240  -22.8070   22.7920 C   0  0  0  0  0  1  0  0  0  0  0  0
  -30.8990  -24.7710   19.2410 C   0  0  0  0  0  1  0  0  0  0  0  0
  -29.9460  -22.0030   20.9840 N   0  0  0  0  0  0  0  0  0  0  0  0
  -30.9140  -14.6560   20.0180 C   0  0  0  0  0  0  0  0  0  0  0  0
  -30.5500  -12.4770   18.8990 C   0  0  0  0  0  2  0  0  0  0  0  0
  -29.5200  -12.6690   17.7670 C   0  0  0  0  0  2  0  0  0  0  0  0
  -28.0860  -12.5050   18.3070 C   0  0  0  0  0  2  0  0  0  0  0  0
  -27.8350  -13.3320   19.5980 C   0  0  0  0  0  3  0  0  0  0  0  0
  -28.9770  -13.1450   20.6220 C   0  0  0  0  0  2  0  0  0  0  0  0
  -30.2420  -13.4690   19.9460 N   0  0  0  0  0  0  0  0  0  0  0  0
  -32.0140  -14.8110   19.4770 O   0  0  0  0  0  0  0  0  0  0  0  0
  -30.6360  -18.7140   22.7380 C   0  0  0  0  0  3  0  0  0  0  0  0
  -30.4740  -20.0840   22.4350 C   0  0  0  0  0  3  0  0  0  0  0  0
  -30.4060  -17.7720   21.7310 C   0  0  0  0  0  0  0  0  0  0  0  0
  -30.0500  -18.1740   20.4640 C   0  0  0  0  0  0  0  0  0  0  0  0
  -29.8610  -19.5580   20.1360 C   0  0  0  0  0  0  0  0  0  0  0  0
  -30.0710  -20.5700   21.1510 C   0  0  0  0  0  0  0  0  0  0  0  0
  -30.5030  -16.2630   21.8290 C   0  0  0  0  0  3  0  0  0  0  0  0
  -29.9340  -16.9160   19.6040 C   0  0  0  0  0  3  0  0  0  0  0  0
  -29.4590  -19.8990   18.7100 C   0  0  0  0  0  1  0  0  0  0  0  0
  -30.2160  -15.7340   20.4780 N   0  0  0  0  0  0  0  0  0  0  0  0
  -25.5180  -13.9100   20.5500 C   0  0  0  0  0  0  0  0  0  0  0  0
  -24.4760  -13.1250   20.9640 C   0  0  0  0  0  0  0  0  0  0  0  0
  -24.9160  -11.7730   20.8150 C   0  0  0  0  0  0  0  0  0  0  0  0
  -26.5280  -13.0350   20.1780 N   0  0  0  0  0  0  0  0  0  0  0  0
  -26.1740  -11.7430   20.3950 N   0  0  0  0  0  0  0  0  0  0  0  0
  -24.1910  -10.5080   20.9930 C   0  0  0  0  0  0  0  0  0  0  0  0
  -24.6290   -9.5300   21.9130 C   0  0  0  0  0  3  0  0  0  0  0  0
  -23.9040   -8.3290   22.0780 C   0  0  0  0  0  3  0  0  0  0  0  0
  -22.7290   -8.1000   21.3250 C   0  0  0  0  0  0  0  0  0  0  0  0
  -22.3100   -9.0670   20.3950 C   0  0  0  0  0  3  0  0  0  0  0  0
  -23.0350  -10.2580   20.2270 C   0  0  0  0  0  3  0  0  0  0  0  0
  -21.9750   -6.9530   21.4040 O   0  0  0  0  0  0  0  0  0  0  0  0
  -21.8410   -6.2580   22.5790 C   0  0  0  0  0  0  0  0  0  0  0  0
  -21.3110   -6.8570   23.7430 C   0  0  0  0  0  3  0  0  0  0  0  0
  -21.1260   -6.0870   24.9090 C   0  0  0  0  0  3  0  0  0  0  0  0
  -21.4610   -4.7190   24.9110 C   0  0  0  0  0  0  0  0  0  0  0  0
  -21.9820   -4.1190   23.7510 C   0  0  0  0  0  3  0  0  0  0  0  0
  -22.1690   -4.8870   22.5870 C   0  0  0  0  0  0  0  0  0  0  0  0
  -22.6520   -4.3000   21.4660 F   0  0  0  0  0  0  0  0  0  0  0  0
  -21.2750   -3.9770   26.0280 F   0  0  0  0  0  0  0  0  0  0  0  0
  -23.1140  -13.5970   21.3830 C   0  0  0  0  0  0  0  0  0  0  0  0
  -22.4680  -12.8760   22.2930 N   0  0  0  0  0  0  0  0  0  0  0  0
  -22.6340  -14.6380   20.9390 O   0  0  0  0  0  0  0  0  0  0  0  0
  -22.8710  -12.0320   22.6750 H   0  0  0  0  0  0  0  0  0  0  0  0
  -21.5580  -13.1720   22.6140 H   0  0  0  0  0  0  0  0  0  0  0  0
  -25.6870  -15.2870   20.4400 N   0  0  0  0  0  0  0  0  0  0  0  0
  -24.9450  -15.9420   20.6600 H   0  0  0  0  0  0  0  0  0  0  0  0
  -26.5240  -15.7390   20.0940 H   0  0  0  0  0  0  0  0  0  0  0  0
  -28.4690  -25.2240   19.7590 C   0  0  0  0  0  2  0  0  0  0  0  0
  -28.6040  -26.6580   20.0220 O   0  0  0  0  0  0  0  0  0  0  0  0
  -24.6760  -31.7690   23.1840 C   0  0  0  0  0  0  0  0  0  0  0  0
  -27.4400  -27.4280   19.9950 C   0  0  0  0  0  0  0  0  0  0  0  0
  -23.5220  -30.4010   21.4830 C   0  0  0  0  0  3  0  0  0  0  0  0
  -25.0230  -28.9410   20.0250 C   0  0  0  0  0  0  0  0  0  0  0  0
  -26.0510  -30.7990   21.3340 C   0  0  0  0  0  2  0  0  0  0  0  0
  -26.1710  -29.4500   20.6440 C   0  0  0  0  0  0  0  0  0  0  0  0
  -27.3830  -28.7060   20.6200 C   0  0  0  0  0  3  0  0  0  0  0  0
  -26.2630  -26.9560   19.3640 C   0  0  0  0  0  3  0  0  0  0  0  0
  -25.0680  -27.6970   19.3790 C   0  0  0  0  0  3  0  0  0  0  0  0
  -23.7640  -29.7770   20.0840 C   0  0  0  0  0  2  0  0  0  0  0  0
  -24.7660  -31.0040   22.0590 N   0  0  0  0  0  0  0  0  0  0  0  0
  -23.5820  -32.0000   23.7180 O   0  0  0  0  0  0  0  0  0  0  0  0
  -22.8750  -29.3340   22.3990 C   0  0  0  0  0  0  0  0  0  0  0  0
  -21.5530  -29.1400   22.2580 N   0  0  0  0  0  0  0  0  0  0  0  0
  -23.5620  -28.6870   23.1950 O   0  0  0  0  0  0  0  0  0  0  0  0
  -21.0570  -29.7160   21.5920 H   0  0  0  0  0  0  0  0  0  0  0  0
  -18.1890  -27.8950   22.7140 C   0  0  0  0  0  0  0  0  0  0  0  0
  -20.7460  -28.1620   22.9880 C   0  0  0  0  0  3  0  0  0  0  0  0
  -20.8570  -26.7570   22.3500 C   0  0  0  0  0  2  0  0  0  0  0  0
  -19.7540  -26.4710   21.3260 C   0  0  0  0  0  2  0  0  0  0  0  0
  -18.3740  -26.5780   21.9790 C   0  0  0  0  0  2  0  0  0  0  0  0
  -19.3040  -28.6460   23.1740 C   0  0  0  0  0  0  0  0  0  0  0  0
  -19.0780  -29.8800   23.8220 C   0  0  0  0  0  3  0  0  0  0  0  0
  -17.7700  -30.3640   24.0130 C   0  0  0  0  0  3  0  0  0  0  0  0
  -16.6700  -29.6100   23.5700 C   0  0  0  0  0  3  0  0  0  0  0  0
  -16.8800  -28.3770   22.9260 C   0  0  0  0  0  3  0  0  0  0  0  0
  -25.9400  -32.4070   23.8410 C   0  0  0  0  0  3  0  0  0  0  0  0
  -25.6020  -33.7920   24.1960 N   0  0  0  0  0  0  0  0  0  0  0  0
  -25.9060  -34.8640   23.4520 C   0  0  0  0  0  0  0  0  0  0  0  0
  -26.5720  -34.7910   22.4160 O   0  0  0  0  0  0  0  0  0  0  0  0
  -25.0100  -33.9200   25.0030 H   0  0  0  0  0  0  0  0  0  0  0  0
  -24.1290  -36.6180   23.1460 C   0  0  0  0  0  1  0  0  0  0  0  0
  -25.3900  -36.2340   23.9350 C   0  0  0  0  0  3  0  0  0  0  0  0
  -27.5110  -37.1630   24.7510 C   0  0  0  0  0  1  0  0  0  0  0  0
  -26.3950  -37.3140   23.8210 N   0  0  0  0  0  0  0  0  0  0  0  0
  -25.9670  -38.2200   23.9860 H   0  0  0  0  0  0  0  0  0  0  0  0
  -26.4470  -31.6160   25.1090 C   0  0  1  0  0  0  0  0  0  0  0  0
  -25.3400  -31.3360   26.1500 C   0  0  0  0  0  1  0  0  0  0  0  0
  -27.0620  -30.2570   24.6970 C   0  0  0  0  0  1  0  0  0  0  0  0
  -27.5730  -32.4150   25.8090 C   0  0  0  0  0  1  0  0  0  0  0  0
  1  3  1  0
  2  4  1  0
  2  7  1  0
  3  5  1  0
  4  6  1  6
  4  1  1  0
  7 21  1  0
  7  3  1  0
  8 25  1  0
  9 14  1  0
 10 11  1  0
 10  9  1  0
 12 11  1  0
 12 29  1  0
 12 13  1  0
 14  8  1  0
 14 13  1  0
 15  8  2  0
 17 16  2  0
 18 22  2  0
 18 16  1  0
 19 18  1  0
 20 19  1  0
 20 21  2  0
 21 17  1  0
 23 19  2  0
 23 25  1  0
 24 20  1  0
 25 22  1  0
 26 27  2  0
 27 46  1  0
 28 27  1  0
 28 31  1  0
 29 30  1  0
 29 26  1  0
 30 28  2  0
 31 32  1  0
 32 33  2  0
 34 37  1  0
 34 33  1  0
 35 34  2  0
 36 35  1  0
 36 31  2  0
 37 38  1  0
 38 43  2  0
 38 39  1  0
 39 40  2  0
 40 41  1  0
 41 45  1  0
 42 41  2  0
 43 42  1  0
 44 43  1  0
 46 47  1  0
 47 50  1  0
 47 49  1  0
 48 46  2  0
 51 26  1  0
 51 52  1  0
 53 51  1  0
 54 55  1  0
 54  4  1  0
 56 67  2  0
 57 55  1  0
 57 62  1  0
 58 66  1  0
 58 68  1  0
 59 65  1  0
 59 61  1  0
 60 66  1  0
 61 60  1  0
 62 61  2  0
 63 64  1  0
 63 57  2  0
 64 59  2  0
 65 58  1  0
 66 56  1  0
 68 70  2  0
 69 68  1  0
 71 69  1  0
 72 81  2  0
 72 77  1  0
 73 69  1  0
 73 77  1  0
 74 73  1  0
 75 76  1  0
 75 74  1  0
 76 72  1  0
 77 78  2  0
 78 79  1  0
 80 79  2  0
 81 80  1  0
 82 56  1  0
 82 83  1  0
 82 92  1  0
 83 86  1  0
 84 88  1  0
 84 83  1  0
 85 84  2  0
 88 87  1  0
 90 88  1  0
 90 91  1  0
 90 89  1  0
 92 95  1  1
 92 93  1  0
 94 92  1  0
M  ISO  4   8 100  25 100  54 101  55 101
M  END
>  <TORSDO>  (58) 
F 17

>  <SCORE>  (58) 
-13.904

>  <name>  (58) 
57

>  <ligand_id>  (58) 
57

>  <original_smiles>  (58) 
[H]c1c([H])c([H])c2c(c1[H])C([H])([H])C([H])([H])C([H])([H])C2([H])N([H])C(=O)C1([H])N(C(=O)C([H])(N([H])C(=O)C([H])(N([H])C([H])([H])[H])C([H])([H])[H])C(C([H])([H])[H])(C([H])([H])[H])C([H])([H])[H])C([H])([H])c2c([H])c(OC([H])([H])C3(C([H])([H])[H])C([H])([H])N(c4c([H])c([H])c5c(c4C([H])([H])[H])C([H])([H])N(C(=O)N4C([H])([H])C([H])([H])C([H])([H])C([H])(n6nc(-c7c([H])c([H])c(Oc8c([H])c([H])c(F)c([H])c8F)c([H])c7[H])c(C(=O)N([H])[H])c6N([H])[H])C4([H])[H])C5([H])[H])C([H])(C([H])([H])[H])C3([H])[H])c([H])c([H])c2C1([H])[H]

>  <smiles>  (58) 
[H]c1c([H])c([H])c2c(c1[H])C([H])([H])C([H])([H])C([H])([H])C2([H])N([H])C(=O)C1([H])N(C(=O)C([H])(N([H])C(=O)C([H])(N([H])C([H])([H])[H])C([H])([H])[H])C(C([H])([H])[H])(C([H])([H])[H])C([H])([H])[H])C([H])([H])c2c([H])c(OC([H])([H])C3(C([H])([H])[H])C([H])([H])N(c4c([H])c([H])c5c(c4C([H])([H])[H])C([H])([H])N(C(=O)N4C([H])([H])C([H])([H])C([H])([H])C([H])(n6nc(-c7c([H])c([H])c(Oc8c([H])c([H])c(F)c([H])c8F)c([H])c7[H])c(C(=O)N([H])[H])c6N([H])[H])C4([H])[H])C5([H])[H])C([H])(C([H])([H])[H])C3([H])[H])c([H])c([H])c2C1([H])[H]

$$$$
58:0:0
     RDKit          3D

100109  0  0  1  0  0  0  0  0999 V2000
  -30.5480  -23.2090   22.3570 C   0  0  0  0  0  2  0  0  0  0  0  0
  -31.2200  -21.6540   20.5150 C   0  0  0  0  0  3  0  0  0  0  0  0
  -31.0700  -21.7890   22.0660 C   0  0  0  0  0  3  0  0  0  0  0  0
  -30.6650  -23.9420   21.0290 C   0  0  0  0  0  3  0  0  0  0  0  0
  -30.3530  -22.8480   19.9910 C   0  0  0  0  0  3  0  0  0  0  0  0
  -32.3830  -21.4750   22.8050 C   0  0  0  0  0  1  0  0  0  0  0  0
  -30.6380  -23.3590   18.5680 C   0  0  0  0  0  1  0  0  0  0  0  0
  -30.6330  -19.1380   20.7810 C   0  0  0  0  0  3  0  0  0  0  0  0
  -30.7820  -18.6540   18.0590 C   0  0  0  0  0  3  0  0  0  0  0  0
  -30.9690  -20.2280   19.9320 C   0  0  0  0  0  0  0  0  0  0  0  0
  -30.3720  -17.8280   20.3120 C   0  0  0  0  0  0  0  0  0  0  0  0
  -30.3460  -17.6170   18.9050 C   0  0  0  0  0  0  0  0  0  0  0  0
  -31.1710  -19.9080   18.5580 C   0  0  0  0  0  0  0  0  0  0  0  0
  -29.9240  -16.3310   18.2210 C   0  0  0  0  0  1  0  0  0  0  0  0
  -33.2780  -20.7570   17.8410 C   0  0  0  0  0  1  0  0  0  0  0  0
  -31.8320  -20.7430   17.6520 N   0  0  0  0  0  0  0  0  0  0  0  0
  -31.5840  -20.5530   16.6830 H   0  0  0  0  0  0  0  0  0  0  0  0
  -30.2130  -16.7710   21.4250 C   0  0  0  0  0  2  0  0  0  0  0  0
  -30.6360  -14.3850   20.7500 C   0  0  0  0  0  0  0  0  0  0  0  0
  -30.4240  -12.2140   19.6090 C   0  0  0  0  0  2  0  0  0  0  0  0
  -29.5150  -12.3990   18.3770 C   0  0  0  0  0  2  0  0  0  0  0  0
  -28.0250  -12.2570   18.7570 C   0  0  0  0  0  2  0  0  0  0  0  0
  -27.6380  -13.0910   20.0100 C   0  0  0  0  0  3  0  0  0  0  0  0
  -28.6620  -12.8760   21.1460 C   0  0  0  0  0  2  0  0  0  0  0  0
  -29.9970  -13.1970   20.6140 N   0  0  0  0  0  0  0  0  0  0  0  0
  -31.8020  -14.5800   20.3990 O   0  0  0  0  0  0  0  0  0  0  0  0
  -29.8320  -15.3920   21.1220 N   0  0  0  0  0  0  0  0  0  0  0  0
  -28.8770  -15.1450   21.3250 H   0  0  0  0  0  0  0  0  0  0  0  0
  -25.2130  -13.6770   20.6400 C   0  0  0  0  0  0  0  0  0  0  0  0
  -24.1430  -12.8940   20.9820 C   0  0  0  0  0  0  0  0  0  0  0  0
  -24.6200  -11.5490   20.9760 C   0  0  0  0  0  0  0  0  0  0  0  0
  -26.2750  -12.8070   20.4490 N   0  0  0  0  0  0  0  0  0  0  0  0
  -25.9200  -11.5220   20.7060 N   0  0  0  0  0  0  0  0  0  0  0  0
  -23.9030  -10.2800   21.1540 C   0  0  0  0  0  0  0  0  0  0  0  0
  -24.3390   -9.3130   22.0850 C   0  0  0  0  0  3  0  0  0  0  0  0
  -23.6240   -8.1080   22.2510 C   0  0  0  0  0  3  0  0  0  0  0  0
  -22.4610   -7.8600   21.4820 C   0  0  0  0  0  0  0  0  0  0  0  0
  -22.0450   -8.8180   20.5410 C   0  0  0  0  0  3  0  0  0  0  0  0
  -22.7600  -10.0150   20.3730 C   0  0  0  0  0  3  0  0  0  0  0  0
  -21.7170   -6.7080   21.5570 O   0  0  0  0  0  0  0  0  0  0  0  0
  -21.6870   -5.9430   22.6940 C   0  0  0  0  0  0  0  0  0  0  0  0
  -21.2600   -6.4680   23.9330 C   0  0  0  0  0  3  0  0  0  0  0  0
  -21.1780   -5.6280   25.0630 C   0  0  0  0  0  3  0  0  0  0  0  0
  -21.5130   -4.2650   24.9540 C   0  0  0  0  0  0  0  0  0  0  0  0
  -21.9350   -3.7400   23.7180 C   0  0  0  0  0  3  0  0  0  0  0  0
  -22.0170   -4.5760   22.5930 C   0  0  0  0  0  0  0  0  0  0  0  0
  -22.4030   -4.0610   21.4010 F   0  0  0  0  0  0  0  0  0  0  0  0
  -21.4260   -3.4560   26.0360 F   0  0  0  0  0  0  0  0  0  0  0  0
  -22.7320  -13.3590   21.2080 C   0  0  0  0  0  0  0  0  0  0  0  0
  -21.9860  -12.6580   22.0550 N   0  0  0  0  0  0  0  0  0  0  0  0
  -22.2970  -14.3750   20.6670 O   0  0  0  0  0  0  0  0  0  0  0  0
  -22.3500  -11.8380   22.5170 H   0  0  0  0  0  0  0  0  0  0  0  0
  -21.0380  -12.9470   22.2460 H   0  0  0  0  0  0  0  0  0  0  0  0
  -25.3660  -15.0500   20.4570 N   0  0  0  0  0  0  0  0  0  0  0  0
  -24.5830  -15.6890   20.5350 H   0  0  0  0  0  0  0  0  0  0  0  0
  -26.2120  -15.4990   20.1350 H   0  0  0  0  0  0  0  0  0  0  0  0
  -30.2370  -26.1980   22.1500 C   0  0  0  0  0  1  0  0  0  0  0  0
  -29.9810  -25.3350   20.9000 C   0  0  0  0  0  3  0  0  0  0  0  0
  -28.4940  -25.4230   20.4700 C   0  0  0  0  0  2  0  0  0  0  0  0
  -28.3740  -26.7700   20.0240 O   0  0  0  0  0  0  0  0  0  0  0  0
  -24.5550  -31.8400   23.1930 C   0  0  0  0  0  0  0  0  0  0  0  0
  -27.1630  -27.4060   20.1030 C   0  0  0  0  0  0  0  0  0  0  0  0
  -23.3300  -30.4460   21.5560 C   0  0  0  0  0  3  0  0  0  0  0  0
  -24.7660  -28.8910   20.1320 C   0  0  0  0  0  0  0  0  0  0  0  0
  -25.8530  -30.7960   21.3420 C   0  0  0  0  0  2  0  0  0  0  0  0
  -25.9250  -29.4250   20.7040 C   0  0  0  0  0  0  0  0  0  0  0  0
  -27.1280  -28.6920   20.6780 C   0  0  0  0  0  3  0  0  0  0  0  0
  -25.9870  -26.8600   19.5470 C   0  0  0  0  0  3  0  0  0  0  0  0
  -24.7880  -27.6040   19.5550 C   0  0  0  0  0  3  0  0  0  0  0  0
  -23.5260  -29.7550   20.1780 C   0  0  0  0  0  2  0  0  0  0  0  0
  -24.5980  -31.0420   22.0890 N   0  0  0  0  0  0  0  0  0  0  0  0
  -23.4800  -32.1190   23.7410 O   0  0  0  0  0  0  0  0  0  0  0  0
  -22.6800  -29.4310   22.5210 C   0  0  0  0  0  0  0  0  0  0  0  0
  -21.3520  -29.2630   22.4040 N   0  0  0  0  0  0  0  0  0  0  0  0
  -23.3640  -28.7950   23.3290 O   0  0  0  0  0  0  0  0  0  0  0  0
  -20.8630  -29.8250   21.7210 H   0  0  0  0  0  0  0  0  0  0  0  0
  -17.9690  -28.1180   22.9300 C   0  0  0  0  0  0  0  0  0  0  0  0
  -20.5320  -28.3340   23.1770 C   0  0  0  0  0  3  0  0  0  0  0  0
  -20.6070  -26.9050   22.5900 C   0  0  0  0  0  2  0  0  0  0  0  0
  -19.4890  -26.6070   21.5850 C   0  0  0  0  0  2  0  0  0  0  0  0
  -18.1170  -26.7710   22.2450 C   0  0  0  0  0  2  0  0  0  0  0  0
  -19.1030  -28.8590   23.3540 C   0  0  0  0  0  0  0  0  0  0  0  0
  -18.9120  -30.1230   23.9530 C   0  0  0  0  0  3  0  0  0  0  0  0
  -17.6180  -30.6450   24.1350 C   0  0  0  0  0  3  0  0  0  0  0  0
  -16.4980  -29.9010   23.7290 C   0  0  0  0  0  3  0  0  0  0  0  0
  -16.6740  -28.6390   23.1320 C   0  0  0  0  0  3  0  0  0  0  0  0
  -25.8510  -32.4590   23.8060 C   0  0  0  0  0  3  0  0  0  0  0  0
  -25.5560  -33.8580   24.1420 N   0  0  0  0  0  0  0  0  0  0  0  0
  -25.9010  -34.9110   23.3880 C   0  0  0  0  0  0  0  0  0  0  0  0
  -26.5720  -34.8050   22.3590 O   0  0  0  0  0  0  0  0  0  0  0  0
  -24.9560  -34.0150   24.9390 H   0  0  0  0  0  0  0  0  0  0  0  0
  -24.1950  -36.7230   23.0300 C   0  0  0  0  0  1  0  0  0  0  0  0
  -25.4240  -36.3000   23.8510 C   0  0  0  0  0  3  0  0  0  0  0  0
  -27.5570  -37.1550   24.7150 C   0  0  0  0  0  1  0  0  0  0  0  0
  -26.4700  -37.3420   23.7580 N   0  0  0  0  0  0  0  0  0  0  0  0
  -26.0720  -38.2670   23.9060 H   0  0  0  0  0  0  0  0  0  0  0  0
  -26.3790  -31.6800   25.0720 C   0  0  1  0  0  0  0  0  0  0  0  0
  -25.2980  -31.4430   26.1520 C   0  0  0  0  0  1  0  0  0  0  0  0
  -26.9530  -30.3040   24.6650 C   0  0  0  0  0  1  0  0  0  0  0  0
  -27.5400  -32.4680   25.7240 C   0  0  0  0  0  1  0  0  0  0  0  0
  2 10  1  0
  2  3  1  0
  3  1  1  0
  3  6  1  0
  4 58  1  0
  4  1  1  0
  5  7  1  0
  5  2  1  0
  5  4  1  0
  9 13  2  0
  9 12  1  0
 10  8  2  0
 11  8  1  0
 11 18  1  0
 12 11  2  0
 13 10  1  0
 14 12  1  0
 16 15  1  0
 16 13  1  0
 17 16  1  0
 19 27  1  0
 20 25  1  0
 21 22  1  0
 21 20  1  0
 23 22  1  0
 23 32  1  0
 23 24  1  0
 25 19  1  0
 25 24  1  0
 26 19  2  0
 27 28  1  0
 27 18  1  0
 29 30  2  0
 30 49  1  0
 31 30  1  0
 31 34  1  0
 32 29  1  0
 32 33  1  0
 33 31  2  0
 34 35  1  0
 35 36  2  0
 37 40  1  0
 37 36  1  0
 38 37  2  0
 39 38  1  0
 39 34  2  0
 40 41  1  0
 41 42  1  0
 42 43  2  0
 44 43  1  0
 44 48  1  0
 45 44  2  0
 46 41  2  0
 46 45  1  0
 47 46  1  0
 49 50  1  0
 50 53  1  0
 50 52  1  0
 51 49  2  0
 54 55  1  0
 54 29  1  0
 56 54  1  0
 58 57  1  0
 59 58  1  0
 60 62  1  0
 60 59  1  0
 61 72  2  0
 62 67  1  0
 63 71  1  0
 63 73  1  0
 64 70  1  0
 64 66  1  0
 65 71  1  0
 66 65  1  0
 67 66  2  0
 68 69  1  0
 68 62  2  0
 69 64  2  0
 70 63  1  0
 71 61  1  0
 73 75  2  0
 74 73  1  0
 76 74  1  0
 77 86  2  0
 77 82  1  0
 78 74  1  0
 78 82  1  0
 79 78  1  0
 80 81  1  0
 80 79  1  0
 81 77  1  0
 82 83  2  0
 83 84  1  0
 85 84  2  0
 86 85  1  0
 87 61  1  0
 87 88  1  0
 87 97  1  0
 88 91  1  0
 89 93  1  0
 89 88  1  0
 90 89  2  0
 93 92  1  0
 95 93  1  0
 95 96  1  0
 95 94  1  0
 97100  1  1
 97 98  1  0
 99 97  1  0
M  ISO  4  19 100  27 100  59 101  60 101
M  END
>  <TORSDO>  (59) 
F 21

>  <SCORE>  (59) 
-12.900

>  <name>  (59) 
58

>  <ligand_id>  (59) 
58

>  <original_smiles>  (59) 
[H]c1c([H])c([H])c2c(c1[H])C([H])([H])C([H])([H])C([H])([H])C2([H])N([H])C(=O)C1([H])N(C(=O)C([H])(N([H])C(=O)C([H])(N([H])C([H])([H])[H])C([H])([H])[H])C(C([H])([H])[H])(C([H])([H])[H])C([H])([H])[H])C([H])([H])c2c([H])c(OC([H])([H])C([H])(C([H])([H])[H])C3([H])C([H])([H])C([H])(C([H])([H])[H])C([H])(c4c([H])c(C([H])([H])N([H])C(=O)N5C([H])([H])C([H])([H])C([H])([H])C([H])(n6nc(-c7c([H])c([H])c(Oc8c([H])c([H])c(F)c([H])c8F)c([H])c7[H])c(C(=O)N([H])[H])c6N([H])[H])C5([H])[H])c(C([H])([H])[H])c([H])c4N([H])C([H])([H])[H])C3([H])C([H])([H])[H])c([H])c([H])c2C1([H])[H]

>  <smiles>  (59) 
[H]c1c([H])c([H])c2c(c1[H])C([H])([H])C([H])([H])C([H])([H])C2([H])N([H])C(=O)C1([H])N(C(=O)C([H])(N([H])C(=O)C([H])(N([H])C([H])([H])[H])C([H])([H])[H])C(C([H])([H])[H])(C([H])([H])[H])C([H])([H])[H])C([H])([H])c2c([H])c(OC([H])([H])C([H])(C([H])([H])[H])C3([H])C([H])([H])C([H])(C([H])([H])[H])C([H])(c4c([H])c(C([H])([H])N([H])C(=O)N5C([H])([H])C([H])([H])C([H])([H])C([H])(n6nc(-c7c([H])c([H])c(Oc8c([H])c([H])c(F)c([H])c8F)c([H])c7[H])c(C(=O)N([H])[H])c6N([H])[H])C5([H])[H])c(C([H])([H])[H])c([H])c4N([H])C([H])([H])[H])C3([H])C([H])([H])[H])c([H])c([H])c2C1([H])[H]

$$$$
59:0:0
     RDKit          3D

100110  0  0  1  0  0  0  0  0999 V2000
  -29.7240  -20.7590   21.3980 C   0  0  0  0  0  3  0  0  0  0  0  0
  -28.8230  -22.9190   20.6400 C   0  0  0  0  0  0  0  0  0  0  0  0
  -29.7180  -22.1670   21.4450 C   0  0  0  0  0  0  0  0  0  0  0  0
  -27.8720  -22.2120   19.8560 C   0  0  0  0  0  0  0  0  0  0  0  0
  -27.8700  -20.7840   19.8250 C   0  0  0  0  0  0  0  0  0  0  0  0
  -28.8300  -20.0460   20.5730 C   0  0  0  0  0  0  0  0  0  0  0  0
  -30.7050  -22.8520   22.3790 C   0  0  0  0  0  1  0  0  0  0  0  0
  -26.8560  -23.0010   19.0370 C   0  0  0  0  0  1  0  0  0  0  0  0
  -26.8160  -20.0520   18.9930 C   0  0  0  0  0  1  0  0  0  0  0  0
  -29.5340  -17.7830   21.4730 C   0  0  0  0  0  2  0  0  0  0  0  0
  -29.3250  -18.1500   19.1380 C   0  0  0  0  0  2  0  0  0  0  0  0
  -30.6050  -16.9140   20.7650 C   0  0  0  0  0  3  0  0  0  0  0  0
  -30.7040  -17.5120   19.3380 C   0  0  0  0  0  3  0  0  0  0  0  0
  -28.9230  -18.6380   20.4500 N   0  0  0  0  0  0  0  0  0  0  0  0
  -30.8710  -14.5130   20.1560 C   0  0  0  0  0  0  0  0  0  0  0  0
  -30.5310  -12.3970   18.9460 C   0  0  0  0  0  2  0  0  0  0  0  0
  -29.5210  -12.6280   17.8040 C   0  0  0  0  0  2  0  0  0  0  0  0
  -28.0730  -12.4640   18.3100 C   0  0  0  0  0  2  0  0  0  0  0  0
  -27.8000  -13.2580   19.6170 C   0  0  0  0  0  3  0  0  0  0  0  0
  -28.9140  -13.0090   20.6570 C   0  0  0  0  0  2  0  0  0  0  0  0
  -30.2040  -13.3380   20.0280 N   0  0  0  0  0  0  0  0  0  0  0  0
  -31.9580  -14.7380   19.6190 O   0  0  0  0  0  0  0  0  0  0  0  0
  -30.1900  -15.5040   20.7530 N   0  0  0  0  0  0  0  0  0  0  0  0
  -29.2870  -15.2750   21.1400 H   0  0  0  0  0  0  0  0  0  0  0  0
  -25.4380  -13.8150   20.4800 C   0  0  0  0  0  0  0  0  0  0  0  0
  -24.3990  -13.0160   20.8790 C   0  0  0  0  0  0  0  0  0  0  0  0
  -24.8700  -11.6730   20.7700 C   0  0  0  0  0  0  0  0  0  0  0  0
  -26.4770  -12.9540   20.1580 N   0  0  0  0  0  0  0  0  0  0  0  0
  -26.1400  -11.6590   20.3890 N   0  0  0  0  0  0  0  0  0  0  0  0
  -24.1680  -10.3950   20.9520 C   0  0  0  0  0  0  0  0  0  0  0  0
  -24.6030   -9.4400   21.8970 C   0  0  0  0  0  3  0  0  0  0  0  0
  -23.9000   -8.2280   22.0650 C   0  0  0  0  0  3  0  0  0  0  0  0
  -22.7480   -7.9620   21.2870 C   0  0  0  0  0  0  0  0  0  0  0  0
  -22.3320   -8.9060   20.3320 C   0  0  0  0  0  3  0  0  0  0  0  0
  -23.0360  -10.1100   20.1610 C   0  0  0  0  0  3  0  0  0  0  0  0
  -22.0170   -6.8010   21.3640 O   0  0  0  0  0  0  0  0  0  0  0  0
  -21.8540   -6.1290   22.5490 C   0  0  0  0  0  0  0  0  0  0  0  0
  -21.2560   -6.7370   23.6740 C   0  0  0  0  0  3  0  0  0  0  0  0
  -21.0450   -5.9900   24.8500 C   0  0  0  0  0  3  0  0  0  0  0  0
  -21.4230   -4.6350   24.9000 C   0  0  0  0  0  0  0  0  0  0  0  0
  -22.0160   -4.0260   23.7800 C   0  0  0  0  0  3  0  0  0  0  0  0
  -22.2270   -4.7720   22.6070 C   0  0  0  0  0  0  0  0  0  0  0  0
  -22.7780   -4.1740   21.5220 F   0  0  0  0  0  0  0  0  0  0  0  0
  -21.2150   -3.9130   26.0270 F   0  0  0  0  0  0  0  0  0  0  0  0
  -23.0150  -13.4680   21.2460 C   0  0  0  0  0  0  0  0  0  0  0  0
  -22.3500  -12.7400   22.1370 N   0  0  0  0  0  0  0  0  0  0  0  0
  -22.5340  -14.5000   20.7810 O   0  0  0  0  0  0  0  0  0  0  0  0
  -22.7510  -11.9040   22.5340 H   0  0  0  0  0  0  0  0  0  0  0  0
  -21.4240  -13.0250   22.4270 H   0  0  0  0  0  0  0  0  0  0  0  0
  -25.5790  -15.1920   20.3460 N   0  0  0  0  0  0  0  0  0  0  0  0
  -24.8130  -15.8310   20.5310 H   0  0  0  0  0  0  0  0  0  0  0  0
  -26.4050  -15.6600   19.9940 H   0  0  0  0  0  0  0  0  0  0  0  0
  -31.7430  -18.5520   19.2570 N   0  0  0  0  0  4  0  0  0  0  0  0
  -31.5700  -19.2760   19.9290 H   0  0  0  0  0  0  0  0  0  0  0  0
  -31.7520  -18.9610   18.3400 H   0  0  0  0  0  0  0  0  0  0  0  0
  -32.6490  -18.1520   19.4300 H   0  0  0  0  0  0  0  0  0  0  0  0
  -30.1360  -25.0510   19.9970 C   0  0  0  0  0  2  0  0  0  0  0  0
  -28.9230  -24.4420   20.6650 C   0  0  0  0  0  3  0  0  0  0  0  0
  -28.7680  -25.4210   19.4920 C   0  0  0  0  0  3  0  0  0  0  0  0
  -28.6620  -26.8160   19.7950 O   0  0  0  0  0  0  0  0  0  0  0  0
  -24.7170  -31.7060   23.0840 C   0  0  0  0  0  0  0  0  0  0  0  0
  -27.4410  -27.4540   19.8120 C   0  0  0  0  0  0  0  0  0  0  0  0
  -23.5350  -30.3640   21.3710 C   0  0  0  0  0  3  0  0  0  0  0  0
  -25.0150  -28.9090   19.8820 C   0  0  0  0  0  0  0  0  0  0  0  0
  -26.0510  -30.7680   21.1990 C   0  0  0  0  0  2  0  0  0  0  0  0
  -26.1580  -29.4280   20.5010 C   0  0  0  0  0  0  0  0  0  0  0  0
  -27.3690  -28.7060   20.4640 C   0  0  0  0  0  3  0  0  0  0  0  0
  -26.2810  -26.9390   19.1910 C   0  0  0  0  0  3  0  0  0  0  0  0
  -25.0710  -27.6650   19.2230 C   0  0  0  0  0  3  0  0  0  0  0  0
  -23.7570  -29.7460   19.9630 C   0  0  0  0  0  2  0  0  0  0  0  0
  -24.7850  -30.9600   21.9450 N   0  0  0  0  0  0  0  0  0  0  0  0
  -23.6310  -31.9400   23.6330 O   0  0  0  0  0  0  0  0  0  0  0  0
  -22.8950  -29.2930   22.2840 C   0  0  0  0  0  0  0  0  0  0  0  0
  -21.5700  -29.1150   22.1560 N   0  0  0  0  0  0  0  0  0  0  0  0
  -23.5860  -28.6280   23.0620 O   0  0  0  0  0  0  0  0  0  0  0  0
  -21.0760  -29.7060   21.5030 H   0  0  0  0  0  0  0  0  0  0  0  0
  -18.1990  -27.9110   22.6430 C   0  0  0  0  0  0  0  0  0  0  0  0
  -20.7630  -28.1320   22.8790 C   0  0  0  0  0  3  0  0  0  0  0  0
  -20.8430  -26.7440   22.2050 C   0  0  0  0  0  2  0  0  0  0  0  0
  -19.7170  -26.4970   21.1940 C   0  0  0  0  0  2  0  0  0  0  0  0
  -18.3500  -26.6090   21.8760 C   0  0  0  0  0  2  0  0  0  0  0  0
  -19.3330  -28.6350   23.1010 C   0  0  0  0  0  0  0  0  0  0  0  0
  -19.1420  -29.8580   23.7800 C   0  0  0  0  0  3  0  0  0  0  0  0
  -17.8460  -30.3600   24.0030 C   0  0  0  0  0  3  0  0  0  0  0  0
  -16.7250  -29.6340   23.5650 C   0  0  0  0  0  3  0  0  0  0  0  0
  -16.9020  -28.4100   22.8920 C   0  0  0  0  0  3  0  0  0  0  0  0
  -25.9940  -32.3230   23.7370 C   0  0  0  0  0  3  0  0  0  0  0  0
  -26.5200  -31.4990   24.9770 C   0  0  1  0  0  0  0  0  0  0  0  0
  -25.4270  -31.1970   26.0300 C   0  0  0  0  0  1  0  0  0  0  0  0
  -27.1190  -30.1490   24.5180 C   0  0  0  0  0  1  0  0  0  0  0  0
  -27.6610  -32.2740   25.6770 C   0  0  0  0  0  1  0  0  0  0  0  0
  -25.6680  -33.6990   24.1280 N   0  0  0  0  0  0  0  0  0  0  0  0
  -25.9500  -34.7850   23.3950 C   0  0  0  0  0  0  0  0  0  0  0  0
  -26.5860  -34.7330   22.3390 O   0  0  0  0  0  0  0  0  0  0  0  0
  -25.0980  -33.8130   24.9540 H   0  0  0  0  0  0  0  0  0  0  0  0
  -24.1530  -36.5320   23.1870 C   0  0  0  0  0  1  0  0  0  0  0  0
  -25.4490  -36.1450   23.9170 C   0  0  0  0  0  3  0  0  0  0  0  0
  -27.5930  -37.0810   24.6620 C   0  0  0  0  0  1  0  0  0  0  0  0
  -26.4410  -37.2320   23.7750 N   0  0  0  0  0  0  0  0  0  0  0  0
  -26.0160  -38.1350   23.9630 H   0  0  0  0  0  0  0  0  0  0  0  0
  1  3  1  0
  2  3  2  0
  3  7  1  0
  4  2  1  0
  5  4  2  0
  5  6  1  0
  6  1  2  0
  8  4  1  0
  9  5  1  0
 11 13  1  0
 11 14  1  0
 12 23  1  0
 12 10  1  0
 13 53  1  0
 13 12  1  0
 14  6  1  0
 14 10  1  0
 15 23  1  0
 16 21  1  0
 17 18  1  0
 17 16  1  0
 19 18  1  0
 19 28  1  0
 19 20  1  0
 21 15  1  0
 21 20  1  0
 22 15  2  0
 23 24  1  0
 25 26  2  0
 26 45  1  0
 27 26  1  0
 27 30  1  0
 28 29  1  0
 28 25  1  0
 29 27  2  0
 30 31  1  0
 31 32  2  0
 33 36  1  0
 33 32  1  0
 34 33  2  0
 35 34  1  0
 35 30  2  0
 36 37  1  0
 37 42  2  0
 37 38  1  0
 38 39  2  0
 39 40  1  0
 40 44  1  0
 41 40  2  0
 42 41  1  0
 43 42  1  0
 45 46  1  0
 46 49  1  0
 46 48  1  0
 47 45  2  0
 50 25  1  0
 50 51  1  0
 52 50  1  0
 53 56  1  0
 53 54  1  0
 55 53  1  0
 57 58  1  0
 58  2  1  0
 59 60  1  0
 59 57  1  0
 59 58  1  0
 60 62  1  0
 61 72  2  0
 62 67  1  0
 63 71  1  0
 63 73  1  0
 64 70  1  0
 64 66  1  0
 65 71  1  0
 66 65  1  0
 67 66  2  0
 68 69  1  0
 68 62  2  0
 69 64  2  0
 70 63  1  0
 71 61  1  0
 73 75  2  0
 74 73  1  0
 76 74  1  0
 77 86  2  0
 77 82  1  0
 78 74  1  0
 78 82  1  0
 79 78  1  0
 80 81  1  0
 80 79  1  0
 81 77  1  0
 82 83  2  0
 83 84  1  0
 85 84  2  0
 86 85  1  0
 87 61  1  0
 87 92  1  0
 87 88  1  0
 88 91  1  1
 88 89  1  0
 90 88  1  0
 92 95  1  0
 93 97  1  0
 93 92  1  0
 94 93  2  0
 97 96  1  0
 99 97  1  0
 99100  1  0
 99 98  1  0
M  ISO  4  15 100  23 100  59 101  60 101
M  END
>  <TORSDO>  (60) 
F 19

>  <SCORE>  (60) 
-13.787

>  <name>  (60) 
59

>  <ligand_id>  (60) 
59

>  <original_smiles>  (60) 
[H]c1c([H])c([H])c2c(c1[H])C([H])([H])C([H])([H])C([H])([H])C2([H])N([H])C(=O)C1([H])N(C(=O)C([H])(N([H])C(=O)C([H])(N([H])C([H])([H])[H])C([H])([H])[H])C(C([H])([H])[H])(C([H])([H])[H])C([H])([H])[H])C([H])([H])c2c([H])c(OC3([H])C([H])([H])C3([H])c3c(C([H])([H])[H])c([H])c(N4C([H])([H])C([H])(N([H])C(=O)N5C([H])([H])C([H])([H])C([H])([H])C([H])(n6nc(-c7c([H])c([H])c(Oc8c([H])c([H])c(F)c([H])c8F)c([H])c7[H])c(C(=O)N([H])[H])c6N([H])[H])C5([H])[H])C([H])([N+]([H])([H])[H])C4([H])[H])c(C([H])([H])[H])c3C([H])([H])[H])c([H])c([H])c2C1([H])[H]

>  <smiles>  (60) 
[H]c1c([H])c([H])c2c(c1[H])C([H])([H])C([H])([H])C([H])([H])C2([H])N([H])C(=O)C1([H])N(C(=O)C([H])(N([H])C(=O)C([H])(N([H])C([H])([H])[H])C([H])([H])[H])C(C([H])([H])[H])(C([H])([H])[H])C([H])([H])[H])C([H])([H])c2c([H])c(OC3([H])C([H])([H])C3([H])c3c(C([H])([H])[H])c([H])c(N4C([H])([H])C([H])(N([H])C(=O)N5C([H])([H])C([H])([H])C([H])([H])C([H])(n6nc(-c7c([H])c([H])c(Oc8c([H])c([H])c(F)c([H])c8F)c([H])c7[H])c(C(=O)N([H])[H])c6N([H])[H])C5([H])[H])C([H])([N+]([H])([H])[H])C4([H])[H])c(C([H])([H])[H])c3C([H])([H])[H])c([H])c([H])c2C1([H])[H]

$$$$
60:0:0
     RDKit          3D

104114  0  0  1  0  0  0  0  0999 V2000
  -30.2420  -21.8730   23.0410 C   0  0  0  0  0  3  0  0  0  0  0  0
  -30.1740  -20.7140   22.2730 C   0  0  0  0  0  3  0  0  0  0  0  0
  -28.8980  -23.0830   21.3970 C   0  0  0  0  0  0  0  0  0  0  0  0
  -29.5930  -23.0360   22.6420 C   0  0  0  0  0  0  0  0  0  0  0  0
  -28.6500  -21.8340   20.7130 C   0  0  0  0  0  0  0  0  0  0  0  0
  -29.3260  -20.6170   21.1480 C   0  0  0  0  0  0  0  0  0  0  0  0
  -29.7350  -24.2090   23.6100 C   0  0  0  0  0  1  0  0  0  0  0  0
  -29.3660  -18.0390   21.3110 C   0  0  0  0  0  2  0  0  0  0  0  0
  -29.6480  -19.0900   19.1940 C   0  0  0  0  0  2  0  0  0  0  0  0
  -30.3700  -17.1430   20.5260 C   0  0  0  0  0  3  0  0  0  0  0  0
  -30.0060  -17.5870   19.0990 C   0  0  0  0  0  3  0  0  0  0  0  0
  -29.1890  -19.3140   20.5630 N   0  0  0  0  0  0  0  0  0  0  0  0
  -30.9970  -14.6640   20.2560 C   0  0  0  0  0  0  0  0  0  0  0  0
  -30.7080  -12.5060   19.0680 C   0  0  0  0  0  2  0  0  0  0  0  0
  -29.7470  -12.7460   17.8820 C   0  0  0  0  0  2  0  0  0  0  0  0
  -28.2750  -12.6370   18.3290 C   0  0  0  0  0  2  0  0  0  0  0  0
  -27.9730  -13.4500   19.6200 C   0  0  0  0  0  3  0  0  0  0  0  0
  -29.0340  -13.1670   20.7110 C   0  0  0  0  0  2  0  0  0  0  0  0
  -30.3540  -13.4660   20.1340 N   0  0  0  0  0  0  0  0  0  0  0  0
  -32.1110  -14.8750   19.7690 O   0  0  0  0  0  0  0  0  0  0  0  0
  -30.2120  -15.6720   20.7150 N   0  0  0  0  0  0  0  0  0  0  0  0
  -29.3390  -15.3620   21.1190 H   0  0  0  0  0  0  0  0  0  0  0  0
  -25.5920  -14.1110   20.3510 C   0  0  0  0  0  0  0  0  0  0  0  0
  -24.5130  -13.3580   20.7410 C   0  0  0  0  0  0  0  0  0  0  0  0
  -24.9490  -12.0010   20.7090 C   0  0  0  0  0  0  0  0  0  0  0  0
  -26.6180  -13.2050   20.1110 N   0  0  0  0  0  0  0  0  0  0  0  0
  -26.2330  -11.9350   20.3820 N   0  0  0  0  0  0  0  0  0  0  0  0
  -24.2020  -10.7530   20.9090 C   0  0  0  0  0  0  0  0  0  0  0  0
  -24.6060   -9.7910   21.8610 C   0  0  0  0  0  3  0  0  0  0  0  0
  -23.8550   -8.6090   22.0450 C   0  0  0  0  0  3  0  0  0  0  0  0
  -22.6900   -8.3790   21.2760 C   0  0  0  0  0  0  0  0  0  0  0  0
  -22.3100   -9.3280   20.3100 C   0  0  0  0  0  3  0  0  0  0  0  0
  -23.0610  -10.5010   20.1240 C   0  0  0  0  0  3  0  0  0  0  0  0
  -21.9160   -7.2470   21.3690 O   0  0  0  0  0  0  0  0  0  0  0  0
  -21.8000   -6.5500   22.5460 C   0  0  0  0  0  0  0  0  0  0  0  0
  -21.3310   -7.1610   23.7320 C   0  0  0  0  0  3  0  0  0  0  0  0
  -21.1600   -6.3910   24.9000 C   0  0  0  0  0  3  0  0  0  0  0  0
  -21.4480   -5.0130   24.8850 C   0  0  0  0  0  0  0  0  0  0  0  0
  -21.9140   -4.4060   23.7060 C   0  0  0  0  0  3  0  0  0  0  0  0
  -22.0860   -5.1700   22.5400 C   0  0  0  0  0  0  0  0  0  0  0  0
  -22.5110   -4.5730   21.4000 F   0  0  0  0  0  0  0  0  0  0  0  0
  -21.2810   -4.2720   26.0050 F   0  0  0  0  0  0  0  0  0  0  0  0
  -23.1290  -13.8690   21.0250 C   0  0  0  0  0  0  0  0  0  0  0  0
  -22.3980  -13.1970   21.9130 N   0  0  0  0  0  0  0  0  0  0  0  0
  -22.7060  -14.8950   20.4990 O   0  0  0  0  0  0  0  0  0  0  0  0
  -22.7590  -12.3680   22.3580 H   0  0  0  0  0  0  0  0  0  0  0  0
  -21.4670  -13.5170   22.1470 H   0  0  0  0  0  0  0  0  0  0  0  0
  -25.7790  -15.4750   20.1630 N   0  0  0  0  0  0  0  0  0  0  0  0
  -25.0220  -16.1420   20.2590 H   0  0  0  0  0  0  0  0  0  0  0  0
  -26.6270  -15.8940   19.8050 H   0  0  0  0  0  0  0  0  0  0  0  0
  -31.0710  -17.3040   18.1280 N   0  0  0  0  0  4  0  0  0  0  0  0
  -31.8840  -17.8470   18.3630 H   0  0  0  0  0  0  0  0  0  0  0  0
  -30.7740  -17.5480   17.1970 H   0  0  0  0  0  0  0  0  0  0  0  0
  -31.3260  -16.3310   18.1420 H   0  0  0  0  0  0  0  0  0  0  0  0
  -29.8560  -25.1620   20.6150 C   0  0  0  0  0  2  0  0  0  0  0  0
  -28.5190  -24.5000   20.9400 C   0  0  0  0  0  3  0  0  0  0  0  0
  -28.7370  -25.4210   19.7010 C   0  0  0  0  0  3  0  0  0  0  0  0
  -28.6290  -26.8470   19.8940 O   0  0  0  0  0  0  0  0  0  0  0  0
  -24.5460  -31.7190   23.1010 C   0  0  0  0  0  0  0  0  0  0  0  0
  -27.4100  -27.4850   19.9060 C   0  0  0  0  0  0  0  0  0  0  0  0
  -23.4370  -30.3290   21.3820 C   0  0  0  0  0  3  0  0  0  0  0  0
  -24.9750  -28.9290   19.9000 C   0  0  0  0  0  0  0  0  0  0  0  0
  -25.9430  -30.7990   21.2460 C   0  0  0  0  0  2  0  0  0  0  0  0
  -26.0930  -29.4580   20.5500 C   0  0  0  0  0  0  0  0  0  0  0  0
  -27.3080  -28.7410   20.5570 C   0  0  0  0  0  3  0  0  0  0  0  0
  -26.2760  -26.9710   19.2450 C   0  0  0  0  0  3  0  0  0  0  0  0
  -25.0640  -27.6890   19.2400 C   0  0  0  0  0  3  0  0  0  0  0  0
  -23.6970  -29.7370   19.9700 C   0  0  0  0  0  2  0  0  0  0  0  0
  -24.6610  -30.9610   21.9700 N   0  0  0  0  0  0  0  0  0  0  0  0
  -23.4420  -31.9270   23.6190 O   0  0  0  0  0  0  0  0  0  0  0  0
  -22.8020  -29.2430   22.2830 C   0  0  0  0  0  0  0  0  0  0  0  0
  -21.4820  -29.0460   22.1520 N   0  0  0  0  0  0  0  0  0  0  0  0
  -23.4940  -28.5790   23.0610 O   0  0  0  0  0  0  0  0  0  0  0  0
  -20.9760  -29.6240   21.4970 H   0  0  0  0  0  0  0  0  0  0  0  0
  -18.1230  -27.8150   22.6240 C   0  0  0  0  0  0  0  0  0  0  0  0
  -20.6860  -28.0520   22.8660 C   0  0  0  0  0  3  0  0  0  0  0  0
  -20.7790  -26.6700   22.1780 C   0  0  0  0  0  2  0  0  0  0  0  0
  -19.6540  -26.4260   21.1660 C   0  0  0  0  0  2  0  0  0  0  0  0
  -18.2860  -26.5180   21.8520 C   0  0  0  0  0  2  0  0  0  0  0  0
  -19.2520  -28.5410   23.0900 C   0  0  0  0  0  0  0  0  0  0  0  0
  -19.0500  -29.7570   23.7810 C   0  0  0  0  0  3  0  0  0  0  0  0
  -17.7510  -30.2490   24.0040 C   0  0  0  0  0  3  0  0  0  0  0  0
  -16.6350  -29.5170   23.5610 C   0  0  0  0  0  3  0  0  0  0  0  0
  -16.8240  -28.3010   22.8800 C   0  0  0  0  0  3  0  0  0  0  0  0
  -25.7860  -32.3750   23.7800 C   0  0  0  0  0  3  0  0  0  0  0  0
  -25.4190  -33.7500   24.1340 N   0  0  0  0  0  0  0  0  0  0  0  0
  -25.7200  -34.8310   23.3980 C   0  0  0  0  0  0  0  0  0  0  0  0
  -26.4110  -34.7750   22.3770 O   0  0  0  0  0  0  0  0  0  0  0  0
  -24.8050  -33.8680   24.9260 H   0  0  0  0  0  0  0  0  0  0  0  0
  -23.9180  -36.5560   23.0670 C   0  0  0  0  0  1  0  0  0  0  0  0
  -25.1690  -36.1900   23.8800 C   0  0  0  0  0  3  0  0  0  0  0  0
  -27.2570  -37.1520   24.7410 C   0  0  0  0  0  1  0  0  0  0  0  0
  -26.1570  -37.2890   23.7900 N   0  0  0  0  0  0  0  0  0  0  0  0
  -25.7120  -38.1890   23.9480 H   0  0  0  0  0  0  0  0  0  0  0  0
  -26.2950  -31.5820   25.0460 C   0  0  1  0  0  0  0  0  0  0  0  0
  -25.1800  -31.2720   26.0720 C   0  0  0  0  0  1  0  0  0  0  0  0
  -26.9380  -30.2430   24.6180 C   0  0  0  0  0  1  0  0  0  0  0  0
  -27.3970  -32.3950   25.7640 C   0  0  0  0  0  1  0  0  0  0  0  0
  -27.9180  -22.1360   18.1990 C   0  0  0  0  0  1  0  0  0  0  0  0
  -27.5290  -21.7710   19.6460 C   0  0  0  0  0  3  0  0  0  0  0  0
  -26.3270  -22.5060   20.0900 N   0  0  0  0  0  4  0  0  0  0  0  0
  -26.0470  -22.1650   20.9930 H   0  0  0  0  0  0  0  0  0  0  0  0
  -25.5640  -22.3740   19.4470 H   0  0  0  0  0  0  0  0  0  0  0  0
  -26.5030  -23.4900   20.1620 H   0  0  0  0  0  0  0  0  0  0  0  0
  2  1  2  0
  3  4  2  0
  4  1  1  0
  4  7  1  0
  5  6  2  0
  5  3  1  0
  6  2  1  0
  9 12  1  0
 10 21  1  0
 10  8  1  0
 11 51  1  0
 11  9  1  0
 11 10  1  0
 12  6  1  0
 12  8  1  0
 13 21  1  0
 14 19  1  0
 15 16  1  0
 15 14  1  0
 17 16  1  0
 17 26  1  0
 17 18  1  0
 19 13  1  0
 19 18  1  0
 20 13  2  0
 21 22  1  0
 23 24  2  0
 24 43  1  0
 25 24  1  0
 25 28  1  0
 26 23  1  0
 26 27  1  0
 27 25  2  0
 28 29  1  0
 29 30  2  0
 31 34  1  0
 31 30  1  0
 32 31  2  0
 33 32  1  0
 33 28  2  0
 34 35  1  0
 35 36  1  0
 36 37  2  0
 38 37  1  0
 38 42  1  0
 39 38  2  0
 40 35  2  0
 40 39  1  0
 41 40  1  0
 43 44  1  0
 44 47  1  0
 44 46  1  0
 45 43  2  0
 48 49  1  0
 48 23  1  0
 50 48  1  0
 51 54  1  0
 51 52  1  0
 53 51  1  0
 55 56  1  0
 56  3  1  0
 57 58  1  0
 57 55  1  0
 57 56  1  0
 58 60  1  0
 59 70  2  0
 60 65  1  0
 61 69  1  0
 61 71  1  0
 62 68  1  0
 62 64  1  0
 63 69  1  0
 64 65  2  0
 64 63  1  0
 66 60  2  0
 67 66  1  0
 67 62  2  0
 68 61  1  0
 69 59  1  0
 71 73  2  0
 72 71  1  0
 74 72  1  0
 75 84  2  0
 75 80  1  0
 76 72  1  0
 76 80  1  0
 77 76  1  0
 78 79  1  0
 78 77  1  0
 79 75  1  0
 80 81  2  0
 81 82  1  0
 83 82  2  0
 84 83  1  0
 85 59  1  0
 85 86  1  0
 85 95  1  0
 86 89  1  0
 87 91  1  0
 87 86  1  0
 88 87  2  0
 91 90  1  0
 93 91  1  0
 93 94  1  0
 93 92  1  0
 95 98  1  1
 95 96  1  0
 97 95  1  0
100 99  1  0
100101  1  0
100  5  1  0
101104  1  0
101102  1  0
103101  1  0
M  ISO  4  13 100  21 100  57 101  58 101
M  END
>  <TORSDO>  (61) 
F 21

>  <SCORE>  (61) 
-13.752

>  <name>  (61) 
60

>  <ligand_id>  (61) 
60

>  <original_smiles>  (61) 
[H]c1c([H])c([H])c2c(c1[H])C([H])([H])C([H])([H])C([H])([H])C2([H])N([H])C(=O)C1([H])N(C(=O)C([H])(N([H])C(=O)C([H])(N([H])C([H])([H])[H])C([H])([H])[H])C(C([H])([H])[H])(C([H])([H])[H])C([H])([H])[H])C([H])([H])c2c([H])c(OC3([H])C([H])([H])C3([H])c3c(C([H])([H])[H])c([H])c([H])c(N4C([H])([H])C([H])(N([H])C(=O)N5C([H])([H])C([H])([H])C([H])([H])C([H])(n6nc(-c7c([H])c([H])c(Oc8c([H])c([H])c(F)c([H])c8F)c([H])c7[H])c(C(=O)N([H])[H])c6N([H])[H])C5([H])[H])C([H])([N+]([H])([H])[H])C4([H])[H])c3C([H])(C([H])([H])[H])[N+]([H])([H])[H])c([H])c([H])c2C1([H])[H]

>  <smiles>  (61) 
[H]c1c([H])c([H])c2c(c1[H])C([H])([H])C([H])([H])C([H])([H])C2([H])N([H])C(=O)C1([H])N(C(=O)C([H])(N([H])C(=O)C([H])(N([H])C([H])([H])[H])C([H])([H])[H])C(C([H])([H])[H])(C([H])([H])[H])C([H])([H])[H])C([H])([H])c2c([H])c(OC3([H])C([H])([H])C3([H])c3c(C([H])([H])[H])c([H])c([H])c(N4C([H])([H])C([H])(N([H])C(=O)N5C([H])([H])C([H])([H])C([H])([H])C([H])(n6nc(-c7c([H])c([H])c(Oc8c([H])c([H])c(F)c([H])c8F)c([H])c7[H])c(C(=O)N([H])[H])c6N([H])[H])C5([H])[H])C([H])([N+]([H])([H])[H])C4([H])[H])c3C([H])(C([H])([H])[H])[N+]([H])([H])[H])c([H])c([H])c2C1([H])[H]

$$$$
61:0:0
     RDKit          3D

 97106  0  0  1  0  0  0  0  0999 V2000
  -28.5240  -21.2040   21.3270 C   0  0  0  0  0  3  0  0  0  0  0  0
  -29.3430  -21.2640   19.0350 C   0  0  0  0  0  0  0  0  0  0  0  0
  -28.6930  -20.6000   20.0270 C   0  0  0  0  0  0  0  0  0  0  0  0
  -28.9450  -22.4600   21.5430 C   0  0  0  0  0  0  0  0  0  0  0  0
  -29.8990  -22.6120   19.2980 C   0  0  0  0  0  0  0  0  0  0  0  0
  -28.7600  -23.1330   22.8970 C   0  0  0  0  0  1  0  0  0  0  0  0
  -29.6010  -23.1810   20.5090 N   0  0  0  0  0  0  0  0  0  0  0  0
  -30.5860  -23.2210   18.4680 O   0  0  0  0  0  0  0  0  0  0  0  0
  -28.9690  -21.5830   16.4890 C   0  0  0  0  0  1  0  0  0  0  0  0
  -30.9220  -20.1900   17.3560 C   0  0  0  0  0  1  0  0  0  0  0  0
  -29.4840  -20.6710   17.6220 C   0  0  0  0  0  3  0  0  0  0  0  0
  -29.8860  -24.6250   20.6650 C   0  0  0  0  0  2  0  0  0  0  0  0
  -28.7590  -25.4250   19.9950 C   0  0  0  0  0  2  0  0  0  0  0  0
  -28.7830  -26.7980   20.3660 O   0  0  0  0  0  0  0  0  0  0  0  0
  -24.6850  -31.7910   23.2910 C   0  0  0  0  0  0  0  0  0  0  0  0
  -27.5840  -27.4740   20.2860 C   0  0  0  0  0  0  0  0  0  0  0  0
  -23.5950  -30.3900   21.5670 C   0  0  0  0  0  3  0  0  0  0  0  0
  -25.1520  -28.9120   20.1990 C   0  0  0  0  0  0  0  0  0  0  0  0
  -26.1170  -30.8120   21.5040 C   0  0  0  0  0  2  0  0  0  0  0  0
  -26.2650  -29.4530   20.8550 C   0  0  0  0  0  0  0  0  0  0  0  0
  -27.4820  -28.7410   20.8980 C   0  0  0  0  0  3  0  0  0  0  0  0
  -26.4520  -26.9490   19.6140 C   0  0  0  0  0  3  0  0  0  0  0  0
  -25.2390  -27.6560   19.5790 C   0  0  0  0  0  3  0  0  0  0  0  0
  -23.8910  -29.7410   20.1910 C   0  0  0  0  0  2  0  0  0  0  0  0
  -24.8140  -31.0110   22.1810 N   0  0  0  0  0  0  0  0  0  0  0  0
  -23.5720  -32.0290   23.7790 O   0  0  0  0  0  0  0  0  0  0  0  0
  -22.9210  -29.3370   22.4770 C   0  0  0  0  0  0  0  0  0  0  0  0
  -21.6060  -29.1380   22.2900 N   0  0  0  0  0  0  0  0  0  0  0  0
  -23.5800  -28.7030   23.3050 O   0  0  0  0  0  0  0  0  0  0  0  0
  -21.1370  -29.7070   21.6000 H   0  0  0  0  0  0  0  0  0  0  0  0
  -18.2220  -27.9290   22.6520 C   0  0  0  0  0  0  0  0  0  0  0  0
  -20.7710  -28.1740   23.0060 C   0  0  0  0  0  3  0  0  0  0  0  0
  -20.8900  -26.7630   22.3840 C   0  0  0  0  0  2  0  0  0  0  0  0
  -19.8170  -26.4770   21.3290 C   0  0  0  0  0  2  0  0  0  0  0  0
  -18.4170  -26.6030   21.9370 C   0  0  0  0  0  2  0  0  0  0  0  0
  -19.3280  -28.6740   23.1410 C   0  0  0  0  0  0  0  0  0  0  0  0
  -19.0930  -29.9180   23.7650 C   0  0  0  0  0  3  0  0  0  0  0  0
  -17.7840  -30.4150   23.9080 C   0  0  0  0  0  3  0  0  0  0  0  0
  -16.6920  -29.6660   23.4370 C   0  0  0  0  0  3  0  0  0  0  0  0
  -16.9120  -28.4250   22.8140 C   0  0  0  0  0  3  0  0  0  0  0  0
  -25.9230  -32.4370   23.9840 C   0  0  0  0  0  3  0  0  0  0  0  0
  -26.3610  -31.6870   25.3020 C   0  0  1  0  0  0  0  0  0  0  0  0
  -25.2030  -31.4530   26.2980 C   0  0  0  0  0  1  0  0  0  0  0  0
  -26.9820  -30.3120   24.9640 C   0  0  0  0  0  1  0  0  0  0  0  0
  -27.4580  -32.5010   26.0270 C   0  0  0  0  0  1  0  0  0  0  0  0
  -25.5880  -33.8380   24.2700 N   0  0  0  0  0  0  0  0  0  0  0  0
  -25.9310  -34.8740   23.4940 C   0  0  0  0  0  0  0  0  0  0  0  0
  -26.6360  -34.7540   22.4870 O   0  0  0  0  0  0  0  0  0  0  0  0
  -24.9670  -34.0030   25.0480 H   0  0  0  0  0  0  0  0  0  0  0  0
  -24.1790  -36.6200   23.0500 C   0  0  0  0  0  1  0  0  0  0  0  0
  -25.4110  -36.2660   23.8970 C   0  0  0  0  0  3  0  0  0  0  0  0
  -27.5090  -37.2220   24.7430 C   0  0  0  0  0  1  0  0  0  0  0  0
  -26.4250  -37.3340   23.7690 N   0  0  0  0  0  0  0  0  0  0  0  0
  -25.9980  -38.2500   23.8730 H   0  0  0  0  0  0  0  0  0  0  0  0
  -28.2330  -19.3180   19.8570 O   0  0  0  0  0  0  0  0  0  0  0  0
  -31.0760  -14.4920   20.2720 C   0  0  0  0  0  0  0  0  0  0  0  0
  -30.7440  -12.3040   19.2180 C   0  0  0  0  0  2  0  0  0  0  0  0
  -29.7940  -12.4890   18.0150 C   0  0  0  0  0  2  0  0  0  0  0  0
  -28.3200  -12.4030   18.4610 C   0  0  0  0  0  2  0  0  0  0  0  0
  -28.0030  -13.2740   19.7060 C   0  0  0  0  0  3  0  0  0  0  0  0
  -29.0680  -13.0870   20.8110 C   0  0  0  0  0  2  0  0  0  0  0  0
  -30.3890  -13.3240   20.2120 N   0  0  0  0  0  0  0  0  0  0  0  0
  -32.2580  -14.5980   19.9330 O   0  0  0  0  0  0  0  0  0  0  0  0
  -29.1350  -17.5540   21.3270 C   0  0  0  0  0  2  0  0  0  0  0  0
  -29.1380  -17.3000   18.8620 C   0  0  0  0  0  2  0  0  0  0  0  0
  -30.2310  -16.4620   21.4330 C   0  0  0  0  0  2  0  0  0  0  0  0
  -30.3070  -16.3250   18.9740 C   0  0  0  0  0  2  0  0  0  0  0  0
  -29.2450  -18.3210   19.9970 C   0  0  0  0  0  3  0  0  0  0  0  0
  -30.2850  -15.5870   20.2480 N   0  0  0  0  0  0  0  0  0  0  0  0
  -25.6380  -13.9290   20.4770 C   0  0  0  0  0  0  0  0  0  0  0  0
  -24.5560  -13.1770   20.8480 C   0  0  0  0  0  0  0  0  0  0  0  0
  -24.9810  -11.8140   20.7800 C   0  0  0  0  0  0  0  0  0  0  0  0
  -26.6550  -13.0260   20.2070 N   0  0  0  0  0  0  0  0  0  0  0  0
  -26.2640  -11.7480   20.4470 N   0  0  0  0  0  0  0  0  0  0  0  0
  -24.2260  -10.5670   20.9560 C   0  0  0  0  0  0  0  0  0  0  0  0
  -24.5960   -9.6100   21.9270 C   0  0  0  0  0  3  0  0  0  0  0  0
  -23.8450   -8.4260   22.0880 C   0  0  0  0  0  3  0  0  0  0  0  0
  -22.7090   -8.1910   21.2770 C   0  0  0  0  0  0  0  0  0  0  0  0
  -22.3590   -9.1350   20.2970 C   0  0  0  0  0  3  0  0  0  0  0  0
  -23.1110  -10.3100   20.1340 C   0  0  0  0  0  3  0  0  0  0  0  0
  -21.9330   -7.0580   21.3440 O   0  0  0  0  0  0  0  0  0  0  0  0
  -21.7240   -6.3990   22.5290 C   0  0  0  0  0  0  0  0  0  0  0  0
  -21.1270   -7.0340   23.6390 C   0  0  0  0  0  3  0  0  0  0  0  0
  -20.8680   -6.3000   24.8140 C   0  0  0  0  0  3  0  0  0  0  0  0
  -21.1960   -4.9320   24.8780 C   0  0  0  0  0  0  0  0  0  0  0  0
  -21.7860   -4.2980   23.7700 C   0  0  0  0  0  3  0  0  0  0  0  0
  -22.0470   -5.0290   22.5990 C   0  0  0  0  0  0  0  0  0  0  0  0
  -22.5970   -4.4070   21.5280 F   0  0  0  0  0  0  0  0  0  0  0  0
  -20.9390   -4.2250   26.0020 F   0  0  0  0  0  0  0  0  0  0  0  0
  -23.1760  -13.6840   21.1520 C   0  0  0  0  0  0  0  0  0  0  0  0
  -22.4430  -12.9880   22.0160 N   0  0  0  0  0  0  0  0  0  0  0  0
  -22.7560  -14.7300   20.6600 O   0  0  0  0  0  0  0  0  0  0  0  0
  -22.7950  -12.1410   22.4350 H   0  0  0  0  0  0  0  0  0  0  0  0
  -21.5180  -13.3100   22.2590 H   0  0  0  0  0  0  0  0  0  0  0  0
  -25.8420  -15.2970   20.3280 N   0  0  0  0  0  0  0  0  0  0  0  0
  -25.1030  -15.9790   20.4600 H   0  0  0  0  0  0  0  0  0  0  0  0
  -26.7140  -15.7090   20.0260 H   0  0  0  0  0  0  0  0  0  0  0  0
  1  4  2  0
  2  5  1  0
  2  3  2  0
  3  1  1  0
  4  6  1  0
  5  7  1  0
  7 12  1  0
  7  4  1  0
  8  5  2  0
  9 11  1  0
 10 11  1  0
 11  2  1  0
 13 14  1  0
 13 12  1  0
 15 26  2  0
 16 14  1  0
 16 21  1  0
 17 25  1  0
 17 27  1  0
 18 20  1  0
 19 25  1  0
 20 21  2  0
 20 19  1  0
 22 16  2  0
 23 22  1  0
 23 18  2  0
 24 18  1  0
 24 17  1  0
 25 15  1  0
 27 29  2  0
 28 27  1  0
 30 28  1  0
 31 40  2  0
 31 36  1  0
 32 28  1  0
 32 36  1  0
 33 32  1  0
 34 35  1  0
 34 33  1  0
 35 31  1  0
 36 37  2  0
 37 38  1  0
 39 38  2  0
 40 39  1  0
 41 15  1  0
 41 46  1  0
 41 42  1  0
 42 45  1  1
 42 43  1  0
 44 42  1  0
 46 49  1  0
 47 51  1  0
 47 46  1  0
 48 47  2  0
 51 50  1  0
 53 54  1  0
 53 51  1  0
 53 52  1  0
 55  3  1  0
 57 62  1  0
 58 59  1  0
 58 57  1  0
 60 59  1  0
 60 73  1  0
 60 61  1  0
 62 56  1  0
 62 61  1  0
 63 56  2  0
 64 66  1  0
 65 67  1  0
 65 68  1  0
 67 69  1  0
 68 55  1  0
 68 64  1  0
 69 56  1  0
 69 66  1  0
 70 71  2  0
 71 90  1  0
 72 71  1  0
 72 75  1  0
 73 74  1  0
 73 70  1  0
 74 72  2  0
 75 76  1  0
 76 77  2  0
 78 81  1  0
 78 77  1  0
 79 78  2  0
 80 79  1  0
 80 75  2  0
 81 82  1  0
 82 87  2  0
 82 83  1  0
 83 84  2  0
 84 85  1  0
 85 89  1  0
 86 85  2  0
 87 86  1  0
 88 87  1  0
 90 91  1  0
 91 94  1  0
 91 93  1  0
 92 90  2  0
 95 96  1  0
 95 70  1  0
 97 95  1  0
M  ISO  4  13 101  14 101  56 100  69 100
M  END
>  <TORSDO>  (62) 
F 20

>  <SCORE>  (62) 
-13.119

>  <name>  (62) 
61

>  <ligand_id>  (62) 
61

>  <original_smiles>  (62) 
[H]c1c([H])c([H])c2c(c1[H])C([H])([H])C([H])([H])C([H])([H])C2([H])N([H])C(=O)C1([H])N(C(=O)C([H])(N([H])C(=O)C([H])(N([H])C([H])([H])[H])C([H])([H])[H])C(C([H])([H])[H])(C([H])([H])[H])C([H])([H])[H])C([H])([H])c2c([H])c(OC([H])([H])C([H])([H])n3c(C([H])([H])[H])c([H])c(OC4([H])C([H])([H])C([H])([H])N(C(=O)N5C([H])([H])C([H])([H])C([H])([H])C([H])(n6nc(-c7c([H])c([H])c(Oc8c([H])c([H])c(F)c([H])c8F)c([H])c7[H])c(C(=O)N([H])[H])c6N([H])[H])C5([H])[H])C([H])([H])C4([H])[H])c(C([H])(C([H])([H])[H])C([H])([H])[H])c3=O)c([H])c([H])c2C1([H])[H]

>  <smiles>  (62) 
[H]c1c([H])c([H])c2c(c1[H])C([H])([H])C([H])([H])C([H])([H])C2([H])N([H])C(=O)C1([H])N(C(=O)C([H])(N([H])C(=O)C([H])(N([H])C([H])([H])[H])C([H])([H])[H])C(C([H])([H])[H])(C([H])([H])[H])C([H])([H])[H])C([H])([H])c2c([H])c(OC([H])([H])C([H])([H])n3c(C([H])([H])[H])c([H])c(OC4([H])C([H])([H])C([H])([H])N(C(=O)N5C([H])([H])C([H])([H])C([H])([H])C([H])(n6nc(-c7c([H])c([H])c(Oc8c([H])c([H])c(F)c([H])c8F)c([H])c7[H])c(C(=O)N([H])[H])c6N([H])[H])C5([H])[H])C([H])([H])C4([H])[H])c(C([H])(C([H])([H])[H])C([H])([H])[H])c3=O)c([H])c([H])c2C1([H])[H]

$$$$
62:0:0
     RDKit          3D

 96106  0  0  1  0  0  0  0  0999 V2000
  -28.0740  -19.9690   19.5250 C   0  0  0  0  0  3  0  0  0  0  0  0
  -28.9090  -20.8030   16.9110 C   0  0  0  0  0  3  0  0  0  0  0  0
  -27.7270  -21.2020   19.0100 C   0  0  0  0  0  0  0  0  0  0  0  0
  -28.9520  -19.1870   18.7590 C   0  0  0  0  0  0  0  0  0  0  0  0
  -28.1470  -21.6100   17.7540 C   0  0  0  0  0  0  0  0  0  0  0  0
  -29.3380  -19.5680   17.4300 C   0  0  0  0  0  0  0  0  0  0  0  0
  -27.2710  -22.3540   19.8260 C   0  0  0  0  0  2  0  0  0  0  0  0
  -28.0020  -23.0780   17.6430 C   0  0  0  0  0  2  0  0  0  0  0  0
  -30.2530  -18.7500   16.5300 C   0  0  0  0  0  1  0  0  0  0  0  0
  -28.0050  -23.4100   19.0880 N   0  0  1  0  0  4  0  0  0  0  0  0
  -28.9690  -23.3390   19.3740 H   0  0  0  0  0  0  0  0  0  0  0  0
  -30.8150  -14.3930   20.7810 C   0  0  0  0  0  0  0  0  0  0  0  0
  -30.5220  -12.2120   19.7280 C   0  0  0  0  0  2  0  0  0  0  0  0
  -29.6510  -12.3180   18.4560 C   0  0  0  0  0  2  0  0  0  0  0  0
  -28.1360  -12.4020   18.7770 C   0  0  0  0  0  2  0  0  0  0  0  0
  -27.7450  -13.2450   20.0350 C   0  0  0  0  0  3  0  0  0  0  0  0
  -28.7490  -13.0360   21.1950 C   0  0  0  0  0  2  0  0  0  0  0  0
  -30.1120  -13.2420   20.6810 N   0  0  0  0  0  0  0  0  0  0  0  0
  -32.0300  -14.5060   20.5940 O   0  0  0  0  0  0  0  0  0  0  0  0
  -29.4550  -17.8590   20.9450 C   0  0  0  0  0  2  0  0  0  0  0  0
  -28.8770  -16.7600   18.8380 C   0  0  0  0  0  2  0  0  0  0  0  0
  -30.3130  -16.6650   21.3900 C   0  0  0  0  0  2  0  0  0  0  0  0
  -29.8590  -15.6710   19.1240 C   0  0  0  0  0  2  0  0  0  0  0  0
  -29.5400  -17.9810   19.4100 C   0  0  0  0  0  3  0  0  0  0  0  0
  -30.0530  -15.4640   20.5740 N   0  0  0  0  0  0  0  0  0  0  0  0
  -25.3130  -13.8900   20.5920 C   0  0  0  0  0  0  0  0  0  0  0  0
  -24.2240  -13.1260   20.9090 C   0  0  0  0  0  0  0  0  0  0  0  0
  -24.6830  -11.7740   20.9330 C   0  0  0  0  0  0  0  0  0  0  0  0
  -26.3670  -12.9980   20.4430 N   0  0  0  0  0  0  0  0  0  0  0  0
  -25.9870  -11.7230   20.7080 N   0  0  0  0  0  0  0  0  0  0  0  0
  -23.9520  -10.5140   21.1070 C   0  0  0  0  0  0  0  0  0  0  0  0
  -24.3470   -9.5560   22.0680 C   0  0  0  0  0  3  0  0  0  0  0  0
  -23.6140   -8.3610   22.2260 C   0  0  0  0  0  3  0  0  0  0  0  0
  -22.4760   -8.1150   21.4250 C   0  0  0  0  0  0  0  0  0  0  0  0
  -22.1010   -9.0610   20.4530 C   0  0  0  0  0  3  0  0  0  0  0  0
  -22.8340  -10.2480   20.2930 C   0  0  0  0  0  3  0  0  0  0  0  0
  -21.7210   -6.9690   21.4900 O   0  0  0  0  0  0  0  0  0  0  0  0
  -21.6360   -6.2300   22.6420 C   0  0  0  0  0  0  0  0  0  0  0  0
  -21.1700   -6.7880   23.8520 C   0  0  0  0  0  3  0  0  0  0  0  0
  -21.0320   -5.9750   24.9940 C   0  0  0  0  0  3  0  0  0  0  0  0
  -21.3520   -4.6050   24.9270 C   0  0  0  0  0  0  0  0  0  0  0  0
  -21.8130   -4.0470   23.7200 C   0  0  0  0  0  3  0  0  0  0  0  0
  -21.9510   -4.8580   22.5810 C   0  0  0  0  0  0  0  0  0  0  0  0
  -22.3750   -4.3130   21.4150 F   0  0  0  0  0  0  0  0  0  0  0  0
  -21.2090   -3.8220   26.0220 F   0  0  0  0  0  0  0  0  0  0  0  0
  -22.8130  -13.6100   21.0940 C   0  0  0  0  0  0  0  0  0  0  0  0
  -22.0380  -12.9260   21.9290 N   0  0  0  0  0  0  0  0  0  0  0  0
  -22.4040  -14.6250   20.5320 O   0  0  0  0  0  0  0  0  0  0  0  0
  -22.3810  -12.1040   22.4020 H   0  0  0  0  0  0  0  0  0  0  0  0
  -21.0840  -13.2150   22.0910 H   0  0  0  0  0  0  0  0  0  0  0  0
  -25.4860  -15.2580   20.4010 N   0  0  0  0  0  0  0  0  0  0  0  0
  -24.7120  -15.9090   20.4490 H   0  0  0  0  0  0  0  0  0  0  0  0
  -26.3640  -15.7100   20.1790 H   0  0  0  0  0  0  0  0  0  0  0  0
  -27.5320  -24.7460   19.3470 C   0  0  0  0  0  2  0  0  0  0  0  0
  -28.1850  -25.4490   20.5320 C   0  0  0  0  0  2  0  0  0  0  0  0
  -28.2700  -26.8440   20.2550 O   0  0  0  0  0  0  0  0  0  0  0  0
  -24.5080  -31.9960   23.3020 C   0  0  0  0  0  0  0  0  0  0  0  0
  -27.0900  -27.5570   20.2460 C   0  0  0  0  0  0  0  0  0  0  0  0
  -23.2890  -30.6200   21.6610 C   0  0  0  0  0  3  0  0  0  0  0  0
  -24.7160  -29.0870   20.2570 C   0  0  0  0  0  0  0  0  0  0  0  0
  -25.8210  -30.9440   21.4810 C   0  0  0  0  0  2  0  0  0  0  0  0
  -25.8810  -29.5750   20.8640 C   0  0  0  0  0  0  0  0  0  0  0  0
  -27.0650  -28.8120   20.8780 C   0  0  0  0  0  3  0  0  0  0  0  0
  -25.9180  -27.1450   19.5580 C   0  0  0  0  0  3  0  0  0  0  0  0
  -24.7260  -27.8590   19.6080 C   0  0  0  0  0  3  0  0  0  0  0  0
  -23.4900  -29.9510   20.2840 C   0  0  0  0  0  2  0  0  0  0  0  0
  -24.5600  -31.1970   22.2070 N   0  0  0  0  0  0  0  0  0  0  0  0
  -23.4270  -32.2760   23.8410 O   0  0  0  0  0  0  0  0  0  0  0  0
  -22.6320  -29.5880   22.6090 C   0  0  0  0  0  0  0  0  0  0  0  0
  -21.3070  -29.4170   22.4770 N   0  0  0  0  0  0  0  0  0  0  0  0
  -23.3090  -28.9420   23.4140 O   0  0  0  0  0  0  0  0  0  0  0  0
  -20.8230  -29.9830   21.7930 H   0  0  0  0  0  0  0  0  0  0  0  0
  -17.9120  -28.2980   22.9750 C   0  0  0  0  0  0  0  0  0  0  0  0
  -20.4750  -28.4960   23.2490 C   0  0  0  0  0  3  0  0  0  0  0  0
  -20.5470  -27.0630   22.6760 C   0  0  0  0  0  2  0  0  0  0  0  0
  -19.4370  -26.7620   21.6650 C   0  0  0  0  0  2  0  0  0  0  0  0
  -18.0590  -26.9420   22.3040 C   0  0  0  0  0  2  0  0  0  0  0  0
  -19.0490  -29.0330   23.4040 C   0  0  0  0  0  0  0  0  0  0  0  0
  -18.8600  -30.3050   23.9890 C   0  0  0  0  0  3  0  0  0  0  0  0
  -17.5690  -30.8400   24.1500 C   0  0  0  0  0  3  0  0  0  0  0  0
  -16.4480  -30.0980   23.7440 C   0  0  0  0  0  3  0  0  0  0  0  0
  -16.6160  -28.8290   23.1590 C   0  0  0  0  0  3  0  0  0  0  0  0
  -25.8010  -32.6140   23.9170 C   0  0  0  0  0  3  0  0  0  0  0  0
  -25.5150  -34.0220   24.2210 N   0  0  0  0  0  0  0  0  0  0  0  0
  -25.8680  -35.0540   23.4410 C   0  0  0  0  0  0  0  0  0  0  0  0
  -26.5500  -34.9220   22.4220 O   0  0  0  0  0  0  0  0  0  0  0  0
  -24.9160  -34.1990   25.0140 H   0  0  0  0  0  0  0  0  0  0  0  0
  -24.1790  -36.8700   23.0150 C   0  0  0  0  0  1  0  0  0  0  0  0
  -25.3930  -36.4570   23.8630 C   0  0  0  0  0  3  0  0  0  0  0  0
  -27.5190  -37.3160   24.7380 C   0  0  0  0  0  1  0  0  0  0  0  0
  -26.4450  -37.4930   23.7660 N   0  0  0  0  0  0  0  0  0  0  0  0
  -26.0480  -38.4210   23.8970 H   0  0  0  0  0  0  0  0  0  0  0  0
  -26.3030  -31.8490   25.2000 C   0  0  1  0  0  0  0  0  0  0  0  0
  -25.2010  -31.6250   26.2600 C   0  0  0  0  0  1  0  0  0  0  0  0
  -26.8820  -30.4650   24.8280 C   0  0  0  0  0  1  0  0  0  0  0  0
  -27.4600  -32.6390   25.8590 C   0  0  0  0  0  1  0  0  0  0  0  0
  2  6  2  0
  2  5  1  0
  3  1  1  0
  3  7  1  0
  4  1  2  0
  5  3  2  0
  6  4  1  0
  8  5  1  0
  8 10  1  0
  9  6  1  0
 10 54  1  0
 10 11  1  1
 10  7  1  0
 13 18  1  0
 14 15  1  0
 14 13  1  0
 16 15  1  0
 16 29  1  0
 16 17  1  0
 18 12  1  0
 18 17  1  0
 19 12  2  0
 20 22  1  0
 21 23  1  0
 21 24  1  0
 23 25  1  0
 24  4  1  0
 24 20  1  0
 25 12  1  0
 25 22  1  0
 26 27  2  0
 27 28  1  0
 27 46  1  0
 28 31  1  0
 29 26  1  0
 29 30  1  0
 30 28  2  0
 31 32  1  0
 32 33  2  0
 34 37  1  0
 34 33  1  0
 35 34  2  0
 36 35  1  0
 36 31  2  0
 37 38  1  0
 38 39  1  0
 39 40  2  0
 41 40  1  0
 41 45  1  0
 42 41  2  0
 43 38  2  0
 43 42  1  0
 44 43  1  0
 46 47  1  0
 47 50  1  0
 47 49  1  0
 48 46  2  0
 51 52  1  0
 51 26  1  0
 53 51  1  0
 54 55  1  0
 56 55  1  0
 57 68  2  0
 58 56  1  0
 58 63  1  0
 59 67  1  0
 59 69  1  0
 60 66  1  0
 60 62  1  0
 61 67  1  0
 62 63  2  0
 62 61  1  0
 64 65  1  0
 64 58  2  0
 65 60  2  0
 66 59  1  0
 67 57  1  0
 69 71  2  0
 70 69  1  0
 72 70  1  0
 73 82  2  0
 73 78  1  0
 74 70  1  0
 74 78  1  0
 75 74  1  0
 76 77  1  0
 76 75  1  0
 77 73  1  0
 78 79  2  0
 79 80  1  0
 81 80  2  0
 82 81  1  0
 83 57  1  0
 83 84  1  0
 83 93  1  0
 84 87  1  0
 85 89  1  0
 85 84  1  0
 86 85  2  0
 89 88  1  0
 91 89  1  0
 91 92  1  0
 91 90  1  0
 93 96  1  1
 93 94  1  0
 95 93  1  0
M  ISO  4  12 100  25 100  55 101  56 101
M  END
>  <TORSDO>  (63) 
F 18

>  <SCORE>  (63) 
-14.645

>  <name>  (63) 
62

>  <ligand_id>  (63) 
62

>  <original_smiles>  (63) 
[H]c1c([H])c([H])c2c(c1[H])C([H])([H])C([H])([H])C([H])([H])C2([H])N([H])C(=O)C1([H])N(C(=O)C([H])(N([H])C(=O)C([H])(N([H])C([H])([H])[H])C([H])([H])[H])C(C([H])([H])[H])(C([H])([H])[H])C([H])([H])[H])C([H])([H])c2c([H])c(OC([H])([H])C([H])([H])[N+]3([H])C([H])([H])c4c([H])c(C([H])([H])[H])c(C5([H])C([H])([H])C([H])([H])N(C(=O)N6C([H])([H])C([H])([H])C([H])([H])C([H])(n7nc(-c8c([H])c([H])c(Oc9c([H])c([H])c(F)c([H])c9F)c([H])c8[H])c(C(=O)N([H])[H])c7N([H])[H])C6([H])[H])C([H])([H])C5([H])[H])c([H])c4C3([H])[H])c([H])c([H])c2C1([H])[H]

>  <smiles>  (63) 
[H]c1c([H])c([H])c2c(c1[H])C([H])([H])C([H])([H])C([H])([H])C2([H])N([H])C(=O)C1([H])N(C(=O)C([H])(N([H])C(=O)C([H])(N([H])C([H])([H])[H])C([H])([H])[H])C(C([H])([H])[H])(C([H])([H])[H])C([H])([H])[H])C([H])([H])c2c([H])c(OC([H])([H])C([H])([H])[N+]3([H])C([H])([H])c4c([H])c(C([H])([H])[H])c(C5([H])C([H])([H])C([H])([H])N(C(=O)N6C([H])([H])C([H])([H])C([H])([H])C([H])(n7nc(-c8c([H])c([H])c(Oc9c([H])c([H])c(F)c([H])c9F)c([H])c8[H])c(C(=O)N([H])[H])c7N([H])[H])C6([H])[H])C([H])([H])C5([H])[H])c([H])c4C3([H])[H])c([H])c([H])c2C1([H])[H]

$$$$
63:0:0
     RDKit          3D

 98107  0  0  1  0  0  0  0  0999 V2000
  -29.4170  -20.9040   20.2210 C   0  0  0  0  0  0  0  0  0  0  0  0
  -28.7220  -21.2380   19.0080 C   0  0  0  0  0  0  0  0  0  0  0  0
  -29.8220  -22.0560   21.0150 C   0  0  0  0  0  0  0  0  0  0  0  0
  -28.3740  -22.5950   18.6580 C   0  0  0  0  0  0  0  0  0  0  0  0
  -29.3750  -23.4060   20.6930 C   0  0  0  0  0  0  0  0  0  0  0  0
  -28.5900  -23.7000   19.5380 C   0  0  0  0  0  0  0  0  0  0  0  0
  -28.3250  -20.1410   18.0190 C   0  0  0  0  0  1  0  0  0  0  0  0
  -27.7210  -22.8680   17.3010 C   0  0  0  0  0  1  0  0  0  0  0  0
  -29.7260  -24.5890   21.6020 C   0  0  0  0  0  1  0  0  0  0  0  0
  -31.0930  -15.0120   20.4740 C   0  0  0  0  0  0  0  0  0  0  0  0
  -30.9210  -12.6660   19.6300 C   0  0  0  0  0  2  0  0  0  0  0  0
  -30.0570  -12.5590   18.3600 C   0  0  0  0  0  2  0  0  0  0  0  0
  -28.5900  -12.3170   18.7480 C   0  0  0  0  0  2  0  0  0  0  0  0
  -28.1020  -13.2980   19.8450 C   0  0  0  0  0  3  0  0  0  0  0  0
  -29.1090  -13.4370   21.0130 C   0  0  0  0  0  2  0  0  0  0  0  0
  -30.4070  -13.8100   20.4350 N   0  0  0  0  0  0  0  0  0  0  0  0
  -32.2850  -14.9770   20.1600 O   0  0  0  0  0  0  0  0  0  0  0  0
  -28.7440  -18.2110   20.3580 C   0  0  0  0  0  2  0  0  0  0  0  0
  -31.1420  -18.7870   20.2460 C   0  0  0  0  0  2  0  0  0  0  0  0
  -29.1240  -16.7450   20.8770 C   0  0  0  0  0  2  0  0  0  0  0  0
  -31.4480  -17.4430   20.9960 C   0  0  0  0  0  2  0  0  0  0  0  0
  -29.7650  -19.3740   20.6400 C   0  0  0  0  0  3  0  0  0  0  0  0
  -30.5360  -16.2820   20.7170 N   0  0  0  0  0  0  0  0  0  0  0  0
  -25.6920  -13.8060   20.5450 C   0  0  0  0  0  0  0  0  0  0  0  0
  -24.6420  -12.9950   20.8780 C   0  0  0  0  0  0  0  0  0  0  0  0
  -25.1450  -11.6580   20.8310 C   0  0  0  0  0  0  0  0  0  0  0  0
  -26.7630  -12.9620   20.3120 N   0  0  0  0  0  0  0  0  0  0  0  0
  -26.4420  -11.6640   20.5490 N   0  0  0  0  0  0  0  0  0  0  0  0
  -24.4520  -10.3730   20.9780 C   0  0  0  0  0  0  0  0  0  0  0  0
  -24.8070   -9.4550   21.9900 C   0  0  0  0  0  3  0  0  0  0  0  0
  -24.1090   -8.2350   22.1250 C   0  0  0  0  0  3  0  0  0  0  0  0
  -23.0440   -7.9240   21.2460 C   0  0  0  0  0  0  0  0  0  0  0  0
  -22.7090   -8.8340   20.2280 C   0  0  0  0  0  3  0  0  0  0  0  0
  -23.4080  -10.0450   20.0910 C   0  0  0  0  0  3  0  0  0  0  0  0
  -22.3270   -6.7520   21.2860 O   0  0  0  0  0  0  0  0  0  0  0  0
  -21.9690   -6.1680   22.4740 C   0  0  0  0  0  0  0  0  0  0  0  0
  -21.1550   -6.8350   23.4160 C   0  0  0  0  0  3  0  0  0  0  0  0
  -20.7530   -6.1720   24.5920 C   0  0  0  0  0  3  0  0  0  0  0  0
  -21.1540   -4.8410   24.8240 C   0  0  0  0  0  0  0  0  0  0  0  0
  -21.9610   -4.1750   23.8840 C   0  0  0  0  0  3  0  0  0  0  0  0
  -22.3630   -4.8360   22.7110 C   0  0  0  0  0  0  0  0  0  0  0  0
  -23.1220   -4.1820   21.7980 F   0  0  0  0  0  0  0  0  0  0  0  0
  -20.7620   -4.2000   25.9500 F   0  0  0  0  0  0  0  0  0  0  0  0
  -23.2280  -13.4280   21.1260 C   0  0  0  0  0  0  0  0  0  0  0  0
  -22.5190  -12.7300   22.0080 N   0  0  0  0  0  0  0  0  0  0  0  0
  -22.7570  -14.4200   20.5710 O   0  0  0  0  0  0  0  0  0  0  0  0
  -22.9140  -11.9280   22.4780 H   0  0  0  0  0  0  0  0  0  0  0  0
  -21.5690  -13.0000   22.2150 H   0  0  0  0  0  0  0  0  0  0  0  0
  -25.8140  -15.1840   20.3940 N   0  0  0  0  0  0  0  0  0  0  0  0
  -25.0170  -15.8030   20.4960 H   0  0  0  0  0  0  0  0  0  0  0  0
  -26.6460  -15.6600   20.0710 H   0  0  0  0  0  0  0  0  0  0  0  0
  -32.1490  -21.2680   21.7540 C   0  0  0  0  0  1  0  0  0  0  0  0
  -30.8030  -21.8870   22.2090 C   0  0  0  0  0  3  0  0  0  0  0  0
  -29.9200  -22.4040   24.5640 C   0  0  0  0  0  1  0  0  0  0  0  0
  -30.9660  -20.1620   24.1450 C   0  0  0  0  0  1  0  0  0  0  0  0
  -30.1560  -21.3090   23.5110 C   0  0  0  0  0  3  0  0  0  0  0  0
  -27.7170  -25.0390   19.3870 C   0  0  0  0  0  2  0  0  0  0  0  0
  -28.1530  -26.4700   19.5460 O   0  0  0  0  0  0  0  0  0  0  0  0
  -24.7090  -31.6960   23.2530 C   0  0  0  0  0  0  0  0  0  0  0  0
  -27.1010  -27.4270   19.6050 C   0  0  0  0  0  0  0  0  0  0  0  0
  -23.4270  -30.5330   21.4990 C   0  0  0  0  0  3  0  0  0  0  0  0
  -24.7960  -29.1370   19.8550 C   0  0  0  0  0  0  0  0  0  0  0  0
  -25.9770  -30.7930   21.2850 C   0  0  0  0  0  2  0  0  0  0  0  0
  -26.0010  -29.5000   20.4730 C   0  0  0  0  0  0  0  0  0  0  0  0
  -27.1560  -28.6590   20.3420 C   0  0  0  0  0  3  0  0  0  0  0  0
  -25.8680  -27.1570   18.9550 C   0  0  0  0  0  3  0  0  0  0  0  0
  -24.7360  -27.9720   19.0870 C   0  0  0  0  0  3  0  0  0  0  0  0
  -23.5870  -30.0300   20.0440 C   0  0  0  0  0  2  0  0  0  0  0  0
  -24.7250  -31.0180   22.0680 N   0  0  0  0  0  0  0  0  0  0  0  0
  -23.6480  -31.9360   23.8470 O   0  0  0  0  0  0  0  0  0  0  0  0
  -22.7600  -29.4220   22.3480 C   0  0  0  0  0  0  0  0  0  0  0  0
  -21.4410  -29.2350   22.1730 N   0  0  0  0  0  0  0  0  0  0  0  0
  -23.4310  -28.7390   23.1250 O   0  0  0  0  0  0  0  0  0  0  0  0
  -20.9580  -29.8420   21.5250 H   0  0  0  0  0  0  0  0  0  0  0  0
  -18.0560  -28.0180   22.5820 C   0  0  0  0  0  0  0  0  0  0  0  0
  -20.6210  -28.2210   22.8430 C   0  0  0  0  0  3  0  0  0  0  0  0
  -20.7000  -26.8650   22.1050 C   0  0  0  0  0  2  0  0  0  0  0  0
  -19.5810  -26.6710   21.0750 C   0  0  0  0  0  2  0  0  0  0  0  0
  -18.2090  -26.7540   21.7520 C   0  0  0  0  0  2  0  0  0  0  0  0
  -19.1890  -28.7160   23.0800 C   0  0  0  0  0  0  0  0  0  0  0  0
  -18.9900  -29.9030   23.8170 C   0  0  0  0  0  3  0  0  0  0  0  0
  -17.6940  -30.3910   24.0610 C   0  0  0  0  0  3  0  0  0  0  0  0
  -16.5750  -29.6900   23.5770 C   0  0  0  0  0  3  0  0  0  0  0  0
  -16.7580  -28.5030   22.8440 C   0  0  0  0  0  3  0  0  0  0  0  0
  -26.0240  -32.2210   23.9070 C   0  0  0  0  0  3  0  0  0  0  0  0
  -26.4650  -31.3840   25.1700 C   0  0  1  0  0  0  0  0  0  0  0  0
  -25.3350  -31.1820   26.2070 C   0  0  0  0  0  1  0  0  0  0  0  0
  -26.9740  -29.9840   24.7540 C   0  0  0  0  0  1  0  0  0  0  0  0
  -27.6460  -32.0880   25.8760 C   0  0  0  0  0  1  0  0  0  0  0  0
  -25.8070  -33.6290   24.2690 N   0  0  0  0  0  0  0  0  0  0  0  0
  -26.1790  -34.6750   23.5190 C   0  0  0  0  0  0  0  0  0  0  0  0
  -26.8120  -34.5510   22.4660 O   0  0  0  0  0  0  0  0  0  0  0  0
  -25.2470  -33.8020   25.0900 H   0  0  0  0  0  0  0  0  0  0  0  0
  -24.5670  -36.5830   23.2290 C   0  0  0  0  0  1  0  0  0  0  0  0
  -25.7880  -36.0810   24.0150 C   0  0  0  0  0  3  0  0  0  0  0  0
  -27.9790  -36.8150   24.8490 C   0  0  0  0  0  1  0  0  0  0  0  0
  -26.8860  -37.0680   23.9130 N   0  0  0  0  0  0  0  0  0  0  0  0
  -26.5400  -38.0100   24.0760 H   0  0  0  0  0  0  0  0  0  0  0  0
  1  3  1  0
  2  1  2  0
  3 53  1  0
  4  2  1  0
  4  6  2  0
  5  3  2  0
  5  9  1  0
  6  5  1  0
  7  2  1  0
  8  4  1  0
 10 23  1  0
 11 16  1  0
 12 13  1  0
 12 11  1  0
 14 13  1  0
 14 27  1  0
 14 15  1  0
 16 10  1  0
 16 15  1  0
 17 10  2  0
 18 22  1  0
 18 20  1  0
 19 22  1  0
 19 21  1  0
 22  1  1  0
 23 20  1  0
 23 21  1  0
 24 25  2  0
 25 44  1  0
 26 25  1  0
 26 29  1  0
 27 24  1  0
 27 28  1  0
 28 26  2  0
 29 30  1  0
 30 31  2  0
 32 35  1  0
 32 31  1  0
 33 32  2  0
 34 33  1  0
 34 29  2  0
 35 36  1  0
 36 41  2  0
 36 37  1  0
 37 38  2  0
 38 39  1  0
 39 43  1  0
 40 39  2  0
 41 40  1  0
 42 41  1  0
 44 45  1  0
 45 48  1  0
 45 47  1  0
 46 44  2  0
 49 50  1  0
 49 24  1  0
 51 49  1  0
 53 52  1  0
 53 56  1  0
 56 55  1  0
 56 54  1  0
 57  6  1  0
 57 58  1  0
 58 60  1  0
 59 70  2  0
 60 65  1  0
 61 69  1  0
 61 71  1  0
 62 68  1  0
 62 64  1  0
 63 69  1  0
 64 63  1  0
 65 64  2  0
 66 67  1  0
 66 60  2  0
 67 62  2  0
 68 61  1  0
 69 59  1  0
 71 73  2  0
 72 71  1  0
 74 72  1  0
 75 84  2  0
 75 80  1  0
 76 72  1  0
 76 80  1  0
 77 76  1  0
 78 79  1  0
 78 77  1  0
 79 75  1  0
 80 81  2  0
 81 82  1  0
 83 82  2  0
 84 83  1  0
 85 59  1  0
 85 90  1  0
 85 86  1  0
 86 89  1  1
 86 87  1  0
 88 86  1  0
 90 93  1  0
 91 95  1  0
 91 90  1  0
 92 91  2  0
 95 94  1  0
 97 95  1  0
 97 98  1  0
 97 96  1  0
M  ISO  4  10 100  23 100  57 101  58 101
M  END
>  <TORSDO>  (64) 
F 19

>  <SCORE>  (64) 
-13.387

>  <name>  (64) 
63

>  <ligand_id>  (64) 
63

>  <original_smiles>  (64) 
[H]c1c([H])c([H])c2c(c1[H])C([H])([H])C([H])([H])C([H])([H])C2([H])N([H])C(=O)C1([H])N(C(=O)C([H])(N([H])C(=O)C([H])(N([H])C([H])([H])[H])C([H])([H])[H])C(C([H])([H])[H])(C([H])([H])[H])C([H])([H])[H])C([H])([H])c2c([H])c(OC([H])([H])c3c(C([H])([H])[H])c(C([H])([H])[H])c(C4([H])C([H])([H])C([H])([H])N(C(=O)N5C([H])([H])C([H])([H])C([H])([H])C([H])(n6nc(-c7c([H])c([H])c(Oc8c([H])c([H])c(F)c([H])c8F)c([H])c7[H])c(C(=O)N([H])[H])c6N([H])[H])C5([H])[H])C([H])([H])C4([H])[H])c(C([H])(C([H])([H])[H])C([H])(C([H])([H])[H])C([H])([H])[H])c3C([H])([H])[H])c([H])c([H])c2C1([H])[H]

>  <smiles>  (64) 
[H]c1c([H])c([H])c2c(c1[H])C([H])([H])C([H])([H])C([H])([H])C2([H])N([H])C(=O)C1([H])N(C(=O)C([H])(N([H])C(=O)C([H])(N([H])C([H])([H])[H])C([H])([H])[H])C(C([H])([H])[H])(C([H])([H])[H])C([H])([H])[H])C([H])([H])c2c([H])c(OC([H])([H])c3c(C([H])([H])[H])c(C([H])([H])[H])c(C4([H])C([H])([H])C([H])([H])N(C(=O)N5C([H])([H])C([H])([H])C([H])([H])C([H])(n6nc(-c7c([H])c([H])c(Oc8c([H])c([H])c(F)c([H])c8F)c([H])c7[H])c(C(=O)N([H])[H])c6N([H])[H])C5([H])[H])C([H])([H])C4([H])[H])c(C([H])(C([H])([H])[H])C([H])(C([H])([H])[H])C([H])([H])[H])c3C([H])([H])[H])c([H])c([H])c2C1([H])[H]

$$$$
64:0:0
     RDKit          3D

106116  0  0  1  0  0  0  0  0999 V2000
  -30.5300  -19.0830   19.6480 C   0  0  0  0  0  2  0  0  0  0  0  0
  -30.1550  -19.2500   21.6970 C   0  0  0  0  0  2  0  0  0  0  0  0
  -29.7310  -20.1470   20.4840 C   0  0  0  0  0  3  0  0  0  0  0  0
  -31.2410  -18.4520   20.8970 C   0  0  2  0  0  0  0  0  0  0  0  0
  -33.8110  -18.2820   20.6800 C   0  0  0  0  0  2  0  0  0  0  0  0
  -33.1440  -20.2020   20.4850 C   0  0  0  0  0  2  0  0  0  0  0  0
  -34.5290  -19.6380   20.7600 C   0  0  0  0  0  3  0  0  0  0  0  0
  -32.6240  -19.0110   21.1570 N   0  0  1  0  0  4  0  0  0  0  0  0
  -32.7220  -19.1500   22.1530 H   0  0  0  0  0  0  0  0  0  0  0  0
  -36.1370  -19.2990   18.8170 C   0  0  0  0  0  3  0  0  0  0  0  0
  -37.3960  -21.7590   19.3150 C   0  0  0  0  0  3  0  0  0  0  0  0
  -35.7100  -20.0900   19.9070 C   0  0  0  0  0  0  0  0  0  0  0  0
  -36.3450  -21.3330   20.1530 C   0  0  0  0  0  0  0  0  0  0  0  0
  -37.8190  -20.9670   18.2300 C   0  0  0  0  0  0  0  0  0  0  0  0
  -37.1820  -19.7320   17.9800 C   0  0  0  0  0  0  0  0  0  0  0  0
  -35.9140  -22.2370   21.2970 C   0  0  0  0  0  1  0  0  0  0  0  0
  -38.9510  -21.4530   17.3420 C   0  0  0  0  0  1  0  0  0  0  0  0
  -37.6600  -18.7410   16.6480 Cl  0  0  0  0  0  0  0  0  0  0  0  0
  -31.0870  -16.5010   22.5910 C   0  0  0  0  0  1  0  0  0  0  0  0
  -31.4630  -16.8740   21.1350 C   0  0  0  0  0  3  0  0  0  0  0  0
  -31.4670  -14.6730   19.8900 C   0  0  0  0  0  0  0  0  0  0  0  0
  -31.0750  -12.4100   18.9360 C   0  0  0  0  0  2  0  0  0  0  0  0
  -30.0920  -12.4930   17.7520 C   0  0  0  0  0  2  0  0  0  0  0  0
  -28.6320  -12.4340   18.2460 C   0  0  0  0  0  2  0  0  0  0  0  0
  -28.3600  -13.3900   19.4400 C   0  0  0  0  0  3  0  0  0  0  0  0
  -29.4550  -13.2720   20.5180 C   0  0  0  0  0  2  0  0  0  0  0  0
  -30.7450  -13.5120   19.8580 N   0  0  0  0  0  0  0  0  0  0  0  0
  -32.6220  -14.7260   19.4630 O   0  0  0  0  0  0  0  0  0  0  0  0
  -30.8240  -15.8060   20.3100 N   0  0  0  0  0  0  0  0  0  0  0  0
  -29.8300  -15.6980   20.4380 H   0  0  0  0  0  0  0  0  0  0  0  0
  -26.0780  -14.1430   20.3440 C   0  0  0  0  0  0  0  0  0  0  0  0
  -24.9720  -13.4420   20.7430 C   0  0  0  0  0  0  0  0  0  0  0  0
  -25.3140  -12.0610   20.6170 C   0  0  0  0  0  0  0  0  0  0  0  0
  -27.0250  -13.1940   19.9980 N   0  0  0  0  0  0  0  0  0  0  0  0
  -26.5750  -11.9330   20.2230 N   0  0  0  0  0  0  0  0  0  0  0  0
  -24.4950  -10.8550   20.7910 C   0  0  0  0  0  0  0  0  0  0  0  0
  -24.8570   -9.8400   21.7040 C   0  0  0  0  0  3  0  0  0  0  0  0
  -24.0440   -8.6980   21.8660 C   0  0  0  0  0  3  0  0  0  0  0  0
  -22.8520   -8.5640   21.1130 C   0  0  0  0  0  0  0  0  0  0  0  0
  -22.5080   -9.5660   20.1880 C   0  0  0  0  0  3  0  0  0  0  0  0
  -23.3220  -10.6990   20.0250 C   0  0  0  0  0  3  0  0  0  0  0  0
  -22.0120   -7.4790   21.1860 O   0  0  0  0  0  0  0  0  0  0  0  0
  -21.8530   -6.7680   22.3480 C   0  0  0  0  0  0  0  0  0  0  0  0
  -21.4000   -7.3770   23.5380 C   0  0  0  0  0  3  0  0  0  0  0  0
  -21.1850   -6.5960   24.6910 C   0  0  0  0  0  3  0  0  0  0  0  0
  -21.4110   -5.2080   24.6550 C   0  0  0  0  0  0  0  0  0  0  0  0
  -21.8580   -4.5980   23.4680 C   0  0  0  0  0  3  0  0  0  0  0  0
  -22.0740   -5.3750   22.3180 C   0  0  0  0  0  0  0  0  0  0  0  0
  -22.4840   -4.7800   21.1710 F   0  0  0  0  0  0  0  0  0  0  0  0
  -21.1970   -4.4550   25.7590 F   0  0  0  0  0  0  0  0  0  0  0  0
  -23.6400  -14.0190   21.1260 C   0  0  0  0  0  0  0  0  0  0  0  0
  -22.9250  -13.3610   22.0300 N   0  0  0  0  0  0  0  0  0  0  0  0
  -23.2460  -15.0850   20.6540 O   0  0  0  0  0  0  0  0  0  0  0  0
  -23.2550  -12.4950   22.4310 H   0  0  0  0  0  0  0  0  0  0  0  0
  -22.0310  -13.7270   22.3270 H   0  0  0  0  0  0  0  0  0  0  0  0
  -26.3510  -15.5040   20.2230 N   0  0  0  0  0  0  0  0  0  0  0  0
  -25.6480  -16.2140   20.4010 H   0  0  0  0  0  0  0  0  0  0  0  0
  -27.2000  -15.8830   19.8230 H   0  0  0  0  0  0  0  0  0  0  0  0
  -30.0640  -21.7130   20.4370 C   0  0  0  0  0  2  0  0  0  0  0  0
  -28.9980  -22.7180   20.0560 N   0  0  0  0  0  4  0  0  0  0  0  0
  -28.0940  -22.3650   20.3300 H   0  0  0  0  0  0  0  0  0  0  0  0
  -28.9880  -22.7710   19.0480 H   0  0  0  0  0  0  0  0  0  0  0  0
  -28.3110  -24.2770   21.8990 C   0  0  0  0  0  1  0  0  0  0  0  0
  -29.1590  -24.1280   20.6220 C   0  0  0  0  0  3  0  0  0  0  0  0
  -28.8690  -25.3260   19.6160 C   0  0  0  0  0  2  0  0  0  0  0  0
  -28.7520  -26.6910   20.1770 O   0  0  0  0  0  0  0  0  0  0  0  0
  -24.7300  -31.8340   23.2220 C   0  0  0  0  0  0  0  0  0  0  0  0
  -27.5620  -27.4310   20.1390 C   0  0  0  0  0  0  0  0  0  0  0  0
  -23.6020  -30.4040   21.5540 C   0  0  0  0  0  3  0  0  0  0  0  0
  -25.1300  -28.9300   20.1340 C   0  0  0  0  0  0  0  0  0  0  0  0
  -26.1260  -30.8330   21.3980 C   0  0  0  0  0  2  0  0  0  0  0  0
  -26.2700  -29.4650   20.7430 C   0  0  0  0  0  0  0  0  0  0  0  0
  -27.4870  -28.7260   20.7350 C   0  0  0  0  0  3  0  0  0  0  0  0
  -26.3850  -26.9350   19.5310 C   0  0  0  0  0  3  0  0  0  0  0  0
  -25.1870  -27.6680   19.5270 C   0  0  0  0  0  3  0  0  0  0  0  0
  -23.8590  -29.7510   20.1720 C   0  0  0  0  0  2  0  0  0  0  0  0
  -24.8380  -31.0390   22.1170 N   0  0  0  0  0  0  0  0  0  0  0  0
  -23.6310  -32.0600   23.7460 O   0  0  0  0  0  0  0  0  0  0  0  0
  -22.9740  -29.3480   22.4960 C   0  0  0  0  0  0  0  0  0  0  0  0
  -21.6670  -29.0920   22.3300 N   0  0  0  0  0  0  0  0  0  0  0  0
  -23.6650  -28.7630   23.3350 O   0  0  0  0  0  0  0  0  0  0  0  0
  -21.1650  -29.6230   21.6320 H   0  0  0  0  0  0  0  0  0  0  0  0
  -18.3580  -27.6810   22.7130 C   0  0  0  0  0  0  0  0  0  0  0  0
  -20.8830  -28.1070   23.0780 C   0  0  0  0  0  3  0  0  0  0  0  0
  -21.0980  -26.6800   22.5220 C   0  0  0  0  0  2  0  0  0  0  0  0
  -20.0590  -26.2790   21.4700 C   0  0  0  0  0  2  0  0  0  0  0  0
  -18.6460  -26.3400   22.0570 C   0  0  0  0  0  2  0  0  0  0  0  0
  -19.4090  -28.5170   23.1780 C   0  0  0  0  0  0  0  0  0  0  0  0
  -19.0870  -29.7660   23.7500 C   0  0  0  0  0  3  0  0  0  0  0  0
  -17.7480  -30.1860   23.8590 C   0  0  0  0  0  3  0  0  0  0  0  0
  -16.7110  -29.3500   23.4100 C   0  0  0  0  0  3  0  0  0  0  0  0
  -17.0160  -28.0990   22.8460 C   0  0  0  0  0  3  0  0  0  0  0  0
  -25.9780  -32.5130   23.8660 C   0  0  0  0  0  3  0  0  0  0  0  0
  -25.6150  -33.9010   24.1810 N   0  0  0  0  0  0  0  0  0  0  0  0
  -25.9260  -34.9590   23.4210 C   0  0  0  0  0  0  0  0  0  0  0  0
  -26.6200  -34.8700   22.4030 O   0  0  0  0  0  0  0  0  0  0  0  0
  -25.0000  -34.0390   24.9710 H   0  0  0  0  0  0  0  0  0  0  0  0
  -24.1540  -36.6980   23.0070 C   0  0  0  0  0  1  0  0  0  0  0  0
  -25.3820  -36.3340   23.8570 C   0  0  0  0  0  3  0  0  0  0  0  0
  -27.4620  -37.2870   24.7470 C   0  0  0  0  0  1  0  0  0  0  0  0
  -26.3850  -37.4180   23.7710 N   0  0  0  0  0  0  0  0  0  0  0  0
  -25.9450  -38.3240   23.9060 H   0  0  0  0  0  0  0  0  0  0  0  0
  -26.4940  -31.7670   25.1560 C   0  0  1  0  0  0  0  0  0  0  0  0
  -25.3880  -31.4930   26.2030 C   0  0  0  0  0  1  0  0  0  0  0  0
  -27.1380  -30.4110   24.7830 C   0  0  0  0  0  1  0  0  0  0  0  0
  -27.6000  -32.6070   25.8390 C   0  0  0  0  0  1  0  0  0  0  0  0
  1  3  1  0
  1  4  1  0
  3 59  1  0
  3  2  1  0
  4 20  1  6
  4  8  1  0
  4  2  1  0
  5  7  1  0
  5  8  1  0
  6  7  1  0
  6  8  1  0
  7 12  1  0
  8  9  1  1
 10 12  1  0
 11 13  1  0
 12 13  2  0
 13 16  1  0
 14 11  2  0
 15 14  1  0
 15 10  2  0
 17 14  1  0
 18 15  1  0
 20 19  1  0
 21 29  1  0
 22 27  1  0
 23 24  1  0
 23 22  1  0
 25 24  1  0
 25 34  1  0
 25 26  1  0
 27 21  1  0
 27 26  1  0
 28 21  2  0
 29 30  1  0
 29 20  1  0
 31 32  2  0
 32 51  1  0
 33 32  1  0
 33 36  1  0
 34 35  1  0
 34 31  1  0
 35 33  2  0
 36 37  1  0
 37 38  2  0
 39 42  1  0
 39 38  1  0
 40 39  2  0
 41 40  1  0
 41 36  2  0
 42 43  1  0
 43 44  1  0
 44 45  2  0
 46 45  1  0
 46 50  1  0
 47 46  2  0
 48 43  2  0
 48 47  1  0
 49 48  1  0
 51 52  1  0
 52 55  1  0
 52 54  1  0
 53 51  2  0
 56 31  1  0
 56 57  1  0
 58 56  1  0
 60 61  1  0
 60 59  1  0
 60 64  1  0
 62 60  1  0
 64 63  1  0
 65 66  1  0
 65 64  1  0
 67 78  2  0
 68 66  1  0
 68 73  1  0
 69 77  1  0
 69 79  1  0
 70 76  1  0
 70 72  1  0
 71 77  1  0
 72 71  1  0
 73 72  2  0
 74 68  2  0
 75 74  1  0
 75 70  2  0
 76 69  1  0
 77 67  1  0
 79 81  2  0
 80 79  1  0
 82 80  1  0
 83 92  2  0
 83 88  1  0
 84 80  1  0
 84 88  1  0
 85 84  1  0
 86 87  1  0
 86 85  1  0
 87 83  1  0
 88 89  2  0
 89 90  1  0
 91 90  2  0
 92 91  1  0
 93 67  1  0
 93 94  1  0
 93103  1  0
 94 97  1  0
 95 99  1  0
 95 94  1  0
 96 95  2  0
 99 98  1  0
101 99  1  0
101102  1  0
101100  1  0
103106  1  1
103104  1  0
105103  1  0
M  ISO  4  21 100  29 100  65 101  66 101
M  END
>  <TORSDO>  (65) 
F 23

>  <SCORE>  (65) 
-11.610

>  <name>  (65) 
64

>  <ligand_id>  (65) 
64

>  <original_smiles>  (65) 
[H]c1c([H])c([H])c2c(c1[H])C([H])([H])C([H])([H])C([H])([H])C2([H])N([H])C(=O)C1([H])N(C(=O)C([H])(N([H])C(=O)C([H])(N([H])C([H])([H])[H])C([H])([H])[H])C(C([H])([H])[H])(C([H])([H])[H])C([H])([H])[H])C([H])([H])c2c([H])c(OC([H])([H])C([H])(C([H])([H])[H])[N+]([H])([H])C([H])([H])C3([H])C([H])([H])C(C([H])(N([H])C(=O)N4C([H])([H])C([H])([H])C([H])([H])C([H])(n5nc(-c6c([H])c([H])c(Oc7c([H])c([H])c(F)c([H])c7F)c([H])c6[H])c(C(=O)N([H])[H])c5N([H])[H])C4([H])[H])C([H])([H])[H])([N+]4([H])C([H])([H])C([H])(c5c([H])c(Cl)c(C([H])([H])[H])c([H])c5C([H])([H])[H])C4([H])[H])C3([H])[H])c([H])c([H])c2C1([H])[H]

>  <smiles>  (65) 
[H]c1c([H])c([H])c2c(c1[H])C([H])([H])C([H])([H])C([H])([H])C2([H])N([H])C(=O)C1([H])N(C(=O)C([H])(N([H])C(=O)C([H])(N([H])C([H])([H])[H])C([H])([H])[H])C(C([H])([H])[H])(C([H])([H])[H])C([H])([H])[H])C([H])([H])c2c([H])c(OC([H])([H])C([H])(C([H])([H])[H])[N+]([H])([H])C([H])([H])C3([H])C([H])([H])C(C([H])(N([H])C(=O)N4C([H])([H])C([H])([H])C([H])([H])C([H])(n5nc(-c6c([H])c([H])c(Oc7c([H])c([H])c(F)c([H])c7F)c([H])c6[H])c(C(=O)N([H])[H])c5N([H])[H])C4([H])[H])C([H])([H])[H])([N+]4([H])C([H])([H])C([H])(c5c([H])c(Cl)c(C([H])([H])[H])c([H])c5C([H])([H])[H])C4([H])[H])C3([H])[H])c([H])c([H])c2C1([H])[H]

$$$$
65:0:0
     RDKit          3D

100110  0  0  1  0  0  0  0  0999 V2000
  -26.4490  -21.6190   16.3500 C   0  0  0  0  0  2  0  0  0  0  0  0
  -24.6060  -23.0200   17.2060 C   0  0  0  0  0  2  0  0  0  0  0  0
  -27.4280  -22.3370   17.2760 C   0  0  0  0  0  2  0  0  0  0  0  0
  -25.7390  -24.1160   17.0270 C   0  0  0  0  0  2  0  0  0  0  0  0
  -25.1280  -21.4810   17.0820 C   0  0  0  0  0  3  0  0  0  0  0  0
  -26.9180  -23.6470   17.8110 N   0  0  2  0  0  4  0  0  0  0  0  0
  -26.5260  -23.4630   18.7200 H   0  0  0  0  0  0  0  0  0  0  0  0
  -28.0170  -24.6370   18.1190 C   0  0  0  0  0  2  0  0  0  0  0  0
  -28.1330  -25.1520   19.6170 C   0  0  0  0  0  2  0  0  0  0  0  0
  -28.3420  -26.5810   19.8700 O   0  0  0  0  0  0  0  0  0  0  0  0
  -24.6420  -31.8890   23.2430 C   0  0  0  0  0  0  0  0  0  0  0  0
  -27.2190  -27.3850   19.9880 C   0  0  0  0  0  0  0  0  0  0  0  0
  -23.4580  -30.5170   21.6380 C   0  0  0  0  0  3  0  0  0  0  0  0
  -24.8320  -28.9470   20.2060 C   0  0  0  0  0  0  0  0  0  0  0  0
  -25.9570  -30.7720   21.4070 C   0  0  0  0  0  2  0  0  0  0  0  0
  -26.0260  -29.4180   20.7590 C   0  0  0  0  0  0  0  0  0  0  0  0
  -27.2370  -28.6760   20.6140 C   0  0  0  0  0  3  0  0  0  0  0  0
  -25.9710  -26.9270   19.5070 C   0  0  0  0  0  3  0  0  0  0  0  0
  -24.8070  -27.6980   19.5970 C   0  0  0  0  0  3  0  0  0  0  0  0
  -23.6090  -29.8560   20.2640 C   0  0  0  0  0  2  0  0  0  0  0  0
  -24.6990  -31.0690   22.1610 N   0  0  0  0  0  0  0  0  0  0  0  0
  -23.5450  -32.1800   23.7790 O   0  0  0  0  0  0  0  0  0  0  0  0
  -22.7660  -29.5090   22.5710 C   0  0  0  0  0  0  0  0  0  0  0  0
  -21.4610  -29.3960   22.4800 N   0  0  0  0  0  0  0  0  0  0  0  0
  -23.4790  -28.8260   23.3130 O   0  0  0  0  0  0  0  0  0  0  0  0
  -20.9740  -30.2440   22.1470 H   0  0  0  0  0  0  0  0  0  0  0  0
  -18.0490  -28.0790   22.9480 C   0  0  0  0  0  0  0  0  0  0  0  0
  -20.5810  -28.4610   23.1970 C   0  0  0  0  0  3  0  0  0  0  0  0
  -20.7930  -27.0330   22.6860 C   0  0  0  0  0  2  0  0  0  0  0  0
  -19.7380  -26.6190   21.6760 C   0  0  0  0  0  2  0  0  0  0  0  0
  -18.3180  -26.7820   22.2360 C   0  0  0  0  0  2  0  0  0  0  0  0
  -19.1330  -28.9170   23.3050 C   0  0  0  0  0  0  0  0  0  0  0  0
  -18.8630  -30.2380   23.7540 C   0  0  0  0  0  3  0  0  0  0  0  0
  -17.5300  -30.6760   24.0140 C   0  0  0  0  0  3  0  0  0  0  0  0
  -16.4600  -29.7900   23.7530 C   0  0  0  0  0  3  0  0  0  0  0  0
  -16.7230  -28.5320   23.1750 C   0  0  0  0  0  3  0  0  0  0  0  0
  -25.9410  -32.4830   23.8410 C   0  0  0  0  0  3  0  0  0  0  0  0
  -26.4510  -31.6540   25.0770 C   0  0  1  0  0  0  0  0  0  0  0  0
  -25.3610  -31.3910   26.1330 C   0  0  0  0  0  1  0  0  0  0  0  0
  -26.9840  -30.2760   24.6270 C   0  0  0  0  0  1  0  0  0  0  0  0
  -27.6090  -32.4020   25.7560 C   0  0  0  0  0  1  0  0  0  0  0  0
  -25.6190  -33.8520   24.2260 N   0  0  0  0  0  0  0  0  0  0  0  0
  -25.9090  -34.9520   23.5100 C   0  0  0  0  0  0  0  0  0  0  0  0
  -26.5650  -34.8910   22.4690 O   0  0  0  0  0  0  0  0  0  0  0  0
  -25.0260  -33.9760   25.0250 H   0  0  0  0  0  0  0  0  0  0  0  0
  -24.1530  -36.7360   23.2630 C   0  0  0  0  0  1  0  0  0  0  0  0
  -25.4170  -36.3090   24.0270 C   0  0  0  0  0  3  0  0  0  0  0  0
  -27.5570  -37.1860   24.8480 C   0  0  0  0  0  1  0  0  0  0  0  0
  -26.4310  -37.3840   23.9390 N   0  0  0  0  0  0  0  0  0  0  0  0
  -26.0210  -38.2930   24.1300 H   0  0  0  0  0  0  0  0  0  0  0  0
  -24.7850  -20.3160   17.9990 O   0  0  0  0  0  0  0  0  0  0  0  0
  -25.4030  -19.2760   18.9240 C   0  0  0  0  0  2  0  0  0  0  0  0
  -30.1820  -14.8650   20.2410 C   0  0  0  0  0  0  0  0  0  0  0  0
  -30.4560  -12.5130   19.4160 C   0  0  0  0  0  2  0  0  0  0  0  0
  -29.5080  -12.2850   18.2140 C   0  0  0  0  0  2  0  0  0  0  0  0
  -28.0580  -12.0490   18.7120 C   0  0  0  0  0  2  0  0  0  0  0  0
  -27.6170  -13.0890   19.7790 C   0  0  0  0  0  3  0  0  0  0  0  0
  -28.6490  -13.0570   20.9080 C   0  0  0  0  0  2  0  0  0  0  0  0
  -29.8650  -13.5420   20.3010 N   0  0  0  0  0  0  0  0  0  0  0  0
  -31.3660  -15.1310   19.9480 O   0  0  0  0  0  0  0  0  0  0  0  0
  -27.7380  -19.4910   22.5020 C   0  0  0  0  0  3  0  0  0  0  0  0
  -27.2990  -20.6090   21.8870 C   0  0  0  0  0  3  0  0  0  0  0  0
  -27.8310  -18.2800   21.7800 C   0  0  0  0  0  0  0  0  0  0  0  0
  -27.5520  -18.2030   20.3800 C   0  0  0  0  0  0  0  0  0  0  0  0
  -26.7030  -20.5460   20.6400 C   0  0  0  0  0  0  0  0  0  0  0  0
  -26.7240  -19.3330   19.8820 C   0  0  0  0  0  0  0  0  0  0  0  0
  -28.1890  -17.0510   22.5560 C   0  0  0  0  0  2  0  0  0  0  0  0
  -28.2240  -16.8180   19.7560 C   0  0  0  0  0  2  0  0  0  0  0  0
  -29.4060  -16.3240   21.9670 C   0  0  0  0  0  3  0  0  0  0  0  0
  -25.8180  -21.7980   20.4810 C   0  0  0  0  0  1  0  0  0  0  0  0
  -29.9160  -15.3200   23.0440 C   0  0  0  0  0  1  0  0  0  0  0  0
  -29.1830  -15.8250   20.5950 N   0  0  0  0  0  0  0  0  0  0  0  0
  -25.2690  -13.7630   20.5560 C   0  0  0  0  0  0  0  0  0  0  0  0
  -24.1820  -13.0160   20.9090 C   0  0  0  0  0  0  0  0  0  0  0  0
  -24.6160  -11.6620   20.8750 C   0  0  0  0  0  0  0  0  0  0  0  0
  -26.2800  -12.8610   20.2850 N   0  0  0  0  0  0  0  0  0  0  0  0
  -25.8980  -11.5990   20.5640 N   0  0  0  0  0  0  0  0  0  0  0  0
  -23.8870  -10.4090   21.0460 C   0  0  0  0  0  0  0  0  0  0  0  0
  -24.3480   -9.4060   21.9250 C   0  0  0  0  0  3  0  0  0  0  0  0
  -23.6160   -8.2130   22.0800 C   0  0  0  0  0  3  0  0  0  0  0  0
  -22.4190   -8.0180   21.3510 C   0  0  0  0  0  0  0  0  0  0  0  0
  -21.9790   -9.0160   20.4640 C   0  0  0  0  0  3  0  0  0  0  0  0
  -22.7090  -10.2010   20.3070 C   0  0  0  0  0  3  0  0  0  0  0  0
  -21.6550   -6.8780   21.4230 O   0  0  0  0  0  0  0  0  0  0  0  0
  -21.6820   -6.0670   22.5280 C   0  0  0  0  0  0  0  0  0  0  0  0
  -21.3980   -6.5590   23.8210 C   0  0  0  0  0  3  0  0  0  0  0  0
  -21.3660   -5.6750   24.9190 C   0  0  0  0  0  3  0  0  0  0  0  0
  -21.6060   -4.3020   24.7240 C   0  0  0  0  0  0  0  0  0  0  0  0
  -21.8820   -3.8090   23.4370 C   0  0  0  0  0  3  0  0  0  0  0  0
  -21.9170   -4.6900   22.3410 C   0  0  0  0  0  0  0  0  0  0  0  0
  -22.1650   -4.2070   21.1000 F   0  0  0  0  0  0  0  0  0  0  0  0
  -21.5650   -3.4530   25.7780 F   0  0  0  0  0  0  0  0  0  0  0  0
  -22.7940  -13.5170   21.1820 C   0  0  0  0  0  0  0  0  0  0  0  0
  -22.0560  -12.8250   22.0410 N   0  0  0  0  0  0  0  0  0  0  0  0
  -22.3790  -14.5590   20.6760 O   0  0  0  0  0  0  0  0  0  0  0  0
  -22.4180  -11.9820   22.4630 H   0  0  0  0  0  0  0  0  0  0  0  0
  -21.1260  -13.1420   22.2690 H   0  0  0  0  0  0  0  0  0  0  0  0
  -25.4440  -15.1290   20.3900 N   0  0  0  0  0  0  0  0  0  0  0  0
  -24.6910  -15.8070   20.4950 H   0  0  0  0  0  0  0  0  0  0  0  0
  -26.3000  -15.5210   20.0310 H   0  0  0  0  0  0  0  0  0  0  0  0
  1  5  1  0
  1  3  1  0
  3  6  1  0
  4  2  1  0
  4  6  1  0
  5  2  1  0
  5 51  1  0
  6  8  1  0
  6  7  1  1
  8  9  1  0
  9 10  1  0
 10 12  1  0
 11 22  2  0
 12 17  1  0
 13 21  1  0
 13 23  1  0
 14 20  1  0
 14 16  1  0
 15 21  1  0
 16 15  1  0
 17 16  2  0
 18 19  1  0
 18 12  2  0
 19 14  2  0
 20 13  1  0
 21 11  1  0
 23 25  2  0
 24 23  1  0
 26 24  1  0
 27 36  2  0
 27 32  1  0
 28 24  1  0
 28 32  1  0
 29 28  1  0
 30 31  1  0
 30 29  1  0
 31 27  1  0
 32 33  2  0
 33 34  1  0
 35 34  2  0
 36 35  1  0
 37 11  1  0
 37 42  1  0
 37 38  1  0
 38 41  1  1
 38 39  1  0
 40 38  1  0
 42 45  1  0
 43 47  1  0
 43 42  1  0
 44 43  2  0
 47 46  1  0
 49 47  1  0
 49 50  1  0
 49 48  1  0
 51 52  1  0
 52 66  1  0
 53 59  1  0
 53 72  1  0
 54 59  1  0
 55 56  1  0
 55 54  1  0
 57 56  1  0
 57 76  1  0
 57 58  1  0
 59 58  1  0
 60 53  2  0
 62 61  1  0
 63 61  2  0
 63 67  1  0
 64 63  1  0
 65 62  2  0
 66 64  2  0
 66 65  1  0
 68 64  1  0
 68 72  1  0
 69 67  1  0
 69 71  1  0
 70 65  1  0
 72 69  1  0
 73 74  2  0
 74 93  1  0
 75 74  1  0
 75 78  1  0
 76 73  1  0
 76 77  1  0
 77 75  2  0
 78 79  1  0
 79 80  2  0
 81 84  1  0
 81 80  1  0
 82 81  2  0
 83 82  1  0
 83 78  2  0
 84 85  1  0
 85 86  1  0
 86 87  2  0
 88 87  1  0
 88 92  1  0
 89 88  2  0
 90 85  2  0
 90 89  1  0
 91 90  1  0
 93 94  1  0
 94 97  1  0
 94 96  1  0
 95 93  2  0
 98 99  1  0
 98 73  1  0
100 98  1  0
M  ISO  4   9 101  10 101  53 100  72 100
M  END
>  <TORSDO>  (66) 
F 20

>  <SCORE>  (66) 
13.156

>  <name>  (66) 
65

>  <ligand_id>  (66) 
65

>  <original_smiles>  (66) 
[H]c1c([H])c([H])c2c(c1[H])C([H])([H])C([H])([H])C([H])([H])C2([H])N([H])C(=O)C1([H])N(C(=O)C([H])(N([H])C(=O)C([H])(N([H])C([H])([H])[H])C([H])([H])[H])C(C([H])([H])[H])(C([H])([H])[H])C([H])([H])[H])C([H])([H])c2c([H])c(OC([H])([H])C([H])([H])[N+]3([H])C([H])([H])C([H])([H])C([H])(OC([H])([H])c4c(C([H])([H])[H])c([H])c([H])c5c4C([H])([H])N(C(=O)N4C([H])([H])C([H])([H])C([H])([H])C([H])(n6nc(-c7c([H])c([H])c(Oc8c([H])c([H])c(F)c([H])c8F)c([H])c7[H])c(C(=O)N([H])[H])c6N([H])[H])C4([H])[H])C([H])(C([H])([H])[H])C5([H])[H])C([H])([H])C3([H])[H])c([H])c([H])c2C1([H])[H]

>  <smiles>  (66) 
[H]c1c([H])c([H])c2c(c1[H])C([H])([H])C([H])([H])C([H])([H])C2([H])N([H])C(=O)C1([H])N(C(=O)C([H])(N([H])C(=O)C([H])(N([H])C([H])([H])[H])C([H])([H])[H])C(C([H])([H])[H])(C([H])([H])[H])C([H])([H])[H])C([H])([H])c2c([H])c(OC([H])([H])C([H])([H])[N+]3([H])C([H])([H])C([H])([H])C([H])(OC([H])([H])c4c(C([H])([H])[H])c([H])c([H])c5c4C([H])([H])N(C(=O)N4C([H])([H])C([H])([H])C([H])([H])C([H])(n6nc(-c7c([H])c([H])c(Oc8c([H])c([H])c(F)c([H])c8F)c([H])c7[H])c(C(=O)N([H])[H])c6N([H])[H])C4([H])[H])C([H])(C([H])([H])[H])C5([H])[H])C([H])([H])C3([H])[H])c([H])c([H])c2C1([H])[H]

$$$$
66:0:0
     RDKit          3D

 94104  0  0  1  0  0  0  0  0999 V2000
  -30.7410  -20.4370   21.0610 C   0  0  0  0  0  3  0  0  0  0  0  0
  -29.4990  -22.4230   20.2050 C   0  0  0  0  0  0  0  0  0  0  0  0
  -30.5390  -21.8410   21.0010 C   0  0  0  0  0  0  0  0  0  0  0  0
  -29.9450  -19.5470   20.3130 C   0  0  0  0  0  0  0  0  0  0  0  0
  -28.7610  -21.4390   19.4490 C   0  0  0  0  0  0  0  0  0  0  0  0
  -31.5270  -22.7080   21.7710 C   0  0  0  0  0  1  0  0  0  0  0  0
  -28.9450  -20.0750   19.5560 N   0  0  0  0  0  0  0  0  0  0  0  0
  -30.5990  -14.7190   20.2830 C   0  0  0  0  0  0  0  0  0  0  0  0
  -30.3430  -12.4500   19.2940 C   0  0  0  0  0  2  0  0  0  0  0  0
  -29.3880  -12.5480   18.0860 C   0  0  0  0  0  2  0  0  0  0  0  0
  -27.9240  -12.3920   18.5450 C   0  0  0  0  0  2  0  0  0  0  0  0
  -27.5790  -13.2770   19.7740 C   0  0  0  0  0  3  0  0  0  0  0  0
  -28.6630  -13.1860   20.8720 C   0  0  0  0  0  2  0  0  0  0  0  0
  -29.9500  -13.5100   20.2440 N   0  0  0  0  0  0  0  0  0  0  0  0
  -31.7900  -14.7970   19.9760 O   0  0  0  0  0  0  0  0  0  0  0  0
  -29.6870  -16.9170   21.3070 C   0  0  0  0  0  2  0  0  0  0  0  0
  -29.9150  -16.9590   19.2390 C   0  0  0  0  0  2  0  0  0  0  0  0
  -30.2340  -17.9870   20.3380 C   0  0  0  0  0  3  0  0  0  0  0  0
  -29.8170  -15.8600   20.2570 N   0  0  0  0  0  0  0  0  0  0  0  0
  -25.2040  -13.8640   20.5470 C   0  0  0  0  0  0  0  0  0  0  0  0
  -24.1400  -13.0880   20.9210 C   0  0  0  0  0  0  0  0  0  0  0  0
  -24.6000  -11.7360   20.8700 C   0  0  0  0  0  0  0  0  0  0  0  0
  -26.2420  -12.9860   20.2870 N   0  0  0  0  0  0  0  0  0  0  0  0
  -25.8870  -11.7000   20.5440 N   0  0  0  0  0  0  0  0  0  0  0  0
  -23.8710  -10.4740   21.0570 C   0  0  0  0  0  0  0  0  0  0  0  0
  -24.2990   -9.5030   21.9890 C   0  0  0  0  0  3  0  0  0  0  0  0
  -23.5690   -8.3070   22.1630 C   0  0  0  0  0  3  0  0  0  0  0  0
  -22.3960   -8.0740   21.4060 C   0  0  0  0  0  0  0  0  0  0  0  0
  -21.9870   -9.0340   20.4640 C   0  0  0  0  0  3  0  0  0  0  0  0
  -22.7180  -10.2210   20.2870 C   0  0  0  0  0  3  0  0  0  0  0  0
  -21.6380   -6.9310   21.4910 O   0  0  0  0  0  0  0  0  0  0  0  0
  -21.5640   -6.2010   22.6500 C   0  0  0  0  0  0  0  0  0  0  0  0
  -21.0820   -6.7600   23.8530 C   0  0  0  0  0  3  0  0  0  0  0  0
  -20.9560   -5.9550   25.0030 C   0  0  0  0  0  3  0  0  0  0  0  0
  -21.3040   -4.5920   24.9520 C   0  0  0  0  0  0  0  0  0  0  0  0
  -21.7800   -4.0330   23.7530 C   0  0  0  0  0  3  0  0  0  0  0  0
  -21.9060   -4.8340   22.6040 C   0  0  0  0  0  0  0  0  0  0  0  0
  -22.3440   -4.2850   21.4460 F   0  0  0  0  0  0  0  0  0  0  0  0
  -21.1780   -3.8170   26.0540 F   0  0  0  0  0  0  0  0  0  0  0  0
  -22.7490  -13.5660   21.2170 C   0  0  0  0  0  0  0  0  0  0  0  0
  -22.0330  -12.8640   22.0880 N   0  0  0  0  0  0  0  0  0  0  0  0
  -22.3050  -14.5970   20.7120 O   0  0  0  0  0  0  0  0  0  0  0  0
  -22.4050  -12.0270   22.5130 H   0  0  0  0  0  0  0  0  0  0  0  0
  -21.1010  -13.1650   22.3340 H   0  0  0  0  0  0  0  0  0  0  0  0
  -25.3690  -15.2360   20.3820 N   0  0  0  0  0  0  0  0  0  0  0  0
  -24.6100  -15.8940   20.5200 H   0  0  0  0  0  0  0  0  0  0  0  0
  -26.2280  -15.6770   20.0750 H   0  0  0  0  0  0  0  0  0  0  0  0
  -29.6190  -24.7810   18.9460 C   0  0  0  0  0  2  0  0  0  0  0  0
  -29.3520  -24.0140   20.2210 C   0  0  0  0  0  3  0  0  0  0  0  0
  -28.3150  -25.0610   19.6640 C   0  0  0  0  0  3  0  0  0  0  0  0
  -28.3570  -26.4920   20.0950 O   0  0  0  0  0  0  0  0  0  0  0  0
  -24.6100  -31.8540   23.2220 C   0  0  0  0  0  0  0  0  0  0  0  0
  -27.2180  -27.3220   20.0720 C   0  0  0  0  0  0  0  0  0  0  0  0
  -23.4060  -30.4770   21.5690 C   0  0  0  0  0  3  0  0  0  0  0  0
  -24.8480  -28.9410   20.1170 C   0  0  0  0  0  0  0  0  0  0  0  0
  -25.9480  -30.7850   21.3890 C   0  0  0  0  0  2  0  0  0  0  0  0
  -26.0210  -29.4160   20.7170 C   0  0  0  0  0  0  0  0  0  0  0  0
  -27.2040  -28.6140   20.6890 C   0  0  0  0  0  3  0  0  0  0  0  0
  -26.0160  -26.9080   19.4500 C   0  0  0  0  0  3  0  0  0  0  0  0
  -24.8480  -27.6900   19.4830 C   0  0  0  0  0  3  0  0  0  0  0  0
  -23.6150  -29.8190   20.1830 C   0  0  0  0  0  2  0  0  0  0  0  0
  -24.6750  -31.0570   22.1170 N   0  0  0  0  0  0  0  0  0  0  0  0
  -23.5260  -32.1270   23.7600 O   0  0  0  0  0  0  0  0  0  0  0  0
  -22.7430  -29.4500   22.5190 C   0  0  0  0  0  0  0  0  0  0  0  0
  -21.4170  -29.2760   22.3940 N   0  0  0  0  0  0  0  0  0  0  0  0
  -23.4230  -28.8120   23.3270 O   0  0  0  0  0  0  0  0  0  0  0  0
  -20.9270  -29.8500   21.7220 H   0  0  0  0  0  0  0  0  0  0  0  0
  -18.0320  -28.1040   22.9110 C   0  0  0  0  0  0  0  0  0  0  0  0
  -20.5970  -28.3330   23.1560 C   0  0  0  0  0  3  0  0  0  0  0  0
  -20.6760  -26.9110   22.5540 C   0  0  0  0  0  2  0  0  0  0  0  0
  -19.5610  -26.6190   21.5460 C   0  0  0  0  0  2  0  0  0  0  0  0
  -18.1860  -26.7640   22.2090 C   0  0  0  0  0  2  0  0  0  0  0  0
  -19.1640  -28.8460   23.3410 C   0  0  0  0  0  0  0  0  0  0  0  0
  -18.9650  -30.0980   23.9620 C   0  0  0  0  0  3  0  0  0  0  0  0
  -17.6680  -30.6080   24.1570 C   0  0  0  0  0  3  0  0  0  0  0  0
  -16.5500  -29.8620   23.7420 C   0  0  0  0  0  3  0  0  0  0  0  0
  -16.7350  -28.6120   23.1250 C   0  0  0  0  0  3  0  0  0  0  0  0
  -25.8910  -32.4810   23.8540 C   0  0  0  0  0  3  0  0  0  0  0  0
  -25.5790  -33.8760   24.1990 N   0  0  0  0  0  0  0  0  0  0  0  0
  -25.8820  -34.9350   23.4380 C   0  0  0  0  0  0  0  0  0  0  0  0
  -26.5220  -34.8430   22.3890 O   0  0  0  0  0  0  0  0  0  0  0  0
  -25.0060  -34.0200   25.0170 H   0  0  0  0  0  0  0  0  0  0  0  0
  -24.1260  -36.7150   23.1490 C   0  0  0  0  0  1  0  0  0  0  0  0
  -25.3970  -36.3180   23.9180 C   0  0  0  0  0  3  0  0  0  0  0  0
  -27.5470  -37.2250   24.6830 C   0  0  0  0  0  1  0  0  0  0  0  0
  -26.4150  -37.3820   23.7720 N   0  0  0  0  0  0  0  0  0  0  0  0
  -26.0050  -38.2980   23.9290 H   0  0  0  0  0  0  0  0  0  0  0  0
  -26.4030  -31.6980   25.1260 C   0  0  1  0  0  0  0  0  0  0  0  0
  -25.3070  -31.4520   26.1910 C   0  0  0  0  0  1  0  0  0  0  0  0
  -26.9880  -30.3260   24.7230 C   0  0  0  0  0  1  0  0  0  0  0  0
  -27.5510  -32.4890   25.7940 C   0  0  0  0  0  1  0  0  0  0  0  0
  -26.2780  -21.6760   18.8780 C   0  0  0  0  0  1  0  0  0  0  0  0
  -27.9530  -21.0940   17.0440 C   0  0  0  0  0  1  0  0  0  0  0  0
  -27.7240  -21.8260   18.3860 C   0  0  0  0  0  3  0  0  0  0  0  0
  2  3  2  0
  3  1  1  0
  3  6  1  0
  4  1  2  0
  5  7  2  0
  5  2  1  0
  7  4  1  0
  9 14  1  0
 10 11  1  0
 10  9  1  0
 12 11  1  0
 12 23  1  0
 12 13  1  0
 14  8  1  0
 14 13  1  0
 15  8  2  0
 17 19  1  0
 17 18  1  0
 18  4  1  0
 18 16  1  0
 19  8  1  0
 19 16  1  0
 20 21  2  0
 21 40  1  0
 22 21  1  0
 22 25  1  0
 23 24  1  0
 23 20  1  0
 24 22  2  0
 25 26  1  0
 26 27  2  0
 28 31  1  0
 28 27  1  0
 29 28  2  0
 30 29  1  0
 30 25  2  0
 31 32  1  0
 32 33  1  0
 33 34  2  0
 35 34  1  0
 35 39  1  0
 36 35  2  0
 37 32  2  0
 37 36  1  0
 38 37  1  0
 40 41  1  0
 41 44  1  0
 41 43  1  0
 42 40  2  0
 45 46  1  0
 45 20  1  0
 47 45  1  0
 48 50  1  0
 48 49  1  0
 49  2  1  0
 50 51  1  0
 50 49  1  0
 52 63  2  0
 53 51  1  0
 53 58  1  0
 54 62  1  0
 54 64  1  0
 55 61  1  0
 55 57  1  0
 56 62  1  0
 57 56  1  0
 58 57  2  0
 59 60  1  0
 59 53  2  0
 60 55  2  0
 61 54  1  0
 62 52  1  0
 64 66  2  0
 65 64  1  0
 67 65  1  0
 68 77  2  0
 68 73  1  0
 69 65  1  0
 69 73  1  0
 70 69  1  0
 71 72  1  0
 71 70  1  0
 72 68  1  0
 73 74  2  0
 74 75  1  0
 76 75  2  0
 77 76  1  0
 78 52  1  0
 78 79  1  0
 78 88  1  0
 79 82  1  0
 80 84  1  0
 80 79  1  0
 81 80  2  0
 84 83  1  0
 86 84  1  0
 86 87  1  0
 86 85  1  0
 88 91  1  1
 88 89  1  0
 90 88  1  0
 93 94  1  0
 94 92  1  0
 94  5  1  0
M  ISO  4   8 100  19 100  50 101  51 101
M  END
>  <TORSDO>  (67) 
F 18

>  <SCORE>  (67) 
-14.322

>  <name>  (67) 
66

>  <ligand_id>  (67) 
66

>  <original_smiles>  (67) 
[H]c1c([H])c([H])c2c(c1[H])C([H])([H])C([H])([H])C([H])([H])C2([H])N([H])C(=O)C1([H])N(C(=O)C([H])(N([H])C(=O)C([H])(N([H])C([H])([H])[H])C([H])([H])[H])C(C([H])([H])[H])(C([H])([H])[H])C([H])([H])[H])C([H])([H])c2c([H])c(OC3([H])C([H])([H])C3([H])c3c(C([H])(C([H])([H])[H])C([H])([H])[H])nc(C4([H])C([H])([H])N(C(=O)N5C([H])([H])C([H])([H])C([H])([H])C([H])(n6nc(-c7c([H])c([H])c(Oc8c([H])c([H])c(F)c([H])c8F)c([H])c7[H])c(C(=O)N([H])[H])c6N([H])[H])C5([H])[H])C4([H])[H])c([H])c3C([H])([H])[H])c([H])c([H])c2C1([H])[H]

>  <smiles>  (67) 
[H]c1c([H])c([H])c2c(c1[H])C([H])([H])C([H])([H])C([H])([H])C2([H])N([H])C(=O)C1([H])N(C(=O)C([H])(N([H])C(=O)C([H])(N([H])C([H])([H])[H])C([H])([H])[H])C(C([H])([H])[H])(C([H])([H])[H])C([H])([H])[H])C([H])([H])c2c([H])c(OC3([H])C([H])([H])C3([H])c3c(C([H])(C([H])([H])[H])C([H])([H])[H])nc(C4([H])C([H])([H])N(C(=O)N5C([H])([H])C([H])([H])C([H])([H])C([H])(n6nc(-c7c([H])c([H])c(Oc8c([H])c([H])c(F)c([H])c8F)c([H])c7[H])c(C(=O)N([H])[H])c6N([H])[H])C5([H])[H])C4([H])[H])c([H])c3C([H])([H])[H])c([H])c([H])c2C1([H])[H]

$$$$
67:0:0
     RDKit          3D

 94103  0  0  1  0  0  0  0  0999 V2000
  -29.7170  -22.4180   21.6650 C   0  0  0  0  0  2  0  0  0  0  0  0
  -28.6530  -22.8280   19.5780 C   0  0  0  0  0  3  0  0  0  0  0  0
  -29.0350  -21.6010   20.5240 C   0  0  2  0  0  0  0  0  0  0  0  0
  -28.7310  -24.1680   20.4330 C   0  0  1  0  0  0  0  0  0  0  0  0
  -29.4210  -22.9040   18.2360 C   0  0  0  0  0  1  0  0  0  0  0  0
  -27.6940  -20.9770   20.9890 C   0  0  0  0  0  1  0  0  0  0  0  0
  -27.5040  -24.3970   21.3410 C   0  0  0  0  0  1  0  0  0  0  0  0
  -29.8280  -23.8020   21.2640 O   0  0  0  0  0  0  0  0  0  0  0  0
  -30.9100  -14.8570   20.1490 C   0  0  0  0  0  0  0  0  0  0  0  0
  -30.6400  -12.6000   19.1630 C   0  0  0  0  0  2  0  0  0  0  0  0
  -29.6880  -12.7170   17.9540 C   0  0  0  0  0  2  0  0  0  0  0  0
  -28.2240  -12.5590   18.4120 C   0  0  0  0  0  2  0  0  0  0  0  0
  -27.8800  -13.4440   19.6440 C   0  0  0  0  0  3  0  0  0  0  0  0
  -28.9630  -13.3390   20.7420 C   0  0  0  0  0  2  0  0  0  0  0  0
  -30.2500  -13.6580   20.1130 N   0  0  0  0  0  0  0  0  0  0  0  0
  -32.1000  -14.9210   19.8230 O   0  0  0  0  0  0  0  0  0  0  0  0
  -30.0760  -20.5010   19.9780 C   0  0  0  0  0  0  0  0  0  0  0  0
  -29.1700  -18.2600   20.9730 C   0  0  0  0  0  2  0  0  0  0  0  0
  -30.9230  -18.2690   19.2840 C   0  0  0  0  0  2  0  0  0  0  0  0
  -29.6480  -16.7640   21.2190 C   0  0  0  0  0  2  0  0  0  0  0  0
  -30.3120  -16.8960   18.8890 C   0  0  0  0  0  2  0  0  0  0  0  0
  -29.9870  -19.1120   20.0630 N   0  0  0  0  0  0  0  0  0  0  0  0
  -30.1420  -15.9970   20.0480 N   0  0  0  0  0  0  0  0  0  0  0  0
  -31.0760  -20.9660   19.4190 O   0  0  0  0  0  0  0  0  0  0  0  0
  -25.5150  -14.0380   20.4370 C   0  0  0  0  0  0  0  0  0  0  0  0
  -24.4550  -13.2600   20.8250 C   0  0  0  0  0  0  0  0  0  0  0  0
  -24.9120  -11.9090   20.7630 C   0  0  0  0  0  0  0  0  0  0  0  0
  -26.5480  -13.1560   20.1620 N   0  0  0  0  0  0  0  0  0  0  0  0
  -26.1940  -11.8710   20.4180 N   0  0  0  0  0  0  0  0  0  0  0  0
  -24.1880  -10.6460   20.9530 C   0  0  0  0  0  0  0  0  0  0  0  0
  -24.6120   -9.6850   21.8980 C   0  0  0  0  0  3  0  0  0  0  0  0
  -23.8880   -8.4870   22.0780 C   0  0  0  0  0  3  0  0  0  0  0  0
  -22.7240   -8.2400   21.3110 C   0  0  0  0  0  0  0  0  0  0  0  0
  -22.3190   -9.1880   20.3540 C   0  0  0  0  0  3  0  0  0  0  0  0
  -23.0440  -10.3780   20.1740 C   0  0  0  0  0  3  0  0  0  0  0  0
  -21.9760   -7.0900   21.3970 O   0  0  0  0  0  0  0  0  0  0  0  0
  -21.8640   -6.3890   22.5690 C   0  0  0  0  0  0  0  0  0  0  0  0
  -21.3460   -6.9800   23.7430 C   0  0  0  0  0  3  0  0  0  0  0  0
  -21.1830   -6.2040   24.9080 C   0  0  0  0  0  3  0  0  0  0  0  0
  -21.5270   -4.8380   24.8990 C   0  0  0  0  0  0  0  0  0  0  0  0
  -22.0370   -4.2460   23.7310 C   0  0  0  0  0  3  0  0  0  0  0  0
  -22.2010   -5.0200   22.5670 C   0  0  0  0  0  0  0  0  0  0  0  0
  -22.6720   -4.4400   21.4360 F   0  0  0  0  0  0  0  0  0  0  0  0
  -21.3640   -4.0900   26.0150 F   0  0  0  0  0  0  0  0  0  0  0  0
  -23.0670  -13.7370   21.1410 C   0  0  0  0  0  0  0  0  0  0  0  0
  -22.3650  -13.0370   22.0270 N   0  0  0  0  0  0  0  0  0  0  0  0
  -22.6130  -14.7630   20.6390 O   0  0  0  0  0  0  0  0  0  0  0  0
  -22.7450  -12.2030   22.4500 H   0  0  0  0  0  0  0  0  0  0  0  0
  -21.4370  -13.3400   22.2830 H   0  0  0  0  0  0  0  0  0  0  0  0
  -25.6790  -15.4090   20.2760 N   0  0  0  0  0  0  0  0  0  0  0  0
  -24.9280  -16.0690   20.4420 H   0  0  0  0  0  0  0  0  0  0  0  0
  -26.5260  -15.8500   19.9400 H   0  0  0  0  0  0  0  0  0  0  0  0
  -28.9760  -25.5300   19.6320 C   0  0  0  0  0  2  0  0  0  0  0  0
  -28.7730  -26.8440   20.2810 O   0  0  0  0  0  0  0  0  0  0  0  0
  -24.6880  -31.9450   23.2910 C   0  0  0  0  0  0  0  0  0  0  0  0
  -27.5770  -27.5750   20.2080 C   0  0  0  0  0  0  0  0  0  0  0  0
  -23.5860  -30.5470   21.5770 C   0  0  0  0  0  3  0  0  0  0  0  0
  -25.1410  -29.0800   20.1680 C   0  0  0  0  0  0  0  0  0  0  0  0
  -26.1170  -30.9580   21.4890 C   0  0  0  0  0  2  0  0  0  0  0  0
  -26.2670  -29.6010   20.8160 C   0  0  0  0  0  0  0  0  0  0  0  0
  -27.4830  -28.8590   20.8280 C   0  0  0  0  0  3  0  0  0  0  0  0
  -26.4180  -27.0900   19.5570 C   0  0  0  0  0  3  0  0  0  0  0  0
  -25.2180  -27.8300   19.5330 C   0  0  0  0  0  3  0  0  0  0  0  0
  -23.8690  -29.9060   20.1920 C   0  0  0  0  0  2  0  0  0  0  0  0
  -24.8130  -31.1700   22.1740 N   0  0  0  0  0  0  0  0  0  0  0  0
  -23.5790  -32.1700   23.7950 O   0  0  0  0  0  0  0  0  0  0  0  0
  -22.9320  -29.4860   22.4900 C   0  0  0  0  0  0  0  0  0  0  0  0
  -21.6180  -29.2670   22.3120 N   0  0  0  0  0  0  0  0  0  0  0  0
  -23.6030  -28.8630   23.3170 O   0  0  0  0  0  0  0  0  0  0  0  0
  -21.1340  -29.8270   21.6240 H   0  0  0  0  0  0  0  0  0  0  0  0
  -18.2630  -27.9550   22.6850 C   0  0  0  0  0  0  0  0  0  0  0  0
  -20.8060  -28.2840   23.0290 C   0  0  0  0  0  3  0  0  0  0  0  0
  -20.9690  -26.8740   22.4120 C   0  0  0  0  0  2  0  0  0  0  0  0
  -19.8990  -26.5450   21.3650 C   0  0  0  0  0  2  0  0  0  0  0  0
  -18.5010  -26.6250   21.9870 C   0  0  0  0  0  2  0  0  0  0  0  0
  -19.3480  -28.7400   23.1610 C   0  0  0  0  0  0  0  0  0  0  0  0
  -19.0760  -29.9820   23.7740 C   0  0  0  0  0  3  0  0  0  0  0  0
  -17.7530  -30.4410   23.9150 C   0  0  0  0  0  3  0  0  0  0  0  0
  -16.6830  -29.6540   23.4570 C   0  0  0  0  0  3  0  0  0  0  0  0
  -16.9390  -28.4120   22.8470 C   0  0  0  0  0  3  0  0  0  0  0  0
  -25.9270  -32.6020   23.9710 C   0  0  0  0  0  3  0  0  0  0  0  0
  -25.5820  -34.0020   24.2570 N   0  0  0  0  0  0  0  0  0  0  0  0
  -25.9370  -35.0450   23.4950 C   0  0  0  0  0  0  0  0  0  0  0  0
  -26.6570  -34.9310   22.4990 O   0  0  0  0  0  0  0  0  0  0  0  0
  -24.9460  -34.1660   25.0240 H   0  0  0  0  0  0  0  0  0  0  0  0
  -24.1960  -36.8030   23.0380 C   0  0  0  0  0  1  0  0  0  0  0  0
  -25.4110  -36.4350   23.9030 C   0  0  0  0  0  3  0  0  0  0  0  0
  -27.4930  -37.3780   24.7990 C   0  0  0  0  0  1  0  0  0  0  0  0
  -26.4300  -37.5020   23.8050 N   0  0  0  0  0  0  0  0  0  0  0  0
  -26.0040  -38.4190   23.9100 H   0  0  0  0  0  0  0  0  0  0  0  0
  -26.3830  -31.8580   25.2870 C   0  0  1  0  0  0  0  0  0  0  0  0
  -25.2350  -31.6210   26.2930 C   0  0  0  0  0  1  0  0  0  0  0  0
  -27.0090  -30.4830   24.9540 C   0  0  0  0  0  1  0  0  0  0  0  0
  -27.4840  -32.6810   25.9980 C   0  0  0  0  0  1  0  0  0  0  0  0
  2  5  1  0
  2  4  1  0
  2  3  1  0
  3  6  1  1
  3  1  1  0
  4  8  1  0
  4  7  1  1
  8  1  1  0
 10 15  1  0
 11 12  1  0
 11 10  1  0
 13 12  1  0
 13 28  1  0
 13 14  1  0
 15  9  1  0
 15 14  1  0
 16  9  2  0
 17 22  1  0
 17  3  1  0
 18 20  1  0
 19 22  1  0
 21 19  1  0
 21 23  1  0
 22 18  1  0
 23  9  1  0
 23 20  1  0
 24 17  2  0
 25 26  2  0
 26 45  1  0
 27 26  1  0
 27 30  1  0
 28 29  1  0
 28 25  1  0
 29 27  2  0
 30 31  1  0
 31 32  2  0
 33 36  1  0
 33 32  1  0
 34 33  2  0
 35 34  1  0
 35 30  2  0
 36 37  1  0
 37 38  1  0
 38 39  2  0
 40 39  1  0
 40 44  1  0
 41 40  2  0
 42 37  2  0
 42 41  1  0
 43 42  1  0
 45 46  1  0
 46 49  1  0
 46 48  1  0
 47 45  2  0
 50 25  1  0
 50 51  1  0
 52 50  1  0
 53 54  1  0
 53  4  1  0
 55 66  2  0
 56 54  1  0
 56 61  1  0
 57 65  1  0
 57 67  1  0
 58 64  1  0
 58 60  1  0
 59 65  1  0
 60 61  2  0
 60 59  1  0
 62 56  2  0
 63 62  1  0
 63 58  2  0
 64 57  1  0
 65 55  1  0
 67 69  2  0
 68 67  1  0
 70 68  1  0
 71 80  2  0
 71 76  1  0
 72 68  1  0
 72 76  1  0
 73 72  1  0
 74 75  1  0
 74 73  1  0
 75 71  1  0
 76 77  2  0
 77 78  1  0
 79 78  2  0
 80 79  1  0
 81 55  1  0
 81 82  1  0
 81 91  1  0
 82 85  1  0
 83 87  1  0
 83 82  1  0
 84 83  2  0
 87 86  1  0
 89 87  1  0
 89 90  1  0
 89 88  1  0
 91 94  1  1
 91 92  1  0
 93 91  1  0
M  ISO  4   9 100  23 100  53 101  54 101
M  END
>  <TORSDO>  (68) 
F 17

>  <SCORE>  (68) 
-14.650

>  <name>  (68) 
67

>  <ligand_id>  (68) 
67

>  <original_smiles>  (68) 
[H]c1c([H])c([H])c2c(c1[H])C([H])([H])C([H])([H])C([H])([H])C2([H])N([H])C(=O)C1([H])N(C(=O)C([H])(N([H])C(=O)C([H])(N([H])C([H])([H])[H])C([H])([H])[H])C(C([H])([H])[H])(C([H])([H])[H])C([H])([H])[H])C([H])([H])c2c([H])c(OC([H])([H])C3(C([H])([H])[H])OC([H])([H])C(C(=O)N4C([H])([H])C([H])([H])N(C(=O)N5C([H])([H])C([H])([H])C([H])([H])C([H])(n6nc(-c7c([H])c([H])c(Oc8c([H])c([H])c(F)c([H])c8F)c([H])c7[H])c(C(=O)N([H])[H])c6N([H])[H])C5([H])[H])C([H])([H])C4([H])[H])(C([H])([H])[H])C3([H])C([H])([H])[H])c([H])c([H])c2C1([H])[H]

>  <smiles>  (68) 
[H]c1c([H])c([H])c2c(c1[H])C([H])([H])C([H])([H])C([H])([H])C2([H])N([H])C(=O)C1([H])N(C(=O)C([H])(N([H])C(=O)C([H])(N([H])C([H])([H])[H])C([H])([H])[H])C(C([H])([H])[H])(C([H])([H])[H])C([H])([H])[H])C([H])([H])c2c([H])c(OC([H])([H])C3(C([H])([H])[H])OC([H])([H])C(C(=O)N4C([H])([H])C([H])([H])N(C(=O)N5C([H])([H])C([H])([H])C([H])([H])C([H])(n6nc(-c7c([H])c([H])c(Oc8c([H])c([H])c(F)c([H])c8F)c([H])c7[H])c(C(=O)N([H])[H])c6N([H])[H])C5([H])[H])C([H])([H])C4([H])[H])(C([H])([H])[H])C3([H])C([H])([H])[H])c([H])c([H])c2C1([H])[H]

$$$$
68:0:0
     RDKit          3D

 98101  0  0  1  0  0  0  0  0999 V2000
  -19.5650  -27.9120   21.1190 C   0  0  0  0  0  2  0  0  0  0  0  0
  -20.0760  -27.1690   24.0980 C   0  0  0  0  0  2  0  0  0  0  0  0
  -18.8490  -28.4110   22.4120 C   0  0  0  0  0  3  0  0  0  0  0  0
  -21.1030  -26.6220   21.4780 C   0  0  0  0  0  2  0  0  0  0  0  0
  -21.4470  -26.0700   22.9840 N   0  0  0  0  0  1  0  0  0  0  0  0
  -23.0190  -26.1340   19.0370 C   0  0  0  0  0  2  0  0  0  0  0  0
  -24.5800  -25.8520   18.7880 C   0  0  0  0  0  2  0  0  0  0  0  0
  -22.6800  -26.2260   20.6000 C   0  0  0  0  0  3  0  0  0  0  0  0
  -24.2750  -26.7900   20.9590 C   0  0  0  0  0  3  0  0  0  0  0  0
  -25.5150  -26.4610   19.9050 C   0  0  0  0  0  3  0  0  0  0  0  0
  -24.7850  -26.5850   22.4100 C   0  0  0  0  0  1  0  0  0  0  0  0
  -26.9230  -27.2040   19.6250 O   0  0  0  0  0  0  0  0  0  0  0  0
  -24.5970  -32.2330   23.4620 C   0  0  0  0  0  0  0  0  0  0  0  0
  -26.8550  -28.5260   19.3190 C   0  0  0  0  0  0  0  0  0  0  0  0
  -23.4650  -31.4030   21.5080 C   0  0  0  0  0  3  0  0  0  0  0  0
  -24.8120  -30.2980   19.6490 C   0  0  0  0  0  0  0  0  0  0  0  0
  -25.9650  -31.6250   21.4280 C   0  0  0  0  0  2  0  0  0  0  0  0
  -25.9620  -30.4710   20.4330 C   0  0  0  0  0  0  0  0  0  0  0  0
  -27.0250  -29.5460   20.2930 C   0  0  0  0  0  3  0  0  0  0  0  0
  -25.9420  -28.6580   18.2950 C   0  0  0  0  0  3  0  0  0  0  0  0
  -24.8210  -29.4360   18.5470 C   0  0  0  0  0  3  0  0  0  0  0  0
  -23.6290  -31.1550   19.9860 C   0  0  0  0  0  2  0  0  0  0  0  0
  -24.6990  -31.8090   22.1710 N   0  0  0  0  0  0  0  0  0  0  0  0
  -23.5030  -32.3150   24.0520 O   0  0  0  0  0  0  0  0  0  0  0  0
  -23.0020  -30.1870   22.2480 C   0  0  0  0  0  0  0  0  0  0  0  0
  -21.7360  -30.0210   22.1050 N   0  0  0  0  0  0  0  0  0  0  0  0
  -23.7600  -29.4140   22.8700 O   0  0  0  0  0  0  0  0  0  0  0  0
  -21.1750  -30.7060   21.6220 H   0  0  0  0  0  0  0  0  0  0  0  0
  -18.3930  -26.5190   21.6250 C   0  0  0  0  0  3  0  0  0  0  0  0
  -21.6870  -28.7240   21.6990 C   0  0  0  0  0  2  0  0  0  0  0  0
  -21.3730  -28.5960   19.7440 C   0  0  0  0  0 15  0  0  0  0  0  0
  -19.8380  -27.4740   18.8820 C   0  0  0  0  0 15  0  0  0  0  0  0
  -18.3890  -26.5590   19.8780 C   0  0  0  0  0  1  0  0  0  0  0  0
  -20.6750  -28.0200   22.8500 C   0  0  2  0  0  0  0  0  0  0  0  0
  -20.0110  -28.8550   24.2160 C   0  0  0  0  0  3  0  0  0  0  0  0
  -18.4250  -28.7840   24.6980 C   0  0  0  0  0  3  0  0  0  0  0  0
  -17.1320  -27.9660   24.0530 C   0  0  0  0  0  3  0  0  0  0  0  0
  -17.0300  -26.9440   22.6970 C   0  0  0  0  0  2  0  0  0  0  0  0
  -25.8520  -32.6510   24.2330 C   0  0  0  0  0  3  0  0  0  0  0  0
  -26.1750  -31.7190   25.4580 C   0  0  1  0  0  0  0  0  0  0  0  0
  -24.9790  -31.4700   26.4090 C   0  0  0  0  0  1  0  0  0  0  0  0
  -26.6900  -30.3380   24.9890 C   0  0  0  0  0  1  0  0  0  0  0  0
  -27.3190  -32.3640   26.2710 C   0  0  0  0  0  1  0  0  0  0  0  0
  -25.5900  -34.0240   24.6670 N   0  0  0  0  0  0  0  0  0  0  0  0
  -25.9640  -35.1010   23.9680 C   0  0  0  0  0  0  0  0  0  0  0  0
  -26.6700  -35.0260   22.9590 O   0  0  0  0  0  0  0  0  0  0  0  0
  -24.9720  -34.1460   25.4550 H   0  0  0  0  0  0  0  0  0  0  0  0
  -24.3310  -36.9820   23.6270 C   0  0  0  0  0  1  0  0  0  0  0  0
  -25.5000  -36.4740   24.4860 C   0  0  0  0  0  3  0  0  0  0  0  0
  -27.6320  -37.1640   25.4830 C   0  0  0  0  0  1  0  0  0  0  0  0
  -26.5850  -37.4780   24.5130 N   0  0  0  0  0  0  0  0  0  0  0  0
  -26.2170  -38.4000   24.7310 H   0  0  0  0  0  0  0  0  0  0  0  0
  -23.6570  -22.7560   22.3500 C   0  0  0  0  0  1  0  0  0  0  0  0
  -24.7820  -24.0200   21.9870 C   0  0  0  0  0  2  0  0  0  0  0  0
  -25.3510  -22.2190   21.4600 C   0  0  0  0  0  1  0  0  0  0  0  0
  -23.0800  -24.5930   22.8400 C   0  0  0  0  0 15  0  0  0  0  0  0
  -27.2870  -20.6880   20.8670 C   0  0  0  0  0 15  0  0  0  0  0  0
  -30.0080  -17.7670   20.2810 C   0  0  0  0  0  0  0  0  0  0  0  0
  -31.5600  -15.3100   19.5250 C   0  0  0  0  0  2  0  0  0  0  0  0
  -31.2040  -14.2060   18.4040 C   0  0  0  0  0  2  0  0  0  0  0  0
  -29.9120  -13.4540   18.7300 C   0  0  0  0  0  2  0  0  0  0  0  0
  -29.0550  -14.4630   19.4900 C   0  0  0  0  0  3  0  0  0  0  0  0
  -29.6950  -15.0830   20.7330 C   0  0  0  0  0  2  0  0  0  0  0  0
  -30.3580  -16.2300   20.1550 N   0  0  0  0  0  0  0  0  0  0  0  0
  -31.2730  -18.0180   20.0820 O   0  0  0  0  0  0  0  0  0  0  0  0
  -28.5170  -18.8690   20.5010 N   0  0  0  0  0  2  0  0  0  0  0  0
  -27.8000  -18.1460   20.4980 H   0  0  0  0  0  0  0  0  0  0  0  0
  -26.7410  -14.9460   20.1290 C   0  0  0  0  0  0  0  0  0  0  0  0
  -25.7280  -14.1500   20.5450 C   0  0  0  0  0  0  0  0  0  0  0  0
  -26.2520  -12.8180   20.5690 C   0  0  0  0  0  0  0  0  0  0  0  0
  -27.7740  -14.0720   19.8910 N   0  0  0  0  0  0  0  0  0  0  0  0
  -27.5290  -12.7990   20.2410 N   0  0  0  0  0  0  0  0  0  0  0  0
  -25.5950  -11.5410   20.7990 C   0  0  0  0  0  0  0  0  0  0  0  0
  -25.8340  -10.7800   21.9630 C   0  0  0  0  0  3  0  0  0  0  0  0
  -25.1610   -9.5570   22.1540 C   0  0  0  0  0  3  0  0  0  0  0  0
  -24.2440   -9.0950   21.1800 C   0  0  0  0  0  0  0  0  0  0  0  0
  -24.0370   -9.8470   20.0130 C   0  0  0  0  0  3  0  0  0  0  0  0
  -24.7110  -11.0610   19.8190 C   0  0  0  0  0  3  0  0  0  0  0  0
  -23.5530   -7.9140   21.2760 O   0  0  0  0  0  0  0  0  0  0  0  0
  -22.8060   -7.6090   22.3830 C   0  0  0  0  0  0  0  0  0  0  0  0
  -21.8500   -8.5040   22.9070 C   0  0  0  0  0  3  0  0  0  0  0  0
  -21.0570   -8.1190   24.0060 C   0  0  0  0  0  3  0  0  0  0  0  0
  -21.2100   -6.8370   24.5690 C   0  0  0  0  0  0  0  0  0  0  0  0
  -22.1610   -5.9440   24.0450 C   0  0  0  0  0  3  0  0  0  0  0  0
  -22.9540   -6.3280   22.9510 C   0  0  0  0  0  0  0  0  0  0  0  0
  -23.8570   -5.4590   22.4340 F   0  0  0  0  0  0  0  0  0  0  0  0
  -20.4400   -6.4620   25.6170 F   0  0  0  0  0  0  0  0  0  0  0  0
  -24.3230  -14.5940   20.7830 C   0  0  0  0  0  0  0  0  0  0  0  0
  -23.6510  -13.9870   21.7510 N   0  0  0  0  0  0  0  0  0  0  0  0
  -23.8340  -15.5220   20.1390 O   0  0  0  0  0  0  0  0  0  0  0  0
  -24.0670  -13.2460   22.2960 H   0  0  0  0  0  0  0  0  0  0  0  0
  -22.7040  -14.2720   21.9570 H   0  0  0  0  0  0  0  0  0  0  0  0
  -26.8780  -16.3210   19.9060 N   0  0  0  0  0  0  0  0  0  0  0  0
  -26.0260  -16.8730   19.8720 H   0  0  0  0  0  0  0  0  0  0  0  0
  -27.5120  -16.5740   19.1580 H   0  0  0  0  0  0  0  0  0  0  0  0
  -17.6930  -30.7920   22.0310 C   0  0  0  0  0  2  0  0  0  0  0  0
  -16.5120  -30.0900   22.6450 C   0  0  0  0  0  2  0  0  0  0  0  0
  -17.6060  -29.2830   21.9470 C   0  0  0  0  0  3  0  0  0  0  0  0
  1 29  1  0
  1  3  1  0
  3 98  1  0
  3 34  1  0
  4  5  1  0
  6  8  1  0
  7  6  1  0
  7 10  1  0
  8  9  1  0
  8  4  1  0
  9 11  1  0
 10 12  1  0
 10  9  1  0
 13 24  2  0
 14 12  1  0
 14 19  1  0
 15 23  1  0
 15 25  1  0
 16 22  1  0
 16 18  1  0
 17 23  1  0
 18 17  1  0
 19 18  2  0
 20 21  1  0
 20 14  2  0
 21 16  2  0
 22 15  1  0
 23 13  1  0
 25 27  2  0
 26 25  1  0
 28 26  1  0
 29 33  1  0
 29 38  1  0
 30 26  1  0
 34 30  1  6
 34  2  1  0
 34 35  1  0
 35  2  1  0
 35 36  1  0
 37 36  2  0
 38 37  1  0
 39 13  1  0
 39 44  1  0
 39 40  1  0
 40 43  1  1
 40 41  1  0
 42 40  1  0
 44 47  1  0
 45 49  1  0
 45 44  1  0
 46 45  2  0
 49 48  1  0
 49 51  1  0
 51 52  1  0
 51 50  1  0
 54 53  1  0
 55 54  1  0
 58 66  1  0
 59 64  1  0
 60 61  1  0
 60 59  1  0
 62 61  1  0
 62 71  1  0
 62 63  1  0
 64 58  1  0
 64 63  1  0
 65 58  2  0
 67 66  1  0
 68 69  2  0
 69 70  1  0
 69 88  1  0
 70 73  1  0
 71 68  1  0
 71 72  1  0
 72 70  2  0
 73 74  1  0
 74 75  2  0
 76 79  1  0
 76 75  1  0
 77 76  2  0
 78 77  1  0
 78 73  2  0
 79 80  1  0
 80 81  2  0
 80 85  1  0
 81 82  1  0
 82 83  2  0
 83 87  1  0
 84 83  1  0
 85 84  2  0
 86 85  1  0
 88 89  1  0
 89 92  1  0
 89 91  1  0
 90 88  2  0
 93 68  1  0
 94 93  1  0
 95 93  1  0
 96 97  1  0
 98 96  1  0
 98 97  1  0
M  ISO  4  10 101  12 101  58 100  66 100
M  END
>  <TORSDO>  (69) 
F 20

>  <SCORE>  (69) 
6.414

>  <name>  (69) 
68

>  <ligand_id>  (69) 
68

>  <original_smiles>  (69) 
[H]c1c([H])c([H])c2c(c1[H])C([H])([H])C([H])([H])C([H])([H])C2([H])N([H])C(=O)C1([H])N(C(=O)C([H])(N([H])C(=O)C([H])(N([H])C([H])([H])[H])C([H])([H])[H])C(C([H])([H])[H])(C([H])([H])[H])C([H])([H])[H])C([H])([H])c2c([H])c(OC3([H])C([H])([H])C([H])([H])C([H])(c4c([H])c(C5([H])C([H])([H])C5([H])[H])c([H])n4C4([H])C([H])([H])C([H])(C([H])([H])N([H])C(=O)N5C([H])([H])C([H])([H])C([H])([H])C([H])(n6nc(-c7c([H])c([H])c(Oc8c([H])c([H])c(F)c([H])c8F)c([H])c7[H])c(C(=O)N([H])[H])c6N([H])[H])C5([H])[H])C4([H])[H])C3([H])C([H])([H])[H])c([H])c([H])c2C1([H])[H]

>  <smiles>  (69) 
[H]c1c([H])c([H])c2c(c1[H])C([H])([H])C([H])([H])C([H])([H])C2([H])N([H])C(=O)C1([H])N(C(=O)C([H])(N([H])C(=O)C([H])(N([H])C([H])([H])[H])C([H])([H])[H])C(C([H])([H])[H])(C([H])([H])[H])C([H])([H])[H])C([H])([H])c2c([H])c(OC3([H])C([H])([H])C([H])([H])C([H])(c4c([H])c(C5([H])C([H])([H])C5([H])[H])c([H])n4C4([H])C([H])([H])C([H])(C([H])([H])N([H])C(=O)N5C([H])([H])C([H])([H])C([H])([H])C([H])(n6nc(-c7c([H])c([H])c(Oc8c([H])c([H])c(F)c([H])c8F)c([H])c7[H])c(C(=O)N([H])[H])c6N([H])[H])C5([H])[H])C4([H])[H])C3([H])C([H])([H])[H])c([H])c([H])c2C1([H])[H]

$$$$
69:0:0
     RDKit          3D

 96106  0  0  1  0  0  0  0  0999 V2000
  -28.5710  -21.9520   20.4370 C   0  0  0  0  0  2  0  0  0  0  0  0
  -31.1960  -14.7550   19.5470 C   0  0  0  0  0  0  0  0  0  0  0  0
  -30.7140  -12.5710   18.4770 C   0  0  0  0  0  2  0  0  0  0  0  0
  -29.5810  -12.7330   17.4450 C   0  0  0  0  0  2  0  0  0  0  0  0
  -28.2100  -12.5620   18.1240 C   0  0  0  0  0  2  0  0  0  0  0  0
  -28.0740  -13.4080   19.4180 C   0  0  0  0  0  3  0  0  0  0  0  0
  -29.3100  -13.2480   20.3330 C   0  0  0  0  0  2  0  0  0  0  0  0
  -30.5060  -13.5730   19.5400 N   0  0  0  0  0  0  0  0  0  0  0  0
  -32.1810  -14.9270   18.8210 O   0  0  0  0  0  0  0  0  0  0  0  0
  -30.3220  -19.3500   22.7850 C   0  0  0  0  0  3  0  0  0  0  0  0
  -29.6240  -19.5780   20.1010 C   0  0  0  0  0  3  0  0  0  0  0  0
  -30.4450  -18.2290   21.9510 C   0  0  0  0  0  0  0  0  0  0  0  0
  -30.1200  -18.3220   20.5870 C   0  0  0  0  0  0  0  0  0  0  0  0
  -29.8160  -20.5780   22.3130 C   0  0  0  0  0  0  0  0  0  0  0  0
  -29.4250  -20.7260   20.9470 C   0  0  0  0  0  0  0  0  0  0  0  0
  -30.9000  -16.9110   22.5450 C   0  0  0  0  0  2  0  0  0  0  0  0
  -30.2840  -17.0610   19.6860 C   0  0  0  0  0  2  0  0  0  0  0  0
  -31.5780  -16.0100   21.5120 C   0  0  0  0  0  2  0  0  0  0  0  0
  -29.6520  -21.6650   23.3540 C   0  0  0  0  0  1  0  0  0  0  0  0
  -30.7390  -15.7780   20.3280 N   0  0  0  0  0  0  0  0  0  0  0  0
  -25.9240  -13.9760   20.7080 C   0  0  0  0  0  0  0  0  0  0  0  0
  -24.8940  -13.1980   21.1630 C   0  0  0  0  0  0  0  0  0  0  0  0
  -25.2350  -11.8530   20.8200 C   0  0  0  0  0  0  0  0  0  0  0  0
  -26.8310  -13.1060   20.1240 N   0  0  0  0  0  0  0  0  0  0  0  0
  -26.4310  -11.8130   20.2450 N   0  0  0  0  0  0  0  0  0  0  0  0
  -24.4650  -10.6090   20.9550 C   0  0  0  0  0  0  0  0  0  0  0  0
  -24.8940   -9.5620   21.8000 C   0  0  0  0  0  3  0  0  0  0  0  0
  -24.1260   -8.3850   21.9260 C   0  0  0  0  0  3  0  0  0  0  0  0
  -22.9150   -8.2450   21.2080 C   0  0  0  0  0  0  0  0  0  0  0  0
  -22.5050   -9.2810   20.3490 C   0  0  0  0  0  3  0  0  0  0  0  0
  -23.2730  -10.4500   20.2200 C   0  0  0  0  0  3  0  0  0  0  0  0
  -22.1180   -7.1260   21.2480 O   0  0  0  0  0  0  0  0  0  0  0  0
  -21.9550   -6.4000   22.4010 C   0  0  0  0  0  0  0  0  0  0  0  0
  -21.4510   -6.9830   23.5840 C   0  0  0  0  0  3  0  0  0  0  0  0
  -21.2350   -6.1840   24.7250 C   0  0  0  0  0  3  0  0  0  0  0  0
  -21.5120   -4.8040   24.6820 C   0  0  0  0  0  0  0  0  0  0  0  0
  -22.0090   -4.2220   23.5030 C   0  0  0  0  0  3  0  0  0  0  0  0
  -22.2280   -5.0170   22.3650 C   0  0  0  0  0  0  0  0  0  0  0  0
  -22.6850   -4.4470   21.2250 F   0  0  0  0  0  0  0  0  0  0  0  0
  -21.2970   -4.0360   25.7760 F   0  0  0  0  0  0  0  0  0  0  0  0
  -23.6230  -13.6810   21.7980 C   0  0  0  0  0  0  0  0  0  0  0  0
  -23.0710  -12.9110   22.7280 N   0  0  0  0  0  0  0  0  0  0  0  0
  -23.1370  -14.7710   21.5040 O   0  0  0  0  0  0  0  0  0  0  0  0
  -23.4820  -12.0260   22.9860 H   0  0  0  0  0  0  0  0  0  0  0  0
  -22.2240  -13.2110   23.1910 H   0  0  0  0  0  0  0  0  0  0  0  0
  -26.1570  -15.3480   20.7220 N   0  0  0  0  0  0  0  0  0  0  0  0
  -25.4860  -16.0070   21.1010 H   0  0  0  0  0  0  0  0  0  0  0  0
  -26.9730  -15.7970   20.3280 H   0  0  0  0  0  0  0  0  0  0  0  0
  -29.0990  -23.3620   20.2440 N   0  0  0  0  0  4  0  0  0  0  0  0
  -30.0400  -23.3040   19.8950 H   0  0  0  0  0  0  0  0  0  0  0  0
  -28.5580  -23.7380   19.4820 H   0  0  0  0  0  0  0  0  0  0  0  0
  -27.8520  -24.3100   22.3260 C   0  0  0  0  0  2  0  0  0  0  0  0
  -27.1600  -25.4260   21.5660 C   0  0  0  0  0  2  0  0  0  0  0  0
  -29.0500  -24.4050   21.3400 C   0  0  0  0  0  3  0  0  0  0  0  0
  -28.5420  -25.8920   21.0630 C   0  0  0  0  0  3  0  0  0  0  0  0
  -28.5380  -26.6360   19.8050 O   0  0  0  0  0  0  0  0  0  0  0  0
  -24.6930  -31.6850   23.1180 C   0  0  0  0  0  0  0  0  0  0  0  0
  -27.4760  -27.5290   19.7340 C   0  0  0  0  0  0  0  0  0  0  0  0
  -23.5490  -30.3890   21.3530 C   0  0  0  0  0  3  0  0  0  0  0  0
  -25.0660  -29.0200   19.8140 C   0  0  0  0  0  0  0  0  0  0  0  0
  -26.0730  -30.8110   21.2300 C   0  0  0  0  0  2  0  0  0  0  0  0
  -26.2050  -29.5000   20.4760 C   0  0  0  0  0  0  0  0  0  0  0  0
  -27.4160  -28.7570   20.4460 C   0  0  0  0  0  3  0  0  0  0  0  0
  -26.3390  -27.1100   19.0160 C   0  0  0  0  0  3  0  0  0  0  0  0
  -25.1290  -27.8260   19.0770 C   0  0  0  0  0  3  0  0  0  0  0  0
  -23.7980  -29.8370   19.9240 C   0  0  0  0  0  2  0  0  0  0  0  0
  -24.7890  -30.9730   21.9590 N   0  0  0  0  0  0  0  0  0  0  0  0
  -23.5960  -31.8850   23.6590 O   0  0  0  0  0  0  0  0  0  0  0  0
  -22.9110  -29.2750   22.2190 C   0  0  0  0  0  0  0  0  0  0  0  0
  -21.5820  -29.1160   22.1100 N   0  0  0  0  0  0  0  0  0  0  0  0
  -23.6100  -28.5640   22.9450 O   0  0  0  0  0  0  0  0  0  0  0  0
  -21.0760  -29.7530   21.5110 H   0  0  0  0  0  0  0  0  0  0  0  0
  -18.2060  -27.9290   22.6250 C   0  0  0  0  0  0  0  0  0  0  0  0
  -20.7800  -28.1020   22.7960 C   0  0  0  0  0  3  0  0  0  0  0  0
  -20.8210  -26.7530   22.0430 C   0  0  0  0  0  2  0  0  0  0  0  0
  -19.6620  -26.5790   21.0550 C   0  0  0  0  0  2  0  0  0  0  0  0
  -18.3170  -26.6700   21.7790 C   0  0  0  0  0  2  0  0  0  0  0  0
  -19.3630  -28.6100   23.0880 C   0  0  0  0  0  0  0  0  0  0  0  0
  -19.2080  -29.7960   23.8380 C   0  0  0  0  0  3  0  0  0  0  0  0
  -17.9260  -30.3010   24.1290 C   0  0  0  0  0  3  0  0  0  0  0  0
  -16.7830  -29.6140   23.6810 C   0  0  0  0  0  3  0  0  0  0  0  0
  -16.9240  -28.4300   22.9360 C   0  0  0  0  0  3  0  0  0  0  0  0
  -25.9510  -32.3010   23.8030 C   0  0  0  0  0  3  0  0  0  0  0  0
  -25.5910  -33.6510   24.2580 N   0  0  0  0  0  0  0  0  0  0  0  0
  -25.9130  -34.7810   23.6160 C   0  0  0  0  0  0  0  0  0  0  0  0
  -26.6160  -34.7980   22.6010 O   0  0  0  0  0  0  0  0  0  0  0  0
  -24.9660  -33.7090   25.0490 H   0  0  0  0  0  0  0  0  0  0  0  0
  -24.1680  -36.5750   23.3580 C   0  0  0  0  0  1  0  0  0  0  0  0
  -25.3720  -36.1040   24.1910 C   0  0  0  0  0  3  0  0  0  0  0  0
  -27.4360  -36.9330   25.2320 C   0  0  0  0  0  1  0  0  0  0  0  0
  -26.3860  -37.1800   24.2470 N   0  0  0  0  0  0  0  0  0  0  0  0
  -25.9510  -38.0730   24.4640 H   0  0  0  0  0  0  0  0  0  0  0  0
  -26.4910  -31.4310   25.0050 C   0  0  1  0  0  0  0  0  0  0  0  0
  -25.4030  -31.0530   26.0370 C   0  0  0  0  0  1  0  0  0  0  0  0
  -27.1300  -30.1200   24.4890 C   0  0  0  0  0  1  0  0  0  0  0  0
  -27.6060  -32.2030   25.7490 C   0  0  0  0  0  1  0  0  0  0  0  0
  1 15  1  0
  2 20  1  0
  3  8  1  0
  4  5  1  0
  4  3  1  0
  6  5  1  0
  6 24  1  0
  6  7  1  0
  8  2  1  0
  8  7  1  0
  9  2  2  0
 11 13  2  0
 11 15  1  0
 12 16  1  0
 12 10  2  0
 13 12  1  0
 14 10  1  0
 14 19  1  0
 15 14  2  0
 17 20  1  0
 17 13  1  0
 18 16  1  0
 20 18  1  0
 21 46  1  0
 21 22  2  0
 22 41  1  0
 23 26  1  0
 23 22  1  0
 24 25  1  0
 24 21  1  0
 25 23  2  0
 26 27  1  0
 27 28  2  0
 29 32  1  0
 29 28  1  0
 30 29  2  0
 31 30  1  0
 31 26  2  0
 32 33  1  0
 33 34  1  0
 34 35  2  0
 36 35  1  0
 36 40  1  0
 37 36  2  0
 38 33  2  0
 38 37  1  0
 39 38  1  0
 41 42  1  0
 42 44  1  0
 42 45  1  0
 43 41  2  0
 46 47  1  0
 48 46  1  0
 49  1  1  0
 50 49  1  0
 51 49  1  0
 53 52  1  0
 54 49  1  0
 54 52  1  0
 55 56  1  0
 55 54  1  0
 55 53  1  0
 57 68  2  0
 58 56  1  0
 58 63  1  0
 59 67  1  0
 59 69  1  0
 60 66  1  0
 60 62  1  0
 61 67  1  0
 62 61  1  0
 63 62  2  0
 64 65  1  0
 64 58  2  0
 65 60  2  0
 66 59  1  0
 67 57  1  0
 69 71  2  0
 70 69  1  0
 72 70  1  0
 73 82  2  0
 73 78  1  0
 74 70  1  0
 74 78  1  0
 75 74  1  0
 76 77  1  0
 76 75  1  0
 77 73  1  0
 78 79  2  0
 79 80  1  0
 81 80  2  0
 82 81  1  0
 83 57  1  0
 83 84  1  0
 83 93  1  0
 84 87  1  0
 85 89  1  0
 85 84  1  0
 86 85  2  0
 89 88  1  0
 89 91  1  0
 91 92  1  0
 91 90  1  0
 93 96  1  1
 93 94  1  0
 95 93  1  0
M  ISO  4   2 100  20 100  55 101  56 101
M  END
>  <TORSDO>  (70) 
F 18

>  <SCORE>  (70) 
-10.786

>  <name>  (70) 
69

>  <ligand_id>  (70) 
69

>  <original_smiles>  (70) 
[H]c1c([H])c([H])c2c(c1[H])C([H])([H])C([H])([H])C([H])([H])C2([H])N([H])C(=O)C1([H])N(C(=O)C([H])(N([H])C(=O)C([H])(N([H])C([H])([H])[H])C([H])([H])[H])C(C([H])([H])[H])(C([H])([H])[H])C([H])([H])[H])C([H])([H])c2c([H])c(OC3([H])C([H])([H])C([H])([H])C3([H])[N+]([H])([H])C([H])([H])c3c([H])c4c(c([H])c3C([H])([H])[H])C([H])([H])C([H])([H])N(C(=O)N3C([H])([H])C([H])([H])C([H])([H])C([H])(n5nc(-c6c([H])c([H])c(Oc7c([H])c([H])c(F)c([H])c7F)c([H])c6[H])c(C(=O)N([H])[H])c5N([H])[H])C3([H])[H])C4([H])[H])c([H])c([H])c2C1([H])[H]

>  <smiles>  (70) 
[H]c1c([H])c([H])c2c(c1[H])C([H])([H])C([H])([H])C([H])([H])C2([H])N([H])C(=O)C1([H])N(C(=O)C([H])(N([H])C(=O)C([H])(N([H])C([H])([H])[H])C([H])([H])[H])C(C([H])([H])[H])(C([H])([H])[H])C([H])([H])[H])C([H])([H])c2c([H])c(OC3([H])C([H])([H])C([H])([H])C3([H])[N+]([H])([H])C([H])([H])c3c([H])c4c(c([H])c3C([H])([H])[H])C([H])([H])C([H])([H])N(C(=O)N3C([H])([H])C([H])([H])C([H])([H])C([H])(n5nc(-c6c([H])c([H])c(Oc7c([H])c([H])c(F)c([H])c7F)c([H])c6[H])c(C(=O)N([H])[H])c5N([H])[H])C3([H])[H])C4([H])[H])c([H])c([H])c2C1([H])[H]

$$$$
70:0:0
     RDKit          3D

 97108  0  0  1  0  0  0  0  0999 V2000
  -28.3310  -22.3120   20.5140 C   0  0  0  0  0  3  0  0  0  0  0  0
  -28.9690  -22.9410   21.6060 C   0  0  0  0  0  0  0  0  0  0  0  0
  -29.8850  -22.1480   22.3630 C   0  0  0  0  0  0  0  0  0  0  0  0
  -29.4370  -20.1300   20.9600 C   0  0  0  0  0  0  0  0  0  0  0  0
  -28.5500  -20.9400   20.1870 C   0  0  0  0  0  0  0  0  0  0  0  0
  -30.1700  -20.7980   21.9910 C   0  0  0  0  0  0  0  0  0  0  0  0
  -27.8110  -20.3910   18.9770 C   0  0  0  0  0  1  0  0  0  0  0  0
  -31.3050  -20.0650   22.7150 C   0  0  0  0  0  1  0  0  0  0  0  0
  -30.6020  -14.4250   19.8090 C   0  0  0  0  0  0  0  0  0  0  0  0
  -30.1390  -12.2650   18.6920 C   0  0  0  0  0  2  0  0  0  0  0  0
  -29.0870  -12.4340   17.5810 C   0  0  0  0  0  2  0  0  0  0  0  0
  -27.6710  -12.2560   18.1630 C   0  0  0  0  0  2  0  0  0  0  0  0
  -27.4470  -13.0760   19.4660 C   0  0  0  0  0  3  0  0  0  0  0  0
  -28.6270  -12.9090   20.4490 C   0  0  0  0  0  2  0  0  0  0  0  0
  -29.8410  -13.2870   19.7190 N   0  0  0  0  0  0  0  0  0  0  0  0
  -31.7660  -14.3780   19.3980 O   0  0  0  0  0  0  0  0  0  0  0  0
  -28.5010  -17.5910   20.8820 C   0  0  0  0  0  2  0  0  0  0  0  0
  -30.3230  -18.2390   19.3960 C   0  0  0  0  0  2  0  0  0  0  0  0
  -28.9760  -16.0940   20.9070 C   0  0  0  0  0  2  0  0  0  0  0  0
  -30.8760  -16.7980   19.3950 C   0  0  0  0  0  2  0  0  0  0  0  0
  -29.6650  -18.5880   20.7250 C   0  0  0  0  0  3  0  0  0  0  0  0
  -30.0250  -15.6840   19.9280 N   0  0  0  0  0  0  0  0  0  0  0  0
  -25.1480  -13.6120   20.4760 C   0  0  0  0  0  0  0  0  0  0  0  0
  -24.1340  -12.8110   20.9240 C   0  0  0  0  0  0  0  0  0  0  0  0
  -24.6000  -11.4680   20.7810 C   0  0  0  0  0  0  0  0  0  0  0  0
  -26.1670  -12.7570   20.0890 N   0  0  0  0  0  0  0  0  0  0  0  0
  -25.8500  -11.4590   20.3340 N   0  0  0  0  0  0  0  0  0  0  0  0
  -23.9100  -10.1900   20.9900 C   0  0  0  0  0  0  0  0  0  0  0  0
  -24.3990   -9.2280   21.9040 C   0  0  0  0  0  3  0  0  0  0  0  0
  -23.7070   -8.0140   22.1010 C   0  0  0  0  0  3  0  0  0  0  0  0
  -22.5140   -7.7520   21.3870 C   0  0  0  0  0  0  0  0  0  0  0  0
  -22.0470   -8.7020   20.4620 C   0  0  0  0  0  3  0  0  0  0  0  0
  -22.7380   -9.9090   20.2620 C   0  0  0  0  0  3  0  0  0  0  0  0
  -21.7900   -6.5880   21.4950 O   0  0  0  0  0  0  0  0  0  0  0  0
  -21.7360   -5.8780   22.6670 C   0  0  0  0  0  0  0  0  0  0  0  0
  -21.2460   -6.4510   23.8620 C   0  0  0  0  0  3  0  0  0  0  0  0
  -21.1440   -5.6670   25.0290 C   0  0  0  0  0  3  0  0  0  0  0  0
  -21.5200   -4.3100   25.0010 C   0  0  0  0  0  0  0  0  0  0  0  0
  -22.0010   -3.7370   23.8100 C   0  0  0  0  0  3  0  0  0  0  0  0
  -22.1060   -4.5190   22.6460 C   0  0  0  0  0  0  0  0  0  0  0  0
  -22.5500   -3.9550   21.4970 F   0  0  0  0  0  0  0  0  0  0  0  0
  -21.4150   -3.5540   26.1180 F   0  0  0  0  0  0  0  0  0  0  0  0
  -22.7700  -13.2560   21.3640 C   0  0  0  0  0  0  0  0  0  0  0  0
  -22.1490  -12.5230   22.2800 N   0  0  0  0  0  0  0  0  0  0  0  0
  -22.2660  -14.2910   20.9280 O   0  0  0  0  0  0  0  0  0  0  0  0
  -22.5730  -11.6880   22.6570 H   0  0  0  0  0  0  0  0  0  0  0  0
  -21.2350  -12.8020   22.6070 H   0  0  0  0  0  0  0  0  0  0  0  0
  -25.2840  -14.9920   20.3410 N   0  0  0  0  0  0  0  0  0  0  0  0
  -24.5410  -15.6400   20.5780 H   0  0  0  0  0  0  0  0  0  0  0  0
  -26.0970  -15.4450   19.9450 H   0  0  0  0  0  0  0  0  0  0  0  0
  -30.6940  -21.9930   24.9080 C   0  0  0  0  0  2  0  0  0  0  0  0
  -29.7840  -23.1800   24.8220 C   0  0  0  0  0  2  0  0  0  0  0  0
  -30.5600  -22.7450   23.5880 C   0  0  0  0  0  3  0  0  0  0  0  0
  -29.6110  -25.4670   22.0750 C   0  0  0  0  0  2  0  0  0  0  0  0
  -28.5980  -24.3440   22.1290 C   0  0  0  0  0  3  0  0  0  0  0  0
  -28.2070  -25.7600   21.6070 C   0  0  0  0  0  3  0  0  0  0  0  0
  -28.2800  -26.3920   20.3050 O   0  0  0  0  0  0  0  0  0  0  0  0
  -24.6120  -31.7750   23.2100 C   0  0  0  0  0  0  0  0  0  0  0  0
  -27.2180  -27.2700   20.1610 C   0  0  0  0  0  0  0  0  0  0  0  0
  -23.4040  -30.3840   21.5630 C   0  0  0  0  0  3  0  0  0  0  0  0
  -24.8540  -28.8330   20.1370 C   0  0  0  0  0  0  0  0  0  0  0  0
  -25.9410  -30.7070   21.3840 C   0  0  0  0  0  2  0  0  0  0  0  0
  -26.0150  -29.3380   20.7340 C   0  0  0  0  0  0  0  0  0  0  0  0
  -27.2050  -28.5680   20.7400 C   0  0  0  0  0  3  0  0  0  0  0  0
  -26.0460  -26.7950   19.5410 C   0  0  0  0  0  3  0  0  0  0  0  0
  -24.8660  -27.5630   19.5340 C   0  0  0  0  0  3  0  0  0  0  0  0
  -23.6180  -29.7070   20.1830 C   0  0  0  0  0  2  0  0  0  0  0  0
  -24.6710  -30.9690   22.1110 N   0  0  0  0  0  0  0  0  0  0  0  0
  -23.5300  -32.0590   23.7430 O   0  0  0  0  0  0  0  0  0  0  0  0
  -22.7340  -29.3720   22.5190 C   0  0  0  0  0  0  0  0  0  0  0  0
  -21.4040  -29.2160   22.3980 N   0  0  0  0  0  0  0  0  0  0  0  0
  -23.4060  -28.7270   23.3280 O   0  0  0  0  0  0  0  0  0  0  0  0
  -20.9190  -29.7860   21.7190 H   0  0  0  0  0  0  0  0  0  0  0  0
  -18.0060  -28.1010   22.9230 C   0  0  0  0  0  0  0  0  0  0  0  0
  -20.5740  -28.2900   23.1680 C   0  0  0  0  0  3  0  0  0  0  0  0
  -20.6320  -26.8650   22.5750 C   0  0  0  0  0  2  0  0  0  0  0  0
  -19.5100  -26.5810   21.5710 C   0  0  0  0  0  2  0  0  0  0  0  0
  -18.1400  -26.7550   22.2310 C   0  0  0  0  0  2  0  0  0  0  0  0
  -19.1480  -28.8290   23.3500 C   0  0  0  0  0  0  0  0  0  0  0  0
  -18.9700  -30.0900   23.9590 C   0  0  0  0  0  3  0  0  0  0  0  0
  -17.6810  -30.6230   24.1450 C   0  0  0  0  0  3  0  0  0  0  0  0
  -16.5540  -29.8930   23.7350 C   0  0  0  0  0  3  0  0  0  0  0  0
  -16.7170  -28.6330   23.1300 C   0  0  0  0  0  3  0  0  0  0  0  0
  -25.8990  -32.3990   23.8330 C   0  0  0  0  0  3  0  0  0  0  0  0
  -25.5920  -33.7940   24.1840 N   0  0  0  0  0  0  0  0  0  0  0  0
  -25.9060  -34.8540   23.4270 C   0  0  0  0  0  0  0  0  0  0  0  0
  -26.5570  -34.7620   22.3820 O   0  0  0  0  0  0  0  0  0  0  0  0
  -25.0130  -33.9360   24.9980 H   0  0  0  0  0  0  0  0  0  0  0  0
  -24.1550  -36.6370   23.1290 C   0  0  0  0  0  1  0  0  0  0  0  0
  -25.4210  -36.2370   23.9050 C   0  0  0  0  0  3  0  0  0  0  0  0
  -27.5690  -37.1320   24.6910 C   0  0  0  0  0  1  0  0  0  0  0  0
  -26.4450  -37.2970   23.7710 N   0  0  0  0  0  0  0  0  0  0  0  0
  -26.0380  -38.2130   23.9360 H   0  0  0  0  0  0  0  0  0  0  0  0
  -26.4170  -31.6080   25.0970 C   0  0  1  0  0  0  0  0  0  0  0  0
  -25.3250  -31.3660   26.1670 C   0  0  0  0  0  1  0  0  0  0  0  0
  -26.9920  -30.2320   24.6870 C   0  0  0  0  0  1  0  0  0  0  0  0
  -27.5760  -32.3850   25.7640 C   0  0  0  0  0  1  0  0  0  0  0  0
  1  2  1  0
  2  3  2  0
  3 53  1  0
  4  6  2  0
  5  1  2  0
  5  4  1  0
  6  3  1  0
  6  8  1  0
  7  5  1  0
  9 22  1  0
 10 15  1  0
 11 12  1  0
 11 10  1  0
 13 12  1  0
 13 26  1  0
 13 14  1  0
 15  9  1  0
 15 14  1  0
 16  9  2  0
 17 19  1  0
 18 21  1  0
 20 18  1  0
 20 22  1  0
 21 17  1  0
 21  4  1  0
 22 19  1  0
 23 24  2  0
 24 43  1  0
 25 24  1  0
 25 28  1  0
 26 27  1  0
 26 23  1  0
 27 25  2  0
 28 29  1  0
 29 30  2  0
 31 34  1  0
 31 30  1  0
 32 31  2  0
 33 32  1  0
 33 28  2  0
 34 35  1  0
 35 36  1  0
 36 37  2  0
 38 37  1  0
 38 42  1  0
 39 38  2  0
 40 35  2  0
 40 39  1  0
 41 40  1  0
 43 44  1  0
 44 47  1  0
 44 46  1  0
 45 43  2  0
 48 23  1  0
 48 49  1  0
 50 48  1  0
 52 51  1  0
 53 52  1  0
 53 51  1  0
 54 55  1  0
 55  2  1  0
 56 57  1  0
 56 54  1  0
 56 55  1  0
 58 69  2  0
 59 57  1  0
 59 64  1  0
 60 68  1  0
 60 70  1  0
 61 67  1  0
 61 63  1  0
 62 68  1  0
 63 64  2  0
 63 62  1  0
 65 59  2  0
 66 65  1  0
 66 61  2  0
 67 60  1  0
 68 58  1  0
 70 72  2  0
 71 70  1  0
 73 71  1  0
 74 83  2  0
 74 79  1  0
 75 71  1  0
 75 79  1  0
 76 75  1  0
 77 78  1  0
 77 76  1  0
 78 74  1  0
 79 80  2  0
 80 81  1  0
 82 81  2  0
 83 82  1  0
 84 58  1  0
 84 85  1  0
 84 94  1  0
 85 88  1  0
 86 90  1  0
 86 85  1  0
 87 86  2  0
 90 89  1  0
 92 90  1  0
 92 93  1  0
 92 91  1  0
 94 97  1  1
 94 95  1  0
 96 94  1  0
M  ISO  4   9 100  22 100  56 101  57 101
M  END
>  <TORSDO>  (71) 
F 18

>  <SCORE>  (71) 
-13.815

>  <name>  (71) 
70

>  <ligand_id>  (71) 
70

>  <original_smiles>  (71) 
[H]c1c([H])c([H])c2c(c1[H])C([H])([H])C([H])([H])C([H])([H])C2([H])N([H])C(=O)C1([H])N(C(=O)C([H])(N([H])C(=O)C([H])(N([H])C([H])([H])[H])C([H])([H])[H])C(C([H])([H])[H])(C([H])([H])[H])C([H])([H])[H])C([H])([H])c2c([H])c(OC3([H])C([H])([H])C3([H])c3c([H])c(C([H])([H])[H])c(C4([H])C([H])([H])C([H])([H])N(C(=O)N5C([H])([H])C([H])([H])C([H])([H])C([H])(n6nc(-c7c([H])c([H])c(Oc8c([H])c([H])c(F)c([H])c8F)c([H])c7[H])c(C(=O)N([H])[H])c6N([H])[H])C5([H])[H])C([H])([H])C4([H])[H])c(C([H])([H])[H])c3C3([H])C([H])([H])C3([H])[H])c([H])c([H])c2C1([H])[H]

>  <smiles>  (71) 
[H]c1c([H])c([H])c2c(c1[H])C([H])([H])C([H])([H])C([H])([H])C2([H])N([H])C(=O)C1([H])N(C(=O)C([H])(N([H])C(=O)C([H])(N([H])C([H])([H])[H])C([H])([H])[H])C(C([H])([H])[H])(C([H])([H])[H])C([H])([H])[H])C([H])([H])c2c([H])c(OC3([H])C([H])([H])C3([H])c3c([H])c(C([H])([H])[H])c(C4([H])C([H])([H])C([H])([H])N(C(=O)N5C([H])([H])C([H])([H])C([H])([H])C([H])(n6nc(-c7c([H])c([H])c(Oc8c([H])c([H])c(F)c([H])c8F)c([H])c7[H])c(C(=O)N([H])[H])c6N([H])[H])C5([H])[H])C([H])([H])C4([H])[H])c(C([H])([H])[H])c3C3([H])C([H])([H])C3([H])[H])c([H])c([H])c2C1([H])[H]

$$$$
71:0:0
     RDKit          3D

 93103  0  0  1  0  0  0  0  0999 V2000
  -29.4610  -21.3980   18.9040 C   0  0  0  0  0  2  0  0  0  0  0  0
  -27.7550  -23.3050   19.1180 C   0  0  0  0  0  2  0  0  0  0  0  0
  -28.8060  -21.6260   20.9310 C   0  0  0  0  0  3  0  0  0  0  0  0
  -29.0060  -20.3890   19.9880 C   0  0  0  0  0  3  0  0  0  0  0  0
  -28.9440  -22.5910   19.7250 C   0  0  1  0  0  0  0  0  0  0  0  0
  -28.9560  -24.1540   19.4790 C   0  0  1  0  0  0  0  0  0  0  0  0
  -27.5190  -21.7850   21.7380 C   0  0  0  0  0  1  0  0  0  0  0  0
  -29.8900  -24.6490   18.3890 C   0  0  0  0  0  1  0  0  0  0  0  0
  -29.4970  -18.2200   21.2940 C   0  0  0  0  0  2  0  0  0  0  0  0
  -30.1370  -18.1620   19.3820 C   0  0  0  0  0  2  0  0  0  0  0  0
  -30.4570  -17.2370   20.5790 C   0  0  0  0  0  3  0  0  0  0  0  0
  -29.9710  -19.2740   20.3610 N   0  0  1  0  0  4  0  0  0  0  0  0
  -30.8720  -19.6220   20.6550 H   0  0  0  0  0  0  0  0  0  0  0  0
  -30.8060  -14.7140   20.1120 C   0  0  0  0  0  0  0  0  0  0  0  0
  -30.5110  -12.5190   18.9920 C   0  0  0  0  0  2  0  0  0  0  0  0
  -29.5240  -12.6930   17.8160 C   0  0  0  0  0  2  0  0  0  0  0  0
  -28.0670  -12.5440   18.2970 C   0  0  0  0  0  2  0  0  0  0  0  0
  -27.7670  -13.3820   19.5690 C   0  0  0  0  0  3  0  0  0  0  0  0
  -28.8620  -13.1860   20.6400 C   0  0  0  0  0  2  0  0  0  0  0  0
  -30.1540  -13.5150   20.0190 N   0  0  0  0  0  0  0  0  0  0  0  0
  -31.9540  -14.8640   19.6870 O   0  0  0  0  0  0  0  0  0  0  0  0
  -30.0580  -15.7860   20.5100 N   0  0  0  0  0  0  0  0  0  0  0  0
  -29.1220  -15.5590   20.8100 H   0  0  0  0  0  0  0  0  0  0  0  0
  -25.4040  -13.9950   20.3700 C   0  0  0  0  0  0  0  0  0  0  0  0
  -24.3440  -13.2270   20.7710 C   0  0  0  0  0  0  0  0  0  0  0  0
  -24.7960  -11.8730   20.7160 C   0  0  0  0  0  0  0  0  0  0  0  0
  -26.4330  -13.1090   20.0960 N   0  0  0  0  0  0  0  0  0  0  0  0
  -26.0750  -11.8270   20.3650 N   0  0  0  0  0  0  0  0  0  0  0  0
  -24.0680  -10.6140   20.9210 C   0  0  0  0  0  0  0  0  0  0  0  0
  -24.5080   -9.6510   21.8550 C   0  0  0  0  0  3  0  0  0  0  0  0
  -23.7810   -8.4560   22.0470 C   0  0  0  0  0  3  0  0  0  0  0  0
  -22.5990   -8.2180   21.3060 C   0  0  0  0  0  0  0  0  0  0  0  0
  -22.1770   -9.1700   20.3620 C   0  0  0  0  0  3  0  0  0  0  0  0
  -22.9060  -10.3560   20.1670 C   0  0  0  0  0  3  0  0  0  0  0  0
  -21.8420   -7.0760   21.4080 O   0  0  0  0  0  0  0  0  0  0  0  0
  -21.7820   -6.3530   22.5730 C   0  0  0  0  0  0  0  0  0  0  0  0
  -21.3200   -6.9230   23.7800 C   0  0  0  0  0  3  0  0  0  0  0  0
  -21.2100   -6.1260   24.9370 C   0  0  0  0  0  3  0  0  0  0  0  0
  -21.5500   -4.7600   24.8890 C   0  0  0  0  0  0  0  0  0  0  0  0
  -22.0060   -4.1910   23.6860 C   0  0  0  0  0  3  0  0  0  0  0  0
  -22.1190   -4.9850   22.5310 C   0  0  0  0  0  0  0  0  0  0  0  0
  -22.5380   -4.4270   21.3700 F   0  0  0  0  0  0  0  0  0  0  0  0
  -21.4380   -3.9930   25.9970 F   0  0  0  0  0  0  0  0  0  0  0  0
  -22.9610  -13.7120   21.0910 C   0  0  0  0  0  0  0  0  0  0  0  0
  -22.2570  -13.0170   21.9770 N   0  0  0  0  0  0  0  0  0  0  0  0
  -22.5120  -14.7420   20.5900 O   0  0  0  0  0  0  0  0  0  0  0  0
  -22.6320  -12.1820   22.4040 H   0  0  0  0  0  0  0  0  0  0  0  0
  -21.3290  -13.3230   22.2340 H   0  0  0  0  0  0  0  0  0  0  0  0
  -25.5710  -15.3660   20.1920 N   0  0  0  0  0  0  0  0  0  0  0  0
  -24.8030  -16.0170   20.3150 H   0  0  0  0  0  0  0  0  0  0  0  0
  -26.3890  -15.7950   19.7810 H   0  0  0  0  0  0  0  0  0  0  0  0
  -28.7100  -25.3040   20.5160 C   0  0  0  0  0  2  0  0  0  0  0  0
  -28.7390  -26.6980   20.0400 O   0  0  0  0  0  0  0  0  0  0  0  0
  -24.6860  -31.7600   23.1530 C   0  0  0  0  0  0  0  0  0  0  0  0
  -27.5560  -27.4350   20.0380 C   0  0  0  0  0  0  0  0  0  0  0  0
  -23.5670  -30.3400   21.4670 C   0  0  0  0  0  3  0  0  0  0  0  0
  -25.1070  -28.8890   20.0300 C   0  0  0  0  0  0  0  0  0  0  0  0
  -26.0830  -30.7980   21.3140 C   0  0  0  0  0  2  0  0  0  0  0  0
  -26.2390  -29.4400   20.6440 C   0  0  0  0  0  0  0  0  0  0  0  0
  -27.4700  -28.7260   20.6330 C   0  0  0  0  0  3  0  0  0  0  0  0
  -26.4040  -26.9170   19.4120 C   0  0  0  0  0  3  0  0  0  0  0  0
  -25.1890  -27.6320   19.4060 C   0  0  0  0  0  3  0  0  0  0  0  0
  -23.8280  -29.6980   20.0770 C   0  0  0  0  0  2  0  0  0  0  0  0
  -24.7970  -30.9820   22.0360 N   0  0  0  0  0  0  0  0  0  0  0  0
  -23.5860  -31.9720   23.6820 O   0  0  0  0  0  0  0  0  0  0  0  0
  -22.9460  -29.2740   22.3990 C   0  0  0  0  0  0  0  0  0  0  0  0
  -21.6340  -29.0270   22.2430 N   0  0  0  0  0  0  0  0  0  0  0  0
  -23.6430  -28.6700   23.2200 O   0  0  0  0  0  0  0  0  0  0  0  0
  -21.1290  -29.5680   21.5560 H   0  0  0  0  0  0  0  0  0  0  0  0
  -18.3180  -27.6460   22.6530 C   0  0  0  0  0  0  0  0  0  0  0  0
  -20.8530  -28.0340   22.9820 C   0  0  0  0  0  3  0  0  0  0  0  0
  -21.0420  -26.6210   22.3850 C   0  0  0  0  0  2  0  0  0  0  0  0
  -19.9800  -26.2580   21.3420 C   0  0  0  0  0  2  0  0  0  0  0  0
  -18.5800  -26.3200   21.9590 C   0  0  0  0  0  2  0  0  0  0  0  0
  -19.3860  -28.4580   23.1190 C   0  0  0  0  0  0  0  0  0  0  0  0
  -19.0890  -29.6980   23.7250 C   0  0  0  0  0  3  0  0  0  0  0  0
  -17.7560  -30.1270   23.8720 C   0  0  0  0  0  3  0  0  0  0  0  0
  -16.7020  -29.3120   23.4230 C   0  0  0  0  0  3  0  0  0  0  0  0
  -16.9840  -28.0730   22.8190 C   0  0  0  0  0  3  0  0  0  0  0  0
  -25.9310  -32.4360   23.8040 C   0  0  0  0  0  3  0  0  0  0  0  0
  -25.5610  -33.8180   24.1400 N   0  0  0  0  0  0  0  0  0  0  0  0
  -25.8640  -34.8910   23.3960 C   0  0  0  0  0  0  0  0  0  0  0  0
  -26.5560  -34.8220   22.3760 O   0  0  0  0  0  0  0  0  0  0  0  0
  -24.9480  -33.9420   24.9310 H   0  0  0  0  0  0  0  0  0  0  0  0
  -24.0760  -36.6190   23.0210 C   0  0  0  0  0  1  0  0  0  0  0  0
  -25.3140  -36.2550   23.8550 C   0  0  0  0  0  3  0  0  0  0  0  0
  -27.3920  -37.2160   24.7430 C   0  0  0  0  0  1  0  0  0  0  0  0
  -26.3080  -37.3470   23.7740 N   0  0  0  0  0  0  0  0  0  0  0  0
  -25.8630  -38.2510   23.9170 H   0  0  0  0  0  0  0  0  0  0  0  0
  -26.4550  -31.6760   25.0840 C   0  0  1  0  0  0  0  0  0  0  0  0
  -25.3530  -31.3860   26.1300 C   0  0  0  0  0  1  0  0  0  0  0  0
  -27.0990  -30.3260   24.6900 C   0  0  0  0  0  1  0  0  0  0  0  0
  -27.5620  -32.5090   25.7740 C   0  0  0  0  0  1  0  0  0  0  0  0
  2  6  1  0
  5  2  1  6
  3  7  1  0
  4  1  1  0
  4 12  1  0
  4  3  1  0
  5  1  1  0
  5  3  1  0
  6  8  1  6
  6  5  1  0
  6 52  1  0
 10 12  1  0
 10 11  1  0
 11 22  1  0
 11  9  1  0
 12 13  1  1
 12  9  1  0
 14 22  1  0
 15 20  1  0
 16 17  1  0
 16 15  1  0
 18 17  1  0
 18 27  1  0
 18 19  1  0
 20 14  1  0
 20 19  1  0
 21 14  2  0
 22 23  1  0
 24 25  2  0
 25 44  1  0
 26 25  1  0
 26 29  1  0
 27 28  1  0
 27 24  1  0
 28 26  2  0
 29 30  1  0
 30 31  2  0
 32 35  1  0
 32 31  1  0
 33 32  2  0
 34 33  1  0
 34 29  2  0
 35 36  1  0
 36 37  1  0
 37 38  2  0
 39 38  1  0
 39 43  1  0
 40 39  2  0
 41 36  2  0
 41 40  1  0
 42 41  1  0
 44 45  1  0
 45 48  1  0
 45 47  1  0
 46 44  2  0
 49 50  1  0
 49 24  1  0
 51 49  1  0
 53 52  1  0
 54 65  2  0
 55 53  1  0
 55 60  1  0
 56 64  1  0
 56 66  1  0
 57 63  1  0
 57 59  1  0
 58 64  1  0
 59 58  1  0
 60 59  2  0
 61 55  2  0
 62 61  1  0
 62 57  2  0
 63 56  1  0
 64 54  1  0
 66 68  2  0
 67 66  1  0
 69 67  1  0
 70 79  2  0
 70 75  1  0
 71 67  1  0
 71 75  1  0
 72 71  1  0
 73 74  1  0
 73 72  1  0
 74 70  1  0
 75 76  2  0
 76 77  1  0
 78 77  2  0
 79 78  1  0
 80 54  1  0
 80 81  1  0
 80 90  1  0
 81 84  1  0
 82 86  1  0
 82 81  1  0
 83 82  2  0
 86 85  1  0
 88 86  1  0
 88 89  1  0
 88 87  1  0
 90 93  1  1
 90 91  1  0
 92 90  1  0
M  ISO  4  14 100  22 100  52 101  53 101
M  END
>  <TORSDO>  (72) 
F 18

>  <SCORE>  (72) 
-13.586

>  <name>  (72) 
71

>  <ligand_id>  (72) 
71

>  <original_smiles>  (72) 
[H]c1c([H])c([H])c2c(c1[H])C([H])([H])C([H])([H])C([H])([H])C2([H])N([H])C(=O)C1([H])N(C(=O)C([H])(N([H])C(=O)C([H])(N([H])C([H])([H])[H])C([H])([H])[H])C(C([H])([H])[H])(C([H])([H])[H])C([H])([H])[H])C([H])([H])c2c([H])c(OC([H])([H])C3(C([H])([H])[H])C([H])([H])C34C([H])([H])C([H])([N+]3([H])C([H])([H])C([H])(N([H])C(=O)N5C([H])([H])C([H])([H])C([H])([H])C([H])(n6nc(-c7c([H])c([H])c(Oc8c([H])c([H])c(F)c([H])c8F)c([H])c7[H])c(C(=O)N([H])[H])c6N([H])[H])C5([H])[H])C3([H])[H])C4([H])C([H])([H])[H])c([H])c([H])c2C1([H])[H]

>  <smiles>  (72) 
[H]c1c([H])c([H])c2c(c1[H])C([H])([H])C([H])([H])C([H])([H])C2([H])N([H])C(=O)C1([H])N(C(=O)C([H])(N([H])C(=O)C([H])(N([H])C([H])([H])[H])C([H])([H])[H])C(C([H])([H])[H])(C([H])([H])[H])C([H])([H])[H])C([H])([H])c2c([H])c(OC([H])([H])C3(C([H])([H])[H])C([H])([H])C34C([H])([H])C([H])([N+]3([H])C([H])([H])C([H])(N([H])C(=O)N5C([H])([H])C([H])([H])C([H])([H])C([H])(n6nc(-c7c([H])c([H])c(Oc8c([H])c([H])c(F)c([H])c8F)c([H])c7[H])c(C(=O)N([H])[H])c6N([H])[H])C5([H])[H])C3([H])[H])C4([H])C([H])([H])[H])c([H])c([H])c2C1([H])[H]

$$$$
72:0:0
     RDKit          3D

 96106  0  0  1  0  0  0  0  0999 V2000
  -29.1830  -18.4570   18.8760 C   0  0  0  0  0  3  0  0  0  0  0  0
  -28.9860  -20.8400   18.2410 C   0  0  0  0  0  0  0  0  0  0  0  0
  -29.1890  -21.2790   19.5910 C   0  0  0  0  0  0  0  0  0  0  0  0
  -28.8710  -19.4520   17.9330 C   0  0  0  0  0  0  0  0  0  0  0  0
  -29.5900  -18.7720   20.1760 C   0  0  0  0  0  0  0  0  0  0  0  0
  -29.5200  -20.2040   20.5420 C   0  0  0  0  0  0  0  0  0  0  0  0
  -28.4490  -18.9650   16.5530 C   0  0  0  0  0  1  0  0  0  0  0  0
  -29.8380  -20.6300   21.9650 C   0  0  0  0  0  1  0  0  0  0  0  0
  -28.2160  -23.9650   19.1930 C   0  0  0  0  0  2  0  0  0  0  0  0
  -29.0120  -23.8120   21.1370 C   0  0  0  0  0  2  0  0  0  0  0  0
  -29.1830  -22.8980   19.8590 C   0  0  0  0  0  3  0  0  0  0  0  0
  -28.0770  -24.8850   20.4420 C   0  0  0  0  0  3  0  0  0  0  0  0
  -28.3710  -26.3780   20.3540 O   0  0  0  0  0  0  0  0  0  0  0  0
  -24.6420  -31.9160   23.2870 C   0  0  0  0  0  0  0  0  0  0  0  0
  -27.2900  -27.2980   20.2730 C   0  0  0  0  0  0  0  0  0  0  0  0
  -23.4630  -30.5150   21.6330 C   0  0  0  0  0  3  0  0  0  0  0  0
  -24.9360  -28.9620   20.2200 C   0  0  0  0  0  0  0  0  0  0  0  0
  -26.0100  -30.8220   21.4840 C   0  0  0  0  0  2  0  0  0  0  0  0
  -26.1010  -29.4380   20.8360 C   0  0  0  0  0  0  0  0  0  0  0  0
  -27.2820  -28.6200   20.8470 C   0  0  0  0  0  3  0  0  0  0  0  0
  -26.1030  -26.9040   19.6180 C   0  0  0  0  0  3  0  0  0  0  0  0
  -24.9460  -27.7050   19.5960 C   0  0  0  0  0  3  0  0  0  0  0  0
  -23.6990  -29.8400   20.2550 C   0  0  0  0  0  2  0  0  0  0  0  0
  -24.7240  -31.1040   22.1910 N   0  0  0  0  0  0  0  0  0  0  0  0
  -23.5500  -32.1920   23.8070 O   0  0  0  0  0  0  0  0  0  0  0  0
  -22.7880  -29.5000   22.5870 C   0  0  0  0  0  0  0  0  0  0  0  0
  -21.4650  -29.3100   22.4360 N   0  0  0  0  0  0  0  0  0  0  0  0
  -23.4550  -28.8850   23.4230 O   0  0  0  0  0  0  0  0  0  0  0  0
  -20.9840  -29.8600   21.7380 H   0  0  0  0  0  0  0  0  0  0  0  0
  -18.0890  -28.0900   22.8940 C   0  0  0  0  0  0  0  0  0  0  0  0
  -20.6410  -28.3670   23.1970 C   0  0  0  0  0  3  0  0  0  0  0  0
  -20.7600  -26.9360   22.6240 C   0  0  0  0  0  2  0  0  0  0  0  0
  -19.6750  -26.6060   21.5950 C   0  0  0  0  0  2  0  0  0  0  0  0
  -18.2830  -26.7420   22.2200 C   0  0  0  0  0  2  0  0  0  0  0  0
  -19.1960  -28.8590   23.3390 C   0  0  0  0  0  0  0  0  0  0  0  0
  -18.9610  -30.1200   23.9290 C   0  0  0  0  0  3  0  0  0  0  0  0
  -17.6510  -30.6120   24.0780 C   0  0  0  0  0  3  0  0  0  0  0  0
  -16.5560  -29.8400   23.6490 C   0  0  0  0  0  3  0  0  0  0  0  0
  -16.7760  -28.5800   23.0630 C   0  0  0  0  0  3  0  0  0  0  0  0
  -25.9130  -32.5560   23.9260 C   0  0  0  0  0  3  0  0  0  0  0  0
  -26.4020  -31.8010   25.2220 C   0  0  1  0  0  0  0  0  0  0  0  0
  -25.2860  -31.5750   26.2700 C   0  0  0  0  0  1  0  0  0  0  0  0
  -26.9950  -30.4200   24.8610 C   0  0  0  0  0  1  0  0  0  0  0  0
  -27.5380  -32.6030   25.8990 C   0  0  0  0  0  1  0  0  0  0  0  0
  -25.5990  -33.9600   24.2350 N   0  0  0  0  0  0  0  0  0  0  0  0
  -25.9300  -35.0040   23.4640 C   0  0  0  0  0  0  0  0  0  0  0  0
  -26.6010  -34.8870   22.4350 O   0  0  0  0  0  0  0  0  0  0  0  0
  -25.0030  -34.1240   25.0350 H   0  0  0  0  0  0  0  0  0  0  0  0
  -24.2010  -36.7920   23.0870 C   0  0  0  0  0  1  0  0  0  0  0  0
  -25.4420  -36.3970   23.9040 C   0  0  0  0  0  3  0  0  0  0  0  0
  -27.5700  -37.3020   24.7310 C   0  0  0  0  0  1  0  0  0  0  0  0
  -26.4740  -37.4500   23.7780 N   0  0  0  0  0  0  0  0  0  0  0  0
  -26.0640  -38.3720   23.9060 H   0  0  0  0  0  0  0  0  0  0  0  0
  -29.8570  -21.6450   15.8730 C   0  0  0  0  0  2  0  0  0  0  0  0
  -30.1020  -22.7790   16.8180 C   0  0  0  0  0  2  0  0  0  0  0  0
  -28.9520  -21.8200   17.0850 C   0  0  0  0  0  3  0  0  0  0  0  0
  -31.6620  -17.7450   21.2750 C   0  0  0  0  0  1  0  0  0  0  0  0
  -30.1490  -17.5360   21.0550 C   0  0  0  0  0  3  0  0  0  0  0  0
  -30.5920  -14.8990   20.4680 C   0  0  0  0  0  0  0  0  0  0  0  0
  -30.4190  -12.6230   19.4180 C   0  0  0  0  0  2  0  0  0  0  0  0
  -29.4730  -12.6740   18.1970 C   0  0  0  0  0  2  0  0  0  0  0  0
  -28.0120  -12.4620   18.6340 C   0  0  0  0  0  2  0  0  0  0  0  0
  -27.6250  -13.3340   19.8590 C   0  0  0  0  0  3  0  0  0  0  0  0
  -28.6910  -13.2710   20.9730 C   0  0  0  0  0  2  0  0  0  0  0  0
  -29.9690  -13.6690   20.3700 N   0  0  0  0  0  0  0  0  0  0  0  0
  -31.7840  -14.9750   20.1580 O   0  0  0  0  0  0  0  0  0  0  0  0
  -29.8280  -16.0440   20.7360 N   0  0  0  0  0  0  0  0  0  0  0  0
  -28.8520  -15.8250   20.8700 H   0  0  0  0  0  0  0  0  0  0  0  0
  -25.2340  -13.8740   20.6080 C   0  0  0  0  0  0  0  0  0  0  0  0
  -24.1820  -13.0790   20.9710 C   0  0  0  0  0  0  0  0  0  0  0  0
  -24.6660  -11.7360   20.9220 C   0  0  0  0  0  0  0  0  0  0  0  0
  -26.2900  -13.0150   20.3560 N   0  0  0  0  0  0  0  0  0  0  0  0
  -25.9560  -11.7220   20.6090 N   0  0  0  0  0  0  0  0  0  0  0  0
  -23.9590  -10.4600   21.0950 C   0  0  0  0  0  0  0  0  0  0  0  0
  -24.3920   -9.4960   22.0320 C   0  0  0  0  0  3  0  0  0  0  0  0
  -23.6820   -8.2870   22.1950 C   0  0  0  0  0  3  0  0  0  0  0  0
  -22.5260   -8.0330   21.4210 C   0  0  0  0  0  0  0  0  0  0  0  0
  -22.1130   -8.9850   20.4720 C   0  0  0  0  0  3  0  0  0  0  0  0
  -22.8230  -10.1860   20.3080 C   0  0  0  0  0  3  0  0  0  0  0  0
  -21.7880   -6.8760   21.4920 O   0  0  0  0  0  0  0  0  0  0  0  0
  -21.7180   -6.1370   22.6460 C   0  0  0  0  0  0  0  0  0  0  0  0
  -21.2190   -6.6800   23.8500 C   0  0  0  0  0  3  0  0  0  0  0  0
  -21.1010   -5.8640   24.9940 C   0  0  0  0  0  3  0  0  0  0  0  0
  -21.4710   -4.5080   24.9340 C   0  0  0  0  0  0  0  0  0  0  0  0
  -21.9640   -3.9640   23.7350 C   0  0  0  0  0  3  0  0  0  0  0  0
  -22.0840   -4.7760   22.5930 C   0  0  0  0  0  0  0  0  0  0  0  0
  -22.5390   -4.2420   21.4340 F   0  0  0  0  0  0  0  0  0  0  0  0
  -21.3510   -3.7230   26.0300 F   0  0  0  0  0  0  0  0  0  0  0  0
  -22.7780  -13.5320   21.2500 C   0  0  0  0  0  0  0  0  0  0  0  0
  -22.0590  -12.8100   22.1010 N   0  0  0  0  0  0  0  0  0  0  0  0
  -22.3270  -14.5600   20.7470 O   0  0  0  0  0  0  0  0  0  0  0  0
  -22.4370  -11.9770   22.5290 H   0  0  0  0  0  0  0  0  0  0  0  0
  -21.1160  -13.0930   22.3290 H   0  0  0  0  0  0  0  0  0  0  0  0
  -25.3750  -15.2500   20.4460 N   0  0  0  0  0  0  0  0  0  0  0  0
  -24.5920  -15.8850   20.5590 H   0  0  0  0  0  0  0  0  0  0  0  0
  -26.2030  -15.7050   20.0870 H   0  0  0  0  0  0  0  0  0  0  0  0
  1  5  1  0
  2  3  2  0
  3  6  1  0
  4  2  1  0
  4  1  2  0
  5  6  2  0
  5 58  1  0
  6  8  1  0
  7  4  1  0
  9 11  1  0
  9 12  1  0
 11  3  1  0
 11 10  1  0
 12 13  1  0
 12 10  1  0
 14 25  2  0
 15 13  1  0
 15 20  1  0
 16 24  1  0
 16 26  1  0
 17 23  1  0
 17 19  1  0
 18 24  1  0
 19 20  2  0
 19 18  1  0
 21 15  2  0
 22 21  1  0
 22 17  2  0
 23 16  1  0
 24 14  1  0
 26 28  2  0
 27 26  1  0
 29 27  1  0
 30 39  2  0
 30 35  1  0
 31 27  1  0
 31 35  1  0
 32 31  1  0
 33 34  1  0
 33 32  1  0
 34 30  1  0
 35 36  2  0
 36 37  1  0
 38 37  2  0
 39 38  1  0
 40 14  1  0
 40 45  1  0
 40 41  1  0
 41 44  1  1
 41 42  1  0
 43 41  1  0
 45 48  1  0
 46 50  1  0
 46 45  1  0
 47 46  2  0
 50 49  1  0
 52 50  1  0
 52 53  1  0
 52 51  1  0
 54 55  1  0
 54 56  1  0
 55 56  1  0
 56  2  1  0
 58 57  1  0
 59 67  1  0
 60 65  1  0
 61 62  1  0
 61 60  1  0
 63 62  1  0
 63 72  1  0
 63 64  1  0
 65 59  1  0
 65 64  1  0
 66 59  2  0
 67 68  1  0
 67 58  1  0
 69 70  2  0
 70 89  1  0
 71 70  1  0
 71 74  1  0
 72 69  1  0
 72 73  1  0
 73 71  2  0
 74 75  1  0
 75 76  2  0
 77 80  1  0
 77 76  1  0
 78 77  2  0
 79 78  1  0
 79 74  2  0
 80 81  1  0
 81 82  1  0
 82 83  2  0
 84 83  1  0
 84 88  1  0
 85 84  2  0
 86 81  2  0
 86 85  1  0
 87 86  1  0
 89 90  1  0
 90 93  1  0
 90 92  1  0
 91 89  2  0
 94 95  1  0
 94 69  1  0
 96 94  1  0
M  ISO  4  12 101  13 101  59 100  67 100
M  END
>  <TORSDO>  (73) 
F 19

>  <SCORE>  (73) 
-14.628

>  <name>  (73) 
72

>  <ligand_id>  (73) 
72

>  <original_smiles>  (73) 
[H]c1c([H])c([H])c2c(c1[H])C([H])([H])C([H])([H])C([H])([H])C2([H])N([H])C(=O)C1([H])N(C(=O)C([H])(N([H])C(=O)C([H])(N([H])C([H])([H])[H])C([H])([H])[H])C(C([H])([H])[H])(C([H])([H])[H])C([H])([H])[H])C([H])([H])c2c([H])c(OC3([H])C([H])([H])C([H])(c4c(C([H])([H])[H])c(C([H])(N([H])C(=O)N5C([H])([H])C([H])([H])C([H])([H])C([H])(n6nc(-c7c([H])c([H])c(Oc8c([H])c([H])c(F)c([H])c8F)c([H])c7[H])c(C(=O)N([H])[H])c6N([H])[H])C5([H])[H])C([H])([H])[H])c([H])c(C([H])([H])[H])c4C4([H])C([H])([H])C4([H])[H])C3([H])[H])c([H])c([H])c2C1([H])[H]

>  <smiles>  (73) 
[H]c1c([H])c([H])c2c(c1[H])C([H])([H])C([H])([H])C([H])([H])C2([H])N([H])C(=O)C1([H])N(C(=O)C([H])(N([H])C(=O)C([H])(N([H])C([H])([H])[H])C([H])([H])[H])C(C([H])([H])[H])(C([H])([H])[H])C([H])([H])[H])C([H])([H])c2c([H])c(OC3([H])C([H])([H])C([H])(c4c(C([H])([H])[H])c(C([H])(N([H])C(=O)N5C([H])([H])C([H])([H])C([H])([H])C([H])(n6nc(-c7c([H])c([H])c(Oc8c([H])c([H])c(F)c([H])c8F)c([H])c7[H])c(C(=O)N([H])[H])c6N([H])[H])C5([H])[H])C([H])([H])[H])c([H])c(C([H])([H])[H])c4C4([H])C([H])([H])C4([H])[H])C3([H])[H])c([H])c([H])c2C1([H])[H]

$$$$
73:0:0
     RDKit          3D

 96105  0  0  1  0  0  0  0  0999 V2000
  -29.6720  -22.5620   21.1120 C   0  0  0  0  0  2  0  0  0  0  0  0
  -30.1950  -22.5020   19.1440 C   0  0  0  0  0  2  0  0  0  0  0  0
  -30.7790  -21.8080   20.3750 C   0  0  0  0  0  3  0  0  0  0  0  0
  -29.8210  -23.5840   20.0670 N   0  0  1  0  0  4  0  0  0  0  0  0
  -30.6280  -24.1610   20.2620 H   0  0  0  0  0  0  0  0  0  0  0  0
  -30.4950  -19.5710   21.5530 C   0  0  0  0  0  3  0  0  0  0  0  0
  -32.2850  -18.3110   19.8040 C   0  0  0  0  0  3  0  0  0  0  0  0
  -31.0650  -20.3120   20.4940 C   0  0  0  0  0  0  0  0  0  0  0  0
  -30.8290  -18.2150   21.7560 C   0  0  0  0  0  0  0  0  0  0  0  0
  -31.9500  -19.6650   19.5980 C   0  0  0  0  0  0  0  0  0  0  0  0
  -31.7580  -17.5880   20.8930 C   0  0  0  0  0  0  0  0  0  0  0  0
  -30.2080  -17.4690   22.9250 C   0  0  0  0  0  1  0  0  0  0  0  0
  -32.5760  -20.4030   18.4270 C   0  0  0  0  0  1  0  0  0  0  0  0
  -32.2530  -16.1650   21.1320 C   0  0  0  0  0  2  0  0  0  0  0  0
  -31.5590  -14.3330   19.5970 C   0  0  0  0  0  0  0  0  0  0  0  0
  -30.9330  -12.2020   18.5210 C   0  0  0  0  0  2  0  0  0  0  0  0
  -29.8930  -12.3900   17.4020 C   0  0  0  0  0  2  0  0  0  0  0  0
  -28.4660  -12.3780   17.9800 C   0  0  0  0  0  2  0  0  0  0  0  0
  -28.3070  -13.3350   19.1890 C   0  0  0  0  0  3  0  0  0  0  0  0
  -29.4380  -13.1130   20.2160 C   0  0  0  0  0  2  0  0  0  0  0  0
  -30.7340  -13.2580   19.5240 N   0  0  0  0  0  0  0  0  0  0  0  0
  -32.5020  -14.5210   18.8220 O   0  0  0  0  0  0  0  0  0  0  0  0
  -31.3490  -15.1270   20.6540 N   0  0  0  0  0  0  0  0  0  0  0  0
  -30.5700  -14.8870   21.2470 H   0  0  0  0  0  0  0  0  0  0  0  0
  -26.0840  -14.1830   20.1740 C   0  0  0  0  0  0  0  0  0  0  0  0
  -24.9770  -13.5220   20.6370 C   0  0  0  0  0  0  0  0  0  0  0  0
  -25.2700  -12.1290   20.5140 C   0  0  0  0  0  0  0  0  0  0  0  0
  -26.9880  -13.1990   19.8050 N   0  0  0  0  0  0  0  0  0  0  0  0
  -26.5050  -11.9560   20.0630 N   0  0  0  0  0  0  0  0  0  0  0  0
  -24.4250  -10.9500   20.7460 C   0  0  0  0  0  0  0  0  0  0  0  0
  -24.8050   -9.9360   21.6540 C   0  0  0  0  0  3  0  0  0  0  0  0
  -23.9680   -8.8220   21.8730 C   0  0  0  0  0  3  0  0  0  0  0  0
  -22.7360   -8.7130   21.1850 C   0  0  0  0  0  0  0  0  0  0  0  0
  -22.3730   -9.7140   20.2670 C   0  0  0  0  0  3  0  0  0  0  0  0
  -23.2110  -10.8200   20.0450 C   0  0  0  0  0  3  0  0  0  0  0  0
  -21.8710   -7.6540   21.3150 O   0  0  0  0  0  0  0  0  0  0  0  0
  -21.7500   -6.9630   22.4950 C   0  0  0  0  0  0  0  0  0  0  0  0
  -21.3930   -7.6050   23.7000 C   0  0  0  0  0  3  0  0  0  0  0  0
  -21.2120   -6.8470   24.8750 C   0  0  0  0  0  3  0  0  0  0  0  0
  -21.3780   -5.4500   24.8440 C   0  0  0  0  0  0  0  0  0  0  0  0
  -21.7300   -4.8080   23.6430 C   0  0  0  0  0  3  0  0  0  0  0  0
  -21.9120   -5.5630   22.4710 C   0  0  0  0  0  0  0  0  0  0  0  0
  -22.2290   -4.9380   21.3120 F   0  0  0  0  0  0  0  0  0  0  0  0
  -21.1980   -4.7200   25.9700 F   0  0  0  0  0  0  0  0  0  0  0  0
  -23.6840  -14.1420   21.0780 C   0  0  0  0  0  0  0  0  0  0  0  0
  -22.9870  -13.5070   22.0140 N   0  0  0  0  0  0  0  0  0  0  0  0
  -23.3060  -15.2230   20.6290 O   0  0  0  0  0  0  0  0  0  0  0  0
  -23.3060  -12.6300   22.3980 H   0  0  0  0  0  0  0  0  0  0  0  0
  -22.1210  -13.9030   22.3520 H   0  0  0  0  0  0  0  0  0  0  0  0
  -26.3900  -15.5320   20.0220 N   0  0  0  0  0  0  0  0  0  0  0  0
  -25.7270  -16.2680   20.2390 H   0  0  0  0  0  0  0  0  0  0  0  0
  -27.2570  -15.8820   19.6330 H   0  0  0  0  0  0  0  0  0  0  0  0
  -28.7320  -24.9890   18.3060 C   0  0  0  0  0  1  0  0  0  0  0  0
  -28.6200  -24.4000   19.7310 C   0  0  0  0  0  3  0  0  0  0  0  0
  -28.3820  -25.4840   20.8180 C   0  0  0  0  0  2  0  0  0  0  0  0
  -28.4330  -26.8200   20.3110 O   0  0  0  0  0  0  0  0  0  0  0  0
  -24.5810  -31.9730   23.3090 C   0  0  0  0  0  0  0  0  0  0  0  0
  -27.2470  -27.5120   20.3100 C   0  0  0  0  0  0  0  0  0  0  0  0
  -23.3860  -30.5530   21.6740 C   0  0  0  0  0  3  0  0  0  0  0  0
  -24.8480  -28.9930   20.2850 C   0  0  0  0  0  0  0  0  0  0  0  0
  -25.9090  -30.9150   21.4860 C   0  0  0  0  0  2  0  0  0  0  0  0
  -25.9990  -29.5360   20.8690 C   0  0  0  0  0  0  0  0  0  0  0  0
  -27.2040  -28.8040   20.8730 C   0  0  0  0  0  3  0  0  0  0  0  0
  -26.0820  -26.9710   19.7260 C   0  0  0  0  0  3  0  0  0  0  0  0
  -24.8820  -27.7090   19.7120 C   0  0  0  0  0  3  0  0  0  0  0  0
  -23.6040  -29.8510   20.3060 C   0  0  0  0  0  2  0  0  0  0  0  0
  -24.6430  -31.1620   22.2150 N   0  0  0  0  0  0  0  0  0  0  0  0
  -23.4980  -32.2530   23.8380 O   0  0  0  0  0  0  0  0  0  0  0  0
  -22.7250  -29.5460   22.6420 C   0  0  0  0  0  0  0  0  0  0  0  0
  -21.4100  -29.3320   22.4750 N   0  0  0  0  0  0  0  0  0  0  0  0
  -23.3950  -28.9580   23.4960 O   0  0  0  0  0  0  0  0  0  0  0  0
  -20.9330  -29.8570   21.7560 H   0  0  0  0  0  0  0  0  0  0  0  0
  -18.0610  -28.0300   22.8390 C   0  0  0  0  0  0  0  0  0  0  0  0
  -20.5860  -28.3990   23.2420 C   0  0  0  0  0  3  0  0  0  0  0  0
  -20.7750  -26.9490   22.7420 C   0  0  0  0  0  2  0  0  0  0  0  0
  -19.7470  -26.5370   21.6850 C   0  0  0  0  0  2  0  0  0  0  0  0
  -18.3260  -26.6590   22.2410 C   0  0  0  0  0  2  0  0  0  0  0  0
  -19.1240  -28.8540   23.2940 C   0  0  0  0  0  0  0  0  0  0  0  0
  -18.8270  -30.1350   23.8080 C   0  0  0  0  0  3  0  0  0  0  0  0
  -17.4970  -30.5940   23.8740 C   0  0  0  0  0  3  0  0  0  0  0  0
  -16.4470  -29.7670   23.4360 C   0  0  0  0  0  3  0  0  0  0  0  0
  -16.7300  -28.4890   22.9250 C   0  0  0  0  0  3  0  0  0  0  0  0
  -25.8650  -32.6070   23.9320 C   0  0  0  0  0  3  0  0  0  0  0  0
  -26.3770  -31.8430   25.2150 C   0  0  1  0  0  0  0  0  0  0  0  0
  -25.2750  -31.5910   26.2710 C   0  0  0  0  0  1  0  0  0  0  0  0
  -26.9820  -30.4740   24.8270 C   0  0  0  0  0  1  0  0  0  0  0  0
  -27.5110  -32.6510   25.8900 C   0  0  0  0  0  1  0  0  0  0  0  0
  -25.5580  -34.0080   24.2490 N   0  0  0  0  0  0  0  0  0  0  0  0
  -25.8930  -35.0520   23.4800 C   0  0  0  0  0  0  0  0  0  0  0  0
  -26.5670  -34.9380   22.4520 O   0  0  0  0  0  0  0  0  0  0  0  0
  -24.9600  -34.1700   25.0470 H   0  0  0  0  0  0  0  0  0  0  0  0
  -24.1640  -36.8380   23.1020 C   0  0  0  0  0  1  0  0  0  0  0  0
  -25.4030  -36.4440   23.9210 C   0  0  0  0  0  3  0  0  0  0  0  0
  -27.5360  -37.3370   24.7480 C   0  0  0  0  0  1  0  0  0  0  0  0
  -26.4370  -37.4970   23.8000 N   0  0  0  0  0  0  0  0  0  0  0  0
  -26.0300  -38.4180   23.9380 H   0  0  0  0  0  0  0  0  0  0  0  0
  2  4  1  0
  2  3  1  0
  3  8  1  0
  3  1  1  0
  4  5  1  1
  4  1  1  0
  6  9  1  0
  7 11  1  0
  8  6  2  0
  9 12  1  0
 10  7  2  0
 10  8  1  0
 11 14  1  0
 11  9  2  0
 13 10  1  0
 15 23  1  0
 16 21  1  0
 17 18  1  0
 17 16  1  0
 19 18  1  0
 19 28  1  0
 19 20  1  0
 21 15  1  0
 21 20  1  0
 22 15  2  0
 23 14  1  0
 23 24  1  0
 25 26  2  0
 26 45  1  0
 27 26  1  0
 27 30  1  0
 28 29  1  0
 28 25  1  0
 29 27  2  0
 30 31  1  0
 31 32  2  0
 33 36  1  0
 33 32  1  0
 34 33  2  0
 35 34  1  0
 35 30  2  0
 36 37  1  0
 37 38  1  0
 38 39  2  0
 40 39  1  0
 40 44  1  0
 41 40  2  0
 42 37  2  0
 42 41  1  0
 43 42  1  0
 45 46  1  0
 46 49  1  0
 46 48  1  0
 47 45  2  0
 50 25  1  0
 50 51  1  0
 52 50  1  0
 54 53  1  0
 54  4  1  0
 54 55  1  0
 56 55  1  0
 57 68  2  0
 58 56  1  0
 58 63  1  0
 59 67  1  0
 59 69  1  0
 60 66  1  0
 60 62  1  0
 61 67  1  0
 62 63  2  0
 62 61  1  0
 64 58  2  0
 65 64  1  0
 65 60  2  0
 66 59  1  0
 67 57  1  0
 69 71  2  0
 70 69  1  0
 72 70  1  0
 73 82  2  0
 73 78  1  0
 74 70  1  0
 74 78  1  0
 75 74  1  0
 76 77  1  0
 76 75  1  0
 77 73  1  0
 78 79  2  0
 79 80  1  0
 81 80  2  0
 82 81  1  0
 83 57  1  0
 83 88  1  0
 83 84  1  0
 84 87  1  1
 84 85  1  0
 86 84  1  0
 88 91  1  0
 89 93  1  0
 89 88  1  0
 90 89  2  0
 93 92  1  0
 95 93  1  0
 95 96  1  0
 95 94  1  0
M  ISO  4  15 100  23 100  55 101  56 101
M  END
>  <TORSDO>  (74) 
F 20

>  <SCORE>  (74) 
-11.852

>  <name>  (74) 
73

>  <ligand_id>  (74) 
73

>  <original_smiles>  (74) 
[H]c1c([H])c([H])c2c(c1[H])C([H])([H])C([H])([H])C([H])([H])C2([H])N([H])C(=O)C1([H])N(C(=O)C([H])(N([H])C(=O)C([H])(N([H])C([H])([H])[H])C([H])([H])[H])C(C([H])([H])[H])(C([H])([H])[H])C([H])([H])[H])C([H])([H])c2c([H])c(OC([H])([H])C([H])(C([H])([H])[H])[N+]3([H])C([H])([H])C([H])(c4c([H])c(C([H])([H])[H])c(C([H])([H])N([H])C(=O)N5C([H])([H])C([H])([H])C([H])([H])C([H])(n6nc(-c7c([H])c([H])c(Oc8c([H])c([H])c(F)c([H])c8F)c([H])c7[H])c(C(=O)N([H])[H])c6N([H])[H])C5([H])[H])c([H])c4C([H])([H])[H])C3([H])[H])c([H])c([H])c2C1([H])[H]

>  <smiles>  (74) 
[H]c1c([H])c([H])c2c(c1[H])C([H])([H])C([H])([H])C([H])([H])C2([H])N([H])C(=O)C1([H])N(C(=O)C([H])(N([H])C(=O)C([H])(N([H])C([H])([H])[H])C([H])([H])[H])C(C([H])([H])[H])(C([H])([H])[H])C([H])([H])[H])C([H])([H])c2c([H])c(OC([H])([H])C([H])(C([H])([H])[H])[N+]3([H])C([H])([H])C([H])(c4c([H])c(C([H])([H])[H])c(C([H])([H])N([H])C(=O)N5C([H])([H])C([H])([H])C([H])([H])C([H])(n6nc(-c7c([H])c([H])c(Oc8c([H])c([H])c(F)c([H])c8F)c([H])c7[H])c(C(=O)N([H])[H])c6N([H])[H])C5([H])[H])c([H])c4C([H])([H])[H])C3([H])[H])c([H])c([H])c2C1([H])[H]

$$$$
74:0:0
     RDKit          3D

110121  0  0  1  0  0  0  0  0999 V2000
  -32.1500  -21.0430   21.0060 C   0  0  0  0  0  0  0  0  0  0  0  0
  -32.1370  -18.5890   21.2990 C   0  0  0  0  0  0  0  0  0  0  0  0
  -32.1810  -19.7220   20.4330 C   0  0  0  0  0  0  0  0  0  0  0  0
  -32.5560  -21.1170   22.3780 C   0  0  0  0  0  3  0  0  0  0  0  0
  -32.3950  -18.7640   22.6730 C   0  0  0  0  0  0  0  0  0  0  0  0
  -31.7670  -17.2030   20.7780 C   0  0  0  0  0  1  0  0  0  0  0  0
  -32.9840  -22.3780   23.1130 C   0  0  0  0  0  1  0  0  0  0  0  0
  -32.4460  -17.6160   23.6680 C   0  0  0  0  0  1  0  0  0  0  0  0
  -32.6540  -19.9990   23.1280 N   0  0  0  0  0  0  0  0  0  0  0  0
  -32.9160  -20.1060   24.1090 H   0  0  0  0  0  0  0  0  0  0  0  0
  -31.8610  -23.7180   20.7980 C   0  0  0  0  0  2  0  0  0  0  0  0
  -31.7000  -22.3070   20.2180 C   0  0  0  0  0  3  0  0  0  0  0  0
  -30.4730  -23.1960   20.6100 C   0  0  0  0  0  3  0  0  0  0  0  0
  -30.1140  -24.6700   18.4840 C   0  0  0  0  0  1  0  0  0  0  0  0
  -29.4850  -24.0240   19.7340 C   0  0  0  0  0  3  0  0  0  0  0  0
  -28.5960  -25.0390   20.5570 C   0  0  0  0  0  2  0  0  0  0  0  0
  -28.6180  -26.4460   20.1960 O   0  0  0  0  0  0  0  0  0  0  0  0
  -24.7770  -30.2970   24.8780 C   0  0  0  0  0  0  0  0  0  0  0  0
  -27.4640  -27.1670   20.4690 C   0  0  0  0  0  0  0  0  0  0  0  0
  -23.5960  -29.5710   22.8310 C   0  0  0  0  0  3  0  0  0  0  0  0
  -25.0720  -28.6140   20.9760 C   0  0  0  0  0  0  0  0  0  0  0  0
  -26.1290  -29.9470   22.8070 C   0  0  0  0  0  2  0  0  0  0  0  0
  -26.2250  -28.8860   21.7250 C   0  0  0  0  0  0  0  0  0  0  0  0
  -27.4250  -28.1760   21.4650 C   0  0  0  0  0  3  0  0  0  0  0  0
  -26.2930  -26.9150   19.7240 C   0  0  0  0  0  3  0  0  0  0  0  0
  -25.1040  -27.6320   19.9700 C   0  0  0  0  0  3  0  0  0  0  0  0
  -23.8280  -29.4140   21.3030 C   0  0  0  0  0  2  0  0  0  0  0  0
  -24.8520  -29.9330   23.5660 N   0  0  0  0  0  0  0  0  0  0  0  0
  -23.6880  -30.3720   25.4640 O   0  0  0  0  0  0  0  0  0  0  0  0
  -22.9220  -28.2850   23.3650 C   0  0  0  0  0  0  0  0  0  0  0  0
  -21.9030  -27.7960   22.6390 N   0  0  0  0  0  0  0  0  0  0  0  0
  -23.3330  -27.7370   24.3900 O   0  0  0  0  0  0  0  0  0  0  0  0
  -21.6220  -28.3060   21.8140 H   0  0  0  0  0  0  0  0  0  0  0  0
  -19.7060  -25.3160   21.1930 C   0  0  0  0  0  0  0  0  0  0  0  0
  -21.1500  -26.5740   22.9280 C   0  0  0  0  0  3  0  0  0  0  0  0
  -22.0740  -25.3340   22.9080 C   0  0  0  0  0  2  0  0  0  0  0  0
  -22.1190  -24.6390   21.5430 C   0  0  0  0  0  2  0  0  0  0  0  0
  -20.7180  -24.1840   21.1250 C   0  0  0  0  0  2  0  0  0  0  0  0
  -19.9170  -26.4450   22.0270 C   0  0  0  0  0  0  0  0  0  0  0  0
  -18.9610  -27.4850   22.0260 C   0  0  0  0  0  3  0  0  0  0  0  0
  -17.8140  -27.4070   21.2150 C   0  0  0  0  0  3  0  0  0  0  0  0
  -17.6030  -26.2790   20.4030 C   0  0  0  0  0  3  0  0  0  0  0  0
  -18.5450  -25.2350   20.3960 C   0  0  0  0  0  3  0  0  0  0  0  0
  -26.0540  -30.6590   25.7000 C   0  0  0  0  0  3  0  0  0  0  0  0
  -26.2240  -32.1160   25.6340 N   0  0  0  0  0  0  0  0  0  0  0  0
  -27.0290  -32.7500   24.7710 C   0  0  0  0  0  0  0  0  0  0  0  0
  -27.7670  -32.1530   23.9830 O   0  0  0  0  0  0  0  0  0  0  0  0
  -25.6090  -32.6700   26.2130 H   0  0  0  0  0  0  0  0  0  0  0  0
  -26.0830  -34.8060   23.6740 C   0  0  0  0  0  1  0  0  0  0  0  0
  -27.0130  -34.2910   24.7840 C   0  0  0  0  0  3  0  0  0  0  0  0
  -29.2680  -34.5590   25.7180 C   0  0  0  0  0  1  0  0  0  0  0  0
  -28.3540  -34.8960   24.6290 N   0  0  0  0  0  0  0  0  0  0  0  0
  -28.2880  -35.9080   24.5720 H   0  0  0  0  0  0  0  0  0  0  0  0
  -25.9870  -30.1710   27.2000 C   0  0  1  0  0  0  0  0  0  0  0  0
  -24.7230  -30.6460   27.9530 C   0  0  0  0  0  1  0  0  0  0  0  0
  -26.0280  -28.6280   27.2750 C   0  0  0  0  0  1  0  0  0  0  0  0
  -27.2250  -30.6850   27.9730 C   0  0  0  0  0  1  0  0  0  0  0  0
  -32.3300  -19.5110   19.0440 N   0  0  0  0  0  0  0  0  0  0  0  0
  -31.4920  -19.1020   18.6350 H   0  0  0  0  0  0  0  0  0  0  0  0
  -33.5210  -18.7240   18.6070 C   0  0  0  0  0  2  0  0  0  0  0  0
  -33.6810  -18.5660   17.0450 C   0  0  0  0  0  3  0  0  0  0  0  0
  -35.0150  -16.3520   16.7980 C   0  0  0  0  0  0  0  0  0  0  0  0
  -36.9960  -15.3370   15.7090 C   0  0  0  0  0  2  0  0  0  0  0  0
  -37.9120  -16.4970   15.2590 C   0  0  0  0  0  2  0  0  0  0  0  0
  -37.4920  -17.0390   13.8770 C   0  0  0  0  0  2  0  0  0  0  0  0
  -35.9640  -17.2940   13.7690 C   0  0  0  0  0  3  0  0  0  0  0  0
  -35.1730  -16.0750   14.2950 C   0  0  0  0  0  2  0  0  0  0  0  0
  -35.6040  -15.8200   15.6850 N   0  0  0  0  0  0  0  0  0  0  0  0
  -35.4450  -16.1630   17.9390 O   0  0  0  0  0  0  0  0  0  0  0  0
  -34.0150  -17.2180   16.5230 N   0  0  0  0  0  0  0  0  0  0  0  0
  -33.6980  -17.1130   15.5730 H   0  0  0  0  0  0  0  0  0  0  0  0
  -34.8070  -18.7250   11.9670 C   0  0  0  0  0  0  0  0  0  0  0  0
  -34.7960  -18.6430   10.6010 C   0  0  0  0  0  0  0  0  0  0  0  0
  -35.5800  -17.4950   10.2680 C   0  0  0  0  0  0  0  0  0  0  0  0
  -35.5710  -17.6560   12.4070 N   0  0  0  0  0  0  0  0  0  0  0  0
  -35.9930  -16.8840   11.3730 N   0  0  0  0  0  0  0  0  0  0  0  0
  -36.0070  -16.9780    8.9640 C   0  0  0  0  0  0  0  0  0  0  0  0
  -35.7490  -15.6450    8.5780 C   0  0  0  0  0  3  0  0  0  0  0  0
  -36.1560  -15.1750    7.3110 C   0  0  0  0  0  3  0  0  0  0  0  0
  -36.8250  -16.0440    6.4150 C   0  0  0  0  0  0  0  0  0  0  0  0
  -37.0990  -17.3640    6.8110 C   0  0  0  0  0  3  0  0  0  0  0  0
  -36.6980  -17.8270    8.0760 C   0  0  0  0  0  3  0  0  0  0  0  0
  -37.2800  -15.6660    5.1740 O   0  0  0  0  0  0  0  0  0  0  0  0
  -36.6580  -14.6850    4.4460 C   0  0  0  0  0  0  0  0  0  0  0  0
  -35.2880  -14.7620    4.1120 C   0  0  0  0  0  3  0  0  0  0  0  0
  -34.7040  -13.7680    3.3020 C   0  0  0  0  0  3  0  0  0  0  0  0
  -35.4890  -12.7020    2.8170 C   0  0  0  0  0  0  0  0  0  0  0  0
  -36.8530  -12.6280    3.1440 C   0  0  0  0  0  3  0  0  0  0  0  0
  -37.4370  -13.6170    3.9540 C   0  0  0  0  0  0  0  0  0  0  0  0
  -38.7590  -13.5520    4.2480 F   0  0  0  0  0  0  0  0  0  0  0  0
  -34.9290  -11.7520    2.0340 F   0  0  0  0  0  0  0  0  0  0  0  0
  -34.1690  -19.6250    9.6530 C   0  0  0  0  0  0  0  0  0  0  0  0
  -33.7150  -19.1570    8.4970 N   0  0  0  0  0  0  0  0  0  0  0  0
  -34.0310  -20.8100    9.9540 O   0  0  0  0  0  0  0  0  0  0  0  0
  -33.8050  -18.1800    8.2610 H   0  0  0  0  0  0  0  0  0  0  0  0
  -33.2670  -19.7840    7.8430 H   0  0  0  0  0  0  0  0  0  0  0  0
  -34.2440  -19.6270   12.8660 N   0  0  0  0  0  0  0  0  0  0  0  0
  -33.6780  -20.4090   12.5570 H   0  0  0  0  0  0  0  0  0  0  0  0
  -34.2870  -19.5490   13.8730 H   0  0  0  0  0  0  0  0  0  0  0  0
  -31.5340  -18.2640   15.6570 C   0  0  0  0  0  3  0  0  0  0  0  0
  -32.2040  -20.5080   16.2720 C   0  0  0  0  0  3  0  0  0  0  0  0
  -30.0140  -20.1400   15.2190 C   0  0  0  0  0  0  0  0  0  0  0  0
  -32.4600  -19.1200   16.2870 C   0  0  0  0  0  0  0  0  0  0  0  0
  -30.3320  -18.7590   15.1150 C   0  0  0  0  0  0  0  0  0  0  0  0
  -30.9860  -21.0150   15.7740 C   0  0  0  0  0  0  0  0  0  0  0  0
  -29.3880  -17.7660   14.4560 C   0  0  0  0  0  1  0  0  0  0  0  0
  -30.7380  -22.5130   15.8820 C   0  0  0  0  0  1  0  0  0  0  0  0
  -27.7170  -21.3880   15.6540 C   0  0  0  0  0  2  0  0  0  0  0  0
  -27.3650  -20.0320   15.1000 C   0  0  0  0  0  2  0  0  0  0  0  0
  -28.6860  -20.6740   14.7300 C   0  0  0  0  0  3  0  0  0  0  0  0
  1  4  1  0
  2  5  2  0
  3  1  2  0
  3  2  1  0
  4  7  1  0
  4  9  1  0
  5  9  1  0
  5  8  1  0
  6  2  1  0
  9 10  1  0
 12 13  1  0
 12 11  1  0
 12  1  1  0
 13 15  1  0
 13 11  1  0
 15 14  1  0
 15 16  1  0
 17 19  1  0
 17 16  1  0
 18 29  2  0
 19 24  1  0
 20 30  1  0
 20 28  1  0
 21 27  1  0
 21 23  1  0
 22 28  1  0
 23 22  1  0
 24 23  2  0
 25 26  1  0
 25 19  2  0
 26 21  2  0
 27 20  1  0
 28 18  1  0
 30 32  2  0
 31 30  1  0
 33 31  1  0
 34 39  1  0
 35 31  1  0
 36 35  1  0
 37 36  1  0
 38 34  1  0
 38 37  1  0
 39 35  1  0
 40 39  2  0
 41 40  1  0
 42 41  2  0
 43 42  1  0
 43 34  2  0
 44 18  1  0
 44 54  1  0
 45 44  1  0
 45 48  1  0
 46 50  1  0
 46 45  1  0
 47 46  2  0
 50 49  1  0
 52 50  1  0
 52 51  1  0
 53 52  1  0
 54 56  1  6
 54 55  1  0
 54 57  1  0
 58  3  1  0
 59 58  1  0
 60 58  1  0
 61 60  1  0
 62 69  2  0
 64 63  1  0
 65 64  1  0
 66 75  1  0
 66 65  1  0
 66 67  1  0
 67 68  1  0
 68 63  1  0
 68 62  1  0
 70 62  1  0
 70 61  1  0
 71 70  1  0
 72 75  1  0
 72 97  1  0
 73 72  2  0
 74 73  1  0
 74 76  2  0
 76 75  1  0
 77 74  1  0
 78 77  1  0
 79 78  2  0
 80 81  2  0
 80 79  1  0
 81 82  1  0
 82 77  2  0
 83 80  1  0
 84 83  1  0
 85 84  1  0
 86 85  2  0
 87 88  2  0
 87 86  1  0
 88 89  1  0
 89 90  1  0
 89 84  2  0
 91 87  1  0
 92 94  2  0
 92 73  1  0
 93 92  1  0
 95 93  1  0
 96 93  1  0
 97 99  1  0
 98 97  1  0
100103  1  0
101103  2  0
102105  2  0
103 61  1  0
104102  1  0
104100  2  0
105107  1  0
105101  1  0
106104  1  0
109108  1  0
110109  1  0
110102  1  0
110108  1  0
M  ISO  4  16 101  17 101  62 100  70 100
M  END
>  <TORSDO>  (75) 
F 24

>  <SCORE>  (75) 
9.425

>  <name>  (75) 
74

>  <ligand_id>  (75) 
74

>  <original_smiles>  (75) 
[H]c1c([H])c([H])c2c(c1[H])C([H])([H])C([H])([H])C([H])([H])C2([H])N([H])C(=O)C1([H])N(C(=O)C([H])(N([H])C(=O)C([H])(N([H])C([H])([H])[H])C([H])([H])[H])C(C([H])([H])[H])(C([H])([H])[H])C([H])([H])[H])C([H])([H])c2c([H])c(OC([H])([H])C([H])(C([H])([H])[H])C3([H])C([H])([H])C3([H])c3c(N([H])C([H])([H])C([H])(c4c([H])c(C([H])([H])[H])c(C5([H])C([H])([H])C5([H])[H])c(C([H])([H])[H])c4[H])N([H])C(=O)N4C([H])([H])C([H])([H])C([H])([H])C([H])(n5nc(-c6c([H])c([H])c(Oc7c([H])c([H])c(F)c([H])c7F)c([H])c6[H])c(C(=O)N([H])[H])c5N([H])[H])C4([H])[H])c(C([H])([H])[H])c(C([H])([H])[H])[n+]([H])c3C([H])([H])[H])c([H])c([H])c2C1([H])[H]

>  <smiles>  (75) 
[H]c1c([H])c([H])c2c(c1[H])C([H])([H])C([H])([H])C([H])([H])C2([H])N([H])C(=O)C1([H])N(C(=O)C([H])(N([H])C(=O)C([H])(N([H])C([H])([H])[H])C([H])([H])[H])C(C([H])([H])[H])(C([H])([H])[H])C([H])([H])[H])C([H])([H])c2c([H])c(OC([H])([H])C([H])(C([H])([H])[H])C3([H])C([H])([H])C3([H])c3c(N([H])C([H])([H])C([H])(c4c([H])c(C([H])([H])[H])c(C5([H])C([H])([H])C5([H])[H])c(C([H])([H])[H])c4[H])N([H])C(=O)N4C([H])([H])C([H])([H])C([H])([H])C([H])(n5nc(-c6c([H])c([H])c(Oc7c([H])c([H])c(F)c([H])c7F)c([H])c6[H])c(C(=O)N([H])[H])c5N([H])[H])C4([H])[H])c(C([H])([H])[H])c(C([H])([H])[H])[n+]([H])c3C([H])([H])[H])c([H])c([H])c2C1([H])[H]

$$$$
75:0:0
     RDKit          3D

 98108  0  0  1  0  0  0  0  0999 V2000
  -29.3630  -21.4810   19.0280 C   0  0  0  0  0  2  0  0  0  0  0  0
  -30.1740  -20.1880   18.9930 C   0  0  0  0  0  2  0  0  0  0  0  0
  -29.9930  -22.2130   20.1920 C   0  0  0  0  0  3  0  0  0  0  0  0
  -30.2040  -21.0540   21.2080 C   0  0  0  0  0  3  0  0  0  0  0  0
  -31.1970  -21.4050   22.3280 C   0  0  0  0  0  1  0  0  0  0  0  0
  -30.6370  -19.8840   20.3800 N   0  0  1  0  0  4  0  0  0  0  0  0
  -31.6470  -19.8950   20.3650 H   0  0  0  0  0  0  0  0  0  0  0  0
  -27.8250  -24.9870   21.3670 C   0  0  0  0  0  0  0  0  0  0  0  0
  -28.5840  -25.6030   20.3200 C   0  0  0  0  0  0  0  0  0  0  0  0
  -28.1920  -23.6630   21.4170 C   0  0  0  0  0  0  0  0  0  0  0  0
  -29.4920  -24.6740   19.8870 C   0  0  0  0  0  0  0  0  0  0  0  0
  -26.7750  -25.6340   22.2430 C   0  0  0  0  0  1  0  0  0  0  0  0
  -27.5730  -22.5760   22.2450 C   0  0  0  0  0  1  0  0  0  0  0  0
  -30.5680  -24.8510   18.8550 C   0  0  0  0  0  1  0  0  0  0  0  0
  -29.2600  -23.4580   20.5370 N   0  0  0  0  0  0  0  0  0  0  0  0
  -28.5060  -26.8920   19.8180 O   0  0  0  0  0  0  0  0  0  0  0  0
  -24.6830  -31.8510   23.1630 C   0  0  0  0  0  0  0  0  0  0  0  0
  -27.3240  -27.6010   19.8420 C   0  0  0  0  0  0  0  0  0  0  0  0
  -23.4600  -30.5190   21.4720 C   0  0  0  0  0  3  0  0  0  0  0  0
  -24.9090  -29.0720   19.9460 C   0  0  0  0  0  0  0  0  0  0  0  0
  -25.9740  -30.9220   21.2470 C   0  0  0  0  0  2  0  0  0  0  0  0
  -26.0660  -29.5830   20.5440 C   0  0  0  0  0  0  0  0  0  0  0  0
  -27.2740  -28.8540   20.4940 C   0  0  0  0  0  3  0  0  0  0  0  0
  -26.1580  -27.1100   19.2160 C   0  0  0  0  0  3  0  0  0  0  0  0
  -24.9490  -27.8330   19.2770 C   0  0  0  0  0  3  0  0  0  0  0  0
  -23.6530  -29.9080   20.0560 C   0  0  0  0  0  2  0  0  0  0  0  0
  -24.7240  -31.1100   22.0200 N   0  0  0  0  0  0  0  0  0  0  0  0
  -23.6100  -32.0830   23.7350 O   0  0  0  0  0  0  0  0  0  0  0  0
  -22.8390  -29.4440   22.3930 C   0  0  0  0  0  0  0  0  0  0  0  0
  -21.5130  -29.2590   22.2840 N   0  0  0  0  0  0  0  0  0  0  0  0
  -23.5440  -28.7830   23.1590 O   0  0  0  0  0  0  0  0  0  0  0  0
  -21.0050  -29.8450   21.6370 H   0  0  0  0  0  0  0  0  0  0  0  0
  -18.1550  -28.0330   22.8000 C   0  0  0  0  0  0  0  0  0  0  0  0
  -20.7190  -28.2760   23.0200 C   0  0  0  0  0  3  0  0  0  0  0  0
  -20.8070  -26.8820   22.3570 C   0  0  0  0  0  2  0  0  0  0  0  0
  -19.6780  -26.6180   21.3560 C   0  0  0  0  0  2  0  0  0  0  0  0
  -18.3140  -26.7250   22.0430 C   0  0  0  0  0  2  0  0  0  0  0  0
  -19.2850  -28.7680   23.2450 C   0  0  0  0  0  0  0  0  0  0  0  0
  -19.0840  -29.9970   23.9140 C   0  0  0  0  0  3  0  0  0  0  0  0
  -17.7840  -30.4870   24.1420 C   0  0  0  0  0  3  0  0  0  0  0  0
  -16.6690  -29.7450   23.7150 C   0  0  0  0  0  3  0  0  0  0  0  0
  -16.8550  -28.5200   23.0500 C   0  0  0  0  0  3  0  0  0  0  0  0
  -25.9740  -32.4640   23.7920 C   0  0  0  0  0  3  0  0  0  0  0  0
  -25.6710  -33.8530   24.1600 N   0  0  0  0  0  0  0  0  0  0  0  0
  -25.9890  -34.9220   23.4180 C   0  0  0  0  0  0  0  0  0  0  0  0
  -26.6390  -34.8430   22.3720 O   0  0  0  0  0  0  0  0  0  0  0  0
  -25.0960  -33.9890   24.9790 H   0  0  0  0  0  0  0  0  0  0  0  0
  -24.2450  -36.7120   23.1450 C   0  0  0  0  0  1  0  0  0  0  0  0
  -25.5070  -36.2980   23.9180 C   0  0  0  0  0  3  0  0  0  0  0  0
  -27.6540  -37.1770   24.7200 C   0  0  0  0  0  1  0  0  0  0  0  0
  -26.5330  -37.3580   23.8020 N   0  0  0  0  0  0  0  0  0  0  0  0
  -26.1260  -38.2730   23.9760 H   0  0  0  0  0  0  0  0  0  0  0  0
  -26.5020  -31.6560   25.0390 C   0  0  1  0  0  0  0  0  0  0  0  0
  -25.4190  -31.3900   26.1110 C   0  0  0  0  0  1  0  0  0  0  0  0
  -27.0760  -30.2900   24.5980 C   0  0  0  0  0  1  0  0  0  0  0  0
  -27.6620  -32.4290   25.7110 C   0  0  0  0  0  1  0  0  0  0  0  0
  -30.2080  -18.5300   20.8700 C   0  0  0  0  0  2  0  0  0  0  0  0
  -31.0650  -14.8370   20.7190 C   0  0  0  0  0  0  0  0  0  0  0  0
  -30.8100  -12.5690   19.8210 C   0  0  0  0  0  2  0  0  0  0  0  0
  -29.9510  -12.5630   18.5410 C   0  0  0  0  0  2  0  0  0  0  0  0
  -28.4390  -12.5440   18.8680 C   0  0  0  0  0  2  0  0  0  0  0  0
  -28.0050  -13.4650   20.0460 C   0  0  0  0  0  3  0  0  0  0  0  0
  -29.0100  -13.4250   21.2180 C   0  0  0  0  0  2  0  0  0  0  0  0
  -30.3470  -13.6780   20.6650 N   0  0  0  0  0  0  0  0  0  0  0  0
  -32.2950  -14.8220   20.7420 O   0  0  0  0  0  0  0  0  0  0  0  0
  -30.7390  -16.8870   18.1420 C   0  0  0  0  0  2  0  0  0  0  0  0
  -31.8030  -17.4290   19.0810 C   0  0  0  0  0  2  0  0  0  0  0  0
  -29.7870  -16.1290   19.0720 C   0  0  0  0  0  2  0  0  0  0  0  0
  -31.1510  -17.3260   20.4740 C   0  0  0  0  0  3  0  0  0  0  0  0
  -30.4290  -16.0170   20.4010 N   0  0  0  0  0  0  0  0  0  0  0  0
  -25.5810  -14.1020   20.5970 C   0  0  0  0  0  0  0  0  0  0  0  0
  -24.4870  -13.3430   20.9010 C   0  0  0  0  0  0  0  0  0  0  0  0
  -24.9440  -11.9900   20.9380 C   0  0  0  0  0  0  0  0  0  0  0  0
  -26.6340  -13.2080   20.4640 N   0  0  0  0  0  0  0  0  0  0  0  0
  -26.2520  -11.9360   20.7340 N   0  0  0  0  0  0  0  0  0  0  0  0
  -24.2040  -10.7330   21.1000 C   0  0  0  0  0  0  0  0  0  0  0  0
  -24.5790   -9.7760   22.0680 C   0  0  0  0  0  3  0  0  0  0  0  0
  -23.8390   -8.5840   22.2170 C   0  0  0  0  0  3  0  0  0  0  0  0
  -22.7120   -8.3420   21.3960 C   0  0  0  0  0  0  0  0  0  0  0  0
  -22.3600   -9.2860   20.4150 C   0  0  0  0  0  3  0  0  0  0  0  0
  -23.1020  -10.4690   20.2650 C   0  0  0  0  0  3  0  0  0  0  0  0
  -21.9470   -7.2020   21.4540 O   0  0  0  0  0  0  0  0  0  0  0  0
  -21.8150   -6.4850   22.6160 C   0  0  0  0  0  0  0  0  0  0  0  0
  -21.2800   -7.0600   23.7890 C   0  0  0  0  0  3  0  0  0  0  0  0
  -21.0990   -6.2680   24.9420 C   0  0  0  0  0  3  0  0  0  0  0  0
  -21.4410   -4.9030   24.9190 C   0  0  0  0  0  0  0  0  0  0  0  0
  -21.9670   -4.3280   23.7490 C   0  0  0  0  0  3  0  0  0  0  0  0
  -22.1510   -5.1160   22.6000 C   0  0  0  0  0  0  0  0  0  0  0  0
  -22.6400   -4.5530   21.4700 F   0  0  0  0  0  0  0  0  0  0  0  0
  -21.2550   -4.1390   26.0210 F   0  0  0  0  0  0  0  0  0  0  0  0
  -23.0760  -13.8290   21.0590 C   0  0  0  0  0  0  0  0  0  0  0  0
  -22.2930  -13.1650   21.9010 N   0  0  0  0  0  0  0  0  0  0  0  0
  -22.6750  -14.8340   20.4730 O   0  0  0  0  0  0  0  0  0  0  0  0
  -22.6290  -12.3480   22.3920 H   0  0  0  0  0  0  0  0  0  0  0  0
  -21.3440  -13.4730   22.0540 H   0  0  0  0  0  0  0  0  0  0  0  0
  -25.7720  -15.4690   20.3980 N   0  0  0  0  0  0  0  0  0  0  0  0
  -25.0140  -16.1410   20.4370 H   0  0  0  0  0  0  0  0  0  0  0  0
  -26.6600  -15.8870   20.1580 H   0  0  0  0  0  0  0  0  0  0  0  0
  2  1  1  0
  2  6  1  0
  3  1  1  0
  3 15  1  0
  3  4  1  0
  4  5  1  0
  6 57  1  0
  6  4  1  0
  6  7  1  6
  8 10  2  0
  8 12  1  0
  9  8  1  0
 10 13  1  0
 11  9  2  0
 11 15  1  0
 14 11  1  0
 15 10  1  0
 16 18  1  0
 16  9  1  0
 17 28  2  0
 18 23  1  0
 19 27  1  0
 19 29  1  0
 20 26  1  0
 20 22  1  0
 21 27  1  0
 22 21  1  0
 23 22  2  0
 24 25  1  0
 24 18  2  0
 25 20  2  0
 26 19  1  0
 27 17  1  0
 29 31  2  0
 30 29  1  0
 32 30  1  0
 33 42  2  0
 33 38  1  0
 34 30  1  0
 34 38  1  0
 35 34  1  0
 36 37  1  0
 36 35  1  0
 37 33  1  0
 38 39  2  0
 39 40  1  0
 41 40  2  0
 42 41  1  0
 43 17  1  0
 43 44  1  0
 43 53  1  0
 44 47  1  0
 45 49  1  0
 45 44  1  0
 46 45  2  0
 49 48  1  0
 51 49  1  0
 51 52  1  0
 51 50  1  0
 53 56  1  1
 53 54  1  0
 55 53  1  0
 58 65  2  0
 59 64  1  0
 60 61  1  0
 60 59  1  0
 62 61  1  0
 62 74  1  0
 62 63  1  0
 64 58  1  0
 64 63  1  0
 66 68  1  0
 66 67  1  0
 67 69  1  0
 68 70  1  0
 69 57  1  0
 70 69  1  0
 70 58  1  0
 71 72  2  0
 72 73  1  0
 72 91  1  0
 73 76  1  0
 74 71  1  0
 74 75  1  0
 75 73  2  0
 76 77  1  0
 77 78  2  0
 79 82  1  0
 79 78  1  0
 80 79  2  0
 81 80  1  0
 81 76  2  0
 82 83  1  0
 83 84  1  0
 84 85  2  0
 86 85  1  0
 86 90  1  0
 87 86  2  0
 88 83  2  0
 88 87  1  0
 89 88  1  0
 91 92  1  0
 92 95  1  0
 92 94  1  0
 93 91  2  0
 96 97  1  0
 96 71  1  0
 98 96  1  0
M  ISO  4   9 101  16 101  58 100  70 100
M  END
>  <TORSDO>  (76) 
F 18

>  <SCORE>  (76) 
-13.978

>  <name>  (76) 
75

>  <ligand_id>  (76) 
75

>  <original_smiles>  (76) 
[H]c1c([H])c([H])c2c(c1[H])C([H])([H])C([H])([H])C([H])([H])C2([H])N([H])C(=O)C1([H])N(C(=O)C([H])(N([H])C(=O)C([H])(N([H])C([H])([H])[H])C([H])([H])[H])C(C([H])([H])[H])(C([H])([H])[H])C([H])([H])[H])C([H])([H])c2c([H])c(Oc3c(C([H])([H])[H])c(C([H])([H])[H])n(C4([H])C([H])([H])C([H])([H])[N+]([H])(C([H])([H])C5([H])N(C(=O)N6C([H])([H])C([H])([H])C([H])([H])C([H])(n7nc(-c8c([H])c([H])c(Oc9c([H])c([H])c(F)c([H])c9F)c([H])c8[H])c(C(=O)N([H])[H])c7N([H])[H])C6([H])[H])C([H])([H])C([H])([H])C5([H])[H])C4([H])C([H])([H])[H])c3C([H])([H])[H])c([H])c([H])c2C1([H])[H]

>  <smiles>  (76) 
[H]c1c([H])c([H])c2c(c1[H])C([H])([H])C([H])([H])C([H])([H])C2([H])N([H])C(=O)C1([H])N(C(=O)C([H])(N([H])C(=O)C([H])(N([H])C([H])([H])[H])C([H])([H])[H])C(C([H])([H])[H])(C([H])([H])[H])C([H])([H])[H])C([H])([H])c2c([H])c(Oc3c(C([H])([H])[H])c(C([H])([H])[H])n(C4([H])C([H])([H])C([H])([H])[N+]([H])(C([H])([H])C5([H])N(C(=O)N6C([H])([H])C([H])([H])C([H])([H])C([H])(n7nc(-c8c([H])c([H])c(Oc9c([H])c([H])c(F)c([H])c9F)c([H])c8[H])c(C(=O)N([H])[H])c7N([H])[H])C6([H])[H])C([H])([H])C([H])([H])C5([H])[H])C4([H])C([H])([H])[H])c3C([H])([H])[H])c([H])c([H])c2C1([H])[H]

$$$$
76:0:0
     RDKit          3D

 98109  0  0  1  0  0  0  0  0999 V2000
  -26.8250  -22.3830   21.4140 C   0  0  0  0  0  2  0  0  0  0  0  0
  -26.6900  -23.8080   21.9440 C   0  0  0  0  0  2  0  0  0  0  0  0
  -28.8820  -23.5590   21.0170 C   0  0  0  0  0  2  0  0  0  0  0  0
  -28.3350  -22.1940   21.4540 C   0  0  0  0  0  3  0  0  0  0  0  0
  -27.8620  -24.5580   21.4230 N   0  0  2  0  0  4  0  0  0  0  0  0
  -27.5560  -24.9820   20.5570 H   0  0  0  0  0  0  0  0  0  0  0  0
  -29.5700  -19.9020   21.1730 C   0  0  0  0  0  3  0  0  0  0  0  0
  -28.6530  -20.7730   19.3300 C   0  0  0  0  0  3  0  0  0  0  0  0
  -28.8450  -21.0160   20.6620 C   0  0  0  0  0  0  0  0  0  0  0  0
  -29.7250  -18.9850   20.1700 C   0  0  0  0  0  0  0  0  0  0  0  0
  -29.1760  -19.5340   19.0140 N   0  0  0  0  0  0  0  0  0  0  0  0
  -30.8820  -14.6310   20.4730 C   0  0  0  0  0  0  0  0  0  0  0  0
  -30.5880  -12.4830   19.3130 C   0  0  0  0  0  2  0  0  0  0  0  0
  -29.6330  -12.6940   18.1160 C   0  0  0  0  0  2  0  0  0  0  0  0
  -28.1630  -12.5460   18.5560 C   0  0  0  0  0  2  0  0  0  0  0  0
  -27.8270  -13.3830   19.8150 C   0  0  0  0  0  3  0  0  0  0  0  0
  -28.8880  -13.1560   20.9190 C   0  0  0  0  0  2  0  0  0  0  0  0
  -30.2140  -13.4550   20.3470 N   0  0  0  0  0  0  0  0  0  0  0  0
  -32.0310  -14.8140   20.0570 O   0  0  0  0  0  0  0  0  0  0  0  0
  -30.6750  -16.8990   21.5120 C   0  0  0  0  0  2  0  0  0  0  0  0
  -29.3270  -16.4470   20.0080 C   0  0  0  0  0  2  0  0  0  0  0  0
  -30.2920  -17.5990   20.2070 C   0  0  0  0  0  3  0  0  0  0  0  0
  -30.1410  -15.6520   20.9410 N   0  0  0  0  0  0  0  0  0  0  0  0
  -25.4320  -14.0090   20.5340 C   0  0  0  0  0  0  0  0  0  0  0  0
  -24.3590  -13.2400   20.8980 C   0  0  0  0  0  0  0  0  0  0  0  0
  -24.8160  -11.8880   20.8570 C   0  0  0  0  0  0  0  0  0  0  0  0
  -26.4740  -13.1210   20.2970 N   0  0  0  0  0  0  0  0  0  0  0  0
  -26.1050  -11.8410   20.5480 N   0  0  0  0  0  0  0  0  0  0  0  0
  -24.0850  -10.6270   21.0380 C   0  0  0  0  0  0  0  0  0  0  0  0
  -24.4840   -9.6770   22.0020 C   0  0  0  0  0  3  0  0  0  0  0  0
  -23.7580   -8.4780   22.1700 C   0  0  0  0  0  3  0  0  0  0  0  0
  -22.6190   -8.2210   21.3680 C   0  0  0  0  0  0  0  0  0  0  0  0
  -22.2390   -9.1610   20.3950 C   0  0  0  0  0  3  0  0  0  0  0  0
  -22.9670  -10.3510   20.2260 C   0  0  0  0  0  3  0  0  0  0  0  0
  -21.8660   -7.0740   21.4430 O   0  0  0  0  0  0  0  0  0  0  0  0
  -21.7340   -6.3770   22.6180 C   0  0  0  0  0  0  0  0  0  0  0  0
  -21.1590   -6.9600   23.7690 C   0  0  0  0  0  3  0  0  0  0  0  0
  -20.9760   -6.1860   24.9320 C   0  0  0  0  0  3  0  0  0  0  0  0
  -21.3600   -4.8310   24.9440 C   0  0  0  0  0  0  0  0  0  0  0  0
  -21.9280   -4.2480   23.7980 C   0  0  0  0  0  3  0  0  0  0  0  0
  -22.1130   -5.0200   22.6380 C   0  0  0  0  0  0  0  0  0  0  0  0
  -22.6410   -4.4500   21.5270 F   0  0  0  0  0  0  0  0  0  0  0  0
  -21.1780   -4.0840   26.0580 F   0  0  0  0  0  0  0  0  0  0  0  0
  -22.9650  -13.7210   21.1780 C   0  0  0  0  0  0  0  0  0  0  0  0
  -22.2370  -13.0140   22.0350 N   0  0  0  0  0  0  0  0  0  0  0  0
  -22.5290  -14.7550   20.6750 O   0  0  0  0  0  0  0  0  0  0  0  0
  -22.6020  -12.1760   22.4630 H   0  0  0  0  0  0  0  0  0  0  0  0
  -21.3020  -13.3150   22.2680 H   0  0  0  0  0  0  0  0  0  0  0  0
  -25.5970  -15.3790   20.3680 N   0  0  0  0  0  0  0  0  0  0  0  0
  -24.8270  -16.0320   20.4890 H   0  0  0  0  0  0  0  0  0  0  0  0
  -26.4530  -15.8230   20.0680 H   0  0  0  0  0  0  0  0  0  0  0  0
  -30.2870  -18.6000   16.9530 C   0  0  0  0  0  2  0  0  0  0  0  0
  -29.4010  -19.7470   16.5260 C   0  0  0  0  0  2  0  0  0  0  0  0
  -29.0150  -18.8900   17.7150 C   0  0  0  0  0  3  0  0  0  0  0  0
  -27.3070  -26.3870   23.1290 C   0  0  0  0  0  1  0  0  0  0  0  0
  -28.3790  -25.6940   22.2490 C   0  0  0  0  0  3  0  0  0  0  0  0
  -29.1300  -26.7070   21.3390 C   0  0  0  0  0  2  0  0  0  0  0  0
  -28.4490  -26.9190   20.0960 O   0  0  0  0  0  0  0  0  0  0  0  0
  -24.5920  -32.0040   23.2700 C   0  0  0  0  0  0  0  0  0  0  0  0
  -27.3030  -27.6770   20.1260 C   0  0  0  0  0  0  0  0  0  0  0  0
  -23.4000  -30.6030   21.6150 C   0  0  0  0  0  3  0  0  0  0  0  0
  -24.8750  -29.1090   20.1650 C   0  0  0  0  0  0  0  0  0  0  0  0
  -25.9090  -31.0190   21.4010 C   0  0  0  0  0  2  0  0  0  0  0  0
  -26.0200  -29.6550   20.7580 C   0  0  0  0  0  0  0  0  0  0  0  0
  -27.2380  -28.9430   20.7480 C   0  0  0  0  0  3  0  0  0  0  0  0
  -26.1520  -27.1480   19.5070 C   0  0  0  0  0  3  0  0  0  0  0  0
  -24.9320  -27.8530   19.5380 C   0  0  0  0  0  3  0  0  0  0  0  0
  -23.6100  -29.9360   20.2300 C   0  0  0  0  0  2  0  0  0  0  0  0
  -24.6520  -31.2230   22.1550 N   0  0  0  0  0  0  0  0  0  0  0  0
  -23.5120  -32.2530   23.8210 O   0  0  0  0  0  0  0  0  0  0  0  0
  -22.7750  -29.5600   22.5690 C   0  0  0  0  0  0  0  0  0  0  0  0
  -21.4570  -29.3430   22.4340 N   0  0  0  0  0  0  0  0  0  0  0  0
  -23.4720  -28.9440   23.3790 O   0  0  0  0  0  0  0  0  0  0  0  0
  -20.9550  -29.8950   21.7520 H   0  0  0  0  0  0  0  0  0  0  0  0
  -18.1100  -28.0650   22.8990 C   0  0  0  0  0  0  0  0  0  0  0  0
  -20.6580  -28.3780   23.1900 C   0  0  0  0  0  3  0  0  0  0  0  0
  -20.7980  -26.9550   22.5980 C   0  0  0  0  0  2  0  0  0  0  0  0
  -19.7110  -26.6160   21.5760 C   0  0  0  0  0  2  0  0  0  0  0  0
  -18.3200  -26.7250   22.2120 C   0  0  0  0  0  2  0  0  0  0  0  0
  -19.2090  -28.8460   23.3440 C   0  0  0  0  0  0  0  0  0  0  0  0
  -18.9590  -30.1030   23.9420 C   0  0  0  0  0  3  0  0  0  0  0  0
  -17.6430  -30.5740   24.1010 C   0  0  0  0  0  3  0  0  0  0  0  0
  -16.5580  -29.7870   23.6750 C   0  0  0  0  0  3  0  0  0  0  0  0
  -16.7940  -28.5370   23.0770 C   0  0  0  0  0  3  0  0  0  0  0  0
  -25.8730  -32.6440   23.8930 C   0  0  0  0  0  3  0  0  0  0  0  0
  -26.3900  -31.8830   25.1760 C   0  0  1  0  0  0  0  0  0  0  0  0
  -25.2920  -31.6370   26.2390 C   0  0  0  0  0  1  0  0  0  0  0  0
  -26.9860  -30.5100   24.7860 C   0  0  0  0  0  1  0  0  0  0  0  0
  -27.5310  -32.6900   25.8390 C   0  0  0  0  0  1  0  0  0  0  0  0
  -25.5580  -34.0440   24.2050 N   0  0  0  0  0  0  0  0  0  0  0  0
  -25.9160  -35.0900   23.4470 C   0  0  0  0  0  0  0  0  0  0  0  0
  -26.6200  -34.9780   22.4390 O   0  0  0  0  0  0  0  0  0  0  0  0
  -24.9390  -34.2040   24.9860 H   0  0  0  0  0  0  0  0  0  0  0  0
  -24.2230  -36.8930   23.0030 C   0  0  0  0  0  1  0  0  0  0  0  0
  -25.4170  -36.4820   23.8760 C   0  0  0  0  0  3  0  0  0  0  0  0
  -27.5120  -37.3550   24.8170 C   0  0  0  0  0  1  0  0  0  0  0  0
  -26.4640  -37.5260   23.8140 N   0  0  0  0  0  0  0  0  0  0  0  0
  -26.0600  -38.4510   23.9340 H   0  0  0  0  0  0  0  0  0  0  0  0
  1  4  1  0
  1  2  1  0
  3  5  1  0
  3  4  1  0
  4  9  1  0
  5  2  1  0
  5 56  1  0
  5  6  1  6
  8  9  2  0
  9  7  1  0
 10  7  2  0
 11  8  1  0
 11 10  1  0
 12 23  1  0
 13 18  1  0
 14 15  1  0
 14 13  1  0
 16 15  1  0
 16 27  1  0
 16 17  1  0
 18 12  1  0
 18 17  1  0
 19 12  2  0
 21 22  1  0
 21 23  1  0
 22 10  1  0
 22 20  1  0
 23 20  1  0
 24 25  2  0
 25 44  1  0
 26 25  1  0
 26 29  1  0
 27 24  1  0
 27 28  1  0
 28 26  2  0
 29 30  1  0
 30 31  2  0
 32 35  1  0
 32 31  1  0
 33 32  2  0
 34 33  1  0
 34 29  2  0
 35 36  1  0
 36 41  2  0
 36 37  1  0
 37 38  2  0
 38 39  1  0
 39 43  1  0
 40 39  2  0
 41 40  1  0
 42 41  1  0
 44 45  1  0
 45 48  1  0
 45 47  1  0
 46 44  2  0
 49 50  1  0
 49 24  1  0
 51 49  1  0
 52 54  1  0
 53 52  1  0
 53 54  1  0
 54 11  1  0
 56 55  1  0
 57 56  1  0
 58 60  1  0
 58 57  1  0
 59 70  2  0
 60 65  1  0
 61 69  1  0
 61 71  1  0
 62 68  1  0
 62 64  1  0
 63 69  1  0
 64 63  1  0
 65 64  2  0
 66 67  1  0
 66 60  2  0
 67 62  2  0
 68 61  1  0
 69 59  1  0
 71 73  2  0
 72 71  1  0
 74 72  1  0
 75 84  2  0
 75 80  1  0
 76 72  1  0
 76 80  1  0
 77 76  1  0
 78 79  1  0
 78 77  1  0
 79 75  1  0
 80 81  2  0
 81 82  1  0
 83 82  2  0
 84 83  1  0
 85 59  1  0
 85 90  1  0
 85 86  1  0
 86 89  1  1
 86 87  1  0
 88 86  1  0
 90 93  1  0
 91 95  1  0
 91 90  1  0
 92 91  2  0
 95 94  1  0
 97 95  1  0
 97 98  1  0
 97 96  1  0
M  ISO  4  12 100  23 100  57 101  58 101
M  END
>  <TORSDO>  (77) 
F 20

>  <SCORE>  (77) 
-14.021

>  <name>  (77) 
76

>  <ligand_id>  (77) 
76

>  <original_smiles>  (77) 
[H]c1c([H])c([H])c2c(c1[H])C([H])([H])C([H])([H])C([H])([H])C2([H])N([H])C(=O)C1([H])N(C(=O)C([H])(N([H])C(=O)C([H])(N([H])C([H])([H])[H])C([H])([H])[H])C(C([H])([H])[H])(C([H])([H])[H])C([H])([H])[H])C([H])([H])c2c([H])c(OC([H])([H])C([H])(C([H])([H])[H])[N+]3([H])C([H])([H])C([H])([H])C([H])(c4c([H])c(C5([H])C([H])([H])N(C(=O)N6C([H])([H])C([H])([H])C([H])([H])C([H])(n7nc(-c8c([H])c([H])c(Oc9c([H])c([H])c(F)c([H])c9F)c([H])c8[H])c(C(=O)N([H])[H])c7N([H])[H])C6([H])[H])C5([H])[H])n(C5([H])C([H])([H])C5([H])[H])c4[H])C3([H])[H])c([H])c([H])c2C1([H])[H]

>  <smiles>  (77) 
[H]c1c([H])c([H])c2c(c1[H])C([H])([H])C([H])([H])C([H])([H])C2([H])N([H])C(=O)C1([H])N(C(=O)C([H])(N([H])C(=O)C([H])(N([H])C([H])([H])[H])C([H])([H])[H])C(C([H])([H])[H])(C([H])([H])[H])C([H])([H])[H])C([H])([H])c2c([H])c(OC([H])([H])C([H])(C([H])([H])[H])[N+]3([H])C([H])([H])C([H])([H])C([H])(c4c([H])c(C5([H])C([H])([H])N(C(=O)N6C([H])([H])C([H])([H])C([H])([H])C([H])(n7nc(-c8c([H])c([H])c(Oc9c([H])c([H])c(F)c([H])c9F)c([H])c8[H])c(C(=O)N([H])[H])c7N([H])[H])C6([H])[H])C5([H])[H])n(C5([H])C([H])([H])C5([H])[H])c4[H])C3([H])[H])c([H])c([H])c2C1([H])[H]

$$$$
77:0:0
     RDKit          3D

 93102  0  0  1  0  0  0  0  0999 V2000
  -31.5630  -14.1020   20.6610 C   0  0  0  0  0  0  0  0  0  0  0  0
  -31.4000  -11.6280   21.0430 C   0  0  0  0  0  2  0  0  0  0  0  0
  -30.7600  -10.9410   19.8170 C   0  0  0  0  0  2  0  0  0  0  0  0
  -29.2240  -10.9400   19.9410 C   0  0  0  0  0  2  0  0  0  0  0  0
  -28.6570  -12.3250   20.3550 C   0  0  0  0  0  3  0  0  0  0  0  0
  -29.4440  -12.9440   21.5310 C   0  0  0  0  0  2  0  0  0  0  0  0
  -30.8480  -13.0060   21.1150 N   0  0  0  0  0  0  0  0  0  0  0  0
  -32.7950  -14.0120   20.6430 O   0  0  0  0  0  0  0  0  0  0  0  0
  -29.0680  -18.3540   19.1230 C   0  0  0  0  0  3  0  0  0  0  0  0
  -31.0690  -18.0220   17.2220 C   0  0  0  0  0  3  0  0  0  0  0  0
  -29.8970  -17.2140   19.2120 C   0  0  0  0  0  0  0  0  0  0  0  0
  -30.8920  -17.0530   18.2840 C   0  0  0  0  0  0  0  0  0  0  0  0
  -29.2200  -19.3470   18.0900 C   0  0  0  0  0  0  0  0  0  0  0  0
  -30.2430  -19.2120   17.0680 C   0  0  0  0  0  0  0  0  0  0  0  0
  -29.8710  -16.0400   20.2190 C   0  0  0  0  0  3  0  0  0  0  0  0
  -31.6300  -15.7370   18.6550 C   0  0  0  0  0  3  0  0  0  0  0  0
  -30.9540  -15.0790   19.8500 N   0  0  0  0  0  0  0  0  0  0  0  0
  -26.2950  -13.2910   20.5700 C   0  0  0  0  0  0  0  0  0  0  0  0
  -25.0810  -12.7100   20.8140 C   0  0  0  0  0  0  0  0  0  0  0  0
  -25.3420  -11.3180   21.0060 C   0  0  0  0  0  0  0  0  0  0  0  0
  -27.2250  -12.2680   20.6200 N   0  0  0  0  0  0  0  0  0  0  0  0
  -26.6480  -11.0820   20.9480 N   0  0  0  0  0  0  0  0  0  0  0  0
  -24.4180  -10.1900   21.1840 C   0  0  0  0  0  0  0  0  0  0  0  0
  -24.6310   -9.2090   22.1780 C   0  0  0  0  0  3  0  0  0  0  0  0
  -23.7170   -8.1460   22.3420 C   0  0  0  0  0  3  0  0  0  0  0  0
  -22.5740   -8.0570   21.5110 C   0  0  0  0  0  0  0  0  0  0  0  0
  -22.3800   -9.0240   20.5090 C   0  0  0  0  0  3  0  0  0  0  0  0
  -23.2930  -10.0780   20.3430 C   0  0  0  0  0  3  0  0  0  0  0  0
  -21.6460   -7.0470   21.5820 O   0  0  0  0  0  0  0  0  0  0  0  0
  -21.5720   -6.2120   22.6680 C   0  0  0  0  0  0  0  0  0  0  0  0
  -21.1210   -6.6640   23.9270 C   0  0  0  0  0  3  0  0  0  0  0  0
  -20.9960   -5.7560   24.9970 C   0  0  0  0  0  3  0  0  0  0  0  0
  -21.3100   -4.3970   24.8090 C   0  0  0  0  0  0  0  0  0  0  0  0
  -21.7540   -3.9440   23.5550 C   0  0  0  0  0  3  0  0  0  0  0  0
  -21.8810   -4.8490   22.4860 C   0  0  0  0  0  0  0  0  0  0  0  0
  -22.2890   -4.4020   21.2740 F   0  0  0  0  0  0  0  0  0  0  0  0
  -21.1820   -3.5230   25.8360 F   0  0  0  0  0  0  0  0  0  0  0  0
  -23.7430  -13.3880   20.7710 C   0  0  0  0  0  0  0  0  0  0  0  0
  -22.7990  -12.9320   21.5860 N   0  0  0  0  0  0  0  0  0  0  0  0
  -23.5440  -14.3600   20.0440 O   0  0  0  0  0  0  0  0  0  0  0  0
  -22.9700  -12.1470   22.1960 H   0  0  0  0  0  0  0  0  0  0  0  0
  -21.8920  -13.3770   21.6010 H   0  0  0  0  0  0  0  0  0  0  0  0
  -26.6820  -14.5980   20.2820 N   0  0  0  0  0  0  0  0  0  0  0  0
  -26.0060  -15.3450   20.1700 H   0  0  0  0  0  0  0  0  0  0  0  0
  -27.6220  -14.8730   20.0290 H   0  0  0  0  0  0  0  0  0  0  0  0
  -28.2200  -20.5090   18.1330 C   0  0  1  0  0  0  0  0  0  0  0  0
  -27.4430  -20.4690   19.2170 F   0  0  0  0  0  0  0  0  0  0  0  0
  -28.8440  -21.6850   18.1690 F   0  0  0  0  0  0  0  0  0  0  0  0
  -27.4040  -20.4530   17.0800 F   0  0  0  0  0  0  0  0  0  0  0  0
  -30.5010  -20.0730   15.9290 O   0  0  0  0  0  0  0  0  0  0  0  0
  -30.6480  -21.5770   15.8480 C   0  0  0  0  0  3  0  0  0  0  0  0
  -30.7210  -22.3230   14.3930 C   0  0  0  0  0  3  0  0  0  0  0  0
  -31.2190  -23.7350   14.1430 O   0  0  0  0  0  0  0  0  0  0  0  0
  -33.7470  -28.9230   18.5580 C   0  0  0  0  0  0  0  0  0  0  0  0
  -30.9280  -24.8720   14.9400 C   0  0  0  0  0  0  0  0  0  0  0  0
  -31.3200  -28.4820   18.6380 C   0  0  0  0  0  3  0  0  0  0  0  0
  -30.3670  -27.0690   16.7220 C   0  0  0  0  0  0  0  0  0  0  0  0
  -32.6350  -28.0760   16.4710 C   0  0  0  0  0  2  0  0  0  0  0  0
  -31.6220  -26.9870   16.1080 C   0  0  0  0  0  0  0  0  0  0  0  0
  -31.8970  -25.9020   15.2110 C   0  0  0  0  0  3  0  0  0  0  0  0
  -29.6690  -25.0310   15.5610 C   0  0  0  0  0  3  0  0  0  0  0  0
  -29.3900  -26.1020   16.4370 C   0  0  0  0  0  3  0  0  0  0  0  0
  -30.1210  -28.2130   17.6890 C   0  0  0  0  0  2  0  0  0  0  0  0
  -32.6270  -28.4900   17.9050 N   0  0  0  0  0  0  0  0  0  0  0  0
  -33.6940  -29.3320   19.7290 O   0  0  0  0  0  0  0  0  0  0  0  0
  -31.2790  -27.4660   19.8060 C   0  0  0  0  0  0  0  0  0  0  0  0
  -30.0870  -27.2610   20.3910 N   0  0  0  0  0  0  0  0  0  0  0  0
  -32.2990  -26.8650   20.1490 O   0  0  0  0  0  0  0  0  0  0  0  0
  -29.2980  -27.7990   20.0610 H   0  0  0  0  0  0  0  0  0  0  0  0
  -27.4430  -25.6650   22.2800 C   0  0  0  0  0  0  0  0  0  0  0  0
  -29.8130  -26.3150   21.4750 C   0  0  0  0  0  3  0  0  0  0  0  0
  -29.9340  -24.8550   20.9830 C   0  0  0  0  0  2  0  0  0  0  0  0
  -28.6000  -24.2610   20.5200 C   0  0  0  0  0  2  0  0  0  0  0  0
  -27.5780  -24.2840   21.6600 C   0  0  0  0  0  2  0  0  0  0  0  0
  -28.4870  -26.6230   22.1800 C   0  0  0  0  0  0  0  0  0  0  0  0
  -28.2960  -27.9030   22.7440 C   0  0  0  0  0  3  0  0  0  0  0  0
  -27.0940  -28.2290   23.4010 C   0  0  0  0  0  3  0  0  0  0  0  0
  -26.0710  -27.2710   23.5090 C   0  0  0  0  0  3  0  0  0  0  0  0
  -26.2480  -25.9920   22.9540 C   0  0  0  0  0  3  0  0  0  0  0  0
  -35.1410  -28.9470   17.8610 C   0  0  0  0  0  3  0  0  0  0  0  0
  -36.1120  -27.8140   18.3750 C   0  0  1  0  0  0  0  0  0  0  0  0
  -36.3100  -27.8110   19.9090 C   0  0  0  0  0  1  0  0  0  0  0  0
  -35.5910  -26.4170   17.9660 C   0  0  0  0  0  1  0  0  0  0  0  0
  -37.5020  -27.9750   17.7130 C   0  0  0  0  0  1  0  0  0  0  0  0
  -35.7320  -30.2750   18.0910 N   0  0  0  0  0  0  0  0  0  0  0  0
  -35.8220  -31.2410   17.1670 C   0  0  0  0  0  0  0  0  0  0  0  0
  -35.4720  -31.0790   15.9960 O   0  0  0  0  0  0  0  0  0  0  0  0
  -35.9900  -30.4950   19.0420 H   0  0  0  0  0  0  0  0  0  0  0  0
  -35.2500  -33.6170   17.7630 C   0  0  0  0  0  1  0  0  0  0  0  0
  -36.3940  -32.6010   17.6120 C   0  0  0  0  0  3  0  0  0  0  0  0
  -38.6480  -32.3490   16.6690 C   0  0  0  0  0  1  0  0  0  0  0  0
  -37.4190  -33.1390   16.6910 N   0  0  0  0  0  0  0  0  0  0  0  0
  -37.6600  -34.0950   16.9390 H   0  0  0  0  0  0  0  0  0  0  0  0
  1  7  1  0
  2  7  1  0
  3  4  1  0
  3  2  1  0
  5  4  1  0
  5 21  1  0
  5  6  1  0
  7  6  1  0
  8  1  2  0
  9 11  1  0
 10 12  1  0
 11 15  2  0
 12 16  2  0
 12 11  1  0
 13 46  1  0
 13  9  2  0
 14 10  2  0
 14 13  1  0
 16 17  1  0
 17 15  1  0
 17  1  1  0
 18 21  1  0
 18 19  2  0
 19 20  1  0
 20 23  1  0
 21 22  1  0
 22 20  2  0
 23 24  1  0
 24 25  2  0
 26 29  1  0
 26 25  1  0
 27 26  2  0
 28 27  1  0
 28 23  2  0
 29 30  1  0
 30 31  1  0
 31 32  2  0
 33 32  1  0
 33 37  1  0
 34 33  2  0
 35 30  2  0
 35 34  1  0
 36 35  1  0
 38 19  1  0
 38 39  1  0
 39 42  1  0
 39 41  1  0
 40 38  2  0
 43 18  1  0
 44 43  1  0
 45 43  1  0
 46 48  1  6
 46 47  1  0
 49 46  1  0
 50 14  1  0
 51 50  1  0
 52 51  2  0
 53 52  1  0
 53 55  1  0
 54 65  2  0
 55 60  2  0
 55 61  1  0
 56 66  1  0
 57 63  1  0
 58 64  1  0
 59 58  1  0
 59 57  2  0
 60 59  1  0
 61 62  2  0
 62 57  1  0
 63 56  1  0
 64 54  1  0
 64 56  1  0
 66 68  2  0
 66 67  1  0
 69 67  1  0
 70 79  1  0
 71 67  1  0
 71 75  1  0
 72 71  1  0
 73 72  1  0
 73 74  1  0
 74 70  1  0
 75 70  2  0
 75 76  1  0
 76 77  2  0
 77 78  1  0
 79 78  2  0
 80 85  1  0
 80 81  1  0
 80 54  1  0
 81 82  1  1
 83 81  1  0
 84 81  1  0
 85 88  1  0
 86 90  1  0
 86 85  1  0
 87 86  2  0
 90 89  1  0
 91 92  1  0
 92 93  1  0
 92 90  1  0
M  ISO  4   1 100  17 100  52 101  53 101
M  END
>  <TORSDO>  (78) 
F 19

>  <SCORE>  (78) 
-8.080

>  <name>  (78) 
77

>  <ligand_id>  (78) 
77

>  <original_smiles>  (78) 
[H]c1c([H])c([H])c2c(c1[H])C([H])([H])C([H])([H])C([H])([H])C2([H])N([H])C(=O)C1([H])N(C(=O)C([H])(N([H])C(=O)C([H])(N([H])C([H])([H])[H])C([H])([H])[H])C(C([H])([H])[H])(C([H])([H])[H])C([H])([H])[H])C([H])([H])c2c([H])c(OC([H])([H])C([H])([H])Oc3c([H])c4c(c([H])c3C(F)(F)F)C([H])([H])N(C(=O)N3C([H])([H])C([H])([H])C([H])([H])C([H])(n5nc(-c6c([H])c([H])c(Oc7c([H])c([H])c(F)c([H])c7F)c([H])c6[H])c(C(=O)N([H])[H])c5N([H])[H])C3([H])[H])C4([H])[H])c([H])c([H])c2C1([H])[H]

>  <smiles>  (78) 
[H]c1c([H])c([H])c2c(c1[H])C([H])([H])C([H])([H])C([H])([H])C2([H])N([H])C(=O)C1([H])N(C(=O)C([H])(N([H])C(=O)C([H])(N([H])C([H])([H])[H])C([H])([H])[H])C(C([H])([H])[H])(C([H])([H])[H])C([H])([H])[H])C([H])([H])c2c([H])c(OC([H])([H])C([H])([H])Oc3c([H])c4c(c([H])c3C(F)(F)F)C([H])([H])N(C(=O)N3C([H])([H])C([H])([H])C([H])([H])C([H])(n5nc(-c6c([H])c([H])c(Oc7c([H])c([H])c(F)c([H])c7F)c([H])c6[H])c(C(=O)N([H])[H])c5N([H])[H])C3([H])[H])C4([H])[H])c([H])c([H])c2C1([H])[H]

$$$$
78:0:0
     RDKit          3D

 96106  0  0  1  0  0  0  0  0999 V2000
  -28.0230  -20.5470   19.1010 C   0  0  0  0  0  0  0  0  0  0  0  0
  -27.6980  -21.9400   19.2310 C   0  0  0  0  0  0  0  0  0  0  0  0
  -29.1190  -20.2730   19.8800 C   0  0  0  0  0  0  0  0  0  0  0  0
  -28.6060  -22.5390   20.0730 C   0  0  0  0  0  0  0  0  0  0  0  0
  -27.2570  -19.5540   18.2620 C   0  0  0  0  0  1  0  0  0  0  0  0
  -26.5190  -22.6090   18.5710 C   0  0  0  0  0  1  0  0  0  0  0  0
  -29.5230  -21.5170   20.4220 N   0  0  0  0  0  0  0  0  0  0  0  0
  -30.7240  -14.6620   19.9850 C   0  0  0  0  0  0  0  0  0  0  0  0
  -30.3810  -12.4400   18.9400 C   0  0  0  0  0  2  0  0  0  0  0  0
  -29.3710  -12.5750   17.7820 C   0  0  0  0  0  2  0  0  0  0  0  0
  -27.9320  -12.4010   18.3060 C   0  0  0  0  0  2  0  0  0  0  0  0
  -27.6500  -13.2570   19.5680 C   0  0  0  0  0  3  0  0  0  0  0  0
  -28.7810  -13.1160   20.6110 C   0  0  0  0  0  2  0  0  0  0  0  0
  -30.0350  -13.4750   19.9350 N   0  0  0  0  0  0  0  0  0  0  0  0
  -31.9090  -14.6890   19.6420 O   0  0  0  0  0  0  0  0  0  0  0  0
  -28.9960  -17.9100   21.0470 C   0  0  0  0  0  2  0  0  0  0  0  0
  -30.4700  -18.2150   18.9260 C   0  0  0  0  0  2  0  0  0  0  0  0
  -28.9270  -16.3840   20.6930 C   0  0  0  0  0  2  0  0  0  0  0  0
  -30.1650  -16.7080   18.6540 C   0  0  0  0  0  2  0  0  0  0  0  0
  -29.8020  -18.9000   20.1530 C   0  0  0  0  0  3  0  0  0  0  0  0
  -30.0020  -15.8380   19.8430 N   0  0  0  0  0  0  0  0  0  0  0  0
  -25.3160  -13.8540   20.4610 C   0  0  0  0  0  0  0  0  0  0  0  0
  -24.2690  -13.0820   20.8730 C   0  0  0  0  0  0  0  0  0  0  0  0
  -24.7150  -11.7280   20.7770 C   0  0  0  0  0  0  0  0  0  0  0  0
  -26.3370  -12.9750   20.1350 N   0  0  0  0  0  0  0  0  0  0  0  0
  -25.9840  -11.6880   20.3900 N   0  0  0  0  0  0  0  0  0  0  0  0
  -23.9910  -10.4680   20.9740 C   0  0  0  0  0  0  0  0  0  0  0  0
  -24.4490   -9.4930   21.8880 C   0  0  0  0  0  3  0  0  0  0  0  0
  -23.7280   -8.2940   22.0730 C   0  0  0  0  0  3  0  0  0  0  0  0
  -22.5360   -8.0630   21.3470 C   0  0  0  0  0  0  0  0  0  0  0  0
  -22.0950   -9.0280   20.4250 C   0  0  0  0  0  3  0  0  0  0  0  0
  -22.8140  -10.2180   20.2370 C   0  0  0  0  0  3  0  0  0  0  0  0
  -21.7810   -6.9190   21.4460 O   0  0  0  0  0  0  0  0  0  0  0  0
  -21.7250   -6.1920   22.6080 C   0  0  0  0  0  0  0  0  0  0  0  0
  -21.2640   -6.7560   23.8170 C   0  0  0  0  0  3  0  0  0  0  0  0
  -21.1560   -5.9550   24.9710 C   0  0  0  0  0  3  0  0  0  0  0  0
  -21.4980   -4.5910   24.9190 C   0  0  0  0  0  0  0  0  0  0  0  0
  -21.9510   -4.0250   23.7130 C   0  0  0  0  0  3  0  0  0  0  0  0
  -22.0610   -4.8230   22.5610 C   0  0  0  0  0  0  0  0  0  0  0  0
  -22.4800   -4.2700   21.3970 F   0  0  0  0  0  0  0  0  0  0  0  0
  -21.3850   -3.8190   26.0240 F   0  0  0  0  0  0  0  0  0  0  0  0
  -22.8950  -13.5610   21.2430 C   0  0  0  0  0  0  0  0  0  0  0  0
  -22.2190  -12.8500   22.1360 N   0  0  0  0  0  0  0  0  0  0  0  0
  -22.4340  -14.6020   20.7730 O   0  0  0  0  0  0  0  0  0  0  0  0
  -22.6070  -12.0090   22.5360 H   0  0  0  0  0  0  0  0  0  0  0  0
  -21.2970  -13.1450   22.4240 H   0  0  0  0  0  0  0  0  0  0  0  0
  -25.4730  -15.2300   20.3140 N   0  0  0  0  0  0  0  0  0  0  0  0
  -24.7110  -15.8720   20.5060 H   0  0  0  0  0  0  0  0  0  0  0  0
  -26.2940  -15.6830   19.9380 H   0  0  0  0  0  0  0  0  0  0  0  0
  -31.6960  -22.7050   20.7700 C   0  0  0  0  0  2  0  0  0  0  0  0
  -32.0100  -21.2350   20.7800 C   0  0  0  0  0  2  0  0  0  0  0  0
  -30.6700  -21.7210   21.3050 C   0  0  0  0  0  3  0  0  0  0  0  0
  -27.5530  -24.1410   21.7530 C   0  0  0  0  0  1  0  0  0  0  0  0
  -28.6240  -23.9880   20.6610 C   0  0  0  0  0  3  0  0  0  0  0  0
  -28.5690  -25.2100   19.6520 C   0  0  0  0  0  2  0  0  0  0  0  0
  -28.4740  -26.5760   20.2020 O   0  0  0  0  0  0  0  0  0  0  0  0
  -24.5970  -31.8430   23.1800 C   0  0  0  0  0  0  0  0  0  0  0  0
  -27.2990  -27.3360   20.1470 C   0  0  0  0  0  0  0  0  0  0  0  0
  -23.4290  -30.4460   21.5140 C   0  0  0  0  0  3  0  0  0  0  0  0
  -24.9060  -28.9050   20.1160 C   0  0  0  0  0  0  0  0  0  0  0  0
  -25.9680  -30.7880   21.3670 C   0  0  0  0  0  2  0  0  0  0  0  0
  -26.0640  -29.4140   20.7170 C   0  0  0  0  0  0  0  0  0  0  0  0
  -27.2590  -28.6420   20.7220 C   0  0  0  0  0  3  0  0  0  0  0  0
  -26.1040  -26.8570   19.5580 C   0  0  0  0  0  3  0  0  0  0  0  0
  -24.9250  -27.6280   19.5360 C   0  0  0  0  0  3  0  0  0  0  0  0
  -23.6690  -29.7760   20.1370 C   0  0  0  0  0  2  0  0  0  0  0  0
  -24.6840  -31.0390   22.0800 N   0  0  0  0  0  0  0  0  0  0  0  0
  -23.5030  -32.1050   23.7000 O   0  0  0  0  0  0  0  0  0  0  0  0
  -22.7610  -29.4180   22.4550 C   0  0  0  0  0  0  0  0  0  0  0  0
  -21.4330  -29.2560   22.3310 N   0  0  0  0  0  0  0  0  0  0  0  0
  -23.4350  -28.7670   23.2580 O   0  0  0  0  0  0  0  0  0  0  0  0
  -20.9450  -29.8310   21.6600 H   0  0  0  0  0  0  0  0  0  0  0  0
  -18.0450  -28.1250   22.8710 C   0  0  0  0  0  0  0  0  0  0  0  0
  -20.6120  -28.3160   23.0930 C   0  0  0  0  0  3  0  0  0  0  0  0
  -20.6680  -26.9010   22.4730 C   0  0  0  0  0  2  0  0  0  0  0  0
  -19.5390  -26.6330   21.4730 C   0  0  0  0  0  2  0  0  0  0  0  0
  -18.1740  -26.7930   22.1500 C   0  0  0  0  0  2  0  0  0  0  0  0
  -19.1890  -28.8480   23.3000 C   0  0  0  0  0  0  0  0  0  0  0  0
  -19.0120  -30.0950   23.9360 C   0  0  0  0  0  3  0  0  0  0  0  0
  -17.7250  -30.6230   24.1420 C   0  0  0  0  0  3  0  0  0  0  0  0
  -16.5950  -29.8990   23.7280 C   0  0  0  0  0  3  0  0  0  0  0  0
  -16.7550  -28.6500   23.1020 C   0  0  0  0  0  3  0  0  0  0  0  0
  -25.8630  -32.4880   23.8240 C   0  0  0  0  0  3  0  0  0  0  0  0
  -26.3710  -31.7130   25.1000 C   0  0  1  0  0  0  0  0  0  0  0  0
  -25.2660  -31.4510   26.1510 C   0  0  0  0  0  1  0  0  0  0  0  0
  -26.9820  -30.3500   24.7040 C   0  0  0  0  0  1  0  0  0  0  0  0
  -27.5010  -32.5170   25.7860 C   0  0  0  0  0  1  0  0  0  0  0  0
  -25.5310  -33.8780   24.1700 N   0  0  0  0  0  0  0  0  0  0  0  0
  -25.8350  -34.9430   23.4160 C   0  0  0  0  0  0  0  0  0  0  0  0
  -26.5000  -34.8590   22.3790 O   0  0  0  0  0  0  0  0  0  0  0  0
  -24.9510  -34.0140   24.9860 H   0  0  0  0  0  0  0  0  0  0  0  0
  -24.0750  -36.7060   23.0760 C   0  0  0  0  0  1  0  0  0  0  0  0
  -25.3250  -36.3200   23.8860 C   0  0  0  0  0  3  0  0  0  0  0  0
  -27.4470  -37.2390   24.7180 C   0  0  0  0  0  1  0  0  0  0  0  0
  -26.3410  -37.3920   23.7770 N   0  0  0  0  0  0  0  0  0  0  0  0
  -25.9200  -38.3060   23.9230 H   0  0  0  0  0  0  0  0  0  0  0  0
  1  2  1  0
  1  3  2  0
  2  4  2  0
  3  7  1  0
  4  7  1  0
  4 54  1  0
  5  1  1  0
  6  2  1  0
  7 52  1  0
  9 14  1  0
 10 11  1  0
 10  9  1  0
 12 11  1  0
 12 25  1  0
 12 13  1  0
 14  8  1  0
 14 13  1  0
 15  8  2  0
 17 20  1  0
 18 16  1  0
 19 17  1  0
 19 21  1  0
 20  3  1  0
 20 16  1  0
 21  8  1  0
 21 18  1  0
 22 23  2  0
 23 42  1  0
 24 23  1  0
 24 27  1  0
 25 26  1  0
 25 22  1  0
 26 24  2  0
 27 28  1  0
 28 29  2  0
 30 33  1  0
 30 29  1  0
 31 30  2  0
 32 31  1  0
 32 27  2  0
 33 34  1  0
 34 35  1  0
 35 36  2  0
 37 36  1  0
 37 41  1  0
 38 37  2  0
 39 34  2  0
 39 38  1  0
 40 39  1  0
 42 43  1  0
 43 46  1  0
 43 45  1  0
 44 42  2  0
 47 22  1  0
 47 48  1  0
 49 47  1  0
 50 51  1  0
 50 52  1  0
 51 52  1  0
 54 53  1  0
 55 56  1  0
 55 54  1  0
 57 68  2  0
 58 56  1  0
 58 63  1  0
 59 67  1  0
 59 69  1  0
 60 66  1  0
 60 62  1  0
 61 67  1  0
 62 63  2  0
 62 61  1  0
 64 58  2  0
 65 64  1  0
 65 60  2  0
 66 59  1  0
 67 57  1  0
 69 71  2  0
 70 69  1  0
 72 70  1  0
 73 82  2  0
 73 78  1  0
 74 70  1  0
 74 78  1  0
 75 74  1  0
 76 77  1  0
 76 75  1  0
 77 73  1  0
 78 79  2  0
 79 80  1  0
 81 80  2  0
 82 81  1  0
 83 57  1  0
 83 88  1  0
 83 84  1  0
 84 87  1  1
 84 85  1  0
 86 84  1  0
 88 91  1  0
 89 93  1  0
 89 88  1  0
 90 89  2  0
 93 92  1  0
 95 93  1  0
 95 96  1  0
 95 94  1  0
M  ISO  4   8 100  21 100  55 101  56 101
M  END
>  <TORSDO>  (79) 
F 19

>  <SCORE>  (79) 
-14.370

>  <name>  (79) 
78

>  <ligand_id>  (79) 
78

>  <original_smiles>  (79) 
[H]c1c([H])c([H])c2c(c1[H])C([H])([H])C([H])([H])C([H])([H])C2([H])N([H])C(=O)C1([H])N(C(=O)C([H])(N([H])C(=O)C([H])(N([H])C([H])([H])[H])C([H])([H])[H])C(C([H])([H])[H])(C([H])([H])[H])C([H])([H])[H])C([H])([H])c2c([H])c(OC([H])([H])C([H])(c3c(C([H])([H])[H])c(C([H])([H])[H])c(C4([H])C([H])([H])C([H])([H])N(C(=O)N5C([H])([H])C([H])([H])C([H])([H])C([H])(n6nc(-c7c([H])c([H])c(Oc8c([H])c([H])c(F)c([H])c8F)c([H])c7[H])c(C(=O)N([H])[H])c6N([H])[H])C5([H])[H])C([H])([H])C4([H])[H])n3C3([H])C([H])([H])C3([H])[H])C([H])([H])[H])c([H])c([H])c2C1([H])[H]

>  <smiles>  (79) 
[H]c1c([H])c([H])c2c(c1[H])C([H])([H])C([H])([H])C([H])([H])C2([H])N([H])C(=O)C1([H])N(C(=O)C([H])(N([H])C(=O)C([H])(N([H])C([H])([H])[H])C([H])([H])[H])C(C([H])([H])[H])(C([H])([H])[H])C([H])([H])[H])C([H])([H])c2c([H])c(OC([H])([H])C([H])(c3c(C([H])([H])[H])c(C([H])([H])[H])c(C4([H])C([H])([H])C([H])([H])N(C(=O)N5C([H])([H])C([H])([H])C([H])([H])C([H])(n6nc(-c7c([H])c([H])c(Oc8c([H])c([H])c(F)c([H])c8F)c([H])c7[H])c(C(=O)N([H])[H])c6N([H])[H])C5([H])[H])C([H])([H])C4([H])[H])n3C3([H])C([H])([H])C3([H])[H])C([H])([H])[H])c([H])c([H])c2C1([H])[H]

$$$$
79:0:0
     RDKit          3D

 99108  0  0  1  0  0  0  0  0999 V2000
  -31.2160  -19.4590   23.2380 C   0  0  0  0  0  3  0  0  0  0  0  0
  -31.5400  -19.7830   20.4890 C   0  0  0  0  0  3  0  0  0  0  0  0
  -31.4990  -18.3200   22.4490 C   0  0  0  0  0  0  0  0  0  0  0  0
  -31.6210  -18.4830   21.0440 C   0  0  0  0  0  0  0  0  0  0  0  0
  -31.3720  -20.9310   21.2960 C   0  0  0  0  0  0  0  0  0  0  0  0
  -31.1580  -20.7650   22.6860 C   0  0  0  0  0  0  0  0  0  0  0  0
  -30.8080  -15.8400   23.0470 C   0  0  0  0  0  2  0  0  0  0  0  0
  -31.0690  -16.5140   24.3700 C   0  0  0  0  0  2  0  0  0  0  0  0
  -31.7800  -16.9950   23.1180 C   0  0  0  0  0  3  0  0  0  0  0  0
  -32.9260  -22.3830   19.9210 C   0  0  0  0  0  1  0  0  0  0  0  0
  -31.5950  -22.3370   20.7030 C   0  0  0  0  0  3  0  0  0  0  0  0
  -30.4080  -22.8750   19.8650 C   0  0  0  0  0  2  0  0  0  0  0  0
  -30.5480  -24.3280   19.5750 N   0  0  0  0  0  4  0  0  0  0  0  0
  -30.5730  -24.8420   20.4410 H   0  0  0  0  0  0  0  0  0  0  0  0
  -31.4420  -24.4580   19.1270 H   0  0  0  0  0  0  0  0  0  0  0  0
  -29.4930  -24.9080   18.7040 C   0  0  0  0  0  2  0  0  0  0  0  0
  -29.7770  -26.3790   18.3160 C   0  0  0  0  0  2  0  0  0  0  0  0
  -29.4310  -27.3220   19.3360 O   0  0  0  0  0  0  0  0  0  0  0  0
  -24.6860  -30.8380   23.3000 C   0  0  0  0  0  0  0  0  0  0  0  0
  -28.1420  -27.8200   19.3960 C   0  0  0  0  0  0  0  0  0  0  0  0
  -23.7930  -29.7780   21.2520 C   0  0  0  0  0  3  0  0  0  0  0  0
  -25.5350  -28.9110   19.6010 C   0  0  0  0  0  0  0  0  0  0  0  0
  -26.2370  -30.5270   21.3730 C   0  0  0  0  0  2  0  0  0  0  0  0
  -26.5650  -29.4060   20.4090 C   0  0  0  0  0  0  0  0  0  0  0  0
  -27.8650  -28.8570   20.3180 C   0  0  0  0  0  3  0  0  0  0  0  0
  -27.0870  -27.3390   18.5830 C   0  0  0  0  0  3  0  0  0  0  0  0
  -25.7920  -27.8750   18.6880 C   0  0  0  0  0  3  0  0  0  0  0  0
  -24.1680  -29.5380   19.7630 C   0  0  0  0  0  2  0  0  0  0  0  0
  -24.9170  -30.3850   22.0350 N   0  0  0  0  0  0  0  0  0  0  0  0
  -23.5540  -30.7950   23.8000 O   0  0  0  0  0  0  0  0  0  0  0  0
  -23.2730  -28.4500   21.8500 C   0  0  0  0  0  0  0  0  0  0  0  0
  -22.0600  -28.0440   21.4380 N   0  0  0  0  0  0  0  0  0  0  0  0
  -23.9630  -27.8000   22.6370 O   0  0  0  0  0  0  0  0  0  0  0  0
  -21.5570  -28.6390   20.7950 H   0  0  0  0  0  0  0  0  0  0  0  0
  -19.0830  -26.0650   20.9140 C   0  0  0  0  0  0  0  0  0  0  0  0
  -21.3820  -26.8090   21.8330 C   0  0  0  0  0  3  0  0  0  0  0  0
  -21.9660  -25.5880   21.0830 C   0  0  0  0  0  2  0  0  0  0  0  0
  -21.2050  -25.2530   19.7960 C   0  0  0  0  0  2  0  0  0  0  0  0
  -19.7320  -24.9560   20.1020 C   0  0  0  0  0  2  0  0  0  0  0  0
  -19.8600  -26.9450   21.7130 C   0  0  0  0  0  0  0  0  0  0  0  0
  -19.2120  -27.9840   22.4160 C   0  0  0  0  0  3  0  0  0  0  0  0
  -17.8150  -28.1410   22.3390 C   0  0  0  0  0  3  0  0  0  0  0  0
  -17.0470  -27.2560   21.5620 C   0  0  0  0  0  3  0  0  0  0  0  0
  -17.6820  -26.2200   20.8530 C   0  0  0  0  0  3  0  0  0  0  0  0
  -25.8260  -31.4500   24.1700 C   0  0  0  0  0  3  0  0  0  0  0  0
  -25.3910  -32.7880   24.5920 N   0  0  0  0  0  0  0  0  0  0  0  0
  -25.8080  -33.9330   24.0370 C   0  0  0  0  0  0  0  0  0  0  0  0
  -26.6640  -33.9750   23.1490 O   0  0  0  0  0  0  0  0  0  0  0  0
  -24.6540  -32.8220   25.2800 H   0  0  0  0  0  0  0  0  0  0  0  0
  -24.0970  -35.7110   23.5530 C   0  0  0  0  0  1  0  0  0  0  0  0
  -25.1720  -35.2430   24.5470 C   0  0  0  0  0  3  0  0  0  0  0  0
  -27.0630  -36.0580   25.8840 C   0  0  0  0  0  1  0  0  0  0  0  0
  -26.1540  -36.3250   24.7700 N   0  0  0  0  0  0  0  0  0  0  0  0
  -25.6860  -37.2100   24.9490 H   0  0  0  0  0  0  0  0  0  0  0  0
  -26.1960  -30.5630   25.4180 C   0  0  1  0  0  0  0  0  0  0  0  0
  -24.9760  -30.1340   26.2660 C   0  0  0  0  0  1  0  0  0  0  0  0
  -26.9370  -29.2810   24.9720 C   0  0  0  0  0  1  0  0  0  0  0  0
  -27.1610  -31.3410   26.3430 C   0  0  0  0  0  1  0  0  0  0  0  0
  -31.1590  -21.8120   24.8630 C   0  0  0  0  0  1  0  0  0  0  0  0
  -30.9530  -21.8940   23.4550 O   0  0  0  0  0  0  0  0  0  0  0  0
  -32.0160  -17.3480   20.0930 C   0  0  0  0  0  2  0  0  0  0  0  0
  -31.9840  -14.9180   19.7440 C   0  0  0  0  0  0  0  0  0  0  0  0
  -31.5500  -12.6440   18.9080 C   0  0  0  0  0  2  0  0  0  0  0  0
  -30.5250  -12.7060   17.7590 C   0  0  0  0  0  2  0  0  0  0  0  0
  -29.0870  -12.6500   18.3080 C   0  0  0  0  0  2  0  0  0  0  0  0
  -28.8520  -13.6470   19.4760 C   0  0  0  0  0  3  0  0  0  0  0  0
  -29.9890  -13.5690   20.5190 C   0  0  0  0  0  2  0  0  0  0  0  0
  -31.2690  -13.7630   19.8210 N   0  0  0  0  0  0  0  0  0  0  0  0
  -33.0290  -15.0080   19.0950 O   0  0  0  0  0  0  0  0  0  0  0  0
  -31.4460  -16.0120   20.3120 N   0  0  0  0  0  0  0  0  0  0  0  0
  -30.5750  -15.9320   20.8150 H   0  0  0  0  0  0  0  0  0  0  0  0
  -26.6180  -14.3980   20.5070 C   0  0  0  0  0  0  0  0  0  0  0  0
  -25.5290  -13.6950   20.9460 C   0  0  0  0  0  0  0  0  0  0  0  0
  -25.8510  -12.3150   20.7640 C   0  0  0  0  0  0  0  0  0  0  0  0
  -27.5400  -13.4520   20.0910 N   0  0  0  0  0  0  0  0  0  0  0  0
  -27.0870  -12.1890   20.3010 N   0  0  0  0  0  0  0  0  0  0  0  0
  -25.0340  -11.1100   20.9540 C   0  0  0  0  0  0  0  0  0  0  0  0
  -25.3860  -10.1150   21.8930 C   0  0  0  0  0  3  0  0  0  0  0  0
  -24.5710   -8.9750   22.0670 C   0  0  0  0  0  3  0  0  0  0  0  0
  -23.3910   -8.8200   21.3020 C   0  0  0  0  0  0  0  0  0  0  0  0
  -23.0580   -9.8020   20.3510 C   0  0  0  0  0  3  0  0  0  0  0  0
  -23.8730  -10.9330   20.1740 C   0  0  0  0  0  3  0  0  0  0  0  0
  -22.5530   -7.7350   21.3850 O   0  0  0  0  0  0  0  0  0  0  0  0
  -22.2370   -7.1610   22.5910 C   0  0  0  0  0  0  0  0  0  0  0  0
  -21.6600   -7.9070   23.6420 C   0  0  0  0  0  3  0  0  0  0  0  0
  -21.2850   -7.2640   24.8380 C   0  0  0  0  0  3  0  0  0  0  0  0
  -21.4790   -5.8760   24.9840 C   0  0  0  0  0  0  0  0  0  0  0  0
  -22.0470   -5.1320   23.9350 C   0  0  0  0  0  3  0  0  0  0  0  0
  -22.4230   -5.7720   22.7410 C   0  0  0  0  0  0  0  0  0  0  0  0
  -22.9510   -5.0460   21.7270 F   0  0  0  0  0  0  0  0  0  0  0  0
  -21.1120   -5.2560   26.1300 F   0  0  0  0  0  0  0  0  0  0  0  0
  -24.2240  -14.2680   21.4190 C   0  0  0  0  0  0  0  0  0  0  0  0
  -23.5650  -13.6040   22.3600 N   0  0  0  0  0  0  0  0  0  0  0  0
  -23.8060  -15.3420   20.9870 O   0  0  0  0  0  0  0  0  0  0  0  0
  -23.9150  -12.7320   22.7290 H   0  0  0  0  0  0  0  0  0  0  0  0
  -22.6940  -13.9730   22.7150 H   0  0  0  0  0  0  0  0  0  0  0  0
  -26.8940  -15.7590   20.4080 N   0  0  0  0  0  0  0  0  0  0  0  0
  -26.2180  -16.4710   20.6630 H   0  0  0  0  0  0  0  0  0  0  0  0
  -27.7480  -16.1450   20.0270 H   0  0  0  0  0  0  0  0  0  0  0  0
  2  4  2  0
  2  5  1  0
  3  9  1  0
  3  1  2  0
  4  3  1  0
  5  6  2  0
  6  1  1  0
  6 60  1  0
  7  9  1  0
  7  8  1  0
  9  8  1  0
 11 10  1  0
 11  5  1  0
 12 11  1  0
 13 12  1  0
 13 14  1  0
 15 13  1  0
 16 13  1  0
 17 16  1  0
 17 18  1  0
 18 20  1  0
 19 30  2  0
 20 25  1  0
 21 31  1  0
 21 29  1  0
 22 28  1  0
 22 24  1  0
 23 29  1  0
 24 23  1  0
 25 24  2  0
 26 27  1  0
 26 20  2  0
 27 22  2  0
 28 21  1  0
 29 19  1  0
 31 33  2  0
 32 31  1  0
 34 32  1  0
 35 40  1  0
 36 32  1  0
 37 36  1  0
 38 39  1  0
 38 37  1  0
 39 35  1  0
 40 36  1  0
 40 41  2  0
 42 41  1  0
 43 42  2  0
 44 35  2  0
 44 43  1  0
 45 19  1  0
 45 46  1  0
 45 55  1  0
 46 49  1  0
 47 51  1  0
 47 46  1  0
 48 47  2  0
 51 50  1  0
 51 53  1  0
 53 54  1  0
 53 52  1  0
 55 56  1  1
 55 58  1  0
 57 55  1  0
 60 59  1  0
 61 70  1  0
 61  4  1  0
 62 68  1  0
 62 70  1  0
 63 68  1  0
 64 65  1  0
 64 63  1  0
 66 65  1  0
 66 75  1  0
 66 67  1  0
 68 67  1  0
 69 62  2  0
 70 71  1  0
 72 73  2  0
 73 92  1  0
 74 73  1  0
 74 77  1  0
 75 76  1  0
 75 72  1  0
 76 74  2  0
 77 78  1  0
 78 79  2  0
 80 83  1  0
 80 79  1  0
 81 80  2  0
 82 81  1  0
 82 77  2  0
 83 84  1  0
 84 89  2  0
 84 85  1  0
 85 86  2  0
 86 87  1  0
 87 91  1  0
 88 87  2  0
 89 88  1  0
 90 89  1  0
 92 93  1  0
 93 96  1  0
 93 95  1  0
 94 92  2  0
 97 72  1  0
 97 98  1  0
 99 97  1  0
M  ISO  4  17 101  18 101  62 100  70 100
M  END
>  <TORSDO>  (80) 
F 24

>  <SCORE>  (80) 
-2.044

>  <name>  (80) 
79

>  <ligand_id>  (80) 
79

>  <original_smiles>  (80) 
[H]c1c([H])c([H])c2c(c1[H])C([H])([H])C([H])([H])C([H])([H])C2([H])N([H])C(=O)C1([H])N(C(=O)C([H])(N([H])C(=O)C([H])(N([H])C([H])([H])[H])C([H])([H])[H])C(C([H])([H])[H])(C([H])([H])[H])C([H])([H])[H])C([H])([H])c2c([H])c(OC([H])([H])C([H])([H])[N+]([H])([H])C([H])([H])C([H])(c3c([H])c(C([H])([H])N([H])C(=O)N4C([H])([H])C([H])([H])C([H])([H])C([H])(n5nc(-c6c([H])c([H])c(Oc7c([H])c([H])c(F)c([H])c7F)c([H])c6[H])c(C(=O)N([H])[H])c5N([H])[H])C4([H])[H])c(C4([H])C([H])([H])C4([H])[H])c([H])c3OC([H])([H])[H])C([H])([H])[H])c([H])c([H])c2C1([H])[H]

>  <smiles>  (80) 
[H]c1c([H])c([H])c2c(c1[H])C([H])([H])C([H])([H])C([H])([H])C2([H])N([H])C(=O)C1([H])N(C(=O)C([H])(N([H])C(=O)C([H])(N([H])C([H])([H])[H])C([H])([H])[H])C(C([H])([H])[H])(C([H])([H])[H])C([H])([H])[H])C([H])([H])c2c([H])c(OC([H])([H])C([H])([H])[N+]([H])([H])C([H])([H])C([H])(c3c([H])c(C([H])([H])N([H])C(=O)N4C([H])([H])C([H])([H])C([H])([H])C([H])(n5nc(-c6c([H])c([H])c(Oc7c([H])c([H])c(F)c([H])c7F)c([H])c6[H])c(C(=O)N([H])[H])c5N([H])[H])C4([H])[H])c(C4([H])C([H])([H])C4([H])[H])c([H])c3OC([H])([H])[H])C([H])([H])[H])c([H])c([H])c2C1([H])[H]

$$$$
80:0:0
     RDKit          3D

 98108  0  0  1  0  0  0  0  0999 V2000
  -30.8700  -22.1570   20.9420 C   0  0  0  0  0  2  0  0  0  0  0  0
  -30.4900  -23.5770   20.5050 C   0  0  0  0  0  2  0  0  0  0  0  0
  -29.7920  -21.7890   21.9620 C   0  0  0  0  0  3  0  0  0  0  0  0
  -28.5460  -22.4790   21.3770 C   0  0  0  0  0  3  0  0  0  0  0  0
  -27.4300  -22.7040   22.4120 C   0  0  0  0  0  1  0  0  0  0  0  0
  -29.0440  -23.7620   20.8050 N   0  0  2  0  0  4  0  0  0  0  0  0
  -29.0080  -24.4480   21.5470 H   0  0  0  0  0  0  0  0  0  0  0  0
  -29.1860  -19.9420   23.6060 C   0  0  0  0  0  3  0  0  0  0  0  0
  -29.5130  -17.5770   23.1140 C   0  0  0  0  0  3  0  0  0  0  0  0
  -30.0310  -19.2650   21.4330 C   0  0  0  0  0  3  0  0  0  0  0  0
  -29.1070  -18.5900   24.0050 C   0  0  0  0  0  0  0  0  0  0  0  0
  -29.6530  -20.3000   22.3220 C   0  0  0  0  0  0  0  0  0  0  0  0
  -29.9780  -17.9090   21.8260 C   0  0  0  0  0  0  0  0  0  0  0  0
  -27.4520  -17.2960   25.5520 C   0  0  0  0  0  2  0  0  0  0  0  0
  -27.3290  -18.7550   25.9250 C   0  0  0  0  0  2  0  0  0  0  0  0
  -28.6310  -18.2230   25.3750 C   0  0  0  0  0  3  0  0  0  0  0  0
  -30.5050  -16.8510   20.8640 C   0  0  0  0  0  2  0  0  0  0  0  0
  -30.7360  -14.4260   20.5700 C   0  0  0  0  0  0  0  0  0  0  0  0
  -30.4090  -12.2750   19.4260 C   0  0  0  0  0  2  0  0  0  0  0  0
  -29.4890  -12.4980   18.2090 C   0  0  0  0  0  2  0  0  0  0  0  0
  -28.0110  -12.3680   18.6210 C   0  0  0  0  0  2  0  0  0  0  0  0
  -27.6630  -13.2090   19.8790 C   0  0  0  0  0  3  0  0  0  0  0  0
  -28.7030  -12.9920   21.0030 C   0  0  0  0  0  2  0  0  0  0  0  0
  -30.0390  -13.2670   20.4490 N   0  0  0  0  0  0  0  0  0  0  0  0
  -31.8550  -14.5860   20.0760 O   0  0  0  0  0  0  0  0  0  0  0  0
  -30.0730  -15.4680   21.0940 N   0  0  0  0  0  0  0  0  0  0  0  0
  -29.1450  -15.3100   21.4550 H   0  0  0  0  0  0  0  0  0  0  0  0
  -25.2580  -13.8180   20.5690 C   0  0  0  0  0  0  0  0  0  0  0  0
  -24.1830  -13.0440   20.9170 C   0  0  0  0  0  0  0  0  0  0  0  0
  -24.6400  -11.6910   20.8750 C   0  0  0  0  0  0  0  0  0  0  0  0
  -26.3030  -12.9360   20.3400 N   0  0  0  0  0  0  0  0  0  0  0  0
  -25.9330  -11.6510   20.5790 N   0  0  0  0  0  0  0  0  0  0  0  0
  -23.9060  -10.4300   21.0410 C   0  0  0  0  0  0  0  0  0  0  0  0
  -24.3620   -9.4210   21.9190 C   0  0  0  0  0  3  0  0  0  0  0  0
  -23.6290   -8.2250   22.0760 C   0  0  0  0  0  3  0  0  0  0  0  0
  -22.4280   -8.0280   21.3550 C   0  0  0  0  0  0  0  0  0  0  0  0
  -21.9910   -9.0260   20.4650 C   0  0  0  0  0  3  0  0  0  0  0  0
  -22.7240  -10.2140   20.3060 C   0  0  0  0  0  3  0  0  0  0  0  0
  -21.6640   -6.8880   21.4240 O   0  0  0  0  0  0  0  0  0  0  0  0
  -21.6850   -6.0730   22.5280 C   0  0  0  0  0  0  0  0  0  0  0  0
  -21.4010   -6.5640   23.8210 C   0  0  0  0  0  3  0  0  0  0  0  0
  -21.3660   -5.6790   24.9180 C   0  0  0  0  0  3  0  0  0  0  0  0
  -21.6050   -4.3060   24.7220 C   0  0  0  0  0  0  0  0  0  0  0  0
  -21.8820   -3.8140   23.4350 C   0  0  0  0  0  3  0  0  0  0  0  0
  -21.9190   -4.6960   22.3400 C   0  0  0  0  0  0  0  0  0  0  0  0
  -22.1660   -4.2150   21.0990 F   0  0  0  0  0  0  0  0  0  0  0  0
  -21.5630   -3.4540   25.7740 F   0  0  0  0  0  0  0  0  0  0  0  0
  -22.7850  -13.5230   21.1840 C   0  0  0  0  0  0  0  0  0  0  0  0
  -22.0500  -12.8220   22.0390 N   0  0  0  0  0  0  0  0  0  0  0  0
  -22.3530  -14.5540   20.6690 O   0  0  0  0  0  0  0  0  0  0  0  0
  -22.4120  -11.9870   22.4770 H   0  0  0  0  0  0  0  0  0  0  0  0
  -21.1120  -13.1230   22.2620 H   0  0  0  0  0  0  0  0  0  0  0  0
  -25.4290  -15.1900   20.4100 N   0  0  0  0  0  0  0  0  0  0  0  0
  -24.6640  -15.8450   20.5220 H   0  0  0  0  0  0  0  0  0  0  0  0
  -26.2860  -15.6310   20.1020 H   0  0  0  0  0  0  0  0  0  0  0  0
  -28.2190  -24.2880   19.6780 C   0  0  0  0  0  2  0  0  0  0  0  0
  -28.6460  -25.6850   19.1550 C   0  0  0  0  0  2  0  0  0  0  0  0
  -28.4310  -26.7460   20.0940 O   0  0  0  0  0  0  0  0  0  0  0  0
  -24.6130  -31.8690   23.2110 C   0  0  0  0  0  0  0  0  0  0  0  0
  -27.2380  -27.4430   20.0810 C   0  0  0  0  0  0  0  0  0  0  0  0
  -23.4010  -30.4940   21.5500 C   0  0  0  0  0  3  0  0  0  0  0  0
  -24.8460  -28.9590   20.1160 C   0  0  0  0  0  0  0  0  0  0  0  0
  -25.9290  -30.8330   21.3660 C   0  0  0  0  0  2  0  0  0  0  0  0
  -26.0040  -29.4660   20.7160 C   0  0  0  0  0  0  0  0  0  0  0  0
  -27.1970  -28.7100   20.7070 C   0  0  0  0  0  3  0  0  0  0  0  0
  -26.0560  -26.9470   19.4810 C   0  0  0  0  0  3  0  0  0  0  0  0
  -24.8660  -27.6960   19.5010 C   0  0  0  0  0  3  0  0  0  0  0  0
  -23.6090  -29.8250   20.1650 C   0  0  0  0  0  2  0  0  0  0  0  0
  -24.6660  -31.0790   22.1010 N   0  0  0  0  0  0  0  0  0  0  0  0
  -23.5320  -32.1450   23.7500 O   0  0  0  0  0  0  0  0  0  0  0  0
  -22.7390  -29.4680   22.4980 C   0  0  0  0  0  0  0  0  0  0  0  0
  -21.4120  -29.3050   22.3710 N   0  0  0  0  0  0  0  0  0  0  0  0
  -23.4160  -28.8220   23.3020 O   0  0  0  0  0  0  0  0  0  0  0  0
  -20.9270  -29.8770   21.6950 H   0  0  0  0  0  0  0  0  0  0  0  0
  -18.0270  -28.1380   22.8500 C   0  0  0  0  0  0  0  0  0  0  0  0
  -20.5860  -28.3670   23.1310 C   0  0  0  0  0  3  0  0  0  0  0  0
  -20.6760  -26.9410   22.5420 C   0  0  0  0  0  2  0  0  0  0  0  0
  -19.5740  -26.6390   21.5210 C   0  0  0  0  0  2  0  0  0  0  0  0
  -18.1920  -26.7930   22.1620 C   0  0  0  0  0  2  0  0  0  0  0  0
  -19.1520  -28.8840   23.2910 C   0  0  0  0  0  0  0  0  0  0  0  0
  -18.9450  -30.1440   23.8940 C   0  0  0  0  0  3  0  0  0  0  0  0
  -17.6450  -30.6590   24.0570 C   0  0  0  0  0  3  0  0  0  0  0  0
  -16.5340  -29.9100   23.6320 C   0  0  0  0  0  3  0  0  0  0  0  0
  -16.7260  -28.6500   23.0370 C   0  0  0  0  0  3  0  0  0  0  0  0
  -25.9030  -32.4830   23.8400 C   0  0  0  0  0  3  0  0  0  0  0  0
  -25.5880  -33.8630   24.2330 N   0  0  0  0  0  0  0  0  0  0  0  0
  -25.9030  -34.9490   23.5130 C   0  0  0  0  0  0  0  0  0  0  0  0
  -26.5610  -34.8940   22.4700 O   0  0  0  0  0  0  0  0  0  0  0  0
  -24.9980  -33.9800   25.0440 H   0  0  0  0  0  0  0  0  0  0  0  0
  -24.1490  -36.7330   23.2640 C   0  0  0  0  0  1  0  0  0  0  0  0
  -25.4110  -36.3130   24.0330 C   0  0  0  0  0  3  0  0  0  0  0  0
  -27.5590  -37.1810   24.8450 C   0  0  0  0  0  1  0  0  0  0  0  0
  -26.4300  -37.3810   23.9400 N   0  0  0  0  0  0  0  0  0  0  0  0
  -26.0190  -38.2880   24.1430 H   0  0  0  0  0  0  0  0  0  0  0  0
  -26.4460  -31.6620   25.0730 C   0  0  1  0  0  0  0  0  0  0  0  0
  -25.3720  -31.3710   26.1470 C   0  0  0  0  0  1  0  0  0  0  0  0
  -27.0300  -30.3060   24.6130 C   0  0  0  0  0  1  0  0  0  0  0  0
  -27.6050  -32.4330   25.7490 C   0  0  0  0  0  1  0  0  0  0  0  0
  1  3  1  0
  2  6  1  0
  2  1  1  0
  3 12  1  0
  4  3  1  0
  4  5  1  0
  6  4  1  0
  6  7  1  1
  8 11  1  0
  9 11  2  0
 10 13  2  0
 10 12  1  0
 11 16  1  0
 12  8  2  0
 13  9  1  0
 14 15  1  0
 16 14  1  0
 16 15  1  0
 17 26  1  0
 17 13  1  0
 18 26  1  0
 19 24  1  0
 20 21  1  0
 20 19  1  0
 22 21  1  0
 22 31  1  0
 22 23  1  0
 24 18  1  0
 24 23  1  0
 25 18  2  0
 26 27  1  0
 28 29  2  0
 29 48  1  0
 30 29  1  0
 30 33  1  0
 31 28  1  0
 31 32  1  0
 32 30  2  0
 33 34  1  0
 34 35  2  0
 36 39  1  0
 36 35  1  0
 37 36  2  0
 38 37  1  0
 38 33  2  0
 39 40  1  0
 40 41  1  0
 41 42  2  0
 43 42  1  0
 43 47  1  0
 44 43  2  0
 45 40  2  0
 45 44  1  0
 46 45  1  0
 48 49  1  0
 49 52  1  0
 49 51  1  0
 50 48  2  0
 53 54  1  0
 53 28  1  0
 55 53  1  0
 56  6  1  0
 57 56  1  0
 57 58  1  0
 59 70  2  0
 60 58  1  0
 60 65  1  0
 61 69  1  0
 61 71  1  0
 62 68  1  0
 62 64  1  0
 63 69  1  0
 64 63  1  0
 65 64  2  0
 66 67  1  0
 66 60  2  0
 67 62  2  0
 68 61  1  0
 69 59  1  0
 71 73  2  0
 72 71  1  0
 74 72  1  0
 75 84  2  0
 75 80  1  0
 76 72  1  0
 76 80  1  0
 77 76  1  0
 78 79  1  0
 78 77  1  0
 79 75  1  0
 80 81  2  0
 81 82  1  0
 83 82  2  0
 84 83  1  0
 85 59  1  0
 85 86  1  0
 85 95  1  0
 86 89  1  0
 87 91  1  0
 87 86  1  0
 88 87  2  0
 91 90  1  0
 93 91  1  0
 93 94  1  0
 93 92  1  0
 95 98  1  1
 95 96  1  0
 97 95  1  0
M  ISO  4  18 100  26 100  57 101  58 101
M  END
>  <TORSDO>  (81) 
F 21

>  <SCORE>  (81) 
11.824

>  <name>  (81) 
80

>  <ligand_id>  (81) 
80

>  <original_smiles>  (81) 
[H]c1c([H])c([H])c2c(c1[H])C([H])([H])C([H])([H])C([H])([H])C2([H])N([H])C(=O)C1([H])N(C(=O)C([H])(N([H])C(=O)C([H])(N([H])C([H])([H])[H])C([H])([H])[H])C(C([H])([H])[H])(C([H])([H])[H])C([H])([H])[H])C([H])([H])c2c([H])c(OC([H])([H])C([H])([H])[N+]3([H])C([H])([H])C([H])([H])C([H])(c4c([H])c(C([H])([H])N([H])C(=O)N5C([H])([H])C([H])([H])C([H])([H])C([H])(n6nc(-c7c([H])c([H])c(Oc8c([H])c([H])c(F)c([H])c8F)c([H])c7[H])c(C(=O)N([H])[H])c6N([H])[H])C5([H])[H])c([H])c(C5([H])C([H])([H])C5([H])[H])c4[H])C3([H])C([H])([H])[H])c([H])c([H])c2C1([H])[H]

>  <smiles>  (81) 
[H]c1c([H])c([H])c2c(c1[H])C([H])([H])C([H])([H])C([H])([H])C2([H])N([H])C(=O)C1([H])N(C(=O)C([H])(N([H])C(=O)C([H])(N([H])C([H])([H])[H])C([H])([H])[H])C(C([H])([H])[H])(C([H])([H])[H])C([H])([H])[H])C([H])([H])c2c([H])c(OC([H])([H])C([H])([H])[N+]3([H])C([H])([H])C([H])([H])C([H])(c4c([H])c(C([H])([H])N([H])C(=O)N5C([H])([H])C([H])([H])C([H])([H])C([H])(n6nc(-c7c([H])c([H])c(Oc8c([H])c([H])c(F)c([H])c8F)c([H])c7[H])c(C(=O)N([H])[H])c6N([H])[H])C5([H])[H])c([H])c(C5([H])C([H])([H])C5([H])[H])c4[H])C3([H])C([H])([H])[H])c([H])c([H])c2C1([H])[H]

$$$$
81:0:0
     RDKit          3D

101107  0  0  1  0  0  0  0  0999 V2000
  -25.2080  -21.9350   19.6980 C   0  0  0  0  0  3  0  0  0  0  0  0
  -25.3520  -23.5930   21.8310 C   0  0  0  0  0  3  0  0  0  0  0  0
  -26.3880  -21.5200   20.4710 C   0  0  0  0  0  0  0  0  0  0  0  0
  -24.1810  -23.0180   19.9700 C   0  0  0  0  0  0  0  0  0  0  0  0
  -26.3480  -22.4920   21.5760 C   0  0  0  0  0  0  0  0  0  0  0  0
  -24.1430  -23.9910   21.0880 C   0  0  0  0  0  0  0  0  0  0  0  0
  -27.4270  -22.3180   22.6300 C   0  0  0  0  0  1  0  0  0  0  0  0
  -30.7610  -16.1390   18.9260 C   0  0  0  0  0  0  0  0  0  0  0  0
  -30.9840  -13.6420   18.1160 C   0  0  0  0  0  2  0  0  0  0  0  0
  -29.8890  -13.2090   17.1020 C   0  0  0  0  0  2  0  0  0  0  0  0
  -28.5650  -12.8830   17.8230 C   0  0  0  0  0  2  0  0  0  0  0  0
  -28.2530  -13.9280   18.9200 C   0  0  0  0  0  3  0  0  0  0  0  0
  -29.4420  -14.1780   19.8500 C   0  0  0  0  0  2  0  0  0  0  0  0
  -30.4450  -14.7610   18.9880 N   0  0  0  0  0  0  0  0  0  0  0  0
  -31.9120  -16.2820   18.4470 O   0  0  0  0  0  0  0  0  0  0  0  0
  -27.3840  -18.8770   19.2390 C   0  0  0  0  0  3  0  0  0  0  0  0
  -29.1250  -20.0740   20.0630 C   0  0  0  0  0  3  0  0  0  0  0  0
  -28.3150  -17.4630   19.3130 C   0  0  0  0  0  2  0  0  0  0  0  0
  -30.1500  -18.7000   19.9340 C   0  0  0  0  0  3  0  0  0  0  0  0
  -27.4930  -20.1050   20.2940 C   0  0  0  0  0  0  0  0  0  0  0  0
  -29.8410  -17.2940   19.3280 N   0  0  0  0  0  0  0  0  0  0  0  0
  -26.2190  -14.5270   20.3250 C   0  0  0  0  0  0  0  0  0  0  0  0
  -25.2450  -13.7720   20.8890 C   0  0  0  0  0  0  0  0  0  0  0  0
  -25.5480  -12.4260   20.5320 C   0  0  0  0  0  0  0  0  0  0  0  0
  -27.0720  -13.6420   19.6910 N   0  0  0  0  0  0  0  0  0  0  0  0
  -26.6960  -12.3560   19.8730 N   0  0  0  0  0  0  0  0  0  0  0  0
  -24.7640  -11.2120   20.7140 C   0  0  0  0  0  0  0  0  0  0  0  0
  -25.2280  -10.1500   21.5170 C   0  0  0  0  0  3  0  0  0  0  0  0
  -24.4360   -8.9980   21.6910 C   0  0  0  0  0  3  0  0  0  0  0  0
  -23.1720   -8.9060   21.0600 C   0  0  0  0  0  0  0  0  0  0  0  0
  -22.7300   -9.9590   20.2410 C   0  0  0  0  0  3  0  0  0  0  0  0
  -23.5200  -11.1030   20.0640 C   0  0  0  0  0  3  0  0  0  0  0  0
  -22.3440   -7.8160   21.1550 O   0  0  0  0  0  0  0  0  0  0  0  0
  -22.1680   -7.1540   22.3420 C   0  0  0  0  0  0  0  0  0  0  0  0
  -21.7520   -7.8220   23.5150 C   0  0  0  0  0  3  0  0  0  0  0  0
  -21.5140   -7.0890   24.6940 C   0  0  0  0  0  3  0  0  0  0  0  0
  -21.6840   -5.6910   24.7000 C   0  0  0  0  0  0  0  0  0  0  0  0
  -22.0940   -5.0250   23.5320 C   0  0  0  0  0  3  0  0  0  0  0  0
  -22.3330   -5.7550   22.3550 C   0  0  0  0  0  0  0  0  0  0  0  0
  -22.7080   -5.1080   21.2250 F   0  0  0  0  0  0  0  0  0  0  0  0
  -21.4470   -4.9850   25.8300 F   0  0  0  0  0  0  0  0  0  0  0  0
  -24.0400  -14.2990   21.6070 C   0  0  0  0  0  0  0  0  0  0  0  0
  -23.5330  -13.5480   22.5740 N   0  0  0  0  0  0  0  0  0  0  0  0
  -23.5800  -15.4120   21.3520 O   0  0  0  0  0  0  0  0  0  0  0  0
  -23.9320  -12.6480   22.7970 H   0  0  0  0  0  0  0  0  0  0  0  0
  -22.7380  -13.8760   23.1030 H   0  0  0  0  0  0  0  0  0  0  0  0
  -26.3770  -15.8940   20.2760 N   0  0  0  0  0  0  0  0  0  0  0  0
  -25.7060  -16.5210   20.7050 H   0  0  0  0  0  0  0  0  0  0  0  0
  -27.1200  -16.3770   19.7900 H   0  0  0  0  0  0  0  0  0  0  0  0
  -21.6560  -22.5950   19.3770 C   0  0  0  0  0  2  0  0  0  0  0  0
  -22.4560  -21.8390   18.3510 C   0  0  0  0  0  2  0  0  0  0  0  0
  -23.0370  -23.0840   18.9970 C   0  0  0  0  0  3  0  0  0  0  0  0
  -22.6360  -24.5890   23.1070 C   0  0  0  0  0  1  0  0  0  0  0  0
  -22.8120  -25.0890   21.6550 C   0  0  0  0  0  3  0  0  0  0  0  0
  -22.4600  -26.9500   21.8590 C   0  0  0  0  0  1  0  0  0  0  0  0
  -21.0860  -28.6580   20.5830 N   0  0  0  0  0  4  0  0  0  0  0  0
  -21.3110  -28.6130   19.6040 H   0  0  0  0  0  0  0  0  0  0  0  0
  -21.2200  -29.5880   20.9430 H   0  0  0  0  0  0  0  0  0  0  0  0
  -20.1120  -28.4360   20.7320 H   0  0  0  0  0  0  0  0  0  0  0  0
  -24.5450  -27.1020   22.1110 C   0  0  0  0  0  1  0  0  0  0  0  0
  -26.2640  -27.1900   21.4540 O   0  0  0  0  0  0  0  0  0  0  0  0
  -25.3380  -32.4370   24.1510 C   0  0  0  0  0  0  0  0  0  0  0  0
  -27.2760  -28.1610   21.0440 C   0  0  0  0  0  3  0  0  0  0  0  0
  -24.5080  -31.6510   22.0000 C   0  0  0  0  0  3  0  0  0  0  0  0
  -26.0850  -30.3900   20.4420 C   0  0  0  0  0  0  0  0  0  0  0  0
  -26.9810  -31.7010   22.3890 C   0  0  0  0  0  2  0  0  0  0  0  0
  -27.0160  -30.4780   21.4850 C   0  0  0  0  0  3  0  0  0  0  0  0
  -27.7220  -29.3030   21.7850 C   0  0  0  0  0  2  0  0  0  0  0  0
  -27.1360  -28.3490   19.6770 C   0  0  0  0  0  2  0  0  0  0  0  0
  -26.2340  -29.3930   19.4520 C   0  0  0  0  0  3  0  0  0  0  0  0
  -24.9210  -31.3370   20.5260 C   0  0  0  0  0  2  0  0  0  0  0  0
  -25.6270  -31.9940   22.8930 N   0  0  0  0  0  0  0  0  0  0  0  0
  -24.1670  -32.5850   24.5470 O   0  0  0  0  0  0  0  0  0  0  0  0
  -23.8570  -30.4740   22.6500 C   0  0  0  0  0  0  0  0  0  0  0  0
  -22.5790  -30.4080   22.4330 N   0  0  0  0  0  0  0  0  0  0  0  0
  -24.4990  -29.6950   23.3700 O   0  0  0  0  0  0  0  0  0  0  0  0
  -22.0940  -31.1110   21.8910 H   0  0  0  0  0  0  0  0  0  0  0  0
  -19.4150  -27.8770   22.7320 C   0  0  0  0  0  0  0  0  0  0  0  0
  -22.2690  -29.0950   22.4320 C   0  0  0  0  0  2  0  0  0  0  0  0
  -22.7090  -28.4850   20.2070 C   0  0  0  0  0  1  0  0  0  0  0  0
  -21.1430  -26.9050   19.6790 C   0  0  0  0  0 15  0  0  0  0  0  0
  -19.6990  -26.6160   21.2820 C   0  0  0  0  0  1  0  0  0  0  0  0
  -20.5740  -28.8770   23.2610 C   0  0  0  0  0  0  0  0  0  0  0  0
  -20.1270  -30.0510   23.9880 C   0  0  0  0  0  3  0  0  0  0  0  0
  -18.7830  -30.4640   24.1680 C   0  0  0  0  0  3  0  0  0  0  0  0
  -17.7600  -29.7060   23.5830 C   0  0  0  0  0  3  0  0  0  0  0  0
  -18.0800  -28.4880   22.8910 C   0  0  0  0  0  3  0  0  0  0  0  0
  -26.4680  -32.8040   25.1310 C   0  0  0  0  0  3  0  0  0  0  0  0
  -26.2250  -34.2020   25.4920 N   0  0  0  0  0  0  0  0  0  0  0  0
  -26.7450  -35.2380   24.8280 C   0  0  0  0  0  0  0  0  0  0  0  0
  -27.5670  -35.1020   23.9180 O   0  0  0  0  0  0  0  0  0  0  0  0
  -25.5220  -34.3790   26.1940 H   0  0  0  0  0  0  0  0  0  0  0  0
  -25.2550  -37.1790   24.2560 C   0  0  0  0  0  1  0  0  0  0  0  0
  -26.2940  -36.6450   25.2540 C   0  0  0  0  0  3  0  0  0  0  0  0
  -28.3460  -37.2620   26.4480 C   0  0  0  0  0  1  0  0  0  0  0  0
  -27.4160  -37.5990   25.3740 N   0  0  0  0  0  0  0  0  0  0  0  0
  -27.0720  -38.5420   25.5360 H   0  0  0  0  0  0  0  0  0  0  0  0
  -26.5250  -31.8920   26.4130 C   0  0  1  0  0  0  0  0  0  0  0  0
  -25.1610  -31.6920   27.1150 C   0  0  0  0  0  1  0  0  0  0  0  0
  -27.0840  -30.4920   26.0710 C   0  0  0  0  0  1  0  0  0  0  0  0
  -27.5070  -32.5260   27.4230 C   0  0  0  0  0  1  0  0  0  0  0  0
  1  4  2  0
  1  3  1  0
  3  5  2  0
  4  6  1  0
  5  2  1  0
  5  7  1  0
  6 54  1  0
  6  2  2  0
  8 14  1  0
  8 21  1  0
  9 14  1  0
 10 11  1  0
 10  9  1  0
 12 11  1  0
 12 25  1  0
 12 13  1  0
 14 13  1  0
 15  8  2  0
 16 18  1  0
 16 20  2  0
 17 20  1  0
 18 21  1  0
 19 17  2  0
 20  3  1  0
 21 19  1  0
 22 23  2  0
 23 42  1  0
 24 27  1  0
 24 23  1  0
 25 26  1  0
 25 22  1  0
 26 24  2  0
 27 28  1  0
 28 29  2  0
 30 33  1  0
 30 29  1  0
 31 30  2  0
 32 31  1  0
 32 27  2  0
 33 34  1  0
 34 39  2  0
 34 35  1  0
 35 36  2  0
 36 37  1  0
 37 41  1  0
 38 37  2  0
 39 38  1  0
 40 39  1  0
 42 43  1  0
 43 45  1  0
 43 46  1  0
 44 42  2  0
 47 22  1  0
 47 48  1  0
 49 47  1  0
 51 52  1  0
 51 50  1  0
 52 50  1  0
 52  4  1  0
 54 55  1  0
 54 53  1  0
 56 59  1  0
 56 58  1  0
 57 56  1  0
 61 60  1  0
 62 73  2  0
 63 61  1  0
 63 68  1  0
 64 74  1  0
 64 72  1  0
 65 71  1  0
 65 67  1  0
 66 72  1  0
 67 68  1  0
 67 66  1  0
 69 63  1  0
 70 69  1  0
 70 65  2  0
 71 64  1  0
 72 62  1  0
 74 76  2  0
 75 74  1  0
 77 75  1  0
 78 87  2  0
 78 83  1  0
 79 75  1  0
 79 83  1  0
 80 56  1  0
 82 78  1  0
 83 84  2  0
 84 85  1  0
 86 85  2  0
 87 86  1  0
 88 62  1  0
 88 89  1  0
 88 98  1  0
 89 92  1  0
 90 94  1  0
 90 89  1  0
 91 90  2  0
 94 93  1  0
 94 96  1  0
 96 97  1  0
 96 95  1  0
 98 99  1  1
 98101  1  0
100 98  1  0
M  ISO  4   8 100  21 100  60 101  61 101
M  END
>  <TORSDO>  (82) 
F 21

>  <SCORE>  (82) 
0.013

>  <name>  (82) 
81

>  <ligand_id>  (82) 
81

>  <original_smiles>  (82) 
[H]c1c([H])c([H])c2c(c1[H])C([H])([H])C([H])([H])C([H])([H])C2([H])N([H])C(=O)C1([H])N(C(=O)C([H])(N([H])C(=O)C([H])(N([H])C([H])([H])[H])C([H])([H])[H])C(C([H])([H])[H])(C([H])([H])[H])C([H])([H])[H])C([H])([H])c2c([H])c(OC([H])([H])C([H])(C([H])(c3c([H])c(C([H])([H])[H])c(C4([H])C([H])([H])C([H])([H])N(C(=O)N5C([H])([H])C([H])([H])C([H])([H])C([H])(n6nc(-c7c([H])c([H])c(Oc8c([H])c([H])c(F)c([H])c8F)c([H])c7[H])c(C(=O)N([H])[H])c6N([H])[H])C5([H])[H])C([H])([H])C4([H])[H])c([H])c3C3([H])C([H])([H])C3([H])[H])C([H])([H])[H])[N+]([H])([H])[H])c([H])c([H])c2C1([H])[H]

>  <smiles>  (82) 
[H]c1c([H])c([H])c2c(c1[H])C([H])([H])C([H])([H])C([H])([H])C2([H])N([H])C(=O)C1([H])N(C(=O)C([H])(N([H])C(=O)C([H])(N([H])C([H])([H])[H])C([H])([H])[H])C(C([H])([H])[H])(C([H])([H])[H])C([H])([H])[H])C([H])([H])c2c([H])c(OC([H])([H])C([H])(C([H])(c3c([H])c(C([H])([H])[H])c(C4([H])C([H])([H])C([H])([H])N(C(=O)N5C([H])([H])C([H])([H])C([H])([H])C([H])(n6nc(-c7c([H])c([H])c(Oc8c([H])c([H])c(F)c([H])c8F)c([H])c7[H])c(C(=O)N([H])[H])c6N([H])[H])C5([H])[H])C([H])([H])C4([H])[H])c([H])c3C3([H])C([H])([H])C3([H])[H])C([H])([H])[H])[N+]([H])([H])[H])c([H])c([H])c2C1([H])[H]

$$$$
82:0:0
     RDKit          3D

 92101  0  0  1  0  0  0  0  0999 V2000
  -28.0220  -22.6160   18.8880 C   0  0  0  0  0  3  0  0  0  0  0  0
  -28.5450  -23.5770   19.7980 C   0  0  0  0  0  0  0  0  0  0  0  0
  -28.2420  -21.2040   19.0040 C   0  0  0  0  0  0  0  0  0  0  0  0
  -29.2810  -22.9490   20.8530 C   0  0  0  0  0  0  0  0  0  0  0  0
  -28.9870  -20.6560   20.0940 C   0  0  0  0  0  0  0  0  0  0  0  0
  -27.7420  -20.3340   17.8590 C   0  0  0  0  0  1  0  0  0  0  0  0
  -29.9650  -23.8040   21.9010 C   0  0  0  0  0  1  0  0  0  0  0  0
  -29.4730  -21.5770   20.9880 N   0  0  0  0  0  0  0  0  0  0  0  0
  -30.6390  -14.8600   20.3410 C   0  0  0  0  0  0  0  0  0  0  0  0
  -30.3770  -12.5500   19.3850 C   0  0  0  0  0  2  0  0  0  0  0  0
  -29.4460  -12.5420   18.1550 C   0  0  0  0  0  2  0  0  0  0  0  0
  -27.9860  -12.3380   18.5980 C   0  0  0  0  0  2  0  0  0  0  0  0
  -27.5930  -13.2660   19.7770 C   0  0  0  0  0  3  0  0  0  0  0  0
  -28.6580  -13.3030   20.8950 C   0  0  0  0  0  2  0  0  0  0  0  0
  -29.9320  -13.6670   20.2660 N   0  0  0  0  0  0  0  0  0  0  0  0
  -31.8480  -14.7980   20.1030 O   0  0  0  0  0  0  0  0  0  0  0  0
  -30.4010  -18.7510   21.0830 C   0  0  0  0  0  2  0  0  0  0  0  0
  -28.2680  -18.1680   20.2570 C   0  0  0  0  0  2  0  0  0  0  0  0
  -30.9810  -17.3270   20.6920 C   0  0  0  0  0  2  0  0  0  0  0  0
  -28.7120  -16.6280   20.0900 C   0  0  0  0  0  2  0  0  0  0  0  0
  -29.3100  -19.2250   20.2220 N   0  0  0  0  0  0  0  0  0  0  0  0
  -30.0610  -16.1450   20.5320 N   0  0  0  0  0  0  0  0  0  0  0  0
  -25.2170  -13.8450   20.5290 C   0  0  0  0  0  0  0  0  0  0  0  0
  -24.1580  -13.0690   20.9080 C   0  0  0  0  0  0  0  0  0  0  0  0
  -24.6260  -11.7200   20.8790 C   0  0  0  0  0  0  0  0  0  0  0  0
  -26.2620  -12.9690   20.2890 N   0  0  0  0  0  0  0  0  0  0  0  0
  -25.9160  -11.6860   20.5660 N   0  0  0  0  0  0  0  0  0  0  0  0
  -23.9040  -10.4570   21.0710 C   0  0  0  0  0  0  0  0  0  0  0  0
  -24.3450   -9.4870   21.9970 C   0  0  0  0  0  3  0  0  0  0  0  0
  -23.6220   -8.2880   22.1760 C   0  0  0  0  0  3  0  0  0  0  0  0
  -22.4450   -8.0510   21.4280 C   0  0  0  0  0  0  0  0  0  0  0  0
  -22.0230   -9.0090   20.4920 C   0  0  0  0  0  3  0  0  0  0  0  0
  -22.7460  -10.2000   20.3110 C   0  0  0  0  0  3  0  0  0  0  0  0
  -21.6900   -6.9060   21.5200 O   0  0  0  0  0  0  0  0  0  0  0  0
  -21.6560   -6.1560   22.6690 C   0  0  0  0  0  0  0  0  0  0  0  0
  -21.2460   -6.7040   23.9040 C   0  0  0  0  0  3  0  0  0  0  0  0
  -21.1600   -5.8800   25.0450 C   0  0  0  0  0  3  0  0  0  0  0  0
  -21.4710   -4.5100   24.9500 C   0  0  0  0  0  0  0  0  0  0  0  0
  -21.8740   -3.9620   23.7190 C   0  0  0  0  0  3  0  0  0  0  0  0
  -21.9620   -4.7830   22.5810 C   0  0  0  0  0  0  0  0  0  0  0  0
  -22.3320   -4.2460   21.3940 F   0  0  0  0  0  0  0  0  0  0  0  0
  -21.3800   -3.7180   26.0440 F   0  0  0  0  0  0  0  0  0  0  0  0
  -22.7600  -13.5480   21.1760 C   0  0  0  0  0  0  0  0  0  0  0  0
  -22.0300  -12.8560   22.0440 N   0  0  0  0  0  0  0  0  0  0  0  0
  -22.3260  -14.5730   20.6530 O   0  0  0  0  0  0  0  0  0  0  0  0
  -22.3900  -12.0250   22.4910 H   0  0  0  0  0  0  0  0  0  0  0  0
  -21.0960  -13.1670   22.2700 H   0  0  0  0  0  0  0  0  0  0  0  0
  -25.3670  -15.2140   20.3380 N   0  0  0  0  0  0  0  0  0  0  0  0
  -24.5850  -15.8510   20.4280 H   0  0  0  0  0  0  0  0  0  0  0  0
  -26.1870  -15.6450   19.9360 H   0  0  0  0  0  0  0  0  0  0  0  0
  -28.4920  -25.1430   19.3810 C   0  0  0  0  0  2  0  0  0  0  0  0
  -28.3060  -26.3450   20.2710 O   0  0  0  0  0  0  0  0  0  0  0  0
  -24.6180  -31.8690   23.2270 C   0  0  0  0  0  0  0  0  0  0  0  0
  -27.2120  -27.2460   20.1640 C   0  0  0  0  0  0  0  0  0  0  0  0
  -23.4090  -30.4680   21.5950 C   0  0  0  0  0  3  0  0  0  0  0  0
  -24.8540  -28.9100   20.1570 C   0  0  0  0  0  0  0  0  0  0  0  0
  -25.9520  -30.7680   21.4060 C   0  0  0  0  0  2  0  0  0  0  0  0
  -26.0280  -29.3840   20.7570 C   0  0  0  0  0  0  0  0  0  0  0  0
  -27.2030  -28.5610   20.7560 C   0  0  0  0  0  3  0  0  0  0  0  0
  -26.0080  -26.8430   19.5450 C   0  0  0  0  0  3  0  0  0  0  0  0
  -24.8520  -27.6500   19.5410 C   0  0  0  0  0  3  0  0  0  0  0  0
  -23.6180  -29.7900   20.2150 C   0  0  0  0  0  2  0  0  0  0  0  0
  -24.6790  -31.0550   22.1320 N   0  0  0  0  0  0  0  0  0  0  0  0
  -23.5370  -32.1490   23.7640 O   0  0  0  0  0  0  0  0  0  0  0  0
  -22.7470  -29.4560   22.5600 C   0  0  0  0  0  0  0  0  0  0  0  0
  -21.4190  -29.2810   22.4420 N   0  0  0  0  0  0  0  0  0  0  0  0
  -23.4270  -28.8320   23.3790 O   0  0  0  0  0  0  0  0  0  0  0  0
  -20.9280  -29.8340   21.7530 H   0  0  0  0  0  0  0  0  0  0  0  0
  -18.0430  -28.0830   22.9600 C   0  0  0  0  0  0  0  0  0  0  0  0
  -20.6030  -28.3450   23.2180 C   0  0  0  0  0  3  0  0  0  0  0  0
  -20.7030  -26.9130   22.6430 C   0  0  0  0  0  2  0  0  0  0  0  0
  -19.5970  -26.5880   21.6350 C   0  0  0  0  0  2  0  0  0  0  0  0
  -18.2170  -26.7340   22.2840 C   0  0  0  0  0  2  0  0  0  0  0  0
  -19.1630  -28.8460   23.3840 C   0  0  0  0  0  0  0  0  0  0  0  0
  -18.9460  -30.1090   23.9770 C   0  0  0  0  0  3  0  0  0  0  0  0
  -17.6420  -30.6090   24.1480 C   0  0  0  0  0  3  0  0  0  0  0  0
  -16.5360  -29.8440   23.7420 C   0  0  0  0  0  3  0  0  0  0  0  0
  -16.7380  -28.5820   23.1530 C   0  0  0  0  0  3  0  0  0  0  0  0
  -25.9010  -32.5030   23.8460 C   0  0  0  0  0  3  0  0  0  0  0  0
  -25.5890  -33.9000   24.1850 N   0  0  0  0  0  0  0  0  0  0  0  0
  -25.9080  -34.9590   23.4290 C   0  0  0  0  0  0  0  0  0  0  0  0
  -26.5680  -34.8630   22.3900 O   0  0  0  0  0  0  0  0  0  0  0  0
  -24.9960  -34.0470   24.9890 H   0  0  0  0  0  0  0  0  0  0  0  0
  -24.1680  -36.7470   23.1100 C   0  0  0  0  0  1  0  0  0  0  0  0
  -25.4230  -36.3430   23.9010 C   0  0  0  0  0  3  0  0  0  0  0  0
  -27.5680  -37.2320   24.6980 C   0  0  0  0  0  1  0  0  0  0  0  0
  -26.4480  -37.4030   23.7760 N   0  0  0  0  0  0  0  0  0  0  0  0
  -26.0410  -38.3210   23.9370 H   0  0  0  0  0  0  0  0  0  0  0  0
  -26.4240  -31.7280   25.1190 C   0  0  1  0  0  0  0  0  0  0  0  0
  -25.3340  -31.4890   26.1910 C   0  0  0  0  0  1  0  0  0  0  0  0
  -27.0050  -30.3520   24.7240 C   0  0  0  0  0  1  0  0  0  0  0  0
  -27.5800  -32.5190   25.7750 C   0  0  0  0  0  1  0  0  0  0  0  0
  1  3  2  0
  1  2  1  0
  2  4  2  0
  3  5  1  0
  4  8  1  0
  4  7  1  0
  5 21  1  0
  5  8  2  0
  6  3  1  0
  9 22  1  0
 10 15  1  0
 11 12  1  0
 11 10  1  0
 13 12  1  0
 13 26  1  0
 13 14  1  0
 15  9  1  0
 15 14  1  0
 16  9  2  0
 19 17  1  0
 20 18  1  0
 20 22  1  0
 21 18  1  0
 21 17  1  0
 22 19  1  0
 23 24  2  0
 24 43  1  0
 25 24  1  0
 25 28  1  0
 26 23  1  0
 26 27  1  0
 27 25  2  0
 28 29  1  0
 29 30  2  0
 31 34  1  0
 31 30  1  0
 32 31  2  0
 33 32  1  0
 33 28  2  0
 34 35  1  0
 35 36  1  0
 36 37  2  0
 38 37  1  0
 38 42  1  0
 39 38  2  0
 40 35  2  0
 40 39  1  0
 41 40  1  0
 43 44  1  0
 44 47  1  0
 44 46  1  0
 45 43  2  0
 48 49  1  0
 48 23  1  0
 50 48  1  0
 51  2  1  0
 51 52  1  0
 53 64  2  0
 54 52  1  0
 54 59  1  0
 55 63  1  0
 55 65  1  0
 56 62  1  0
 56 58  1  0
 57 63  1  0
 58 57  1  0
 59 58  2  0
 60 54  2  0
 61 60  1  0
 61 56  2  0
 62 55  1  0
 63 53  1  0
 65 67  2  0
 66 65  1  0
 68 66  1  0
 69 78  2  0
 69 74  1  0
 70 66  1  0
 70 74  1  0
 71 70  1  0
 72 73  1  0
 72 71  1  0
 73 69  1  0
 74 75  2  0
 75 76  1  0
 77 76  2  0
 78 77  1  0
 79 53  1  0
 79 80  1  0
 79 89  1  0
 80 83  1  0
 81 85  1  0
 81 80  1  0
 82 81  2  0
 85 84  1  0
 87 85  1  0
 87 88  1  0
 87 86  1  0
 89 92  1  1
 89 90  1  0
 91 89  1  0
M  ISO  4   9 100  22 100  51 101  52 101
M  END
>  <TORSDO>  (83) 
F 17

>  <SCORE>  (83) 
-15.544

>  <name>  (83) 
82

>  <ligand_id>  (83) 
82

>  <original_smiles>  (83) 
[H]c1c([H])c([H])c2c(c1[H])C([H])([H])C([H])([H])C([H])([H])C2([H])N([H])C(=O)C1([H])N(C(=O)C([H])(N([H])C(=O)C([H])(N([H])C([H])([H])[H])C([H])([H])[H])C(C([H])([H])[H])(C([H])([H])[H])C([H])([H])[H])C([H])([H])c2c([H])c(OC([H])([H])c3c(C([H])([H])[H])nc(N4C([H])([H])C([H])([H])N(C(=O)N5C([H])([H])C([H])([H])C([H])([H])C([H])(n6nc(-c7c([H])c([H])c(Oc8c([H])c([H])c(F)c([H])c8F)c([H])c7[H])c(C(=O)N([H])[H])c6N([H])[H])C5([H])[H])C([H])([H])C4([H])[H])c(C([H])([H])[H])c3[H])c([H])c([H])c2C1([H])[H]

>  <smiles>  (83) 
[H]c1c([H])c([H])c2c(c1[H])C([H])([H])C([H])([H])C([H])([H])C2([H])N([H])C(=O)C1([H])N(C(=O)C([H])(N([H])C(=O)C([H])(N([H])C([H])([H])[H])C([H])([H])[H])C(C([H])([H])[H])(C([H])([H])[H])C([H])([H])[H])C([H])([H])c2c([H])c(OC([H])([H])c3c(C([H])([H])[H])nc(N4C([H])([H])C([H])([H])N(C(=O)N5C([H])([H])C([H])([H])C([H])([H])C([H])(n6nc(-c7c([H])c([H])c(Oc8c([H])c([H])c(F)c([H])c8F)c([H])c7[H])c(C(=O)N([H])[H])c6N([H])[H])C5([H])[H])C([H])([H])C4([H])[H])c(C([H])([H])[H])c3[H])c([H])c([H])c2C1([H])[H]

$$$$
83:0:0
     RDKit          3D

 94104  0  0  1  0  0  0  0  0999 V2000
  -29.9970  -19.9730   22.0020 C   0  0  0  0  0  3  0  0  0  0  0  0
  -29.8010  -19.8040   20.6190 C   0  0  0  0  0  0  0  0  0  0  0  0
  -29.4670  -22.3720   20.4780 C   0  0  0  0  0  0  0  0  0  0  0  0
  -29.5270  -21.0350   19.8680 C   0  0  0  0  0  0  0  0  0  0  0  0
  -29.7240  -22.4160   21.8790 C   0  0  0  0  0  0  0  0  0  0  0  0
  -29.9580  -21.2380   22.6340 C   0  0  0  0  0  0  0  0  0  0  0  0
  -29.3030  -20.9190   18.3720 C   0  0  0  0  0  1  0  0  0  0  0  0
  -29.7790  -23.7530   22.6140 C   0  0  0  0  0  1  0  0  0  0  0  0
  -31.1170  -14.9510   20.1210 C   0  0  0  0  0  0  0  0  0  0  0  0
  -30.8190  -12.6440   19.1930 C   0  0  0  0  0  2  0  0  0  0  0  0
  -29.8700  -12.6630   17.9770 C   0  0  0  0  0  2  0  0  0  0  0  0
  -28.4060  -12.5320   18.4390 C   0  0  0  0  0  2  0  0  0  0  0  0
  -28.0610  -13.4820   19.6180 C   0  0  0  0  0  3  0  0  0  0  0  0
  -29.1360  -13.4570   20.7230 C   0  0  0  0  0  2  0  0  0  0  0  0
  -30.4140  -13.7650   20.0760 N   0  0  0  0  0  0  0  0  0  0  0  0
  -32.3190  -14.9290   19.8420 O   0  0  0  0  0  0  0  0  0  0  0  0
  -31.1160  -17.4790   19.6450 C   0  0  0  0  0  2  0  0  0  0  0  0
  -29.6060  -16.9730   20.9410 C   0  0  0  0  0  2  0  0  0  0  0  0
  -29.8570  -18.2810   20.0860 C   0  0  0  0  0  3  0  0  0  0  0  0
  -30.4540  -16.1800   20.0090 N   0  0  0  0  0  0  0  0  0  0  0  0
  -25.7210  -14.1400   20.4270 C   0  0  0  0  0  0  0  0  0  0  0  0
  -24.6370  -13.3980   20.8070 C   0  0  0  0  0  0  0  0  0  0  0  0
  -25.0480  -12.0320   20.7370 C   0  0  0  0  0  0  0  0  0  0  0  0
  -26.7240  -13.2290   20.1440 N   0  0  0  0  0  0  0  0  0  0  0  0
  -26.3280  -11.9540   20.3950 N   0  0  0  0  0  0  0  0  0  0  0  0
  -24.2770  -10.7940   20.9160 C   0  0  0  0  0  0  0  0  0  0  0  0
  -24.6550   -9.8190   21.8660 C   0  0  0  0  0  3  0  0  0  0  0  0
  -23.8870   -8.6470   22.0330 C   0  0  0  0  0  3  0  0  0  0  0  0
  -22.7250   -8.4410   21.2510 C   0  0  0  0  0  0  0  0  0  0  0  0
  -22.3670   -9.4040   20.2910 C   0  0  0  0  0  3  0  0  0  0  0  0
  -23.1360  -10.5670   20.1220 C   0  0  0  0  0  3  0  0  0  0  0  0
  -21.9320   -7.3220   21.3270 O   0  0  0  0  0  0  0  0  0  0  0  0
  -21.7990   -6.6130   22.4940 C   0  0  0  0  0  0  0  0  0  0  0  0
  -21.2900   -7.2030   23.6710 C   0  0  0  0  0  3  0  0  0  0  0  0
  -21.1040   -6.4190   24.8280 C   0  0  0  0  0  3  0  0  0  0  0  0
  -21.4170   -5.0480   24.8070 C   0  0  0  0  0  0  0  0  0  0  0  0
  -21.9200   -4.4570   23.6340 C   0  0  0  0  0  3  0  0  0  0  0  0
  -22.1060   -5.2370   22.4800 C   0  0  0  0  0  0  0  0  0  0  0  0
  -22.5700   -4.6580   21.3470 F   0  0  0  0  0  0  0  0  0  0  0  0
  -21.2320   -4.2930   25.9170 F   0  0  0  0  0  0  0  0  0  0  0  0
  -23.2660  -13.9220   21.1200 C   0  0  0  0  0  0  0  0  0  0  0  0
  -22.5320  -13.2370   21.9890 N   0  0  0  0  0  0  0  0  0  0  0  0
  -22.8560  -14.9730   20.6300 O   0  0  0  0  0  0  0  0  0  0  0  0
  -22.8760  -12.3860   22.4080 H   0  0  0  0  0  0  0  0  0  0  0  0
  -21.6110  -13.5690   22.2410 H   0  0  0  0  0  0  0  0  0  0  0  0
  -25.9320  -15.5070   20.2730 N   0  0  0  0  0  0  0  0  0  0  0  0
  -25.1940  -16.1870   20.4140 H   0  0  0  0  0  0  0  0  0  0  0  0
  -26.7850  -15.9150   19.9120 H   0  0  0  0  0  0  0  0  0  0  0  0
  -28.0390  -24.1030   18.8950 C   0  0  0  0  0  2  0  0  0  0  0  0
  -29.2640  -23.7790   19.7230 C   0  0  0  0  0  3  0  0  0  0  0  0
  -28.2830  -25.0070   20.0880 C   0  0  0  0  0  3  0  0  0  0  0  0
  -28.4870  -26.4710   19.7510 O   0  0  0  0  0  0  0  0  0  0  0  0
  -24.5710  -31.6430   23.0650 C   0  0  0  0  0  0  0  0  0  0  0  0
  -27.3540  -27.3220   19.7670 C   0  0  0  0  0  0  0  0  0  0  0  0
  -23.4140  -30.2540   21.3870 C   0  0  0  0  0  3  0  0  0  0  0  0
  -24.9170  -28.8470   19.8630 C   0  0  0  0  0  0  0  0  0  0  0  0
  -25.9340  -30.7070   21.1740 C   0  0  0  0  0  2  0  0  0  0  0  0
  -26.0760  -29.3610   20.4610 C   0  0  0  0  0  0  0  0  0  0  0  0
  -27.2990  -28.6150   20.3940 C   0  0  0  0  0  3  0  0  0  0  0  0
  -26.1670  -26.8780   19.1460 C   0  0  0  0  0  3  0  0  0  0  0  0
  -24.9690  -27.6160   19.1940 C   0  0  0  0  0  3  0  0  0  0  0  0
  -23.6380  -29.6550   19.9730 C   0  0  0  0  0  2  0  0  0  0  0  0
  -24.6600  -30.8860   21.9320 N   0  0  0  0  0  0  0  0  0  0  0  0
  -23.4840  -31.8360   23.6300 O   0  0  0  0  0  0  0  0  0  0  0  0
  -22.8260  -29.1620   22.3120 C   0  0  0  0  0  0  0  0  0  0  0  0
  -21.5170  -28.8860   22.1720 N   0  0  0  0  0  0  0  0  0  0  0  0
  -23.5460  -28.5670   23.1180 O   0  0  0  0  0  0  0  0  0  0  0  0
  -20.9900  -29.4230   21.4970 H   0  0  0  0  0  0  0  0  0  0  0  0
  -18.2490  -27.3840   22.5860 C   0  0  0  0  0  0  0  0  0  0  0  0
  -20.7700  -27.8640   22.9090 C   0  0  0  0  0  3  0  0  0  0  0  0
  -21.0080  -26.4590   22.3090 C   0  0  0  0  0  2  0  0  0  0  0  0
  -19.9570  -26.0610   21.2680 C   0  0  0  0  0  2  0  0  0  0  0  0
  -18.5570  -26.0700   21.8880 C   0  0  0  0  0  2  0  0  0  0  0  0
  -19.2890  -28.2340   23.0510 C   0  0  0  0  0  0  0  0  0  0  0  0
  -18.9480  -29.4590   23.6640 C   0  0  0  0  0  3  0  0  0  0  0  0
  -17.6010  -29.8390   23.8150 C   0  0  0  0  0  3  0  0  0  0  0  0
  -16.5760  -28.9870   23.3650 C   0  0  0  0  0  3  0  0  0  0  0  0
  -16.9010  -27.7620   22.7570 C   0  0  0  0  0  3  0  0  0  0  0  0
  -25.8270  -32.3200   23.6940 C   0  0  0  0  0  3  0  0  0  0  0  0
  -25.4560  -33.6960   24.0600 N   0  0  0  0  0  0  0  0  0  0  0  0
  -25.7480  -34.7830   23.3360 C   0  0  0  0  0  0  0  0  0  0  0  0
  -26.4280  -34.7380   22.3070 O   0  0  0  0  0  0  0  0  0  0  0  0
  -24.8490  -33.8010   24.8610 H   0  0  0  0  0  0  0  0  0  0  0  0
  -23.9530  -36.5180   23.0190 C   0  0  0  0  0  1  0  0  0  0  0  0
  -25.2010  -36.1370   23.8300 C   0  0  0  0  0  3  0  0  0  0  0  0
  -27.2880  -37.0840   24.7140 C   0  0  0  0  0  1  0  0  0  0  0  0
  -26.1920  -37.2330   23.7610 N   0  0  0  0  0  0  0  0  0  0  0  0
  -25.7480  -38.1320   23.9260 H   0  0  0  0  0  0  0  0  0  0  0  0
  -26.3870  -31.5460   24.9500 C   0  0  1  0  0  0  0  0  0  0  0  0
  -25.3100  -31.2220   26.0120 C   0  0  0  0  0  1  0  0  0  0  0  0
  -27.0430  -30.2120   24.5240 C   0  0  0  0  0  1  0  0  0  0  0  0
  -27.4940  -32.3840   25.6310 C   0  0  0  0  0  1  0  0  0  0  0  0
  -30.6070  -20.2840   24.7610 C   0  0  0  0  0  1  0  0  0  0  0  0
  -30.1470  -21.3910   23.9940 O   0  0  0  0  0  0  0  0  0  0  0  0
  1  6  1  0
  2  1  2  0
  3  5  1  0
  4  3  2  0
  4  2  1  0
  5  8  1  0
  5  6  2  0
  6 94  1  0
  7  4  1  0
 10 15  1  0
 11 12  1  0
 11 10  1  0
 13 12  1  0
 13 24  1  0
 13 14  1  0
 15  9  1  0
 15 14  1  0
 16  9  2  0
 17 20  1  0
 17 19  1  0
 19  2  1  0
 19 18  1  0
 20  9  1  0
 20 18  1  0
 21 22  2  0
 22 41  1  0
 23 22  1  0
 23 26  1  0
 24 25  1  0
 24 21  1  0
 25 23  2  0
 26 27  1  0
 27 28  2  0
 29 32  1  0
 29 28  1  0
 30 29  2  0
 31 30  1  0
 31 26  2  0
 32 33  1  0
 33 34  1  0
 34 35  2  0
 36 35  1  0
 36 40  1  0
 37 36  2  0
 38 33  2  0
 38 37  1  0
 39 38  1  0
 41 42  1  0
 42 45  1  0
 42 44  1  0
 43 41  2  0
 46 47  1  0
 46 21  1  0
 48 46  1  0
 49 50  1  0
 49 51  1  0
 50 51  1  0
 50  3  1  0
 51 52  1  0
 52 54  1  0
 53 64  2  0
 54 59  1  0
 55 63  1  0
 55 65  1  0
 56 62  1  0
 56 58  1  0
 57 63  1  0
 58 57  1  0
 59 58  2  0
 60 61  1  0
 60 54  2  0
 61 56  2  0
 62 55  1  0
 63 53  1  0
 65 67  2  0
 66 65  1  0
 68 66  1  0
 69 78  2  0
 69 74  1  0
 70 66  1  0
 70 74  1  0
 71 70  1  0
 72 73  1  0
 72 71  1  0
 73 69  1  0
 74 75  2  0
 75 76  1  0
 77 76  2  0
 78 77  1  0
 79 53  1  0
 79 80  1  0
 79 89  1  0
 80 83  1  0
 81 85  1  0
 81 80  1  0
 82 81  2  0
 85 84  1  0
 87 85  1  0
 87 88  1  0
 87 86  1  0
 89 92  1  1
 89 90  1  0
 91 89  1  0
 94 93  1  0
M  ISO  4   9 100  20 100  51 101  52 101
M  END
>  <TORSDO>  (84) 
F 18

>  <SCORE>  (84) 
-13.604

>  <name>  (84) 
83

>  <ligand_id>  (84) 
83

>  <original_smiles>  (84) 
[H]c1c([H])c([H])c2c(c1[H])C([H])([H])C([H])([H])C([H])([H])C2([H])N([H])C(=O)C1([H])N(C(=O)C([H])(N([H])C(=O)C([H])(N([H])C([H])([H])[H])C([H])([H])[H])C(C([H])([H])[H])(C([H])([H])[H])C([H])([H])[H])C([H])([H])c2c([H])c(OC3([H])C([H])([H])C3([H])c3c(C([H])([H])[H])c(OC([H])([H])[H])c([H])c(C4([H])C([H])([H])N(C(=O)N5C([H])([H])C([H])([H])C([H])([H])C([H])(n6nc(-c7c([H])c([H])c(Oc8c([H])c([H])c(F)c([H])c8F)c([H])c7[H])c(C(=O)N([H])[H])c6N([H])[H])C5([H])[H])C4([H])[H])c3C([H])([H])[H])c([H])c([H])c2C1([H])[H]

>  <smiles>  (84) 
[H]c1c([H])c([H])c2c(c1[H])C([H])([H])C([H])([H])C([H])([H])C2([H])N([H])C(=O)C1([H])N(C(=O)C([H])(N([H])C(=O)C([H])(N([H])C([H])([H])[H])C([H])([H])[H])C(C([H])([H])[H])(C([H])([H])[H])C([H])([H])[H])C([H])([H])c2c([H])c(OC3([H])C([H])([H])C3([H])c3c(C([H])([H])[H])c(OC([H])([H])[H])c([H])c(C4([H])C([H])([H])N(C(=O)N5C([H])([H])C([H])([H])C([H])([H])C([H])(n6nc(-c7c([H])c([H])c(Oc8c([H])c([H])c(F)c([H])c8F)c([H])c7[H])c(C(=O)N([H])[H])c6N([H])[H])C5([H])[H])C4([H])[H])c3C([H])([H])[H])c([H])c([H])c2C1([H])[H]

$$$$
84:0:0
     RDKit          3D

 96107  0  0  1  0  0  0  0  0999 V2000
  -29.4820  -21.0610   21.7760 C   0  0  0  0  0  3  0  0  0  0  0  0
  -30.0340  -20.4920   19.4990 C   0  0  0  0  0  3  0  0  0  0  0  0
  -29.8150  -20.0710   20.8260 C   0  0  0  0  0  0  0  0  0  0  0  0
  -29.3610  -22.4320   21.4280 C   0  0  0  0  0  0  0  0  0  0  0  0
  -29.5480  -22.8520   20.0830 C   0  0  0  0  0  0  0  0  0  0  0  0
  -29.9110  -21.8560   19.1290 C   0  0  0  0  0  0  0  0  0  0  0  0
  -30.1910  -22.2240   17.6810 C   0  0  0  0  0  1  0  0  0  0  0  0
  -30.7440  -14.5950   20.1030 C   0  0  0  0  0  0  0  0  0  0  0  0
  -30.3390  -12.4420   18.9320 C   0  0  0  0  0  2  0  0  0  0  0  0
  -29.3300  -12.6120   17.7780 C   0  0  0  0  0  2  0  0  0  0  0  0
  -27.8900  -12.4260   18.2900 C   0  0  0  0  0  2  0  0  0  0  0  0
  -27.6120  -13.2710   19.5570 C   0  0  0  0  0  3  0  0  0  0  0  0
  -28.7340  -13.0860   20.6130 C   0  0  0  0  0  2  0  0  0  0  0  0
  -30.0140  -13.4370   19.9800 N   0  0  0  0  0  0  0  0  0  0  0  0
  -31.8190  -14.7070   19.5060 O   0  0  0  0  0  0  0  0  0  0  0  0
  -28.9050  -17.6570   20.5630 C   0  0  0  0  0  2  0  0  0  0  0  0
  -31.3180  -17.9530   21.0630 C   0  0  0  0  0  2  0  0  0  0  0  0
  -29.0010  -16.2020   21.0950 C   0  0  0  0  0  2  0  0  0  0  0  0
  -31.3540  -16.4890   21.5910 C   0  0  0  0  0  2  0  0  0  0  0  0
  -29.9240  -18.5860   21.2470 C   0  0  0  0  0  3  0  0  0  0  0  0
  -30.3490  -15.6040   20.9510 N   0  0  0  0  0  0  0  0  0  0  0  0
  -25.2780  -13.8920   20.4420 C   0  0  0  0  0  0  0  0  0  0  0  0
  -24.2260  -13.1210   20.8560 C   0  0  0  0  0  0  0  0  0  0  0  0
  -24.6680  -11.7660   20.7560 C   0  0  0  0  0  0  0  0  0  0  0  0
  -26.2930  -13.0040   20.1160 N   0  0  0  0  0  0  0  0  0  0  0  0
  -25.9350  -11.7200   20.3670 N   0  0  0  0  0  0  0  0  0  0  0  0
  -23.9400  -10.5070   20.9500 C   0  0  0  0  0  0  0  0  0  0  0  0
  -24.3780   -9.5390   21.8800 C   0  0  0  0  0  3  0  0  0  0  0  0
  -23.6530   -8.3410   22.0610 C   0  0  0  0  0  3  0  0  0  0  0  0
  -22.4760   -8.1060   21.3120 C   0  0  0  0  0  0  0  0  0  0  0  0
  -22.0580   -9.0630   20.3700 C   0  0  0  0  0  3  0  0  0  0  0  0
  -22.7850  -10.2510   20.1870 C   0  0  0  0  0  3  0  0  0  0  0  0
  -21.7210   -6.9610   21.4020 O   0  0  0  0  0  0  0  0  0  0  0  0
  -21.6210   -6.2580   22.5750 C   0  0  0  0  0  0  0  0  0  0  0  0
  -21.1220   -6.8470   23.7570 C   0  0  0  0  0  3  0  0  0  0  0  0
  -20.9710   -6.0680   24.9230 C   0  0  0  0  0  3  0  0  0  0  0  0
  -21.3090   -4.7010   24.9050 C   0  0  0  0  0  0  0  0  0  0  0  0
  -21.8000   -4.1110   23.7270 C   0  0  0  0  0  3  0  0  0  0  0  0
  -21.9530   -4.8880   22.5640 C   0  0  0  0  0  0  0  0  0  0  0  0
  -22.4080   -4.3110   21.4260 F   0  0  0  0  0  0  0  0  0  0  0  0
  -21.1560   -3.9500   26.0200 F   0  0  0  0  0  0  0  0  0  0  0  0
  -22.8530  -13.6040   21.2280 C   0  0  0  0  0  0  0  0  0  0  0  0
  -22.1680  -12.8840   22.1100 N   0  0  0  0  0  0  0  0  0  0  0  0
  -22.3990  -14.6530   20.7720 O   0  0  0  0  0  0  0  0  0  0  0  0
  -22.5490  -12.0350   22.5000 H   0  0  0  0  0  0  0  0  0  0  0  0
  -21.2490  -13.1890   22.4000 H   0  0  0  0  0  0  0  0  0  0  0  0
  -25.4450  -15.2650   20.2920 N   0  0  0  0  0  0  0  0  0  0  0  0
  -24.6920  -15.9210   20.4700 H   0  0  0  0  0  0  0  0  0  0  0  0
  -26.2710  -15.7070   19.9090 H   0  0  0  0  0  0  0  0  0  0  0  0
  -29.9490  -24.5710   22.8420 C   0  0  0  0  0  2  0  0  0  0  0  0
  -29.8130  -23.4260   23.8160 C   0  0  0  0  0  2  0  0  0  0  0  0
  -29.0330  -23.4110   22.5190 C   0  0  0  0  0  3  0  0  0  0  0  0
  -28.4510  -24.7180   18.5620 C   0  0  0  0  0  2  0  0  0  0  0  0
  -29.4130  -24.3280   19.6700 C   0  0  0  0  0  3  0  0  0  0  0  0
  -28.2010  -25.2290   19.9540 C   0  0  0  0  0  3  0  0  0  0  0  0
  -28.3720  -26.6690   20.0160 O   0  0  0  0  0  0  0  0  0  0  0  0
  -24.5930  -31.8510   23.1640 C   0  0  0  0  0  0  0  0  0  0  0  0
  -27.2080  -27.4240   20.0040 C   0  0  0  0  0  0  0  0  0  0  0  0
  -23.3670  -30.4510   21.5380 C   0  0  0  0  0  3  0  0  0  0  0  0
  -24.8040  -28.9380   20.0690 C   0  0  0  0  0  0  0  0  0  0  0  0
  -25.8880  -30.8270   21.2920 C   0  0  0  0  0  2  0  0  0  0  0  0
  -25.9730  -29.4600   20.6370 C   0  0  0  0  0  0  0  0  0  0  0  0
  -27.1780  -28.7130   20.5950 C   0  0  0  0  0  3  0  0  0  0  0  0
  -26.0140  -26.9310   19.4240 C   0  0  0  0  0  3  0  0  0  0  0  0
  -24.8220  -27.6740   19.4570 C   0  0  0  0  0  3  0  0  0  0  0  0
  -23.5540  -29.7860   20.1490 C   0  0  0  0  0  2  0  0  0  0  0  0
  -24.6350  -31.0570   22.0560 N   0  0  0  0  0  0  0  0  0  0  0  0
  -23.5200  -32.1090   23.7280 O   0  0  0  0  0  0  0  0  0  0  0  0
  -22.7430  -29.4160   22.5040 C   0  0  0  0  0  0  0  0  0  0  0  0
  -21.4180  -29.2190   22.3990 N   0  0  0  0  0  0  0  0  0  0  0  0
  -23.4470  -28.7960   23.3040 O   0  0  0  0  0  0  0  0  0  0  0  0
  -20.9090  -29.7740   21.7240 H   0  0  0  0  0  0  0  0  0  0  0  0
  -18.0680  -27.9780   22.9440 C   0  0  0  0  0  0  0  0  0  0  0  0
  -20.6260  -28.2670   23.1780 C   0  0  0  0  0  3  0  0  0  0  0  0
  -20.7380  -26.8400   22.5930 C   0  0  0  0  0  2  0  0  0  0  0  0
  -19.6250  -26.5070   21.5950 C   0  0  0  0  0  2  0  0  0  0  0  0
  -18.2510  -26.6320   22.2610 C   0  0  0  0  0  2  0  0  0  0  0  0
  -19.1830  -28.7520   23.3610 C   0  0  0  0  0  0  0  0  0  0  0  0
  -18.9570  -30.0100   23.9600 C   0  0  0  0  0  3  0  0  0  0  0  0
  -17.6500  -30.4940   24.1460 C   0  0  0  0  0  3  0  0  0  0  0  0
  -16.5490  -29.7180   23.7470 C   0  0  0  0  0  3  0  0  0  0  0  0
  -16.7590  -28.4600   23.1520 C   0  0  0  0  0  3  0  0  0  0  0  0
  -25.8860  -32.4900   23.7620 C   0  0  0  0  0  3  0  0  0  0  0  0
  -25.5660  -33.8780   24.1230 N   0  0  0  0  0  0  0  0  0  0  0  0
  -25.8740  -34.9470   23.3770 C   0  0  0  0  0  0  0  0  0  0  0  0
  -26.5280  -34.8690   22.3330 O   0  0  0  0  0  0  0  0  0  0  0  0
  -24.9850  -34.0110   24.9370 H   0  0  0  0  0  0  0  0  0  0  0  0
  -24.1300  -36.7320   23.0710 C   0  0  0  0  0  1  0  0  0  0  0  0
  -25.3780  -36.3210   23.8670 C   0  0  0  0  0  3  0  0  0  0  0  0
  -27.5080  -37.2070   24.7070 C   0  0  0  0  0  1  0  0  0  0  0  0
  -26.4010  -37.3840   23.7710 N   0  0  0  0  0  0  0  0  0  0  0  0
  -25.9880  -38.2980   23.9380 H   0  0  0  0  0  0  0  0  0  0  0  0
  -26.4470  -31.7030   25.0100 C   0  0  1  0  0  0  0  0  0  0  0  0
  -25.3850  -31.4250   26.0990 C   0  0  0  0  0  1  0  0  0  0  0  0
  -27.0440  -30.3450   24.5750 C   0  0  0  0  0  1  0  0  0  0  0  0
  -27.5990  -32.5060   25.6590 C   0  0  0  0  0  1  0  0  0  0  0  0
  2  3  1  0
  3  1  2  0
  4  1  1  0
  4 52  1  0
  5  4  2  0
  6  2  2  0
  6  5  1  0
  7  6  1  0
  8 21  1  0
  9 14  1  0
 10 11  1  0
 10  9  1  0
 12 11  1  0
 12 25  1  0
 12 13  1  0
 14  8  1  0
 14 13  1  0
 15  8  2  0
 16 18  1  0
 16 20  1  0
 17 20  1  0
 17 19  1  0
 20  3  1  0
 21 18  1  0
 21 19  1  0
 22 23  2  0
 23 42  1  0
 24 23  1  0
 24 27  1  0
 25 26  1  0
 25 22  1  0
 26 24  2  0
 27 28  1  0
 28 29  2  0
 30 33  1  0
 30 29  1  0
 31 30  2  0
 32 31  1  0
 32 27  2  0
 33 34  1  0
 34 35  1  0
 35 36  2  0
 37 36  1  0
 37 41  1  0
 38 37  2  0
 39 34  2  0
 39 38  1  0
 40 39  1  0
 42 43  1  0
 43 46  1  0
 43 45  1  0
 44 42  2  0
 47 22  1  0
 47 48  1  0
 49 47  1  0
 50 51  1  0
 52 50  1  0
 52 51  1  0
 53 54  1  0
 53 55  1  0
 54 55  1  0
 54  5  1  0
 55 56  1  0
 57 68  2  0
 58 56  1  0
 58 63  1  0
 59 67  1  0
 59 69  1  0
 60 66  1  0
 60 62  1  0
 61 67  1  0
 62 61  1  0
 63 62  2  0
 64 65  1  0
 64 58  2  0
 65 60  2  0
 66 59  1  0
 67 57  1  0
 69 71  2  0
 70 69  1  0
 72 70  1  0
 73 82  2  0
 73 78  1  0
 74 70  1  0
 74 78  1  0
 75 74  1  0
 76 77  1  0
 76 75  1  0
 77 73  1  0
 78 79  2  0
 79 80  1  0
 81 80  2  0
 82 81  1  0
 83 57  1  0
 83 84  1  0
 83 93  1  0
 84 87  1  0
 85 89  1  0
 85 84  1  0
 86 85  2  0
 89 88  1  0
 91 89  1  0
 91 92  1  0
 91 90  1  0
 93 96  1  1
 93 94  1  0
 95 93  1  0
M  ISO  4   8 100  21 100  55 101  56 101
M  END
>  <TORSDO>  (85) 
F 18

>  <SCORE>  (85) 
-14.275

>  <name>  (85) 
84

>  <ligand_id>  (85) 
84

>  <original_smiles>  (85) 
[H]c1c([H])c([H])c2c(c1[H])C([H])([H])C([H])([H])C([H])([H])C2([H])N([H])C(=O)C1([H])N(C(=O)C([H])(N([H])C(=O)C([H])(N([H])C([H])([H])[H])C([H])([H])[H])C(C([H])([H])[H])(C([H])([H])[H])C([H])([H])[H])C([H])([H])c2c([H])c(OC3([H])C([H])([H])C3([H])c3c(C([H])([H])[H])c([H])c(C4([H])C([H])([H])C([H])([H])N(C(=O)N5C([H])([H])C([H])([H])C([H])([H])C([H])(n6nc(-c7c([H])c([H])c(Oc8c([H])c([H])c(F)c([H])c8F)c([H])c7[H])c(C(=O)N([H])[H])c6N([H])[H])C5([H])[H])C([H])([H])C4([H])[H])c([H])c3C3([H])C([H])([H])C3([H])[H])c([H])c([H])c2C1([H])[H]

>  <smiles>  (85) 
[H]c1c([H])c([H])c2c(c1[H])C([H])([H])C([H])([H])C([H])([H])C2([H])N([H])C(=O)C1([H])N(C(=O)C([H])(N([H])C(=O)C([H])(N([H])C([H])([H])[H])C([H])([H])[H])C(C([H])([H])[H])(C([H])([H])[H])C([H])([H])[H])C([H])([H])c2c([H])c(OC3([H])C([H])([H])C3([H])c3c(C([H])([H])[H])c([H])c(C4([H])C([H])([H])C([H])([H])N(C(=O)N5C([H])([H])C([H])([H])C([H])([H])C([H])(n6nc(-c7c([H])c([H])c(Oc8c([H])c([H])c(F)c([H])c8F)c([H])c7[H])c(C(=O)N([H])[H])c6N([H])[H])C5([H])[H])C([H])([H])C4([H])[H])c([H])c3C3([H])C([H])([H])C3([H])[H])c([H])c([H])c2C1([H])[H]

$$$$
85:0:0
     RDKit          3D

 96105  0  0  1  0  0  0  0  0999 V2000
  -30.6370  -21.6160   18.7500 C   0  0  0  0  0  2  0  0  0  0  0  0
  -30.3420  -23.1230   18.7410 C   0  0  0  0  0  2  0  0  0  0  0  0
  -30.7350  -21.2480   20.2280 C   0  0  0  0  0  3  0  0  0  0  0  0
  -29.7180  -22.2240   20.8680 C   0  0  0  0  0  3  0  0  0  0  0  0
  -29.9690  -22.4250   22.3700 C   0  0  0  0  0  1  0  0  0  0  0  0
  -29.8440  -23.4920   20.0940 N   0  0  2  0  0  4  0  0  0  0  0  0
  -30.5940  -24.0120   20.5270 H   0  0  0  0  0  0  0  0  0  0  0  0
  -29.3050  -19.1340   20.2200 C   0  0  0  0  0  3  0  0  0  0  0  0
  -30.5390  -19.7420   20.5020 C   0  0  0  0  0  0  0  0  0  0  0  0
  -29.1470  -17.7480   20.3930 C   0  0  0  0  0  0  0  0  0  0  0  0
  -31.5690  -18.8940   20.9810 C   0  0  0  0  0  0  0  0  0  0  0  0
  -30.2400  -16.9520   20.8080 C   0  0  0  0  0  0  0  0  0  0  0  0
  -27.8010  -17.1440   20.0680 C   0  0  0  0  0  1  0  0  0  0  0  0
  -32.9400  -19.4250   21.3570 C   0  0  0  0  0  1  0  0  0  0  0  0
  -31.4150  -17.5530   21.1230 N   0  0  0  0  0  0  0  0  0  0  0  0
  -30.6790  -14.5440   20.2730 C   0  0  0  0  0  0  0  0  0  0  0  0
  -30.3020  -12.4270   19.0580 C   0  0  0  0  0  2  0  0  0  0  0  0
  -29.3110  -12.6780   17.9020 C   0  0  0  0  0  2  0  0  0  0  0  0
  -27.8560  -12.5200   18.3850 C   0  0  0  0  0  2  0  0  0  0  0  0
  -27.5710  -13.3080   19.6920 C   0  0  0  0  0  3  0  0  0  0  0  0
  -28.6770  -13.0600   20.7460 C   0  0  0  0  0  2  0  0  0  0  0  0
  -29.9810  -13.3780   20.1340 N   0  0  0  0  0  0  0  0  0  0  0  0
  -31.7860  -14.7060   19.7520 O   0  0  0  0  0  0  0  0  0  0  0  0
  -30.0160  -15.5410   20.8970 N   0  0  0  0  0  0  0  0  0  0  0  0
  -29.1070  -15.2740   21.2320 H   0  0  0  0  0  0  0  0  0  0  0  0
  -25.1930  -13.8790   20.5060 C   0  0  0  0  0  0  0  0  0  0  0  0
  -24.1480  -13.0960   20.9100 C   0  0  0  0  0  0  0  0  0  0  0  0
  -24.6140  -11.7510   20.8250 C   0  0  0  0  0  0  0  0  0  0  0  0
  -26.2370  -13.0140   20.2180 N   0  0  0  0  0  0  0  0  0  0  0  0
  -25.8920  -11.7250   20.4630 N   0  0  0  0  0  0  0  0  0  0  0  0
  -23.8980  -10.4840   21.0080 C   0  0  0  0  0  0  0  0  0  0  0  0
  -24.3280   -9.5220   21.9460 C   0  0  0  0  0  3  0  0  0  0  0  0
  -23.6090   -8.3180   22.1180 C   0  0  0  0  0  3  0  0  0  0  0  0
  -22.4460   -8.0710   21.3510 C   0  0  0  0  0  0  0  0  0  0  0  0
  -22.0360   -9.0240   20.4010 C   0  0  0  0  0  3  0  0  0  0  0  0
  -22.7560  -10.2170   20.2270 C   0  0  0  0  0  3  0  0  0  0  0  0
  -21.7010   -6.9210   21.4320 O   0  0  0  0  0  0  0  0  0  0  0  0
  -21.6120   -6.2020   22.5970 C   0  0  0  0  0  0  0  0  0  0  0  0
  -21.0560   -6.7540   23.7720 C   0  0  0  0  0  3  0  0  0  0  0  0
  -20.9180   -5.9590   24.9260 C   0  0  0  0  0  3  0  0  0  0  0  0
  -21.3270   -4.6120   24.9080 C   0  0  0  0  0  0  0  0  0  0  0  0
  -21.8780   -4.0600   23.7380 C   0  0  0  0  0  3  0  0  0  0  0  0
  -22.0170   -4.8520   22.5860 C   0  0  0  0  0  0  0  0  0  0  0  0
  -22.5290   -4.3090   21.4540 F   0  0  0  0  0  0  0  0  0  0  0  0
  -21.1880   -3.8460   26.0150 F   0  0  0  0  0  0  0  0  0  0  0  0
  -22.7630  -13.5660   21.2500 C   0  0  0  0  0  0  0  0  0  0  0  0
  -22.0670  -12.8460   22.1230 N   0  0  0  0  0  0  0  0  0  0  0  0
  -22.3070  -14.6080   20.7800 O   0  0  0  0  0  0  0  0  0  0  0  0
  -22.4460  -12.0010   22.5250 H   0  0  0  0  0  0  0  0  0  0  0  0
  -21.1400  -13.1430   22.3910 H   0  0  0  0  0  0  0  0  0  0  0  0
  -25.3170  -15.2490   20.3340 N   0  0  0  0  0  0  0  0  0  0  0  0
  -24.5170  -15.8640   20.4370 H   0  0  0  0  0  0  0  0  0  0  0  0
  -26.0840  -15.6800   19.8400 H   0  0  0  0  0  0  0  0  0  0  0  0
  -28.6290  -24.3700   20.1030 C   0  0  0  0  0  2  0  0  0  0  0  0
  -28.8270  -25.7380   19.3950 C   0  0  0  0  0  2  0  0  0  0  0  0
  -28.5380  -26.8530   20.2500 O   0  0  0  0  0  0  0  0  0  0  0  0
  -24.5550  -31.9070   23.2490 C   0  0  0  0  0  0  0  0  0  0  0  0
  -27.3200  -27.5020   20.2060 C   0  0  0  0  0  0  0  0  0  0  0  0
  -23.3960  -30.4960   21.5760 C   0  0  0  0  0  3  0  0  0  0  0  0
  -24.8950  -28.9710   20.1820 C   0  0  0  0  0  0  0  0  0  0  0  0
  -25.9200  -30.8810   21.4310 C   0  0  0  0  0  2  0  0  0  0  0  0
  -26.0310  -29.5090   20.7960 C   0  0  0  0  0  0  0  0  0  0  0  0
  -27.2380  -28.7780   20.8110 C   0  0  0  0  0  3  0  0  0  0  0  0
  -26.1560  -26.9650   19.6040 C   0  0  0  0  0  3  0  0  0  0  0  0
  -24.9510  -27.6970   19.5880 C   0  0  0  0  0  3  0  0  0  0  0  0
  -23.6410  -29.8180   20.2000 C   0  0  0  0  0  2  0  0  0  0  0  0
  -24.6410  -31.1100   22.1460 N   0  0  0  0  0  0  0  0  0  0  0  0
  -23.4610  -32.1670   23.7660 O   0  0  0  0  0  0  0  0  0  0  0  0
  -22.7350  -29.4690   22.5220 C   0  0  0  0  0  0  0  0  0  0  0  0
  -21.4120  -29.2880   22.3780 N   0  0  0  0  0  0  0  0  0  0  0  0
  -23.4100  -28.8360   23.3400 O   0  0  0  0  0  0  0  0  0  0  0  0
  -20.9290  -29.8510   21.6920 H   0  0  0  0  0  0  0  0  0  0  0  0
  -18.0230  -28.1410   22.8740 C   0  0  0  0  0  0  0  0  0  0  0  0
  -20.5870  -28.3440   23.1300 C   0  0  0  0  0  3  0  0  0  0  0  0
  -20.6580  -26.9270   22.5120 C   0  0  0  0  0  2  0  0  0  0  0  0
  -19.5410  -26.6540   21.4990 C   0  0  0  0  0  2  0  0  0  0  0  0
  -18.1690  -26.8080   22.1600 C   0  0  0  0  0  2  0  0  0  0  0  0
  -19.1590  -28.8690   23.3150 C   0  0  0  0  0  0  0  0  0  0  0  0
  -18.9690  -30.1200   23.9420 C   0  0  0  0  0  3  0  0  0  0  0  0
  -17.6760  -30.6410   24.1330 C   0  0  0  0  0  3  0  0  0  0  0  0
  -16.5540  -29.9070   23.7090 C   0  0  0  0  0  3  0  0  0  0  0  0
  -16.7280  -28.6600   23.0840 C   0  0  0  0  0  3  0  0  0  0  0  0
  -25.8230  -32.5490   23.8960 C   0  0  0  0  0  3  0  0  0  0  0  0
  -26.3020  -31.7980   25.1990 C   0  0  1  0  0  0  0  0  0  0  0  0
  -25.1770  -31.5730   26.2350 C   0  0  0  0  0  1  0  0  0  0  0  0
  -26.9020  -30.4170   24.8420 C   0  0  0  0  0  1  0  0  0  0  0  0
  -27.4270  -32.6060   25.8870 C   0  0  0  0  0  1  0  0  0  0  0  0
  -25.5080  -33.9520   24.1950 N   0  0  0  0  0  0  0  0  0  0  0  0
  -25.8680  -34.9900   23.4290 C   0  0  0  0  0  0  0  0  0  0  0  0
  -26.5730  -34.8680   22.4230 O   0  0  0  0  0  0  0  0  0  0  0  0
  -24.8920  -34.1210   24.9760 H   0  0  0  0  0  0  0  0  0  0  0  0
  -24.1800  -36.7900   22.9560 C   0  0  0  0  0  1  0  0  0  0  0  0
  -25.3680  -36.3860   23.8440 C   0  0  0  0  0  3  0  0  0  0  0  0
  -27.4520  -37.2680   24.7960 C   0  0  0  0  0  1  0  0  0  0  0  0
  -26.4140  -37.4300   23.7820 N   0  0  0  0  0  0  0  0  0  0  0  0
  -26.0080  -38.3550   23.8910 H   0  0  0  0  0  0  0  0  0  0  0  0
  1  3  1  0
  2  1  1  0
  2  6  1  0
  3  9  1  0
  3  4  1  0
  4  5  1  0
  6 54  1  0
  6  7  1  1
  6  4  1  0
  8 10  2  0
  8  9  1  0
  9 11  2  0
 10 12  1  0
 11 15  1  0
 11 14  1  0
 12 24  1  0
 12 15  2  0
 13 10  1  0
 16 24  1  0
 17 22  1  0
 18 19  1  0
 18 17  1  0
 20 19  1  0
 20 29  1  0
 20 21  1  0
 22 16  1  0
 22 21  1  0
 23 16  2  0
 24 25  1  0
 26 27  2  0
 27 46  1  0
 28 27  1  0
 28 31  1  0
 29 30  1  0
 29 26  1  0
 30 28  2  0
 31 32  1  0
 32 33  2  0
 34 37  1  0
 34 33  1  0
 35 34  2  0
 36 35  1  0
 36 31  2  0
 37 38  1  0
 38 39  1  0
 39 40  2  0
 41 40  1  0
 41 45  1  0
 42 41  2  0
 43 38  2  0
 43 42  1  0
 44 43  1  0
 46 47  1  0
 47 50  1  0
 47 49  1  0
 48 46  2  0
 51 52  1  0
 51 26  1  0
 53 51  1  0
 55 54  1  0
 55 56  1  0
 57 68  2  0
 58 56  1  0
 58 63  1  0
 59 67  1  0
 59 69  1  0
 60 66  1  0
 60 62  1  0
 61 67  1  0
 62 63  2  0
 62 61  1  0
 64 58  2  0
 65 64  1  0
 65 60  2  0
 66 59  1  0
 67 57  1  0
 69 71  2  0
 70 69  1  0
 72 70  1  0
 73 82  2  0
 73 78  1  0
 74 70  1  0
 74 78  1  0
 75 74  1  0
 76 77  1  0
 76 75  1  0
 77 73  1  0
 78 79  2  0
 79 80  1  0
 81 80  2  0
 82 81  1  0
 83 57  1  0
 83 88  1  0
 83 84  1  0
 84 87  1  1
 84 85  1  0
 86 84  1  0
 88 91  1  0
 89 93  1  0
 89 88  1  0
 90 89  2  0
 93 92  1  0
 95 93  1  0
 95 96  1  0
 95 94  1  0
M  ISO  4  16 100  24 100  55 101  56 101
M  END
>  <TORSDO>  (86) 
F 19

>  <SCORE>  (86) 
-14.863

>  <name>  (86) 
85

>  <ligand_id>  (86) 
85

>  <original_smiles>  (86) 
[H]c1c([H])c([H])c2c(c1[H])C([H])([H])C([H])([H])C([H])([H])C2([H])N([H])C(=O)C1([H])N(C(=O)C([H])(N([H])C(=O)C([H])(N([H])C([H])([H])[H])C([H])([H])[H])C(C([H])([H])[H])(C([H])([H])[H])C([H])([H])[H])C([H])([H])c2c([H])c(OC([H])([H])C([H])([H])[N+]3([H])C([H])([H])C([H])([H])C([H])(c4c(C([H])([H])[H])nc(N([H])C(=O)N5C([H])([H])C([H])([H])C([H])([H])C([H])(n6nc(-c7c([H])c([H])c(Oc8c([H])c([H])c(F)c([H])c8F)c([H])c7[H])c(C(=O)N([H])[H])c6N([H])[H])C5([H])[H])c(C([H])([H])[H])c4[H])C3([H])C([H])([H])[H])c([H])c([H])c2C1([H])[H]

>  <smiles>  (86) 
[H]c1c([H])c([H])c2c(c1[H])C([H])([H])C([H])([H])C([H])([H])C2([H])N([H])C(=O)C1([H])N(C(=O)C([H])(N([H])C(=O)C([H])(N([H])C([H])([H])[H])C([H])([H])[H])C(C([H])([H])[H])(C([H])([H])[H])C([H])([H])[H])C([H])([H])c2c([H])c(OC([H])([H])C([H])([H])[N+]3([H])C([H])([H])C([H])([H])C([H])(c4c(C([H])([H])[H])nc(N([H])C(=O)N5C([H])([H])C([H])([H])C([H])([H])C([H])(n6nc(-c7c([H])c([H])c(Oc8c([H])c([H])c(F)c([H])c8F)c([H])c7[H])c(C(=O)N([H])[H])c6N([H])[H])C5([H])[H])c(C([H])([H])[H])c4[H])C3([H])C([H])([H])[H])c([H])c([H])c2C1([H])[H]

$$$$
86:0:0
     RDKit          3D

 97106  0  0  1  0  0  0  0  0999 V2000
  -30.6230  -22.4430   22.7380 C   0  0  0  0  0  2  0  0  0  0  0  0
  -30.4610  -23.8920   22.2430 C   0  0  0  0  0  2  0  0  0  0  0  0
  -29.6960  -21.6170   21.8410 C   0  0  0  0  0  3  0  0  0  0  0  0
  -29.6970  -22.4380   20.5330 C   0  0  0  0  0  3  0  0  0  0  0  0
  -28.5630  -22.0610   19.5640 C   0  0  0  0  0  1  0  0  0  0  0  0
  -29.5970  -23.8390   21.0360 N   0  0  2  0  0  4  0  0  0  0  0  0
  -28.6590  -23.9500   21.3940 H   0  0  0  0  0  0  0  0  0  0  0  0
  -29.7950  -19.2680   20.7080 C   0  0  0  0  0  3  0  0  0  0  0  0
  -30.9750  -18.1630   22.9900 C   0  0  0  0  0  3  0  0  0  0  0  0
  -30.0020  -20.0980   21.8450 C   0  0  0  0  0  0  0  0  0  0  0  0
  -30.1800  -17.8970   20.6960 C   0  0  0  0  0  0  0  0  0  0  0  0
  -30.5790  -19.5120   23.0030 C   0  0  0  0  0  0  0  0  0  0  0  0
  -30.8150  -17.3600   21.8480 C   0  0  0  0  0  0  0  0  0  0  0  0
  -30.8220  -20.3040   24.2810 C   0  0  0  0  0  1  0  0  0  0  0  0
  -31.3830  -15.9490   21.9040 C   0  0  0  0  0  1  0  0  0  0  0  0
  -29.9730  -17.0680   19.4140 C   0  0  0  0  0  2  0  0  0  0  0  0
  -30.3180  -14.6150   19.1060 C   0  0  0  0  0  0  0  0  0  0  0  0
  -30.2180  -12.2220   18.5070 C   0  0  0  0  0  2  0  0  0  0  0  0
  -29.1550  -12.0000   17.4110 C   0  0  0  0  0  2  0  0  0  0  0  0
  -27.7620  -11.7920   18.0360 C   0  0  0  0  0  2  0  0  0  0  0  0
  -27.4160  -12.8690   19.0980 C   0  0  0  0  0  3  0  0  0  0  0  0
  -28.5840  -13.0620   20.0930 C   0  0  0  0  0  2  0  0  0  0  0  0
  -29.7950  -13.3750   19.3160 N   0  0  0  0  0  0  0  0  0  0  0  0
  -31.3280  -14.8070   18.4230 O   0  0  0  0  0  0  0  0  0  0  0  0
  -29.6150  -15.6520   19.5980 N   0  0  0  0  0  0  0  0  0  0  0  0
  -28.7770  -15.4470   20.1170 H   0  0  0  0  0  0  0  0  0  0  0  0
  -25.1630  -13.4150   20.2170 C   0  0  0  0  0  0  0  0  0  0  0  0
  -24.1800  -12.6150   20.7320 C   0  0  0  0  0  0  0  0  0  0  0  0
  -24.6420  -11.2720   20.5770 C   0  0  0  0  0  0  0  0  0  0  0  0
  -26.1650  -12.5580   19.7860 N   0  0  0  0  0  0  0  0  0  0  0  0
  -25.8630  -11.2620   20.0570 N   0  0  0  0  0  0  0  0  0  0  0  0
  -23.9710   -9.9930   20.8420 C   0  0  0  0  0  0  0  0  0  0  0  0
  -24.4820   -9.0700   21.7810 C   0  0  0  0  0  3  0  0  0  0  0  0
  -23.8070   -7.8550   22.0310 C   0  0  0  0  0  3  0  0  0  0  0  0
  -22.6070   -7.5550   21.3430 C   0  0  0  0  0  0  0  0  0  0  0  0
  -22.1160   -8.4660   20.3920 C   0  0  0  0  0  3  0  0  0  0  0  0
  -22.7910   -9.6720   20.1410 C   0  0  0  0  0  3  0  0  0  0  0  0
  -21.8980   -6.3890   21.5020 O   0  0  0  0  0  0  0  0  0  0  0  0
  -21.7810   -5.7790   22.7260 C   0  0  0  0  0  0  0  0  0  0  0  0
  -21.2170   -6.4420   23.8370 C   0  0  0  0  0  3  0  0  0  0  0  0
  -21.0510   -5.7560   25.0560 C   0  0  0  0  0  3  0  0  0  0  0  0
  -21.4400   -4.4070   25.1660 C   0  0  0  0  0  0  0  0  0  0  0  0
  -21.9970   -3.7430   24.0580 C   0  0  0  0  0  3  0  0  0  0  0  0
  -22.1640   -4.4270   22.8410 C   0  0  0  0  0  0  0  0  0  0  0  0
  -22.6830   -3.7770   21.7700 F   0  0  0  0  0  0  0  0  0  0  0  0
  -21.2740   -3.7450   26.3340 F   0  0  0  0  0  0  0  0  0  0  0  0
  -22.8430  -13.0610   21.2520 C   0  0  0  0  0  0  0  0  0  0  0  0
  -22.3110  -12.3650   22.2510 N   0  0  0  0  0  0  0  0  0  0  0  0
  -22.2850  -14.0610   20.8030 O   0  0  0  0  0  0  0  0  0  0  0  0
  -22.7810  -11.5570   22.6310 H   0  0  0  0  0  0  0  0  0  0  0  0
  -21.4230  -12.6460   22.6420 H   0  0  0  0  0  0  0  0  0  0  0  0
  -25.2810  -14.7930   20.0630 N   0  0  0  0  0  0  0  0  0  0  0  0
  -24.5380  -15.4310   20.3240 H   0  0  0  0  0  0  0  0  0  0  0  0
  -26.0650  -15.2590   19.6220 H   0  0  0  0  0  0  0  0  0  0  0  0
  -29.8140  -24.9530   20.0600 C   0  0  0  0  0  2  0  0  0  0  0  0
  -28.5150  -25.7340   19.7340 C   0  0  0  0  0  2  0  0  0  0  0  0
  -28.5690  -27.1180   20.1360 O   0  0  0  0  0  0  0  0  0  0  0  0
  -24.6910  -32.0880   23.4550 C   0  0  0  0  0  0  0  0  0  0  0  0
  -27.3870  -27.8440   20.1310 C   0  0  0  0  0  0  0  0  0  0  0  0
  -23.5040  -30.7700   21.7340 C   0  0  0  0  0  3  0  0  0  0  0  0
  -24.9760  -29.3380   20.2230 C   0  0  0  0  0  0  0  0  0  0  0  0
  -26.0280  -31.1630   21.5640 C   0  0  0  0  0  2  0  0  0  0  0  0
  -26.1280  -29.8330   20.8440 C   0  0  0  0  0  0  0  0  0  0  0  0
  -27.3350  -29.0950   20.7940 C   0  0  0  0  0  3  0  0  0  0  0  0
  -26.2110  -27.3760   19.4940 C   0  0  0  0  0  3  0  0  0  0  0  0
  -25.0120  -28.1090   19.5460 C   0  0  0  0  0  3  0  0  0  0  0  0
  -23.7210  -30.1780   20.3180 C   0  0  0  0  0  2  0  0  0  0  0  0
  -24.7580  -31.3530   22.3090 N   0  0  0  0  0  0  0  0  0  0  0  0
  -23.6050  -32.3180   24.0070 O   0  0  0  0  0  0  0  0  0  0  0  0
  -22.8640  -29.6860   22.6320 C   0  0  0  0  0  0  0  0  0  0  0  0
  -21.5500  -29.4640   22.4620 N   0  0  0  0  0  0  0  0  0  0  0  0
  -23.5490  -29.0470   23.4350 O   0  0  0  0  0  0  0  0  0  0  0  0
  -21.0570  -30.0360   21.7890 H   0  0  0  0  0  0  0  0  0  0  0  0
  -18.2080  -28.1390   22.8190 C   0  0  0  0  0  0  0  0  0  0  0  0
  -20.7480  -28.4680   23.1700 C   0  0  0  0  0  3  0  0  0  0  0  0
  -20.9130  -27.0680   22.5370 C   0  0  0  0  0  2  0  0  0  0  0  0
  -19.8500  -26.7530   21.4800 C   0  0  0  0  0  2  0  0  0  0  0  0
  -18.4470  -26.8260   22.0920 C   0  0  0  0  0  2  0  0  0  0  0  0
  -19.2890  -28.9170   23.3110 C   0  0  0  0  0  0  0  0  0  0  0  0
  -19.0140  -30.1470   23.9480 C   0  0  0  0  0  3  0  0  0  0  0  0
  -17.6900  -30.6000   24.0980 C   0  0  0  0  0  3  0  0  0  0  0  0
  -16.6230  -29.8170   23.6240 C   0  0  0  0  0  3  0  0  0  0  0  0
  -16.8820  -28.5890   22.9920 C   0  0  0  0  0  3  0  0  0  0  0  0
  -25.9680  -32.6970   24.1120 C   0  0  0  0  0  3  0  0  0  0  0  0
  -26.4770  -31.8790   25.3610 C   0  0  1  0  0  0  0  0  0  0  0  0
  -25.3680  -31.5630   26.3910 C   0  0  0  0  0  1  0  0  0  0  0  0
  -27.1040  -30.5360   24.9170 C   0  0  0  0  0  1  0  0  0  0  0  0
  -27.5940  -32.6680   26.0840 C   0  0  0  0  0  1  0  0  0  0  0  0
  -25.6530  -34.0820   24.4890 N   0  0  0  0  0  0  0  0  0  0  0  0
  -25.9970  -35.1630   23.7750 C   0  0  0  0  0  0  0  0  0  0  0  0
  -26.6840  -35.0980   22.7520 O   0  0  0  0  0  0  0  0  0  0  0  0
  -25.0420  -34.2080   25.2820 H   0  0  0  0  0  0  0  0  0  0  0  0
  -24.2540  -36.9520   23.4770 C   0  0  0  0  0  1  0  0  0  0  0  0
  -25.4990  -36.5320   24.2750 C   0  0  0  0  0  3  0  0  0  0  0  0
  -27.6250  -37.4100   25.1370 C   0  0  0  0  0  1  0  0  0  0  0  0
  -26.5240  -37.5950   24.1940 N   0  0  0  0  0  0  0  0  0  0  0  0
  -26.1110  -38.5090   24.3640 H   0  0  0  0  0  0  0  0  0  0  0  0
  2  1  1  0
  3 10  1  0
  3  1  1  0
  4  5  1  0
  4  6  1  0
  4  3  1  0
  6  7  1  1
  6  2  1  0
  8 10  1  0
  9 12  1  0
 10 12  2  0
 11  8  2  0
 11 13  1  0
 12 14  1  0
 13 15  1  0
 13  9  2  0
 16 25  1  0
 16 11  1  0
 17 23  1  0
 17 25  1  0
 18 23  1  0
 19 20  1  0
 19 18  1  0
 21 20  1  0
 21 30  1  0
 21 22  1  0
 23 22  1  0
 24 17  2  0
 25 26  1  0
 27 28  2  0
 28 47  1  0
 29 28  1  0
 29 32  1  0
 30 31  1  0
 30 27  1  0
 31 29  2  0
 32 33  1  0
 33 34  2  0
 35 38  1  0
 35 34  1  0
 36 35  2  0
 37 36  1  0
 37 32  2  0
 38 39  1  0
 39 44  2  0
 39 40  1  0
 40 41  2  0
 41 42  1  0
 42 46  1  0
 43 42  2  0
 44 43  1  0
 45 44  1  0
 47 48  1  0
 48 50  1  0
 48 51  1  0
 49 47  2  0
 52 27  1  0
 52 53  1  0
 54 52  1  0
 55  6  1  0
 56 55  1  0
 56 57  1  0
 58 69  2  0
 59 57  1  0
 59 64  1  0
 60 68  1  0
 60 70  1  0
 61 67  1  0
 61 63  1  0
 62 68  1  0
 63 62  1  0
 64 63  2  0
 65 66  1  0
 65 59  2  0
 66 61  2  0
 67 60  1  0
 68 58  1  0
 70 72  2  0
 71 70  1  0
 73 71  1  0
 74 83  2  0
 74 79  1  0
 75 71  1  0
 75 79  1  0
 76 75  1  0
 77 78  1  0
 77 76  1  0
 78 74  1  0
 79 80  2  0
 80 81  1  0
 82 81  2  0
 83 82  1  0
 84 58  1  0
 84 89  1  0
 84 85  1  0
 85 88  1  1
 85 86  1  0
 87 85  1  0
 89 92  1  0
 90 94  1  0
 90 89  1  0
 91 90  2  0
 94 93  1  0
 96 94  1  0
 96 97  1  0
 96 95  1  0
M  ISO  4  17 100  25 100  56 101  57 101
M  END
>  <TORSDO>  (87) 
F 20

>  <SCORE>  (87) 
-11.139

>  <name>  (87) 
86

>  <ligand_id>  (87) 
86

>  <original_smiles>  (87) 
[H]c1c([H])c([H])c2c(c1[H])C([H])([H])C([H])([H])C([H])([H])C2([H])N([H])C(=O)C1([H])N(C(=O)C([H])(N([H])C(=O)C([H])(N([H])C([H])([H])[H])C([H])([H])[H])C(C([H])([H])[H])(C([H])([H])[H])C([H])([H])[H])C([H])([H])c2c([H])c(OC([H])([H])C([H])([H])[N+]3([H])C([H])([H])C([H])([H])C([H])(c4c([H])c(C([H])([H])N([H])C(=O)N5C([H])([H])C([H])([H])C([H])([H])C([H])(n6nc(-c7c([H])c([H])c(Oc8c([H])c([H])c(F)c([H])c8F)c([H])c7[H])c(C(=O)N([H])[H])c6N([H])[H])C5([H])[H])c(C([H])([H])[H])c([H])c4C([H])([H])[H])C3([H])C([H])([H])[H])c([H])c([H])c2C1([H])[H]

>  <smiles>  (87) 
[H]c1c([H])c([H])c2c(c1[H])C([H])([H])C([H])([H])C([H])([H])C2([H])N([H])C(=O)C1([H])N(C(=O)C([H])(N([H])C(=O)C([H])(N([H])C([H])([H])[H])C([H])([H])[H])C(C([H])([H])[H])(C([H])([H])[H])C([H])([H])[H])C([H])([H])c2c([H])c(OC([H])([H])C([H])([H])[N+]3([H])C([H])([H])C([H])([H])C([H])(c4c([H])c(C([H])([H])N([H])C(=O)N5C([H])([H])C([H])([H])C([H])([H])C([H])(n6nc(-c7c([H])c([H])c(Oc8c([H])c([H])c(F)c([H])c8F)c([H])c7[H])c(C(=O)N([H])[H])c6N([H])[H])C5([H])[H])c(C([H])([H])[H])c([H])c4C([H])([H])[H])C3([H])C([H])([H])[H])c([H])c([H])c2C1([H])[H]

$$$$
87:0:0
     RDKit          3D

 94103  0  0  1  0  0  0  0  0999 V2000
  -27.1200  -22.1300   21.2640 C   0  0  0  0  0  3  0  0  0  0  0  0
  -27.8960  -21.0370   20.8550 C   0  0  0  0  0  3  0  0  0  0  0  0
  -27.3920  -23.4490   20.8480 C   0  0  0  0  0  0  0  0  0  0  0  0
  -28.4730  -23.7360   19.9660 C   0  0  0  0  0  0  0  0  0  0  0  0
  -29.3340  -22.5800   19.6280 C   0  0  0  0  0  0  0  0  0  0  0  0
  -29.0410  -21.2030   20.0550 C   0  0  0  0  0  0  0  0  0  0  0  0
  -26.4370  -24.5130   21.3540 C   0  0  0  0  0  1  0  0  0  0  0  0
  -30.4970  -22.1660   17.3800 C   0  0  0  0  0  1  0  0  0  0  0  0
  -31.8930  -22.3390   19.5020 C   0  0  0  0  0  1  0  0  0  0  0  0
  -30.6050  -22.7840   18.7830 C   0  0  0  0  0  3  0  0  0  0  0  0
  -28.5100  -25.1920   19.2450 C   0  0  0  0  0  2  0  0  0  0  0  0
  -28.3860  -26.5330   19.9260 O   0  0  0  0  0  0  0  0  0  0  0  0
  -24.6520  -31.8390   23.1140 C   0  0  0  0  0  0  0  0  0  0  0  0
  -27.2730  -27.4080   19.8340 C   0  0  0  0  0  0  0  0  0  0  0  0
  -23.4380  -30.4750   21.4510 C   0  0  0  0  0  3  0  0  0  0  0  0
  -24.8890  -29.0170   19.9190 C   0  0  0  0  0  0  0  0  0  0  0  0
  -25.9690  -30.8430   21.2270 C   0  0  0  0  0  2  0  0  0  0  0  0
  -26.0590  -29.4890   20.5250 C   0  0  0  0  0  0  0  0  0  0  0  0
  -27.2460  -28.6870   20.4890 C   0  0  0  0  0  3  0  0  0  0  0  0
  -26.0880  -27.0270   19.1650 C   0  0  0  0  0  3  0  0  0  0  0  0
  -24.9080  -27.7950   19.2320 C   0  0  0  0  0  3  0  0  0  0  0  0
  -23.6330  -29.8580   20.0400 C   0  0  0  0  0  2  0  0  0  0  0  0
  -24.7060  -31.0710   21.9870 N   0  0  0  0  0  0  0  0  0  0  0  0
  -23.5750  -32.0800   23.6780 O   0  0  0  0  0  0  0  0  0  0  0  0
  -22.8130  -29.4130   22.3890 C   0  0  0  0  0  0  0  0  0  0  0  0
  -21.4920  -29.1980   22.2690 N   0  0  0  0  0  0  0  0  0  0  0  0
  -23.5190  -28.7850   23.1830 O   0  0  0  0  0  0  0  0  0  0  0  0
  -20.9800  -29.7570   21.6020 H   0  0  0  0  0  0  0  0  0  0  0  0
  -18.1580  -27.8730   22.7530 C   0  0  0  0  0  0  0  0  0  0  0  0
  -20.7080  -28.2110   23.0170 C   0  0  0  0  0  3  0  0  0  0  0  0
  -20.8560  -26.8020   22.3960 C   0  0  0  0  0  2  0  0  0  0  0  0
  -19.7580  -26.4710   21.3800 C   0  0  0  0  0  2  0  0  0  0  0  0
  -18.3750  -26.5520   22.0340 C   0  0  0  0  0  2  0  0  0  0  0  0
  -19.2530  -28.6610   23.1970 C   0  0  0  0  0  0  0  0  0  0  0  0
  -18.9940  -29.8990   23.8240 C   0  0  0  0  0  3  0  0  0  0  0  0
  -17.6740  -30.3500   24.0120 C   0  0  0  0  0  3  0  0  0  0  0  0
  -16.5940  -29.5570   23.5880 C   0  0  0  0  0  3  0  0  0  0  0  0
  -16.8360  -28.3200   22.9650 C   0  0  0  0  0  3  0  0  0  0  0  0
  -25.9360  -32.4740   23.7330 C   0  0  0  0  0  3  0  0  0  0  0  0
  -26.4810  -31.6810   24.9830 C   0  0  1  0  0  0  0  0  0  0  0  0
  -25.4050  -31.4010   26.0600 C   0  0  0  0  0  1  0  0  0  0  0  0
  -27.0890  -30.3250   24.5550 C   0  0  0  0  0  1  0  0  0  0  0  0
  -27.6240  -32.4840   25.6520 C   0  0  0  0  0  1  0  0  0  0  0  0
  -25.6130  -33.8580   24.1060 N   0  0  0  0  0  0  0  0  0  0  0  0
  -25.9090  -34.9350   23.3670 C   0  0  0  0  0  0  0  0  0  0  0  0
  -26.5530  -34.8700   22.3170 O   0  0  0  0  0  0  0  0  0  0  0  0
  -25.0410  -33.9830   24.9280 H   0  0  0  0  0  0  0  0  0  0  0  0
  -24.1430  -36.7090   23.1090 C   0  0  0  0  0  1  0  0  0  0  0  0
  -25.4130  -36.3030   23.8750 C   0  0  0  0  0  3  0  0  0  0  0  0
  -27.5560  -37.2050   24.6730 C   0  0  0  0  0  1  0  0  0  0  0  0
  -26.4270  -37.3760   23.7610 N   0  0  0  0  0  0  0  0  0  0  0  0
  -26.0090  -38.2850   23.9410 H   0  0  0  0  0  0  0  0  0  0  0  0
  -29.8340  -20.0600   19.7180 O   0  0  0  0  0  0  0  0  0  0  0  0
  -30.8510  -14.9690   19.8070 C   0  0  0  0  0  0  0  0  0  0  0  0
  -30.6070  -12.6740   18.8290 C   0  0  0  0  0  2  0  0  0  0  0  0
  -29.5760  -12.6880   17.6790 C   0  0  0  0  0  2  0  0  0  0  0  0
  -28.1430  -12.5020   18.2140 C   0  0  0  0  0  2  0  0  0  0  0  0
  -27.8470  -13.3990   19.4450 C   0  0  0  0  0  3  0  0  0  0  0  0
  -28.9890  -13.3340   20.4830 C   0  0  0  0  0  2  0  0  0  0  0  0
  -30.2210  -13.7360   19.7920 N   0  0  0  0  0  0  0  0  0  0  0  0
  -31.9870  -15.0500   19.3270 O   0  0  0  0  0  0  0  0  0  0  0  0
  -29.3680  -18.0750   21.3500 C   0  0  0  0  0  2  0  0  0  0  0  0
  -29.3820  -16.5210   21.2180 C   0  0  0  0  0  2  0  0  0  0  0  0
  -30.3780  -17.4830   19.3250 C   0  0  0  0  0  2  0  0  0  0  0  0
  -29.4380  -18.6240   19.9160 C   0  0  0  0  0  3  0  0  0  0  0  0
  -30.1170  -16.1490   19.9970 N   0  0  0  0  0  0  0  0  0  0  0  0
  -25.5330  -13.9690   20.3880 C   0  0  0  0  0  0  0  0  0  0  0  0
  -24.4930  -13.1840   20.8100 C   0  0  0  0  0  0  0  0  0  0  0  0
  -24.9390  -11.8330   20.6790 C   0  0  0  0  0  0  0  0  0  0  0  0
  -26.5460  -13.0950   20.0320 N   0  0  0  0  0  0  0  0  0  0  0  0
  -26.2000  -11.8030   20.2650 N   0  0  0  0  0  0  0  0  0  0  0  0
  -24.2170  -10.5690   20.8660 C   0  0  0  0  0  0  0  0  0  0  0  0
  -24.6220   -9.6200   21.8310 C   0  0  0  0  0  3  0  0  0  0  0  0
  -23.8960   -8.4220   22.0070 C   0  0  0  0  0  3  0  0  0  0  0  0
  -22.7510   -8.1640   21.2170 C   0  0  0  0  0  0  0  0  0  0  0  0
  -22.3650   -9.1000   20.2420 C   0  0  0  0  0  3  0  0  0  0  0  0
  -23.0920  -10.2880   20.0650 C   0  0  0  0  0  3  0  0  0  0  0  0
  -22.0000   -7.0150   21.3000 O   0  0  0  0  0  0  0  0  0  0  0  0
  -21.7980   -6.3730   22.4960 C   0  0  0  0  0  0  0  0  0  0  0  0
  -21.1880   -7.0170   23.5950 C   0  0  0  0  0  3  0  0  0  0  0  0
  -20.9360   -6.2990   24.7790 C   0  0  0  0  0  3  0  0  0  0  0  0
  -21.2870   -4.9380   24.8680 C   0  0  0  0  0  0  0  0  0  0  0  0
  -21.8910   -4.2950   23.7740 C   0  0  0  0  0  3  0  0  0  0  0  0
  -22.1430   -5.0090   22.5910 C   0  0  0  0  0  0  0  0  0  0  0  0
  -22.7040   -4.3790   21.5310 F   0  0  0  0  0  0  0  0  0  0  0  0
  -21.0400   -4.2450   26.0050 F   0  0  0  0  0  0  0  0  0  0  0  0
  -23.1280  -13.6580   21.2160 C   0  0  0  0  0  0  0  0  0  0  0  0
  -22.4760  -12.9430   22.1260 N   0  0  0  0  0  0  0  0  0  0  0  0
  -22.6520  -14.6980   20.7630 O   0  0  0  0  0  0  0  0  0  0  0  0
  -22.8760  -12.1010   22.5130 H   0  0  0  0  0  0  0  0  0  0  0  0
  -21.5640  -13.2430   22.4380 H   0  0  0  0  0  0  0  0  0  0  0  0
  -25.6900  -15.3450   20.2550 N   0  0  0  0  0  0  0  0  0  0  0  0
  -24.9290  -15.9910   20.4350 H   0  0  0  0  0  0  0  0  0  0  0  0
  -26.5010  -15.7930   19.8460 H   0  0  0  0  0  0  0  0  0  0  0  0
  2  1  1  0
  3  1  2  0
  3  7  1  0
  4  3  1  0
  5  4  2  0
  5  6  1  0
  6  2  2  0
  8 10  1  0
 10  9  1  0
 10  5  1  0
 11 12  1  0
 11  4  1  0
 13 24  2  0
 14 12  1  0
 14 19  1  0
 15 23  1  0
 15 25  1  0
 16 22  1  0
 16 18  1  0
 17 23  1  0
 18 17  1  0
 19 18  2  0
 20 21  1  0
 20 14  2  0
 21 16  2  0
 22 15  1  0
 23 13  1  0
 25 27  2  0
 26 25  1  0
 28 26  1  0
 29 38  2  0
 29 34  1  0
 30 26  1  0
 30 34  1  0
 31 30  1  0
 32 33  1  0
 32 31  1  0
 33 29  1  0
 34 35  2  0
 35 36  1  0
 37 36  2  0
 38 37  1  0
 39 13  1  0
 39 44  1  0
 39 40  1  0
 40 43  1  1
 40 41  1  0
 42 40  1  0
 44 47  1  0
 45 49  1  0
 45 44  1  0
 46 45  2  0
 49 48  1  0
 51 49  1  0
 51 52  1  0
 51 50  1  0
 53  6  1  0
 54 66  1  0
 55 60  1  0
 56 57  1  0
 56 55  1  0
 58 57  1  0
 58 70  1  0
 58 59  1  0
 60 54  1  0
 60 59  1  0
 61 54  2  0
 63 62  1  0
 64 65  1  0
 64 66  1  0
 65 53  1  0
 65 62  1  0
 66 63  1  0
 67 68  2  0
 68 87  1  0
 69 68  1  0
 69 72  1  0
 70 71  1  0
 70 67  1  0
 71 69  2  0
 72 73  1  0
 73 74  2  0
 75 78  1  0
 75 74  1  0
 76 75  2  0
 77 76  1  0
 77 72  2  0
 78 79  1  0
 79 84  2  0
 79 80  1  0
 80 81  2  0
 81 82  1  0
 82 86  1  0
 83 82  2  0
 84 83  1  0
 85 84  1  0
 87 88  1  0
 88 91  1  0
 88 90  1  0
 89 87  2  0
 92 67  1  0
 92 93  1  0
 94 92  1  0
M  ISO  4  11 101  12 101  54 100  66 100
M  END
>  <TORSDO>  (88) 
F 19

>  <SCORE>  (88) 
-13.153

>  <name>  (88) 
87

>  <ligand_id>  (88) 
87

>  <original_smiles>  (88) 
[H]c1c([H])c([H])c2c(c1[H])C([H])([H])C([H])([H])C([H])([H])C2([H])N([H])C(=O)C1([H])N(C(=O)C([H])(N([H])C(=O)C([H])(N([H])C([H])([H])[H])C([H])([H])[H])C(C([H])([H])[H])(C([H])([H])[H])C([H])([H])[H])C([H])([H])c2c([H])c(OC([H])([H])c3c(C([H])([H])[H])c([H])c([H])c(OC4([H])C([H])([H])N(C(=O)N5C([H])([H])C([H])([H])C([H])([H])C([H])(n6nc(-c7c([H])c([H])c(Oc8c([H])c([H])c(F)c([H])c8F)c([H])c7[H])c(C(=O)N([H])[H])c6N([H])[H])C5([H])[H])C([H])([H])C4([H])[H])c3C([H])(C([H])([H])[H])C([H])([H])[H])c([H])c([H])c2C1([H])[H]

>  <smiles>  (88) 
[H]c1c([H])c([H])c2c(c1[H])C([H])([H])C([H])([H])C([H])([H])C2([H])N([H])C(=O)C1([H])N(C(=O)C([H])(N([H])C(=O)C([H])(N([H])C([H])([H])[H])C([H])([H])[H])C(C([H])([H])[H])(C([H])([H])[H])C([H])([H])[H])C([H])([H])c2c([H])c(OC([H])([H])c3c(C([H])([H])[H])c([H])c([H])c(OC4([H])C([H])([H])N(C(=O)N5C([H])([H])C([H])([H])C([H])([H])C([H])(n6nc(-c7c([H])c([H])c(Oc8c([H])c([H])c(F)c([H])c8F)c([H])c7[H])c(C(=O)N([H])[H])c6N([H])[H])C5([H])[H])C([H])([H])C4([H])[H])c3C([H])(C([H])([H])[H])C([H])([H])[H])c([H])c([H])c2C1([H])[H]

$$$$
88:0:0
     RDKit          3D

103113  0  0  1  0  0  0  0  0999 V2000
  -28.4770  -22.5090   19.4350 C   0  0  0  0  0  2  0  0  0  0  0  0
  -30.4850  -21.5350   18.4960 C   0  0  0  0  0  3  0  0  0  0  0  0
  -29.0160  -21.1980   18.8080 C   0  0  0  0  0  3  0  0  0  0  0  0
  -30.8480  -22.5670   19.6010 C   0  0  0  0  0  3  0  0  0  0  0  0
  -28.1990  -20.7310   17.5910 C   0  0  0  0  0  1  0  0  0  0  0  0
  -29.6270  -23.4360   19.6320 N   0  0  2  0  0  4  0  0  0  0  0  0
  -29.6810  -23.9870   18.7870 H   0  0  0  0  0  0  0  0  0  0  0  0
  -32.5740  -18.2170   18.0260 C   0  0  0  0  0  3  0  0  0  0  0  0
  -31.6290  -19.0890   18.6140 C   0  0  0  0  0  0  0  0  0  0  0  0
  -31.4990  -20.4150   18.0500 C   0  0  0  0  0  0  0  0  0  0  0  0
  -32.3500  -20.6990   16.9200 C   0  0  0  0  0  0  0  0  0  0  0  0
  -33.3020  -19.7440   16.4890 C   0  0  0  0  0  0  0  0  0  0  0  0
  -32.2490  -22.0000   16.1120 C   0  0  0  0  0  1  0  0  0  0  0  0
  -34.2800  -19.9830   15.3510 C   0  0  0  0  0  1  0  0  0  0  0  0
  -33.4060  -18.5290   17.0310 N   0  0  0  0  0  0  0  0  0  0  0  0
  -30.6220  -14.4960   20.0050 C   0  0  0  0  0  0  0  0  0  0  0  0
  -30.1960  -12.3150   18.9050 C   0  0  0  0  0  2  0  0  0  0  0  0
  -29.1750  -12.4750   17.7620 C   0  0  0  0  0  2  0  0  0  0  0  0
  -27.7440  -12.2940   18.3000 C   0  0  0  0  0  2  0  0  0  0  0  0
  -27.4740  -13.1540   19.5610 C   0  0  0  0  0  3  0  0  0  0  0  0
  -28.6180  -13.0490   20.5980 C   0  0  0  0  0  2  0  0  0  0  0  0
  -29.8910  -13.3420   19.9200 N   0  0  0  0  0  0  0  0  0  0  0  0
  -31.7480  -14.5810   19.5070 O   0  0  0  0  0  0  0  0  0  0  0  0
  -29.7260  -17.5050   19.0160 C   0  0  0  0  0  2  0  0  0  0  0  0
  -31.5840  -17.6160   20.7830 C   0  0  0  0  0  2  0  0  0  0  0  0
  -29.0700  -16.4390   19.9140 C   0  0  0  0  0  2  0  0  0  0  0  0
  -30.8190  -16.4720   21.5120 C   0  0  0  0  0  2  0  0  0  0  0  0
  -30.7630  -18.4220   19.7130 C   0  0  0  0  0  3  0  0  0  0  0  0
  -30.0620  -15.5910   20.6000 N   0  0  0  0  0  0  0  0  0  0  0  0
  -25.1600  -13.7770   20.4790 C   0  0  0  0  0  0  0  0  0  0  0  0
  -24.1120  -13.0080   20.9070 C   0  0  0  0  0  0  0  0  0  0  0  0
  -24.5540  -11.6530   20.8110 C   0  0  0  0  0  0  0  0  0  0  0  0
  -26.1700  -12.8850   20.1470 N   0  0  0  0  0  0  0  0  0  0  0  0
  -25.8160  -11.6040   20.4100 N   0  0  0  0  0  0  0  0  0  0  0  0
  -23.8310  -10.3950   21.0230 C   0  0  0  0  0  0  0  0  0  0  0  0
  -24.3070   -9.4150   21.9210 C   0  0  0  0  0  3  0  0  0  0  0  0
  -23.5860   -8.2190   22.1210 C   0  0  0  0  0  3  0  0  0  0  0  0
  -22.3760   -7.9950   21.4240 C   0  0  0  0  0  0  0  0  0  0  0  0
  -21.9190   -8.9650   20.5140 C   0  0  0  0  0  3  0  0  0  0  0  0
  -22.6400  -10.1520   20.3110 C   0  0  0  0  0  3  0  0  0  0  0  0
  -21.6210   -6.8530   21.5360 O   0  0  0  0  0  0  0  0  0  0  0  0
  -21.6160   -6.1060   22.6860 C   0  0  0  0  0  0  0  0  0  0  0  0
  -21.2340   -6.6540   23.9300 C   0  0  0  0  0  3  0  0  0  0  0  0
  -21.1760   -5.8330   25.0730 C   0  0  0  0  0  3  0  0  0  0  0  0
  -21.4900   -4.4650   24.9740 C   0  0  0  0  0  0  0  0  0  0  0  0
  -21.8650   -3.9150   23.7360 C   0  0  0  0  0  3  0  0  0  0  0  0
  -21.9250   -4.7340   22.5950 C   0  0  0  0  0  0  0  0  0  0  0  0
  -22.2670   -4.1960   21.3990 F   0  0  0  0  0  0  0  0  0  0  0  0
  -21.4260   -3.6730   26.0710 F   0  0  0  0  0  0  0  0  0  0  0  0
  -22.7450  -13.4930   21.2900 C   0  0  0  0  0  0  0  0  0  0  0  0
  -22.0740  -12.7840   22.1910 N   0  0  0  0  0  0  0  0  0  0  0  0
  -22.2820  -14.5350   20.8270 O   0  0  0  0  0  0  0  0  0  0  0  0
  -22.4630  -11.9400   22.5860 H   0  0  0  0  0  0  0  0  0  0  0  0
  -21.1610  -13.0920   22.4940 H   0  0  0  0  0  0  0  0  0  0  0  0
  -25.3270  -15.1500   20.3230 N   0  0  0  0  0  0  0  0  0  0  0  0
  -24.5790  -15.8090   20.5080 H   0  0  0  0  0  0  0  0  0  0  0  0
  -26.1620  -15.5900   19.9590 H   0  0  0  0  0  0  0  0  0  0  0  0
  -32.0810  -24.6350   18.5500 C   0  0  0  0  0  1  0  0  0  0  0  0
  -32.9270  -23.6150   20.7160 C   0  0  0  0  0  1  0  0  0  0  0  0
  -32.1880  -23.3430   19.3920 C   0  0  0  0  0  3  0  0  0  0  0  0
  -29.4770  -24.4230   20.7530 C   0  0  0  0  0  2  0  0  0  0  0  0
  -28.2410  -25.3730   20.6520 C   0  0  0  0  0  2  0  0  0  0  0  0
  -28.4480  -26.6610   20.0190 O   0  0  0  0  0  0  0  0  0  0  0  0
  -24.5620  -31.7710   23.1400 C   0  0  0  0  0  0  0  0  0  0  0  0
  -27.2960  -27.4310   19.9750 C   0  0  0  0  0  0  0  0  0  0  0  0
  -23.3850  -30.3730   21.4750 C   0  0  0  0  0  3  0  0  0  0  0  0
  -24.8720  -28.9030   20.0100 C   0  0  0  0  0  0  0  0  0  0  0  0
  -25.9030  -30.7940   21.2760 C   0  0  0  0  0  2  0  0  0  0  0  0
  -26.0220  -29.4370   20.6060 C   0  0  0  0  0  0  0  0  0  0  0  0
  -27.2410  -28.7120   20.5810 C   0  0  0  0  0  3  0  0  0  0  0  0
  -26.1310  -26.9320   19.3510 C   0  0  0  0  0  3  0  0  0  0  0  0
  -24.9240  -27.6530   19.3750 C   0  0  0  0  0  3  0  0  0  0  0  0
  -23.6060  -29.7290   20.0810 C   0  0  0  0  0  2  0  0  0  0  0  0
  -24.6350  -30.9920   22.0220 N   0  0  0  0  0  0  0  0  0  0  0  0
  -23.4760  -32.0060   23.6880 O   0  0  0  0  0  0  0  0  0  0  0  0
  -22.7610  -29.3170   22.4180 C   0  0  0  0  0  0  0  0  0  0  0  0
  -21.4430  -29.0970   22.2830 N   0  0  0  0  0  0  0  0  0  0  0  0
  -23.4590  -28.6990   23.2250 O   0  0  0  0  0  0  0  0  0  0  0  0
  -20.9390  -29.6500   21.6040 H   0  0  0  0  0  0  0  0  0  0  0  0
  -18.1070  -27.7770   22.7340 C   0  0  0  0  0  0  0  0  0  0  0  0
  -20.6510  -28.1240   23.0370 C   0  0  0  0  0  3  0  0  0  0  0  0
  -20.8110  -26.7020   22.4500 C   0  0  0  0  0  2  0  0  0  0  0  0
  -19.7340  -26.3500   21.4200 C   0  0  0  0  0  2  0  0  0  0  0  0
  -18.3400  -26.4410   22.0490 C   0  0  0  0  0  2  0  0  0  0  0  0
  -19.1920  -28.5750   23.1820 C   0  0  0  0  0  0  0  0  0  0  0  0
  -18.9240  -29.8250   23.7810 C   0  0  0  0  0  3  0  0  0  0  0  0
  -17.6020  -30.2790   23.9350 C   0  0  0  0  0  3  0  0  0  0  0  0
  -16.5290  -29.4800   23.5020 C   0  0  0  0  0  3  0  0  0  0  0  0
  -16.7830  -28.2310   22.9070 C   0  0  0  0  0  3  0  0  0  0  0  0
  -25.8350  -32.4210   23.7670 C   0  0  0  0  0  3  0  0  0  0  0  0
  -26.3810  -31.6330   25.0210 C   0  0  1  0  0  0  0  0  0  0  0  0
  -25.3030  -31.3460   26.0920 C   0  0  0  0  0  1  0  0  0  0  0  0
  -26.9950  -30.2800   24.5910 C   0  0  0  0  0  1  0  0  0  0  0  0
  -27.5200  -32.4380   25.6910 C   0  0  0  0  0  1  0  0  0  0  0  0
  -25.4930  -33.8020   24.1290 N   0  0  0  0  0  0  0  0  0  0  0  0
  -25.7950  -34.8790   23.3900 C   0  0  0  0  0  0  0  0  0  0  0  0
  -26.4600  -34.8140   22.3530 O   0  0  0  0  0  0  0  0  0  0  0  0
  -24.8960  -33.9230   24.9330 H   0  0  0  0  0  0  0  0  0  0  0  0
  -24.0190  -36.6330   23.0820 C   0  0  0  0  0  1  0  0  0  0  0  0
  -25.2750  -36.2440   23.8790 C   0  0  0  0  0  3  0  0  0  0  0  0
  -27.3910  -37.1640   24.7150 C   0  0  0  0  0  1  0  0  0  0  0  0
  -26.2790  -37.3250   23.7820 N   0  0  0  0  0  0  0  0  0  0  0  0
  -25.8510  -38.2320   23.9500 H   0  0  0  0  0  0  0  0  0  0  0  0
  1  6  1  0
  2 10  1  0
  2  3  1  0
  2  4  1  0
  3  5  1  0
  3  1  1  0
  4 60  1  0
  4  6  1  0
  6 61  1  0
  6  7  1  6
  8  9  1  0
 10  9  2  0
 11 10  1  0
 12 11  2  0
 12 15  1  0
 13 11  1  0
 14 12  1  0
 15  8  2  0
 16 29  1  0
 17 22  1  0
 18 19  1  0
 18 17  1  0
 20 19  1  0
 20 33  1  0
 20 21  1  0
 22 16  1  0
 22 21  1  0
 23 16  2  0
 24 28  1  0
 24 26  1  0
 25 27  1  0
 26 29  1  0
 28  9  1  0
 28 25  1  0
 29 27  1  0
 30 31  2  0
 31 50  1  0
 32 31  1  0
 32 35  1  0
 33 34  1  0
 33 30  1  0
 34 32  2  0
 35 36  1  0
 36 37  2  0
 38 41  1  0
 38 37  1  0
 39 38  2  0
 40 39  1  0
 40 35  2  0
 41 42  1  0
 42 43  1  0
 43 44  2  0
 45 44  1  0
 45 49  1  0
 46 45  2  0
 47 42  2  0
 47 46  1  0
 48 47  1  0
 50 51  1  0
 51 54  1  0
 51 53  1  0
 52 50  2  0
 55 30  1  0
 55 56  1  0
 57 55  1  0
 58 60  1  0
 60 59  1  0
 62 61  1  0
 63 62  1  0
 64 75  2  0
 65 63  1  0
 65 70  1  0
 66 74  1  0
 66 76  1  0
 67 73  1  0
 67 69  1  0
 68 74  1  0
 69 68  1  0
 70 69  2  0
 71 72  1  0
 71 65  2  0
 72 67  2  0
 73 66  1  0
 74 64  1  0
 76 78  2  0
 77 76  1  0
 79 77  1  0
 80 89  2  0
 80 85  1  0
 81 77  1  0
 81 85  1  0
 82 81  1  0
 83 84  1  0
 83 82  1  0
 84 80  1  0
 85 86  2  0
 86 87  1  0
 88 87  2  0
 89 88  1  0
 90 64  1  0
 90 95  1  0
 90 91  1  0
 91 94  1  1
 91 92  1  0
 93 91  1  0
 95 98  1  0
 96100  1  0
 96 95  1  0
 97 96  2  0
100 99  1  0
102100  1  0
102103  1  0
102101  1  0
M  ISO  4  16 100  29 100  62 101  63 101
M  END
>  <TORSDO>  (89) 
F 20

>  <SCORE>  (89) 
-13.399

>  <name>  (89) 
88

>  <ligand_id>  (89) 
88

>  <original_smiles>  (89) 
[H]c1nc(C([H])([H])[H])c(C([H])([H])[H])c(C2([H])C([H])(C([H])([H])[H])C([H])([H])[N+]([H])(C([H])([H])C([H])([H])Oc3c([H])c([H])c4c(c3[H])C([H])([H])N(C(=O)C([H])(N([H])C(=O)C([H])(N([H])C([H])([H])[H])C([H])([H])[H])C(C([H])([H])[H])(C([H])([H])[H])C([H])([H])[H])C([H])(C(=O)N([H])C3([H])c5c([H])c([H])c([H])c([H])c5C([H])([H])C([H])([H])C3([H])[H])C4([H])[H])C2([H])C([H])(C([H])([H])[H])C([H])([H])[H])c1C1([H])C([H])([H])C([H])([H])N(C(=O)N2C([H])([H])C([H])([H])C([H])([H])C([H])(n3nc(-c4c([H])c([H])c(Oc5c([H])c([H])c(F)c([H])c5F)c([H])c4[H])c(C(=O)N([H])[H])c3N([H])[H])C2([H])[H])C([H])([H])C1([H])[H]

>  <smiles>  (89) 
[H]c1nc(C([H])([H])[H])c(C([H])([H])[H])c(C2([H])C([H])(C([H])([H])[H])C([H])([H])[N+]([H])(C([H])([H])C([H])([H])Oc3c([H])c([H])c4c(c3[H])C([H])([H])N(C(=O)C([H])(N([H])C(=O)C([H])(N([H])C([H])([H])[H])C([H])([H])[H])C(C([H])([H])[H])(C([H])([H])[H])C([H])([H])[H])C([H])(C(=O)N([H])C3([H])c5c([H])c([H])c([H])c([H])c5C([H])([H])C([H])([H])C3([H])[H])C4([H])[H])C2([H])C([H])(C([H])([H])[H])C([H])([H])[H])c1C1([H])C([H])([H])C([H])([H])N(C(=O)N2C([H])([H])C([H])([H])C([H])([H])C([H])(n3nc(-c4c([H])c([H])c(Oc5c([H])c([H])c(F)c([H])c5F)c([H])c4[H])c(C(=O)N([H])[H])c3N([H])[H])C2([H])[H])C([H])([H])C1([H])[H]

$$$$
89:0:0
     RDKit          3D

 96105  0  0  1  0  0  0  0  0999 V2000
  -28.0640  -23.0180   19.0310 C   0  0  0  0  0  3  0  0  0  0  0  0
  -28.7630  -24.0190   19.7450 C   0  0  0  0  0  0  0  0  0  0  0  0
  -28.3760  -21.6350   19.1340 C   0  0  0  0  0  0  0  0  0  0  0  0
  -29.7500  -23.5690   20.6740 C   0  0  0  0  0  0  0  0  0  0  0  0
  -30.0950  -22.1740   20.7650 C   0  0  0  0  0  0  0  0  0  0  0  0
  -29.4300  -21.1880   19.9760 C   0  0  0  0  0  0  0  0  0  0  0  0
  -30.5030  -24.5930   21.5160 C   0  0  0  0  0  1  0  0  0  0  0  0
  -31.2670  -21.7160   21.6260 C   0  0  0  0  0  1  0  0  0  0  0  0
  -28.0790  -20.7340   16.7850 C   0  0  0  0  0  1  0  0  0  0  0  0
  -26.0970  -20.8130   18.3770 C   0  0  0  0  0  1  0  0  0  0  0  0
  -27.6190  -20.6460   18.2490 C   0  0  0  0  0  3  0  0  0  0  0  0
  -28.5930  -25.5040   19.2660 C   0  0  0  0  0  2  0  0  0  0  0  0
  -28.3300  -26.5870   20.2060 O   0  0  0  0  0  0  0  0  0  0  0  0
  -24.5160  -31.8650   23.1870 C   0  0  0  0  0  0  0  0  0  0  0  0
  -27.1720  -27.3600   20.1280 C   0  0  0  0  0  0  0  0  0  0  0  0
  -23.3230  -30.4650   21.5370 C   0  0  0  0  0  3  0  0  0  0  0  0
  -24.7850  -28.9210   20.1170 C   0  0  0  0  0  0  0  0  0  0  0  0
  -25.8570  -30.8030   21.3640 C   0  0  0  0  0  2  0  0  0  0  0  0
  -25.9430  -29.4270   20.7190 C   0  0  0  0  0  0  0  0  0  0  0  0
  -27.1340  -28.6530   20.7240 C   0  0  0  0  0  3  0  0  0  0  0  0
  -25.9860  -26.8810   19.5270 C   0  0  0  0  0  3  0  0  0  0  0  0
  -24.8050  -27.6500   19.5170 C   0  0  0  0  0  3  0  0  0  0  0  0
  -23.5440  -29.7880   20.1570 C   0  0  0  0  0  2  0  0  0  0  0  0
  -24.5830  -31.0610   22.0870 N   0  0  0  0  0  0  0  0  0  0  0  0
  -23.4310  -32.1390   23.7170 O   0  0  0  0  0  0  0  0  0  0  0  0
  -22.6600  -29.4450   22.4930 C   0  0  0  0  0  0  0  0  0  0  0  0
  -21.3340  -29.2740   22.3640 N   0  0  0  0  0  0  0  0  0  0  0  0
  -23.3380  -28.8130   23.3070 O   0  0  0  0  0  0  0  0  0  0  0  0
  -20.8480  -29.8350   21.6790 H   0  0  0  0  0  0  0  0  0  0  0  0
  -17.9490  -28.1150   22.8750 C   0  0  0  0  0  0  0  0  0  0  0  0
  -20.5110  -28.3380   23.1310 C   0  0  0  0  0  3  0  0  0  0  0  0
  -20.5920  -26.9130   22.5400 C   0  0  0  0  0  2  0  0  0  0  0  0
  -19.4790  -26.6150   21.5290 C   0  0  0  0  0  2  0  0  0  0  0  0
  -18.1030  -26.7710   22.1830 C   0  0  0  0  0  2  0  0  0  0  0  0
  -19.0790  -28.8580   23.3060 C   0  0  0  0  0  0  0  0  0  0  0  0
  -18.8810  -30.1170   23.9130 C   0  0  0  0  0  3  0  0  0  0  0  0
  -17.5840  -30.6330   24.0930 C   0  0  0  0  0  3  0  0  0  0  0  0
  -16.4670  -29.8870   23.6770 C   0  0  0  0  0  3  0  0  0  0  0  0
  -16.6510  -28.6300   23.0750 C   0  0  0  0  0  3  0  0  0  0  0  0
  -25.7980  -32.4970   23.8150 C   0  0  0  0  0  3  0  0  0  0  0  0
  -26.3080  -31.7250   25.0940 C   0  0  1  0  0  0  0  0  0  0  0  0
  -25.2090  -31.4850   26.1560 C   0  0  0  0  0  1  0  0  0  0  0  0
  -26.8940  -30.3480   24.7040 C   0  0  0  0  0  1  0  0  0  0  0  0
  -27.4540  -32.5200   25.7640 C   0  0  0  0  0  1  0  0  0  0  0  0
  -25.4870  -33.8950   24.1440 N   0  0  0  0  0  0  0  0  0  0  0  0
  -25.8360  -34.9490   23.3950 C   0  0  0  0  0  0  0  0  0  0  0  0
  -26.5250  -34.8470   22.3760 O   0  0  0  0  0  0  0  0  0  0  0  0
  -24.8760  -34.0480   24.9340 H   0  0  0  0  0  0  0  0  0  0  0  0
  -24.1330  -36.7570   23.0000 C   0  0  0  0  0  1  0  0  0  0  0  0
  -25.3440  -36.3370   23.8480 C   0  0  0  0  0  3  0  0  0  0  0  0
  -27.4540  -37.2020   24.7590 C   0  0  0  0  0  1  0  0  0  0  0  0
  -26.3870  -37.3840   23.7790 N   0  0  0  0  0  0  0  0  0  0  0  0
  -25.9810  -38.3060   23.9200 H   0  0  0  0  0  0  0  0  0  0  0  0
  -29.9260  -19.8870   19.7930 O   0  0  0  0  0  0  0  0  0  0  0  0
  -30.7800  -14.6430   20.4310 C   0  0  0  0  0  0  0  0  0  0  0  0
  -30.4400  -12.4520   19.2980 C   0  0  0  0  0  2  0  0  0  0  0  0
  -29.5120  -12.5880   18.0750 C   0  0  0  0  0  2  0  0  0  0  0  0
  -28.0430  -12.4150   18.5000 C   0  0  0  0  0  2  0  0  0  0  0  0
  -27.6850  -13.2880   19.7270 C   0  0  0  0  0  3  0  0  0  0  0  0
  -28.7370  -13.1490   20.8570 C   0  0  0  0  0  2  0  0  0  0  0  0
  -30.0480  -13.4860   20.2890 N   0  0  0  0  0  0  0  0  0  0  0  0
  -31.9260  -14.6840   19.9710 O   0  0  0  0  0  0  0  0  0  0  0  0
  -28.8540  -17.7310   20.3330 C   0  0  0  0  0  2  0  0  0  0  0  0
  -31.2440  -18.1100   20.8670 C   0  0  0  0  0  2  0  0  0  0  0  0
  -28.9460  -16.3740   21.1100 C   0  0  0  0  0  2  0  0  0  0  0  0
  -31.2240  -16.7690   21.6640 C   0  0  0  0  0  2  0  0  0  0  0  0
  -29.8670  -18.8210   20.7810 C   0  0  0  0  0  3  0  0  0  0  0  0
  -30.2980  -15.7620   21.0910 N   0  0  0  0  0  0  0  0  0  0  0  0
  -25.2960  -13.9160   20.4330 C   0  0  0  0  0  0  0  0  0  0  0  0
  -24.2230  -13.1530   20.8060 C   0  0  0  0  0  0  0  0  0  0  0  0
  -24.6800  -11.7990   20.7900 C   0  0  0  0  0  0  0  0  0  0  0  0
  -26.3350  -13.0270   20.2110 N   0  0  0  0  0  0  0  0  0  0  0  0
  -25.9700  -11.7500   20.4900 N   0  0  0  0  0  0  0  0  0  0  0  0
  -23.9470  -10.5420   20.9830 C   0  0  0  0  0  0  0  0  0  0  0  0
  -24.3560   -9.5880   21.9400 C   0  0  0  0  0  3  0  0  0  0  0  0
  -23.6240   -8.3950   22.1200 C   0  0  0  0  0  3  0  0  0  0  0  0
  -22.4680   -8.1490   21.3400 C   0  0  0  0  0  0  0  0  0  0  0  0
  -22.0790   -9.0910   20.3720 C   0  0  0  0  0  3  0  0  0  0  0  0
  -22.8130  -10.2750   20.1910 C   0  0  0  0  0  3  0  0  0  0  0  0
  -21.7090   -7.0070   21.4280 O   0  0  0  0  0  0  0  0  0  0  0  0
  -21.6210   -6.2900   22.5940 C   0  0  0  0  0  0  0  0  0  0  0  0
  -21.1360   -6.8660   23.7880 C   0  0  0  0  0  3  0  0  0  0  0  0
  -20.9960   -6.0730   24.9450 C   0  0  0  0  0  3  0  0  0  0  0  0
  -21.3320   -4.7070   24.9090 C   0  0  0  0  0  0  0  0  0  0  0  0
  -21.8110   -4.1300   23.7190 C   0  0  0  0  0  3  0  0  0  0  0  0
  -21.9520   -4.9200   22.5630 C   0  0  0  0  0  0  0  0  0  0  0  0
  -22.3940   -4.3550   21.4140 F   0  0  0  0  0  0  0  0  0  0  0  0
  -21.1900   -3.9440   26.0170 F   0  0  0  0  0  0  0  0  0  0  0  0
  -22.8280  -13.6390   21.0620 C   0  0  0  0  0  0  0  0  0  0  0  0
  -22.0890  -12.9510   21.9260 N   0  0  0  0  0  0  0  0  0  0  0  0
  -22.3990  -14.6640   20.5330 O   0  0  0  0  0  0  0  0  0  0  0  0
  -22.4480  -12.1230   22.3770 H   0  0  0  0  0  0  0  0  0  0  0  0
  -21.1500  -13.2580   22.1400 H   0  0  0  0  0  0  0  0  0  0  0  0
  -25.4630  -15.2840   20.2410 N   0  0  0  0  0  0  0  0  0  0  0  0
  -24.6930  -15.9370   20.3370 H   0  0  0  0  0  0  0  0  0  0  0  0
  -26.3050  -15.7160   19.8860 H   0  0  0  0  0  0  0  0  0  0  0  0
  1  3  2  0
  1  2  1  0
  2  4  2  0
  3  6  1  0
  4  5  1  0
  4  7  1  0
  5  8  1  0
  6  5  2  0
  9 11  1  0
 11 10  1  0
 11  3  1  0
 12  2  1  0
 12 13  1  0
 14 25  2  0
 15 13  1  0
 15 20  1  0
 16 24  1  0
 16 26  1  0
 17 23  1  0
 17 19  1  0
 18 24  1  0
 19 20  2  0
 19 18  1  0
 21 15  2  0
 22 21  1  0
 22 17  2  0
 23 16  1  0
 24 14  1  0
 26 28  2  0
 27 26  1  0
 29 27  1  0
 30 39  2  0
 30 35  1  0
 31 27  1  0
 31 35  1  0
 32 31  1  0
 33 34  1  0
 33 32  1  0
 34 30  1  0
 35 36  2  0
 36 37  1  0
 38 37  2  0
 39 38  1  0
 40 14  1  0
 40 45  1  0
 40 41  1  0
 41 44  1  1
 41 42  1  0
 43 41  1  0
 45 48  1  0
 46 50  1  0
 46 45  1  0
 47 46  2  0
 50 49  1  0
 52 50  1  0
 52 53  1  0
 52 51  1  0
 54  6  1  0
 55 68  1  0
 56 61  1  0
 57 58  1  0
 57 56  1  0
 59 58  1  0
 59 72  1  0
 59 60  1  0
 61 55  1  0
 61 60  1  0
 62 55  2  0
 63 67  1  0
 63 65  1  0
 64 66  1  0
 67 54  1  0
 67 64  1  0
 68 65  1  0
 68 66  1  0
 69 70  2  0
 70 89  1  0
 71 70  1  0
 71 74  1  0
 72 69  1  0
 72 73  1  0
 73 71  2  0
 74 75  1  0
 75 76  2  0
 77 80  1  0
 77 76  1  0
 78 77  2  0
 79 78  1  0
 79 74  2  0
 80 81  1  0
 81 82  1  0
 82 83  2  0
 84 83  1  0
 84 88  1  0
 85 84  2  0
 86 81  2  0
 86 85  1  0
 87 86  1  0
 89 90  1  0
 90 93  1  0
 90 92  1  0
 91 89  2  0
 94 95  1  0
 94 69  1  0
 96 94  1  0
M  ISO  4  12 101  13 101  55 100  68 100
M  END
>  <TORSDO>  (90) 
F 19

>  <SCORE>  (90) 
-14.507

>  <name>  (90) 
89

>  <ligand_id>  (90) 
89

>  <original_smiles>  (90) 
[H]c1c([H])c([H])c2c(c1[H])C([H])([H])C([H])([H])C([H])([H])C2([H])N([H])C(=O)C1([H])N(C(=O)C([H])(N([H])C(=O)C([H])(N([H])C([H])([H])[H])C([H])([H])[H])C(C([H])([H])[H])(C([H])([H])[H])C([H])([H])[H])C([H])([H])c2c([H])c(OC([H])([H])c3c([H])c(C([H])(C([H])([H])[H])C([H])([H])[H])c(OC4([H])C([H])([H])C([H])([H])N(C(=O)N5C([H])([H])C([H])([H])C([H])([H])C([H])(n6nc(-c7c([H])c([H])c(Oc8c([H])c([H])c(F)c([H])c8F)c([H])c7[H])c(C(=O)N([H])[H])c6N([H])[H])C5([H])[H])C([H])([H])C4([H])[H])c(C([H])([H])[H])c3C([H])([H])[H])c([H])c([H])c2C1([H])[H]

>  <smiles>  (90) 
[H]c1c([H])c([H])c2c(c1[H])C([H])([H])C([H])([H])C([H])([H])C2([H])N([H])C(=O)C1([H])N(C(=O)C([H])(N([H])C(=O)C([H])(N([H])C([H])([H])[H])C([H])([H])[H])C(C([H])([H])[H])(C([H])([H])[H])C([H])([H])[H])C([H])([H])c2c([H])c(OC([H])([H])c3c([H])c(C([H])(C([H])([H])[H])C([H])([H])[H])c(OC4([H])C([H])([H])C([H])([H])N(C(=O)N5C([H])([H])C([H])([H])C([H])([H])C([H])(n6nc(-c7c([H])c([H])c(Oc8c([H])c([H])c(F)c([H])c8F)c([H])c7[H])c(C(=O)N([H])[H])c6N([H])[H])C5([H])[H])C([H])([H])C4([H])[H])c(C([H])([H])[H])c3C([H])([H])[H])c([H])c([H])c2C1([H])[H]

$$$$
90:0:0
     RDKit          3D

102112  0  0  1  0  0  0  0  0999 V2000
  -30.2430  -19.4340   20.4240 C   0  0  0  0  0  3  0  0  0  0  0  0
  -30.9540  -19.0610   21.5870 C   0  0  0  0  0  0  0  0  0  0  0  0
  -29.4880  -20.6200   20.3540 C   0  0  0  0  0  0  0  0  0  0  0  0
  -30.8380  -19.9020   22.7330 C   0  0  0  0  0  0  0  0  0  0  0  0
  -29.9790  -21.0420   22.7040 C   0  0  0  0  0  0  0  0  0  0  0  0
  -29.3390  -21.4380   21.4970 C   0  0  0  0  0  0  0  0  0  0  0  0
  -28.8950  -20.9970   19.0080 C   0  0  0  0  0  1  0  0  0  0  0  0
  -31.6210  -19.6110   24.0160 C   0  0  0  0  0  1  0  0  0  0  0  0
  -29.7390  -21.8350   23.9860 C   0  0  0  0  0  1  0  0  0  0  0  0
  -31.8360  -14.7820   19.0640 C   0  0  0  0  0  0  0  0  0  0  0  0
  -31.0280  -12.7000   18.0390 C   0  0  0  0  0  2  0  0  0  0  0  0
  -29.8480  -12.9200   17.0810 C   0  0  0  0  0  2  0  0  0  0  0  0
  -28.5160  -12.8050   17.8370 C   0  0  0  0  0  2  0  0  0  0  0  0
  -28.4920  -13.7220   19.0810 C   0  0  0  0  0  3  0  0  0  0  0  0
  -29.7670  -13.5850   19.9320 C   0  0  0  0  0  2  0  0  0  0  0  0
  -30.9930  -13.7120   19.1120 N   0  0  0  0  0  0  0  0  0  0  0  0
  -32.3560  -15.1330   17.9970 O   0  0  0  0  0  0  0  0  0  0  0  0
  -30.9580  -16.4930   21.7590 C   0  0  0  0  0  2  0  0  0  0  0  0
  -32.7970  -17.6300   20.3740 C   0  0  0  0  0  2  0  0  0  0  0  0
  -31.8110  -15.2180   21.5970 C   0  0  0  0  0  2  0  0  0  0  0  0
  -33.4480  -16.2340   20.2400 C   0  0  0  0  0  2  0  0  0  0  0  0
  -31.8200  -17.7730   21.5890 C   0  0  0  0  0  3  0  0  0  0  0  0
  -32.3700  -15.2370   20.2400 N   0  0  0  0  0  0  0  0  0  0  0  0
  -26.5800  -14.4290   20.6620 C   0  0  0  0  0  0  0  0  0  0  0  0
  -25.5190  -13.7360   21.1820 C   0  0  0  0  0  0  0  0  0  0  0  0
  -25.6420  -12.3990   20.6970 C   0  0  0  0  0  0  0  0  0  0  0  0
  -27.2950  -13.5150   19.9000 N   0  0  0  0  0  0  0  0  0  0  0  0
  -26.7480  -12.2740   19.9710 N   0  0  0  0  0  0  0  0  0  0  0  0
  -24.7430  -11.2460   20.8360 C   0  0  0  0  0  0  0  0  0  0  0  0
  -25.1530  -10.0710   21.5050 C   0  0  0  0  0  3  0  0  0  0  0  0
  -24.2680   -8.9800   21.6430 C   0  0  0  0  0  3  0  0  0  0  0  0
  -22.9570   -9.0570   21.1140 C   0  0  0  0  0  0  0  0  0  0  0  0
  -22.5610  -10.2220   20.4320 C   0  0  0  0  0  3  0  0  0  0  0  0
  -23.4440  -11.3050   20.2920 C   0  0  0  0  0  3  0  0  0  0  0  0
  -22.0380   -8.0380   21.1710 O   0  0  0  0  0  0  0  0  0  0  0  0
  -21.8420   -7.3070   22.3140 C   0  0  0  0  0  0  0  0  0  0  0  0
  -21.5490   -7.9230   23.5490 C   0  0  0  0  0  3  0  0  0  0  0  0
  -21.2820   -7.1330   24.6840 C   0  0  0  0  0  3  0  0  0  0  0  0
  -21.2960   -5.7300   24.5860 C   0  0  0  0  0  0  0  0  0  0  0  0
  -21.5820   -5.1130   23.3540 C   0  0  0  0  0  3  0  0  0  0  0  0
  -21.8490   -5.9000   22.2210 C   0  0  0  0  0  0  0  0  0  0  0  0
  -22.1010   -5.3020   21.0320 F   0  0  0  0  0  0  0  0  0  0  0  0
  -21.0340   -4.9700   25.6730 F   0  0  0  0  0  0  0  0  0  0  0  0
  -24.3940  -14.3050   22.0000 C   0  0  0  0  0  0  0  0  0  0  0  0
  -23.8510  -13.5240   22.9280 N   0  0  0  0  0  0  0  0  0  0  0  0
  -24.0180  -15.4660   21.8490 O   0  0  0  0  0  0  0  0  0  0  0  0
  -24.1770  -12.5790   23.0760 H   0  0  0  0  0  0  0  0  0  0  0  0
  -23.0960  -13.8770   23.4960 H   0  0  0  0  0  0  0  0  0  0  0  0
  -26.9800  -15.7570   20.7610 N   0  0  0  0  0  0  0  0  0  0  0  0
  -26.4150  -16.4470   21.2420 H   0  0  0  0  0  0  0  0  0  0  0  0
  -27.7910  -16.1550   20.3070 H   0  0  0  0  0  0  0  0  0  0  0  0
  -29.2390  -23.9300   21.6120 C   0  0  0  0  0  2  0  0  0  0  0  0
  -27.1380  -22.6070   21.3250 C   0  0  0  0  0  2  0  0  0  0  0  0
  -28.3400  -25.0950   21.1170 C   0  0  0  0  0  2  0  0  0  0  0  0
  -26.6060  -23.5650   20.2130 C   0  0  0  0  0  3  0  0  0  0  0  0
  -25.1950  -24.0740   20.5370 C   0  0  0  0  0  1  0  0  0  0  0  0
  -28.5960  -22.6340   21.4060 N   0  0  0  0  0  0  0  0  0  0  0  0
  -27.5180  -24.7240   19.9250 N   0  0  2  0  0  4  0  0  0  0  0  0
  -26.8910  -25.5000   19.7720 H   0  0  0  0  0  0  0  0  0  0  0  0
  -28.3170  -24.5900   18.6610 C   0  0  0  0  0  2  0  0  0  0  0  0
  -28.8430  -25.9220   18.0840 C   0  0  0  0  0  2  0  0  0  0  0  0
  -27.8410  -26.5200   17.2550 O   0  0  0  0  0  0  0  0  0  0  0  0
  -25.6510  -28.8920   23.5620 C   0  0  0  0  0  0  0  0  0  0  0  0
  -26.8630  -27.1590   17.9630 C   0  0  0  0  0  0  0  0  0  0  0  0
  -23.9230  -28.7820   21.7910 C   0  0  0  0  0  3  0  0  0  0  0  0
  -24.7970  -28.3840   19.4220 C   0  0  0  0  0  0  0  0  0  0  0  0
  -26.3800  -29.1450   21.2050 C   0  0  0  0  0  2  0  0  0  0  0  0
  -26.1120  -28.4250   19.9030 C   0  0  0  0  0  0  0  0  0  0  0  0
  -27.1490  -27.7990   19.1860 C   0  0  0  0  0  3  0  0  0  0  0  0
  -25.5490  -27.1660   17.4550 C   0  0  0  0  0  3  0  0  0  0  0  0
  -24.5060  -27.7550   18.1970 C   0  0  0  0  0  3  0  0  0  0  0  0
  -23.7390  -29.0550   20.2700 C   0  0  0  0  0  2  0  0  0  0  0  0
  -25.3480  -28.9180   22.2360 N   0  0  0  0  0  0  0  0  0  0  0  0
  -24.7600  -28.8110   24.4200 O   0  0  0  0  0  0  0  0  0  0  0  0
  -23.3090  -27.4030   22.1170 C   0  0  0  0  0  0  0  0  0  0  0  0
  -21.9910  -27.2760   21.9030 N   0  0  0  0  0  0  0  0  0  0  0  0
  -24.0140  -26.4740   22.5180 O   0  0  0  0  0  0  0  0  0  0  0  0
  -21.4840  -28.0800   21.5690 H   0  0  0  0  0  0  0  0  0  0  0  0
  -18.7510  -25.7940   21.3190 C   0  0  0  0  0  0  0  0  0  0  0  0
  -21.2000  -26.0630   22.0990 C   0  0  0  0  0  3  0  0  0  0  0  0
  -21.5500  -24.9940   21.0390 C   0  0  0  0  0  2  0  0  0  0  0  0
  -20.6390  -25.0460   19.8080 C   0  0  0  0  0  2  0  0  0  0  0  0
  -19.1760  -24.8440   20.2110 C   0  0  0  0  0  2  0  0  0  0  0  0
  -19.7040  -26.3810   22.1930 C   0  0  0  0  0  0  0  0  0  0  0  0
  -19.2590  -27.2890   23.1790 C   0  0  0  0  0  3  0  0  0  0  0  0
  -17.8940  -27.6080   23.3020 C   0  0  0  0  0  3  0  0  0  0  0  0
  -16.9540  -27.0070   22.4480 C   0  0  0  0  0  3  0  0  0  0  0  0
  -17.3810  -26.1010   21.4600 C   0  0  0  0  0  3  0  0  0  0  0  0
  -27.1240  -28.9890   24.0690 C   0  0  0  0  0  3  0  0  0  0  0  0
  -27.7120  -27.6070   24.5580 C   0  0  1  0  0  0  0  0  0  0  0  0
  -26.8120  -26.8860   25.5870 C   0  0  0  0  0  1  0  0  0  0  0  0
  -27.9210  -26.6440   23.3630 C   0  0  0  0  0  1  0  0  0  0  0  0
  -29.1020  -27.8230   25.2020 C   0  0  0  0  0  1  0  0  0  0  0  0
  -27.1530  -29.9840   25.1490 N   0  0  0  0  0  0  0  0  0  0  0  0
  -27.6940  -31.2050   25.0420 C   0  0  0  0  0  0  0  0  0  0  0  0
  -28.2940  -31.5870   24.0330 O   0  0  0  0  0  0  0  0  0  0  0  0
  -26.6260  -29.7640   25.9820 H   0  0  0  0  0  0  0  0  0  0  0  0
  -26.4350  -33.1730   25.9680 C   0  0  0  0  0  1  0  0  0  0  0  0
  -27.5470  -32.1510   26.2500 C   0  0  0  0  0  3  0  0  0  0  0  0
  -29.8320  -31.9700   27.1240 C   0  0  0  0  0  1  0  0  0  0  0  0
  -28.7950  -32.8560   26.6030 N   0  0  0  0  0  0  0  0  0  0  0  0
  -28.6170  -33.5790   27.2930 H   0  0  0  0  0  0  0  0  0  0  0  0
  1  2  1  0
  2  4  2  0
  3  1  2  0
  3  6  1  0
  4  8  1  0
  5  4  1  0
  5  9  1  0
  6  5  2  0
  7  3  1  0
 10 16  1  0
 10 23  1  0
 11 16  1  0
 12 13  1  0
 12 11  1  0
 14 13  1  0
 14 27  1  0
 14 15  1  0
 16 15  1  0
 17 10  2  0
 19 22  1  0
 20 18  1  0
 21 19  1  0
 22  2  1  0
 22 18  1  0
 23 21  1  0
 23 20  1  0
 24 49  1  0
 24 25  2  0
 25 44  1  0
 26 29  1  0
 26 25  1  0
 27 28  1  0
 27 24  1  0
 28 26  2  0
 29 30  1  0
 30 31  2  0
 32 35  1  0
 32 31  1  0
 33 32  2  0
 34 33  1  0
 34 29  2  0
 35 36  1  0
 36 37  1  0
 37 38  2  0
 39 38  1  0
 39 43  1  0
 40 39  2  0
 41 36  2  0
 41 40  1  0
 42 41  1  0
 44 45  1  0
 45 47  1  0
 45 48  1  0
 46 44  2  0
 49 50  1  0
 51 49  1  0
 53 57  1  0
 54 52  1  0
 55 56  1  0
 55 53  1  0
 57  6  1  0
 57 52  1  0
 58 55  1  0
 58 54  1  0
 58 59  1  6
 60 58  1  0
 61 60  1  0
 62 64  1  0
 62 61  1  0
 63 74  2  0
 64 69  1  0
 65 75  1  0
 65 73  1  0
 66 68  1  0
 66 72  1  0
 67 73  1  0
 68 67  1  0
 69 68  2  0
 70 64  2  0
 70 71  1  0
 71 66  2  0
 72 65  1  0
 73 63  1  0
 75 77  2  0
 76 75  1  0
 78 76  1  0
 79 88  2  0
 79 84  1  0
 80 76  1  0
 80 84  1  0
 81 80  1  0
 82 83  1  0
 82 81  1  0
 83 79  1  0
 84 85  2  0
 85 86  1  0
 87 86  2  0
 88 87  1  0
 89 63  1  0
 89 90  1  0
 89 94  1  0
 90 93  1  1
 90 91  1  0
 92 90  1  0
 94 97  1  0
 95 94  1  0
 95 99  1  0
 96 95  2  0
 99 98  1  0
 99101  1  0
101100  1  0
101102  1  0
M  ISO  4  10 100  23 100  61 101  62 101
M  END
>  <TORSDO>  (91) 
F 19

>  <SCORE>  (91) 
-6.014

>  <name>  (91) 
90

>  <ligand_id>  (91) 
90

>  <original_smiles>  (91) 
[H]c1c([H])c([H])c2c(c1[H])C([H])([H])C([H])([H])C([H])([H])C2([H])N([H])C(=O)C1([H])N(C(=O)C([H])(N([H])C(=O)C([H])(N([H])C([H])([H])[H])C([H])([H])[H])C(C([H])([H])[H])(C([H])([H])[H])C([H])([H])[H])C([H])([H])c2c([H])c(OC([H])([H])C([H])([H])[N+]3([H])C([H])([H])C([H])([H])N(c4c(C([H])([H])[H])c([H])c(C5([H])C([H])([H])C([H])([H])N(C(=O)N6C([H])([H])C([H])([H])C([H])([H])C([H])(n7nc(-c8c([H])c([H])c(Oc9c([H])c([H])c(F)c([H])c9F)c([H])c8[H])c(C(=O)N([H])[H])c7N([H])[H])C6([H])[H])C([H])([H])C5([H])[H])c(C([H])([H])[H])c4C([H])([H])[H])C([H])([H])C3([H])C([H])([H])[H])c([H])c([H])c2C1([H])[H]

>  <smiles>  (91) 
[H]c1c([H])c([H])c2c(c1[H])C([H])([H])C([H])([H])C([H])([H])C2([H])N([H])C(=O)C1([H])N(C(=O)C([H])(N([H])C(=O)C([H])(N([H])C([H])([H])[H])C([H])([H])[H])C(C([H])([H])[H])(C([H])([H])[H])C([H])([H])[H])C([H])([H])c2c([H])c(OC([H])([H])C([H])([H])[N+]3([H])C([H])([H])C([H])([H])N(c4c(C([H])([H])[H])c([H])c(C5([H])C([H])([H])C([H])([H])N(C(=O)N6C([H])([H])C([H])([H])C([H])([H])C([H])(n7nc(-c8c([H])c([H])c(Oc9c([H])c([H])c(F)c([H])c9F)c([H])c8[H])c(C(=O)N([H])[H])c7N([H])[H])C6([H])[H])C([H])([H])C5([H])[H])c(C([H])([H])[H])c4C([H])([H])[H])C([H])([H])C3([H])C([H])([H])[H])c([H])c([H])c2C1([H])[H]

$$$$
91:0:0
     RDKit          3D

 97107  0  0  1  0  0  0  0  0999 V2000
  -29.3000  -20.4440   19.8940 C   0  0  0  0  0  3  0  0  0  0  0  0
  -30.0750  -22.3930   21.7110 C   0  0  0  0  0  3  0  0  0  0  0  0
  -29.8190  -20.0110   21.1350 C   0  0  0  0  0  0  0  0  0  0  0  0
  -29.6290  -22.8440   20.4370 C   0  0  0  0  0  0  0  0  0  0  0  0
  -30.1720  -21.0240   22.0650 C   0  0  0  0  0  0  0  0  0  0  0  0
  -29.1660  -21.8160   19.5520 C   0  0  0  0  0  0  0  0  0  0  0  0
  -30.6740  -20.6720   23.4590 C   0  0  0  0  0  1  0  0  0  0  0  0
  -28.4910  -22.0920   18.2180 C   0  0  0  0  0  1  0  0  0  0  0  0
  -30.8650  -14.5970   19.9720 C   0  0  0  0  0  0  0  0  0  0  0  0
  -30.4520  -12.4950   18.7060 C   0  0  0  0  0  2  0  0  0  0  0  0
  -29.3990  -12.7010   17.5970 C   0  0  0  0  0  2  0  0  0  0  0  0
  -27.9750  -12.4990   18.1470 C   0  0  0  0  0  2  0  0  0  0  0  0
  -27.7440  -13.2920   19.4560 C   0  0  0  0  0  3  0  0  0  0  0  0
  -28.8960  -13.0370   20.4630 C   0  0  0  0  0  2  0  0  0  0  0  0
  -30.1520  -13.4320   19.8130 N   0  0  0  0  0  0  0  0  0  0  0  0
  -31.9130  -14.7610   19.3380 O   0  0  0  0  0  0  0  0  0  0  0  0
  -28.9500  -17.5610   20.7710 C   0  0  0  0  0  2  0  0  0  0  0  0
  -31.3750  -17.9170   21.1930 C   0  0  0  0  0  2  0  0  0  0  0  0
  -29.1330  -16.0760   21.1840 C   0  0  0  0  0  2  0  0  0  0  0  0
  -31.4890  -16.4070   21.5730 C   0  0  0  0  0  2  0  0  0  0  0  0
  -29.9670  -18.4930   21.4630 C   0  0  0  0  0  3  0  0  0  0  0  0
  -30.4870  -15.5430   20.9030 N   0  0  0  0  0  0  0  0  0  0  0  0
  -25.4280  -13.8940   20.4100 C   0  0  0  0  0  0  0  0  0  0  0  0
  -24.3920  -13.1140   20.8450 C   0  0  0  0  0  0  0  0  0  0  0  0
  -24.8360  -11.7630   20.7130 C   0  0  0  0  0  0  0  0  0  0  0  0
  -26.4380  -13.0160   20.0450 N   0  0  0  0  0  0  0  0  0  0  0  0
  -26.0900  -11.7280   20.2860 N   0  0  0  0  0  0  0  0  0  0  0  0
  -24.1200  -10.4980   20.9150 C   0  0  0  0  0  0  0  0  0  0  0  0
  -24.5780   -9.5300   21.8350 C   0  0  0  0  0  3  0  0  0  0  0  0
  -23.8630   -8.3270   22.0220 C   0  0  0  0  0  3  0  0  0  0  0  0
  -22.6780   -8.0850   21.2880 C   0  0  0  0  0  0  0  0  0  0  0  0
  -22.2400   -9.0430   20.3570 C   0  0  0  0  0  3  0  0  0  0  0  0
  -22.9550  -10.2370   20.1680 C   0  0  0  0  0  3  0  0  0  0  0  0
  -21.9330   -6.9350   21.3850 O   0  0  0  0  0  0  0  0  0  0  0  0
  -21.8300   -6.2400   22.5630 C   0  0  0  0  0  0  0  0  0  0  0  0
  -21.3310   -6.8390   23.7400 C   0  0  0  0  0  3  0  0  0  0  0  0
  -21.1760   -6.0690   24.9090 C   0  0  0  0  0  3  0  0  0  0  0  0
  -21.5110   -4.7020   24.9030 C   0  0  0  0  0  0  0  0  0  0  0  0
  -22.0040   -4.1020   23.7290 C   0  0  0  0  0  3  0  0  0  0  0  0
  -22.1580   -4.8700   22.5620 C   0  0  0  0  0  0  0  0  0  0  0  0
  -22.6120   -4.2830   21.4290 F   0  0  0  0  0  0  0  0  0  0  0  0
  -21.3570   -3.9590   26.0240 F   0  0  0  0  0  0  0  0  0  0  0  0
  -23.0290  -13.5880   21.2640 C   0  0  0  0  0  0  0  0  0  0  0  0
  -22.3770  -12.8650   22.1690 N   0  0  0  0  0  0  0  0  0  0  0  0
  -22.5510  -14.6320   20.8240 O   0  0  0  0  0  0  0  0  0  0  0  0
  -22.7760  -12.0200   22.5500 H   0  0  0  0  0  0  0  0  0  0  0  0
  -21.4660  -13.1650   22.4870 H   0  0  0  0  0  0  0  0  0  0  0  0
  -25.5840  -15.2720   20.2740 N   0  0  0  0  0  0  0  0  0  0  0  0
  -24.8350  -15.9210   20.4880 H   0  0  0  0  0  0  0  0  0  0  0  0
  -26.3940  -15.7200   19.8710 H   0  0  0  0  0  0  0  0  0  0  0  0
  -31.5040  -26.1700   20.0510 C   0  0  0  0  0  2  0  0  0  0  0  0
  -30.9900  -25.9730   18.6250 C   0  0  0  0  0  2  0  0  0  0  0  0
  -30.9230  -25.0160   20.8770 C   0  0  0  0  0  2  0  0  0  0  0  0
  -30.2300  -24.6440   18.6390 C   0  0  0  0  0  2  0  0  0  0  0  0
  -29.7500  -24.3810   20.0870 C   0  0  1  0  0  0  0  0  0  0  0  0
  -28.4290  -25.1930   20.3580 C   0  0  0  0  0  2  0  0  0  0  0  0
  -28.5440  -26.6360   20.1510 O   0  0  0  0  0  0  0  0  0  0  0  0
  -24.7150  -31.8710   23.1820 C   0  0  0  0  0  0  0  0  0  0  0  0
  -27.3860  -27.3970   20.1260 C   0  0  0  0  0  0  0  0  0  0  0  0
  -23.5270  -30.4560   21.5420 C   0  0  0  0  0  3  0  0  0  0  0  0
  -24.9980  -28.9330   20.1160 C   0  0  0  0  0  0  0  0  0  0  0  0
  -26.0560  -30.8270   21.3490 C   0  0  0  0  0  2  0  0  0  0  0  0
  -26.1540  -29.4520   20.7110 C   0  0  0  0  0  0  0  0  0  0  0  0
  -27.3540  -28.6940   20.7080 C   0  0  0  0  0  3  0  0  0  0  0  0
  -26.2120  -26.9160   19.5080 C   0  0  0  0  0  3  0  0  0  0  0  0
  -25.0270  -27.6710   19.5040 C   0  0  0  0  0  3  0  0  0  0  0  0
  -23.7480  -29.7830   20.1610 C   0  0  0  0  0  2  0  0  0  0  0  0
  -24.7850  -31.0670   22.0820 N   0  0  0  0  0  0  0  0  0  0  0  0
  -23.6300  -32.1310   23.7210 O   0  0  0  0  0  0  0  0  0  0  0  0
  -22.8870  -29.4260   22.5010 C   0  0  0  0  0  0  0  0  0  0  0  0
  -21.5650  -29.2290   22.3750 N   0  0  0  0  0  0  0  0  0  0  0  0
  -23.5780  -28.8080   23.3170 O   0  0  0  0  0  0  0  0  0  0  0  0
  -21.0670  -29.7790   21.6890 H   0  0  0  0  0  0  0  0  0  0  0  0
  -18.2060  -27.9810   22.8600 C   0  0  0  0  0  0  0  0  0  0  0  0
  -20.7580  -28.2820   23.1470 C   0  0  0  0  0  3  0  0  0  0  0  0
  -20.8860  -26.8490   22.5780 C   0  0  0  0  0  2  0  0  0  0  0  0
  -19.7960  -26.5050   21.5580 C   0  0  0  0  0  2  0  0  0  0  0  0
  -18.4080  -26.6320   22.1930 C   0  0  0  0  0  2  0  0  0  0  0  0
  -19.3090  -28.7630   23.2940 C   0  0  0  0  0  0  0  0  0  0  0  0
  -19.0660  -30.0260   23.8780 C   0  0  0  0  0  3  0  0  0  0  0  0
  -17.7520  -30.5080   24.0310 C   0  0  0  0  0  3  0  0  0  0  0  0
  -16.6640  -29.7230   23.6160 C   0  0  0  0  0  3  0  0  0  0  0  0
  -16.8910  -28.4610   23.0360 C   0  0  0  0  0  3  0  0  0  0  0  0
  -25.9920  -32.5210   23.8000 C   0  0  0  0  0  3  0  0  0  0  0  0
  -25.6550  -33.9050   24.1580 N   0  0  0  0  0  0  0  0  0  0  0  0
  -25.9470  -34.9780   23.4100 C   0  0  0  0  0  0  0  0  0  0  0  0
  -26.5950  -34.9070   22.3630 O   0  0  0  0  0  0  0  0  0  0  0  0
  -25.0720  -34.0320   24.9720 H   0  0  0  0  0  0  0  0  0  0  0  0
  -24.1650  -36.7280   23.1290 C   0  0  0  0  0  1  0  0  0  0  0  0
  -25.4390  -36.3470   23.8990 C   0  0  0  0  0  3  0  0  0  0  0  0
  -27.5710  -37.2770   24.6850 C   0  0  0  0  0  1  0  0  0  0  0  0
  -26.4410  -37.4280   23.7730 N   0  0  0  0  0  0  0  0  0  0  0  0
  -26.0150  -38.3350   23.9440 H   0  0  0  0  0  0  0  0  0  0  0  0
  -26.5420  -31.7370   25.0530 C   0  0  1  0  0  0  0  0  0  0  0  0
  -25.4650  -31.4520   26.1280 C   0  0  0  0  0  1  0  0  0  0  0  0
  -27.1500  -30.3810   24.6240 C   0  0  0  0  0  1  0  0  0  0  0  0
  -27.6850  -32.5420   25.7150 C   0  0  0  0  0  1  0  0  0  0  0  0
  1  3  1  0
  2  5  1  0
  3  5  2  0
  4  2  2  0
  5  7  1  0
  6  1  2  0
  6  4  1  0
  8  6  1  0
  9 22  1  0
 10 15  1  0
 11 12  1  0
 11 10  1  0
 13 12  1  0
 13 26  1  0
 13 14  1  0
 15  9  1  0
 15 14  1  0
 16  9  2  0
 17 19  1  0
 17 21  1  0
 18 21  1  0
 18 20  1  0
 21  3  1  0
 22 19  1  0
 22 20  1  0
 23 24  2  0
 24 43  1  0
 25 24  1  0
 25 28  1  0
 26 27  1  0
 26 23  1  0
 27 25  2  0
 28 29  1  0
 29 30  2  0
 31 34  1  0
 31 30  1  0
 32 31  2  0
 33 32  1  0
 33 28  2  0
 34 35  1  0
 35 36  1  0
 36 37  2  0
 38 37  1  0
 38 42  1  0
 39 38  2  0
 40 35  2  0
 40 39  1  0
 41 40  1  0
 43 44  1  0
 44 47  1  0
 44 46  1  0
 45 43  2  0
 48 23  1  0
 48 49  1  0
 50 48  1  0
 51 53  1  0
 52 54  1  0
 52 51  1  0
 54 55  1  0
 55 56  1  1
 55  4  1  0
 55 53  1  0
 57 56  1  0
 58 69  2  0
 59 57  1  0
 59 64  1  0
 60 68  1  0
 60 70  1  0
 61 67  1  0
 61 63  1  0
 62 68  1  0
 63 62  1  0
 64 63  2  0
 65 59  2  0
 66 65  1  0
 66 61  2  0
 67 60  1  0
 68 58  1  0
 70 72  2  0
 71 70  1  0
 73 71  1  0
 74 83  2  0
 74 79  1  0
 75 71  1  0
 75 79  1  0
 76 75  1  0
 77 78  1  0
 77 76  1  0
 78 74  1  0
 79 80  2  0
 80 81  1  0
 82 81  2  0
 83 82  1  0
 84 58  1  0
 84 85  1  0
 84 94  1  0
 85 88  1  0
 86 90  1  0
 86 85  1  0
 87 86  2  0
 90 89  1  0
 92 90  1  0
 92 93  1  0
 92 91  1  0
 94 97  1  1
 94 95  1  0
 96 94  1  0
M  ISO  4   9 100  22 100  56 101  57 101
M  END
>  <TORSDO>  (92) 
F 18

>  <SCORE>  (92) 
-14.229

>  <name>  (92) 
91

>  <ligand_id>  (92) 
91

>  <original_smiles>  (92) 
[H]c1c([H])c([H])c2c(c1[H])C([H])([H])C([H])([H])C([H])([H])C2([H])N([H])C(=O)C1([H])N(C(=O)C([H])(N([H])C(=O)C([H])(N([H])C([H])([H])[H])C([H])([H])[H])C(C([H])([H])[H])(C([H])([H])[H])C([H])([H])[H])C([H])([H])c2c([H])c(OC([H])([H])C3(c4c([H])c(C([H])([H])[H])c(C5([H])C([H])([H])C([H])([H])N(C(=O)N6C([H])([H])C([H])([H])C([H])([H])C([H])(n7nc(-c8c([H])c([H])c(Oc9c([H])c([H])c(F)c([H])c9F)c([H])c8[H])c(C(=O)N([H])[H])c7N([H])[H])C6([H])[H])C([H])([H])C5([H])[H])c([H])c4C([H])([H])[H])C([H])([H])C([H])([H])C([H])([H])C3([H])[H])c([H])c([H])c2C1([H])[H]

>  <smiles>  (92) 
[H]c1c([H])c([H])c2c(c1[H])C([H])([H])C([H])([H])C([H])([H])C2([H])N([H])C(=O)C1([H])N(C(=O)C([H])(N([H])C(=O)C([H])(N([H])C([H])([H])[H])C([H])([H])[H])C(C([H])([H])[H])(C([H])([H])[H])C([H])([H])[H])C([H])([H])c2c([H])c(OC([H])([H])C3(c4c([H])c(C([H])([H])[H])c(C5([H])C([H])([H])C([H])([H])N(C(=O)N6C([H])([H])C([H])([H])C([H])([H])C([H])(n7nc(-c8c([H])c([H])c(Oc9c([H])c([H])c(F)c([H])c9F)c([H])c8[H])c(C(=O)N([H])[H])c7N([H])[H])C6([H])[H])C([H])([H])C5([H])[H])c([H])c4C([H])([H])[H])C([H])([H])C([H])([H])C([H])([H])C3([H])[H])c([H])c([H])c2C1([H])[H]

$$$$
92:0:0
     RDKit          3D

 94104  0  0  1  0  0  0  0  0999 V2000
  -27.4680  -21.3960   20.1320 C   0  0  0  0  0  3  0  0  0  0  0  0
  -29.5610  -21.2320   20.7640 C   0  0  0  0  0  3  0  0  0  0  0  0
  -28.5550  -22.1910   20.5920 C   0  0  0  0  0  0  0  0  0  0  0  0
  -27.7870  -20.0720   20.0450 C   0  0  0  0  0  0  0  0  0  0  0  0
  -29.1220  -19.9090   20.4210 N   0  0  0  0  0  0  0  0  0  0  0  0
  -31.4040  -14.3220   20.4130 C   0  0  0  0  0  0  0  0  0  0  0  0
  -31.1890  -11.9580   19.6400 C   0  0  0  0  0  2  0  0  0  0  0  0
  -30.2590  -11.9070   18.4080 C   0  0  0  0  0  2  0  0  0  0  0  0
  -28.7910  -11.7840   18.8540 C   0  0  0  0  0  2  0  0  0  0  0  0
  -28.4200  -12.8050   19.9640 C   0  0  0  0  0  3  0  0  0  0  0  0
  -29.4670  -12.8390   21.0960 C   0  0  0  0  0  2  0  0  0  0  0  0
  -30.7650  -13.1110   20.4690 N   0  0  0  0  0  0  0  0  0  0  0  0
  -32.5830  -14.3710   20.0380 O   0  0  0  0  0  0  0  0  0  0  0  0
  -29.7270  -17.6480   19.2440 C   0  0  0  0  0  2  0  0  0  0  0  0
  -29.7790  -17.6520   21.6620 C   0  0  0  0  0  2  0  0  0  0  0  0
  -30.6720  -16.3790   19.2500 C   0  0  0  0  0  2  0  0  0  0  0  0
  -30.7010  -16.3670   21.6610 C   0  0  0  0  0  2  0  0  0  0  0  0
  -29.9420  -18.6120   20.4390 C   0  0  0  0  0  3  0  0  0  0  0  0
  -30.6410  -15.4920   20.4540 N   0  0  0  0  0  0  0  0  0  0  0  0
  -26.1310  -13.5040   20.8690 C   0  0  0  0  0  0  0  0  0  0  0  0
  -25.0160  -12.7910   21.2140 C   0  0  0  0  0  0  0  0  0  0  0  0
  -25.3470  -11.4180   20.9940 C   0  0  0  0  0  0  0  0  0  0  0  0
  -27.0760  -12.5740   20.4810 N   0  0  0  0  0  0  0  0  0  0  0  0
  -26.6120  -11.3050   20.6090 N   0  0  0  0  0  0  0  0  0  0  0  0
  -24.5120  -10.2150   21.0660 C   0  0  0  0  0  0  0  0  0  0  0  0
  -24.7580   -9.2020   22.0190 C   0  0  0  0  0  3  0  0  0  0  0  0
  -23.9310   -8.0590   22.0760 C   0  0  0  0  0  3  0  0  0  0  0  0
  -22.8460   -7.9240   21.1760 C   0  0  0  0  0  0  0  0  0  0  0  0
  -22.6220   -8.9240   20.2160 C   0  0  0  0  0  3  0  0  0  0  0  0
  -23.4480  -10.0590   20.1570 C   0  0  0  0  0  3  0  0  0  0  0  0
  -22.0040   -6.8380   21.1460 O   0  0  0  0  0  0  0  0  0  0  0  0
  -21.5470   -6.2490   22.2960 C   0  0  0  0  0  0  0  0  0  0  0  0
  -20.8350   -6.9790   23.2750 C   0  0  0  0  0  3  0  0  0  0  0  0
  -20.3220   -6.3190   24.4090 C   0  0  0  0  0  3  0  0  0  0  0  0
  -20.5090   -4.9330   24.5640 C   0  0  0  0  0  0  0  0  0  0  0  0
  -21.2130   -4.2050   23.5890 C   0  0  0  0  0  3  0  0  0  0  0  0
  -21.7270   -4.8610   22.4580 C   0  0  0  0  0  0  0  0  0  0  0  0
  -22.3870   -4.1520   21.5110 F   0  0  0  0  0  0  0  0  0  0  0  0
  -20.0080   -4.2960   25.6490 F   0  0  0  0  0  0  0  0  0  0  0  0
  -23.6870  -13.3550   21.6200 C   0  0  0  0  0  0  0  0  0  0  0  0
  -22.9460  -12.6330   22.4530 N   0  0  0  0  0  0  0  0  0  0  0  0
  -23.3180  -14.4640   21.2360 O   0  0  0  0  0  0  0  0  0  0  0  0
  -23.2640  -11.7320   22.7790 H   0  0  0  0  0  0  0  0  0  0  0  0
  -22.0580  -12.9910   22.7760 H   0  0  0  0  0  0  0  0  0  0  0  0
  -26.4160  -14.8580   20.8180 N   0  0  0  0  0  0  0  0  0  0  0  0
  -25.6980  -15.5570   20.9590 H   0  0  0  0  0  0  0  0  0  0  0  0
  -27.2690  -15.2360   20.4250 H   0  0  0  0  0  0  0  0  0  0  0  0
  -27.2700  -17.8850   18.7040 C   0  0  0  0  0  2  0  0  0  0  0  0
  -26.3390  -18.9490   18.1860 C   0  0  0  0  0  2  0  0  0  0  0  0
  -26.8400  -18.9990   19.6180 C   0  0  0  0  0  3  0  0  0  0  0  0
  -27.1140  -24.0510   21.5600 C   0  0  0  0  0  1  0  0  0  0  0  0
  -28.3820  -23.7780   20.7090 C   0  0  0  0  0  3  0  0  0  0  0  0
  -29.5100  -24.7660   21.2340 C   0  0  0  0  0  2  0  0  0  0  0  0
  -29.5230  -26.2380   20.9790 O   0  0  0  0  0  0  0  0  0  0  0  0
  -25.6730  -31.4580   24.1570 C   0  0  0  0  0  0  0  0  0  0  0  0
  -28.4030  -27.0780   20.9810 C   0  0  0  0  0  0  0  0  0  0  0  0
  -24.5900  -30.2920   22.2660 C   0  0  0  0  0  3  0  0  0  0  0  0
  -26.1210  -28.7970   20.8590 C   0  0  0  0  0  0  0  0  0  0  0  0
  -27.1440  -30.4880   22.3800 C   0  0  0  0  0  2  0  0  0  0  0  0
  -27.2310  -29.1690   21.6260 C   0  0  0  0  0  0  0  0  0  0  0  0
  -28.3760  -28.3220   21.6780 C   0  0  0  0  0  3  0  0  0  0  0  0
  -27.2890  -26.7680   20.1730 C   0  0  0  0  0  3  0  0  0  0  0  0
  -26.1540  -27.6010   20.1220 C   0  0  0  0  0  3  0  0  0  0  0  0
  -24.9240  -29.7290   20.8570 C   0  0  0  0  0  2  0  0  0  0  0  0
  -25.8140  -30.7590   22.9940 N   0  0  0  0  0  0  0  0  0  0  0  0
  -24.5520  -31.7430   24.6070 O   0  0  0  0  0  0  0  0  0  0  0  0
  -23.7840  -29.2270   23.0490 C   0  0  0  0  0  0  0  0  0  0  0  0
  -22.4810  -29.1110   22.7400 N   0  0  0  0  0  0  0  0  0  0  0  0
  -24.3330  -28.5160   23.8950 O   0  0  0  0  0  0  0  0  0  0  0  0
  -22.1030  -29.7320   22.0380 H   0  0  0  0  0  0  0  0  0  0  0  0
  -19.0220  -28.0540   22.7570 C   0  0  0  0  0  0  0  0  0  0  0  0
  -21.5440  -28.1490   23.3190 C   0  0  0  0  0  3  0  0  0  0  0  0
  -21.6450  -26.7790   22.6090 C   0  0  0  0  0  2  0  0  0  0  0  0
  -20.6480  -26.6210   21.4570 C   0  0  0  0  0  2  0  0  0  0  0  0
  -19.2110  -26.7710   21.9660 C   0  0  0  0  0  2  0  0  0  0  0  0
  -20.1180  -28.7090   23.3780 C   0  0  0  0  0  0  0  0  0  0  0  0
  -19.8910  -29.9200   24.0680 C   0  0  0  0  0  3  0  0  0  0  0  0
  -18.5980  -30.4710   24.1470 C   0  0  0  0  0  3  0  0  0  0  0  0
  -17.5140  -29.8120   23.5420 C   0  0  0  0  0  3  0  0  0  0  0  0
  -17.7260  -28.6040   22.8560 C   0  0  0  0  0  3  0  0  0  0  0  0
  -26.9110  -31.9530   24.9660 C   0  0  0  0  0  3  0  0  0  0  0  0
  -27.1280  -31.1630   26.3130 C   0  0  1  0  0  0  0  0  0  0  0  0
  -25.8530  -31.0530   27.1790 C   0  0  0  0  0  1  0  0  0  0  0  0
  -27.6320  -29.7280   26.0330 C   0  0  0  0  0  1  0  0  0  0  0  0
  -28.2180  -31.8600   27.1610 C   0  0  0  0  0  1  0  0  0  0  0  0
  -26.7250  -33.3870   25.2290 N   0  0  0  0  0  0  0  0  0  0  0  0
  -27.2800  -34.3710   24.5110 C   0  0  0  0  0  0  0  0  0  0  0  0
  -28.0730  -34.1600   23.5880 O   0  0  0  0  0  0  0  0  0  0  0  0
  -26.0430  -33.6350   25.9310 H   0  0  0  0  0  0  0  0  0  0  0  0
  -25.8320  -36.3360   23.9010 C   0  0  0  0  0  1  0  0  0  0  0  0
  -26.8980  -35.8190   24.8780 C   0  0  0  0  0  3  0  0  0  0  0  0
  -28.9870  -36.4900   25.9800 C   0  0  0  0  0  1  0  0  0  0  0  0
  -28.0490  -36.7450   24.8900 N   0  0  0  0  0  0  0  0  0  0  0  0
  -27.7360  -37.7090   24.9630 H   0  0  0  0  0  0  0  0  0  0  0  0
  1  3  1  0
  3 52  1  0
  3  2  2  0
  4  1  2  0
  4  5  1  0
  5 18  1  0
  5  2  1  0
  6 19  1  0
  6 12  1  0
  7 12  1  0
  8  9  1  0
  8  7  1  0
 10  9  1  0
 10 23  1  0
 10 11  1  0
 12 11  1  0
 13  6  2  0
 14 16  1  0
 16 19  1  0
 17 15  1  0
 18 14  1  0
 18 15  1  0
 19 17  1  0
 20 21  2  0
 21 40  1  0
 22 25  1  0
 22 21  1  0
 23 24  1  0
 23 20  1  0
 24 22  2  0
 25 26  1  0
 26 27  2  0
 28 27  1  0
 29 28  2  0
 30 29  1  0
 30 25  2  0
 31 28  1  0
 31 32  1  0
 32 37  2  0
 32 33  1  0
 33 34  2  0
 34 35  1  0
 35 39  1  0
 36 35  2  0
 37 36  1  0
 38 37  1  0
 40 41  1  0
 41 44  1  0
 41 43  1  0
 42 40  2  0
 45 20  1  0
 45 46  1  0
 47 45  1  0
 48 50  1  0
 49 48  1  0
 49 50  1  0
 50  4  1  0
 52 53  1  0
 52 51  1  0
 54 56  1  0
 54 53  1  0
 55 66  2  0
 56 61  1  0
 57 65  1  0
 57 67  1  0
 58 60  1  0
 59 65  1  0
 60 61  2  0
 60 59  1  0
 62 56  2  0
 63 62  1  0
 63 58  2  0
 64 58  1  0
 64 57  1  0
 65 55  1  0
 67 69  2  0
 68 67  1  0
 70 68  1  0
 71 80  2  0
 71 76  1  0
 72 68  1  0
 72 76  1  0
 73 72  1  0
 74 75  1  0
 74 73  1  0
 75 71  1  0
 76 77  2  0
 77 78  1  0
 79 78  2  0
 80 79  1  0
 81 55  1  0
 81 86  1  0
 81 82  1  0
 82 85  1  1
 82 83  1  0
 84 82  1  0
 86 89  1  0
 87 91  1  0
 87 86  1  0
 88 87  2  0
 91 90  1  0
 91 93  1  0
 93 94  1  0
 93 92  1  0
M  ISO  4   6 100  19 100  53 101  54 101
M  END
>  <TORSDO>  (93) 
F 19

>  <SCORE>  (93) 
-9.533

>  <name>  (93) 
92

>  <ligand_id>  (93) 
92

>  <original_smiles>  (93) 
[H]c1c([H])c([H])c2c(c1[H])C([H])([H])C([H])([H])C([H])([H])C2([H])N([H])C(=O)C1([H])N(C(=O)C([H])(N([H])C(=O)C([H])(N([H])C([H])([H])[H])C([H])([H])[H])C(C([H])([H])[H])(C([H])([H])[H])C([H])([H])[H])C([H])([H])c2c([H])c(OC([H])([H])C([H])(c3c([H])c(C4([H])C([H])([H])C4([H])[H])n(C4([H])C([H])([H])C([H])([H])N(C(=O)N5C([H])([H])C([H])([H])C([H])([H])C([H])(n6nc(-c7c([H])c([H])c(Oc8c([H])c([H])c(F)c([H])c8F)c([H])c7[H])c(C(=O)N([H])[H])c6N([H])[H])C5([H])[H])C([H])([H])C4([H])[H])c3[H])C([H])([H])[H])c([H])c([H])c2C1([H])[H]

>  <smiles>  (93) 
[H]c1c([H])c([H])c2c(c1[H])C([H])([H])C([H])([H])C([H])([H])C2([H])N([H])C(=O)C1([H])N(C(=O)C([H])(N([H])C(=O)C([H])(N([H])C([H])([H])[H])C([H])([H])[H])C(C([H])([H])[H])(C([H])([H])[H])C([H])([H])[H])C([H])([H])c2c([H])c(OC([H])([H])C([H])(c3c([H])c(C4([H])C([H])([H])C4([H])[H])n(C4([H])C([H])([H])C([H])([H])N(C(=O)N5C([H])([H])C([H])([H])C([H])([H])C([H])(n6nc(-c7c([H])c([H])c(Oc8c([H])c([H])c(F)c([H])c8F)c([H])c7[H])c(C(=O)N([H])[H])c6N([H])[H])C5([H])[H])C([H])([H])C4([H])[H])c3[H])C([H])([H])[H])c([H])c([H])c2C1([H])[H]

$$$$
93:0:0
     RDKit          3D

 95105  0  0  1  0  0  0  0  0999 V2000
  -30.4060  -22.6830   18.0670 C   0  0  0  0  0  0  0  0  0  0  0  0
  -30.9530  -23.3430   19.1680 C   0  0  0  0  0  0  0  0  0  0  0  0
  -28.8220  -21.6240   19.5430 C   0  0  0  0  0  0  0  0  0  0  0  0
  -29.2470  -21.8790   18.2040 C   0  0  0  0  0  0  0  0  0  0  0  0
  -30.2070  -23.4740   20.3550 C   0  0  0  0  0  0  0  0  0  0  0  0
  -28.8840  -22.9900   20.2660 C   0  0  0  0  0  0  0  0  0  0  0  0
  -31.2630  -22.8680   16.8410 C   0  0  0  0  0  2  0  0  0  0  0  0
  -32.2720  -23.9870   18.8330 C   0  0  0  0  0  2  0  0  0  0  0  0
  -32.3660  -23.8550   17.2950 C   0  0  0  0  0  2  0  0  0  0  0  0
  -28.7600  -21.0670   17.0180 C   0  0  0  0  0  1  0  0  0  0  0  0
  -30.6520  -24.4180   21.4550 C   0  0  0  0  0  1  0  0  0  0  0  0
  -30.4580  -15.1490   20.2330 C   0  0  0  0  0  0  0  0  0  0  0  0
  -30.3350  -12.7330   19.3620 C   0  0  0  0  0  2  0  0  0  0  0  0
  -29.3970  -12.5590   18.1460 C   0  0  0  0  0  2  0  0  0  0  0  0
  -27.9540  -12.3070   18.6160 C   0  0  0  0  0  2  0  0  0  0  0  0
  -27.5310  -13.2810   19.7440 C   0  0  0  0  0  3  0  0  0  0  0  0
  -28.5980  -13.4290   20.8490 C   0  0  0  0  0  2  0  0  0  0  0  0
  -29.8260  -13.8860   20.1840 N   0  0  0  0  0  0  0  0  0  0  0  0
  -31.6800  -15.0900   20.0380 O   0  0  0  0  0  0  0  0  0  0  0  0
  -29.8520  -19.2310   21.1400 C   0  0  0  0  0  3  0  0  0  0  0  0
  -28.3990  -18.7000   19.3960 C   0  0  0  0  0  3  0  0  0  0  0  0
  -30.4980  -17.6930   21.0080 C   0  0  0  0  0  2  0  0  0  0  0  0
  -29.0290  -17.1760   19.2540 C   0  0  0  0  0  3  0  0  0  0  0  0
  -29.2900  -19.9690   19.8410 C   0  0  0  0  0  0  0  0  0  0  0  0
  -29.8070  -16.4710   20.3630 N   0  0  0  0  0  0  0  0  0  0  0  0
  -25.1800  -13.8500   20.5500 C   0  0  0  0  0  0  0  0  0  0  0  0
  -24.1200  -13.0740   20.9280 C   0  0  0  0  0  0  0  0  0  0  0  0
  -24.5800  -11.7220   20.8790 C   0  0  0  0  0  0  0  0  0  0  0  0
  -26.2130  -12.9710   20.2800 N   0  0  0  0  0  0  0  0  0  0  0  0
  -25.8670  -11.6850   20.5470 N   0  0  0  0  0  0  0  0  0  0  0  0
  -23.8520  -10.4610   21.0700 C   0  0  0  0  0  0  0  0  0  0  0  0
  -24.3020   -9.4770   21.9770 C   0  0  0  0  0  3  0  0  0  0  0  0
  -23.5720   -8.2820   22.1580 C   0  0  0  0  0  3  0  0  0  0  0  0
  -22.3760   -8.0630   21.4310 C   0  0  0  0  0  0  0  0  0  0  0  0
  -21.9460   -9.0360   20.5120 C   0  0  0  0  0  3  0  0  0  0  0  0
  -22.6760  -10.2220   20.3290 C   0  0  0  0  0  3  0  0  0  0  0  0
  -21.6150   -6.9230   21.5230 O   0  0  0  0  0  0  0  0  0  0  0  0
  -21.6000   -6.1580   22.6610 C   0  0  0  0  0  0  0  0  0  0  0  0
  -21.2270   -6.6920   23.9150 C   0  0  0  0  0  3  0  0  0  0  0  0
  -21.1580   -5.8540   25.0450 C   0  0  0  0  0  3  0  0  0  0  0  0
  -21.4500   -4.4820   24.9250 C   0  0  0  0  0  0  0  0  0  0  0  0
  -21.8150   -3.9460   23.6770 C   0  0  0  0  0  3  0  0  0  0  0  0
  -21.8860   -4.7820   22.5480 C   0  0  0  0  0  0  0  0  0  0  0  0
  -22.2180   -4.2570   21.3440 F   0  0  0  0  0  0  0  0  0  0  0  0
  -21.3770   -3.6740   26.0090 F   0  0  0  0  0  0  0  0  0  0  0  0
  -22.7290  -13.5550   21.2230 C   0  0  0  0  0  0  0  0  0  0  0  0
  -22.0120  -12.8580   22.0960 N   0  0  0  0  0  0  0  0  0  0  0  0
  -22.2890  -14.5840   20.7130 O   0  0  0  0  0  0  0  0  0  0  0  0
  -22.3820  -12.0240   22.5300 H   0  0  0  0  0  0  0  0  0  0  0  0
  -21.0780  -13.1620   22.3350 H   0  0  0  0  0  0  0  0  0  0  0  0
  -25.3480  -15.2210   20.3840 N   0  0  0  0  0  0  0  0  0  0  0  0
  -24.5920  -15.8830   20.5250 H   0  0  0  0  0  0  0  0  0  0  0  0
  -26.2080  -15.6620   20.0830 H   0  0  0  0  0  0  0  0  0  0  0  0
  -27.8710  -24.3510   20.0220 C   0  0  0  0  0  2  0  0  0  0  0  0
  -28.1670  -25.9290   20.2260 O   0  0  0  0  0  0  0  0  0  0  0  0
  -24.6140  -31.8220   23.1820 C   0  0  0  0  0  0  0  0  0  0  0  0
  -27.1520  -26.9970   20.1540 C   0  0  0  0  0  0  0  0  0  0  0  0
  -23.4100  -30.4330   21.5440 C   0  0  0  0  0  3  0  0  0  0  0  0
  -24.8520  -28.8370   20.1160 C   0  0  0  0  0  0  0  0  0  0  0  0
  -25.9750  -30.6540   21.3880 C   0  0  0  0  0  2  0  0  0  0  0  0
  -26.0400  -29.2520   20.7310 C   0  0  0  0  0  0  0  0  0  0  0  0
  -27.1870  -28.3510   20.7280 C   0  0  0  0  0  3  0  0  0  0  0  0
  -25.9360  -26.7150   19.4930 C   0  0  0  0  0  3  0  0  0  0  0  0
  -24.8210  -27.5870   19.4780 C   0  0  0  0  0  3  0  0  0  0  0  0
  -23.6320  -29.7530   20.1660 C   0  0  0  0  0  2  0  0  0  0  0  0
  -24.6880  -30.9940   22.0920 N   0  0  0  0  0  0  0  0  0  0  0  0
  -23.5280  -32.1140   23.7070 O   0  0  0  0  0  0  0  0  0  0  0  0
  -22.7200  -29.4340   22.5080 C   0  0  0  0  0  0  0  0  0  0  0  0
  -21.3870  -29.2830   22.3930 N   0  0  0  0  0  0  0  0  0  0  0  0
  -23.3870  -28.7960   23.3260 O   0  0  0  0  0  0  0  0  0  0  0  0
  -20.9030  -29.8480   21.7100 H   0  0  0  0  0  0  0  0  0  0  0  0
  -17.9960  -28.1160   22.9250 C   0  0  0  0  0  0  0  0  0  0  0  0
  -20.5610  -28.3520   23.1660 C   0  0  0  0  0  3  0  0  0  0  0  0
  -20.6410  -26.9220   22.5830 C   0  0  0  0  0  2  0  0  0  0  0  0
  -19.5250  -26.6160   21.5780 C   0  0  0  0  0  2  0  0  0  0  0  0
  -18.1510  -26.7700   22.2360 C   0  0  0  0  0  2  0  0  0  0  0  0
  -19.1270  -28.8650   23.3480 C   0  0  0  0  0  0  0  0  0  0  0  0
  -18.9240  -30.1230   23.9560 C   0  0  0  0  0  3  0  0  0  0  0  0
  -17.6250  -30.6330   24.1420 C   0  0  0  0  0  3  0  0  0  0  0  0
  -16.5100  -29.8820   23.7340 C   0  0  0  0  0  3  0  0  0  0  0  0
  -16.6960  -28.6250   23.1320 C   0  0  0  0  0  3  0  0  0  0  0  0
  -25.8910  -32.4570   23.8120 C   0  0  0  0  0  3  0  0  0  0  0  0
  -25.5780  -33.8550   24.1550 N   0  0  0  0  0  0  0  0  0  0  0  0
  -25.9030  -34.9190   23.4100 C   0  0  0  0  0  0  0  0  0  0  0  0
  -26.5620  -34.8270   22.3710 O   0  0  0  0  0  0  0  0  0  0  0  0
  -24.9900  -33.9990   24.9630 H   0  0  0  0  0  0  0  0  0  0  0  0
  -24.1680  -36.7180   23.1070 C   0  0  0  0  0  1  0  0  0  0  0  0
  -25.4250  -36.3040   23.8900 C   0  0  0  0  0  3  0  0  0  0  0  0
  -27.5750  -37.1860   24.6860 C   0  0  0  0  0  1  0  0  0  0  0  0
  -26.4540  -37.3600   23.7660 N   0  0  0  0  0  0  0  0  0  0  0  0
  -26.0500  -38.2780   23.9280 H   0  0  0  0  0  0  0  0  0  0  0  0
  -26.4000  -31.6830   25.0910 C   0  0  1  0  0  0  0  0  0  0  0  0
  -25.3050  -31.4510   26.1590 C   0  0  0  0  0  1  0  0  0  0  0  0
  -26.9780  -30.3010   24.7080 C   0  0  0  0  0  1  0  0  0  0  0  0
  -27.5550  -32.4710   25.7540 C   0  0  0  0  0  1  0  0  0  0  0  0
  1  4  2  0
  1  2  1  0
  2  5  2  0
  3 24  1  0
  3  6  2  0
  4  3  1  0
  5 11  1  0
  6  5  1  0
  7  9  1  0
  7  1  1  0
  8  2  1  0
  9  8  1  0
 10  4  1  0
 12 25  1  0
 13 18  1  0
 14 15  1  0
 14 13  1  0
 16 15  1  0
 16 29  1  0
 16 17  1  0
 18 12  1  0
 18 17  1  0
 19 12  2  0
 21 24  1  0
 22 20  1  0
 23 21  2  0
 23 25  1  0
 24 20  2  0
 25 22  1  0
 26 27  2  0
 27 46  1  0
 28 27  1  0
 28 31  1  0
 29 30  1  0
 29 26  1  0
 30 28  2  0
 31 32  1  0
 32 33  2  0
 34 37  1  0
 34 33  1  0
 35 34  2  0
 36 35  1  0
 36 31  2  0
 37 38  1  0
 38 39  1  0
 39 40  2  0
 41 40  1  0
 41 45  1  0
 42 41  2  0
 43 38  2  0
 43 42  1  0
 44 43  1  0
 46 47  1  0
 47 50  1  0
 47 49  1  0
 48 46  2  0
 51 52  1  0
 51 26  1  0
 53 51  1  0
 54 55  1  0
 54  6  1  0
 56 67  2  0
 57 55  1  0
 57 62  1  0
 58 66  1  0
 58 68  1  0
 59 65  1  0
 59 61  1  0
 60 66  1  0
 61 60  1  0
 62 61  2  0
 63 57  2  0
 64 63  1  0
 64 59  2  0
 65 58  1  0
 66 56  1  0
 68 70  2  0
 69 68  1  0
 71 69  1  0
 72 81  2  0
 72 77  1  0
 73 69  1  0
 73 77  1  0
 74 73  1  0
 75 76  1  0
 75 74  1  0
 76 72  1  0
 77 78  2  0
 78 79  1  0
 80 79  2  0
 81 80  1  0
 82 56  1  0
 82 83  1  0
 82 92  1  0
 83 86  1  0
 84 88  1  0
 84 83  1  0
 85 84  2  0
 88 87  1  0
 90 88  1  0
 90 91  1  0
 90 89  1  0
 92 95  1  1
 92 93  1  0
 94 92  1  0
M  ISO  4  12 100  25 100  54 101  55 101
M  END
>  <TORSDO>  (94) 
F 17

>  <SCORE>  (94) 
-16.290

>  <name>  (94) 
93

>  <ligand_id>  (94) 
93

>  <original_smiles>  (94) 
[H]c1c([H])c([H])c2c(c1[H])C([H])([H])C([H])([H])C([H])([H])C2([H])N([H])C(=O)C1([H])N(C(=O)C([H])(N([H])C(=O)C([H])(N([H])C([H])([H])[H])C([H])([H])[H])C(C([H])([H])[H])(C([H])([H])[H])C([H])([H])[H])C([H])([H])c2c([H])c(OC([H])([H])c3c(C([H])([H])[H])c4c(c(C([H])([H])[H])c3C3([H])C([H])([H])C([H])([H])N(C(=O)N5C([H])([H])C([H])([H])C([H])([H])C([H])(n6nc(-c7c([H])c([H])c(Oc8c([H])c([H])c(F)c([H])c8F)c([H])c7[H])c(C(=O)N([H])[H])c6N([H])[H])C5([H])[H])C([H])([H])C3([H])[H])C([H])([H])C([H])([H])C4([H])[H])c([H])c([H])c2C1([H])[H]

>  <smiles>  (94) 
[H]c1c([H])c([H])c2c(c1[H])C([H])([H])C([H])([H])C([H])([H])C2([H])N([H])C(=O)C1([H])N(C(=O)C([H])(N([H])C(=O)C([H])(N([H])C([H])([H])[H])C([H])([H])[H])C(C([H])([H])[H])(C([H])([H])[H])C([H])([H])[H])C([H])([H])c2c([H])c(OC([H])([H])c3c(C([H])([H])[H])c4c(c(C([H])([H])[H])c3C3([H])C([H])([H])C([H])([H])N(C(=O)N5C([H])([H])C([H])([H])C([H])([H])C([H])(n6nc(-c7c([H])c([H])c(Oc8c([H])c([H])c(F)c([H])c8F)c([H])c7[H])c(C(=O)N([H])[H])c6N([H])[H])C5([H])[H])C([H])([H])C3([H])[H])C([H])([H])C([H])([H])C4([H])[H])c([H])c([H])c2C1([H])[H]

$$$$
94:0:0
     RDKit          3D

 96106  0  0  1  0  0  0  0  0999 V2000
  -30.8050  -20.6240   20.4520 C   0  0  0  0  0  0  0  0  0  0  0  0
  -30.8100  -22.0500   20.4470 C   0  0  0  0  0  0  0  0  0  0  0  0
  -29.5630  -19.9320   20.3850 C   0  0  0  0  0  0  0  0  0  0  0  0
  -29.5910  -22.7620   20.2930 C   0  0  0  0  0  0  0  0  0  0  0  0
  -28.4000  -20.7420   20.2640 C   0  0  0  0  0  0  0  0  0  0  0  0
  -32.1230  -19.8590   20.5210 C   0  0  0  0  0  1  0  0  0  0  0  0
  -32.1190  -22.8210   20.6250 C   0  0  0  0  0  1  0  0  0  0  0  0
  -27.0180  -20.1170   20.2050 C   0  0  0  0  0  1  0  0  0  0  0  0
  -28.4140  -22.1020   20.2110 N   0  0  0  0  0  0  0  0  0  0  0  0
  -30.9260  -14.5280   19.9130 C   0  0  0  0  0  0  0  0  0  0  0  0
  -30.5670  -12.3430   18.8290 C   0  0  0  0  0  2  0  0  0  0  0  0
  -29.5200  -12.5350   17.7120 C   0  0  0  0  0  2  0  0  0  0  0  0
  -28.0920  -12.3830   18.2730 C   0  0  0  0  0  2  0  0  0  0  0  0
  -27.8620  -13.2110   19.5690 C   0  0  0  0  0  3  0  0  0  0  0  0
  -29.0190  -13.0080   20.5730 C   0  0  0  0  0  2  0  0  0  0  0  0
  -30.2690  -13.3350   19.8750 N   0  0  0  0  0  0  0  0  0  0  0  0
  -32.0580  -14.6550   19.4350 O   0  0  0  0  0  0  0  0  0  0  0  0
  -29.2020  -17.8410   19.1490 C   0  0  0  0  0  2  0  0  0  0  0  0
  -30.1000  -16.5970   18.9190 C   0  0  0  0  0  2  0  0  0  0  0  0
  -29.7790  -16.2080   21.3540 C   0  0  0  0  0  2  0  0  0  0  0  0
  -30.1380  -17.7190   21.4650 C   0  0  0  0  0  3  0  0  0  0  0  0
  -29.8270  -18.2540   22.8700 C   0  0  0  0  0  1  0  0  0  0  0  0
  -29.4550  -18.5090   20.4280 N   0  0  0  0  0  0  0  0  0  0  0  0
  -30.1280  -15.6290   20.0390 N   0  0  0  0  0  0  0  0  0  0  0  0
  -25.5700  -13.7960   20.5710 C   0  0  0  0  0  0  0  0  0  0  0  0
  -24.5290  -13.0140   20.9940 C   0  0  0  0  0  0  0  0  0  0  0  0
  -24.9550  -11.6620   20.8200 C   0  0  0  0  0  0  0  0  0  0  0  0
  -26.5650  -12.9190   20.1700 N   0  0  0  0  0  0  0  0  0  0  0  0
  -26.2050  -11.6260   20.3780 N   0  0  0  0  0  0  0  0  0  0  0  0
  -24.2240  -10.4000   20.9960 C   0  0  0  0  0  0  0  0  0  0  0  0
  -24.6680   -9.4090   21.9000 C   0  0  0  0  0  3  0  0  0  0  0  0
  -23.9370   -8.2130   22.0650 C   0  0  0  0  0  3  0  0  0  0  0  0
  -22.7500   -7.9980   21.3260 C   0  0  0  0  0  0  0  0  0  0  0  0
  -22.3250   -8.9780   20.4100 C   0  0  0  0  0  3  0  0  0  0  0  0
  -23.0550  -10.1650   20.2430 C   0  0  0  0  0  3  0  0  0  0  0  0
  -21.9920   -6.8550   21.4030 O   0  0  0  0  0  0  0  0  0  0  0  0
  -21.8650   -6.1530   22.5740 C   0  0  0  0  0  0  0  0  0  0  0  0
  -21.3590   -6.7510   23.7500 C   0  0  0  0  0  3  0  0  0  0  0  0
  -21.1800   -5.9740   24.9130 C   0  0  0  0  0  3  0  0  0  0  0  0
  -21.4940   -4.6020   24.8990 C   0  0  0  0  0  0  0  0  0  0  0  0
  -21.9920   -4.0040   23.7280 C   0  0  0  0  0  3  0  0  0  0  0  0
  -22.1740   -4.7780   22.5670 C   0  0  0  0  0  0  0  0  0  0  0  0
  -22.6340   -4.1940   21.4350 F   0  0  0  0  0  0  0  0  0  0  0  0
  -21.3150   -3.8530   26.0130 F   0  0  0  0  0  0  0  0  0  0  0  0
  -23.1790  -13.4920   21.4460 C   0  0  0  0  0  0  0  0  0  0  0  0
  -22.5420  -12.7600   22.3530 N   0  0  0  0  0  0  0  0  0  0  0  0
  -22.7010  -14.5470   21.0300 O   0  0  0  0  0  0  0  0  0  0  0  0
  -22.9440  -11.9050   22.7080 H   0  0  0  0  0  0  0  0  0  0  0  0
  -21.6410  -13.0590   22.6980 H   0  0  0  0  0  0  0  0  0  0  0  0
  -25.7460  -15.1730   20.4760 N   0  0  0  0  0  0  0  0  0  0  0  0
  -25.0150  -15.8300   20.7230 H   0  0  0  0  0  0  0  0  0  0  0  0
  -26.5820  -15.6220   20.1250 H   0  0  0  0  0  0  0  0  0  0  0  0
  -30.2080  -24.9930   19.1260 C   0  0  0  0  0  2  0  0  0  0  0  0
  -29.5390  -24.2960   20.2950 C   0  0  0  0  0  3  0  0  0  0  0  0
  -28.7500  -25.2450   19.3680 C   0  0  0  0  0  3  0  0  0  0  0  0
  -28.6680  -26.6450   19.7490 O   0  0  0  0  0  0  0  0  0  0  0  0
  -24.7570  -31.6430   23.0160 C   0  0  0  0  0  0  0  0  0  0  0  0
  -27.4630  -27.3310   19.7640 C   0  0  0  0  0  0  0  0  0  0  0  0
  -23.5670  -30.2690   21.3410 C   0  0  0  0  0  3  0  0  0  0  0  0
  -25.0370  -28.8100   19.8530 C   0  0  0  0  0  0  0  0  0  0  0  0
  -26.0840  -30.6830   21.1330 C   0  0  0  0  0  2  0  0  0  0  0  0
  -26.1920  -29.3340   20.4430 C   0  0  0  0  0  0  0  0  0  0  0  0
  -27.4050  -28.6040   20.3920 C   0  0  0  0  0  3  0  0  0  0  0  0
  -26.2800  -26.8280   19.1750 C   0  0  0  0  0  3  0  0  0  0  0  0
  -25.0780  -27.5590   19.2170 C   0  0  0  0  0  3  0  0  0  0  0  0
  -23.7770  -29.6430   19.9380 C   0  0  0  0  0  2  0  0  0  0  0  0
  -24.8210  -30.8790   21.8880 N   0  0  0  0  0  0  0  0  0  0  0  0
  -23.6760  -31.8710   23.5750 O   0  0  0  0  0  0  0  0  0  0  0  0
  -22.9470  -29.2010   22.2730 C   0  0  0  0  0  0  0  0  0  0  0  0
  -21.6240  -29.0000   22.1590 N   0  0  0  0  0  0  0  0  0  0  0  0
  -23.6550  -28.5580   23.0530 O   0  0  0  0  0  0  0  0  0  0  0  0
  -21.1140  -29.5750   21.5030 H   0  0  0  0  0  0  0  0  0  0  0  0
  -18.2770  -27.7420   22.6810 C   0  0  0  0  0  0  0  0  0  0  0  0
  -20.8380  -28.0210   22.9070 C   0  0  0  0  0  3  0  0  0  0  0  0
  -20.9430  -26.6170   22.2680 C   0  0  0  0  0  2  0  0  0  0  0  0
  -19.8230  -26.3240   21.2650 C   0  0  0  0  0  2  0  0  0  0  0  0
  -18.4540  -26.4250   21.9440 C   0  0  0  0  0  2  0  0  0  0  0  0
  -19.3960  -28.4990   23.1200 C   0  0  0  0  0  0  0  0  0  0  0  0
  -19.1770  -29.7330   23.7680 C   0  0  0  0  0  3  0  0  0  0  0  0
  -17.8710  -30.2120   23.9830 C   0  0  0  0  0  3  0  0  0  0  0  0
  -16.7660  -29.4520   23.5610 C   0  0  0  0  0  3  0  0  0  0  0  0
  -16.9710  -28.2190   22.9170 C   0  0  0  0  0  3  0  0  0  0  0  0
  -26.0350  -32.2820   23.6440 C   0  0  0  0  0  3  0  0  0  0  0  0
  -25.6870  -33.6470   24.0610 N   0  0  0  0  0  0  0  0  0  0  0  0
  -25.9550  -34.7500   23.3490 C   0  0  0  0  0  0  0  0  0  0  0  0
  -26.5920  -34.7270   22.2930 O   0  0  0  0  0  0  0  0  0  0  0  0
  -25.1160  -33.7370   24.8880 H   0  0  0  0  0  0  0  0  0  0  0  0
  -24.1440  -36.4850   23.1540 C   0  0  0  0  0  1  0  0  0  0  0  0
  -25.4310  -36.0920   23.8960 C   0  0  0  0  0  3  0  0  0  0  0  0
  -27.5580  -37.0230   24.6930 C   0  0  0  0  0  1  0  0  0  0  0  0
  -26.4150  -37.1920   23.7990 N   0  0  0  0  0  0  0  0  0  0  0  0
  -25.9800  -38.0860   24.0090 H   0  0  0  0  0  0  0  0  0  0  0  0
  -26.6090  -31.4580   24.8630 C   0  0  1  0  0  0  0  0  0  0  0  0
  -25.5500  -31.1190   25.9380 C   0  0  0  0  0  1  0  0  0  0  0  0
  -27.2310  -30.1280   24.3780 C   0  0  0  0  0  1  0  0  0  0  0  0
  -27.7460  -32.2550   25.5460 C   0  0  0  0  0  1  0  0  0  0  0  0
  1  6  1  0
  2  1  1  0
  2  7  1  0
  3 23  1  0
  3  1  2  0
  4  2  2  0
  5  3  1  0
  8  5  1  0
  9  5  2  0
  9  4  1  0
 10 24  1  0
 11 16  1  0
 12 13  1  0
 12 11  1  0
 14 13  1  0
 14 28  1  0
 14 15  1  0
 16 10  1  0
 16 15  1  0
 17 10  2  0
 18 23  1  0
 19 18  1  0
 19 24  1  0
 20 21  1  0
 21 22  1  0
 23 21  1  0
 24 20  1  0
 25 26  2  0
 26 45  1  0
 27 26  1  0
 27 30  1  0
 28 29  1  0
 28 25  1  0
 29 27  2  0
 30 31  1  0
 31 32  2  0
 33 36  1  0
 33 32  1  0
 34 33  2  0
 35 34  1  0
 35 30  2  0
 36 37  1  0
 37 38  1  0
 38 39  2  0
 40 39  1  0
 40 44  1  0
 41 40  2  0
 42 37  2  0
 42 41  1  0
 43 42  1  0
 45 46  1  0
 46 49  1  0
 46 48  1  0
 47 45  2  0
 50 25  1  0
 50 51  1  0
 52 50  1  0
 53 55  1  0
 53 54  1  0
 54  4  1  0
 55 56  1  0
 55 54  1  0
 56 58  1  0
 57 68  2  0
 58 63  1  0
 59 67  1  0
 59 69  1  0
 60 66  1  0
 60 62  1  0
 61 67  1  0
 62 61  1  0
 63 62  2  0
 64 65  1  0
 64 58  2  0
 65 60  2  0
 66 59  1  0
 67 57  1  0
 69 71  2  0
 70 69  1  0
 72 70  1  0
 73 82  2  0
 73 78  1  0
 74 70  1  0
 74 78  1  0
 75 74  1  0
 76 77  1  0
 76 75  1  0
 77 73  1  0
 78 79  2  0
 79 80  1  0
 81 80  2  0
 82 81  1  0
 83 57  1  0
 83 84  1  0
 83 93  1  0
 84 87  1  0
 85 89  1  0
 85 84  1  0
 86 85  2  0
 89 88  1  0
 91 89  1  0
 91 92  1  0
 91 90  1  0
 93 96  1  1
 93 94  1  0
 95 93  1  0
M  ISO  4  10 100  24 100  55 101  56 101
M  END
>  <TORSDO>  (95) 
F 17

>  <SCORE>  (95) 
-11.960

>  <name>  (95) 
94

>  <ligand_id>  (95) 
94

>  <original_smiles>  (95) 
[H]c1c([H])c([H])c2c(c1[H])C([H])([H])C([H])([H])C([H])([H])C2([H])N([H])C(=O)C1([H])N(C(=O)C([H])(N([H])C(=O)C([H])(N([H])C([H])([H])[H])C([H])([H])[H])C(C([H])([H])[H])(C([H])([H])[H])C([H])([H])[H])C([H])([H])c2c([H])c(OC3([H])C([H])([H])C3([H])c3nc(C([H])([H])[H])c(N4C([H])([H])C([H])([H])N(C(=O)N5C([H])([H])C([H])([H])C([H])([H])C([H])(n6nc(-c7c([H])c([H])c(Oc8c([H])c([H])c(F)c([H])c8F)c([H])c7[H])c(C(=O)N([H])[H])c6N([H])[H])C5([H])[H])C([H])([H])C4([H])C([H])([H])[H])c(C([H])([H])[H])c3C([H])([H])[H])c([H])c([H])c2C1([H])[H]

>  <smiles>  (95) 
[H]c1c([H])c([H])c2c(c1[H])C([H])([H])C([H])([H])C([H])([H])C2([H])N([H])C(=O)C1([H])N(C(=O)C([H])(N([H])C(=O)C([H])(N([H])C([H])([H])[H])C([H])([H])[H])C(C([H])([H])[H])(C([H])([H])[H])C([H])([H])[H])C([H])([H])c2c([H])c(OC3([H])C([H])([H])C3([H])c3nc(C([H])([H])[H])c(N4C([H])([H])C([H])([H])N(C(=O)N5C([H])([H])C([H])([H])C([H])([H])C([H])(n6nc(-c7c([H])c([H])c(Oc8c([H])c([H])c(F)c([H])c8F)c([H])c7[H])c(C(=O)N([H])[H])c6N([H])[H])C5([H])[H])C([H])([H])C4([H])C([H])([H])[H])c(C([H])([H])[H])c3C([H])([H])[H])c([H])c([H])c2C1([H])[H]

$$$$
95:0:0
     RDKit          3D

100111  0  0  1  0  0  0  0  0999 V2000
  -29.7540  -20.4620   19.3180 C   0  0  0  0  0  3  0  0  0  0  0  0
  -30.0060  -19.8650   20.5780 C   0  0  0  0  0  0  0  0  0  0  0  0
  -29.8740  -20.7290   21.7060 C   0  0  0  0  0  0  0  0  0  0  0  0
  -29.2330  -22.7170   20.2670 C   0  0  0  0  0  0  0  0  0  0  0  0
  -29.4230  -21.8430   19.1570 C   0  0  0  0  0  0  0  0  0  0  0  0
  -29.3990  -22.0950   21.5660 C   0  0  0  0  0  0  0  0  0  0  0  0
  -29.2980  -22.3740   17.7400 C   0  0  0  0  0  1  0  0  0  0  0  0
  -31.3630  -15.1610   20.5730 C   0  0  0  0  0  0  0  0  0  0  0  0
  -31.2750  -12.8280   19.7280 C   0  0  0  0  0  2  0  0  0  0  0  0
  -30.4270  -12.8030   18.4390 C   0  0  0  0  0  2  0  0  0  0  0  0
  -28.9320  -12.6320   18.7780 C   0  0  0  0  0  2  0  0  0  0  0  0
  -28.4540  -13.5940   19.9000 C   0  0  0  0  0  3  0  0  0  0  0  0
  -29.4320  -13.6110   21.0950 C   0  0  0  0  0  2  0  0  0  0  0  0
  -30.7610  -13.9320   20.5630 N   0  0  0  0  0  0  0  0  0  0  0  0
  -32.5720  -15.2650   20.3470 O   0  0  0  0  0  0  0  0  0  0  0  0
  -29.7470  -17.1100   21.2160 C   0  0  0  0  0  2  0  0  0  0  0  0
  -30.8490  -17.4410   19.4820 C   0  0  0  0  0  2  0  0  0  0  0  0
  -30.5070  -18.3590   20.6740 C   0  0  0  0  0  3  0  0  0  0  0  0
  -30.5480  -16.2450   20.3170 N   0  0  0  0  0  0  0  0  0  0  0  0
  -26.0240  -14.1750   20.4840 C   0  0  0  0  0  0  0  0  0  0  0  0
  -24.9450  -13.3950   20.8010 C   0  0  0  0  0  0  0  0  0  0  0  0
  -25.4200  -12.0470   20.8100 C   0  0  0  0  0  0  0  0  0  0  0  0
  -27.0860  -13.3020   20.3170 N   0  0  0  0  0  0  0  0  0  0  0  0
  -26.7270  -12.0190   20.5760 N   0  0  0  0  0  0  0  0  0  0  0  0
  -24.6950  -10.7800   20.9710 C   0  0  0  0  0  0  0  0  0  0  0  0
  -24.9860   -9.8920   22.0290 C   0  0  0  0  0  3  0  0  0  0  0  0
  -24.2600   -8.6880   22.1740 C   0  0  0  0  0  3  0  0  0  0  0  0
  -23.2320   -8.3660   21.2580 C   0  0  0  0  0  0  0  0  0  0  0  0
  -22.9620   -9.2430   20.1930 C   0  0  0  0  0  3  0  0  0  0  0  0
  -23.6880  -10.4370   20.0470 C   0  0  0  0  0  3  0  0  0  0  0  0
  -22.4930   -7.2080   21.3040 O   0  0  0  0  0  0  0  0  0  0  0  0
  -22.0750   -6.6690   22.4940 C   0  0  0  0  0  0  0  0  0  0  0  0
  -21.2910   -7.4030   23.4110 C   0  0  0  0  0  3  0  0  0  0  0  0
  -20.8250   -6.7880   24.5900 C   0  0  0  0  0  3  0  0  0  0  0  0
  -21.1320   -5.4380   24.8490 C   0  0  0  0  0  0  0  0  0  0  0  0
  -21.9070   -4.7040   23.9350 C   0  0  0  0  0  3  0  0  0  0  0  0
  -22.3740   -5.3170   22.7590 C   0  0  0  0  0  0  0  0  0  0  0  0
  -23.1030   -4.5990   21.8720 F   0  0  0  0  0  0  0  0  0  0  0  0
  -20.6770   -4.8450   25.9780 F   0  0  0  0  0  0  0  0  0  0  0  0
  -23.5300  -13.8620   20.9880 C   0  0  0  0  0  0  0  0  0  0  0  0
  -22.7710  -13.1890   21.8440 N   0  0  0  0  0  0  0  0  0  0  0  0
  -23.1050  -14.8610   20.4080 O   0  0  0  0  0  0  0  0  0  0  0  0
  -23.1260  -12.3820   22.3350 H   0  0  0  0  0  0  0  0  0  0  0  0
  -21.8190  -13.4840   22.0100 H   0  0  0  0  0  0  0  0  0  0  0  0
  -26.1850  -15.5450   20.3000 N   0  0  0  0  0  0  0  0  0  0  0  0
  -25.4060  -16.1900   20.3480 H   0  0  0  0  0  0  0  0  0  0  0  0
  -27.0470  -15.9810   19.9950 H   0  0  0  0  0  0  0  0  0  0  0  0
  -31.2810  -20.8720   23.9660 C   0  0  0  0  0  2  0  0  0  0  0  0
  -31.6780  -19.5970   23.2930 C   0  0  0  0  0  2  0  0  0  0  0  0
  -30.2860  -20.1650   23.0560 C   0  0  0  0  0  3  0  0  0  0  0  0
  -27.6580  -24.8590   20.5000 C   0  0  0  0  0  2  0  0  0  0  0  0
  -28.9920  -24.2780   20.0850 C   0  0  0  0  0  3  0  0  0  0  0  0
  -28.1100  -25.1560   19.0960 C   0  0  0  0  0  3  0  0  0  0  0  0
  -28.2830  -26.6290   18.9290 O   0  0  0  0  0  0  0  0  0  0  0  0
  -24.7410  -31.4420   22.9640 C   0  0  0  0  0  0  0  0  0  0  0  0
  -27.1710  -27.4810   19.0500 C   0  0  0  0  0  0  0  0  0  0  0  0
  -23.4450  -30.3250   21.1840 C   0  0  0  0  0  3  0  0  0  0  0  0
  -24.8120  -29.0560   19.4370 C   0  0  0  0  0  0  0  0  0  0  0  0
  -25.9700  -30.6960   20.9140 C   0  0  0  0  0  2  0  0  0  0  0  0
  -26.0130  -29.4460   20.0430 C   0  0  0  0  0  0  0  0  0  0  0  0
  -27.1940  -28.6690   19.8460 C   0  0  0  0  0  3  0  0  0  0  0  0
  -25.9490  -27.1580   18.4160 C   0  0  0  0  0  3  0  0  0  0  0  0
  -24.7820  -27.9180   18.6160 C   0  0  0  0  0  3  0  0  0  0  0  0
  -23.5800  -29.8970   19.7000 C   0  0  0  0  0  2  0  0  0  0  0  0
  -24.7410  -30.8310   21.7450 N   0  0  0  0  0  0  0  0  0  0  0  0
  -23.6910  -31.6160   23.5990 O   0  0  0  0  0  0  0  0  0  0  0  0
  -22.8410  -29.1540   21.9940 C   0  0  0  0  0  0  0  0  0  0  0  0
  -21.5070  -29.0010   21.9320 N   0  0  0  0  0  0  0  0  0  0  0  0
  -23.5680  -28.3960   22.6410 O   0  0  0  0  0  0  0  0  0  0  0  0
  -20.9780  -29.6690   21.3910 H   0  0  0  0  0  0  0  0  0  0  0  0
  -18.1560  -27.7500   22.4710 C   0  0  0  0  0  0  0  0  0  0  0  0
  -20.7330  -27.9440   22.5850 C   0  0  0  0  0  3  0  0  0  0  0  0
  -20.7640  -26.6380   21.7570 C   0  0  0  0  0  2  0  0  0  0  0  0
  -19.5830  -26.5080   20.7900 C   0  0  0  0  0  2  0  0  0  0  0  0
  -18.2560  -26.5430   21.5530 C   0  0  0  0  0  2  0  0  0  0  0  0
  -19.3190  -28.4160   22.9420 C   0  0  0  0  0  0  0  0  0  0  0  0
  -19.1690  -29.5530   23.7660 C   0  0  0  0  0  3  0  0  0  0  0  0
  -17.8910  -30.0220   24.1220 C   0  0  0  0  0  3  0  0  0  0  0  0
  -16.7430  -29.3490   23.6660 C   0  0  0  0  0  3  0  0  0  0  0  0
  -16.8780  -28.2150   22.8450 C   0  0  0  0  0  3  0  0  0  0  0  0
  -26.0580  -31.9760   23.6090 C   0  0  0  0  0  3  0  0  0  0  0  0
  -26.6290  -31.0230   24.7310 C   0  0  1  0  0  0  0  0  0  0  0  0
  -25.5910  -30.6430   25.8120 C   0  0  0  0  0  1  0  0  0  0  0  0
  -27.1690  -29.7140   24.1130 C   0  0  0  0  0  1  0  0  0  0  0  0
  -27.8250  -31.7040   25.4360 C   0  0  0  0  0  1  0  0  0  0  0  0
  -25.7760  -33.3100   24.1590 N   0  0  0  0  0  0  0  0  0  0  0  0
  -26.0510  -34.4630   23.5360 C   0  0  0  0  0  0  0  0  0  0  0  0
  -26.6410  -34.5150   22.4530 O   0  0  0  0  0  0  0  0  0  0  0  0
  -25.2430  -33.3420   25.0150 H   0  0  0  0  0  0  0  0  0  0  0  0
  -24.2970  -36.2670   23.5790 C   0  0  0  0  0  1  0  0  0  0  0  0
  -25.6010  -35.7670   24.2230 C   0  0  0  0  0  3  0  0  0  0  0  0
  -27.7920  -36.5580   24.9980 C   0  0  0  0  0  1  0  0  0  0  0  0
  -26.6200  -36.8390   24.1750 N   0  0  0  0  0  0  0  0  0  0  0  0
  -26.2240  -37.7260   24.4790 H   0  0  0  0  0  0  0  0  0  0  0  0
  -29.9990  -23.9980   23.2730 C   0  0  0  0  0  1  0  0  0  0  0  0
  -29.0300  -22.8690   22.8600 C   0  0  0  0  0  3  0  0  0  0  0  0
  -27.6200  -23.2860   22.8490 N   0  0  0  0  0  4  0  0  0  0  0  0
  -27.3670  -23.7070   23.7260 H   0  0  0  0  0  0  0  0  0  0  0  0
  -27.0360  -22.4790   22.7100 H   0  0  0  0  0  0  0  0  0  0  0  0
  -27.4440  -23.9350   22.1040 H   0  0  0  0  0  0  0  0  0  0  0  0
  1  2  1  0
  2  3  2  0
  3 50  1  0
  4  6  2  0
  5  1  2  0
  5  4  1  0
  6  3  1  0
  6 96  1  0
  7  5  1  0
  9 14  1  0
 10 11  1  0
 10  9  1  0
 12 11  1  0
 12 23  1  0
 12 13  1  0
 14  8  1  0
 14 13  1  0
 15  8  2  0
 17 19  1  0
 17 18  1  0
 18  2  1  0
 18 16  1  0
 19  8  1  0
 19 16  1  0
 20 21  2  0
 21 22  1  0
 21 40  1  0
 22 25  1  0
 23 20  1  0
 23 24  1  0
 24 22  2  0
 25 26  1  0
 26 27  2  0
 28 31  1  0
 28 27  1  0
 29 28  2  0
 30 29  1  0
 30 25  2  0
 31 32  1  0
 32 37  2  0
 32 33  1  0
 33 34  2  0
 34 35  1  0
 35 39  1  0
 36 35  2  0
 37 36  1  0
 38 37  1  0
 40 41  1  0
 41 44  1  0
 41 43  1  0
 42 40  2  0
 45 46  1  0
 45 20  1  0
 47 45  1  0
 49 48  1  0
 50 49  1  0
 50 48  1  0
 52  4  1  0
 52 51  1  0
 53 54  1  0
 53 52  1  0
 53 51  1  0
 54 56  1  0
 55 66  2  0
 56 61  1  0
 57 65  1  0
 57 67  1  0
 58 64  1  0
 58 60  1  0
 59 65  1  0
 60 59  1  0
 61 60  2  0
 62 63  1  0
 62 56  2  0
 63 58  2  0
 64 57  1  0
 65 55  1  0
 67 69  2  0
 68 67  1  0
 70 68  1  0
 71 80  2  0
 71 76  1  0
 72 68  1  0
 72 76  1  0
 73 72  1  0
 74 75  1  0
 74 73  1  0
 75 71  1  0
 76 77  2  0
 77 78  1  0
 79 78  2  0
 80 79  1  0
 81 55  1  0
 81 86  1  0
 81 82  1  0
 82 85  1  1
 82 83  1  0
 84 82  1  0
 86 89  1  0
 87 86  1  0
 87 91  1  0
 88 87  2  0
 91 90  1  0
 93 91  1  0
 93 94  1  0
 93 92  1  0
 96 95  1  0
 97 96  1  0
 97 98  1  0
 99 97  1  0
100 97  1  0
M  ISO  4   8 100  19 100  53 101  54 101
M  END
>  <TORSDO>  (96) 
F 20

>  <SCORE>  (96) 
-10.578

>  <name>  (96) 
95

>  <ligand_id>  (96) 
95

>  <original_smiles>  (96) 
[H]c1c([H])c([H])c2c(c1[H])C([H])([H])C([H])([H])C([H])([H])C2([H])N([H])C(=O)C1([H])N(C(=O)C([H])(N([H])C(=O)C([H])(N([H])C([H])([H])[H])C([H])([H])[H])C(C([H])([H])[H])(C([H])([H])[H])C([H])([H])[H])C([H])([H])c2c([H])c(OC3([H])C([H])([H])C3([H])c3c(C([H])([H])[H])c([H])c(C4([H])C([H])([H])N(C(=O)N5C([H])([H])C([H])([H])C([H])([H])C([H])(n6nc(-c7c([H])c([H])c(Oc8c([H])c([H])c(F)c([H])c8F)c([H])c7[H])c(C(=O)N([H])[H])c6N([H])[H])C5([H])[H])C4([H])[H])c(C4([H])C([H])([H])C4([H])[H])c3C([H])(C([H])([H])[H])[N+]([H])([H])[H])c([H])c([H])c2C1([H])[H]

>  <smiles>  (96) 
[H]c1c([H])c([H])c2c(c1[H])C([H])([H])C([H])([H])C([H])([H])C2([H])N([H])C(=O)C1([H])N(C(=O)C([H])(N([H])C(=O)C([H])(N([H])C([H])([H])[H])C([H])([H])[H])C(C([H])([H])[H])(C([H])([H])[H])C([H])([H])[H])C([H])([H])c2c([H])c(OC3([H])C([H])([H])C3([H])c3c(C([H])([H])[H])c([H])c(C4([H])C([H])([H])N(C(=O)N5C([H])([H])C([H])([H])C([H])([H])C([H])(n6nc(-c7c([H])c([H])c(Oc8c([H])c([H])c(F)c([H])c8F)c([H])c7[H])c(C(=O)N([H])[H])c6N([H])[H])C5([H])[H])C4([H])[H])c(C4([H])C([H])([H])C4([H])[H])c3C([H])(C([H])([H])[H])[N+]([H])([H])[H])c([H])c([H])c2C1([H])[H]

$$$$
96:0:0
     RDKit          3D

 95104  0  0  1  0  0  0  0  0999 V2000
  -28.7930  -22.4060   20.5730 C   0  0  0  0  0  0  0  0  0  0  0  0
  -28.9220  -23.7710   20.0600 C   0  0  0  0  0  0  0  0  0  0  0  0
  -29.4570  -21.2480   19.9650 C   0  0  0  0  0  0  0  0  0  0  0  0
  -29.7710  -23.9020   18.9400 C   0  0  0  0  0  0  0  0  0  0  0  0
  -30.2120  -21.5870   18.7990 C   0  0  0  0  0  0  0  0  0  0  0  0
  -27.9160  -22.1880   21.8010 C   0  0  0  0  0  1  0  0  0  0  0  0
  -30.0990  -25.2410   18.3040 C   0  0  0  0  0  1  0  0  0  0  0  0
  -30.8950  -20.5770   17.8940 C   0  0  0  0  0  1  0  0  0  0  0  0
  -30.3660  -22.8510   18.3430 N   0  0  0  0  0  0  0  0  0  0  0  0
  -29.3380  -19.8890   20.5030 N   0  0  0  0  0  0  0  0  0  0  0  0
  -28.7000  -19.7970   21.2890 H   0  0  0  0  0  0  0  0  0  0  0  0
  -31.4990  -18.5420   20.3510 C   0  0  0  0  0  2  0  0  0  0  0  0
  -31.3010  -17.6810   21.6030 C   0  0  0  0  0  2  0  0  0  0  0  0
  -29.9780  -18.5670   20.0940 C   0  0  0  0  0  3  0  0  0  0  0  0
  -29.8970  -17.3130   21.1080 C   0  0  0  0  0  3  0  0  0  0  0  0
  -30.5610  -14.7830   20.3300 C   0  0  0  0  0  0  0  0  0  0  0  0
  -30.3900  -12.5310   19.2480 C   0  0  0  0  0  2  0  0  0  0  0  0
  -29.4230  -12.6030   18.0460 C   0  0  0  0  0  2  0  0  0  0  0  0
  -27.9620  -12.4110   18.4960 C   0  0  0  0  0  2  0  0  0  0  0  0
  -27.5980  -13.2780   19.7290 C   0  0  0  0  0  3  0  0  0  0  0  0
  -28.6720  -13.1630   20.8320 C   0  0  0  0  0  2  0  0  0  0  0  0
  -29.9570  -13.5490   20.2300 N   0  0  0  0  0  0  0  0  0  0  0  0
  -31.7420  -14.9240   19.9940 O   0  0  0  0  0  0  0  0  0  0  0  0
  -29.7430  -15.8550   20.6490 N   0  0  0  0  0  0  0  0  0  0  0  0
  -28.7960  -15.5340   20.7810 H   0  0  0  0  0  0  0  0  0  0  0  0
  -25.2120  -13.8550   20.4760 C   0  0  0  0  0  0  0  0  0  0  0  0
  -24.1540  -13.0760   20.8560 C   0  0  0  0  0  0  0  0  0  0  0  0
  -24.6250  -11.7270   20.8210 C   0  0  0  0  0  0  0  0  0  0  0  0
  -26.2600  -12.9810   20.2330 N   0  0  0  0  0  0  0  0  0  0  0  0
  -25.9140  -11.6970   20.5020 N   0  0  0  0  0  0  0  0  0  0  0  0
  -23.9080  -10.4590   21.0170 C   0  0  0  0  0  0  0  0  0  0  0  0
  -24.3550   -9.4980   21.9500 C   0  0  0  0  0  3  0  0  0  0  0  0
  -23.6410   -8.2940   22.1330 C   0  0  0  0  0  3  0  0  0  0  0  0
  -22.4670   -8.0440   21.3850 C   0  0  0  0  0  0  0  0  0  0  0  0
  -22.0410   -8.9950   20.4390 C   0  0  0  0  0  3  0  0  0  0  0  0
  -22.7550  -10.1900   20.2550 C   0  0  0  0  0  3  0  0  0  0  0  0
  -21.7240   -6.8920   21.4770 O   0  0  0  0  0  0  0  0  0  0  0  0
  -21.6850   -6.1500   22.6300 C   0  0  0  0  0  0  0  0  0  0  0  0
  -21.2460   -6.7000   23.8540 C   0  0  0  0  0  3  0  0  0  0  0  0
  -21.1580   -5.8840   25.0010 C   0  0  0  0  0  3  0  0  0  0  0  0
  -21.4950   -4.5200   24.9220 C   0  0  0  0  0  0  0  0  0  0  0  0
  -21.9250   -3.9690   23.7030 C   0  0  0  0  0  3  0  0  0  0  0  0
  -22.0150   -4.7810   22.5590 C   0  0  0  0  0  0  0  0  0  0  0  0
  -22.4100   -4.2410   21.3810 F   0  0  0  0  0  0  0  0  0  0  0  0
  -21.4030   -3.7340   26.0210 F   0  0  0  0  0  0  0  0  0  0  0  0
  -22.7560  -13.5430   21.1390 C   0  0  0  0  0  0  0  0  0  0  0  0
  -22.0380  -12.8390   22.0070 N   0  0  0  0  0  0  0  0  0  0  0  0
  -22.3080  -14.5660   20.6250 O   0  0  0  0  0  0  0  0  0  0  0  0
  -22.4140  -12.0130   22.4490 H   0  0  0  0  0  0  0  0  0  0  0  0
  -21.0990  -13.1360   22.2350 H   0  0  0  0  0  0  0  0  0  0  0  0
  -25.3650  -15.2270   20.2930 N   0  0  0  0  0  0  0  0  0  0  0  0
  -24.5930  -15.8750   20.4030 H   0  0  0  0  0  0  0  0  0  0  0  0
  -26.1940  -15.6690   19.9170 H   0  0  0  0  0  0  0  0  0  0  0  0
  -28.1710  -25.0410   20.6860 C   0  0  0  0  0  2  0  0  0  0  0  0
  -28.3570  -26.4480   20.1870 O   0  0  0  0  0  0  0  0  0  0  0  0
  -24.6380  -31.8930   23.2380 C   0  0  0  0  0  0  0  0  0  0  0  0
  -27.2470  -27.3210   20.1830 C   0  0  0  0  0  0  0  0  0  0  0  0
  -23.4330  -30.4950   21.5990 C   0  0  0  0  0  3  0  0  0  0  0  0
  -24.8840  -28.9450   20.1710 C   0  0  0  0  0  0  0  0  0  0  0  0
  -25.9740  -30.8180   21.4060 C   0  0  0  0  0  2  0  0  0  0  0  0
  -26.0580  -29.4380   20.7560 C   0  0  0  0  0  0  0  0  0  0  0  0
  -27.2480  -28.6430   20.7390 C   0  0  0  0  0  3  0  0  0  0  0  0
  -26.0470  -26.8850   19.5810 C   0  0  0  0  0  3  0  0  0  0  0  0
  -24.8800  -27.6740   19.5780 C   0  0  0  0  0  3  0  0  0  0  0  0
  -23.6490  -29.8210   20.2200 C   0  0  0  0  0  2  0  0  0  0  0  0
  -24.7010  -31.0860   22.1390 N   0  0  0  0  0  0  0  0  0  0  0  0
  -23.5550  -32.1690   23.7770 O   0  0  0  0  0  0  0  0  0  0  0  0
  -22.7700  -29.4790   22.5610 C   0  0  0  0  0  0  0  0  0  0  0  0
  -21.4430  -29.3000   22.4360 N   0  0  0  0  0  0  0  0  0  0  0  0
  -23.4490  -28.8540   23.3800 O   0  0  0  0  0  0  0  0  0  0  0  0
  -20.9530  -29.8580   21.7520 H   0  0  0  0  0  0  0  0  0  0  0  0
  -18.0690  -28.0920   22.9390 C   0  0  0  0  0  0  0  0  0  0  0  0
  -20.6280  -28.3600   23.2070 C   0  0  0  0  0  3  0  0  0  0  0  0
  -20.7320  -26.9270   22.6320 C   0  0  0  0  0  2  0  0  0  0  0  0
  -19.6310  -26.6020   21.6180 C   0  0  0  0  0  2  0  0  0  0  0  0
  -18.2490  -26.7430   22.2640 C   0  0  0  0  0  2  0  0  0  0  0  0
  -19.1860  -28.8570   23.3680 C   0  0  0  0  0  0  0  0  0  0  0  0
  -18.9640  -30.1190   23.9620 C   0  0  0  0  0  3  0  0  0  0  0  0
  -17.6570  -30.6160   24.1300 C   0  0  0  0  0  3  0  0  0  0  0  0
  -16.5550  -29.8480   23.7160 C   0  0  0  0  0  3  0  0  0  0  0  0
  -16.7610  -28.5880   23.1270 C   0  0  0  0  0  3  0  0  0  0  0  0
  -25.9210  -32.5270   23.8590 C   0  0  0  0  0  3  0  0  0  0  0  0
  -26.4340  -31.7620   25.1420 C   0  0  1  0  0  0  0  0  0  0  0  0
  -25.3390  -31.5360   26.2090 C   0  0  0  0  0  1  0  0  0  0  0  0
  -27.0120  -30.3790   24.7620 C   0  0  0  0  0  1  0  0  0  0  0  0
  -27.5860  -32.5560   25.8010 C   0  0  0  0  0  1  0  0  0  0  0  0
  -25.6130  -33.9270   24.1840 N   0  0  0  0  0  0  0  0  0  0  0  0
  -25.9530  -34.9770   23.4230 C   0  0  0  0  0  0  0  0  0  0  0  0
  -26.6250  -34.8670   22.3950 O   0  0  0  0  0  0  0  0  0  0  0  0
  -25.0130  -34.0870   24.9790 H   0  0  0  0  0  0  0  0  0  0  0  0
  -24.2380  -36.7800   23.0550 C   0  0  0  0  0  1  0  0  0  0  0  0
  -25.4700  -36.3690   23.8750 C   0  0  0  0  0  3  0  0  0  0  0  0
  -27.6030  -37.2440   24.7220 C   0  0  0  0  0  1  0  0  0  0  0  0
  -26.5100  -37.4160   23.7680 N   0  0  0  0  0  0  0  0  0  0  0  0
  -26.1060  -38.3380   23.9110 H   0  0  0  0  0  0  0  0  0  0  0  0
  1  6  1  0
  2  1  1  0
  2 54  1  0
  3 10  1  0
  3  1  2  0
  4  2  2  0
  5  3  1  0
  7  4  1  0
  8  5  1  0
  9  5  2  0
  9  4  1  0
 10 11  1  0
 12 13  1  0
 14 12  1  0
 14 10  1  0
 14 15  1  0
 15 24  1  0
 15 13  1  0
 16 24  1  0
 17 22  1  0
 18 19  1  0
 18 17  1  0
 20 19  1  0
 20 29  1  0
 20 21  1  0
 22 16  1  0
 22 21  1  0
 23 16  2  0
 24 25  1  0
 26 27  2  0
 27 46  1  0
 28 27  1  0
 28 31  1  0
 29 26  1  0
 29 30  1  0
 30 28  2  0
 31 32  1  0
 32 33  2  0
 34 37  1  0
 34 33  1  0
 35 34  2  0
 36 35  1  0
 36 31  2  0
 37 38  1  0
 38 39  1  0
 39 40  2  0
 41 40  1  0
 41 45  1  0
 42 41  2  0
 43 38  2  0
 43 42  1  0
 44 43  1  0
 46 47  1  0
 47 50  1  0
 47 49  1  0
 48 46  2  0
 51 52  1  0
 51 26  1  0
 53 51  1  0
 55 54  1  0
 56 67  2  0
 57 55  1  0
 57 62  1  0
 58 66  1  0
 58 68  1  0
 59 65  1  0
 59 61  1  0
 60 66  1  0
 61 60  1  0
 62 61  2  0
 63 57  2  0
 64 63  1  0
 64 59  2  0
 65 58  1  0
 66 56  1  0
 68 70  2  0
 69 68  1  0
 71 69  1  0
 72 81  2  0
 72 77  1  0
 73 69  1  0
 73 77  1  0
 74 73  1  0
 75 76  1  0
 75 74  1  0
 76 72  1  0
 77 78  2  0
 78 79  1  0
 80 79  2  0
 81 80  1  0
 82 56  1  0
 82 87  1  0
 82 83  1  0
 83 86  1  1
 83 84  1  0
 85 83  1  0
 87 90  1  0
 88 92  1  0
 88 87  1  0
 89 88  2  0
 92 91  1  0
 94 92  1  0
 94 95  1  0
 94 93  1  0
M  ISO  4  16 100  24 100  54 101  55 101
M  END
>  <TORSDO>  (97) 
F 19

>  <SCORE>  (97) 
-14.438

>  <name>  (97) 
96

>  <ligand_id>  (97) 
96

>  <original_smiles>  (97) 
[H]c1c([H])c([H])c2c(c1[H])C([H])([H])C([H])([H])C([H])([H])C2([H])N([H])C(=O)C1([H])N(C(=O)C([H])(N([H])C(=O)C([H])(N([H])C([H])([H])[H])C([H])([H])[H])C(C([H])([H])[H])(C([H])([H])[H])C([H])([H])[H])C([H])([H])c2c([H])c(OC([H])([H])c3c(C([H])([H])[H])nc(C([H])([H])[H])c(N([H])C4([H])C([H])([H])C([H])([H])C4([H])N([H])C(=O)N4C([H])([H])C([H])([H])C([H])([H])C([H])(n5nc(-c6c([H])c([H])c(Oc7c([H])c([H])c(F)c([H])c7F)c([H])c6[H])c(C(=O)N([H])[H])c5N([H])[H])C4([H])[H])c3C([H])([H])[H])c([H])c([H])c2C1([H])[H]

>  <smiles>  (97) 
[H]c1c([H])c([H])c2c(c1[H])C([H])([H])C([H])([H])C([H])([H])C2([H])N([H])C(=O)C1([H])N(C(=O)C([H])(N([H])C(=O)C([H])(N([H])C([H])([H])[H])C([H])([H])[H])C(C([H])([H])[H])(C([H])([H])[H])C([H])([H])[H])C([H])([H])c2c([H])c(OC([H])([H])c3c(C([H])([H])[H])nc(C([H])([H])[H])c(N([H])C4([H])C([H])([H])C([H])([H])C4([H])N([H])C(=O)N4C([H])([H])C([H])([H])C([H])([H])C([H])(n5nc(-c6c([H])c([H])c(Oc7c([H])c([H])c(F)c([H])c7F)c([H])c6[H])c(C(=O)N([H])[H])c5N([H])[H])C4([H])[H])c3C([H])([H])[H])c([H])c([H])c2C1([H])[H]

$$$$
