0:0:0
     RDKit          3D

 96106  0  0  1  0  0  0  0  0999 V2000
  -32.7270  -21.3760   19.6780 C   0  0  0  0  0  3  0  0  0  0  0  0
  -30.8010  -19.9600   20.2090 C   0  0  0  0  0  0  0  0  0  0  0  0
  -30.5040  -22.3990   19.6410 C   0  0  0  0  0  0  0  0  0  0  0  0
  -32.2040  -20.1200   20.0170 C   0  0  0  0  0  0  0  0  0  0  0  0
  -31.9150  -22.5010   19.4760 C   0  0  0  0  0  0  0  0  0  0  0  0
  -29.9580  -21.1110   19.9820 C   0  0  0  0  0  0  0  0  0  0  0  0
  -33.2270  -18.9970   20.1060 C   0  0  0  0  0  1  0  0  0  0  0  0
  -32.6390  -23.7590   19.0190 C   0  0  0  0  0  1  0  0  0  0  0  0
  -28.4390  -20.9410   20.0400 C   0  0  0  0  0  1  0  0  0  0  0  0
  -30.7270  -14.5320   20.2790 C   0  0  0  0  0  0  0  0  0  0  0  0
  -30.4150  -12.3870   19.0980 C   0  0  0  0  0  2  0  0  0  0  0  0
  -29.4240  -12.6080   17.9370 C   0  0  0  0  0  2  0  0  0  0  0  0
  -27.9690  -12.4440   18.4200 C   0  0  0  0  0  2  0  0  0  0  0  0
  -27.6700  -13.2480   19.7130 C   0  0  0  0  0  3  0  0  0  0  0  0
  -28.7720  -13.0260   20.7750 C   0  0  0  0  0  2  0  0  0  0  0  0
  -30.0670  -13.3480   20.1550 N   0  0  0  0  0  0  0  0  0  0  0  0
  -31.8800  -14.7030   19.8660 O   0  0  0  0  0  0  0  0  0  0  0  0
  -29.9360  -17.7100   19.3010 C   0  0  0  0  0  2  0  0  0  0  0  0
  -30.8700  -17.7040   21.6590 C   0  0  0  0  0  2  0  0  0  0  0  0
  -29.2370  -16.3790   19.6310 C   0  0  0  0  0  2  0  0  0  0  0  0
  -30.1580  -16.3440   21.8930 C   0  0  0  0  0  2  0  0  0  0  0  0
  -30.1820  -18.5660   20.5610 C   0  0  0  0  0  3  0  0  0  0  0  0
  -29.9570  -15.5900   20.6450 N   0  0  0  0  0  0  0  0  0  0  0  0
  -25.3070  -13.8460   20.5270 C   0  0  0  0  0  0  0  0  0  0  0  0
  -24.2510  -13.0650   20.9120 C   0  0  0  0  0  0  0  0  0  0  0  0
  -24.7090  -11.7140   20.8290 C   0  0  0  0  0  0  0  0  0  0  0  0
  -26.3390  -12.9670   20.2360 N   0  0  0  0  0  0  0  0  0  0  0  0
  -25.9860  -11.6800   20.4740 N   0  0  0  0  0  0  0  0  0  0  0  0
  -23.9900  -10.4490   21.0070 C   0  0  0  0  0  0  0  0  0  0  0  0
  -24.4170   -9.4840   21.9450 C   0  0  0  0  0  3  0  0  0  0  0  0
  -23.6970   -8.2820   22.1120 C   0  0  0  0  0  3  0  0  0  0  0  0
  -22.5380   -8.0380   21.3390 C   0  0  0  0  0  0  0  0  0  0  0  0
  -22.1310   -8.9900   20.3890 C   0  0  0  0  0  3  0  0  0  0  0  0
  -22.8510  -10.1840   20.2210 C   0  0  0  0  0  3  0  0  0  0  0  0
  -21.7910   -6.8870   21.4150 O   0  0  0  0  0  0  0  0  0  0  0  0
  -21.6840   -6.1750   22.5830 C   0  0  0  0  0  0  0  0  0  0  0  0
  -21.1420   -6.7430   23.7560 C   0  0  0  0  0  3  0  0  0  0  0  0
  -20.9870   -5.9550   24.9130 C   0  0  0  0  0  3  0  0  0  0  0  0
  -21.3640   -4.5980   24.8970 C   0  0  0  0  0  0  0  0  0  0  0  0
  -21.9000   -4.0300   23.7280 C   0  0  0  0  0  3  0  0  0  0  0  0
  -22.0570   -4.8160   22.5730 C   0  0  0  0  0  0  0  0  0  0  0  0
  -22.5530   -4.2580   21.4430 F   0  0  0  0  0  0  0  0  0  0  0  0
  -21.2080   -3.8370   26.0060 F   0  0  0  0  0  0  0  0  0  0  0  0
  -22.8650  -13.5360   21.2460 C   0  0  0  0  0  0  0  0  0  0  0  0
  -22.1630  -12.8060   22.1070 N   0  0  0  0  0  0  0  0  0  0  0  0
  -22.4160  -14.5820   20.7810 O   0  0  0  0  0  0  0  0  0  0  0  0
  -22.5410  -11.9580   22.5020 H   0  0  0  0  0  0  0  0  0  0  0  0
  -21.2340  -13.1010   22.3750 H   0  0  0  0  0  0  0  0  0  0  0  0
  -25.4690  -15.2210   20.3840 N   0  0  0  0  0  0  0  0  0  0  0  0
  -24.7080  -15.8720   20.5410 H   0  0  0  0  0  0  0  0  0  0  0  0
  -26.3130  -15.6660   20.0550 H   0  0  0  0  0  0  0  0  0  0  0  0
  -28.4740  -24.1770   20.2710 C   0  0  0  0  0  2  0  0  0  0  0  0
  -29.9960  -25.1030   19.2170 C   0  0  0  0  0  2  0  0  0  0  0  0
  -29.5740  -23.6130   19.3260 C   0  0  0  0  0  3  0  0  0  0  0  0
  -28.5410  -25.4930   19.4660 C   0  0  0  0  0  3  0  0  0  0  0  0
  -28.4240  -26.7270   20.1910 O   0  0  0  0  0  0  0  0  0  0  0  0
  -24.5740  -31.8780   23.2480 C   0  0  0  0  0  0  0  0  0  0  0  0
  -27.2230  -27.4150   20.1820 C   0  0  0  0  0  0  0  0  0  0  0  0
  -23.3690  -30.4720   21.6090 C   0  0  0  0  0  3  0  0  0  0  0  0
  -24.8220  -28.9270   20.1940 C   0  0  0  0  0  0  0  0  0  0  0  0
  -25.8970  -30.8260   21.4120 C   0  0  0  0  0  2  0  0  0  0  0  0
  -25.9800  -29.4510   20.7790 C   0  0  0  0  0  0  0  0  0  0  0  0
  -27.1800  -28.7020   20.7710 C   0  0  0  0  0  3  0  0  0  0  0  0
  -26.0360  -26.8990   19.6100 C   0  0  0  0  0  3  0  0  0  0  0  0
  -24.8430  -27.6480   19.6100 C   0  0  0  0  0  3  0  0  0  0  0  0
  -23.5780  -29.7870   20.2330 C   0  0  0  0  0  2  0  0  0  0  0  0
  -24.6320  -31.0730   22.1480 N   0  0  0  0  0  0  0  0  0  0  0  0
  -23.4930  -32.1540   23.7850 O   0  0  0  0  0  0  0  0  0  0  0  0
  -22.7150  -29.4540   22.5720 C   0  0  0  0  0  0  0  0  0  0  0  0
  -21.3920  -29.2660   22.4350 N   0  0  0  0  0  0  0  0  0  0  0  0
  -23.3960  -28.8370   23.3960 O   0  0  0  0  0  0  0  0  0  0  0  0
  -20.9050  -29.8150   21.7410 H   0  0  0  0  0  0  0  0  0  0  0  0
  -18.0160  -28.0870   22.9360 C   0  0  0  0  0  0  0  0  0  0  0  0
  -20.5750  -28.3310   23.2060 C   0  0  0  0  0  3  0  0  0  0  0  0
  -20.6710  -26.9000   22.6260 C   0  0  0  0  0  2  0  0  0  0  0  0
  -19.5660  -26.5850   21.6120 C   0  0  0  0  0  2  0  0  0  0  0  0
  -18.1850  -26.7390   22.2550 C   0  0  0  0  0  2  0  0  0  0  0  0
  -19.1390  -28.8420   23.3670 C   0  0  0  0  0  0  0  0  0  0  0  0
  -18.9280  -30.1060   23.9600 C   0  0  0  0  0  3  0  0  0  0  0  0
  -17.6260  -30.6140   24.1260 C   0  0  0  0  0  3  0  0  0  0  0  0
  -16.5170  -29.8550   23.7140 C   0  0  0  0  0  3  0  0  0  0  0  0
  -16.7130  -28.5930   23.1240 C   0  0  0  0  0  3  0  0  0  0  0  0
  -25.8610  -32.5080   23.8670 C   0  0  0  0  0  3  0  0  0  0  0  0
  -26.3770  -31.7380   25.1450 C   0  0  1  0  0  0  0  0  0  0  0  0
  -25.2820  -31.4970   26.2100 C   0  0  0  0  0  1  0  0  0  0  0  0
  -26.9640  -30.3630   24.7530 C   0  0  0  0  0  1  0  0  0  0  0  0
  -27.5250  -32.5350   25.8080 C   0  0  0  0  0  1  0  0  0  0  0  0
  -25.5540  -33.9070   24.1920 N   0  0  0  0  0  0  0  0  0  0  0  0
  -25.8870  -34.9560   23.4270 C   0  0  0  0  0  0  0  0  0  0  0  0
  -26.5550  -34.8470   22.3950 O   0  0  0  0  0  0  0  0  0  0  0  0
  -24.9600  -34.0670   24.9930 H   0  0  0  0  0  0  0  0  0  0  0  0
  -24.1650  -36.7510   23.0560 C   0  0  0  0  0  1  0  0  0  0  0  0
  -25.3990  -36.3450   23.8780 C   0  0  0  0  0  3  0  0  0  0  0  0
  -27.5260  -37.2310   24.7300 C   0  0  0  0  0  1  0  0  0  0  0  0
  -26.4360  -37.3960   23.7720 N   0  0  0  0  0  0  0  0  0  0  0  0
  -26.0300  -38.3180   23.9080 H   0  0  0  0  0  0  0  0  0  0  0  0
  1  4  1  0
  3  6  2  0
  4  7  1  0
  4  2  2  0
  5  3  1  0
  5  1  2  0
  6  9  1  0
  6  2  1  0
  8  5  1  0
 10 23  1  0
 11 16  1  0
 12 13  1  0
 12 11  1  0
 14 13  1  0
 14 27  1  0
 14 15  1  0
 16 10  1  0
 16 15  1  0
 17 10  2  0
 18 20  1  0
 18 22  1  0
 19 21  1  0
 20 23  1  0
 22  2  1  0
 22 19  1  0
 23 21  1  0
 24 25  2  0
 25 44  1  0
 26 25  1  0
 26 29  1  0
 27 28  1  0
 27 24  1  0
 28 26  2  0
 29 30  1  0
 30 31  2  0
 32 35  1  0
 32 31  1  0
 33 32  2  0
 34 33  1  0
 34 29  2  0
 35 36  1  0
 36 37  1  0
 37 38  2  0
 39 38  1  0
 39 43  1  0
 40 39  2  0
 41 36  2  0
 41 40  1  0
 42 41  1  0
 44 45  1  0
 45 48  1  0
 45 47  1  0
 46 44  2  0
 49 24  1  0
 49 50  1  0
 51 49  1  0
 53 54  1  0
 53 55  1  0
 54  3  1  0
 54 52  1  0
 55 56  1  0
 55 52  1  0
 57 68  2  0
 58 56  1  0
 58 63  1  0
 59 67  1  0
 59 69  1  0
 60 66  1  0
 60 62  1  0
 61 67  1  0
 62 61  1  0
 63 62  2  0
 64 65  1  0
 64 58  2  0
 65 60  2  0
 66 59  1  0
 67 57  1  0
 69 71  2  0
 70 69  1  0
 72 70  1  0
 73 82  2  0
 73 78  1  0
 74 70  1  0
 74 78  1  0
 75 74  1  0
 76 77  1  0
 76 75  1  0
 77 73  1  0
 78 79  2  0
 79 80  1  0
 81 80  2  0
 82 81  1  0
 83 57  1  0
 83 88  1  0
 83 84  1  0
 84 87  1  1
 84 85  1  0
 86 84  1  0
 88 91  1  0
 89 93  1  0
 89 88  1  0
 90 89  2  0
 93 92  1  0
 95 93  1  0
 95 96  1  0
 95 94  1  0
M  ISO  4  10 100  23 100  55 101  56 101
M  END
>  <TORSDO>  (1) 
F 17

>  <SCORE>  (1) 
-15.507

>  <name>  (1) 
0

>  <ligand_id>  (1) 
0

>  <original_smiles>  (1) 
[H]c1c([H])c([H])c2c(c1[H])C([H])([H])C([H])([H])C([H])([H])C2([H])N([H])C(=O)C1([H])N(C(=O)C([H])(N([H])C(=O)C([H])(N([H])C([H])([H])[H])C([H])([H])[H])C(C([H])([H])[H])(C([H])([H])[H])C([H])([H])[H])C([H])([H])c2c([H])c(OC3([H])C([H])([H])C([H])(c4c(C([H])([H])[H])c([H])c(C([H])([H])[H])c(C5([H])C([H])([H])C([H])([H])N(C(=O)N6C([H])([H])C([H])([H])C([H])([H])C([H])(n7nc(-c8c([H])c([H])c(Oc9c([H])c([H])c(F)c([H])c9F)c([H])c8[H])c(C(=O)N([H])[H])c7N([H])[H])C6([H])[H])C([H])([H])C5([H])[H])c4C([H])([H])[H])C3([H])[H])c([H])c([H])c2C1([H])[H]

>  <smiles>  (1) 
[H]c1c([H])c([H])c2c(c1[H])C([H])([H])C([H])([H])C([H])([H])C2([H])N([H])C(=O)C1([H])N(C(=O)C([H])(N([H])C(=O)C([H])(N([H])C([H])([H])[H])C([H])([H])[H])C(C([H])([H])[H])(C([H])([H])[H])C([H])([H])[H])C([H])([H])c2c([H])c(OC3([H])C([H])([H])C([H])(c4c(C([H])([H])[H])c([H])c(C([H])([H])[H])c(C5([H])C([H])([H])C([H])([H])N(C(=O)N6C([H])([H])C([H])([H])C([H])([H])C([H])(n7nc(-c8c([H])c([H])c(Oc9c([H])c([H])c(F)c([H])c9F)c([H])c8[H])c(C(=O)N([H])[H])c7N([H])[H])C6([H])[H])C([H])([H])C5([H])[H])c4C([H])([H])[H])C3([H])[H])c([H])c([H])c2C1([H])[H]

$$$$
1:0:0
     RDKit          3D

 95105  0  0  1  0  0  0  0  0999 V2000
  -30.3870  -24.0100   20.2230 C   0  0  0  0  0  3  0  0  0  0  0  0
  -28.8790  -22.0850   20.1510 C   0  0  0  0  0  3  0  0  0  0  0  0
  -31.4390  -23.0870   20.1990 C   0  0  0  0  0  0  0  0  0  0  0  0
  -29.9700  -21.0780   20.1380 C   0  0  0  0  0  0  0  0  0  0  0  0
  -31.2750  -21.6910   20.1330 C   0  0  0  0  0  0  0  0  0  0  0  0
  -29.0620  -23.5650   20.1820 C   0  0  0  0  0  0  0  0  0  0  0  0
  -32.8770  -23.5150   20.2270 C   0  0  0  0  0  2  0  0  0  0  0  0
  -33.6290  -22.2500   19.8290 C   0  0  0  0  0  2  0  0  0  0  0  0
  -32.6810  -21.0460   20.0790 C   0  0  1  0  0  0  0  0  0  0  0  0
  -33.0730  -20.4270   21.4400 C   0  0  0  0  0  1  0  0  0  0  0  0
  -32.9140  -20.0570   18.9120 C   0  0  0  0  0  1  0  0  0  0  0  0
  -30.6300  -14.9100   19.9420 C   0  0  0  0  0  0  0  0  0  0  0  0
  -30.3630  -12.6140   18.9410 C   0  0  0  0  0  2  0  0  0  0  0  0
  -29.3560  -12.6320   17.7730 C   0  0  0  0  0  2  0  0  0  0  0  0
  -27.9250  -12.4210   18.2990 C   0  0  0  0  0  2  0  0  0  0  0  0
  -27.6060  -13.3070   19.5340 C   0  0  0  0  0  3  0  0  0  0  0  0
  -28.7380  -13.2940   20.5820 C   0  0  0  0  0  2  0  0  0  0  0  0
  -29.9630  -13.6940   19.8830 N   0  0  0  0  0  0  0  0  0  0  0  0
  -31.8200  -14.9030   19.6090 O   0  0  0  0  0  0  0  0  0  0  0  0
  -29.1920  -18.5040   21.1540 C   0  0  0  0  0  3  0  0  0  0  0  0
  -29.6800  -18.6240   18.8070 C   0  0  0  0  0  3  0  0  0  0  0  0
  -29.7020  -16.9630   21.2060 C   0  0  0  0  0  2  0  0  0  0  0  0
  -30.2130  -17.1120   18.8070 C   0  0  0  0  0  3  0  0  0  0  0  0
  -29.9120  -19.4260   20.1190 C   0  0  0  0  0  0  0  0  0  0  0  0
  -29.9380  -16.1570   19.9470 N   0  0  0  0  0  0  0  0  0  0  0  0
  -25.2840  -13.8420   20.4630 C   0  0  0  0  0  0  0  0  0  0  0  0
  -24.2500  -13.0460   20.8730 C   0  0  0  0  0  0  0  0  0  0  0  0
  -24.7150  -11.7010   20.7600 C   0  0  0  0  0  0  0  0  0  0  0  0
  -26.3100  -12.9800   20.1170 N   0  0  0  0  0  0  0  0  0  0  0  0
  -25.9830  -11.6840   20.3620 N   0  0  0  0  0  0  0  0  0  0  0  0
  -24.0070  -10.4270   20.9500 C   0  0  0  0  0  0  0  0  0  0  0  0
  -24.4500   -9.4680   21.8870 C   0  0  0  0  0  3  0  0  0  0  0  0
  -23.7400   -8.2610   22.0660 C   0  0  0  0  0  3  0  0  0  0  0  0
  -22.5720   -8.0060   21.3090 C   0  0  0  0  0  0  0  0  0  0  0  0
  -22.1480   -8.9540   20.3610 C   0  0  0  0  0  3  0  0  0  0  0  0
  -22.8590  -10.1520   20.1800 C   0  0  0  0  0  3  0  0  0  0  0  0
  -21.8320   -6.8500   21.3980 O   0  0  0  0  0  0  0  0  0  0  0  0
  -21.7170   -6.1580   22.5760 C   0  0  0  0  0  0  0  0  0  0  0  0
  -21.1820   -6.7510   23.7400 C   0  0  0  0  0  3  0  0  0  0  0  0
  -21.0180   -5.9820   24.9110 C   0  0  0  0  0  3  0  0  0  0  0  0
  -21.3780   -4.6220   24.9160 C   0  0  0  0  0  0  0  0  0  0  0  0
  -21.9060   -4.0280   23.7560 C   0  0  0  0  0  3  0  0  0  0  0  0
  -22.0730   -4.7930   22.5890 C   0  0  0  0  0  0  0  0  0  0  0  0
  -22.5610   -4.2110   21.4680 F   0  0  0  0  0  0  0  0  0  0  0  0
  -21.2130   -3.8810   26.0360 F   0  0  0  0  0  0  0  0  0  0  0  0
  -22.8730  -13.5050   21.2550 C   0  0  0  0  0  0  0  0  0  0  0  0
  -22.2100  -12.7770   22.1460 N   0  0  0  0  0  0  0  0  0  0  0  0
  -22.3970  -14.5440   20.7980 O   0  0  0  0  0  0  0  0  0  0  0  0
  -22.6110  -11.9370   22.5350 H   0  0  0  0  0  0  0  0  0  0  0  0
  -21.2890  -13.0640   22.4430 H   0  0  0  0  0  0  0  0  0  0  0  0
  -25.4320  -15.2190   20.3290 N   0  0  0  0  0  0  0  0  0  0  0  0
  -24.6800  -15.8690   20.5270 H   0  0  0  0  0  0  0  0  0  0  0  0
  -26.2690  -15.6750   19.9860 H   0  0  0  0  0  0  0  0  0  0  0  0
  -27.9400  -24.7370   20.1330 C   0  0  0  0  0  2  0  0  0  0  0  0
  -28.2570  -26.2430   20.2610 O   0  0  0  0  0  0  0  0  0  0  0  0
  -24.6730  -31.9000   23.2810 C   0  0  0  0  0  0  0  0  0  0  0  0
  -27.2010  -27.2130   20.2090 C   0  0  0  0  0  0  0  0  0  0  0  0
  -23.4560  -30.5260   21.6370 C   0  0  0  0  0  3  0  0  0  0  0  0
  -24.8840  -28.9550   20.1990 C   0  0  0  0  0  0  0  0  0  0  0  0
  -26.0090  -30.7780   21.4640 C   0  0  0  0  0  2  0  0  0  0  0  0
  -26.0690  -29.3940   20.8040 C   0  0  0  0  0  0  0  0  0  0  0  0
  -27.2310  -28.5390   20.7910 C   0  0  0  0  0  3  0  0  0  0  0  0
  -25.9880  -26.8670   19.5720 C   0  0  0  0  0  3  0  0  0  0  0  0
  -24.8540  -27.7040   19.5700 C   0  0  0  0  0  3  0  0  0  0  0  0
  -23.6640  -29.8580   20.2540 C   0  0  0  0  0  2  0  0  0  0  0  0
  -24.7330  -31.0890   22.1820 N   0  0  0  0  0  0  0  0  0  0  0  0
  -23.5910  -32.1910   23.8140 O   0  0  0  0  0  0  0  0  0  0  0  0
  -22.7740  -29.5160   22.5930 C   0  0  0  0  0  0  0  0  0  0  0  0
  -21.4450  -29.3500   22.4610 N   0  0  0  0  0  0  0  0  0  0  0  0
  -23.4410  -28.8850   23.4170 O   0  0  0  0  0  0  0  0  0  0  0  0
  -20.9640  -29.9100   21.7710 H   0  0  0  0  0  0  0  0  0  0  0  0
  -18.0570  -28.1700   22.9520 C   0  0  0  0  0  0  0  0  0  0  0  0
  -20.6160  -28.4170   23.2270 C   0  0  0  0  0  3  0  0  0  0  0  0
  -20.7110  -26.9840   22.6500 C   0  0  0  0  0  2  0  0  0  0  0  0
  -19.6100  -26.6700   21.6330 C   0  0  0  0  0  2  0  0  0  0  0  0
  -18.2270  -26.8210   22.2720 C   0  0  0  0  0  2  0  0  0  0  0  0
  -19.1790  -28.9250   23.3850 C   0  0  0  0  0  0  0  0  0  0  0  0
  -18.9640  -30.1870   23.9820 C   0  0  0  0  0  3  0  0  0  0  0  0
  -17.6610  -30.6940   24.1470 C   0  0  0  0  0  3  0  0  0  0  0  0
  -16.5540  -29.9350   23.7290 C   0  0  0  0  0  3  0  0  0  0  0  0
  -16.7530  -28.6750   23.1360 C   0  0  0  0  0  3  0  0  0  0  0  0
  -25.9600  -32.5190   23.9080 C   0  0  0  0  0  3  0  0  0  0  0  0
  -25.6640  -33.9210   24.2430 N   0  0  0  0  0  0  0  0  0  0  0  0
  -25.9740  -34.9730   23.4740 C   0  0  0  0  0  0  0  0  0  0  0  0
  -26.6090  -34.8650   22.4210 O   0  0  0  0  0  0  0  0  0  0  0  0
  -25.0950  -34.0780   25.0620 H   0  0  0  0  0  0  0  0  0  0  0  0
  -24.2250  -36.7620   23.2010 C   0  0  0  0  0  1  0  0  0  0  0  0
  -25.5100  -36.3640   23.9460 C   0  0  0  0  0  3  0  0  0  0  0  0
  -27.6810  -37.2660   24.6590 C   0  0  0  0  0  1  0  0  0  0  0  0
  -26.5330  -37.4190   23.7690 N   0  0  0  0  0  0  0  0  0  0  0  0
  -26.1310  -38.3400   23.9240 H   0  0  0  0  0  0  0  0  0  0  0  0
  -26.4620  -31.7420   25.1870 C   0  0  1  0  0  0  0  0  0  0  0  0
  -25.3610  -31.5160   26.2500 C   0  0  0  0  0  1  0  0  0  0  0  0
  -27.0320  -30.3570   24.8010 C   0  0  0  0  0  1  0  0  0  0  0  0
  -27.6180  -32.5230   25.8540 C   0  0  0  0  0  1  0  0  0  0  0  0
  2  6  1  0
  3  1  1  0
  3  7  1  0
  4  2  2  0
  5  4  1  0
  5  3  2  0
  6  1  2  0
  8  9  1  0
  8  7  1  0
  9  5  1  0
  9 10  1  1
 11  9  1  0
 12 25  1  0
 13 18  1  0
 14 15  1  0
 14 13  1  0
 16 15  1  0
 16 29  1  0
 16 17  1  0
 18 12  1  0
 18 17  1  0
 19 12  2  0
 20 22  1  0
 21 23  2  0
 21 24  1  0
 23 25  1  0
 24  4  1  0
 24 20  2  0
 25 22  1  0
 26 27  2  0
 27 46  1  0
 28 27  1  0
 28 31  1  0
 29 30  1  0
 29 26  1  0
 30 28  2  0
 31 32  1  0
 32 33  2  0
 34 37  1  0
 34 33  1  0
 35 34  2  0
 36 35  1  0
 36 31  2  0
 37 38  1  0
 38 43  2  0
 38 39  1  0
 39 40  2  0
 40 41  1  0
 41 45  1  0
 42 41  2  0
 43 42  1  0
 44 43  1  0
 46 47  1  0
 47 50  1  0
 47 49  1  0
 48 46  2  0
 51 26  1  0
 51 52  1  0
 53 51  1  0
 54  6  1  0
 54 55  1  0
 56 67  2  0
 57 55  1  0
 57 62  1  0
 58 66  1  0
 58 68  1  0
 59 65  1  0
 59 61  1  0
 60 66  1  0
 61 60  1  0
 62 61  2  0
 63 57  2  0
 64 63  1  0
 64 59  2  0
 65 58  1  0
 66 56  1  0
 68 70  2  0
 69 68  1  0
 71 69  1  0
 72 81  2  0
 72 77  1  0
 73 69  1  0
 73 77  1  0
 74 73  1  0
 75 76  1  0
 75 74  1  0
 76 72  1  0
 77 78  2  0
 78 79  1  0
 80 79  2  0
 81 80  1  0
 82 56  1  0
 82 83  1  0
 82 92  1  0
 83 86  1  0
 84 88  1  0
 84 83  1  0
 85 84  2  0
 88 87  1  0
 90 91  1  0
 90 88  1  0
 90 89  1  0
 92 95  1  1
 92 93  1  0
 94 92  1  0
M  ISO  4  12 100  25 100  54 101  55 101
M  END
>  <TORSDO>  (2) 
F 17

>  <SCORE>  (2) 
-14.720

>  <name>  (2) 
1

>  <ligand_id>  (2) 
1

>  <original_smiles>  (2) 
[H]c1c([H])c([H])c2c(c1[H])C([H])([H])C([H])([H])C([H])([H])C2([H])N([H])C(=O)C1([H])N(C(=O)C([H])(N([H])C(=O)C([H])(N([H])C([H])([H])[H])C([H])([H])[H])C(C([H])([H])[H])(C([H])([H])[H])C([H])([H])[H])C([H])([H])c2c([H])c(OC([H])([H])c3c([H])c4c(c(C5([H])C([H])([H])C([H])([H])N(C(=O)N6C([H])([H])C([H])([H])C([H])([H])C([H])(n7nc(-c8c([H])c([H])c(Oc9c([H])c([H])c(F)c([H])c9F)c([H])c8[H])c(C(=O)N([H])[H])c7N([H])[H])C6([H])[H])C([H])([H])C5([H])[H])c3[H])C(C([H])([H])[H])(C([H])([H])[H])C([H])([H])C4([H])[H])c([H])c([H])c2C1([H])[H]

>  <smiles>  (2) 
[H]c1c([H])c([H])c2c(c1[H])C([H])([H])C([H])([H])C([H])([H])C2([H])N([H])C(=O)C1([H])N(C(=O)C([H])(N([H])C(=O)C([H])(N([H])C([H])([H])[H])C([H])([H])[H])C(C([H])([H])[H])(C([H])([H])[H])C([H])([H])[H])C([H])([H])c2c([H])c(OC([H])([H])c3c([H])c4c(c(C5([H])C([H])([H])C([H])([H])N(C(=O)N6C([H])([H])C([H])([H])C([H])([H])C([H])(n7nc(-c8c([H])c([H])c(Oc9c([H])c([H])c(F)c([H])c9F)c([H])c8[H])c(C(=O)N([H])[H])c7N([H])[H])C6([H])[H])C([H])([H])C5([H])[H])c3[H])C(C([H])([H])[H])(C([H])([H])[H])C([H])([H])C4([H])[H])c([H])c([H])c2C1([H])[H]

$$$$
2:0:0
     RDKit          3D

 93102  0  0  1  0  0  0  0  0999 V2000
  -29.4020  -24.0580   18.5850 C   0  0  0  0  0  3  0  0  0  0  0  0
  -30.0220  -23.0850   17.7900 C   0  0  0  0  0  3  0  0  0  0  0  0
  -29.0330  -22.3340   20.2910 C   0  0  0  0  0  3  0  0  0  0  0  0
  -29.6810  -21.2960   19.4820 C   0  0  0  0  0  0  0  0  0  0  0  0
  -28.8840  -23.7330   19.8480 C   0  0  0  0  0  0  0  0  0  0  0  0
  -30.1630  -21.7550   18.2220 C   0  0  0  0  0  0  0  0  0  0  0  0
  -30.8140  -20.9110   17.3870 F   0  0  0  0  0  0  0  0  0  0  0  0
  -30.5990  -14.7970   20.3630 C   0  0  0  0  0  0  0  0  0  0  0  0
  -30.4290  -12.5020   19.3720 C   0  0  0  0  0  2  0  0  0  0  0  0
  -29.4870  -12.5290   18.1460 C   0  0  0  0  0  2  0  0  0  0  0  0
  -28.0200  -12.3370   18.5790 C   0  0  0  0  0  2  0  0  0  0  0  0
  -27.6310  -13.2490   19.7740 C   0  0  0  0  0  3  0  0  0  0  0  0
  -28.6880  -13.1990   20.8980 C   0  0  0  0  0  2  0  0  0  0  0  0
  -29.9790  -13.5660   20.3020 N   0  0  0  0  0  0  0  0  0  0  0  0
  -31.7960  -14.9030   20.0670 O   0  0  0  0  0  0  0  0  0  0  0  0
  -30.1180  -17.4040   20.3370 C   0  0  0  0  0  3  0  0  0  0  0  0
  -31.5500  -17.8810   20.2640 C   0  0  0  0  0  2  0  0  0  0  0  0
  -31.4600  -19.4350   20.3410 C   0  0  0  0  0  2  0  0  0  0  0  0
  -30.0740  -19.7460   19.7900 C   0  0  0  0  0  3  0  0  0  0  0  0
  -27.8200  -18.5220   20.2160 C   0  0  0  0  0  1  0  0  0  0  0  0
  -29.2870  -18.5210   20.2090 N   0  0  0  0  0  0  0  0  0  0  0  0
  -29.7560  -16.0470   20.4760 N   0  0  0  0  0  0  0  0  0  0  0  0
  -28.7700  -15.9320   20.6290 H   0  0  0  0  0  0  0  0  0  0  0  0
  -25.2460  -13.8330   20.5050 C   0  0  0  0  0  0  0  0  0  0  0  0
  -24.1840  -13.0590   20.8810 C   0  0  0  0  0  0  0  0  0  0  0  0
  -24.6520  -11.7090   20.8560 C   0  0  0  0  0  0  0  0  0  0  0  0
  -26.2900  -12.9560   20.2670 N   0  0  0  0  0  0  0  0  0  0  0  0
  -25.9430  -11.6740   20.5460 N   0  0  0  0  0  0  0  0  0  0  0  0
  -23.9300  -10.4440   21.0490 C   0  0  0  0  0  0  0  0  0  0  0  0
  -24.3710   -9.4770   21.9790 C   0  0  0  0  0  3  0  0  0  0  0  0
  -23.6490   -8.2770   22.1590 C   0  0  0  0  0  3  0  0  0  0  0  0
  -22.4730   -8.0370   21.4090 C   0  0  0  0  0  0  0  0  0  0  0  0
  -22.0530   -8.9930   20.4690 C   0  0  0  0  0  3  0  0  0  0  0  0
  -22.7740  -10.1850   20.2870 C   0  0  0  0  0  3  0  0  0  0  0  0
  -21.7230   -6.8900   21.5010 O   0  0  0  0  0  0  0  0  0  0  0  0
  -21.6890   -6.1420   22.6500 C   0  0  0  0  0  0  0  0  0  0  0  0
  -21.2750   -6.6910   23.8840 C   0  0  0  0  0  3  0  0  0  0  0  0
  -21.1890   -5.8680   25.0260 C   0  0  0  0  0  3  0  0  0  0  0  0
  -21.5050   -4.5000   24.9340 C   0  0  0  0  0  0  0  0  0  0  0  0
  -21.9120   -3.9510   23.7050 C   0  0  0  0  0  3  0  0  0  0  0  0
  -22.0010   -4.7710   22.5670 C   0  0  0  0  0  0  0  0  0  0  0  0
  -22.3730   -4.2340   21.3800 F   0  0  0  0  0  0  0  0  0  0  0  0
  -21.4150   -3.7080   26.0290 F   0  0  0  0  0  0  0  0  0  0  0  0
  -22.7840  -13.5320   21.1440 C   0  0  0  0  0  0  0  0  0  0  0  0
  -22.0550  -12.8390   22.0100 N   0  0  0  0  0  0  0  0  0  0  0  0
  -22.3450  -14.5520   20.6130 O   0  0  0  0  0  0  0  0  0  0  0  0
  -22.4240  -12.0150   22.4620 H   0  0  0  0  0  0  0  0  0  0  0  0
  -21.1170  -13.1370   22.2300 H   0  0  0  0  0  0  0  0  0  0  0  0
  -25.4000  -15.2030   20.3110 N   0  0  0  0  0  0  0  0  0  0  0  0
  -24.5790  -15.8010   20.3430 H   0  0  0  0  0  0  0  0  0  0  0  0
  -26.1330  -15.5800   19.7290 H   0  0  0  0  0  0  0  0  0  0  0  0
  -28.1400  -24.9230   20.6080 C   0  0  0  0  0  2  0  0  0  0  0  0
  -28.3400  -26.3650   20.1870 O   0  0  0  0  0  0  0  0  0  0  0  0
  -24.6440  -31.8690   23.2180 C   0  0  0  0  0  0  0  0  0  0  0  0
  -27.2360  -27.2530   20.1790 C   0  0  0  0  0  0  0  0  0  0  0  0
  -23.4370  -30.4670   21.5870 C   0  0  0  0  0  3  0  0  0  0  0  0
  -24.8820  -28.9030   20.1640 C   0  0  0  0  0  0  0  0  0  0  0  0
  -25.9790  -30.7720   21.3970 C   0  0  0  0  0  2  0  0  0  0  0  0
  -26.0570  -29.3840   20.7570 C   0  0  0  0  0  0  0  0  0  0  0  0
  -27.2380  -28.5720   20.7500 C   0  0  0  0  0  3  0  0  0  0  0  0
  -26.0410  -26.8420   19.5520 C   0  0  0  0  0  3  0  0  0  0  0  0
  -24.8790  -27.6390   19.5520 C   0  0  0  0  0  3  0  0  0  0  0  0
  -23.6490  -29.7830   20.2100 C   0  0  0  0  0  2  0  0  0  0  0  0
  -24.7060  -31.0550   22.1250 N   0  0  0  0  0  0  0  0  0  0  0  0
  -23.5620  -32.1480   23.7570 O   0  0  0  0  0  0  0  0  0  0  0  0
  -22.7720  -29.4570   22.5540 C   0  0  0  0  0  0  0  0  0  0  0  0
  -21.4450  -29.2800   22.4320 N   0  0  0  0  0  0  0  0  0  0  0  0
  -23.4520  -28.8330   23.3730 O   0  0  0  0  0  0  0  0  0  0  0  0
  -20.9550  -29.8340   21.7440 H   0  0  0  0  0  0  0  0  0  0  0  0
  -18.0720  -28.0730   22.9450 C   0  0  0  0  0  0  0  0  0  0  0  0
  -20.6310  -28.3460   23.2110 C   0  0  0  0  0  3  0  0  0  0  0  0
  -20.7370  -26.9100   22.6460 C   0  0  0  0  0  2  0  0  0  0  0  0
  -19.6360  -26.5760   21.6340 C   0  0  0  0  0  2  0  0  0  0  0  0
  -18.2550  -26.7200   22.2780 C   0  0  0  0  0  2  0  0  0  0  0  0
  -19.1890  -28.8420   23.3690 C   0  0  0  0  0  0  0  0  0  0  0  0
  -18.9640  -30.1070   23.9560 C   0  0  0  0  0  3  0  0  0  0  0  0
  -17.6570  -30.6020   24.1230 C   0  0  0  0  0  3  0  0  0  0  0  0
  -16.5550  -29.8300   23.7140 C   0  0  0  0  0  3  0  0  0  0  0  0
  -16.7650  -28.5680   23.1300 C   0  0  0  0  0  3  0  0  0  0  0  0
  -25.9280  -32.5070   23.8350 C   0  0  0  0  0  3  0  0  0  0  0  0
  -25.6140  -33.9020   24.1770 N   0  0  0  0  0  0  0  0  0  0  0  0
  -25.9330  -34.9630   23.4230 C   0  0  0  0  0  0  0  0  0  0  0  0
  -26.5910  -34.8690   22.3830 O   0  0  0  0  0  0  0  0  0  0  0  0
  -25.0260  -34.0460   24.9860 H   0  0  0  0  0  0  0  0  0  0  0  0
  -24.1950  -36.7530   23.1010 C   0  0  0  0  0  1  0  0  0  0  0  0
  -25.4460  -36.3460   23.8960 C   0  0  0  0  0  3  0  0  0  0  0  0
  -27.5860  -37.2330   24.7120 C   0  0  0  0  0  1  0  0  0  0  0  0
  -26.4740  -37.4030   23.7800 N   0  0  0  0  0  0  0  0  0  0  0  0
  -26.0660  -38.3200   23.9410 H   0  0  0  0  0  0  0  0  0  0  0  0
  -26.4560  -31.7320   25.1040 C   0  0  1  0  0  0  0  0  0  0  0  0
  -25.3710  -31.4890   26.1800 C   0  0  0  0  0  1  0  0  0  0  0  0
  -27.0380  -30.3570   24.7050 C   0  0  0  0  0  1  0  0  0  0  0  0
  -27.6120  -32.5260   25.7590 C   0  0  0  0  0  1  0  0  0  0  0  0
  1  5  1  0
  2  6  1  0
  2  1  2  0
  4  3  1  0
  5  3  2  0
  5 52  1  0
  6  4  2  0
  7  6  1  0
  8 22  1  0
  9 14  1  0
 10 11  1  0
 10  9  1  0
 12 11  1  0
 12 27  1  0
 12 13  1  0
 14  8  1  0
 14 13  1  0
 15  8  2  0
 16 22  1  0
 17 16  1  0
 17 18  1  0
 19  4  1  0
 19 21  1  0
 19 18  1  0
 21 20  1  0
 21 16  1  0
 22 23  1  0
 24 25  2  0
 25 44  1  0
 26 25  1  0
 26 29  1  0
 27 24  1  0
 27 28  1  0
 28 26  2  0
 29 30  1  0
 30 31  2  0
 32 35  1  0
 32 31  1  0
 33 32  2  0
 34 33  1  0
 34 29  2  0
 35 36  1  0
 36 37  1  0
 37 38  2  0
 39 38  1  0
 39 43  1  0
 40 39  2  0
 41 36  2  0
 41 40  1  0
 42 41  1  0
 44 45  1  0
 45 48  1  0
 45 47  1  0
 46 44  2  0
 49 50  1  0
 49 24  1  0
 51 49  1  0
 53 52  1  0
 54 65  2  0
 55 53  1  0
 55 60  1  0
 56 64  1  0
 56 66  1  0
 57 63  1  0
 57 59  1  0
 58 64  1  0
 59 58  1  0
 60 59  2  0
 61 62  1  0
 61 55  2  0
 62 57  2  0
 63 56  1  0
 64 54  1  0
 66 68  2  0
 67 66  1  0
 69 67  1  0
 70 79  2  0
 70 75  1  0
 71 67  1  0
 71 75  1  0
 72 71  1  0
 73 74  1  0
 73 72  1  0
 74 70  1  0
 75 76  2  0
 76 77  1  0
 78 77  2  0
 79 78  1  0
 80 54  1  0
 80 81  1  0
 80 90  1  0
 81 84  1  0
 82 86  1  0
 82 81  1  0
 83 82  2  0
 86 85  1  0
 88 86  1  0
 88 89  1  0
 88 87  1  0
 90 93  1  1
 90 91  1  0
 92 90  1  0
M  ISO  4   8 100  22 100  52 101  53 101
M  END
>  <TORSDO>  (3) 
F 17

>  <SCORE>  (3) 
-15.238

>  <name>  (3) 
2

>  <ligand_id>  (3) 
2

>  <original_smiles>  (3) 
[H]c1c([H])c([H])c2c(c1[H])C([H])([H])C([H])([H])C([H])([H])C2([H])N([H])C(=O)C1([H])N(C(=O)C([H])(N([H])C(=O)C([H])(N([H])C([H])([H])[H])C([H])([H])[H])C(C([H])([H])[H])(C([H])([H])[H])C([H])([H])[H])C([H])([H])c2c([H])c(OC([H])([H])c3c([H])c([H])c(F)c(C4([H])N(C([H])([H])[H])C(=[N+]([H])C(=O)N5C([H])([H])C([H])([H])C([H])([H])C([H])(n6nc(-c7c([H])c([H])c(Oc8c([H])c([H])c(F)c([H])c8F)c([H])c7[H])c(C(=O)N([H])[H])c6N([H])[H])C5([H])[H])C([H])([H])C4([H])[H])c3[H])c([H])c([H])c2C1([H])[H]

>  <smiles>  (3) 
[H]c1c([H])c([H])c2c(c1[H])C([H])([H])C([H])([H])C([H])([H])C2([H])N([H])C(=O)C1([H])N(C(=O)C([H])(N([H])C(=O)C([H])(N([H])C([H])([H])[H])C([H])([H])[H])C(C([H])([H])[H])(C([H])([H])[H])C([H])([H])[H])C([H])([H])c2c([H])c(OC([H])([H])c3c([H])c([H])c(F)c(C4([H])N(C([H])([H])[H])C(=[N+]([H])C(=O)N5C([H])([H])C([H])([H])C([H])([H])C([H])(n6nc(-c7c([H])c([H])c(Oc8c([H])c([H])c(F)c([H])c8F)c([H])c7[H])c(C(=O)N([H])[H])c6N([H])[H])C5([H])[H])C([H])([H])C4([H])[H])c3[H])c([H])c([H])c2C1([H])[H]

$$$$
3:0:0
     RDKit          3D

102112  0  0  1  0  0  0  0  0999 V2000
  -32.7970  -22.4600   19.4090 N   0  0  0  0  0  4  0  0  0  0  0  0
  -32.9510  -22.3840   18.4170 H   0  0  0  0  0  0  0  0  0  0  0  0
  -31.8140  -22.3160   19.5700 H   0  0  0  0  0  0  0  0  0  0  0  0
  -33.4750  -24.7650   18.6980 C   0  0  0  0  0  2  0  0  0  0  0  0
  -32.1840  -24.4520   20.8370 C   0  0  0  0  0  2  0  0  0  0  0  0
  -32.1840  -25.2300   18.0110 C   0  0  0  0  0  2  0  0  0  0  0  0
  -30.9140  -24.9850   20.1290 C   0  0  0  0  0  2  0  0  0  0  0  0
  -33.2070  -23.8110   19.8720 C   0  0  0  0  0  3  0  0  0  0  0  0
  -31.2330  -25.8630   18.9610 N   0  0  2  0  0  4  0  0  0  0  0  0
  -31.7000  -26.6890   19.3190 H   0  0  0  0  0  0  0  0  0  0  0  0
  -30.0290  -26.3430   18.2310 C   0  0  0  0  0  2  0  0  0  0  0  0
  -29.2470  -27.4260   18.9850 C   0  0  0  0  0  2  0  0  0  0  0  0
  -28.2700  -26.7790   19.7890 O   0  0  0  0  0  0  0  0  0  0  0  0
  -24.4510  -31.7850   23.0910 C   0  0  0  0  0  0  0  0  0  0  0  0
  -27.1050  -27.4870   19.8810 C   0  0  0  0  0  0  0  0  0  0  0  0
  -23.2380  -30.4280   21.4080 C   0  0  0  0  0  3  0  0  0  0  0  0
  -24.6960  -28.9340   19.9420 C   0  0  0  0  0  0  0  0  0  0  0  0
  -25.7530  -30.8190   21.2050 C   0  0  0  0  0  2  0  0  0  0  0  0
  -25.8460  -29.4650   20.5390 C   0  0  0  0  0  0  0  0  0  0  0  0
  -27.0560  -28.7440   20.5130 C   0  0  0  0  0  3  0  0  0  0  0  0
  -25.9430  -26.9500   19.2970 C   0  0  0  0  0  3  0  0  0  0  0  0
  -24.7360  -27.6750   19.3160 C   0  0  0  0  0  3  0  0  0  0  0  0
  -23.4390  -29.7720   20.0150 C   0  0  0  0  0  2  0  0  0  0  0  0
  -24.4990  -31.0260   21.9610 N   0  0  0  0  0  0  0  0  0  0  0  0
  -23.3720  -32.0380   23.6420 O   0  0  0  0  0  0  0  0  0  0  0  0
  -22.6010  -29.3770   22.3420 C   0  0  0  0  0  0  0  0  0  0  0  0
  -21.2750  -29.1970   22.2150 N   0  0  0  0  0  0  0  0  0  0  0  0
  -23.2900  -28.7230   23.1300 O   0  0  0  0  0  0  0  0  0  0  0  0
  -20.7810  -29.7780   21.5520 H   0  0  0  0  0  0  0  0  0  0  0  0
  -17.8900  -28.0610   22.7520 C   0  0  0  0  0  0  0  0  0  0  0  0
  -20.4620  -28.2340   22.9530 C   0  0  0  0  0  3  0  0  0  0  0  0
  -20.5070  -26.8400   22.2870 C   0  0  0  0  0  2  0  0  0  0  0  0
  -19.3630  -26.6080   21.2950 C   0  0  0  0  0  2  0  0  0  0  0  0
  -18.0070  -26.7520   21.9920 C   0  0  0  0  0  2  0  0  0  0  0  0
  -19.0430  -28.7650   23.1900 C   0  0  0  0  0  0  0  0  0  0  0  0
  -18.8790  -29.9980   23.8600 C   0  0  0  0  0  3  0  0  0  0  0  0
  -17.5960  -30.5250   24.0910 C   0  0  0  0  0  3  0  0  0  0  0  0
  -16.4570  -29.8140   23.6730 C   0  0  0  0  0  3  0  0  0  0  0  0
  -16.6070  -28.5830   23.0100 C   0  0  0  0  0  3  0  0  0  0  0  0
  -25.7390  -32.3920   23.7300 C   0  0  0  0  0  3  0  0  0  0  0  0
  -26.2480  -31.5910   24.9900 C   0  0  1  0  0  0  0  0  0  0  0  0
  -25.1440  -31.3150   26.0390 C   0  0  0  0  0  1  0  0  0  0  0  0
  -26.8470  -30.2280   24.5660 C   0  0  0  0  0  1  0  0  0  0  0  0
  -27.3850  -32.3770   25.6880 C   0  0  0  0  0  1  0  0  0  0  0  0
  -25.4380  -33.7860   24.0840 N   0  0  0  0  0  0  0  0  0  0  0  0
  -25.7950  -34.8480   23.3500 C   0  0  0  0  0  0  0  0  0  0  0  0
  -26.4860  -34.7580   22.3300 O   0  0  0  0  0  0  0  0  0  0  0  0
  -24.8240  -33.9350   24.8720 H   0  0  0  0  0  0  0  0  0  0  0  0
  -24.1140  -36.6780   22.9660 C   0  0  0  0  0  1  0  0  0  0  0  0
  -25.3110  -36.2320   23.8230 C   0  0  0  0  0  3  0  0  0  0  0  0
  -27.4110  -37.0610   24.7850 C   0  0  0  0  0  1  0  0  0  0  0  0
  -26.3650  -37.2700   23.7860 N   0  0  0  0  0  0  0  0  0  0  0  0
  -25.9680  -38.1940   23.9280 H   0  0  0  0  0  0  0  0  0  0  0  0
  -33.5140  -21.3300   20.0310 C   0  0  0  0  0  2  0  0  0  0  0  0
  -30.7390  -14.5600   20.3030 C   0  0  0  0  0  0  0  0  0  0  0  0
  -30.4160  -12.3460   19.3070 C   0  0  0  0  0  2  0  0  0  0  0  0
  -29.4830  -12.5290   18.0940 C   0  0  0  0  0  2  0  0  0  0  0  0
  -28.0140  -12.3690   18.5330 C   0  0  0  0  0  2  0  0  0  0  0  0
  -27.6630  -13.2250   19.7790 C   0  0  0  0  0  3  0  0  0  0  0  0
  -28.7370  -13.1150   20.8840 C   0  0  0  0  0  2  0  0  0  0  0  0
  -30.0400  -13.3910   20.2690 N   0  0  0  0  0  0  0  0  0  0  0  0
  -31.9590  -14.5780   20.1300 O   0  0  0  0  0  0  0  0  0  0  0  0
  -32.2850  -18.1970   18.1990 C   0  0  0  0  0  3  0  0  0  0  0  0
  -32.9760  -19.3770   18.5310 C   0  0  0  0  0  3  0  0  0  0  0  0
  -31.3460  -17.6490   19.0950 C   0  0  0  0  0  0  0  0  0  0  0  0
  -31.1160  -18.2740   20.3430 C   0  0  0  0  0  0  0  0  0  0  0  0
  -32.7550  -20.0250   19.7670 C   0  0  0  0  0  0  0  0  0  0  0  0
  -31.8250  -19.4610   20.6890 C   0  0  0  0  0  0  0  0  0  0  0  0
  -30.0990  -17.6620   21.3130 C   0  0  0  0  0  2  0  0  0  0  0  0
  -30.5750  -16.3890   18.7070 C   0  0  0  0  0  2  0  0  0  0  0  0
  -29.2370  -16.5140   20.7360 C   0  0  0  0  0  3  0  0  0  0  0  0
  -31.5500  -20.1090   22.0480 C   0  0  0  0  0  1  0  0  0  0  0  0
  -28.0050  -17.0900   20.0000 C   0  0  0  0  0  1  0  0  0  0  0  0
  -30.0370  -15.6390   19.8590 N   0  0  0  0  0  0  0  0  0  0  0  0
  -25.2840  -13.8080   20.5620 C   0  0  0  0  0  0  0  0  0  0  0  0
  -24.2240  -13.0250   20.9300 C   0  0  0  0  0  0  0  0  0  0  0  0
  -24.6890  -11.6800   20.8570 C   0  0  0  0  0  0  0  0  0  0  0  0
  -26.3240  -12.9360   20.2860 N   0  0  0  0  0  0  0  0  0  0  0  0
  -25.9730  -11.6480   20.5240 N   0  0  0  0  0  0  0  0  0  0  0  0
  -23.9680  -10.4140   21.0390 C   0  0  0  0  0  0  0  0  0  0  0  0
  -24.3970   -9.4580   21.9850 C   0  0  0  0  0  3  0  0  0  0  0  0
  -23.6850   -8.2500   22.1510 C   0  0  0  0  0  3  0  0  0  0  0  0
  -22.5300   -7.9950   21.3720 C   0  0  0  0  0  0  0  0  0  0  0  0
  -22.1200   -8.9430   20.4170 C   0  0  0  0  0  3  0  0  0  0  0  0
  -22.8330  -10.1430   20.2490 C   0  0  0  0  0  3  0  0  0  0  0  0
  -21.7860   -6.8440   21.4450 O   0  0  0  0  0  0  0  0  0  0  0  0
  -21.6830   -6.1270   22.6100 C   0  0  0  0  0  0  0  0  0  0  0  0
  -21.1090   -6.6770   23.7770 C   0  0  0  0  0  3  0  0  0  0  0  0
  -20.9610   -5.8810   24.9290 C   0  0  0  0  0  3  0  0  0  0  0  0
  -21.3760   -4.5360   24.9140 C   0  0  0  0  0  0  0  0  0  0  0  0
  -21.9410   -3.9840   23.7510 C   0  0  0  0  0  3  0  0  0  0  0  0
  -22.0920   -4.7780   22.6010 C   0  0  0  0  0  0  0  0  0  0  0  0
  -22.6190   -4.2360   21.4740 F   0  0  0  0  0  0  0  0  0  0  0  0
  -21.2260   -3.7710   26.0190 F   0  0  0  0  0  0  0  0  0  0  0  0
  -22.8340  -13.4990   21.2400 C   0  0  0  0  0  0  0  0  0  0  0  0
  -22.1230  -12.7780   22.0990 N   0  0  0  0  0  0  0  0  0  0  0  0
  -22.3860  -14.5370   20.7580 O   0  0  0  0  0  0  0  0  0  0  0  0
  -22.5030  -11.9400   22.5120 H   0  0  0  0  0  0  0  0  0  0  0  0
  -21.1860  -13.0680   22.3430 H   0  0  0  0  0  0  0  0  0  0  0  0
  -25.4370  -15.1790   20.4250 N   0  0  0  0  0  0  0  0  0  0  0  0
  -24.6770  -15.8330   20.5660 H   0  0  0  0  0  0  0  0  0  0  0  0
  -26.3120  -15.6270   20.1800 H   0  0  0  0  0  0  0  0  0  0  0  0
  1  3  1  0
  1 54  1  0
  2  1  1  0
  4  8  1  0
  6  4  1  0
  6  9  1  0
  7  5  1  0
  8  1  1  0
  8  5  1  0
  9 10  1  1
  9  7  1  0
 11  9  1  0
 11 12  1  0
 12 13  1  0
 13 15  1  0
 14 25  2  0
 15 20  1  0
 16 24  1  0
 16 26  1  0
 17 23  1  0
 17 19  1  0
 18 24  1  0
 19 18  1  0
 20 19  2  0
 21 22  1  0
 21 15  2  0
 22 17  2  0
 23 16  1  0
 24 14  1  0
 26 28  2  0
 27 26  1  0
 29 27  1  0
 30 39  2  0
 30 35  1  0
 31 27  1  0
 31 35  1  0
 32 31  1  0
 33 34  1  0
 33 32  1  0
 34 30  1  0
 35 36  2  0
 36 37  1  0
 38 37  2  0
 39 38  1  0
 40 14  1  0
 40 45  1  0
 40 41  1  0
 41 44  1  1
 41 42  1  0
 43 41  1  0
 45 48  1  0
 46 50  1  0
 46 45  1  0
 47 46  2  0
 50 49  1  0
 52 50  1  0
 52 53  1  0
 52 51  1  0
 56 61  1  0
 57 58  1  0
 57 56  1  0
 59 58  1  0
 59 78  1  0
 59 60  1  0
 61 55  1  0
 61 60  1  0
 62 55  2  0
 63 64  2  0
 63 65  1  0
 64 67  1  0
 65 66  2  0
 66 68  1  0
 66 69  1  0
 67 54  1  0
 67 68  2  0
 68 72  1  0
 70 65  1  0
 70 74  1  0
 71 73  1  0
 71 69  1  0
 74 55  1  0
 74 71  1  0
 75 76  2  0
 76 95  1  0
 77 76  1  0
 77 80  1  0
 78 79  1  0
 78 75  1  0
 79 77  2  0
 80 81  1  0
 81 82  2  0
 83 86  1  0
 83 82  1  0
 84 83  2  0
 85 84  1  0
 85 80  2  0
 86 87  1  0
 87 88  1  0
 88 89  2  0
 90 89  1  0
 90 94  1  0
 91 90  2  0
 92 87  2  0
 92 91  1  0
 93 92  1  0
 95 96  1  0
 96 99  1  0
 96 98  1  0
 97 95  2  0
100 75  1  0
100101  1  0
102100  1  0
M  ISO  4  12 101  13 101  55 100  74 100
M  END
>  <TORSDO>  (4) 
F 20

>  <SCORE>  (4) 
-13.593

>  <name>  (4) 
3

>  <ligand_id>  (4) 
3

>  <original_smiles>  (4) 
[H]c1c([H])c([H])c2c(c1[H])C([H])([H])C([H])([H])C([H])([H])C2([H])N([H])C(=O)C1([H])N(C(=O)C([H])(N([H])C(=O)C([H])(N([H])C([H])([H])[H])C([H])([H])[H])C(C([H])([H])[H])(C([H])([H])[H])C([H])([H])[H])C([H])([H])c2c([H])c(OC([H])([H])C([H])([H])[N+]3([H])C([H])([H])C([H])([H])C([H])([N+]([H])([H])C([H])([H])c4c([H])c([H])c5c(c4C([H])([H])[H])C([H])([H])C([H])(C([H])([H])[H])N(C(=O)N4C([H])([H])C([H])([H])C([H])([H])C([H])(n6nc(-c7c([H])c([H])c(Oc8c([H])c([H])c(F)c([H])c8F)c([H])c7[H])c(C(=O)N([H])[H])c6N([H])[H])C4([H])[H])C5([H])[H])C([H])([H])C3([H])[H])c([H])c([H])c2C1([H])[H]

>  <smiles>  (4) 
[H]c1c([H])c([H])c2c(c1[H])C([H])([H])C([H])([H])C([H])([H])C2([H])N([H])C(=O)C1([H])N(C(=O)C([H])(N([H])C(=O)C([H])(N([H])C([H])([H])[H])C([H])([H])[H])C(C([H])([H])[H])(C([H])([H])[H])C([H])([H])[H])C([H])([H])c2c([H])c(OC([H])([H])C([H])([H])[N+]3([H])C([H])([H])C([H])([H])C([H])([N+]([H])([H])C([H])([H])c4c([H])c([H])c5c(c4C([H])([H])[H])C([H])([H])C([H])(C([H])([H])[H])N(C(=O)N4C([H])([H])C([H])([H])C([H])([H])C([H])(n6nc(-c7c([H])c([H])c(Oc8c([H])c([H])c(F)c([H])c8F)c([H])c7[H])c(C(=O)N([H])[H])c6N([H])[H])C4([H])[H])C5([H])[H])C([H])([H])C3([H])[H])c([H])c([H])c2C1([H])[H]

$$$$
4:0:0
     RDKit          3D

 93102  0  0  1  0  0  0  0  0999 V2000
  -27.9410  -22.6870   19.1240 C   0  0  0  0  0  3  0  0  0  0  0  0
  -29.5840  -23.2220   20.7520 C   0  0  0  0  0  3  0  0  0  0  0  0
  -29.1550  -20.7730   20.2190 C   0  0  0  0  0  0  0  0  0  0  0  0
  -28.6400  -23.7170   19.8150 C   0  0  0  0  0  0  0  0  0  0  0  0
  -28.1750  -21.2790   19.3010 C   0  0  0  0  0  0  0  0  0  0  0  0
  -29.8340  -21.8150   20.9510 C   0  0  0  0  0  0  0  0  0  0  0  0
  -27.3570  -20.3360   18.4370 C   0  0  0  0  0  1  0  0  0  0  0  0
  -30.9070  -21.4550   21.9670 C   0  0  0  0  0  1  0  0  0  0  0  0
  -30.7100  -14.7710   19.9980 C   0  0  0  0  0  0  0  0  0  0  0  0
  -30.3410  -12.5300   18.9550 C   0  0  0  0  0  2  0  0  0  0  0  0
  -29.3410  -12.5960   17.7850 C   0  0  0  0  0  2  0  0  0  0  0  0
  -27.9040  -12.4190   18.3060 C   0  0  0  0  0  2  0  0  0  0  0  0
  -27.6030  -13.3010   19.5490 C   0  0  0  0  0  3  0  0  0  0  0  0
  -28.7320  -13.2290   20.5990 C   0  0  0  0  0  2  0  0  0  0  0  0
  -29.9670  -13.6090   19.9050 N   0  0  0  0  0  0  0  0  0  0  0  0
  -31.9040  -14.6850   19.6900 O   0  0  0  0  0  0  0  0  0  0  0  0
  -28.4790  -18.0760   20.5650 C   0  0  0  0  0  2  0  0  0  0  0  0
  -30.4550  -18.6190   19.2930 C   0  0  0  0  0  2  0  0  0  0  0  0
  -29.0280  -16.6010   20.8620 C   0  0  0  0  0  2  0  0  0  0  0  0
  -31.0540  -17.2000   19.6110 C   0  0  0  0  0  2  0  0  0  0  0  0
  -29.5500  -19.2090   20.3940 C   0  0  0  0  0  3  0  0  0  0  0  0
  -30.1460  -16.0690   20.0190 N   0  0  0  0  0  0  0  0  0  0  0  0
  -25.2690  -13.8750   20.4310 C   0  0  0  0  0  0  0  0  0  0  0  0
  -24.2250  -13.0940   20.8440 C   0  0  0  0  0  0  0  0  0  0  0  0
  -24.6830  -11.7440   20.7610 C   0  0  0  0  0  0  0  0  0  0  0  0
  -26.2960  -13.0000   20.1190 N   0  0  0  0  0  0  0  0  0  0  0  0
  -25.9560  -11.7110   20.3820 N   0  0  0  0  0  0  0  0  0  0  0  0
  -23.9660  -10.4790   20.9650 C   0  0  0  0  0  0  0  0  0  0  0  0
  -24.4250   -9.5070   21.8810 C   0  0  0  0  0  3  0  0  0  0  0  0
  -23.7050   -8.3070   22.0730 C   0  0  0  0  0  3  0  0  0  0  0  0
  -22.5120   -8.0720   21.3490 C   0  0  0  0  0  0  0  0  0  0  0  0
  -22.0720   -9.0310   20.4220 C   0  0  0  0  0  3  0  0  0  0  0  0
  -22.7930  -10.2220   20.2270 C   0  0  0  0  0  3  0  0  0  0  0  0
  -21.7610   -6.9260   21.4530 O   0  0  0  0  0  0  0  0  0  0  0  0
  -21.7140   -6.1990   22.6160 C   0  0  0  0  0  0  0  0  0  0  0  0
  -21.2650   -6.7640   23.8290 C   0  0  0  0  0  3  0  0  0  0  0  0
  -21.1660   -5.9630   24.9840 C   0  0  0  0  0  3  0  0  0  0  0  0
  -21.5050   -4.5980   24.9270 C   0  0  0  0  0  0  0  0  0  0  0  0
  -21.9460   -4.0330   23.7180 C   0  0  0  0  0  3  0  0  0  0  0  0
  -22.0480   -4.8300   22.5650 C   0  0  0  0  0  0  0  0  0  0  0  0
  -22.4520   -4.2760   21.3970 F   0  0  0  0  0  0  0  0  0  0  0  0
  -21.4020   -3.8260   26.0340 F   0  0  0  0  0  0  0  0  0  0  0  0
  -22.8460  -13.5670   21.2000 C   0  0  0  0  0  0  0  0  0  0  0  0
  -22.1670  -12.8580   22.0950 N   0  0  0  0  0  0  0  0  0  0  0  0
  -22.3810  -14.6010   20.7210 O   0  0  0  0  0  0  0  0  0  0  0  0
  -22.5590  -12.0220   22.5040 H   0  0  0  0  0  0  0  0  0  0  0  0
  -21.2440  -13.1550   22.3760 H   0  0  0  0  0  0  0  0  0  0  0  0
  -25.4230  -15.2490   20.2660 N   0  0  0  0  0  0  0  0  0  0  0  0
  -24.6630  -15.8990   20.4310 H   0  0  0  0  0  0  0  0  0  0  0  0
  -26.2490  -15.6920   19.8860 H   0  0  0  0  0  0  0  0  0  0  0  0
  -29.8240  -25.6040   18.5900 C   0  0  0  0  0  1  0  0  0  0  0  0
  -28.5310  -25.2400   19.3280 C   0  0  0  0  0  3  0  0  0  0  0  0
  -28.3230  -26.4070   20.2440 O   0  0  0  0  0  0  0  0  0  0  0  0
  -24.6080  -31.8670   23.2320 C   0  0  0  0  0  0  0  0  0  0  0  0
  -27.2160  -27.2830   20.1490 C   0  0  0  0  0  0  0  0  0  0  0  0
  -23.4070  -30.4740   21.5900 C   0  0  0  0  0  3  0  0  0  0  0  0
  -24.8560  -28.9300   20.1530 C   0  0  0  0  0  0  0  0  0  0  0  0
  -25.9500  -30.7840   21.4090 C   0  0  0  0  0  2  0  0  0  0  0  0
  -26.0280  -29.4060   20.7510 C   0  0  0  0  0  0  0  0  0  0  0  0
  -27.2060  -28.5930   20.7430 C   0  0  0  0  0  3  0  0  0  0  0  0
  -26.0080  -26.8670   19.5430 C   0  0  0  0  0  3  0  0  0  0  0  0
  -24.8510  -27.6680   19.5400 C   0  0  0  0  0  3  0  0  0  0  0  0
  -23.6210  -29.8070   20.2060 C   0  0  0  0  0  2  0  0  0  0  0  0
  -24.6750  -31.0600   22.1320 N   0  0  0  0  0  0  0  0  0  0  0  0
  -23.5240  -32.1420   23.7680 O   0  0  0  0  0  0  0  0  0  0  0  0
  -22.7440  -29.4540   22.5460 C   0  0  0  0  0  0  0  0  0  0  0  0
  -21.4170  -29.2790   22.4220 N   0  0  0  0  0  0  0  0  0  0  0  0
  -23.4230  -28.8240   23.3610 O   0  0  0  0  0  0  0  0  0  0  0  0
  -20.9270  -29.8390   21.7390 H   0  0  0  0  0  0  0  0  0  0  0  0
  -18.0390  -28.0830   22.9310 C   0  0  0  0  0  0  0  0  0  0  0  0
  -20.5990  -28.3380   23.1910 C   0  0  0  0  0  3  0  0  0  0  0  0
  -20.6970  -26.9100   22.6100 C   0  0  0  0  0  2  0  0  0  0  0  0
  -19.5910  -26.5940   21.5970 C   0  0  0  0  0  2  0  0  0  0  0  0
  -18.2120  -26.7370   22.2460 C   0  0  0  0  0  2  0  0  0  0  0  0
  -19.1600  -28.8420   23.3600 C   0  0  0  0  0  0  0  0  0  0  0  0
  -18.9450  -30.1020   23.9600 C   0  0  0  0  0  3  0  0  0  0  0  0
  -17.6410  -30.6030   24.1330 C   0  0  0  0  0  3  0  0  0  0  0  0
  -16.5340  -29.8420   23.7190 C   0  0  0  0  0  3  0  0  0  0  0  0
  -16.7340  -28.5830   23.1240 C   0  0  0  0  0  3  0  0  0  0  0  0
  -25.8900  -32.5010   23.8570 C   0  0  0  0  0  3  0  0  0  0  0  0
  -25.5770  -33.8990   24.1920 N   0  0  0  0  0  0  0  0  0  0  0  0
  -25.8970  -34.9540   23.4320 C   0  0  0  0  0  0  0  0  0  0  0  0
  -26.5550  -34.8560   22.3920 O   0  0  0  0  0  0  0  0  0  0  0  0
  -24.9900  -34.0480   24.9990 H   0  0  0  0  0  0  0  0  0  0  0  0
  -24.1560  -36.7410   23.1050 C   0  0  0  0  0  1  0  0  0  0  0  0
  -25.4100  -36.3410   23.8980 C   0  0  0  0  0  3  0  0  0  0  0  0
  -27.5500  -37.2370   24.7030 C   0  0  0  0  0  1  0  0  0  0  0  0
  -26.4370  -37.3980   23.7720 N   0  0  0  0  0  0  0  0  0  0  0  0
  -26.0280  -38.3160   23.9220 H   0  0  0  0  0  0  0  0  0  0  0  0
  -26.4050  -31.7290   25.1340 C   0  0  1  0  0  0  0  0  0  0  0  0
  -25.3120  -31.4880   26.1990 C   0  0  0  0  0  1  0  0  0  0  0  0
  -26.9920  -30.3520   24.7420 C   0  0  0  0  0  1  0  0  0  0  0  0
  -27.5540  -32.5240   25.7980 C   0  0  0  0  0  1  0  0  0  0  0  0
  1  5  2  0
  1  4  1  0
  2  6  1  0
  3  6  2  0
  4  2  2  0
  5  3  1  0
  6  8  1  0
  7  5  1  0
  9 22  1  0
 10 15  1  0
 11 12  1  0
 11 10  1  0
 13 12  1  0
 13 26  1  0
 13 14  1  0
 15  9  1  0
 15 14  1  0
 16  9  2  0
 17 19  1  0
 18 20  1  0
 18 21  1  0
 20 22  1  0
 21  3  1  0
 21 17  1  0
 22 19  1  0
 23 24  2  0
 24 43  1  0
 25 24  1  0
 25 28  1  0
 26 27  1  0
 26 23  1  0
 27 25  2  0
 28 29  1  0
 29 30  2  0
 31 34  1  0
 31 30  1  0
 32 31  2  0
 33 32  1  0
 33 28  2  0
 34 35  1  0
 35 36  1  0
 36 37  2  0
 38 37  1  0
 38 42  1  0
 39 38  2  0
 40 35  2  0
 40 39  1  0
 41 40  1  0
 43 44  1  0
 44 47  1  0
 44 46  1  0
 45 43  2  0
 48 49  1  0
 48 23  1  0
 50 48  1  0
 52 51  1  0
 52  4  1  0
 52 53  1  0
 54 65  2  0
 55 53  1  0
 55 60  1  0
 56 64  1  0
 56 66  1  0
 57 63  1  0
 57 59  1  0
 58 64  1  0
 59 58  1  0
 60 59  2  0
 61 55  2  0
 62 61  1  0
 62 57  2  0
 63 56  1  0
 64 54  1  0
 66 68  2  0
 67 66  1  0
 69 67  1  0
 70 79  2  0
 70 75  1  0
 71 67  1  0
 71 75  1  0
 72 71  1  0
 73 74  1  0
 73 72  1  0
 74 70  1  0
 75 76  2  0
 76 77  1  0
 78 77  2  0
 79 78  1  0
 80 54  1  0
 80 81  1  0
 80 90  1  0
 81 84  1  0
 82 86  1  0
 82 81  1  0
 83 82  2  0
 86 85  1  0
 88 86  1  0
 88 89  1  0
 88 87  1  0
 90 93  1  1
 90 91  1  0
 92 90  1  0
M  ISO  4   9 100  22 100  52 101  53 101
M  END
>  <TORSDO>  (5) 
F 17

>  <SCORE>  (5) 
-15.422

>  <name>  (5) 
4

>  <ligand_id>  (5) 
4

>  <original_smiles>  (5) 
[H]c1c([H])c([H])c2c(c1[H])C([H])([H])C([H])([H])C([H])([H])C2([H])N([H])C(=O)C1([H])N(C(=O)C([H])(N([H])C(=O)C([H])(N([H])C([H])([H])[H])C([H])([H])[H])C(C([H])([H])[H])(C([H])([H])[H])C([H])([H])[H])C([H])([H])c2c([H])c(OC([H])(c3c([H])c(C([H])([H])[H])c(C4([H])C([H])([H])C([H])([H])N(C(=O)N5C([H])([H])C([H])([H])C([H])([H])C([H])(n6nc(-c7c([H])c([H])c(Oc8c([H])c([H])c(F)c([H])c8F)c([H])c7[H])c(C(=O)N([H])[H])c6N([H])[H])C5([H])[H])C([H])([H])C4([H])[H])c(C([H])([H])[H])c3[H])C([H])([H])[H])c([H])c([H])c2C1([H])[H]

>  <smiles>  (5) 
[H]c1c([H])c([H])c2c(c1[H])C([H])([H])C([H])([H])C([H])([H])C2([H])N([H])C(=O)C1([H])N(C(=O)C([H])(N([H])C(=O)C([H])(N([H])C([H])([H])[H])C([H])([H])[H])C(C([H])([H])[H])(C([H])([H])[H])C([H])([H])[H])C([H])([H])c2c([H])c(OC([H])(c3c([H])c(C([H])([H])[H])c(C4([H])C([H])([H])C([H])([H])N(C(=O)N5C([H])([H])C([H])([H])C([H])([H])C([H])(n6nc(-c7c([H])c([H])c(Oc8c([H])c([H])c(F)c([H])c8F)c([H])c7[H])c(C(=O)N([H])[H])c6N([H])[H])C5([H])[H])C([H])([H])C4([H])[H])c(C([H])([H])[H])c3[H])C([H])([H])[H])c([H])c([H])c2C1([H])[H]

$$$$
5:0:0
     RDKit          3D

 95105  0  0  1  0  0  0  0  0999 V2000
  -30.7120  -21.1500   20.7740 C   0  0  0  0  0  3  0  0  0  0  0  0
  -30.3380  -23.5980   20.5050 C   0  0  0  0  0  0  0  0  0  0  0  0
  -31.1310  -22.4910   20.9300 C   0  0  0  0  0  0  0  0  0  0  0  0
  -29.0070  -23.3820   20.0470 C   0  0  0  0  0  0  0  0  0  0  0  0
  -29.4750  -20.7820   20.2090 C   0  0  0  0  0  0  0  0  0  0  0  0
  -28.6210  -21.9510   19.8840 C   0  0  0  0  0  0  0  0  0  0  0  0
  -32.4910  -22.6960   21.5860 C   0  0  0  0  0  1  0  0  0  0  0  0
  -27.0470  -21.6230   19.2500 Cl  0  0  0  0  0  0  0  0  0  0  0  0
  -30.5300  -14.8640   19.9240 C   0  0  0  0  0  0  0  0  0  0  0  0
  -30.2760  -12.5430   18.9600 C   0  0  0  0  0  2  0  0  0  0  0  0
  -29.2650  -12.5390   17.7920 C   0  0  0  0  0  2  0  0  0  0  0  0
  -27.8350  -12.3370   18.3240 C   0  0  0  0  0  2  0  0  0  0  0  0
  -27.5180  -13.2440   19.5420 C   0  0  0  0  0  3  0  0  0  0  0  0
  -28.6510  -13.2420   20.5920 C   0  0  0  0  0  2  0  0  0  0  0  0
  -29.8770  -13.6370   19.8910 N   0  0  0  0  0  0  0  0  0  0  0  0
  -31.7080  -14.8690   19.5450 O   0  0  0  0  0  0  0  0  0  0  0  0
  -30.1420  -18.6340   19.0640 C   0  0  0  0  0  2  0  0  0  0  0  0
  -29.3100  -18.4200   21.2160 C   0  0  0  0  0  2  0  0  0  0  0  0
  -29.8920  -17.0790   18.7730 C   0  0  0  0  0  2  0  0  0  0  0  0
  -29.1240  -16.8170   21.0310 C   0  0  0  0  0  2  0  0  0  0  0  0
  -29.2320  -19.3210   20.0220 N   0  0  0  0  0  0  0  0  0  0  0  0
  -29.8160  -16.0980   19.9080 N   0  0  0  0  0  0  0  0  0  0  0  0
  -25.2070  -13.8090   20.4790 C   0  0  0  0  0  0  0  0  0  0  0  0
  -24.1650  -13.0280   20.8960 C   0  0  0  0  0  0  0  0  0  0  0  0
  -24.6130  -11.6770   20.7800 C   0  0  0  0  0  0  0  0  0  0  0  0
  -26.2200  -12.9340   20.1290 N   0  0  0  0  0  0  0  0  0  0  0  0
  -25.8780  -11.6440   20.3760 N   0  0  0  0  0  0  0  0  0  0  0  0
  -23.8890  -10.4130   20.9740 C   0  0  0  0  0  0  0  0  0  0  0  0
  -24.3340   -9.4380   21.8940 C   0  0  0  0  0  3  0  0  0  0  0  0
  -23.6080   -8.2420   22.0780 C   0  0  0  0  0  3  0  0  0  0  0  0
  -22.4220   -8.0100   21.3410 C   0  0  0  0  0  0  0  0  0  0  0  0
  -21.9960   -8.9730   20.4080 C   0  0  0  0  0  3  0  0  0  0  0  0
  -22.7240  -10.1610   20.2230 C   0  0  0  0  0  3  0  0  0  0  0  0
  -21.6670   -6.8660   21.4340 O   0  0  0  0  0  0  0  0  0  0  0  0
  -21.5760   -6.1580   22.6050 C   0  0  0  0  0  0  0  0  0  0  0  0
  -21.0660   -6.7360   23.7880 C   0  0  0  0  0  3  0  0  0  0  0  0
  -20.9240   -5.9530   24.9510 C   0  0  0  0  0  3  0  0  0  0  0  0
  -21.2830   -4.5910   24.9310 C   0  0  0  0  0  0  0  0  0  0  0  0
  -21.7860   -4.0120   23.7510 C   0  0  0  0  0  3  0  0  0  0  0  0
  -21.9280   -4.7940   22.5920 C   0  0  0  0  0  0  0  0  0  0  0  0
  -22.3940   -4.2250   21.4530 F   0  0  0  0  0  0  0  0  0  0  0  0
  -21.1400   -3.8350   26.0450 F   0  0  0  0  0  0  0  0  0  0  0  0
  -22.7970  -13.5050   21.2850 C   0  0  0  0  0  0  0  0  0  0  0  0
  -22.1270  -12.7820   22.1760 N   0  0  0  0  0  0  0  0  0  0  0  0
  -22.3320  -14.5510   20.8350 O   0  0  0  0  0  0  0  0  0  0  0  0
  -22.5170  -11.9350   22.5600 H   0  0  0  0  0  0  0  0  0  0  0  0
  -21.2110  -13.0820   22.4800 H   0  0  0  0  0  0  0  0  0  0  0  0
  -25.3710  -15.1850   20.3410 N   0  0  0  0  0  0  0  0  0  0  0  0
  -24.6200  -15.8410   20.5320 H   0  0  0  0  0  0  0  0  0  0  0  0
  -26.1970  -15.6280   19.9610 H   0  0  0  0  0  0  0  0  0  0  0  0
  -31.0980  -25.8020   19.2630 C   0  0  0  0  0  2  0  0  0  0  0  0
  -32.3060  -25.3030   19.9990 C   0  0  0  0  0  2  0  0  0  0  0  0
  -30.9180  -24.9940   20.5380 C   0  0  0  0  0  3  0  0  0  0  0  0
  -28.0280  -24.6650   19.7140 C   0  0  0  0  0  2  0  0  0  0  0  0
  -28.2730  -26.1540   20.0760 O   0  0  0  0  0  0  0  0  0  0  0  0
  -24.5890  -31.7120   23.1680 C   0  0  0  0  0  0  0  0  0  0  0  0
  -27.2160  -27.1280   20.0100 C   0  0  0  0  0  0  0  0  0  0  0  0
  -23.4130  -30.3700   21.4660 C   0  0  0  0  0  3  0  0  0  0  0  0
  -24.8820  -28.8530   20.0070 C   0  0  0  0  0  0  0  0  0  0  0  0
  -25.9670  -30.6520   21.3430 C   0  0  0  0  0  2  0  0  0  0  0  0
  -26.0520  -29.2850   20.6450 C   0  0  0  0  0  0  0  0  0  0  0  0
  -27.2200  -28.4380   20.6330 C   0  0  0  0  0  3  0  0  0  0  0  0
  -26.0220  -26.7960   19.3320 C   0  0  0  0  0  3  0  0  0  0  0  0
  -24.8790  -27.6230   19.3360 C   0  0  0  0  0  3  0  0  0  0  0  0
  -23.6520  -29.7430   20.0690 C   0  0  0  0  0  2  0  0  0  0  0  0
  -24.6750  -30.9300   22.0480 N   0  0  0  0  0  0  0  0  0  0  0  0
  -23.4950  -31.9760   23.6910 O   0  0  0  0  0  0  0  0  0  0  0  0
  -22.7260  -29.3290   22.3850 C   0  0  0  0  0  0  0  0  0  0  0  0
  -21.3990  -29.1590   22.2340 N   0  0  0  0  0  0  0  0  0  0  0  0
  -23.3870  -28.6760   23.1960 O   0  0  0  0  0  0  0  0  0  0  0  0
  -20.9230  -29.7370   21.5560 H   0  0  0  0  0  0  0  0  0  0  0  0
  -18.0100  -27.9580   22.6670 C   0  0  0  0  0  0  0  0  0  0  0  0
  -20.5680  -28.1970   22.9610 C   0  0  0  0  0  3  0  0  0  0  0  0
  -20.6670  -26.7870   22.3310 C   0  0  0  0  0  2  0  0  0  0  0  0
  -19.5700  -26.5110   21.2980 C   0  0  0  0  0  2  0  0  0  0  0  0
  -18.1850  -26.6360   21.9380 C   0  0  0  0  0  2  0  0  0  0  0  0
  -19.1290  -28.6980   23.1330 C   0  0  0  0  0  0  0  0  0  0  0  0
  -18.9110  -29.9360   23.7760 C   0  0  0  0  0  3  0  0  0  0  0  0
  -17.6070  -30.4340   23.9560 C   0  0  0  0  0  3  0  0  0  0  0  0
  -16.5020  -29.6920   23.5050 C   0  0  0  0  0  3  0  0  0  0  0  0
  -16.7050  -28.4550   22.8660 C   0  0  0  0  0  3  0  0  0  0  0  0
  -25.8580  -32.3270   23.8330 C   0  0  0  0  0  3  0  0  0  0  0  0
  -25.5480  -33.7230   24.1800 N   0  0  0  0  0  0  0  0  0  0  0  0
  -25.8720  -34.7860   23.4310 C   0  0  0  0  0  0  0  0  0  0  0  0
  -26.5310  -34.6940   22.3910 O   0  0  0  0  0  0  0  0  0  0  0  0
  -24.9620  -33.8680   24.9880 H   0  0  0  0  0  0  0  0  0  0  0  0
  -24.1240  -36.5740   23.1430 C   0  0  0  0  0  1  0  0  0  0  0  0
  -25.3920  -36.1700   23.9120 C   0  0  0  0  0  3  0  0  0  0  0  0
  -27.5410  -37.0730   24.6890 C   0  0  0  0  0  1  0  0  0  0  0  0
  -26.4160  -37.2300   23.7710 N   0  0  0  0  0  0  0  0  0  0  0  0
  -26.0060  -38.1470   23.9250 H   0  0  0  0  0  0  0  0  0  0  0  0
  -26.3330  -31.5340   25.1140 C   0  0  1  0  0  0  0  0  0  0  0  0
  -25.2090  -31.2890   26.1470 C   0  0  0  0  0  1  0  0  0  0  0  0
  -26.9180  -30.1580   24.7230 C   0  0  0  0  0  1  0  0  0  0  0  0
  -27.4690  -32.3120   25.8180 C   0  0  0  0  0  1  0  0  0  0  0  0
  1  3  1  0
  2 53  1  0
  2  3  2  0
  3  7  1  0
  4  2  1  0
  5  1  2  0
  6  4  2  0
  6  5  1  0
  8  6  1  0
 10 15  1  0
 11 12  1  0
 11 10  1  0
 13 12  1  0
 13 26  1  0
 13 14  1  0
 15  9  1  0
 15 14  1  0
 16  9  2  0
 17 21  1  0
 19 17  1  0
 19 22  1  0
 20 18  1  0
 21  5  1  0
 21 18  1  0
 22  9  1  0
 22 20  1  0
 23 24  2  0
 24 43  1  0
 25 24  1  0
 25 28  1  0
 26 27  1  0
 26 23  1  0
 27 25  2  0
 28 29  1  0
 29 30  2  0
 31 34  1  0
 31 30  1  0
 32 31  2  0
 33 32  1  0
 33 28  2  0
 34 35  1  0
 35 36  1  0
 36 37  2  0
 38 37  1  0
 38 42  1  0
 39 38  2  0
 40 35  2  0
 40 39  1  0
 41 40  1  0
 43 44  1  0
 44 47  1  0
 44 46  1  0
 45 43  2  0
 48 23  1  0
 48 49  1  0
 50 48  1  0
 51 52  1  0
 51 53  1  0
 52 53  1  0
 54  4  1  0
 54 55  1  0
 56 67  2  0
 57 55  1  0
 57 62  1  0
 58 66  1  0
 58 68  1  0
 59 65  1  0
 59 61  1  0
 60 66  1  0
 61 60  1  0
 62 61  2  0
 63 64  1  0
 63 57  2  0
 64 59  2  0
 65 58  1  0
 66 56  1  0
 68 70  2  0
 69 68  1  0
 71 69  1  0
 72 81  2  0
 72 77  1  0
 73 69  1  0
 73 77  1  0
 74 73  1  0
 75 76  1  0
 75 74  1  0
 76 72  1  0
 77 78  2  0
 78 79  1  0
 80 79  2  0
 81 80  1  0
 82 56  1  0
 82 83  1  0
 82 92  1  0
 83 86  1  0
 84 88  1  0
 84 83  1  0
 85 84  2  0
 88 87  1  0
 90 88  1  0
 90 91  1  0
 90 89  1  0
 92 95  1  1
 92 93  1  0
 94 92  1  0
M  ISO  4   9 100  22 100  54 101  55 101
M  END
>  <TORSDO>  (6) 
F 18

>  <SCORE>  (6) 
-13.317

>  <name>  (6) 
5

>  <ligand_id>  (6) 
5

>  <original_smiles>  (6) 
[H]c1c([H])c([H])c2c(c1[H])C([H])([H])C([H])([H])C([H])([H])C2([H])N([H])C(=O)C1([H])N(C(=O)C([H])(N([H])C(=O)C([H])(N([H])C([H])([H])[H])C([H])([H])[H])C(C([H])([H])[H])(C([H])([H])[H])C([H])([H])[H])C([H])([H])c2c([H])c(OC([H])([H])c3c(Cl)c(N4C([H])([H])C([H])([H])N(C(=O)N5C([H])([H])C([H])([H])C([H])([H])C([H])(n6nc(-c7c([H])c([H])c(Oc8c([H])c([H])c(F)c([H])c8F)c([H])c7[H])c(C(=O)N([H])[H])c6N([H])[H])C5([H])[H])C([H])([H])C4([H])[H])c([H])c(C([H])([H])[H])c3C3([H])C([H])([H])C3([H])[H])c([H])c([H])c2C1([H])[H]

>  <smiles>  (6) 
[H]c1c([H])c([H])c2c(c1[H])C([H])([H])C([H])([H])C([H])([H])C2([H])N([H])C(=O)C1([H])N(C(=O)C([H])(N([H])C(=O)C([H])(N([H])C([H])([H])[H])C([H])([H])[H])C(C([H])([H])[H])(C([H])([H])[H])C([H])([H])[H])C([H])([H])c2c([H])c(OC([H])([H])c3c(Cl)c(N4C([H])([H])C([H])([H])N(C(=O)N5C([H])([H])C([H])([H])C([H])([H])C([H])(n6nc(-c7c([H])c([H])c(Oc8c([H])c([H])c(F)c([H])c8F)c([H])c7[H])c(C(=O)N([H])[H])c6N([H])[H])C5([H])[H])C([H])([H])C4([H])[H])c([H])c(C([H])([H])[H])c3C3([H])C([H])([H])C3([H])[H])c([H])c([H])c2C1([H])[H]

$$$$
6:0:0
     RDKit          3D

 95105  0  0  1  0  0  0  0  0999 V2000
  -28.8730  -21.2940   20.4970 C   0  0  0  0  0  3  0  0  0  0  0  0
  -30.6810  -20.4300   21.8520 C   0  0  0  0  0  3  0  0  0  0  0  0
  -28.9820  -22.5720   21.1560 C   0  0  0  0  0  0  0  0  0  0  0  0
  -29.9070  -22.7000   22.1910 C   0  0  0  0  0  0  0  0  0  0  0  0
  -30.7820  -21.6600   22.5360 C   0  0  0  0  0  0  0  0  0  0  0  0
  -29.7160  -20.1620   20.8400 C   0  0  0  0  0  0  0  0  0  0  0  0
  -29.7640  -24.0070   22.9250 C   0  0  0  0  0  2  0  0  0  0  0  0
  -28.3850  -24.5030   22.4670 C   0  0  0  0  0  2  0  0  0  0  0  0
  -28.1160  -23.8830   21.0610 C   0  0  2  0  0  0  0  0  0  0  0  0
  -31.8070  -21.8410   23.6430 C   0  0  0  0  0  1  0  0  0  0  0  0
  -26.6250  -23.5520   20.8910 C   0  0  0  0  0  1  0  0  0  0  0  0
  -30.7150  -17.8150   20.5780 C   0  0  0  0  0  2  0  0  0  0  0  0
  -28.6700  -17.8430   20.3870 C   0  0  0  0  0  2  0  0  0  0  0  0
  -29.7460  -16.8050   19.9260 C   0  0  0  0  0  3  0  0  0  0  0  0
  -29.7270  -18.8480   20.1900 N   0  0  0  0  0  0  0  0  0  0  0  0
  -30.4130  -14.3320   20.0340 C   0  0  0  0  0  0  0  0  0  0  0  0
  -30.0780  -12.1610   18.8820 C   0  0  0  0  0  2  0  0  0  0  0  0
  -29.0350  -12.3790   17.7630 C   0  0  0  0  0  2  0  0  0  0  0  0
  -27.6050  -12.1960   18.3100 C   0  0  0  0  0  2  0  0  0  0  0  0
  -27.3660  -12.9820   19.6270 C   0  0  0  0  0  3  0  0  0  0  0  0
  -28.5180  -12.7620   20.6360 C   0  0  0  0  0  2  0  0  0  0  0  0
  -29.7760  -13.1210   19.9650 N   0  0  0  0  0  0  0  0  0  0  0  0
  -31.5210  -14.5020   19.5140 O   0  0  0  0  0  0  0  0  0  0  0  0
  -29.6740  -15.4000   20.4640 N   0  0  0  0  0  0  0  0  0  0  0  0
  -28.8130  -15.1580   20.9330 H   0  0  0  0  0  0  0  0  0  0  0  0
  -25.0260  -13.5310   20.5360 C   0  0  0  0  0  0  0  0  0  0  0  0
  -24.0050  -12.7360   20.9790 C   0  0  0  0  0  0  0  0  0  0  0  0
  -24.4850  -11.3920   20.8960 C   0  0  0  0  0  0  0  0  0  0  0  0
  -26.0640  -12.6710   20.2110 N   0  0  0  0  0  0  0  0  0  0  0  0
  -25.7470  -11.3780   20.4860 N   0  0  0  0  0  0  0  0  0  0  0  0
  -23.7950  -10.1160   21.1280 C   0  0  0  0  0  0  0  0  0  0  0  0
  -24.2600   -9.1870   22.0850 C   0  0  0  0  0  3  0  0  0  0  0  0
  -23.5680   -7.9760   22.3030 C   0  0  0  0  0  3  0  0  0  0  0  0
  -22.3970   -7.6850   21.5630 C   0  0  0  0  0  0  0  0  0  0  0  0
  -21.9510   -8.6030   20.5960 C   0  0  0  0  0  3  0  0  0  0  0  0
  -22.6450   -9.8050   20.3770 C   0  0  0  0  0  3  0  0  0  0  0  0
  -21.6750   -6.5230   21.6880 O   0  0  0  0  0  0  0  0  0  0  0  0
  -21.6090   -5.8410   22.8770 C   0  0  0  0  0  0  0  0  0  0  0  0
  -21.0750   -6.4290   24.0440 C   0  0  0  0  0  3  0  0  0  0  0  0
  -20.9620   -5.6690   25.2260 C   0  0  0  0  0  3  0  0  0  0  0  0
  -21.3740   -4.3240   25.2420 C   0  0  0  0  0  0  0  0  0  0  0  0
  -21.9030   -3.7350   24.0790 C   0  0  0  0  0  3  0  0  0  0  0  0
  -22.0170   -4.4920   22.8990 C   0  0  0  0  0  0  0  0  0  0  0  0
  -22.5070   -3.9140   21.7760 F   0  0  0  0  0  0  0  0  0  0  0  0
  -21.2590   -3.5920   26.3740 F   0  0  0  0  0  0  0  0  0  0  0  0
  -22.6270  -13.1870   21.3670 C   0  0  0  0  0  0  0  0  0  0  0  0
  -21.9770  -12.4640   22.2730 N   0  0  0  0  0  0  0  0  0  0  0  0
  -22.1360  -14.2160   20.9030 O   0  0  0  0  0  0  0  0  0  0  0  0
  -22.3860  -11.6310   22.6680 H   0  0  0  0  0  0  0  0  0  0  0  0
  -21.0570  -12.7500   22.5780 H   0  0  0  0  0  0  0  0  0  0  0  0
  -25.1530  -14.9060   20.3600 N   0  0  0  0  0  0  0  0  0  0  0  0
  -24.3800  -15.5410   20.5270 H   0  0  0  0  0  0  0  0  0  0  0  0
  -25.9540  -15.3610   19.9400 H   0  0  0  0  0  0  0  0  0  0  0  0
  -28.5570  -24.9550   19.9710 C   0  0  0  0  0  2  0  0  0  0  0  0
  -28.4270  -26.3830   20.2990 O   0  0  0  0  0  0  0  0  0  0  0  0
  -24.5490  -31.6830   23.1430 C   0  0  0  0  0  0  0  0  0  0  0  0
  -27.2460  -27.1210   20.2120 C   0  0  0  0  0  0  0  0  0  0  0  0
  -23.3850  -30.2840   21.4670 C   0  0  0  0  0  3  0  0  0  0  0  0
  -24.8710  -28.6990   20.1120 C   0  0  0  0  0  0  0  0  0  0  0  0
  -25.9240  -30.5900   21.3640 C   0  0  0  0  0  2  0  0  0  0  0  0
  -26.0150  -29.2050   20.7390 C   0  0  0  0  0  0  0  0  0  0  0  0
  -27.2000  -28.4250   20.7830 C   0  0  0  0  0  3  0  0  0  0  0  0
  -26.0820  -26.6450   19.5700 C   0  0  0  0  0  3  0  0  0  0  0  0
  -24.9020  -27.4210   19.5240 C   0  0  0  0  0  3  0  0  0  0  0  0
  -23.6400  -29.5830   20.1040 C   0  0  0  0  0  2  0  0  0  0  0  0
  -24.6350  -30.8700   22.0490 N   0  0  0  0  0  0  0  0  0  0  0  0
  -23.4510  -31.9750   23.6410 O   0  0  0  0  0  0  0  0  0  0  0  0
  -22.6820  -29.2870   22.4140 C   0  0  0  0  0  0  0  0  0  0  0  0
  -21.3550  -29.1460   22.2600 N   0  0  0  0  0  0  0  0  0  0  0  0
  -23.3300  -28.6400   23.2410 O   0  0  0  0  0  0  0  0  0  0  0  0
  -20.8940  -29.7160   21.5660 H   0  0  0  0  0  0  0  0  0  0  0  0
  -17.9340  -28.0900   22.7370 C   0  0  0  0  0  0  0  0  0  0  0  0
  -20.4990  -28.2280   23.0130 C   0  0  0  0  0  3  0  0  0  0  0  0
  -20.5390  -26.8080   22.4030 C   0  0  0  0  0  2  0  0  0  0  0  0
  -19.4240  -26.5580   21.3820 C   0  0  0  0  0  2  0  0  0  0  0  0
  -18.0490  -26.7510   22.0270 C   0  0  0  0  0  2  0  0  0  0  0  0
  -19.0840  -28.7900   23.1850 C   0  0  0  0  0  0  0  0  0  0  0  0
  -18.9240  -30.0480   23.8050 C   0  0  0  0  0  3  0  0  0  0  0  0
  -17.6440  -30.6030   23.9830 C   0  0  0  0  0  3  0  0  0  0  0  0
  -16.5060  -29.8990   23.5520 C   0  0  0  0  0  3  0  0  0  0  0  0
  -16.6520  -28.6440   22.9340 C   0  0  0  0  0  3  0  0  0  0  0  0
  -25.8180  -32.3040   23.8070 C   0  0  0  0  0  3  0  0  0  0  0  0
  -25.5050  -33.6970   24.1500 N   0  0  0  0  0  0  0  0  0  0  0  0
  -25.8330  -34.7590   23.4030 C   0  0  0  0  0  0  0  0  0  0  0  0
  -26.5040  -34.6670   22.3700 O   0  0  0  0  0  0  0  0  0  0  0  0
  -24.9150  -33.8420   24.9570 H   0  0  0  0  0  0  0  0  0  0  0  0
  -24.0880  -36.5420   23.0760 C   0  0  0  0  0  1  0  0  0  0  0  0
  -25.3390  -36.1400   23.8730 C   0  0  0  0  0  3  0  0  0  0  0  0
  -27.4650  -37.0480   24.7040 C   0  0  0  0  0  1  0  0  0  0  0  0
  -26.3630  -37.2020   23.7590 N   0  0  0  0  0  0  0  0  0  0  0  0
  -25.9470  -38.1190   23.9010 H   0  0  0  0  0  0  0  0  0  0  0  0
  -26.3020  -31.5130   25.0830 C   0  0  1  0  0  0  0  0  0  0  0  0
  -25.1830  -31.2570   26.1190 C   0  0  0  0  0  1  0  0  0  0  0  0
  -26.9010  -30.1430   24.6850 C   0  0  0  0  0  1  0  0  0  0  0  0
  -27.4290  -32.2980   25.7940 C   0  0  0  0  0  1  0  0  0  0  0  0
  1  6  2  0
  1  3  1  0
  2  5  2  0
  3  4  2  0
  4  5  1  0
  4  7  1  0
  5 10  1  0
  6  2  1  0
  8  7  1  0
  9 11  1  1
  9  3  1  0
  9  8  1  0
 14 13  1  0
 14 24  1  0
 14 12  1  0
 15 13  1  0
 15 12  1  0
 15  6  1  0
 16 24  1  0
 17 22  1  0
 18 19  1  0
 18 17  1  0
 20 19  1  0
 20 29  1  0
 20 21  1  0
 22 16  1  0
 22 21  1  0
 23 16  2  0
 24 25  1  0
 26 27  2  0
 27 46  1  0
 28 27  1  0
 28 31  1  0
 29 30  1  0
 29 26  1  0
 30 28  2  0
 31 32  1  0
 32 33  2  0
 34 37  1  0
 34 33  1  0
 35 34  2  0
 36 35  1  0
 36 31  2  0
 37 38  1  0
 38 43  2  0
 38 39  1  0
 39 40  2  0
 40 41  1  0
 41 45  1  0
 42 41  2  0
 43 42  1  0
 44 43  1  0
 46 47  1  0
 47 50  1  0
 47 49  1  0
 48 46  2  0
 51 52  1  0
 51 26  1  0
 53 51  1  0
 54 55  1  0
 54  9  1  0
 56 67  2  0
 57 55  1  0
 57 62  1  0
 58 66  1  0
 58 68  1  0
 59 61  1  0
 60 66  1  0
 61 62  2  0
 61 60  1  0
 63 57  2  0
 64 63  1  0
 64 59  2  0
 65 59  1  0
 65 58  1  0
 66 56  1  0
 68 70  2  0
 69 68  1  0
 71 69  1  0
 72 81  2  0
 72 77  1  0
 73 69  1  0
 73 77  1  0
 74 73  1  0
 75 76  1  0
 75 74  1  0
 76 72  1  0
 77 78  2  0
 78 79  1  0
 80 79  2  0
 81 80  1  0
 82 56  1  0
 82 83  1  0
 82 92  1  0
 83 86  1  0
 84 88  1  0
 84 83  1  0
 85 84  2  0
 88 87  1  0
 90 88  1  0
 90 91  1  0
 90 89  1  0
 92 95  1  1
 92 93  1  0
 94 92  1  0
M  ISO  4  16 100  24 100  54 101  55 101
M  END
>  <TORSDO>  (7) 
F 18

>  <SCORE>  (7) 
-14.033

>  <name>  (7) 
6

>  <ligand_id>  (7) 
6

>  <original_smiles>  (7) 
[H]c1c([H])c([H])c2c(c1[H])C([H])([H])C([H])([H])C([H])([H])C2([H])N([H])C(=O)C1([H])N(C(=O)C([H])(N([H])C(=O)C([H])(N([H])C([H])([H])[H])C([H])([H])[H])C(C([H])([H])[H])(C([H])([H])[H])C([H])([H])[H])C([H])([H])c2c([H])c(OC([H])([H])C3(C([H])([H])[H])c4c([H])c(N5C([H])([H])C([H])(N([H])C(=O)N6C([H])([H])C([H])([H])C([H])([H])C([H])(n7nc(-c8c([H])c([H])c(Oc9c([H])c([H])c(F)c([H])c9F)c([H])c8[H])c(C(=O)N([H])[H])c7N([H])[H])C6([H])[H])C5([H])[H])c([H])c(C([H])([H])[H])c4C([H])([H])C3([H])[H])c([H])c([H])c2C1([H])[H]

>  <smiles>  (7) 
[H]c1c([H])c([H])c2c(c1[H])C([H])([H])C([H])([H])C([H])([H])C2([H])N([H])C(=O)C1([H])N(C(=O)C([H])(N([H])C(=O)C([H])(N([H])C([H])([H])[H])C([H])([H])[H])C(C([H])([H])[H])(C([H])([H])[H])C([H])([H])[H])C([H])([H])c2c([H])c(OC([H])([H])C3(C([H])([H])[H])c4c([H])c(N5C([H])([H])C([H])(N([H])C(=O)N6C([H])([H])C([H])([H])C([H])([H])C([H])(n7nc(-c8c([H])c([H])c(Oc9c([H])c([H])c(F)c([H])c9F)c([H])c8[H])c(C(=O)N([H])[H])c7N([H])[H])C6([H])[H])C5([H])[H])c([H])c(C([H])([H])[H])c4C([H])([H])C3([H])[H])c([H])c([H])c2C1([H])[H]

$$$$
7:0:0
     RDKit          3D

 97106  0  0  1  0  0  0  0  0999 V2000
  -26.6220  -22.1460   20.9820 C   0  0  0  0  0  3  0  0  0  0  0  0
  -27.4860  -21.0970   20.6180 C   0  0  0  0  0  3  0  0  0  0  0  0
  -27.0260  -23.4970   20.9870 C   0  0  0  0  0  0  0  0  0  0  0  0
  -28.3100  -23.8810   20.5030 C   0  0  0  0  0  0  0  0  0  0  0  0
  -29.1570  -22.7630   20.0410 C   0  0  0  0  0  0  0  0  0  0  0  0
  -28.7930  -21.3390   20.1610 C   0  0  0  0  0  0  0  0  0  0  0  0
  -26.0320  -24.4850   21.5780 C   0  0  0  0  0  1  0  0  0  0  0  0
  -30.4690  -23.1230   19.3710 C   0  0  0  0  0  1  0  0  0  0  0  0
  -29.6970  -18.9090   20.6490 C   0  0  0  0  0  2  0  0  0  0  0  0
  -29.1850  -19.5370   18.5520 C   0  0  0  0  0  2  0  0  0  0  0  0
  -30.3730  -17.7080   19.8180 C   0  0  0  0  0  3  0  0  0  0  0  0
  -29.9350  -18.1680   18.3990 C   0  0  0  0  0  3  0  0  0  0  0  0
  -29.6000  -20.1650   19.8090 N   0  0  0  0  0  0  0  0  0  0  0  0
  -30.8290  -15.0870   20.0120 C   0  0  0  0  0  0  0  0  0  0  0  0
  -30.6390  -12.7940   19.0410 C   0  0  0  0  0  2  0  0  0  0  0  0
  -29.6480  -12.8300   17.8580 C   0  0  0  0  0  2  0  0  0  0  0  0
  -28.2110  -12.6030   18.3640 C   0  0  0  0  0  2  0  0  0  0  0  0
  -27.8570  -13.5110   19.5680 C   0  0  0  0  0  3  0  0  0  0  0  0
  -28.9590  -13.4730   20.6490 C   0  0  0  0  0  2  0  0  0  0  0  0
  -30.2220  -13.8480   19.9980 N   0  0  0  0  0  0  0  0  0  0  0  0
  -32.0100  -15.1850   19.6800 O   0  0  0  0  0  0  0  0  0  0  0  0
  -30.0380  -16.2300   20.1370 N   0  0  0  0  0  0  0  0  0  0  0  0
  -29.0710  -16.0440   20.3610 H   0  0  0  0  0  0  0  0  0  0  0  0
  -25.5010  -14.0850   20.4020 C   0  0  0  0  0  0  0  0  0  0  0  0
  -24.4500  -13.3040   20.7900 C   0  0  0  0  0  0  0  0  0  0  0  0
  -24.9120  -11.9540   20.7190 C   0  0  0  0  0  0  0  0  0  0  0  0
  -26.5360  -13.2120   20.1070 N   0  0  0  0  0  0  0  0  0  0  0  0
  -26.1930  -11.9250   20.3660 N   0  0  0  0  0  0  0  0  0  0  0  0
  -24.1920  -10.6880   20.9100 C   0  0  0  0  0  0  0  0  0  0  0  0
  -24.5950   -9.7480   21.8840 C   0  0  0  0  0  3  0  0  0  0  0  0
  -23.8750   -8.5470   22.0600 C   0  0  0  0  0  3  0  0  0  0  0  0
  -22.7400   -8.2760   21.2590 C   0  0  0  0  0  0  0  0  0  0  0  0
  -22.3550   -9.2060   20.2780 C   0  0  0  0  0  3  0  0  0  0  0  0
  -23.0750  -10.3980   20.1010 C   0  0  0  0  0  3  0  0  0  0  0  0
  -22.0010   -7.1210   21.3400 O   0  0  0  0  0  0  0  0  0  0  0  0
  -21.8350   -6.4530   22.5270 C   0  0  0  0  0  0  0  0  0  0  0  0
  -21.2300   -7.0670   23.6460 C   0  0  0  0  0  3  0  0  0  0  0  0
  -21.0130   -6.3230   24.8250 C   0  0  0  0  0  3  0  0  0  0  0  0
  -21.3960   -4.9700   24.8850 C   0  0  0  0  0  0  0  0  0  0  0  0
  -21.9950   -4.3570   23.7700 C   0  0  0  0  0  3  0  0  0  0  0  0
  -22.2100   -5.0960   22.5940 C   0  0  0  0  0  0  0  0  0  0  0  0
  -22.7660   -4.4970   21.5130 F   0  0  0  0  0  0  0  0  0  0  0  0
  -21.1830   -4.2540   26.0130 F   0  0  0  0  0  0  0  0  0  0  0  0
  -23.0620  -13.7740   21.1210 C   0  0  0  0  0  0  0  0  0  0  0  0
  -22.3670  -13.0600   22.0000 N   0  0  0  0  0  0  0  0  0  0  0  0
  -22.6040  -14.8070   20.6360 O   0  0  0  0  0  0  0  0  0  0  0  0
  -22.7510  -12.2260   22.4180 H   0  0  0  0  0  0  0  0  0  0  0  0
  -21.4350  -13.3540   22.2620 H   0  0  0  0  0  0  0  0  0  0  0  0
  -25.6550  -15.4600   20.2480 N   0  0  0  0  0  0  0  0  0  0  0  0
  -24.8820  -16.0980   20.4110 H   0  0  0  0  0  0  0  0  0  0  0  0
  -26.4800  -15.9220   19.8920 H   0  0  0  0  0  0  0  0  0  0  0  0
  -31.0770  -18.3140   17.4810 N   0  0  0  0  0  4  0  0  0  0  0  0
  -31.6990  -19.0340   17.7990 H   0  0  0  0  0  0  0  0  0  0  0  0
  -30.7480  -18.5540   16.5610 H   0  0  0  0  0  0  0  0  0  0  0  0
  -31.5840  -17.4480   17.4200 H   0  0  0  0  0  0  0  0  0  0  0  0
  -28.8120  -25.4050   20.7590 C   0  0  0  0  0  2  0  0  0  0  0  0
  -28.5240  -26.6390   19.9490 O   0  0  0  0  0  0  0  0  0  0  0  0
  -24.6690  -31.9620   23.2170 C   0  0  0  0  0  0  0  0  0  0  0  0
  -27.3910  -27.4690   20.0950 C   0  0  0  0  0  0  0  0  0  0  0  0
  -23.5170  -30.5790   21.5330 C   0  0  0  0  0  3  0  0  0  0  0  0
  -25.0090  -29.0790   20.0960 C   0  0  0  0  0  0  0  0  0  0  0  0
  -26.0560  -30.9340   21.3860 C   0  0  0  0  0  2  0  0  0  0  0  0
  -26.1670  -29.5620   20.7200 C   0  0  0  0  0  0  0  0  0  0  0  0
  -27.3660  -28.7750   20.7000 C   0  0  0  0  0  3  0  0  0  0  0  0
  -26.2130  -27.0530   19.4480 C   0  0  0  0  0  3  0  0  0  0  0  0
  -25.0370  -27.8310   19.4520 C   0  0  0  0  0  3  0  0  0  0  0  0
  -23.7590  -29.9410   20.1420 C   0  0  0  0  0  2  0  0  0  0  0  0
  -24.7650  -31.1810   22.1010 N   0  0  0  0  0  0  0  0  0  0  0  0
  -23.5730  -32.2060   23.7450 O   0  0  0  0  0  0  0  0  0  0  0  0
  -22.8650  -29.5300   22.4650 C   0  0  0  0  0  0  0  0  0  0  0  0
  -21.5410  -29.3420   22.3340 N   0  0  0  0  0  0  0  0  0  0  0  0
  -23.5500  -28.8860   23.2620 O   0  0  0  0  0  0  0  0  0  0  0  0
  -21.0480  -29.9020   21.6530 H   0  0  0  0  0  0  0  0  0  0  0  0
  -18.1780  -28.1150   22.8300 C   0  0  0  0  0  0  0  0  0  0  0  0
  -20.7380  -28.3680   23.0730 C   0  0  0  0  0  3  0  0  0  0  0  0
  -20.8340  -26.9670   22.4320 C   0  0  0  0  0  2  0  0  0  0  0  0
  -19.7170  -26.6790   21.4250 C   0  0  0  0  0  2  0  0  0  0  0  0
  -18.3440  -26.7990   22.0940 C   0  0  0  0  0  2  0  0  0  0  0  0
  -19.3020  -28.8610   23.2800 C   0  0  0  0  0  0  0  0  0  0  0  0
  -19.0900  -30.0970   23.9310 C   0  0  0  0  0  3  0  0  0  0  0  0
  -17.7860  -30.5850   24.1390 C   0  0  0  0  0  3  0  0  0  0  0  0
  -16.6780  -29.8310   23.7110 C   0  0  0  0  0  3  0  0  0  0  0  0
  -16.8740  -28.5980   23.0640 C   0  0  0  0  0  3  0  0  0  0  0  0
  -25.9320  -32.6080   23.8690 C   0  0  0  0  0  3  0  0  0  0  0  0
  -26.4220  -31.8480   25.1630 C   0  0  1  0  0  0  0  0  0  0  0  0
  -25.3010  -31.6050   26.2000 C   0  0  0  0  0  1  0  0  0  0  0  0
  -27.0370  -30.4780   24.7940 C   0  0  0  0  0  1  0  0  0  0  0  0
  -27.5380  -32.6610   25.8580 C   0  0  0  0  0  1  0  0  0  0  0  0
  -25.5960  -34.0030   24.1930 N   0  0  0  0  0  0  0  0  0  0  0  0
  -25.9250  -35.0610   23.4410 C   0  0  0  0  0  0  0  0  0  0  0  0
  -26.6150  -34.9710   22.4230 O   0  0  0  0  0  0  0  0  0  0  0  0
  -24.9890  -34.1480   24.9860 H   0  0  0  0  0  0  0  0  0  0  0  0
  -24.1810  -36.8380   23.0680 C   0  0  0  0  0  1  0  0  0  0  0  0
  -25.4120  -36.4420   23.8970 C   0  0  0  0  0  3  0  0  0  0  0  0
  -27.5140  -37.3630   24.7790 C   0  0  0  0  0  1  0  0  0  0  0  0
  -26.4330  -37.5090   23.8070 N   0  0  0  0  0  0  0  0  0  0  0  0
  -26.0060  -38.4220   23.9400 H   0  0  0  0  0  0  0  0  0  0  0  0
  1  3  1  0
  2  1  2  0
  3  7  1  0
  4 56  1  0
  4  3  2  0
  5  6  2  0
  5  4  1  0
  6  2  1  0
  8  5  1  0
 10 13  1  0
 11 22  1  0
 11  9  1  0
 12 52  1  0
 12 10  1  0
 12 11  1  0
 13  6  1  0
 13  9  1  0
 14 22  1  0
 15 20  1  0
 16 17  1  0
 16 15  1  0
 18 17  1  0
 18 27  1  0
 18 19  1  0
 20 14  1  0
 20 19  1  0
 21 14  2  0
 22 23  1  0
 24 25  2  0
 25 44  1  0
 26 25  1  0
 26 29  1  0
 27 28  1  0
 27 24  1  0
 28 26  2  0
 29 30  1  0
 30 31  2  0
 32 35  1  0
 32 31  1  0
 33 32  2  0
 34 33  1  0
 34 29  2  0
 35 36  1  0
 36 41  2  0
 36 37  1  0
 37 38  2  0
 38 39  1  0
 39 43  1  0
 40 39  2  0
 41 40  1  0
 42 41  1  0
 44 45  1  0
 45 48  1  0
 45 47  1  0
 46 44  2  0
 49 24  1  0
 49 50  1  0
 51 49  1  0
 52 53  1  0
 54 52  1  0
 55 52  1  0
 57 59  1  0
 57 56  1  0
 58 69  2  0
 59 64  1  0
 60 68  1  0
 60 70  1  0
 61 67  1  0
 61 63  1  0
 62 68  1  0
 63 62  1  0
 64 63  2  0
 65 66  1  0
 65 59  2  0
 66 61  2  0
 67 60  1  0
 68 58  1  0
 70 72  2  0
 71 70  1  0
 73 71  1  0
 74 83  2  0
 74 79  1  0
 75 71  1  0
 75 79  1  0
 76 75  1  0
 77 78  1  0
 77 76  1  0
 78 74  1  0
 79 80  2  0
 80 81  1  0
 82 81  2  0
 83 82  1  0
 84 58  1  0
 84 89  1  0
 84 85  1  0
 85 88  1  1
 85 86  1  0
 87 85  1  0
 89 92  1  0
 90 94  1  0
 90 89  1  0
 91 90  2  0
 94 93  1  0
 96 94  1  0
 96 97  1  0
 96 95  1  0
M  ISO  4  14 100  22 100  56 101  57 101
M  END
>  <TORSDO>  (8) 
F 19

>  <SCORE>  (8) 
-13.523

>  <name>  (8) 
7

>  <ligand_id>  (8) 
7

>  <original_smiles>  (8) 
[H]c1c([H])c([H])c2c(c1[H])C([H])([H])C([H])([H])C([H])([H])C2([H])N([H])C(=O)C1([H])N(C(=O)C([H])(N([H])C(=O)C([H])(N([H])C([H])([H])[H])C([H])([H])[H])C(C([H])([H])[H])(C([H])([H])[H])C([H])([H])[H])C([H])([H])c2c([H])c(OC([H])([H])c3c(C([H])([H])[H])c([H])c([H])c(N4C([H])([H])C([H])(N([H])C(=O)N5C([H])([H])C([H])([H])C([H])([H])C([H])(n6nc(-c7c([H])c([H])c(Oc8c([H])c([H])c(F)c([H])c8F)c([H])c7[H])c(C(=O)N([H])[H])c6N([H])[H])C5([H])[H])C([H])([N+]([H])([H])[H])C4([H])[H])c3C([H])([H])[H])c([H])c([H])c2C1([H])[H]

>  <smiles>  (8) 
[H]c1c([H])c([H])c2c(c1[H])C([H])([H])C([H])([H])C([H])([H])C2([H])N([H])C(=O)C1([H])N(C(=O)C([H])(N([H])C(=O)C([H])(N([H])C([H])([H])[H])C([H])([H])[H])C(C([H])([H])[H])(C([H])([H])[H])C([H])([H])[H])C([H])([H])c2c([H])c(OC([H])([H])c3c(C([H])([H])[H])c([H])c([H])c(N4C([H])([H])C([H])(N([H])C(=O)N5C([H])([H])C([H])([H])C([H])([H])C([H])(n6nc(-c7c([H])c([H])c(Oc8c([H])c([H])c(F)c([H])c8F)c([H])c7[H])c(C(=O)N([H])[H])c6N([H])[H])C5([H])[H])C([H])([N+]([H])([H])[H])C4([H])[H])c3C([H])([H])[H])c([H])c([H])c2C1([H])[H]

$$$$
8:0:0
     RDKit          3D

 94103  0  0  1  0  0  0  0  0999 V2000
  -30.6640  -14.6950   20.4080 C   0  0  0  0  0  0  0  0  0  0  0  0
  -30.3950  -12.4450   19.3910 C   0  0  0  0  0  2  0  0  0  0  0  0
  -29.4750  -12.5550   18.1590 C   0  0  0  0  0  2  0  0  0  0  0  0
  -27.9980  -12.4100   18.5750 C   0  0  0  0  0  2  0  0  0  0  0  0
  -27.6280  -13.2990   19.7920 C   0  0  0  0  0  3  0  0  0  0  0  0
  -28.6740  -13.2020   20.9230 C   0  0  0  0  0  2  0  0  0  0  0  0
  -29.9820  -13.5070   20.3330 N   0  0  0  0  0  0  0  0  0  0  0  0
  -31.8670  -14.7360   20.1330 O   0  0  0  0  0  0  0  0  0  0  0  0
  -30.7830  -20.1680   19.1620 C   0  0  0  0  0  3  0  0  0  0  0  0
  -31.3220  -21.3910   18.7320 C   0  0  0  0  0  0  0  0  0  0  0  0
  -30.7610  -22.6070   19.1980 C   0  0  0  0  0  0  0  0  0  0  0  0
  -29.6320  -22.5650   20.0710 C   0  0  0  0  0  0  0  0  0  0  0  0
  -29.7060  -20.1460   20.0510 C   0  0  0  0  0  0  0  0  0  0  0  0
  -28.7450  -17.8980   19.4310 C   0  0  0  0  0  2  0  0  0  0  0  0
  -29.6440  -18.2060   21.6820 C   0  0  0  0  0  2  0  0  0  0  0  0
  -29.6350  -16.6080   19.2880 C   0  0  0  0  0  2  0  0  0  0  0  0
  -30.5250  -16.9200   21.4560 C   0  0  0  0  0  2  0  0  0  0  0  0
  -32.5200  -21.3570   17.7940 C   0  0  0  0  0  1  0  0  0  0  0  0
  -31.4220  -23.9150   18.7630 C   0  0  0  0  0  1  0  0  0  0  0  0
  -29.1500  -21.3310   20.4940 N   0  0  0  0  0  0  0  0  0  0  0  0
  -29.1990  -18.8630   20.4470 N   0  0  0  0  0  0  0  0  0  0  0  0
  -29.9600  -15.8820   20.5470 N   0  0  0  0  0  0  0  0  0  0  0  0
  -25.2340  -13.9110   20.4780 C   0  0  0  0  0  0  0  0  0  0  0  0
  -24.1570  -13.1460   20.8370 C   0  0  0  0  0  0  0  0  0  0  0  0
  -24.6140  -11.7930   20.8280 C   0  0  0  0  0  0  0  0  0  0  0  0
  -26.2760  -13.0230   20.2690 N   0  0  0  0  0  0  0  0  0  0  0  0
  -25.9090  -11.7450   20.5440 N   0  0  0  0  0  0  0  0  0  0  0  0
  -23.8780  -10.5350   21.0180 C   0  0  0  0  0  0  0  0  0  0  0  0
  -24.2960   -9.5690   21.9600 C   0  0  0  0  0  3  0  0  0  0  0  0
  -23.5600   -8.3780   22.1370 C   0  0  0  0  0  3  0  0  0  0  0  0
  -22.3920   -8.1430   21.3720 C   0  0  0  0  0  0  0  0  0  0  0  0
  -21.9940   -9.0980   20.4190 C   0  0  0  0  0  3  0  0  0  0  0  0
  -22.7310  -10.2810   20.2410 C   0  0  0  0  0  3  0  0  0  0  0  0
  -21.6290   -7.0040   21.4580 O   0  0  0  0  0  0  0  0  0  0  0  0
  -21.5670   -6.2670   22.6130 C   0  0  0  0  0  0  0  0  0  0  0  0
  -21.1350   -6.8280   23.8340 C   0  0  0  0  0  3  0  0  0  0  0  0
  -21.0190   -6.0160   24.9810 C   0  0  0  0  0  3  0  0  0  0  0  0
  -21.3260   -4.6450   24.9060 C   0  0  0  0  0  0  0  0  0  0  0  0
  -21.7520   -4.0830   23.6910 C   0  0  0  0  0  3  0  0  0  0  0  0
  -21.8690   -4.8910   22.5460 C   0  0  0  0  0  0  0  0  0  0  0  0
  -22.2600   -4.3410   21.3720 F   0  0  0  0  0  0  0  0  0  0  0  0
  -21.2080   -3.8630   26.0060 F   0  0  0  0  0  0  0  0  0  0  0  0
  -22.7590  -13.6330   21.0780 C   0  0  0  0  0  0  0  0  0  0  0  0
  -22.0140  -12.9500   21.9400 N   0  0  0  0  0  0  0  0  0  0  0  0
  -22.3350  -14.6550   20.5400 O   0  0  0  0  0  0  0  0  0  0  0  0
  -22.3690  -12.1250   22.3980 H   0  0  0  0  0  0  0  0  0  0  0  0
  -21.0740  -13.2590   22.1470 H   0  0  0  0  0  0  0  0  0  0  0  0
  -25.4090  -15.2790   20.2910 N   0  0  0  0  0  0  0  0  0  0  0  0
  -24.6490  -15.9420   20.3960 H   0  0  0  0  0  0  0  0  0  0  0  0
  -26.2780  -15.7100   20.0040 H   0  0  0  0  0  0  0  0  0  0  0  0
  -29.9150  -24.4060   21.8490 C   0  0  0  0  0  1  0  0  0  0  0  0
  -29.0180  -23.8910   20.7080 C   0  0  0  0  0  3  0  0  0  0  0  0
  -28.4930  -25.0860   19.7610 C   0  0  0  0  0  2  0  0  0  0  0  0
  -28.4390  -26.4920   20.2710 O   0  0  0  0  0  0  0  0  0  0  0  0
  -24.6240  -31.8540   23.2410 C   0  0  0  0  0  0  0  0  0  0  0  0
  -27.2960  -27.3120   20.1890 C   0  0  0  0  0  0  0  0  0  0  0  0
  -23.4450  -30.4500   21.5880 C   0  0  0  0  0  3  0  0  0  0  0  0
  -24.9180  -28.9200   20.1690 C   0  0  0  0  0  0  0  0  0  0  0  0
  -25.9840  -30.7890   21.4250 C   0  0  0  0  0  2  0  0  0  0  0  0
  -26.0790  -29.4100   20.7780 C   0  0  0  0  0  0  0  0  0  0  0  0
  -27.2650  -28.6170   20.7820 C   0  0  0  0  0  3  0  0  0  0  0  0
  -26.1070  -26.8840   19.5520 C   0  0  0  0  0  3  0  0  0  0  0  0
  -24.9370  -27.6620   19.5490 C   0  0  0  0  0  3  0  0  0  0  0  0
  -23.6750  -29.7820   20.2090 C   0  0  0  0  0  2  0  0  0  0  0  0
  -24.7040  -31.0490   22.1420 N   0  0  0  0  0  0  0  0  0  0  0  0
  -23.5330  -32.1200   23.7670 O   0  0  0  0  0  0  0  0  0  0  0  0
  -22.7840  -29.4250   22.5400 C   0  0  0  0  0  0  0  0  0  0  0  0
  -21.4570  -29.2520   22.4140 N   0  0  0  0  0  0  0  0  0  0  0  0
  -23.4630  -28.7890   23.3500 O   0  0  0  0  0  0  0  0  0  0  0  0
  -20.9690  -29.8170   21.7340 H   0  0  0  0  0  0  0  0  0  0  0  0
  -18.0750  -28.0690   22.9190 C   0  0  0  0  0  0  0  0  0  0  0  0
  -20.6370  -28.3080   23.1750 C   0  0  0  0  0  3  0  0  0  0  0  0
  -20.7240  -26.8850   22.5780 C   0  0  0  0  0  2  0  0  0  0  0  0
  -19.6140  -26.5840   21.5670 C   0  0  0  0  0  2  0  0  0  0  0  0
  -18.2370  -26.7280   22.2220 C   0  0  0  0  0  2  0  0  0  0  0  0
  -19.2020  -28.8180   23.3520 C   0  0  0  0  0  0  0  0  0  0  0  0
  -18.9950  -30.0730   23.9640 C   0  0  0  0  0  3  0  0  0  0  0  0
  -17.6940  -30.5810   24.1470 C   0  0  0  0  0  3  0  0  0  0  0  0
  -16.5820  -29.8300   23.7290 C   0  0  0  0  0  3  0  0  0  0  0  0
  -16.7730  -28.5750   23.1220 C   0  0  0  0  0  3  0  0  0  0  0  0
  -25.8940  -32.4970   23.8780 C   0  0  0  0  0  3  0  0  0  0  0  0
  -25.5700  -33.8920   24.2040 N   0  0  0  0  0  0  0  0  0  0  0  0
  -25.8940  -34.9470   23.4440 C   0  0  0  0  0  0  0  0  0  0  0  0
  -26.5670  -34.8480   22.4150 O   0  0  0  0  0  0  0  0  0  0  0  0
  -24.9710  -34.0410   25.0030 H   0  0  0  0  0  0  0  0  0  0  0  0
  -24.1480  -36.7240   23.0880 C   0  0  0  0  0  1  0  0  0  0  0  0
  -25.3940  -36.3330   23.8980 C   0  0  0  0  0  3  0  0  0  0  0  0
  -27.5210  -37.2430   24.7220 C   0  0  0  0  0  1  0  0  0  0  0  0
  -26.4160  -37.3950   23.7800 N   0  0  0  0  0  0  0  0  0  0  0  0
  -26.0010  -38.3120   23.9220 H   0  0  0  0  0  0  0  0  0  0  0  0
  -26.4000  -31.7280   25.1600 C   0  0  1  0  0  0  0  0  0  0  0  0
  -25.2960  -31.4890   26.2170 C   0  0  0  0  0  1  0  0  0  0  0  0
  -26.9930  -30.3520   24.7750 C   0  0  0  0  0  1  0  0  0  0  0  0
  -27.5390  -32.5280   25.8330 C   0  0  0  0  0  1  0  0  0  0  0  0
  1 22  1  0
  2  7  1  0
  3  4  1  0
  3  2  1  0
  5  4  1  0
  5 26  1  0
  5  6  1  0
  7  1  1  0
  7  6  1  0
  8  1  2  0
  9 13  1  0
 10  9  2  0
 10 11  1  0
 11 12  2  0
 12 20  1  0
 12 52  1  0
 13 21  1  0
 13 20  2  0
 14 21  1  0
 16 14  1  0
 16 22  1  0
 17 15  1  0
 18 10  1  0
 19 11  1  0
 21 15  1  0
 22 17  1  0
 23 24  2  0
 24 43  1  0
 25 24  1  0
 25 28  1  0
 26 23  1  0
 26 27  1  0
 27 25  2  0
 28 29  1  0
 29 30  2  0
 31 34  1  0
 31 30  1  0
 32 31  2  0
 33 32  1  0
 33 28  2  0
 34 35  1  0
 35 36  1  0
 36 37  2  0
 38 37  1  0
 38 42  1  0
 39 38  2  0
 40 35  2  0
 40 39  1  0
 41 40  1  0
 43 44  1  0
 44 47  1  0
 44 46  1  0
 45 43  2  0
 48 49  1  0
 48 23  1  0
 50 48  1  0
 52 51  1  0
 53 54  1  0
 53 52  1  0
 55 66  2  0
 56 54  1  0
 56 61  1  0
 57 65  1  0
 57 67  1  0
 58 64  1  0
 58 60  1  0
 59 65  1  0
 60 61  2  0
 60 59  1  0
 62 56  2  0
 63 62  1  0
 63 58  2  0
 64 57  1  0
 65 55  1  0
 67 69  2  0
 68 67  1  0
 70 68  1  0
 71 80  2  0
 71 76  1  0
 72 68  1  0
 72 76  1  0
 73 72  1  0
 74 75  1  0
 74 73  1  0
 75 71  1  0
 76 77  2  0
 77 78  1  0
 79 78  2  0
 80 79  1  0
 81 55  1  0
 81 82  1  0
 81 91  1  0
 82 85  1  0
 83 87  1  0
 83 82  1  0
 84 83  2  0
 87 86  1  0
 89 87  1  0
 89 90  1  0
 89 88  1  0
 91 94  1  1
 91 92  1  0
 93 91  1  0
M  ISO  4   1 100  22 100  53 101  54 101
M  END
>  <TORSDO>  (9) 
F 17

>  <SCORE>  (9) 
-14.940

>  <name>  (9) 
8

>  <ligand_id>  (9) 
8

>  <original_smiles>  (9) 
[H]c1c([H])c([H])c2c(c1[H])C([H])([H])C([H])([H])C([H])([H])C2([H])N([H])C(=O)C1([H])N(C(=O)C([H])(N([H])C(=O)C([H])(N([H])C([H])([H])[H])C([H])([H])[H])C(C([H])([H])[H])(C([H])([H])[H])C([H])([H])[H])C([H])([H])c2c([H])c(OC([H])([H])C([H])(c3nc(N4C([H])([H])C([H])([H])N(C(=O)N5C([H])([H])C([H])([H])C([H])([H])C([H])(n6nc(-c7c([H])c([H])c(Oc8c([H])c([H])c(F)c([H])c8F)c([H])c7[H])c(C(=O)N([H])[H])c6N([H])[H])C5([H])[H])C([H])([H])C4([H])[H])c([H])c(C([H])([H])[H])c3C([H])([H])[H])C([H])([H])[H])c([H])c([H])c2C1([H])[H]

>  <smiles>  (9) 
[H]c1c([H])c([H])c2c(c1[H])C([H])([H])C([H])([H])C([H])([H])C2([H])N([H])C(=O)C1([H])N(C(=O)C([H])(N([H])C(=O)C([H])(N([H])C([H])([H])[H])C([H])([H])[H])C(C([H])([H])[H])(C([H])([H])[H])C([H])([H])[H])C([H])([H])c2c([H])c(OC([H])([H])C([H])(c3nc(N4C([H])([H])C([H])([H])N(C(=O)N5C([H])([H])C([H])([H])C([H])([H])C([H])(n6nc(-c7c([H])c([H])c(Oc8c([H])c([H])c(F)c([H])c8F)c([H])c7[H])c(C(=O)N([H])[H])c6N([H])[H])C5([H])[H])C([H])([H])C4([H])[H])c([H])c(C([H])([H])[H])c3C([H])([H])[H])C([H])([H])[H])c([H])c([H])c2C1([H])[H]

$$$$
9:0:0
     RDKit          3D

 89 98  0  0  1  0  0  0  0  0999 V2000
  -30.5350  -15.5390   20.2170 C   0  0  0  0  0  0  0  0  0  0  0  0
  -30.5360  -13.0390   19.4390 C   0  0  0  0  0  2  0  0  0  0  0  0
  -29.6430  -12.6750   18.2270 C   0  0  0  0  0  2  0  0  0  0  0  0
  -28.2110  -12.3650   18.6910 C   0  0  0  0  0  2  0  0  0  0  0  0
  -27.7050  -13.3980   19.7280 C   0  0  0  0  0  3  0  0  0  0  0  0
  -28.7370  -13.7070   20.8350 C   0  0  0  0  0  2  0  0  0  0  0  0
  -29.9290  -14.2380   20.1450 N   0  0  0  0  0  0  0  0  0  0  0  0
  -31.7710  -15.4200   20.1400 O   0  0  0  0  0  0  0  0  0  0  0  0
  -29.8200  -22.5330   18.8890 C   0  0  0  0  0  3  0  0  0  0  0  0
  -29.2710  -19.8970   20.0090 C   0  0  0  0  0  0  0  0  0  0  0  0
  -28.7580  -22.6380   19.8260 C   0  0  0  0  0  0  0  0  0  0  0  0
  -28.5290  -21.2070   20.3810 C   0  0  0  0  0  0  0  0  0  0  0  0
  -30.2270  -20.1330   19.0230 C   0  0  0  0  0  3  0  0  0  0  0  0
  -29.2240  -18.2310   20.5290 C   0  0  0  0  0  3  0  0  0  0  0  0
  -31.0530  -18.9270   18.5150 C   0  0  0  0  0  3  0  0  0  0  0  0
  -30.3900  -17.4770   18.5450 C   0  0  0  0  0  3  0  0  0  0  0  0
  -27.4270  -21.0570   21.4150 C   0  0  0  0  0  1  0  0  0  0  0  0
  -30.4860  -21.3820   18.5170 N   0  0  0  0  0  0  0  0  0  0  0  0
  -29.9350  -16.8910   19.8510 N   0  0  0  0  0  0  0  0  0  0  0  0
  -25.3350  -13.9430   20.4850 C   0  0  0  0  0  0  0  0  0  0  0  0
  -24.2730  -13.1610   20.8400 C   0  0  0  0  0  0  0  0  0  0  0  0
  -24.7450  -11.8120   20.8120 C   0  0  0  0  0  0  0  0  0  0  0  0
  -26.3840  -13.0720   20.2490 N   0  0  0  0  0  0  0  0  0  0  0  0
  -26.0400  -11.7840   20.5160 N   0  0  0  0  0  0  0  0  0  0  0  0
  -24.0190  -10.5480   20.9900 C   0  0  0  0  0  0  0  0  0  0  0  0
  -24.4350   -9.5830   21.9360 C   0  0  0  0  0  3  0  0  0  0  0  0
  -23.7030   -8.3880   22.1060 C   0  0  0  0  0  3  0  0  0  0  0  0
  -22.5420   -8.1480   21.3310 C   0  0  0  0  0  0  0  0  0  0  0  0
  -22.1460   -9.1020   20.3770 C   0  0  0  0  0  3  0  0  0  0  0  0
  -22.8790  -10.2870   20.2050 C   0  0  0  0  0  3  0  0  0  0  0  0
  -21.7860   -7.0040   21.4090 O   0  0  0  0  0  0  0  0  0  0  0  0
  -21.7030   -6.2730   22.5660 C   0  0  0  0  0  0  0  0  0  0  0  0
  -21.2170   -6.8330   23.7680 C   0  0  0  0  0  3  0  0  0  0  0  0
  -21.0820   -6.0280   24.9170 C   0  0  0  0  0  3  0  0  0  0  0  0
  -21.4260   -4.6640   24.8660 C   0  0  0  0  0  0  0  0  0  0  0  0
  -21.9080   -4.1030   23.6690 C   0  0  0  0  0  3  0  0  0  0  0  0
  -22.0430   -4.9060   22.5210 C   0  0  0  0  0  0  0  0  0  0  0  0
  -22.4880   -4.3550   21.3660 F   0  0  0  0  0  0  0  0  0  0  0  0
  -21.2900   -3.8890   25.9670 F   0  0  0  0  0  0  0  0  0  0  0  0
  -22.8720  -13.6340   21.0880 C   0  0  0  0  0  0  0  0  0  0  0  0
  -22.1370  -12.9490   21.9580 N   0  0  0  0  0  0  0  0  0  0  0  0
  -22.4380  -14.6500   20.5480 O   0  0  0  0  0  0  0  0  0  0  0  0
  -22.5030  -12.1330   22.4230 H   0  0  0  0  0  0  0  0  0  0  0  0
  -21.1960  -13.2550   22.1620 H   0  0  0  0  0  0  0  0  0  0  0  0
  -25.4890  -15.3160   20.3100 N   0  0  0  0  0  0  0  0  0  0  0  0
  -24.7110  -15.9590   20.4110 H   0  0  0  0  0  0  0  0  0  0  0  0
  -26.3410  -15.7670   19.9980 H   0  0  0  0  0  0  0  0  0  0  0  0
  -27.8900  -24.1860   20.0480 C   0  0  0  0  0  2  0  0  0  0  0  0
  -28.1770  -25.8230   19.7650 O   0  0  0  0  0  0  0  0  0  0  0  0
  -24.6390  -31.7900   22.9860 C   0  0  0  0  0  0  0  0  0  0  0  0
  -27.1810  -26.9620   19.7970 C   0  0  0  0  0  0  0  0  0  0  0  0
  -23.4480  -30.4580   21.2930 C   0  0  0  0  0  3  0  0  0  0  0  0
  -24.8960  -28.8960   19.8170 C   0  0  0  0  0  0  0  0  0  0  0  0
  -26.0200  -30.6500   21.1680 C   0  0  0  0  0  2  0  0  0  0  0  0
  -26.0860  -29.2580   20.4590 C   0  0  0  0  0  0  0  0  0  0  0  0
  -27.2230  -28.3160   20.4220 C   0  0  0  0  0  3  0  0  0  0  0  0
  -25.9590  -26.7770   19.1110 C   0  0  0  0  0  3  0  0  0  0  0  0
  -24.8610  -27.6770   19.1210 C   0  0  0  0  0  3  0  0  0  0  0  0
  -23.6840  -29.8280   19.8920 C   0  0  0  0  0  2  0  0  0  0  0  0
  -24.7240  -30.9930   21.8690 N   0  0  0  0  0  0  0  0  0  0  0  0
  -23.5470  -32.0630   23.5120 O   0  0  0  0  0  0  0  0  0  0  0  0
  -22.7460  -29.4300   22.2200 C   0  0  0  0  0  0  0  0  0  0  0  0
  -21.4100  -29.2960   22.1110 N   0  0  0  0  0  0  0  0  0  0  0  0
  -23.4110  -28.7550   23.0100 O   0  0  0  0  0  0  0  0  0  0  0  0
  -20.9250  -29.8930   21.4560 H   0  0  0  0  0  0  0  0  0  0  0  0
  -18.0070  -28.1620   22.6760 C   0  0  0  0  0  0  0  0  0  0  0  0
  -20.5830  -28.3330   22.8480 C   0  0  0  0  0  3  0  0  0  0  0  0
  -20.6130  -26.9420   22.1740 C   0  0  0  0  0  2  0  0  0  0  0  0
  -19.4620  -26.7250   21.1870 C   0  0  0  0  0  2  0  0  0  0  0  0
  -18.1130  -26.8620   21.8980 C   0  0  0  0  0  2  0  0  0  0  0  0
  -19.1660  -28.8610   23.1090 C   0  0  0  0  0  0  0  0  0  0  0  0
  -19.0100  -30.0790   23.8060 C   0  0  0  0  0  3  0  0  0  0  0  0
  -17.7290  -30.5990   24.0700 C   0  0  0  0  0  3  0  0  0  0  0  0
  -16.5850  -29.8980   23.6500 C   0  0  0  0  0  3  0  0  0  0  0  0
  -16.7250  -28.6810   22.9590 C   0  0  0  0  0  3  0  0  0  0  0  0
  -25.9070  -32.4120   23.6450 C   0  0  0  0  0  3  0  0  0  0  0  0
  -25.5700  -33.7800   24.0820 N   0  0  0  0  0  0  0  0  0  0  0  0
  -25.8460  -34.8970   23.3940 C   0  0  0  0  0  0  0  0  0  0  0  0
  -26.4710  -34.8850   22.3320 O   0  0  0  0  0  0  0  0  0  0  0  0
  -25.0070  -33.8580   24.9160 H   0  0  0  0  0  0  0  0  0  0  0  0
  -24.0590  -36.6690   23.2680 C   0  0  0  0  0  1  0  0  0  0  0  0
  -25.3550  -36.2390   23.9770 C   0  0  0  0  0  3  0  0  0  0  0  0
  -27.5060  -37.1340   24.7570 C   0  0  0  0  0  1  0  0  0  0  0  0
  -26.3550  -37.3250   23.8790 N   0  0  0  0  0  0  0  0  0  0  0  0
  -25.9340  -38.2240   24.0980 H   0  0  0  0  0  0  0  0  0  0  0  0
  -26.4400  -31.5720   24.8710 C   0  0  1  0  0  0  0  0  0  0  0  0
  -25.3580  -31.2590   25.9310 C   0  0  0  0  0  1  0  0  0  0  0  0
  -27.0380  -30.2260   24.4060 C   0  0  0  0  0  1  0  0  0  0  0  0
  -27.5880  -32.3380   25.5710 C   0  0  0  0  0  1  0  0  0  0  0  0
  2  7  1  0
  3  4  1  0
  3  2  1  0
  5  4  1  0
  5 23  1  0
  5  6  1  0
  7  1  1  0
  7  6  1  0
  8  1  2  0
  9 11  1  0
 10 12  1  0
 10 14  2  0
 11 48  1  0
 11 12  2  0
 12 17  1  0
 13 15  1  0
 13 10  1  0
 15 16  2  0
 16 19  1  0
 18  9  2  0
 18 13  1  0
 19  1  1  0
 19 14  1  0
 20 21  2  0
 21 40  1  0
 22 21  1  0
 22 25  1  0
 23 20  1  0
 23 24  1  0
 24 22  2  0
 25 26  1  0
 26 27  2  0
 28 31  1  0
 28 27  1  0
 29 28  2  0
 30 29  1  0
 30 25  2  0
 31 32  1  0
 32 33  1  0
 33 34  2  0
 35 34  1  0
 35 39  1  0
 36 35  2  0
 37 32  2  0
 37 36  1  0
 38 37  1  0
 40 41  1  0
 41 44  1  0
 41 43  1  0
 42 40  2  0
 45 46  1  0
 45 20  1  0
 47 45  1  0
 49 51  1  0
 49 48  1  0
 50 61  2  0
 51 56  1  0
 52 60  1  0
 52 62  1  0
 53 59  1  0
 53 55  1  0
 54 60  1  0
 55 54  1  0
 56 55  2  0
 57 58  1  0
 57 51  2  0
 58 53  2  0
 59 52  1  0
 60 50  1  0
 62 64  2  0
 63 62  1  0
 65 63  1  0
 66 75  2  0
 66 71  1  0
 67 63  1  0
 67 71  1  0
 68 67  1  0
 69 70  1  0
 69 68  1  0
 70 66  1  0
 71 72  2  0
 72 73  1  0
 74 73  2  0
 75 74  1  0
 76 50  1  0
 76 77  1  0
 76 86  1  0
 77 80  1  0
 78 82  1  0
 78 77  1  0
 79 78  2  0
 82 81  1  0
 84 82  1  0
 84 85  1  0
 84 83  1  0
 86 89  1  1
 86 87  1  0
 88 86  1  0
M  ISO  4   1 100  19 100  48 101  49 101
M  END
>  <TORSDO>  (10) 
F 16

>  <SCORE>  (10) 
-15.256

>  <name>  (10) 
9

>  <ligand_id>  (10) 
9

>  <original_smiles>  (10) 
[H]c1nc2c(c(C([H])([H])[H])c1C([H])([H])Oc1c([H])c([H])c3c(c1[H])C([H])([H])N(C(=O)C([H])(N([H])C(=O)C([H])(N([H])C([H])([H])[H])C([H])([H])[H])C(C([H])([H])[H])(C([H])([H])[H])C([H])([H])[H])C([H])(C(=O)N([H])C1([H])c4c([H])c([H])c([H])c([H])c4C([H])([H])C([H])([H])C1([H])[H])C3([H])[H])C([H])([H])N(C(=O)N1C([H])([H])C([H])([H])C([H])([H])C([H])(n3nc(-c4c([H])c([H])c(Oc5c([H])c([H])c(F)c([H])c5F)c([H])c4[H])c(C(=O)N([H])[H])c3N([H])[H])C1([H])[H])C([H])([H])C2([H])[H]

>  <smiles>  (10) 
[H]c1nc2c(c(C([H])([H])[H])c1C([H])([H])Oc1c([H])c([H])c3c(c1[H])C([H])([H])N(C(=O)C([H])(N([H])C(=O)C([H])(N([H])C([H])([H])[H])C([H])([H])[H])C(C([H])([H])[H])(C([H])([H])[H])C([H])([H])[H])C([H])(C(=O)N([H])C1([H])c4c([H])c([H])c([H])c([H])c4C([H])([H])C([H])([H])C1([H])[H])C3([H])[H])C([H])([H])N(C(=O)N1C([H])([H])C([H])([H])C([H])([H])C([H])(n3nc(-c4c([H])c([H])c(Oc5c([H])c([H])c(F)c([H])c5F)c([H])c4[H])c(C(=O)N([H])[H])c3N([H])[H])C1([H])[H])C([H])([H])C2([H])[H]

$$$$
10:0:0
     RDKit          3D

 97107  0  0  1  0  0  0  0  0999 V2000
  -29.1070  -22.9090   18.5230 C   0  0  0  0  0  3  0  0  0  0  0  0
  -28.8580  -21.5630   18.8180 C   0  0  0  0  0  3  0  0  0  0  0  0
  -29.8470  -23.7240   19.4000 C   0  0  0  0  0  0  0  0  0  0  0  0
  -30.4160  -23.1220   20.5660 C   0  0  0  0  0  0  0  0  0  0  0  0
  -30.1130  -21.7550   20.8970 C   0  0  0  0  0  0  0  0  0  0  0  0
  -29.3210  -20.9690   20.0030 C   0  0  0  0  0  0  0  0  0  0  0  0
  -31.3460  -23.9630   21.4450 C   0  0  0  0  0  1  0  0  0  0  0  0
  -30.5720  -21.1640   22.2270 C   0  0  0  0  0  1  0  0  0  0  0  0
  -30.8280  -25.3600   17.7230 C   0  0  0  0  0  1  0  0  0  0  0  0
  -30.0000  -25.2160   19.0160 C   0  0  0  0  0  3  0  0  0  0  0  0
  -28.6380  -25.9650   18.8880 C   0  0  0  0  0  2  0  0  0  0  0  0
  -28.3320  -26.7590   20.0430 O   0  0  0  0  0  0  0  0  0  0  0  0
  -24.5280  -31.8810   23.2200 C   0  0  0  0  0  0  0  0  0  0  0  0
  -27.1440  -27.4670   20.0520 C   0  0  0  0  0  0  0  0  0  0  0  0
  -23.3020  -30.5050   21.5680 C   0  0  0  0  0  3  0  0  0  0  0  0
  -24.7390  -28.9730   20.1190 C   0  0  0  0  0  0  0  0  0  0  0  0
  -25.8290  -30.8430   21.3680 C   0  0  0  0  0  2  0  0  0  0  0  0
  -25.9010  -29.4780   20.7150 C   0  0  0  0  0  0  0  0  0  0  0  0
  -27.0970  -28.7270   20.6940 C   0  0  0  0  0  3  0  0  0  0  0  0
  -25.9550  -26.9700   19.4670 C   0  0  0  0  0  3  0  0  0  0  0  0
  -24.7600  -27.7130   19.4970 C   0  0  0  0  0  3  0  0  0  0  0  0
  -23.5030  -29.8400   20.1790 C   0  0  0  0  0  2  0  0  0  0  0  0
  -24.5710  -31.0910   22.1110 N   0  0  0  0  0  0  0  0  0  0  0  0
  -23.4540  -32.1550   23.7730 O   0  0  0  0  0  0  0  0  0  0  0  0
  -22.6520  -29.4770   22.5220 C   0  0  0  0  0  0  0  0  0  0  0  0
  -21.3250  -29.3030   22.4040 N   0  0  0  0  0  0  0  0  0  0  0  0
  -23.3390  -28.8370   23.3240 O   0  0  0  0  0  0  0  0  0  0  0  0
  -20.8300  -29.8680   21.7280 H   0  0  0  0  0  0  0  0  0  0  0  0
  -17.9500  -28.1390   22.9340 C   0  0  0  0  0  0  0  0  0  0  0  0
  -20.5140  -28.3620   23.1730 C   0  0  0  0  0  3  0  0  0  0  0  0
  -20.5900  -26.9390   22.5740 C   0  0  0  0  0  2  0  0  0  0  0  0
  -19.4720  -26.6450   21.5700 C   0  0  0  0  0  2  0  0  0  0  0  0
  -18.1010  -26.7980   22.2360 C   0  0  0  0  0  2  0  0  0  0  0  0
  -19.0830  -28.8800   23.3610 C   0  0  0  0  0  0  0  0  0  0  0  0
  -18.8860  -30.1380   23.9720 C   0  0  0  0  0  3  0  0  0  0  0  0
  -17.5900  -30.6520   24.1600 C   0  0  0  0  0  3  0  0  0  0  0  0
  -16.4710  -29.9070   23.7470 C   0  0  0  0  0  3  0  0  0  0  0  0
  -16.6530  -28.6520   23.1400 C   0  0  0  0  0  3  0  0  0  0  0  0
  -25.8250  -32.4930   23.8350 C   0  0  0  0  0  3  0  0  0  0  0  0
  -26.3390  -31.7110   25.1060 C   0  0  1  0  0  0  0  0  0  0  0  0
  -25.2460  -31.4800   26.1730 C   0  0  0  0  0  1  0  0  0  0  0  0
  -26.9090  -30.3310   24.7070 C   0  0  0  0  0  1  0  0  0  0  0  0
  -27.5000  -32.4870   25.7710 C   0  0  0  0  0  1  0  0  0  0  0  0
  -25.5370  -33.8940   24.1670 N   0  0  0  0  0  0  0  0  0  0  0  0
  -25.8880  -34.9420   23.4100 C   0  0  0  0  0  0  0  0  0  0  0  0
  -26.5610  -34.8290   22.3810 O   0  0  0  0  0  0  0  0  0  0  0  0
  -24.9400  -34.0560   24.9650 H   0  0  0  0  0  0  0  0  0  0  0  0
  -24.1990  -36.7640   23.0240 C   0  0  0  0  0  1  0  0  0  0  0  0
  -25.4150  -36.3370   23.8620 C   0  0  0  0  0  3  0  0  0  0  0  0
  -27.5430  -37.1820   24.7500 C   0  0  0  0  0  1  0  0  0  0  0  0
  -26.4690  -37.3700   23.7780 N   0  0  0  0  0  0  0  0  0  0  0  0
  -26.0780  -38.2980   23.9140 H   0  0  0  0  0  0  0  0  0  0  0  0
  -28.8120  -19.6900   20.1720 O   0  0  0  0  0  0  0  0  0  0  0  0
  -30.8680  -14.5170   20.0960 C   0  0  0  0  0  0  0  0  0  0  0  0
  -30.4570  -12.3750   18.9250 C   0  0  0  0  0  2  0  0  0  0  0  0
  -29.4410  -12.5800   17.7870 C   0  0  0  0  0  2  0  0  0  0  0  0
  -28.0060  -12.3780   18.3050 C   0  0  0  0  0  2  0  0  0  0  0  0
  -27.7420  -13.1900   19.5990 C   0  0  0  0  0  3  0  0  0  0  0  0
  -28.8760  -12.9550   20.6330 C   0  0  0  0  0  2  0  0  0  0  0  0
  -30.1360  -13.3540   19.9900 N   0  0  0  0  0  0  0  0  0  0  0  0
  -31.9670  -14.5740   19.5350 O   0  0  0  0  0  0  0  0  0  0  0  0
  -28.8740  -17.2030   18.8570 C   0  0  0  0  0  2  0  0  0  0  0  0
  -30.3160  -17.7070   18.6720 C   0  0  0  0  0  2  0  0  0  0  0  0
  -29.0530  -16.0760   21.1460 C   0  0  0  0  0  2  0  0  0  0  0  0
  -31.3070  -16.8400   20.8790 C   0  0  0  0  0  2  0  0  0  0  0  0
  -28.6040  -17.3510   20.3740 C   0  0  0  0  0  3  0  0  0  0  0  0
  -30.7750  -18.0880   20.0920 C   0  0  0  0  0  3  0  0  0  0  0  0
  -29.4770  -18.5610   20.7610 C   0  0  0  0  0  3  0  0  0  0  0  0
  -30.4150  -15.6480   20.7460 N   0  0  0  0  0  0  0  0  0  0  0  0
  -25.3950  -13.7950   20.4560 C   0  0  0  0  0  0  0  0  0  0  0  0
  -24.3460  -13.0170   20.8610 C   0  0  0  0  0  0  0  0  0  0  0  0
  -24.7950  -11.6640   20.7600 C   0  0  0  0  0  0  0  0  0  0  0  0
  -26.4210  -12.9130   20.1440 N   0  0  0  0  0  0  0  0  0  0  0  0
  -26.0640  -11.6250   20.3790 N   0  0  0  0  0  0  0  0  0  0  0  0
  -24.0720  -10.4020   20.9520 C   0  0  0  0  0  0  0  0  0  0  0  0
  -24.5080   -9.4430   21.8930 C   0  0  0  0  0  3  0  0  0  0  0  0
  -23.7900   -8.2410   22.0720 C   0  0  0  0  0  3  0  0  0  0  0  0
  -22.6220   -7.9940   21.3110 C   0  0  0  0  0  0  0  0  0  0  0  0
  -22.2090   -8.9410   20.3570 C   0  0  0  0  0  3  0  0  0  0  0  0
  -22.9280  -10.1340   20.1760 C   0  0  0  0  0  3  0  0  0  0  0  0
  -21.8750   -6.8430   21.3970 O   0  0  0  0  0  0  0  0  0  0  0  0
  -21.7600   -6.1470   22.5740 C   0  0  0  0  0  0  0  0  0  0  0  0
  -21.2250   -6.7360   23.7420 C   0  0  0  0  0  3  0  0  0  0  0  0
  -21.0550   -5.9620   24.9070 C   0  0  0  0  0  3  0  0  0  0  0  0
  -21.4160   -4.6010   24.9060 C   0  0  0  0  0  0  0  0  0  0  0  0
  -21.9470   -4.0130   23.7440 C   0  0  0  0  0  3  0  0  0  0  0  0
  -22.1140   -4.7830   22.5810 C   0  0  0  0  0  0  0  0  0  0  0  0
  -22.6020   -4.2050   21.4570 F   0  0  0  0  0  0  0  0  0  0  0  0
  -21.2520   -3.8530   26.0240 F   0  0  0  0  0  0  0  0  0  0  0  0
  -22.9710  -13.4900   21.2340 C   0  0  0  0  0  0  0  0  0  0  0  0
  -22.2940  -12.7680   22.1190 N   0  0  0  0  0  0  0  0  0  0  0  0
  -22.5060  -14.5330   20.7770 O   0  0  0  0  0  0  0  0  0  0  0  0
  -22.6820  -11.9230   22.5110 H   0  0  0  0  0  0  0  0  0  0  0  0
  -21.3740  -13.0680   22.4080 H   0  0  0  0  0  0  0  0  0  0  0  0
  -25.5520  -15.1700   20.3090 N   0  0  0  0  0  0  0  0  0  0  0  0
  -24.7940  -15.8140   20.5050 H   0  0  0  0  0  0  0  0  0  0  0  0
  -26.3630  -15.6260   19.9130 H   0  0  0  0  0  0  0  0  0  0  0  0
  1  2  2  0
  1  3  1  0
  2  6  1  0
  3  4  2  0
  4  5  1  0
  4  7  1  0
  5  8  1  0
  6 53  1  0
  6  5  2  0
 10  9  1  0
 10  3  1  0
 11 10  1  0
 11 12  1  0
 12 14  1  0
 13 24  2  0
 14 19  1  0
 15 23  1  0
 15 25  1  0
 16 22  1  0
 16 18  1  0
 17 23  1  0
 18 17  1  0
 19 18  2  0
 20 21  1  0
 20 14  2  0
 21 16  2  0
 22 15  1  0
 23 13  1  0
 25 27  2  0
 26 25  1  0
 28 26  1  0
 29 38  2  0
 29 34  1  0
 30 26  1  0
 30 34  1  0
 31 30  1  0
 32 33  1  0
 32 31  1  0
 33 29  1  0
 34 35  2  0
 35 36  1  0
 37 36  2  0
 38 37  1  0
 39 13  1  0
 39 44  1  0
 39 40  1  0
 40 43  1  1
 40 41  1  0
 42 40  1  0
 44 47  1  0
 45 49  1  0
 45 44  1  0
 46 45  2  0
 49 48  1  0
 51 49  1  0
 51 52  1  0
 51 50  1  0
 54 69  1  0
 55 60  1  0
 56 57  1  0
 56 55  1  0
 58 57  1  0
 58 73  1  0
 58 59  1  0
 60 54  1  0
 60 59  1  0
 61 54  2  0
 63 62  1  0
 66 62  1  0
 66 68  1  0
 66 64  1  0
 67 63  1  0
 67 68  1  0
 67 65  1  0
 68 53  1  0
 69 65  1  0
 69 64  1  0
 70 71  2  0
 71 90  1  0
 72 71  1  0
 72 75  1  0
 73 74  1  0
 73 70  1  0
 74 72  2  0
 75 76  1  0
 76 77  2  0
 78 81  1  0
 78 77  1  0
 79 78  2  0
 80 79  1  0
 80 75  2  0
 81 82  1  0
 82 87  2  0
 82 83  1  0
 83 84  2  0
 85 84  1  0
 85 89  1  0
 86 85  2  0
 87 86  1  0
 88 87  1  0
 90 91  1  0
 91 94  1  0
 91 93  1  0
 92 90  2  0
 95 70  1  0
 95 96  1  0
 97 95  1  0
M  ISO  4  11 101  12 101  54 100  69 100
M  END
>  <TORSDO>  (11) 
F 19

>  <SCORE>  (11) 
-14.084

>  <name>  (11) 
10

>  <ligand_id>  (11) 
10

>  <original_smiles>  (11) 
[H]c1c([H])c([H])c2c(c1[H])C([H])([H])C([H])([H])C([H])([H])C2([H])N([H])C(=O)C1([H])N(C(=O)C([H])(N([H])C(=O)C([H])(N([H])C([H])([H])[H])C([H])([H])[H])C(C([H])([H])[H])(C([H])([H])[H])C([H])([H])[H])C([H])([H])c2c([H])c(OC([H])([H])C([H])(c3c([H])c([H])c(OC4([H])C5([H])C([H])([H])N(C(=O)N6C([H])([H])C([H])([H])C([H])([H])C([H])(n7nc(-c8c([H])c([H])c(Oc9c([H])c([H])c(F)c([H])c9F)c([H])c8[H])c(C(=O)N([H])[H])c7N([H])[H])C6([H])[H])C([H])([H])C4([H])C([H])([H])C5([H])[H])c(C([H])([H])[H])c3C([H])([H])[H])C([H])([H])[H])c([H])c([H])c2C1([H])[H]

>  <smiles>  (11) 
[H]c1c([H])c([H])c2c(c1[H])C([H])([H])C([H])([H])C([H])([H])C2([H])N([H])C(=O)C1([H])N(C(=O)C([H])(N([H])C(=O)C([H])(N([H])C([H])([H])[H])C([H])([H])[H])C(C([H])([H])[H])(C([H])([H])[H])C([H])([H])[H])C([H])([H])c2c([H])c(OC([H])([H])C([H])(c3c([H])c([H])c(OC4([H])C5([H])C([H])([H])N(C(=O)N6C([H])([H])C([H])([H])C([H])([H])C([H])(n7nc(-c8c([H])c([H])c(Oc9c([H])c([H])c(F)c([H])c9F)c([H])c8[H])c(C(=O)N([H])[H])c7N([H])[H])C6([H])[H])C([H])([H])C4([H])C([H])([H])C5([H])[H])c(C([H])([H])[H])c3C([H])([H])[H])C([H])([H])[H])c([H])c([H])c2C1([H])[H]

$$$$
11:0:0
     RDKit          3D

 95105  0  0  1  0  0  0  0  0999 V2000
  -28.2580  -21.5830   20.3230 C   0  0  0  0  0  3  0  0  0  0  0  0
  -29.3940  -22.3610   20.6620 C   0  0  0  0  0  0  0  0  0  0  0  0
  -29.4700  -19.3950   20.5700 C   0  0  0  0  0  0  0  0  0  0  0  0
  -28.3030  -20.1530   20.2040 C   0  0  0  0  0  0  0  0  0  0  0  0
  -30.6040  -21.6270   20.8570 C   0  0  0  0  0  0  0  0  0  0  0  0
  -30.6340  -20.1800   20.8600 C   0  0  0  0  0  0  0  0  0  0  0  0
  -31.8580  -22.4900   21.0440 C   0  0  0  0  0  1  0  0  0  0  0  0
  -31.9030  -19.4210   21.2260 C   0  0  0  0  0  1  0  0  0  0  0  0
  -30.7330  -14.6180   20.1480 C   0  0  0  0  0  0  0  0  0  0  0  0
  -30.4560  -12.4330   19.0020 C   0  0  0  0  0  2  0  0  0  0  0  0
  -29.4550  -12.6410   17.8430 C   0  0  0  0  0  2  0  0  0  0  0  0
  -28.0000  -12.5040   18.3430 C   0  0  0  0  0  2  0  0  0  0  0  0
  -27.7310  -13.2950   19.6530 C   0  0  0  0  0  3  0  0  0  0  0  0
  -28.8410  -13.0430   20.6970 C   0  0  0  0  0  2  0  0  0  0  0  0
  -30.1090  -13.4070   20.0540 N   0  0  0  0  0  0  0  0  0  0  0  0
  -31.8890  -14.7720   19.7340 O   0  0  0  0  0  0  0  0  0  0  0  0
  -29.6260  -16.7770   19.4890 C   0  0  0  0  0  2  0  0  0  0  0  0
  -30.3700  -16.7910   21.4000 C   0  0  0  0  0  2  0  0  0  0  0  0
  -29.4430  -17.7860   20.6460 C   0  0  0  0  0  3  0  0  0  0  0  0
  -29.9420  -15.6980   20.4790 N   0  0  0  0  0  0  0  0  0  0  0  0
  -25.3810  -13.8970   20.4980 C   0  0  0  0  0  0  0  0  0  0  0  0
  -24.3290  -13.1240   20.8930 C   0  0  0  0  0  0  0  0  0  0  0  0
  -24.7720  -11.7670   20.7970 C   0  0  0  0  0  0  0  0  0  0  0  0
  -26.4050  -13.0140   20.1890 N   0  0  0  0  0  0  0  0  0  0  0  0
  -26.0440  -11.7260   20.4230 N   0  0  0  0  0  0  0  0  0  0  0  0
  -24.0400  -10.5100   20.9830 C   0  0  0  0  0  0  0  0  0  0  0  0
  -24.4660   -9.5360   21.9100 C   0  0  0  0  0  3  0  0  0  0  0  0
  -23.7320   -8.3420   22.0810 C   0  0  0  0  0  3  0  0  0  0  0  0
  -22.5580   -8.1150   21.3240 C   0  0  0  0  0  0  0  0  0  0  0  0
  -22.1530   -9.0800   20.3850 C   0  0  0  0  0  3  0  0  0  0  0  0
  -22.8850  -10.2650   20.2140 C   0  0  0  0  0  3  0  0  0  0  0  0
  -21.7950   -6.9760   21.4080 O   0  0  0  0  0  0  0  0  0  0  0  0
  -21.6820   -6.2720   22.5810 C   0  0  0  0  0  0  0  0  0  0  0  0
  -21.1590   -6.8580   23.7530 C   0  0  0  0  0  3  0  0  0  0  0  0
  -20.9950   -6.0790   24.9170 C   0  0  0  0  0  3  0  0  0  0  0  0
  -21.3430   -4.7140   24.9040 C   0  0  0  0  0  0  0  0  0  0  0  0
  -21.8560   -4.1280   23.7350 C   0  0  0  0  0  3  0  0  0  0  0  0
  -22.0200   -4.9040   22.5740 C   0  0  0  0  0  0  0  0  0  0  0  0
  -22.4980   -4.3300   21.4430 F   0  0  0  0  0  0  0  0  0  0  0  0
  -21.1770   -3.9620   26.0200 F   0  0  0  0  0  0  0  0  0  0  0  0
  -22.9520  -13.6060   21.2550 C   0  0  0  0  0  0  0  0  0  0  0  0
  -22.2690  -12.9000   22.1460 N   0  0  0  0  0  0  0  0  0  0  0  0
  -22.4980  -14.6490   20.7820 O   0  0  0  0  0  0  0  0  0  0  0  0
  -22.6490  -12.0540   22.5460 H   0  0  0  0  0  0  0  0  0  0  0  0
  -21.3500  -13.2090   22.4300 H   0  0  0  0  0  0  0  0  0  0  0  0
  -25.5480  -15.2720   20.3580 N   0  0  0  0  0  0  0  0  0  0  0  0
  -24.7850  -15.9240   20.4970 H   0  0  0  0  0  0  0  0  0  0  0  0
  -26.3850  -15.7080   19.9990 H   0  0  0  0  0  0  0  0  0  0  0  0
  -29.6950  -24.8180   19.7770 C   0  0  0  0  0  2  0  0  0  0  0  0
  -29.3940  -23.9200   20.8830 C   0  0  0  0  0  3  0  0  0  0  0  0
  -28.3530  -25.0670   20.4970 C   0  0  0  0  0  3  0  0  0  0  0  0
  -28.5190  -26.5310   20.3900 O   0  0  0  0  0  0  0  0  0  0  0  0
  -24.5840  -31.7980   23.2480 C   0  0  0  0  0  0  0  0  0  0  0  0
  -27.3700  -27.3220   20.2950 C   0  0  0  0  0  0  0  0  0  0  0  0
  -23.4460  -30.3870   21.5640 C   0  0  0  0  0  3  0  0  0  0  0  0
  -24.9660  -28.8590   20.1850 C   0  0  0  0  0  0  0  0  0  0  0  0
  -25.9760  -30.7730   21.4310 C   0  0  0  0  0  2  0  0  0  0  0  0
  -26.1070  -29.3920   20.8010 C   0  0  0  0  0  0  0  0  0  0  0  0
  -27.3120  -28.6400   20.8370 C   0  0  0  0  0  3  0  0  0  0  0  0
  -26.2090  -26.8240   19.6630 C   0  0  0  0  0  3  0  0  0  0  0  0
  -25.0210  -27.5810   19.6020 C   0  0  0  0  0  3  0  0  0  0  0  0
  -23.7090  -29.7070   20.1930 C   0  0  0  0  0  2  0  0  0  0  0  0
  -24.6870  -31.0020   22.1450 N   0  0  0  0  0  0  0  0  0  0  0  0
  -23.4810  -32.0580   23.7520 O   0  0  0  0  0  0  0  0  0  0  0  0
  -22.7710  -29.3630   22.5050 C   0  0  0  0  0  0  0  0  0  0  0  0
  -21.4510  -29.1750   22.3400 N   0  0  0  0  0  0  0  0  0  0  0  0
  -23.4330  -28.7340   23.3330 O   0  0  0  0  0  0  0  0  0  0  0  0
  -20.9760  -29.7390   21.6500 H   0  0  0  0  0  0  0  0  0  0  0  0
  -18.0600  -27.9950   22.7860 C   0  0  0  0  0  0  0  0  0  0  0  0
  -20.6170  -28.2270   23.0780 C   0  0  0  0  0  3  0  0  0  0  0  0
  -20.7080  -26.8070   22.4720 C   0  0  0  0  0  2  0  0  0  0  0  0
  -19.6110  -26.5170   21.4430 C   0  0  0  0  0  2  0  0  0  0  0  0
  -18.2260  -26.6610   22.0790 C   0  0  0  0  0  2  0  0  0  0  0  0
  -19.1820  -28.7390   23.2390 C   0  0  0  0  0  0  0  0  0  0  0  0
  -18.9690  -29.9890   23.8560 C   0  0  0  0  0  3  0  0  0  0  0  0
  -17.6670  -30.4960   24.0250 C   0  0  0  0  0  3  0  0  0  0  0  0
  -16.5590  -29.7530   23.5830 C   0  0  0  0  0  3  0  0  0  0  0  0
  -16.7570  -28.5010   22.9710 C   0  0  0  0  0  3  0  0  0  0  0  0
  -25.8400  -32.4420   23.9120 C   0  0  0  0  0  3  0  0  0  0  0  0
  -26.3120  -31.6870   25.2150 C   0  0  1  0  0  0  0  0  0  0  0  0
  -25.1760  -31.4270   26.2320 C   0  0  0  0  0  1  0  0  0  0  0  0
  -26.9440  -30.3220   24.8530 C   0  0  0  0  0  1  0  0  0  0  0  0
  -27.4190  -32.5040   25.9200 C   0  0  0  0  0  1  0  0  0  0  0  0
  -25.5120  -33.8420   24.2140 N   0  0  0  0  0  0  0  0  0  0  0  0
  -25.8610  -34.8840   23.4480 C   0  0  0  0  0  0  0  0  0  0  0  0
  -26.5580  -34.7700   22.4360 O   0  0  0  0  0  0  0  0  0  0  0  0
  -24.8990  -34.0070   24.9960 H   0  0  0  0  0  0  0  0  0  0  0  0
  -24.1240  -36.6560   23.0260 C   0  0  0  0  0  1  0  0  0  0  0  0
  -25.3520  -36.2770   23.8700 C   0  0  0  0  0  3  0  0  0  0  0  0
  -27.4580  -37.1990   24.7320 C   0  0  0  0  0  1  0  0  0  0  0  0
  -26.3770  -37.3400   23.7590 N   0  0  0  0  0  0  0  0  0  0  0  0
  -25.9570  -38.2590   23.8800 H   0  0  0  0  0  0  0  0  0  0  0  0
  -27.0720  -19.4250   19.6630 C   0  0  0  0  0  2  0  0  0  0  0  0
  -26.4140  -20.0780   18.5940 O   0  0  0  0  0  0  0  0  0  0  0  0
  -25.7820  -20.6820   18.9710 H   0  0  0  0  0  0  0  0  0  0  0  0
  1  2  1  0
  2  5  2  0
  3  6  2  0
  4  1  2  0
  4  3  1  0
  5  6  1  0
  5  7  1  0
  6  8  1  0
  9 20  1  0
 10 15  1  0
 11 12  1  0
 11 10  1  0
 13 12  1  0
 13 24  1  0
 13 14  1  0
 15  9  1  0
 15 14  1  0
 16  9  2  0
 17 20  1  0
 17 19  1  0
 19  3  1  0
 19 18  1  0
 20 18  1  0
 21 22  2  0
 22 41  1  0
 23 22  1  0
 23 26  1  0
 24 25  1  0
 24 21  1  0
 25 23  2  0
 26 27  1  0
 27 28  2  0
 29 32  1  0
 29 28  1  0
 30 29  2  0
 31 30  1  0
 31 26  2  0
 32 33  1  0
 33 34  1  0
 34 35  2  0
 36 35  1  0
 36 40  1  0
 37 36  2  0
 38 33  2  0
 38 37  1  0
 39 38  1  0
 41 42  1  0
 42 45  1  0
 42 44  1  0
 43 41  2  0
 46 47  1  0
 46 21  1  0
 48 46  1  0
 49 51  1  0
 49 50  1  0
 50  2  1  0
 51 52  1  0
 51 50  1  0
 53 64  2  0
 54 52  1  0
 54 59  1  0
 55 63  1  0
 55 65  1  0
 56 62  1  0
 56 58  1  0
 57 63  1  0
 58 59  2  0
 58 57  1  0
 60 54  2  0
 61 60  1  0
 61 56  2  0
 62 55  1  0
 63 53  1  0
 65 67  2  0
 66 65  1  0
 68 66  1  0
 69 78  2  0
 69 74  1  0
 70 66  1  0
 70 74  1  0
 71 70  1  0
 72 73  1  0
 72 71  1  0
 73 69  1  0
 74 75  2  0
 75 76  1  0
 77 76  2  0
 78 77  1  0
 79 53  1  0
 79 84  1  0
 79 80  1  0
 80 83  1  1
 80 81  1  0
 82 80  1  0
 84 87  1  0
 85 89  1  0
 85 84  1  0
 86 85  2  0
 89 88  1  0
 91 89  1  0
 91 92  1  0
 91 90  1  0
 93  4  1  0
 94 95  1  0
 94 93  1  0
M  ISO  4   9 100  20 100  51 101  52 101
M  END
>  <TORSDO>  (12) 
F 19

>  <SCORE>  (12) 
-14.655

>  <name>  (12) 
11

>  <ligand_id>  (12) 
11

>  <original_smiles>  (12) 
[H]OC([H])([H])c1c([H])c(C2([H])C([H])([H])C2([H])Oc2c([H])c([H])c3c(c2[H])C([H])([H])N(C(=O)C([H])(N([H])C(=O)C([H])(N([H])C([H])([H])[H])C([H])([H])[H])C(C([H])([H])[H])(C([H])([H])[H])C([H])([H])[H])C([H])(C(=O)N([H])C2([H])c4c([H])c([H])c([H])c([H])c4C([H])([H])C([H])([H])C2([H])[H])C3([H])[H])c(C([H])([H])[H])c(C([H])([H])[H])c1C1([H])C([H])([H])N(C(=O)N2C([H])([H])C([H])([H])C([H])([H])C([H])(n3nc(-c4c([H])c([H])c(Oc5c([H])c([H])c(F)c([H])c5F)c([H])c4[H])c(C(=O)N([H])[H])c3N([H])[H])C2([H])[H])C1([H])[H]

>  <smiles>  (12) 
[H]OC([H])([H])c1c([H])c(C2([H])C([H])([H])C2([H])Oc2c([H])c([H])c3c(c2[H])C([H])([H])N(C(=O)C([H])(N([H])C(=O)C([H])(N([H])C([H])([H])[H])C([H])([H])[H])C(C([H])([H])[H])(C([H])([H])[H])C([H])([H])[H])C([H])(C(=O)N([H])C2([H])c4c([H])c([H])c([H])c([H])c4C([H])([H])C([H])([H])C2([H])[H])C3([H])[H])c(C([H])([H])[H])c(C([H])([H])[H])c1C1([H])C([H])([H])N(C(=O)N2C([H])([H])C([H])([H])C([H])([H])C([H])(n3nc(-c4c([H])c([H])c(Oc5c([H])c([H])c(F)c([H])c5F)c([H])c4[H])c(C(=O)N([H])[H])c3N([H])[H])C2([H])[H])C1([H])[H]

$$$$
12:0:0
     RDKit          3D

 92101  0  0  1  0  0  0  0  0999 V2000
  -27.2830  -21.9500   20.3400 C   0  0  0  0  0  2  0  0  0  0  0  0
  -28.1200  -24.3760   20.3810 C   0  0  0  0  0  3  0  0  0  0  0  0
  -29.2700  -23.1210   20.1700 C   0  0  0  0  0  3  0  0  0  0  0  0
  -26.9070  -23.4570   19.9520 C   0  0  1  0  0  0  0  0  0  0  0  0
  -30.2540  -23.4950   19.0520 C   0  0  0  0  0  1  0  0  0  0  0  0
  -26.6910  -23.4940   18.4170 C   0  0  0  0  0  1  0  0  0  0  0  0
  -25.6000  -23.7650   20.7240 C   0  0  0  0  0  1  0  0  0  0  0  0
  -28.6760  -21.6550   19.9220 N   0  0  1  0  0  4  0  0  0  0  0  0
  -28.5710  -21.6000   18.9210 H   0  0  0  0  0  0  0  0  0  0  0  0
  -30.5470  -15.2550   19.8780 C   0  0  0  0  0  0  0  0  0  0  0  0
  -30.3420  -12.8600   18.9480 C   0  0  0  0  0  2  0  0  0  0  0  0
  -29.3440  -12.7130   17.7770 C   0  0  0  0  0  2  0  0  0  0  0  0
  -27.9280  -12.4510   18.3150 C   0  0  0  0  0  2  0  0  0  0  0  0
  -27.5690  -13.3910   19.4960 C   0  0  0  0  0  3  0  0  0  0  0  0
  -28.6980  -13.5170   20.5420 C   0  0  0  0  0  2  0  0  0  0  0  0
  -29.8810  -14.0060   19.8160 N   0  0  0  0  0  0  0  0  0  0  0  0
  -31.7430  -15.1580   19.5700 O   0  0  0  0  0  0  0  0  0  0  0  0
  -30.1720  -19.3670   19.1920 C   0  0  0  0  0  2  0  0  0  0  0  0
  -28.3630  -18.8670   20.5480 C   0  0  0  0  0  2  0  0  0  0  0  0
  -30.7780  -17.8480   19.4540 C   0  0  0  0  0  2  0  0  0  0  0  0
  -28.9310  -17.3110   20.7980 C   0  0  0  0  0  2  0  0  0  0  0  0
  -29.3110  -20.1660   20.2860 C   0  0  0  0  0  3  0  0  0  0  0  0
  -29.9620  -16.6210   19.8990 N   0  0  0  0  0  0  0  0  0  0  0  0
  -25.2650  -13.9270   20.4420 C   0  0  0  0  0  0  0  0  0  0  0  0
  -24.2290  -13.1400   20.8610 C   0  0  0  0  0  0  0  0  0  0  0  0
  -24.6870  -11.7900   20.7500 C   0  0  0  0  0  0  0  0  0  0  0  0
  -26.2830  -13.0600   20.0950 N   0  0  0  0  0  0  0  0  0  0  0  0
  -25.9540  -11.7660   20.3470 N   0  0  0  0  0  0  0  0  0  0  0  0
  -23.9690  -10.5220   20.9480 C   0  0  0  0  0  0  0  0  0  0  0  0
  -24.4230   -9.5500   21.8670 C   0  0  0  0  0  3  0  0  0  0  0  0
  -23.7020   -8.3520   22.0550 C   0  0  0  0  0  3  0  0  0  0  0  0
  -22.5130   -8.1170   21.3240 C   0  0  0  0  0  0  0  0  0  0  0  0
  -22.0790   -9.0770   20.3940 C   0  0  0  0  0  3  0  0  0  0  0  0
  -22.8010  -10.2680   20.2040 C   0  0  0  0  0  3  0  0  0  0  0  0
  -21.7600   -6.9710   21.4240 O   0  0  0  0  0  0  0  0  0  0  0  0
  -21.6870   -6.2560   22.5920 C   0  0  0  0  0  0  0  0  0  0  0  0
  -21.2080   -6.8300   23.7900 C   0  0  0  0  0  3  0  0  0  0  0  0
  -21.0850   -6.0400   24.9510 C   0  0  0  0  0  3  0  0  0  0  0  0
  -21.4330   -4.6760   24.9140 C   0  0  0  0  0  0  0  0  0  0  0  0
  -21.9050   -4.1000   23.7210 C   0  0  0  0  0  3  0  0  0  0  0  0
  -22.0280   -4.8890   22.5630 C   0  0  0  0  0  0  0  0  0  0  0  0
  -22.4640   -4.3230   21.4100 F   0  0  0  0  0  0  0  0  0  0  0  0
  -21.3080   -3.9150   26.0260 F   0  0  0  0  0  0  0  0  0  0  0  0
  -22.8560  -13.6100   21.2410 C   0  0  0  0  0  0  0  0  0  0  0  0
  -22.1860  -12.8910   22.1330 N   0  0  0  0  0  0  0  0  0  0  0  0
  -22.3890  -14.6520   20.7820 O   0  0  0  0  0  0  0  0  0  0  0  0
  -22.5770  -12.0470   22.5250 H   0  0  0  0  0  0  0  0  0  0  0  0
  -21.2660  -13.1870   22.4280 H   0  0  0  0  0  0  0  0  0  0  0  0
  -25.4180  -15.3040   20.3000 N   0  0  0  0  0  0  0  0  0  0  0  0
  -24.6670  -15.9540   20.5000 H   0  0  0  0  0  0  0  0  0  0  0  0
  -26.2420  -15.7520   19.9230 H   0  0  0  0  0  0  0  0  0  0  0  0
  -28.2530  -25.9950   20.1060 O   0  0  0  0  0  0  0  0  0  0  0  0
  -24.6610  -31.8710   23.1640 C   0  0  0  0  0  0  0  0  0  0  0  0
  -27.2260  -27.0620   20.1130 C   0  0  0  0  0  0  0  0  0  0  0  0
  -23.4700  -30.4850   21.5190 C   0  0  0  0  0  3  0  0  0  0  0  0
  -24.9230  -28.9160   20.0810 C   0  0  0  0  0  0  0  0  0  0  0  0
  -26.0330  -30.7210   21.3660 C   0  0  0  0  0  2  0  0  0  0  0  0
  -26.1080  -29.3190   20.7090 C   0  0  0  0  0  0  0  0  0  0  0  0
  -27.2570  -28.4130   20.7050 C   0  0  0  0  0  3  0  0  0  0  0  0
  -26.0330  -26.8390   19.3970 C   0  0  0  0  0  3  0  0  0  0  0  0
  -24.9060  -27.6920   19.4050 C   0  0  0  0  0  3  0  0  0  0  0  0
  -23.6980  -29.8210   20.1360 C   0  0  0  0  0  2  0  0  0  0  0  0
  -24.7430  -31.0500   22.0710 N   0  0  0  0  0  0  0  0  0  0  0  0
  -23.5710  -32.1500   23.6900 O   0  0  0  0  0  0  0  0  0  0  0  0
  -22.7870  -29.4700   22.4730 C   0  0  0  0  0  0  0  0  0  0  0  0
  -21.4580  -29.3010   22.3490 N   0  0  0  0  0  0  0  0  0  0  0  0
  -23.4580  -28.8380   23.2920 O   0  0  0  0  0  0  0  0  0  0  0  0
  -20.9720  -29.8640   21.6640 H   0  0  0  0  0  0  0  0  0  0  0  0
  -18.0780  -28.0860   22.8520 C   0  0  0  0  0  0  0  0  0  0  0  0
  -20.6390  -28.3540   23.1110 C   0  0  0  0  0  3  0  0  0  0  0  0
  -20.7410  -26.9280   22.5210 C   0  0  0  0  0  2  0  0  0  0  0  0
  -19.6360  -26.6140   21.5080 C   0  0  0  0  0  2  0  0  0  0  0  0
  -18.2560  -26.7460   22.1590 C   0  0  0  0  0  2  0  0  0  0  0  0
  -19.1970  -28.8490   23.2850 C   0  0  0  0  0  0  0  0  0  0  0  0
  -18.9730  -30.1010   23.8970 C   0  0  0  0  0  3  0  0  0  0  0  0
  -17.6670  -30.5920   24.0770 C   0  0  0  0  0  3  0  0  0  0  0  0
  -16.5640  -29.8270   23.6590 C   0  0  0  0  0  3  0  0  0  0  0  0
  -16.7710  -28.5750   23.0520 C   0  0  0  0  0  3  0  0  0  0  0  0
  -25.9310  -32.5130   23.8000 C   0  0  0  0  0  3  0  0  0  0  0  0
  -25.6090  -33.9080   24.1440 N   0  0  0  0  0  0  0  0  0  0  0  0
  -25.9270  -34.9750   23.3990 C   0  0  0  0  0  0  0  0  0  0  0  0
  -26.5890  -34.8870   22.3610 O   0  0  0  0  0  0  0  0  0  0  0  0
  -25.0180  -34.0480   24.9510 H   0  0  0  0  0  0  0  0  0  0  0  0
  -24.1850  -36.7650   23.0850 C   0  0  0  0  0  1  0  0  0  0  0  0
  -25.4380  -36.3570   23.8770 C   0  0  0  0  0  3  0  0  0  0  0  0
  -27.5720  -37.2520   24.6980 C   0  0  0  0  0  1  0  0  0  0  0  0
  -26.4630  -37.4180   23.7630 N   0  0  0  0  0  0  0  0  0  0  0  0
  -26.0520  -38.3350   23.9180 H   0  0  0  0  0  0  0  0  0  0  0  0
  -26.4390  -31.7380   25.0780 C   0  0  1  0  0  0  0  0  0  0  0  0
  -25.3390  -31.4890   26.1370 C   0  0  0  0  0  1  0  0  0  0  0  0
  -27.0290  -30.3630   24.6900 C   0  0  0  0  0  1  0  0  0  0  0  0
  -27.5840  -32.5320   25.7500 C   0  0  0  0  0  1  0  0  0  0  0  0
  2 52  1  0
  3  5  1  0
  3  2  1  0
  4  1  1  0
  4  2  1  0
  4  7  1  1
  6  4  1  0
  8  9  1  6
  8  3  1  0
  8 22  1  0
  8  1  1  0
 10 23  1  0
 11 16  1  0
 12 13  1  0
 12 11  1  0
 14 13  1  0
 14 27  1  0
 14 15  1  0
 16 10  1  0
 16 15  1  0
 17 10  2  0
 18 20  1  0
 19 21  1  0
 20 23  1  0
 22 18  1  0
 22 19  1  0
 23 21  1  0
 24 25  2  0
 25 44  1  0
 26 25  1  0
 26 29  1  0
 27 28  1  0
 27 24  1  0
 28 26  2  0
 29 30  1  0
 30 31  2  0
 32 35  1  0
 32 31  1  0
 33 32  2  0
 34 33  1  0
 34 29  2  0
 35 36  1  0
 36 37  1  0
 37 38  2  0
 39 38  1  0
 39 43  1  0
 40 39  2  0
 41 36  2  0
 41 40  1  0
 42 41  1  0
 44 45  1  0
 45 48  1  0
 45 47  1  0
 46 44  2  0
 49 24  1  0
 49 50  1  0
 51 49  1  0
 52 54  1  0
 53 64  2  0
 54 59  1  0
 55 63  1  0
 55 65  1  0
 56 62  1  0
 56 58  1  0
 57 63  1  0
 58 57  1  0
 59 58  2  0
 60 61  1  0
 60 54  2  0
 61 56  2  0
 62 55  1  0
 63 53  1  0
 65 67  2  0
 66 65  1  0
 68 66  1  0
 69 78  2  0
 69 74  1  0
 70 66  1  0
 70 74  1  0
 71 70  1  0
 72 73  1  0
 72 71  1  0
 73 69  1  0
 74 75  2  0
 75 76  1  0
 77 76  2  0
 78 77  1  0
 79 53  1  0
 79 80  1  0
 79 89  1  0
 80 83  1  0
 81 85  1  0
 81 80  1  0
 82 81  2  0
 85 84  1  0
 87 85  1  0
 87 88  1  0
 87 86  1  0
 89 92  1  1
 89 90  1  0
 91 89  1  0
M  ISO  4   2 101  10 100  23 100  52 101
M  END
>  <TORSDO>  (13) 
F 16

>  <SCORE>  (13) 
-15.498

>  <name>  (13) 
12

>  <ligand_id>  (13) 
12

>  <original_smiles>  (13) 
[H]c1c([H])c([H])c2c(c1[H])C([H])([H])C([H])([H])C([H])([H])C2([H])N([H])C(=O)C1([H])N(C(=O)C([H])(N([H])C(=O)C([H])(N([H])C([H])([H])[H])C([H])([H])[H])C(C([H])([H])[H])(C([H])([H])[H])C([H])([H])[H])C([H])([H])c2c([H])c(OC3([H])C(C([H])([H])[H])(C([H])([H])[H])C([H])([H])[N+]([H])(C4([H])C([H])([H])C([H])([H])N(C(=O)N5C([H])([H])C([H])([H])C([H])([H])C([H])(n6nc(-c7c([H])c([H])c(Oc8c([H])c([H])c(F)c([H])c8F)c([H])c7[H])c(C(=O)N([H])[H])c6N([H])[H])C5([H])[H])C([H])([H])C4([H])[H])C3([H])C([H])([H])[H])c([H])c([H])c2C1([H])[H]

>  <smiles>  (13) 
[H]c1c([H])c([H])c2c(c1[H])C([H])([H])C([H])([H])C([H])([H])C2([H])N([H])C(=O)C1([H])N(C(=O)C([H])(N([H])C(=O)C([H])(N([H])C([H])([H])[H])C([H])([H])[H])C(C([H])([H])[H])(C([H])([H])[H])C([H])([H])[H])C([H])([H])c2c([H])c(OC3([H])C(C([H])([H])[H])(C([H])([H])[H])C([H])([H])[N+]([H])(C4([H])C([H])([H])C([H])([H])N(C(=O)N5C([H])([H])C([H])([H])C([H])([H])C([H])(n6nc(-c7c([H])c([H])c(Oc8c([H])c([H])c(F)c([H])c8F)c([H])c7[H])c(C(=O)N([H])[H])c6N([H])[H])C5([H])[H])C([H])([H])C4([H])[H])C3([H])C([H])([H])[H])c([H])c([H])c2C1([H])[H]

$$$$
13:0:0
     RDKit          3D

102113  0  0  1  0  0  0  0  0999 V2000
  -28.4290  -19.9230   17.5490 C   0  0  0  0  0  3  0  0  0  0  0  0
  -27.7710  -18.8000   17.0180 C   0  0  0  0  0  3  0  0  0  0  0  0
  -29.6280  -21.5000   22.7720 C   0  0  0  0  0  3  0  0  0  0  0  0
  -28.8720  -17.4140   18.6680 C   0  0  0  0  0  3  0  0  0  0  0  0
  -29.3210  -19.8320   18.6490 C   0  0  0  0  0  0  0  0  0  0  0  0
  -29.7850  -20.9220   21.5010 C   0  0  0  0  0  0  0  0  0  0  0  0
  -29.5200  -18.5350   19.2510 C   0  0  0  0  0  0  0  0  0  0  0  0
  -29.7500  -21.8200   20.3650 C   0  0  0  0  0  0  0  0  0  0  0  0
  -29.6340  -23.7840   21.8910 C   0  0  0  0  0  0  0  0  0  0  0  0
  -28.0090  -17.5310   17.5680 C   0  0  0  0  0  0  0  0  0  0  0  0
  -29.5680  -22.8810   22.9800 C   0  0  0  0  0  0  0  0  0  0  0  0
  -29.5940  -23.2940   20.5430 C   0  0  0  0  0  0  0  0  0  0  0  0
  -29.9640  -19.3490   21.6200 C   0  0  0  0  0  2  0  0  0  0  0  0
  -30.0560  -21.1600   19.0080 C   0  0  0  0  0  3  0  0  0  0  0  0
  -30.3690  -18.2840   20.5210 C   0  0  0  0  0  3  0  0  0  0  0  0
  -27.3480  -16.2930   16.9930 C   0  0  0  0  0  1  0  0  0  0  0  0
  -29.4450  -23.3580   24.4220 C   0  0  0  0  0  1  0  0  0  0  0  0
  -31.5760  -21.0510   18.8010 C   0  0  0  0  0  1  0  0  0  0  0  0
  -31.1820  -15.8230   21.2800 C   0  0  0  0  0  0  0  0  0  0  0  0
  -31.3850  -13.3790   20.8080 C   0  0  0  0  0  2  0  0  0  0  0  0
  -30.7240  -13.0820   19.4430 C   0  0  0  0  0  2  0  0  0  0  0  0
  -29.2120  -12.8260   19.6070 C   0  0  0  0  0  2  0  0  0  0  0  0
  -28.5200  -13.8850   20.5040 C   0  0  0  0  0  3  0  0  0  0  0  0
  -29.3220  -14.1570   21.7980 C   0  0  0  0  0  2  0  0  0  0  0  0
  -30.6850  -14.5420   21.4000 N   0  0  0  0  0  0  0  0  0  0  0  0
  -32.3940  -16.0050   21.1460 O   0  0  0  0  0  0  0  0  0  0  0  0
  -30.2690  -16.8480   21.0890 N   0  0  0  0  0  0  0  0  0  0  0  0
  -29.3220  -16.5520   21.2580 H   0  0  0  0  0  0  0  0  0  0  0  0
  -26.0320  -14.3890   20.8640 C   0  0  0  0  0  0  0  0  0  0  0  0
  -24.9490  -13.5730   21.0560 C   0  0  0  0  0  0  0  0  0  0  0  0
  -25.4580  -12.2380   21.0750 C   0  0  0  0  0  0  0  0  0  0  0  0
  -27.1280  -13.5460   20.7800 N   0  0  0  0  0  0  0  0  0  0  0  0
  -26.7810  -12.2470   20.9690 N   0  0  0  0  0  0  0  0  0  0  0  0
  -24.7530  -10.9510   21.1340 C   0  0  0  0  0  0  0  0  0  0  0  0
  -25.0000  -10.0190   22.1660 C   0  0  0  0  0  3  0  0  0  0  0  0
  -24.2960   -8.7960   22.2130 C   0  0  0  0  0  3  0  0  0  0  0  0
  -23.3310   -8.4960   21.2230 C   0  0  0  0  0  0  0  0  0  0  0  0
  -23.1050   -9.4170   20.1840 C   0  0  0  0  0  3  0  0  0  0  0  0
  -23.8100  -10.6310   20.1380 C   0  0  0  0  0  3  0  0  0  0  0  0
  -22.6210   -7.3210   21.1700 O   0  0  0  0  0  0  0  0  0  0  0  0
  -22.2030   -6.6800   22.3080 C   0  0  0  0  0  0  0  0  0  0  0  0
  -21.3930   -7.3230   23.2700 C   0  0  0  0  0  3  0  0  0  0  0  0
  -20.9290   -6.6090   24.3930 C   0  0  0  0  0  3  0  0  0  0  0  0
  -21.2660   -5.2500   24.5500 C   0  0  0  0  0  0  0  0  0  0  0  0
  -22.0690   -4.6060   23.5910 C   0  0  0  0  0  3  0  0  0  0  0  0
  -22.5320   -5.3200   22.4720 C   0  0  0  0  0  0  0  0  0  0  0  0
  -23.2870   -4.6890   21.5400 F   0  0  0  0  0  0  0  0  0  0  0  0
  -20.8150   -4.5610   25.6240 F   0  0  0  0  0  0  0  0  0  0  0  0
  -23.5110  -14.0010   21.1150 C   0  0  0  0  0  0  0  0  0  0  0  0
  -22.6900  -13.2710   21.8620 N   0  0  0  0  0  0  0  0  0  0  0  0
  -23.1190  -15.0100   20.5340 O   0  0  0  0  0  0  0  0  0  0  0  0
  -23.0240  -12.4560   22.3570 H   0  0  0  0  0  0  0  0  0  0  0  0
  -21.7160  -13.5290   21.9390 H   0  0  0  0  0  0  0  0  0  0  0  0
  -26.1730  -15.7680   20.7300 N   0  0  0  0  0  0  0  0  0  0  0  0
  -25.3680  -16.3870   20.7260 H   0  0  0  0  0  0  0  0  0  0  0  0
  -27.0320  -16.2410   20.4820 H   0  0  0  0  0  0  0  0  0  0  0  0
  -30.8470  -26.1550   21.6240 C   0  0  0  0  0  2  0  0  0  0  0  0
  -30.9290  -25.7790   23.0740 C   0  0  0  0  0  2  0  0  0  0  0  0
  -29.7780  -25.2600   22.2270 C   0  0  0  0  0  3  0  0  0  0  0  0
  -29.5130  -24.4350   19.3980 C   0  0  0  0  0  2  0  0  0  0  0  0
  -28.2920  -25.5280   19.3240 C   0  0  0  0  0  2  0  0  0  0  0  0
  -28.4640  -27.0300   19.1800 O   0  0  0  0  0  0  0  0  0  0  0  0
  -24.6220  -31.7840   23.1690 C   0  0  0  0  0  0  0  0  0  0  0  0
  -27.3290  -27.8750   19.3220 C   0  0  0  0  0  0  0  0  0  0  0  0
  -23.4300  -30.6170   21.3530 C   0  0  0  0  0  3  0  0  0  0  0  0
  -24.8990  -29.3940   19.6520 C   0  0  0  0  0  0  0  0  0  0  0  0
  -25.9520  -31.0740   21.1580 C   0  0  0  0  0  2  0  0  0  0  0  0
  -26.0720  -29.8220   20.2890 C   0  0  0  0  0  0  0  0  0  0  0  0
  -27.2870  -29.0780   20.1130 C   0  0  0  0  0  3  0  0  0  0  0  0
  -26.1260  -27.5350   18.6620 C   0  0  0  0  0  3  0  0  0  0  0  0
  -24.9320  -28.2600   18.8310 C   0  0  0  0  0  3  0  0  0  0  0  0
  -23.6290  -30.1910   19.8760 C   0  0  0  0  0  2  0  0  0  0  0  0
  -24.6880  -31.1690   21.9520 N   0  0  0  0  0  0  0  0  0  0  0  0
  -23.5430  -31.9140   23.7680 O   0  0  0  0  0  0  0  0  0  0  0  0
  -22.8430  -29.4240   22.1480 C   0  0  0  0  0  0  0  0  0  0  0  0
  -21.5160  -29.2240   22.0550 N   0  0  0  0  0  0  0  0  0  0  0  0
  -23.5800  -28.6880   22.8110 O   0  0  0  0  0  0  0  0  0  0  0  0
  -20.9790  -29.8750   21.4990 H   0  0  0  0  0  0  0  0  0  0  0  0
  -18.2040  -27.8390   22.5140 C   0  0  0  0  0  0  0  0  0  0  0  0
  -20.7670  -28.1350   22.6850 C   0  0  0  0  0  3  0  0  0  0  0  0
  -20.8670  -26.8360   21.8530 C   0  0  0  0  0  2  0  0  0  0  0  0
  -19.7130  -26.6630   20.8600 C   0  0  0  0  0  2  0  0  0  0  0  0
  -18.3700  -26.6410   21.5940 C   0  0  0  0  0  2  0  0  0  0  0  0
  -19.3270  -28.5480   23.0130 C   0  0  0  0  0  0  0  0  0  0  0  0
  -19.1130  -29.6740   23.8390 C   0  0  0  0  0  3  0  0  0  0  0  0
  -17.8080  -30.0900   24.1650 C   0  0  0  0  0  3  0  0  0  0  0  0
  -16.7000  -29.3770   23.6760 C   0  0  0  0  0  3  0  0  0  0  0  0
  -16.8990  -28.2510   22.8590 C   0  0  0  0  0  3  0  0  0  0  0  0
  -25.8910  -32.3720   23.8580 C   0  0  0  0  0  3  0  0  0  0  0  0
  -26.4560  -31.4450   25.0040 C   0  0  1  0  0  0  0  0  0  0  0  0
  -25.3950  -31.0300   26.0510 C   0  0  0  0  0  1  0  0  0  0  0  0
  -27.0640  -30.1510   24.4150 C   0  0  0  0  0  1  0  0  0  0  0  0
  -27.6030  -32.1710   25.7460 C   0  0  0  0  0  1  0  0  0  0  0  0
  -25.5340  -33.6940   24.3930 N   0  0  0  0  0  0  0  0  0  0  0  0
  -25.8190  -34.8590   23.7960 C   0  0  0  0  0  0  0  0  0  0  0  0
  -26.4790  -34.9330   22.7560 O   0  0  0  0  0  0  0  0  0  0  0  0
  -24.9450  -33.7070   25.2120 H   0  0  0  0  0  0  0  0  0  0  0  0
  -24.0220  -36.6190   23.7250 C   0  0  0  0  0  1  0  0  0  0  0  0
  -25.2900  -36.1490   24.4570 C   0  0  0  0  0  3  0  0  0  0  0  0
  -27.4080  -36.9780   25.3800 C   0  0  0  0  0  1  0  0  0  0  0  0
  -26.2850  -37.2450   24.4860 N   0  0  0  0  0  0  0  0  0  0  0  0
  -25.8500  -38.1190   24.7700 H   0  0  0  0  0  0  0  0  0  0  0  0
  1  5  1  0
  2  1  2  0
  2 10  1  0
  3 11  1  0
  4  7  1  0
  5 14  1  0
  5  7  2  0
  6 13  1  0
  6  3  2  0
  7 15  1  0
  8 12  2  0
  8  6  1  0
  9 59  1  0
  9 11  2  0
 10  4  2  0
 11 17  1  0
 12  9  1  0
 14 18  1  0
 14  8  1  0
 15 27  1  0
 15 13  1  0
 16 10  1  0
 19 25  1  0
 20 25  1  0
 21 22  1  0
 21 20  1  0
 23 22  1  0
 23 32  1  0
 23 24  1  0
 25 24  1  0
 26 19  2  0
 27 28  1  0
 27 19  1  0
 29 30  2  0
 30 31  1  0
 30 49  1  0
 31 34  1  0
 32 29  1  0
 32 33  1  0
 33 31  2  0
 34 35  1  0
 35 36  2  0
 37 36  1  0
 38 37  2  0
 39 38  1  0
 39 34  2  0
 40 37  1  0
 40 41  1  0
 41 46  2  0
 41 42  1  0
 42 43  2  0
 43 44  1  0
 44 48  1  0
 45 44  2  0
 46 45  1  0
 47 46  1  0
 49 50  1  0
 50 53  1  0
 50 52  1  0
 51 49  2  0
 54 29  1  0
 55 54  1  0
 56 54  1  0
 57 59  1  0
 57 58  1  0
 59 58  1  0
 60 12  1  0
 61 60  1  0
 62 64  1  0
 62 61  1  0
 63 74  2  0
 64 69  1  0
 65 73  1  0
 65 75  1  0
 66 72  1  0
 66 68  1  0
 67 73  1  0
 68 67  1  0
 69 68  2  0
 70 71  1  0
 70 64  2  0
 71 66  2  0
 72 65  1  0
 73 63  1  0
 75 77  2  0
 76 75  1  0
 78 76  1  0
 79 88  2  0
 79 84  1  0
 80 76  1  0
 80 84  1  0
 81 80  1  0
 82 83  1  0
 82 81  1  0
 83 79  1  0
 84 85  2  0
 85 86  1  0
 87 86  2  0
 88 87  1  0
 89 63  1  0
 89 94  1  0
 89 90  1  0
 90 93  1  1
 90 91  1  0
 92 90  1  0
 94 97  1  0
 95 94  1  0
 95 99  1  0
 96 95  2  0
 99 98  1  0
 99101  1  0
101102  1  0
101100  1  0
M  ISO  4  19 100  27 100  61 101  62 101
M  END
>  <TORSDO>  (14) 
F 19

>  <SCORE>  (14) 
-3.019

>  <name>  (14) 
13

>  <ligand_id>  (14) 
13

>  <original_smiles>  (14) 
[H]c1c([H])c([H])c2c(c1[H])C([H])([H])C([H])([H])C([H])([H])C2([H])N([H])C(=O)C1([H])N(C(=O)C([H])(N([H])C(=O)C([H])(N([H])C([H])([H])[H])C([H])([H])[H])C(C([H])([H])[H])(C([H])([H])[H])C([H])([H])[H])C([H])([H])c2c([H])c(OC([H])([H])C([H])([H])c3c4c(c([H])c(C([H])([H])[H])c3C3([H])C([H])([H])C3([H])[H])C([H])([H])C([H])(N([H])C(=O)N3C([H])([H])C([H])([H])C([H])([H])C([H])(n5nc(-c6c([H])c([H])c(Oc7c([H])c([H])c(F)c([H])c7F)c([H])c6[H])c(C(=O)N([H])[H])c5N([H])[H])C3([H])[H])c3c([H])c(C([H])([H])[H])c([H])c([H])c3C4([H])C([H])([H])[H])c([H])c([H])c2C1([H])[H]

>  <smiles>  (14) 
[H]c1c([H])c([H])c2c(c1[H])C([H])([H])C([H])([H])C([H])([H])C2([H])N([H])C(=O)C1([H])N(C(=O)C([H])(N([H])C(=O)C([H])(N([H])C([H])([H])[H])C([H])([H])[H])C(C([H])([H])[H])(C([H])([H])[H])C([H])([H])[H])C([H])([H])c2c([H])c(OC([H])([H])C([H])([H])c3c4c(c([H])c(C([H])([H])[H])c3C3([H])C([H])([H])C3([H])[H])C([H])([H])C([H])(N([H])C(=O)N3C([H])([H])C([H])([H])C([H])([H])C([H])(n5nc(-c6c([H])c([H])c(Oc7c([H])c([H])c(F)c([H])c7F)c([H])c6[H])c(C(=O)N([H])[H])c5N([H])[H])C3([H])[H])c3c([H])c(C([H])([H])[H])c([H])c([H])c3C4([H])C([H])([H])[H])c([H])c([H])c2C1([H])[H]

$$$$
14:0:0
     RDKit          3D

 96106  0  0  1  0  0  0  0  0999 V2000
  -27.9830  -22.2720   21.3660 C   0  0  0  0  0  3  0  0  0  0  0  0
  -30.2950  -22.9240   21.7800 C   0  0  0  0  0  3  0  0  0  0  0  0
  -27.6480  -23.6880   21.4780 C   0  0  0  0  0  0  0  0  0  0  0  0
  -28.5780  -24.6150   21.9450 C   0  0  0  0  0  0  0  0  0  0  0  0
  -29.9180  -24.2760   22.0520 C   0  0  0  0  0  0  0  0  0  0  0  0
  -29.3710  -21.8610   21.4560 C   0  0  0  0  0  0  0  0  0  0  0  0
  -27.9910  -25.9480   22.3020 C   0  0  0  0  0  2  0  0  0  0  0  0
  -26.5260  -25.8600   21.9000 C   0  0  0  0  0  2  0  0  0  0  0  0
  -26.4000  -24.5470   21.0990 C   0  0  2  0  0  0  0  0  0  0  0  0
  -30.9070  -25.3970   22.2920 C   0  0  0  0  0  1  0  0  0  0  0  0
  -25.0160  -23.9070   21.5250 C   0  0  0  0  0  1  0  0  0  0  0  0
  -31.5420  -18.6480   21.4970 C   0  0  0  0  0  2  0  0  0  0  0  0
  -31.3480  -20.1960   21.5300 C   0  0  0  0  0  2  0  0  0  0  0  0
  -29.3790  -19.1570   20.7590 C   0  0  0  0  0  2  0  0  0  0  0  0
  -30.5680  -18.0540   20.4640 C   0  0  0  0  0  3  0  0  0  0  0  0
  -29.9470  -20.4880   21.2350 N   0  0  0  0  0  0  0  0  0  0  0  0
  -30.9020  -15.3700   19.9250 C   0  0  0  0  0  0  0  0  0  0  0  0
  -30.6370  -13.0140   18.9860 C   0  0  0  0  0  2  0  0  0  0  0  0
  -29.6460  -12.8590   17.8090 C   0  0  0  0  0  2  0  0  0  0  0  0
  -28.2410  -12.5920   18.3620 C   0  0  0  0  0  2  0  0  0  0  0  0
  -27.8570  -13.6140   19.4610 C   0  0  0  0  0  3  0  0  0  0  0  0
  -28.9590  -13.7490   20.5420 C   0  0  0  0  0  2  0  0  0  0  0  0
  -30.2190  -14.1480   19.8800 N   0  0  0  0  0  0  0  0  0  0  0  0
  -31.9620  -15.4460   19.3000 O   0  0  0  0  0  0  0  0  0  0  0  0
  -30.4520  -16.4880   20.6680 N   0  0  0  0  0  0  0  0  0  0  0  0
  -31.1650  -16.3980   21.3850 H   0  0  0  0  0  0  0  0  0  0  0  0
  -25.5390  -14.1810   20.3940 C   0  0  0  0  0  0  0  0  0  0  0  0
  -24.4960  -13.3980   20.8000 C   0  0  0  0  0  0  0  0  0  0  0  0
  -24.9430  -12.0440   20.6630 C   0  0  0  0  0  0  0  0  0  0  0  0
  -26.5530  -13.3090   20.0360 N   0  0  0  0  0  0  0  0  0  0  0  0
  -26.2080  -12.0140   20.2600 N   0  0  0  0  0  0  0  0  0  0  0  0
  -24.2230  -10.7770   20.8330 C   0  0  0  0  0  0  0  0  0  0  0  0
  -24.6430   -9.8090   21.7730 C   0  0  0  0  0  3  0  0  0  0  0  0
  -23.9250   -8.6060   21.9320 C   0  0  0  0  0  3  0  0  0  0  0  0
  -22.7700   -8.3600   21.1520 C   0  0  0  0  0  0  0  0  0  0  0  0
  -22.3690   -9.3150   20.2010 C   0  0  0  0  0  3  0  0  0  0  0  0
  -23.0880  -10.5110   20.0400 C   0  0  0  0  0  3  0  0  0  0  0  0
  -22.0240   -7.2100   21.2220 O   0  0  0  0  0  0  0  0  0  0  0  0
  -21.8380   -6.5420   22.4040 C   0  0  0  0  0  0  0  0  0  0  0  0
  -21.2090   -7.1510   23.5120 C   0  0  0  0  0  3  0  0  0  0  0  0
  -20.9770   -6.4070   24.6860 C   0  0  0  0  0  3  0  0  0  0  0  0
  -21.3640   -5.0550   24.7530 C   0  0  0  0  0  0  0  0  0  0  0  0
  -21.9870   -4.4470   23.6490 C   0  0  0  0  0  3  0  0  0  0  0  0
  -22.2220   -5.1890   22.4760 C   0  0  0  0  0  0  0  0  0  0  0  0
  -22.8030   -4.5900   21.4080 F   0  0  0  0  0  0  0  0  0  0  0  0
  -21.1360   -4.3370   25.8770 F   0  0  0  0  0  0  0  0  0  0  0  0
  -23.1270  -13.8650   21.1980 C   0  0  0  0  0  0  0  0  0  0  0  0
  -22.4670  -13.1370   22.0870 N   0  0  0  0  0  0  0  0  0  0  0  0
  -22.6550  -14.9120   20.7510 O   0  0  0  0  0  0  0  0  0  0  0  0
  -22.8650  -12.2900   22.4650 H   0  0  0  0  0  0  0  0  0  0  0  0
  -21.5530  -13.4330   22.3990 H   0  0  0  0  0  0  0  0  0  0  0  0
  -25.7210  -15.5580   20.2840 N   0  0  0  0  0  0  0  0  0  0  0  0
  -24.9980  -16.2320   20.5050 H   0  0  0  0  0  0  0  0  0  0  0  0
  -26.5790  -15.9850   19.9590 H   0  0  0  0  0  0  0  0  0  0  0  0
  -26.4230  -25.0050   19.5730 C   0  0  0  0  0  2  0  0  0  0  0  0
  -27.1970  -26.2190   19.0020 O   0  0  0  0  0  0  0  0  0  0  0  0
  -24.4850  -31.4560   22.9080 C   0  0  0  0  0  0  0  0  0  0  0  0
  -26.3980  -27.3680   18.9250 C   0  0  0  0  0  0  0  0  0  0  0  0
  -23.0340  -30.3870   21.1970 C   0  0  0  0  0  3  0  0  0  0  0  0
  -24.2350  -29.1040   19.3610 C   0  0  0  0  0  0  0  0  0  0  0  0
  -25.5420  -30.6930   20.7620 C   0  0  0  0  0  2  0  0  0  0  0  0
  -25.4770  -29.4230   19.9370 C   0  0  0  0  0  0  0  0  0  0  0  0
  -26.5700  -28.5150   19.7610 C   0  0  0  0  0  3  0  0  0  0  0  0
  -25.2190  -27.2430   18.1700 C   0  0  0  0  0  3  0  0  0  0  0  0
  -24.1150  -28.0280   18.4790 C   0  0  0  0  0  3  0  0  0  0  0  0
  -23.0290  -29.9430   19.6930 C   0  0  0  0  0  2  0  0  0  0  0  0
  -24.3700  -30.8950   21.6690 N   0  0  0  0  0  0  0  0  0  0  0  0
  -23.4850  -31.5890   23.6410 O   0  0  0  0  0  0  0  0  0  0  0  0
  -22.4610  -29.2670   22.0920 C   0  0  0  0  0  0  0  0  0  0  0  0
  -21.1260  -29.0550   22.0160 N   0  0  0  0  0  0  0  0  0  0  0  0
  -23.1870  -28.6140   22.8400 O   0  0  0  0  0  0  0  0  0  0  0  0
  -20.5670  -29.6380   21.4130 H   0  0  0  0  0  0  0  0  0  0  0  0
  -17.8580  -27.6860   22.5720 C   0  0  0  0  0  0  0  0  0  0  0  0
  -20.4090  -28.0300   22.7690 C   0  0  0  0  0  3  0  0  0  0  0  0
  -20.5380  -26.6410   22.0940 C   0  0  0  0  0  2  0  0  0  0  0  0
  -19.4290  -26.3760   21.0760 C   0  0  0  0  0  2  0  0  0  0  0  0
  -18.0650  -26.4130   21.7700 C   0  0  0  0  0  2  0  0  0  0  0  0
  -18.9580  -28.4510   23.0350 C   0  0  0  0  0  0  0  0  0  0  0  0
  -18.7200  -29.6510   23.7350 C   0  0  0  0  0  3  0  0  0  0  0  0
  -17.4010  -30.0840   23.9870 C   0  0  0  0  0  3  0  0  0  0  0  0
  -16.3150  -29.3120   23.5430 C   0  0  0  0  0  3  0  0  0  0  0  0
  -16.5410  -28.1170   22.8420 C   0  0  0  0  0  3  0  0  0  0  0  0
  -25.8260  -32.0030   23.4670 C   0  0  0  0  0  3  0  0  0  0  0  0
  -25.5640  -33.3540   23.9530 N   0  0  0  0  0  0  0  0  0  0  0  0
  -26.0090  -34.4800   23.3650 C   0  0  0  0  0  0  0  0  0  0  0  0
  -26.6940  -34.4650   22.3210 O   0  0  0  0  0  0  0  0  0  0  0  0
  -24.8600  -33.4220   24.6790 H   0  0  0  0  0  0  0  0  0  0  0  0
  -24.4570  -36.4890   23.3680 C   0  0  0  0  0  1  0  0  0  0  0  0
  -25.6640  -35.8210   24.0560 C   0  0  0  0  0  3  0  0  0  0  0  0
  -27.9100  -36.4860   24.8360 C   0  0  0  0  0  1  0  0  0  0  0  0
  -26.7710  -36.8010   24.0010 N   0  0  0  0  0  0  0  0  0  0  0  0
  -26.4460  -37.7320   24.2140 H   0  0  0  0  0  0  0  0  0  0  0  0
  -26.4820  -31.0170   24.5390 C   0  0  1  0  0  0  0  0  0  0  0  0
  -25.5570  -30.6140   25.7110 C   0  0  0  0  0  1  0  0  0  0  0  0
  -26.9410  -29.7050   23.8580 C   0  0  0  0  0  1  0  0  0  0  0  0
  -27.7920  -31.6650   25.1020 C   0  0  0  0  0  1  0  0  0  0  0  0
  1  6  2  0
  1  3  1  0
  2  5  2  0
  3  4  2  0
  4  5  1  0
  4  7  1  0
  5 10  1  0
  6  2  1  0
  8  7  1  0
  9  3  1  0
  9 11  1  1
  9  8  1  0
 12 13  1  0
 14 16  1  0
 15 25  1  0
 15 14  1  0
 15 12  1  0
 16  6  1  0
 16 13  1  0
 17 25  1  0
 18 23  1  0
 19 20  1  0
 19 18  1  0
 21 20  1  0
 21 30  1  0
 21 22  1  0
 23 17  1  0
 23 22  1  0
 24 17  2  0
 25 26  1  0
 27 28  2  0
 28 47  1  0
 29 28  1  0
 29 32  1  0
 30 31  1  0
 30 27  1  0
 31 29  2  0
 32 33  1  0
 33 34  2  0
 35 38  1  0
 35 34  1  0
 36 35  2  0
 37 36  1  0
 37 32  2  0
 38 39  1  0
 39 44  2  0
 39 40  1  0
 40 41  2  0
 41 42  1  0
 42 46  1  0
 43 42  2  0
 44 43  1  0
 45 44  1  0
 47 48  1  0
 48 51  1  0
 48 50  1  0
 49 47  2  0
 52 27  1  0
 52 53  1  0
 54 52  1  0
 55  9  1  0
 56 55  1  0
 57 68  2  0
 58 56  1  0
 58 63  1  0
 59 67  1  0
 59 69  1  0
 60 66  1  0
 60 62  1  0
 61 67  1  0
 62 61  1  0
 63 62  2  0
 64 65  1  0
 64 58  2  0
 65 60  2  0
 66 59  1  0
 67 57  1  0
 69 71  2  0
 70 69  1  0
 72 70  1  0
 73 82  2  0
 73 78  1  0
 74 70  1  0
 74 78  1  0
 75 74  1  0
 76 77  1  0
 76 75  1  0
 77 73  1  0
 78 79  2  0
 79 80  1  0
 81 80  2  0
 82 81  1  0
 83 57  1  0
 83 84  1  0
 83 93  1  0
 84 87  1  0
 85 84  1  0
 85 89  1  0
 86 85  2  0
 89 88  1  0
 91 89  1  0
 91 92  1  0
 91 90  1  0
 93 96  1  1
 93 94  1  0
 95 93  1  0
M  ISO  4  17 100  25 100  55 101  56 101
M  END
>  <TORSDO>  (15) 
F 18

>  <SCORE>  (15) 
-13.116

>  <name>  (15) 
14

>  <ligand_id>  (15) 
14

>  <original_smiles>  (15) 
[H]c1c([H])c([H])c2c(c1[H])C([H])([H])C([H])([H])C([H])([H])C2([H])N([H])C(=O)C1([H])N(C(=O)C([H])(N([H])C(=O)C([H])(N([H])C([H])([H])[H])C([H])([H])[H])C(C([H])([H])[H])(C([H])([H])[H])C([H])([H])[H])C([H])([H])c2c([H])c(OC([H])([H])C3(C([H])([H])[H])c4c([H])c(N5C([H])([H])C([H])([H])C([H])(N([H])C(=O)N6C([H])([H])C([H])([H])C([H])([H])C([H])(n7nc(-c8c([H])c([H])c(Oc9c([H])c([H])c(F)c([H])c9F)c([H])c8[H])c(C(=O)N([H])[H])c7N([H])[H])C6([H])[H])C5([H])[H])c([H])c(C([H])([H])[H])c4C([H])([H])C3([H])[H])c([H])c([H])c2C1([H])[H]

>  <smiles>  (15) 
[H]c1c([H])c([H])c2c(c1[H])C([H])([H])C([H])([H])C([H])([H])C2([H])N([H])C(=O)C1([H])N(C(=O)C([H])(N([H])C(=O)C([H])(N([H])C([H])([H])[H])C([H])([H])[H])C(C([H])([H])[H])(C([H])([H])[H])C([H])([H])[H])C([H])([H])c2c([H])c(OC([H])([H])C3(C([H])([H])[H])c4c([H])c(N5C([H])([H])C([H])([H])C([H])(N([H])C(=O)N6C([H])([H])C([H])([H])C([H])([H])C([H])(n7nc(-c8c([H])c([H])c(Oc9c([H])c([H])c(F)c([H])c9F)c([H])c8[H])c(C(=O)N([H])[H])c7N([H])[H])C6([H])[H])C5([H])[H])c([H])c(C([H])([H])[H])c4C([H])([H])C3([H])[H])c([H])c([H])c2C1([H])[H]

$$$$
15:0:0
     RDKit          3D

103113  0  0  1  0  0  0  0  0999 V2000
  -30.1470  -17.8520   22.1670 C   0  0  0  0  0  2  0  0  0  0  0  0
  -30.7830  -18.1520   20.2420 C   0  0  0  0  0  3  0  0  0  0  0  0
  -30.9760  -16.9740   21.2280 C   0  0  0  0  0  3  0  0  0  0  0  0
  -30.7530  -19.0020   21.4650 N   0  0  1  0  0  4  0  0  0  0  0  0
  -31.6920  -19.1350   21.8020 H   0  0  0  0  0  0  0  0  0  0  0  0
  -30.9890  -14.6940   20.1590 C   0  0  0  0  0  0  0  0  0  0  0  0
  -30.6200  -12.5710   18.9460 C   0  0  0  0  0  2  0  0  0  0  0  0
  -29.6360  -12.7810   17.7760 C   0  0  0  0  0  2  0  0  0  0  0  0
  -28.1780  -12.6460   18.2570 C   0  0  0  0  0  2  0  0  0  0  0  0
  -27.8900  -13.4790   19.5330 C   0  0  0  0  0  3  0  0  0  0  0  0
  -28.9760  -13.2330   20.6040 C   0  0  0  0  0  2  0  0  0  0  0  0
  -30.2840  -13.5390   20.0020 N   0  0  0  0  0  0  0  0  0  0  0  0
  -32.0760  -14.8950   19.6130 O   0  0  0  0  0  0  0  0  0  0  0  0
  -30.3900  -15.6600   20.8860 N   0  0  0  0  0  0  0  0  0  0  0  0
  -29.4980  -15.4200   21.2930 H   0  0  0  0  0  0  0  0  0  0  0  0
  -25.5190  -14.1100   20.3090 C   0  0  0  0  0  0  0  0  0  0  0  0
  -24.4540  -13.3470   20.7100 C   0  0  0  0  0  0  0  0  0  0  0  0
  -24.9020  -11.9920   20.6650 C   0  0  0  0  0  0  0  0  0  0  0  0
  -26.5470  -13.2190   20.0490 N   0  0  0  0  0  0  0  0  0  0  0  0
  -26.1810  -11.9390   20.3180 N   0  0  0  0  0  0  0  0  0  0  0  0
  -24.1700  -10.7350   20.8730 C   0  0  0  0  0  0  0  0  0  0  0  0
  -24.5890   -9.7860   21.8310 C   0  0  0  0  0  3  0  0  0  0  0  0
  -23.8580   -8.5940   22.0260 C   0  0  0  0  0  3  0  0  0  0  0  0
  -22.6940   -8.3440   21.2610 C   0  0  0  0  0  0  0  0  0  0  0  0
  -22.2930   -9.2820   20.2940 C   0  0  0  0  0  3  0  0  0  0  0  0
  -23.0250  -10.4650   20.0970 C   0  0  0  0  0  3  0  0  0  0  0  0
  -21.9340   -7.2040   21.3650 O   0  0  0  0  0  0  0  0  0  0  0  0
  -21.8370   -6.5090   22.5430 C   0  0  0  0  0  0  0  0  0  0  0  0
  -21.3190   -7.0990   23.7160 C   0  0  0  0  0  3  0  0  0  0  0  0
  -21.1720   -6.3280   24.8870 C   0  0  0  0  0  3  0  0  0  0  0  0
  -21.5320   -4.9670   24.8840 C   0  0  0  0  0  0  0  0  0  0  0  0
  -22.0440   -4.3770   23.7150 C   0  0  0  0  0  3  0  0  0  0  0  0
  -22.1920   -5.1440   22.5470 C   0  0  0  0  0  0  0  0  0  0  0  0
  -22.6650   -4.5650   21.4180 F   0  0  0  0  0  0  0  0  0  0  0  0
  -21.3850   -4.2240   26.0060 F   0  0  0  0  0  0  0  0  0  0  0  0
  -23.0710  -13.8370   21.0230 C   0  0  0  0  0  0  0  0  0  0  0  0
  -22.3630  -13.1470   21.9110 N   0  0  0  0  0  0  0  0  0  0  0  0
  -22.6260  -14.8650   20.5150 O   0  0  0  0  0  0  0  0  0  0  0  0
  -22.7380  -12.3140   22.3400 H   0  0  0  0  0  0  0  0  0  0  0  0
  -21.4350  -13.4550   22.1640 H   0  0  0  0  0  0  0  0  0  0  0  0
  -25.6920  -15.4780   20.1240 N   0  0  0  0  0  0  0  0  0  0  0  0
  -24.9280  -16.1360   20.2310 H   0  0  0  0  0  0  0  0  0  0  0  0
  -26.5180  -15.8980   19.7190 H   0  0  0  0  0  0  0  0  0  0  0  0
  -33.2500  -18.3560   19.5590 C   0  0  0  0  0  3  0  0  0  0  0  0
  -32.5940  -19.5550   17.1140 C   0  0  0  0  0  3  0  0  0  0  0  0
  -31.8830  -18.5660   19.2440 C   0  0  0  0  0  0  0  0  0  0  0  0
  -34.2790  -18.7470   18.6750 C   0  0  0  0  0  0  0  0  0  0  0  0
  -31.5620  -19.1620   17.9940 C   0  0  0  0  0  0  0  0  0  0  0  0
  -33.9490  -19.3620   17.4480 C   0  0  0  0  0  0  0  0  0  0  0  0
  -35.7310  -18.5020   19.0570 C   0  0  0  0  0  1  0  0  0  0  0  0
  -30.1250  -19.3800   17.5460 C   0  0  0  0  0  1  0  0  0  0  0  0
  -35.0320  -19.8140   16.4790 C   0  0  0  0  0  1  0  0  0  0  0  0
  -29.9900  -20.8510   22.9690 C   0  0  0  0  0  1  0  0  0  0  0  0
  -30.0040  -20.3170   21.5140 C   0  0  0  0  0  3  0  0  0  0  0  0
  -32.1050  -21.5640   20.7370 C   0  0  0  0  0  1  0  0  0  0  0  0
  -30.5790  -21.3960   20.5130 C   0  0  0  0  0  3  0  0  0  0  0  0
  -30.3730  -23.6520   19.2280 C   0  0  0  0  0  2  0  0  0  0  0  0
  -28.3650  -22.9580   20.4790 C   0  0  0  0  0  2  0  0  0  0  0  0
  -29.9490  -25.1350   19.2990 C   0  0  0  0  0  2  0  0  0  0  0  0
  -27.9150  -24.4470   20.6040 C   0  0  0  0  0  2  0  0  0  0  0  0
  -29.9150  -22.8360   20.4660 C   0  0  0  0  0  3  0  0  0  0  0  0
  -28.4280  -25.3530   19.4520 C   0  0  0  0  0  3  0  0  0  0  0  0
  -28.3100  -26.7660   19.7080 O   0  0  0  0  0  0  0  0  0  0  0  0
  -24.5110  -31.7130   23.1100 C   0  0  0  0  0  0  0  0  0  0  0  0
  -27.0980  -27.4350   19.7400 C   0  0  0  0  0  0  0  0  0  0  0  0
  -23.2630  -30.3790   21.4380 C   0  0  0  0  0  3  0  0  0  0  0  0
  -24.6840  -28.9170   19.8960 C   0  0  0  0  0  0  0  0  0  0  0  0
  -25.7740  -30.7670   21.1770 C   0  0  0  0  0  2  0  0  0  0  0  0
  -25.8520  -29.4260   20.4740 C   0  0  0  0  0  0  0  0  0  0  0  0
  -27.0570  -28.6940   20.3890 C   0  0  0  0  0  3  0  0  0  0  0  0
  -25.9120  -26.9420   19.1520 C   0  0  0  0  0  3  0  0  0  0  0  0
  -24.7100  -27.6770   19.2310 C   0  0  0  0  0  3  0  0  0  0  0  0
  -23.4320  -29.7590   20.0240 C   0  0  0  0  0  2  0  0  0  0  0  0
  -24.5370  -30.9650   21.9680 N   0  0  0  0  0  0  0  0  0  0  0  0
  -23.4460  -31.9560   23.6950 O   0  0  0  0  0  0  0  0  0  0  0  0
  -22.6460  -29.3160   22.3730 C   0  0  0  0  0  0  0  0  0  0  0  0
  -21.3250  -29.1080   22.2510 N   0  0  0  0  0  0  0  0  0  0  0  0
  -23.3530  -28.6800   23.1600 O   0  0  0  0  0  0  0  0  0  0  0  0
  -20.8160  -29.6710   21.5840 H   0  0  0  0  0  0  0  0  0  0  0  0
  -17.9920  -27.8000   22.7160 C   0  0  0  0  0  0  0  0  0  0  0  0
  -20.5390  -28.1270   22.9980 C   0  0  0  0  0  3  0  0  0  0  0  0
  -20.6870  -26.7160   22.3860 C   0  0  0  0  0  2  0  0  0  0  0  0
  -19.5980  -26.3900   21.3600 C   0  0  0  0  0  2  0  0  0  0  0  0
  -18.2100  -26.4780   22.0000 C   0  0  0  0  0  2  0  0  0  0  0  0
  -19.0850  -28.5830   23.1690 C   0  0  0  0  0  0  0  0  0  0  0  0
  -18.8280  -29.8240   23.7920 C   0  0  0  0  0  3  0  0  0  0  0  0
  -17.5090  -30.2790   23.9730 C   0  0  0  0  0  3  0  0  0  0  0  0
  -16.4280  -29.4930   23.5380 C   0  0  0  0  0  3  0  0  0  0  0  0
  -16.6710  -28.2560   22.9140 C   0  0  0  0  0  3  0  0  0  0  0  0
  -25.8120  -32.3240   23.7200 C   0  0  0  0  0  3  0  0  0  0  0  0
  -26.3690  -31.5020   24.9490 C   0  0  1  0  0  0  0  0  0  0  0  0
  -25.3110  -31.2150   26.0390 C   0  0  0  0  0  1  0  0  0  0  0  0
  -26.9380  -30.1410   24.4840 C   0  0  0  0  0  1  0  0  0  0  0  0
  -27.5390  -32.2730   25.6070 C   0  0  0  0  0  1  0  0  0  0  0  0
  -25.5120  -33.7080   24.1100 N   0  0  0  0  0  0  0  0  0  0  0  0
  -25.8210  -34.7880   23.3800 C   0  0  0  0  0  0  0  0  0  0  0  0
  -26.4620  -34.7250   22.3290 O   0  0  0  0  0  0  0  0  0  0  0  0
  -24.9390  -33.8310   24.9310 H   0  0  0  0  0  0  0  0  0  0  0  0
  -24.0750  -36.5900   23.1500 C   0  0  0  0  0  1  0  0  0  0  0  0
  -25.3440  -36.1570   23.9040 C   0  0  0  0  0  3  0  0  0  0  0  0
  -27.4950  -37.0300   24.7060 C   0  0  0  0  0  1  0  0  0  0  0  0
  -26.3680  -37.2190   23.7970 N   0  0  0  0  0  0  0  0  0  0  0  0
  -25.9580  -38.1300   23.9860 H   0  0  0  0  0  0  0  0  0  0  0  0
  2 46  1  0
  2  3  1  0
  2  4  1  0
  3 14  1  0
  3  1  1  0
  4 54  1  0
  4  5  1  1
  4  1  1  0
  6 14  1  0
  7 12  1  0
  8  9  1  0
  8  7  1  0
 10  9  1  0
 10 19  1  0
 10 11  1  0
 12  6  1  0
 12 11  1  0
 13  6  2  0
 14 15  1  0
 16 17  2  0
 17 36  1  0
 18 17  1  0
 18 21  1  0
 19 16  1  0
 19 20  1  0
 20 18  2  0
 21 22  1  0
 22 23  2  0
 24 27  1  0
 24 23  1  0
 25 24  2  0
 26 25  1  0
 26 21  2  0
 27 28  1  0
 28 33  2  0
 28 29  1  0
 29 30  2  0
 31 30  1  0
 31 35  1  0
 32 31  2  0
 33 32  1  0
 34 33  1  0
 36 37  1  0
 37 40  1  0
 37 39  1  0
 38 36  2  0
 41 42  1  0
 41 16  1  0
 43 41  1  0
 45 49  2  0
 45 48  1  0
 46 44  1  0
 47 50  1  0
 47 44  2  0
 48 46  2  0
 49 47  1  0
 51 48  1  0
 52 49  1  0
 54 53  1  0
 56 55  1  0
 56 54  1  0
 57 59  1  0
 57 61  1  0
 58 60  1  0
 59 62  1  0
 61 58  1  0
 61 56  1  0
 62 63  1  0
 62 60  1  0
 63 65  1  0
 64 75  2  0
 65 70  1  0
 66 74  1  0
 66 76  1  0
 67 73  1  0
 67 69  1  0
 68 74  1  0
 69 68  1  0
 70 69  2  0
 71 72  1  0
 71 65  2  0
 72 67  2  0
 73 66  1  0
 74 64  1  0
 76 78  2  0
 77 76  1  0
 79 77  1  0
 80 89  2  0
 80 85  1  0
 81 77  1  0
 81 85  1  0
 82 81  1  0
 83 84  1  0
 83 82  1  0
 84 80  1  0
 85 86  2  0
 86 87  1  0
 88 87  2  0
 89 88  1  0
 90 64  1  0
 90 95  1  0
 90 91  1  0
 91 94  1  1
 91 92  1  0
 93 91  1  0
 95 98  1  0
 96100  1  0
 96 95  1  0
 97 96  2  0
100 99  1  0
102100  1  0
102103  1  0
102101  1  0
M  ISO  4   6 100  14 100  62 101  63 101
M  END
>  <TORSDO>  (16) 
F 20

>  <SCORE>  (16) 
-13.368

>  <name>  (16) 
15

>  <ligand_id>  (16) 
15

>  <original_smiles>  (16) 
[H]c1c([H])c([H])c2c(c1[H])C([H])([H])C([H])([H])C([H])([H])C2([H])N([H])C(=O)C1([H])N(C(=O)C([H])(N([H])C(=O)C([H])(N([H])C([H])([H])[H])C([H])([H])[H])C(C([H])([H])[H])(C([H])([H])[H])C([H])([H])[H])C([H])([H])c2c([H])c(OC3([H])C([H])([H])C([H])([H])C([H])(C([H])(C([H])([H])[H])C([H])(C([H])([H])[H])[N+]4([H])C([H])([H])C([H])(N([H])C(=O)N5C([H])([H])C([H])([H])C([H])([H])C([H])(n6nc(-c7c([H])c([H])c(Oc8c([H])c([H])c(F)c([H])c8F)c([H])c7[H])c(C(=O)N([H])[H])c6N([H])[H])C5([H])[H])C4([H])c4c([H])c(C([H])([H])[H])c(C([H])([H])[H])c([H])c4C([H])([H])[H])C([H])([H])C3([H])[H])c([H])c([H])c2C1([H])[H]

>  <smiles>  (16) 
[H]c1c([H])c([H])c2c(c1[H])C([H])([H])C([H])([H])C([H])([H])C2([H])N([H])C(=O)C1([H])N(C(=O)C([H])(N([H])C(=O)C([H])(N([H])C([H])([H])[H])C([H])([H])[H])C(C([H])([H])[H])(C([H])([H])[H])C([H])([H])[H])C([H])([H])c2c([H])c(OC3([H])C([H])([H])C([H])([H])C([H])(C([H])(C([H])([H])[H])C([H])(C([H])([H])[H])[N+]4([H])C([H])([H])C([H])(N([H])C(=O)N5C([H])([H])C([H])([H])C([H])([H])C([H])(n6nc(-c7c([H])c([H])c(Oc8c([H])c([H])c(F)c([H])c8F)c([H])c7[H])c(C(=O)N([H])[H])c6N([H])[H])C5([H])[H])C4([H])c4c([H])c(C([H])([H])[H])c(C([H])([H])[H])c([H])c4C([H])([H])[H])C([H])([H])C3([H])[H])c([H])c([H])c2C1([H])[H]

$$$$
16:0:0
     RDKit          3D

 90 99  0  0  1  0  0  0  0  0999 V2000
  -30.5380  -21.1370   20.8440 C   0  0  0  0  0  3  0  0  0  0  0  0
  -29.9170  -19.9130   20.3880 C   0  0  0  0  0  0  0  0  0  0  0  0
  -29.9700  -22.4880   20.7330 C   0  0  0  0  0  0  0  0  0  0  0  0
  -28.6690  -20.2140   19.8050 C   0  0  0  0  0  0  0  0  0  0  0  0
  -28.6900  -22.7720   20.1380 C   0  0  0  0  0  0  0  0  0  0  0  0
  -30.5570  -18.3660   20.4830 C   0  0  0  0  0  2  0  0  0  0  0  0
  -27.9360  -18.9130   19.3250 C   0  0  0  0  0  2  0  0  0  0  0  0
  -28.7590  -17.5150   19.1020 C   0  0  0  0  0  2  0  0  0  0  0  0
  -29.7170  -16.9150   20.2320 C   0  0  2  0  0  0  0  0  0  0  0  0
  -30.7720  -23.6550   21.2750 C   0  0  0  0  0  1  0  0  0  0  0  0
  -28.8720  -16.7290   21.5070 C   0  0  0  0  0  1  0  0  0  0  0  0
  -28.1080  -21.5400   19.6980 N   0  0  0  0  0  0  0  0  0  0  0  0
  -30.4990  -15.3470   19.9430 C   0  0  0  0  0  0  0  0  0  0  0  0
  -30.5160  -12.8930   19.0840 C   0  0  0  0  0  2  0  0  0  0  0  0
  -29.5380  -12.6690   17.9010 C   0  0  0  0  0  2  0  0  0  0  0  0
  -28.1160  -12.3630   18.4080 C   0  0  0  0  0  2  0  0  0  0  0  0
  -27.7010  -13.3110   19.5590 C   0  0  0  0  0  3  0  0  0  0  0  0
  -28.8030  -13.4560   20.6280 C   0  0  0  0  0  2  0  0  0  0  0  0
  -29.9930  -14.0110   19.9560 N   0  0  0  0  0  0  0  0  0  0  0  0
  -31.6900  -15.3650   19.5970 O   0  0  0  0  0  0  0  0  0  0  0  0
  -25.3720  -13.8150   20.4720 C   0  0  0  0  0  0  0  0  0  0  0  0
  -24.3420  -13.0110   20.8730 C   0  0  0  0  0  0  0  0  0  0  0  0
  -24.8190  -11.6690   20.7630 C   0  0  0  0  0  0  0  0  0  0  0  0
  -26.4080  -12.9610   20.1320 N   0  0  0  0  0  0  0  0  0  0  0  0
  -26.0910  -11.6620   20.3740 N   0  0  0  0  0  0  0  0  0  0  0  0
  -24.1160  -10.3920   20.9470 C   0  0  0  0  0  0  0  0  0  0  0  0
  -24.5560   -9.4340   21.8870 C   0  0  0  0  0  3  0  0  0  0  0  0
  -23.8490   -8.2240   22.0600 C   0  0  0  0  0  3  0  0  0  0  0  0
  -22.6880   -7.9640   21.2940 C   0  0  0  0  0  0  0  0  0  0  0  0
  -22.2670   -8.9110   20.3450 C   0  0  0  0  0  3  0  0  0  0  0  0
  -22.9750  -10.1110   20.1690 C   0  0  0  0  0  3  0  0  0  0  0  0
  -21.9530   -6.8050   21.3760 O   0  0  0  0  0  0  0  0  0  0  0  0
  -21.8200   -6.1200   22.5570 C   0  0  0  0  0  0  0  0  0  0  0  0
  -21.2550   -6.7160   23.7060 C   0  0  0  0  0  3  0  0  0  0  0  0
  -21.0730   -5.9540   24.8770 C   0  0  0  0  0  3  0  0  0  0  0  0
  -21.4440   -4.5980   24.9000 C   0  0  0  0  0  0  0  0  0  0  0  0
  -22.0020   -4.0000   23.7560 C   0  0  0  0  0  3  0  0  0  0  0  0
  -22.1850   -4.7590   22.5870 C   0  0  0  0  0  0  0  0  0  0  0  0
  -22.7030   -4.1730   21.4810 F   0  0  0  0  0  0  0  0  0  0  0  0
  -21.2630   -3.8630   26.0230 F   0  0  0  0  0  0  0  0  0  0  0  0
  -22.9580  -13.4620   21.2390 C   0  0  0  0  0  0  0  0  0  0  0  0
  -22.2920  -12.7340   22.1280 N   0  0  0  0  0  0  0  0  0  0  0  0
  -22.4790  -14.4950   20.7740 O   0  0  0  0  0  0  0  0  0  0  0  0
  -22.6950  -11.8990   22.5270 H   0  0  0  0  0  0  0  0  0  0  0  0
  -21.3660  -13.0170   22.4150 H   0  0  0  0  0  0  0  0  0  0  0  0
  -25.5090  -15.1930   20.3380 N   0  0  0  0  0  0  0  0  0  0  0  0
  -24.7410  -15.8280   20.5260 H   0  0  0  0  0  0  0  0  0  0  0  0
  -26.3330  -15.6590   19.9870 H   0  0  0  0  0  0  0  0  0  0  0  0
  -27.8790  -24.3220   19.9680 C   0  0  0  0  0  2  0  0  0  0  0  0
  -28.2210  -25.8980   20.2800 O   0  0  0  0  0  0  0  0  0  0  0  0
  -24.6890  -31.8710   23.2660 C   0  0  0  0  0  0  0  0  0  0  0  0
  -27.2320  -27.0140   20.2120 C   0  0  0  0  0  0  0  0  0  0  0  0
  -23.4950  -30.4970   21.6090 C   0  0  0  0  0  3  0  0  0  0  0  0
  -24.9420  -28.9030   20.1760 C   0  0  0  0  0  0  0  0  0  0  0  0
  -26.0630  -30.6980   21.4770 C   0  0  0  0  0  2  0  0  0  0  0  0
  -26.1290  -29.2950   20.8060 C   0  0  0  0  0  0  0  0  0  0  0  0
  -27.2700  -28.3720   20.8010 C   0  0  0  0  0  3  0  0  0  0  0  0
  -26.0150  -26.7780   19.5320 C   0  0  0  0  0  3  0  0  0  0  0  0
  -24.9100  -27.6650   19.5180 C   0  0  0  0  0  3  0  0  0  0  0  0
  -23.7260  -29.8280   20.2280 C   0  0  0  0  0  2  0  0  0  0  0  0
  -24.7700  -31.0480   22.1710 N   0  0  0  0  0  0  0  0  0  0  0  0
  -23.5990  -32.1610   23.7850 O   0  0  0  0  0  0  0  0  0  0  0  0
  -22.7910  -29.4950   22.5620 C   0  0  0  0  0  0  0  0  0  0  0  0
  -21.4640  -29.3210   22.4130 N   0  0  0  0  0  0  0  0  0  0  0  0
  -23.4460  -28.8750   23.4030 O   0  0  0  0  0  0  0  0  0  0  0  0
  -20.9890  -29.8740   21.7130 H   0  0  0  0  0  0  0  0  0  0  0  0
  -18.0830  -28.0830   22.8560 C   0  0  0  0  0  0  0  0  0  0  0  0
  -20.6350  -28.3770   23.1700 C   0  0  0  0  0  3  0  0  0  0  0  0
  -20.7620  -26.9450   22.6020 C   0  0  0  0  0  2  0  0  0  0  0  0
  -19.6840  -26.6070   21.5670 C   0  0  0  0  0  2  0  0  0  0  0  0
  -18.2880  -26.7360   22.1830 C   0  0  0  0  0  2  0  0  0  0  0  0
  -19.1840  -28.8600   23.3050 C   0  0  0  0  0  0  0  0  0  0  0  0
  -18.9370  -30.1180   23.8960 C   0  0  0  0  0  3  0  0  0  0  0  0
  -17.6220  -30.6000   24.0410 C   0  0  0  0  0  3  0  0  0  0  0  0
  -16.5360  -29.8210   23.6060 C   0  0  0  0  0  3  0  0  0  0  0  0
  -16.7660  -28.5640   23.0200 C   0  0  0  0  0  3  0  0  0  0  0  0
  -25.9610  -32.5000   23.9100 C   0  0  0  0  0  3  0  0  0  0  0  0
  -25.6580  -33.9050   24.2310 N   0  0  0  0  0  0  0  0  0  0  0  0
  -25.9830  -34.9550   23.4650 C   0  0  0  0  0  0  0  0  0  0  0  0
  -26.6310  -34.8420   22.4220 O   0  0  0  0  0  0  0  0  0  0  0  0
  -25.0790  -34.0670   25.0430 H   0  0  0  0  0  0  0  0  0  0  0  0
  -24.2430  -36.7520   23.1640 C   0  0  0  0  0  1  0  0  0  0  0  0
  -25.5170  -36.3520   23.9270 C   0  0  0  0  0  3  0  0  0  0  0  0
  -27.6800  -37.2530   24.6650 C   0  0  0  0  0  1  0  0  0  0  0  0
  -26.5450  -37.4030   23.7580 N   0  0  0  0  0  0  0  0  0  0  0  0
  -26.1430  -38.3250   23.9020 H   0  0  0  0  0  0  0  0  0  0  0  0
  -26.4380  -31.7380   25.2090 C   0  0  1  0  0  0  0  0  0  0  0  0
  -25.3180  -31.5250   26.2540 C   0  0  0  0  0  1  0  0  0  0  0  0
  -27.0150  -30.3480   24.8540 C   0  0  0  0  0  1  0  0  0  0  0  0
  -27.5830  -32.5270   25.8870 C   0  0  0  0  0  1  0  0  0  0  0  0
  2  6  1  0
  2  1  2  0
  3  1  1  0
  3 10  1  0
  4  2  1  0
  5  3  2  0
  7  4  1  0
  8  7  1  0
  8  9  1  0
  9  6  1  0
  9 11  1  1
 12  4  2  0
 12  5  1  0
 13 19  1  0
 13  9  1  0
 14 19  1  0
 15 16  1  0
 15 14  1  0
 17 16  1  0
 17 24  1  0
 17 18  1  0
 19 18  1  0
 20 13  2  0
 21 22  2  0
 22 41  1  0
 23 22  1  0
 23 26  1  0
 24 25  1  0
 24 21  1  0
 25 23  2  0
 26 27  1  0
 27 28  2  0
 29 32  1  0
 29 28  1  0
 30 29  2  0
 31 30  1  0
 31 26  2  0
 32 33  1  0
 33 38  2  0
 33 34  1  0
 34 35  2  0
 35 36  1  0
 36 40  1  0
 37 36  2  0
 38 37  1  0
 39 38  1  0
 41 42  1  0
 42 45  1  0
 42 44  1  0
 43 41  2  0
 46 21  1  0
 46 47  1  0
 48 46  1  0
 49  5  1  0
 49 50  1  0
 51 62  2  0
 52 50  1  0
 52 57  1  0
 53 61  1  0
 53 63  1  0
 54 60  1  0
 54 56  1  0
 55 61  1  0
 56 55  1  0
 57 56  2  0
 58 52  2  0
 59 58  1  0
 59 54  2  0
 60 53  1  0
 61 51  1  0
 63 65  2  0
 64 63  1  0
 66 64  1  0
 67 76  2  0
 67 72  1  0
 68 64  1  0
 68 72  1  0
 69 68  1  0
 70 71  1  0
 70 69  1  0
 71 67  1  0
 72 73  2  0
 73 74  1  0
 75 74  2  0
 76 75  1  0
 77 51  1  0
 77 78  1  0
 77 87  1  0
 78 81  1  0
 79 83  1  0
 79 78  1  0
 80 79  2  0
 83 82  1  0
 85 86  1  0
 85 83  1  0
 85 84  1  0
 87 90  1  1
 87 88  1  0
 89 87  1  0
M  ISO  4   9 100  13 100  49 101  50 101
M  END
>  <TORSDO>  (17) 
F 17

>  <SCORE>  (17) 
-15.777

>  <name>  (17) 
16

>  <ligand_id>  (17) 
16

>  <original_smiles>  (17) 
[H]c1c([H])c([H])c2c(c1[H])C([H])([H])C([H])([H])C([H])([H])C2([H])N([H])C(=O)C1([H])N(C(=O)C([H])(N([H])C(=O)C([H])(N([H])C([H])([H])[H])C([H])([H])[H])C(C([H])([H])[H])(C([H])([H])[H])C([H])([H])[H])C([H])([H])c2c([H])c(OC([H])([H])c3nc4c(c([H])c3C([H])([H])[H])C([H])([H])C(C(=O)N3C([H])([H])C([H])([H])C([H])([H])C([H])(n5nc(-c6c([H])c([H])c(Oc7c([H])c([H])c(F)c([H])c7F)c([H])c6[H])c(C(=O)N([H])[H])c5N([H])[H])C3([H])[H])(C([H])([H])[H])C([H])([H])C4([H])[H])c([H])c([H])c2C1([H])[H]

>  <smiles>  (17) 
[H]c1c([H])c([H])c2c(c1[H])C([H])([H])C([H])([H])C([H])([H])C2([H])N([H])C(=O)C1([H])N(C(=O)C([H])(N([H])C(=O)C([H])(N([H])C([H])([H])[H])C([H])([H])[H])C(C([H])([H])[H])(C([H])([H])[H])C([H])([H])[H])C([H])([H])c2c([H])c(OC([H])([H])c3nc4c(c([H])c3C([H])([H])[H])C([H])([H])C(C(=O)N3C([H])([H])C([H])([H])C([H])([H])C([H])(n5nc(-c6c([H])c([H])c(Oc7c([H])c([H])c(F)c([H])c7F)c([H])c6[H])c(C(=O)N([H])[H])c5N([H])[H])C3([H])[H])(C([H])([H])[H])C([H])([H])C4([H])[H])c([H])c([H])c2C1([H])[H]

$$$$
17:0:0
     RDKit          3D

 95104  0  0  1  0  0  0  0  0999 V2000
  -31.0720  -21.5970   19.7990 C   0  0  0  0  0  2  0  0  0  0  0  0
  -30.9720  -20.0680   19.8460 C   0  0  0  0  0  2  0  0  0  0  0  0
  -30.2990  -22.1090   21.0210 C   0  0  0  0  0  3  0  0  0  0  0  0
  -29.8370  -20.8090   21.7350 C   0  0  0  0  0  3  0  0  0  0  0  0
  -29.8810  -20.9510   23.2660 C   0  0  0  0  0  1  0  0  0  0  0  0
  -30.7630  -19.7720   21.2600 N   0  0  0  0  0  0  0  0  0  0  0  0
  -30.6700  -14.5540   20.2060 C   0  0  0  0  0  0  0  0  0  0  0  0
  -30.2360  -12.4740   18.9350 C   0  0  0  0  0  2  0  0  0  0  0  0
  -29.2380  -12.7230   17.7860 C   0  0  0  0  0  2  0  0  0  0  0  0
  -27.7910  -12.5490   18.2810 C   0  0  0  0  0  2  0  0  0  0  0  0
  -27.5190  -13.3420   19.5840 C   0  0  0  0  0  3  0  0  0  0  0  0
  -28.6280  -13.0910   20.6360 C   0  0  0  0  0  2  0  0  0  0  0  0
  -29.9280  -13.4190   20.0280 N   0  0  0  0  0  0  0  0  0  0  0  0
  -31.7110  -14.7430   19.5670 O   0  0  0  0  0  0  0  0  0  0  0  0
  -29.3320  -17.6900   20.7950 C   0  0  0  0  0  2  0  0  0  0  0  0
  -31.7140  -17.4840   21.5440 C   0  0  0  0  0  2  0  0  0  0  0  0
  -29.1000  -16.2240   21.2450 C   0  0  0  0  0  2  0  0  0  0  0  0
  -31.3950  -16.0470   22.0240 C   0  0  0  0  0  2  0  0  0  0  0  0
  -30.4550  -18.3680   21.6120 C   0  0  0  0  0  3  0  0  0  0  0  0
  -30.3370  -15.4120   21.2140 N   0  0  0  0  0  0  0  0  0  0  0  0
  -25.1590  -13.9410   20.4190 C   0  0  0  0  0  0  0  0  0  0  0  0
  -24.1110  -13.1620   20.8290 C   0  0  0  0  0  0  0  0  0  0  0  0
  -24.5710  -11.8120   20.7560 C   0  0  0  0  0  0  0  0  0  0  0  0
  -26.1920  -13.0630   20.1250 N   0  0  0  0  0  0  0  0  0  0  0  0
  -25.8450  -11.7770   20.3860 N   0  0  0  0  0  0  0  0  0  0  0  0
  -23.8560  -10.5460   20.9610 C   0  0  0  0  0  0  0  0  0  0  0  0
  -24.3150   -9.5820   21.8860 C   0  0  0  0  0  3  0  0  0  0  0  0
  -23.6000   -8.3810   22.0810 C   0  0  0  0  0  3  0  0  0  0  0  0
  -22.4140   -8.1350   21.3500 C   0  0  0  0  0  0  0  0  0  0  0  0
  -21.9750   -9.0870   20.4140 C   0  0  0  0  0  3  0  0  0  0  0  0
  -22.6890  -10.2810   20.2180 C   0  0  0  0  0  3  0  0  0  0  0  0
  -21.6680   -6.9860   21.4550 O   0  0  0  0  0  0  0  0  0  0  0  0
  -21.6320   -6.2540   22.6140 C   0  0  0  0  0  0  0  0  0  0  0  0
  -21.2080   -6.8180   23.8380 C   0  0  0  0  0  3  0  0  0  0  0  0
  -21.1170   -6.0120   24.9900 C   0  0  0  0  0  3  0  0  0  0  0  0
  -21.4390   -4.6440   24.9210 C   0  0  0  0  0  0  0  0  0  0  0  0
  -21.8560   -4.0800   23.7020 C   0  0  0  0  0  3  0  0  0  0  0  0
  -21.9480   -4.8820   22.5510 C   0  0  0  0  0  0  0  0  0  0  0  0
  -22.3300   -4.3290   21.3740 F   0  0  0  0  0  0  0  0  0  0  0  0
  -21.3450   -3.8660   26.0250 F   0  0  0  0  0  0  0  0  0  0  0  0
  -22.7260  -13.6340   21.1700 C   0  0  0  0  0  0  0  0  0  0  0  0
  -22.0370  -12.9220   22.0560 N   0  0  0  0  0  0  0  0  0  0  0  0
  -22.2640  -14.6650   20.6850 O   0  0  0  0  0  0  0  0  0  0  0  0
  -22.4240  -12.0890   22.4750 H   0  0  0  0  0  0  0  0  0  0  0  0
  -21.1070  -13.2180   22.3220 H   0  0  0  0  0  0  0  0  0  0  0  0
  -25.3070  -15.3140   20.2510 N   0  0  0  0  0  0  0  0  0  0  0  0
  -24.5310  -15.9510   20.3980 H   0  0  0  0  0  0  0  0  0  0  0  0
  -26.1280  -15.7690   19.8730 H   0  0  0  0  0  0  0  0  0  0  0  0
  -29.1580  -22.9880   20.6390 N   0  0  0  0  0  4  0  0  0  0  0  0
  -28.3430  -22.6600   21.1340 H   0  0  0  0  0  0  0  0  0  0  0  0
  -28.9840  -22.8290   19.6590 H   0  0  0  0  0  0  0  0  0  0  0  0
  -29.3240  -24.7570   22.4050 C   0  0  0  0  0  1  0  0  0  0  0  0
  -29.3120  -24.4610   20.8860 C   0  0  0  0  0  3  0  0  0  0  0  0
  -28.1840  -25.2680   20.1730 C   0  0  0  0  0  2  0  0  0  0  0  0
  -28.3510  -26.7050   20.2110 O   0  0  0  0  0  0  0  0  0  0  0  0
  -24.5610  -31.9200   23.2140 C   0  0  0  0  0  0  0  0  0  0  0  0
  -27.1920  -27.4620   20.1400 C   0  0  0  0  0  0  0  0  0  0  0  0
  -23.3450  -30.5090   21.5880 C   0  0  0  0  0  3  0  0  0  0  0  0
  -24.7930  -28.9770   20.1460 C   0  0  0  0  0  0  0  0  0  0  0  0
  -25.8690  -30.8770   21.3630 C   0  0  0  0  0  2  0  0  0  0  0  0
  -25.9550  -29.5040   20.7260 C   0  0  0  0  0  0  0  0  0  0  0  0
  -27.1570  -28.7570   20.7130 C   0  0  0  0  0  3  0  0  0  0  0  0
  -26.0140  -26.9700   19.5270 C   0  0  0  0  0  3  0  0  0  0  0  0
  -24.8200  -27.7130   19.5390 C   0  0  0  0  0  3  0  0  0  0  0  0
  -23.5450  -29.8290   20.2060 C   0  0  0  0  0  2  0  0  0  0  0  0
  -24.6100  -31.1170   22.1130 N   0  0  0  0  0  0  0  0  0  0  0  0
  -23.4840  -32.1870   23.7650 O   0  0  0  0  0  0  0  0  0  0  0  0
  -22.7090  -29.4860   22.5570 C   0  0  0  0  0  0  0  0  0  0  0  0
  -21.3840  -29.2940   22.4410 N   0  0  0  0  0  0  0  0  0  0  0  0
  -23.4020  -28.8690   23.3700 O   0  0  0  0  0  0  0  0  0  0  0  0
  -20.8840  -29.8470   21.7580 H   0  0  0  0  0  0  0  0  0  0  0  0
  -18.0210  -28.0790   22.9700 C   0  0  0  0  0  0  0  0  0  0  0  0
  -20.5790  -28.3540   23.2210 C   0  0  0  0  0  3  0  0  0  0  0  0
  -20.6860  -26.9210   22.6500 C   0  0  0  0  0  2  0  0  0  0  0  0
  -19.5790  -26.5890   21.6450 C   0  0  0  0  0  2  0  0  0  0  0  0
  -18.2000  -26.7290   22.2970 C   0  0  0  0  0  2  0  0  0  0  0  0
  -19.1380  -28.8500   23.3880 C   0  0  0  0  0  0  0  0  0  0  0  0
  -18.9160  -30.1140   23.9750 C   0  0  0  0  0  3  0  0  0  0  0  0
  -17.6100  -30.6090   24.1490 C   0  0  0  0  0  3  0  0  0  0  0  0
  -16.5080  -29.8360   23.7460 C   0  0  0  0  0  3  0  0  0  0  0  0
  -16.7130  -28.5730   23.1630 C   0  0  0  0  0  3  0  0  0  0  0  0
  -25.8510  -32.5590   23.8190 C   0  0  0  0  0  3  0  0  0  0  0  0
  -26.3850  -31.7930   25.0910 C   0  0  1  0  0  0  0  0  0  0  0  0
  -25.3080  -31.5530   26.1740 C   0  0  0  0  0  1  0  0  0  0  0  0
  -26.9680  -30.4170   24.6940 C   0  0  0  0  0  1  0  0  0  0  0  0
  -27.5400  -32.5940   25.7370 C   0  0  0  0  0  1  0  0  0  0  0  0
  -25.5420  -33.9570   24.1450 N   0  0  0  0  0  0  0  0  0  0  0  0
  -25.8500  -35.0050   23.3680 C   0  0  0  0  0  0  0  0  0  0  0  0
  -26.4980  -34.8970   22.3230 O   0  0  0  0  0  0  0  0  0  0  0  0
  -24.9650  -34.1160   24.9580 H   0  0  0  0  0  0  0  0  0  0  0  0
  -24.0950  -36.7780   23.0410 C   0  0  0  0  0  1  0  0  0  0  0  0
  -25.3610  -36.3940   23.8230 C   0  0  0  0  0  3  0  0  0  0  0  0
  -27.5140  -37.3020   24.5810 C   0  0  0  0  0  1  0  0  0  0  0  0
  -26.3790  -37.4570   23.6750 N   0  0  0  0  0  0  0  0  0  0  0  0
  -25.9680  -38.3720   23.8380 H   0  0  0  0  0  0  0  0  0  0  0  0
  1  2  1  0
  1  3  1  0
  3 49  1  0
  3  4  1  0
  4  5  1  0
  6  2  1  0
  6 19  1  0
  6  4  1  0
  7 20  1  0
  8 13  1  0
  9 10  1  0
  9  8  1  0
 11 10  1  0
 11 24  1  0
 11 12  1  0
 13  7  1  0
 13 12  1  0
 14  7  2  0
 15 17  1  0
 16 19  1  0
 16 18  1  0
 19 15  1  0
 20 17  1  0
 20 18  1  0
 21 22  2  0
 22 41  1  0
 23 22  1  0
 23 26  1  0
 24 25  1  0
 24 21  1  0
 25 23  2  0
 26 27  1  0
 27 28  2  0
 29 32  1  0
 29 28  1  0
 30 29  2  0
 31 30  1  0
 31 26  2  0
 32 33  1  0
 33 34  1  0
 34 35  2  0
 36 35  1  0
 36 40  1  0
 37 36  2  0
 38 33  2  0
 38 37  1  0
 39 38  1  0
 41 42  1  0
 42 45  1  0
 42 44  1  0
 43 41  2  0
 46 47  1  0
 46 21  1  0
 48 46  1  0
 49 53  1  0
 49 50  1  0
 51 49  1  0
 53 52  1  0
 54 55  1  0
 54 53  1  0
 56 67  2  0
 57 55  1  0
 57 62  1  0
 58 66  1  0
 58 68  1  0
 59 65  1  0
 59 61  1  0
 60 66  1  0
 61 60  1  0
 62 61  2  0
 63 64  1  0
 63 57  2  0
 64 59  2  0
 65 58  1  0
 66 56  1  0
 68 70  2  0
 69 68  1  0
 71 69  1  0
 72 81  2  0
 72 77  1  0
 73 69  1  0
 73 77  1  0
 74 73  1  0
 75 76  1  0
 75 74  1  0
 76 72  1  0
 77 78  2  0
 78 79  1  0
 80 79  2  0
 81 80  1  0
 82 56  1  0
 82 87  1  0
 82 83  1  0
 83 86  1  1
 83 84  1  0
 85 83  1  0
 87 90  1  0
 88 92  1  0
 88 87  1  0
 89 88  2  0
 92 91  1  0
 94 92  1  0
 94 95  1  0
 94 93  1  0
M  ISO  4   7 100  20 100  54 101  55 101
M  END
>  <TORSDO>  (18) 
F 19

>  <SCORE>  (18) 
-13.551

>  <name>  (18) 
17

>  <ligand_id>  (18) 
17

>  <original_smiles>  (18) 
[H]c1c([H])c([H])c2c(c1[H])C([H])([H])C([H])([H])C([H])([H])C2([H])N([H])C(=O)C1([H])N(C(=O)C([H])(N([H])C(=O)C([H])(N([H])C([H])([H])[H])C([H])([H])[H])C(C([H])([H])[H])(C([H])([H])[H])C([H])([H])[H])C([H])([H])c2c([H])c(OC([H])([H])C([H])(C([H])([H])[H])[N+]([H])([H])C3([H])C([H])([H])C([H])([H])N(C4([H])C([H])([H])C([H])([H])N(C(=O)N5C([H])([H])C([H])([H])C([H])([H])C([H])(n6nc(-c7c([H])c([H])c(Oc8c([H])c([H])c(F)c([H])c8F)c([H])c7[H])c(C(=O)N([H])[H])c6N([H])[H])C5([H])[H])C([H])([H])C4([H])[H])C3([H])C([H])([H])[H])c([H])c([H])c2C1([H])[H]

>  <smiles>  (18) 
[H]c1c([H])c([H])c2c(c1[H])C([H])([H])C([H])([H])C([H])([H])C2([H])N([H])C(=O)C1([H])N(C(=O)C([H])(N([H])C(=O)C([H])(N([H])C([H])([H])[H])C([H])([H])[H])C(C([H])([H])[H])(C([H])([H])[H])C([H])([H])[H])C([H])([H])c2c([H])c(OC([H])([H])C([H])(C([H])([H])[H])[N+]([H])([H])C3([H])C([H])([H])C([H])([H])N(C4([H])C([H])([H])C([H])([H])N(C(=O)N5C([H])([H])C([H])([H])C([H])([H])C([H])(n6nc(-c7c([H])c([H])c(Oc8c([H])c([H])c(F)c([H])c8F)c([H])c7[H])c(C(=O)N([H])[H])c6N([H])[H])C5([H])[H])C([H])([H])C4([H])[H])C3([H])C([H])([H])[H])c([H])c([H])c2C1([H])[H]

$$$$
18:0:0
     RDKit          3D

 94104  0  0  1  0  0  0  0  0999 V2000
  -30.2940  -19.9500   17.7370 C   0  0  0  0  0  3  0  0  0  0  0  0
  -29.8820  -21.1700   18.3370 C   0  0  0  0  0  0  0  0  0  0  0  0
  -29.4450  -21.2310   19.6820 C   0  0  0  0  0  0  0  0  0  0  0  0
  -30.3430  -18.6690   18.3550 C   0  0  0  0  0  0  0  0  0  0  0  0
  -29.5210  -19.8120   20.3270 C   0  0  0  0  0  0  0  0  0  0  0  0
  -29.9820  -18.4560   19.7160 C   0  0  0  0  0  0  0  0  0  0  0  0
  -30.7530  -17.5130   17.4550 C   0  0  0  0  0  1  0  0  0  0  0  0
  -29.0850  -19.7280   21.7740 C   0  0  0  0  0  1  0  0  0  0  0  0
  -30.7520  -15.6340   20.1200 C   0  0  0  0  0  0  0  0  0  0  0  0
  -30.7810  -13.1440   19.3770 C   0  0  0  0  0  2  0  0  0  0  0  0
  -29.8780  -12.8700   18.1470 C   0  0  0  0  0  2  0  0  0  0  0  0
  -28.4300  -12.5910   18.5860 C   0  0  0  0  0  2  0  0  0  0  0  0
  -27.9560  -13.5860   19.6750 C   0  0  0  0  0  3  0  0  0  0  0  0
  -28.9920  -13.8020   20.7990 C   0  0  0  0  0  2  0  0  0  0  0  0
  -30.2170  -14.3100   20.1590 N   0  0  0  0  0  0  0  0  0  0  0  0
  -31.9650  -15.6280   19.8600 O   0  0  0  0  0  0  0  0  0  0  0  0
  -29.9800  -16.9100   20.2580 N   0  0  0  0  0  0  0  0  0  0  0  0
  -29.1180  -16.7070   20.7410 H   0  0  0  0  0  0  0  0  0  0  0  0
  -25.6030  -14.1380   20.4820 C   0  0  0  0  0  0  0  0  0  0  0  0
  -24.5370  -13.3600   20.8370 C   0  0  0  0  0  0  0  0  0  0  0  0
  -24.9890  -12.0060   20.7520 C   0  0  0  0  0  0  0  0  0  0  0  0
  -26.6330  -13.2610   20.1910 N   0  0  0  0  0  0  0  0  0  0  0  0
  -26.2770  -11.9710   20.4200 N   0  0  0  0  0  0  0  0  0  0  0  0
  -24.2500  -10.7460   20.9050 C   0  0  0  0  0  0  0  0  0  0  0  0
  -24.6350   -9.7720   21.8510 C   0  0  0  0  0  3  0  0  0  0  0  0
  -23.8950   -8.5790   21.9940 C   0  0  0  0  0  3  0  0  0  0  0  0
  -22.7520   -8.3530   21.1900 C   0  0  0  0  0  0  0  0  0  0  0  0
  -22.3850   -9.3150   20.2330 C   0  0  0  0  0  3  0  0  0  0  0  0
  -23.1270  -10.4990   20.0890 C   0  0  0  0  0  3  0  0  0  0  0  0
  -21.9850   -7.2130   21.2420 O   0  0  0  0  0  0  0  0  0  0  0  0
  -21.8200   -6.5090   22.4080 C   0  0  0  0  0  0  0  0  0  0  0  0
  -21.2130   -7.0840   23.5470 C   0  0  0  0  0  3  0  0  0  0  0  0
  -21.0010   -6.3030   24.7020 C   0  0  0  0  0  3  0  0  0  0  0  0
  -21.3850   -4.9490   24.7160 C   0  0  0  0  0  0  0  0  0  0  0  0
  -21.9830   -4.3730   23.5810 C   0  0  0  0  0  3  0  0  0  0  0  0
  -22.1960   -5.1500   22.4310 C   0  0  0  0  0  0  0  0  0  0  0  0
  -22.7540   -4.5860   21.3320 F   0  0  0  0  0  0  0  0  0  0  0  0
  -21.1740   -4.1960   25.8220 F   0  0  0  0  0  0  0  0  0  0  0  0
  -23.1490  -13.8430   21.1380 C   0  0  0  0  0  0  0  0  0  0  0  0
  -22.4230  -13.1300   21.9920 N   0  0  0  0  0  0  0  0  0  0  0  0
  -22.7180  -14.8880   20.6530 O   0  0  0  0  0  0  0  0  0  0  0  0
  -22.7860  -12.2850   22.4090 H   0  0  0  0  0  0  0  0  0  0  0  0
  -21.4900  -13.4320   22.2310 H   0  0  0  0  0  0  0  0  0  0  0  0
  -25.7790  -15.5120   20.3510 N   0  0  0  0  0  0  0  0  0  0  0  0
  -25.0200  -16.1680   20.5010 H   0  0  0  0  0  0  0  0  0  0  0  0
  -26.6170  -15.9520   19.9950 H   0  0  0  0  0  0  0  0  0  0  0  0
  -27.6890  -22.6910   21.0910 C   0  0  0  0  0  2  0  0  0  0  0  0
  -27.4030  -24.1970   21.0880 C   0  0  0  0  0  2  0  0  0  0  0  0
  -28.9690  -22.8370   20.2570 C   0  0  0  0  0  3  0  0  0  0  0  0
  -28.1870  -24.4290   19.7900 C   0  0  0  0  0  3  0  0  0  0  0  0
  -28.4000  -26.0830   19.8310 O   0  0  0  0  0  0  0  0  0  0  0  0
  -24.7290  -31.8310   23.1260 C   0  0  0  0  0  0  0  0  0  0  0  0
  -27.3620  -27.1670   19.8260 C   0  0  0  0  0  0  0  0  0  0  0  0
  -23.5410  -30.4690   21.4560 C   0  0  0  0  0  3  0  0  0  0  0  0
  -25.0040  -28.9820   19.9220 C   0  0  0  0  0  0  0  0  0  0  0  0
  -26.0950  -30.7710   21.2570 C   0  0  0  0  0  2  0  0  0  0  0  0
  -26.1940  -29.3940   20.5340 C   0  0  0  0  0  0  0  0  0  0  0  0
  -27.3640  -28.5070   20.4640 C   0  0  0  0  0  3  0  0  0  0  0  0
  -26.1380  -26.9200   19.1650 C   0  0  0  0  0  3  0  0  0  0  0  0
  -25.0010  -27.7690   19.2170 C   0  0  0  0  0  3  0  0  0  0  0  0
  -23.7570  -29.8600   20.0440 C   0  0  0  0  0  2  0  0  0  0  0  0
  -24.8100  -31.0500   22.0010 N   0  0  0  0  0  0  0  0  0  0  0  0
  -23.6430  -32.0570   23.6870 O   0  0  0  0  0  0  0  0  0  0  0  0
  -22.9060  -29.4070   22.3920 C   0  0  0  0  0  0  0  0  0  0  0  0
  -21.5910  -29.1560   22.2500 N   0  0  0  0  0  0  0  0  0  0  0  0
  -23.6040  -28.8110   23.2150 O   0  0  0  0  0  0  0  0  0  0  0  0
  -21.0750  -29.6920   21.5670 H   0  0  0  0  0  0  0  0  0  0  0  0
  -18.2960  -27.6970   22.6890 C   0  0  0  0  0  0  0  0  0  0  0  0
  -20.8270  -28.1470   22.9940 C   0  0  0  0  0  3  0  0  0  0  0  0
  -21.0420  -26.7360   22.3970 C   0  0  0  0  0  2  0  0  0  0  0  0
  -19.9790  -26.3530   21.3620 C   0  0  0  0  0  2  0  0  0  0  0  0
  -18.5820  -26.3800   21.9860 C   0  0  0  0  0  2  0  0  0  0  0  0
  -19.3500  -28.5340   23.1470 C   0  0  0  0  0  0  0  0  0  0  0  0
  -19.0260  -29.7610   23.7640 C   0  0  0  0  0  3  0  0  0  0  0  0
  -17.6840  -30.1550   23.9280 C   0  0  0  0  0  3  0  0  0  0  0  0
  -16.6470  -29.3170   23.4840 C   0  0  0  0  0  3  0  0  0  0  0  0
  -16.9540  -28.0900   22.8700 C   0  0  0  0  0  3  0  0  0  0  0  0
  -25.9930  -32.4910   23.7570 C   0  0  0  0  0  3  0  0  0  0  0  0
  -26.5320  -31.7110   25.0200 C   0  0  1  0  0  0  0  0  0  0  0  0
  -25.4510  -31.4330   26.0900 C   0  0  0  0  0  1  0  0  0  0  0  0
  -27.1440  -30.3510   24.6100 C   0  0  0  0  0  1  0  0  0  0  0  0
  -27.6680  -32.5200   25.6860 C   0  0  0  0  0  1  0  0  0  0  0  0
  -25.6450  -33.8740   24.1290 N   0  0  0  0  0  0  0  0  0  0  0  0
  -25.9250  -34.9610   23.3970 C   0  0  0  0  0  0  0  0  0  0  0  0
  -26.5660  -34.9060   22.3450 O   0  0  0  0  0  0  0  0  0  0  0  0
  -25.0720  -33.9870   24.9520 H   0  0  0  0  0  0  0  0  0  0  0  0
  -24.1400  -36.7210   23.1530 C   0  0  0  0  0  1  0  0  0  0  0  0
  -25.4160  -36.3240   23.9130 C   0  0  0  0  0  3  0  0  0  0  0  0
  -27.5440  -37.2550   24.7130 C   0  0  0  0  0  1  0  0  0  0  0  0
  -26.4170  -37.4090   23.7980 N   0  0  0  0  0  0  0  0  0  0  0  0
  -25.9870  -38.3140   23.9720 H   0  0  0  0  0  0  0  0  0  0  0  0
  -30.9070  -22.6430   16.3920 C   0  0  0  0  0  2  0  0  0  0  0  0
  -30.9690  -23.4630   17.6560 C   0  0  0  0  0  2  0  0  0  0  0  0
  -29.8910  -22.4160   17.4910 C   0  0  0  0  0  3  0  0  0  0  0  0
  1  2  2  0
  1  4  1  0
  2  3  1  0
  3  5  2  0
  4  6  2  0
  5  8  1  0
  6 17  1  0
  6  5  1  0
  7  4  1  0
  9 15  1  0
  9 17  1  0
 10 15  1  0
 11 12  1  0
 11 10  1  0
 13 12  1  0
 13 22  1  0
 13 14  1  0
 15 14  1  0
 16  9  2  0
 17 18  1  0
 19 20  2  0
 20 39  1  0
 21 20  1  0
 21 24  1  0
 22 23  1  0
 22 19  1  0
 23 21  2  0
 24 25  1  0
 25 26  2  0
 27 30  1  0
 27 26  1  0
 28 27  2  0
 29 28  1  0
 29 24  2  0
 30 31  1  0
 31 36  2  0
 31 32  1  0
 32 33  2  0
 33 34  1  0
 34 38  1  0
 35 34  2  0
 36 35  1  0
 37 36  1  0
 39 40  1  0
 40 43  1  0
 40 42  1  0
 41 39  2  0
 44 19  1  0
 44 45  1  0
 46 44  1  0
 48 47  1  0
 49  3  1  0
 49 47  1  0
 50 51  1  0
 50 49  1  0
 50 48  1  0
 52 63  2  0
 53 51  1  0
 53 58  1  0
 54 62  1  0
 54 64  1  0
 55 61  1  0
 55 57  1  0
 56 62  1  0
 57 56  1  0
 58 57  2  0
 59 60  1  0
 59 53  2  0
 60 55  2  0
 61 54  1  0
 62 52  1  0
 64 66  2  0
 65 64  1  0
 67 65  1  0
 68 77  2  0
 68 73  1  0
 69 65  1  0
 69 73  1  0
 70 69  1  0
 71 72  1  0
 71 70  1  0
 72 68  1  0
 73 74  2  0
 74 75  1  0
 76 75  2  0
 77 76  1  0
 78 52  1  0
 78 83  1  0
 78 79  1  0
 79 82  1  1
 79 80  1  0
 81 79  1  0
 83 86  1  0
 84 88  1  0
 84 83  1  0
 85 84  2  0
 88 87  1  0
 90 88  1  0
 90 91  1  0
 90 89  1  0
 92 94  1  0
 92 93  1  0
 94 93  1  0
 94  2  1  0
M  ISO  4   9 100  17 100  50 101  51 101
M  END
>  <TORSDO>  (19) 
F 18

>  <SCORE>  (19) 
-14.147

>  <name>  (19) 
18

>  <ligand_id>  (19) 
18

>  <original_smiles>  (19) 
[H]c1c([H])c([H])c2c(c1[H])C([H])([H])C([H])([H])C([H])([H])C2([H])N([H])C(=O)C1([H])N(C(=O)C([H])(N([H])C(=O)C([H])(N([H])C([H])([H])[H])C([H])([H])[H])C(C([H])([H])[H])(C([H])([H])[H])C([H])([H])[H])C([H])([H])c2c([H])c(OC3([H])C([H])([H])C([H])([H])C3([H])c3c(C([H])([H])[H])c(N([H])C(=O)N4C([H])([H])C([H])([H])C([H])([H])C([H])(n5nc(-c6c([H])c([H])c(Oc7c([H])c([H])c(F)c([H])c7F)c([H])c6[H])c(C(=O)N([H])[H])c5N([H])[H])C4([H])[H])c(C([H])([H])[H])c([H])c3C3([H])C([H])([H])C3([H])[H])c([H])c([H])c2C1([H])[H]

>  <smiles>  (19) 
[H]c1c([H])c([H])c2c(c1[H])C([H])([H])C([H])([H])C([H])([H])C2([H])N([H])C(=O)C1([H])N(C(=O)C([H])(N([H])C(=O)C([H])(N([H])C([H])([H])[H])C([H])([H])[H])C(C([H])([H])[H])(C([H])([H])[H])C([H])([H])[H])C([H])([H])c2c([H])c(OC3([H])C([H])([H])C([H])([H])C3([H])c3c(C([H])([H])[H])c(N([H])C(=O)N4C([H])([H])C([H])([H])C([H])([H])C([H])(n5nc(-c6c([H])c([H])c(Oc7c([H])c([H])c(F)c([H])c7F)c([H])c6[H])c(C(=O)N([H])[H])c5N([H])[H])C4([H])[H])c(C([H])([H])[H])c([H])c3C3([H])C([H])([H])C3([H])[H])c([H])c([H])c2C1([H])[H]

$$$$
19:0:0
     RDKit          3D

 93102  0  0  1  0  0  0  0  0999 V2000
  -29.9430  -22.0130   18.8100 C   0  0  0  0  0  0  0  0  0  0  0  0
  -29.6730  -23.4410   18.8370 C   0  0  0  0  0  0  0  0  0  0  0  0
  -29.5130  -21.4000   19.9700 C   0  0  0  0  0  0  0  0  0  0  0  0
  -29.0670  -23.8010   20.0180 C   0  0  0  0  0  0  0  0  0  0  0  0
  -30.5910  -21.2920   17.6520 C   0  0  0  0  0  1  0  0  0  0  0  0
  -29.9930  -24.3920   17.7090 C   0  0  0  0  0  1  0  0  0  0  0  0
  -28.9820  -22.5260   20.7060 N   0  0  0  0  0  0  0  0  0  0  0  0
  -30.9180  -15.2690   20.2730 C   0  0  0  0  0  0  0  0  0  0  0  0
  -30.6870  -12.9300   19.3540 C   0  0  0  0  0  2  0  0  0  0  0  0
  -29.7680  -12.8740   18.1150 C   0  0  0  0  0  2  0  0  0  0  0  0
  -28.3050  -12.6790   18.5490 C   0  0  0  0  0  2  0  0  0  0  0  0
  -27.8950  -13.6360   19.6990 C   0  0  0  0  0  3  0  0  0  0  0  0
  -28.9470  -13.7010   20.8280 C   0  0  0  0  0  2  0  0  0  0  0  0
  -30.2250  -14.0640   20.2030 N   0  0  0  0  0  0  0  0  0  0  0  0
  -32.1340  -15.2130   20.0610 O   0  0  0  0  0  0  0  0  0  0  0  0
  -29.0150  -18.6950   19.4640 C   0  0  0  0  0  2  0  0  0  0  0  0
  -30.9690  -19.1750   20.7270 C   0  0  0  0  0  2  0  0  0  0  0  0
  -29.0660  -17.1370   19.9100 C   0  0  0  0  0  2  0  0  0  0  0  0
  -31.0210  -17.6550   21.2460 C   0  0  0  0  0  2  0  0  0  0  0  0
  -29.5700  -19.8220   20.4260 C   0  0  0  0  0  3  0  0  0  0  0  0
  -30.3210  -16.5490   20.4950 N   0  0  0  0  0  0  0  0  0  0  0  0
  -25.5240  -14.2430   20.4330 C   0  0  0  0  0  0  0  0  0  0  0  0
  -24.4500  -13.4800   20.7980 C   0  0  0  0  0  0  0  0  0  0  0  0
  -24.9020  -12.1250   20.7740 C   0  0  0  0  0  0  0  0  0  0  0  0
  -26.5580  -13.3540   20.2010 N   0  0  0  0  0  0  0  0  0  0  0  0
  -26.1940  -12.0750   20.4740 N   0  0  0  0  0  0  0  0  0  0  0  0
  -24.1620  -10.8700   20.9600 C   0  0  0  0  0  0  0  0  0  0  0  0
  -24.5480   -9.9210   21.9310 C   0  0  0  0  0  3  0  0  0  0  0  0
  -23.8070   -8.7330   22.1060 C   0  0  0  0  0  3  0  0  0  0  0  0
  -22.6660   -8.4840   21.3050 C   0  0  0  0  0  0  0  0  0  0  0  0
  -22.3000   -9.4220   20.3240 C   0  0  0  0  0  3  0  0  0  0  0  0
  -23.0420  -10.6020   20.1480 C   0  0  0  0  0  3  0  0  0  0  0  0
  -21.9010   -7.3460   21.3870 O   0  0  0  0  0  0  0  0  0  0  0  0
  -21.7660   -6.6520   22.5630 C   0  0  0  0  0  0  0  0  0  0  0  0
  -21.2110   -7.2450   23.7180 C   0  0  0  0  0  3  0  0  0  0  0  0
  -21.0260   -6.4750   24.8840 C   0  0  0  0  0  3  0  0  0  0  0  0
  -21.3860   -5.1140   24.8950 C   0  0  0  0  0  0  0  0  0  0  0  0
  -21.9350   -4.5210   23.7440 C   0  0  0  0  0  3  0  0  0  0  0  0
  -22.1210   -5.2880   22.5800 C   0  0  0  0  0  0  0  0  0  0  0  0
  -22.6300   -4.7080   21.4670 F   0  0  0  0  0  0  0  0  0  0  0  0
  -21.2020   -4.3730   26.0120 F   0  0  0  0  0  0  0  0  0  0  0  0
  -23.0550  -13.9720   21.0550 C   0  0  0  0  0  0  0  0  0  0  0  0
  -22.3120  -13.2850   21.9150 N   0  0  0  0  0  0  0  0  0  0  0  0
  -22.6340  -15.0020   20.5300 O   0  0  0  0  0  0  0  0  0  0  0  0
  -22.6660  -12.4520   22.3610 H   0  0  0  0  0  0  0  0  0  0  0  0
  -21.3760  -13.5970   22.1300 H   0  0  0  0  0  0  0  0  0  0  0  0
  -25.7000  -15.6120   20.2500 N   0  0  0  0  0  0  0  0  0  0  0  0
  -24.9350  -16.2700   20.3530 H   0  0  0  0  0  0  0  0  0  0  0  0
  -26.5510  -16.0410   19.9160 H   0  0  0  0  0  0  0  0  0  0  0  0
  -26.8540  -22.4070   21.9550 C   0  0  0  0  0  1  0  0  0  0  0  0
  -28.3850  -22.3770   22.0260 C   0  0  0  0  0  2  0  0  0  0  0  0
  -28.4470  -25.2080   20.5640 C   0  0  0  0  0  2  0  0  0  0  0  0
  -28.6070  -26.5610   19.8440 O   0  0  0  0  0  0  0  0  0  0  0  0
  -24.6550  -31.8650   23.0800 C   0  0  0  0  0  0  0  0  0  0  0  0
  -27.5000  -27.4730   19.8620 C   0  0  0  0  0  0  0  0  0  0  0  0
  -23.5290  -30.4470   21.4070 C   0  0  0  0  0  3  0  0  0  0  0  0
  -25.0610  -29.0300   19.9120 C   0  0  0  0  0  0  0  0  0  0  0  0
  -26.0530  -30.9020   21.2180 C   0  0  0  0  0  2  0  0  0  0  0  0
  -26.2140  -29.5430   20.5210 C   0  0  0  0  0  0  0  0  0  0  0  0
  -27.4380  -28.7810   20.4800 C   0  0  0  0  0  3  0  0  0  0  0  0
  -26.3200  -27.0580   19.2100 C   0  0  0  0  0  3  0  0  0  0  0  0
  -25.1220  -27.8010   19.2400 C   0  0  0  0  0  3  0  0  0  0  0  0
  -23.7740  -29.8350   20.0030 C   0  0  0  0  0  2  0  0  0  0  0  0
  -24.7660  -31.0920   21.9570 N   0  0  0  0  0  0  0  0  0  0  0  0
  -23.5610  -32.0560   23.6300 O   0  0  0  0  0  0  0  0  0  0  0  0
  -22.9370  -29.3620   22.3410 C   0  0  0  0  0  0  0  0  0  0  0  0
  -21.6270  -29.0880   22.2080 N   0  0  0  0  0  0  0  0  0  0  0  0
  -23.6580  -28.7710   23.1480 O   0  0  0  0  0  0  0  0  0  0  0  0
  -21.0980  -29.6220   21.5320 H   0  0  0  0  0  0  0  0  0  0  0  0
  -18.3470  -27.6320   22.6950 C   0  0  0  0  0  0  0  0  0  0  0  0
  -20.8820  -28.0700   22.9540 C   0  0  0  0  0  3  0  0  0  0  0  0
  -21.0830  -26.6680   22.3330 C   0  0  0  0  0  2  0  0  0  0  0  0
  -19.9980  -26.2970   21.3170 C   0  0  0  0  0  2  0  0  0  0  0  0
  -18.6150  -26.3210   21.9740 C   0  0  0  0  0  2  0  0  0  0  0  0
  -19.4110  -28.4600   23.1420 C   0  0  0  0  0  0  0  0  0  0  0  0
  -19.1060  -29.6820   23.7770 C   0  0  0  0  0  3  0  0  0  0  0  0
  -17.7690  -30.0810   23.9690 C   0  0  0  0  0  3  0  0  0  0  0  0
  -16.7200  -29.2500   23.5390 C   0  0  0  0  0  3  0  0  0  0  0  0
  -17.0100  -28.0270   22.9070 C   0  0  0  0  0  3  0  0  0  0  0  0
  -25.8980  -32.5650   23.7110 C   0  0  0  0  0  3  0  0  0  0  0  0
  -25.4990  -33.9300   24.0880 N   0  0  0  0  0  0  0  0  0  0  0  0
  -25.7280  -35.0240   23.3490 C   0  0  0  0  0  0  0  0  0  0  0  0
  -26.3640  -34.9950   22.2930 O   0  0  0  0  0  0  0  0  0  0  0  0
  -24.9260  -34.0220   24.9140 H   0  0  0  0  0  0  0  0  0  0  0  0
  -23.8540  -36.6890   23.1250 C   0  0  0  0  0  1  0  0  0  0  0  0
  -25.1620  -36.3630   23.8630 C   0  0  0  0  0  3  0  0  0  0  0  0
  -27.2590  -37.3970   24.6150 C   0  0  0  0  0  1  0  0  0  0  0  0
  -26.1060  -37.4930   23.7230 N   0  0  0  0  0  0  0  0  0  0  0  0
  -25.6380  -38.3780   23.9040 H   0  0  0  0  0  0  0  0  0  0  0  0
  -26.4720  -31.7940   24.9630 C   0  0  1  0  0  0  0  0  0  0  0  0
  -25.4060  -31.4590   26.0320 C   0  0  0  0  0  1  0  0  0  0  0  0
  -27.1400  -30.4670   24.5320 C   0  0  0  0  0  1  0  0  0  0  0  0
  -27.5760  -32.6430   25.6380 C   0  0  0  0  0  1  0  0  0  0  0  0
  1  2  1  0
  1  3  2  0
  2  4  2  0
  3  7  1  0
  4 52  1  0
  4  7  1  0
  5  1  1  0
  6  2  1  0
  7 51  1  0
  8 21  1  0
  9 14  1  0
 10 11  1  0
 10  9  1  0
 12 11  1  0
 12 25  1  0
 12 13  1  0
 14  8  1  0
 14 13  1  0
 15  8  2  0
 16 18  1  0
 16 20  1  0
 17 19  1  0
 18 21  1  0
 20  3  1  0
 20 17  1  0
 21 19  1  0
 22 23  2  0
 23 42  1  0
 24 23  1  0
 24 27  1  0
 25 22  1  0
 25 26  1  0
 26 24  2  0
 27 28  1  0
 28 29  2  0
 30 33  1  0
 30 29  1  0
 31 30  2  0
 32 31  1  0
 32 27  2  0
 33 34  1  0
 34 39  2  0
 34 35  1  0
 35 36  2  0
 36 37  1  0
 37 41  1  0
 38 37  2  0
 39 38  1  0
 40 39  1  0
 42 43  1  0
 43 46  1  0
 43 45  1  0
 44 42  2  0
 47 48  1  0
 47 22  1  0
 49 47  1  0
 50 51  1  0
 53 55  1  0
 53 52  1  0
 54 65  2  0
 55 60  1  0
 56 64  1  0
 56 66  1  0
 57 63  1  0
 57 59  1  0
 58 64  1  0
 59 58  1  0
 60 59  2  0
 61 62  1  0
 61 55  2  0
 62 57  2  0
 63 56  1  0
 64 54  1  0
 66 68  2  0
 67 66  1  0
 69 67  1  0
 70 79  2  0
 70 75  1  0
 71 67  1  0
 71 75  1  0
 72 71  1  0
 73 74  1  0
 73 72  1  0
 74 70  1  0
 75 76  2  0
 76 77  1  0
 78 77  2  0
 79 78  1  0
 80 54  1  0
 80 81  1  0
 80 90  1  0
 81 84  1  0
 82 86  1  0
 82 81  1  0
 83 82  2  0
 86 85  1  0
 88 86  1  0
 88 89  1  0
 88 87  1  0
 90 93  1  1
 90 91  1  0
 92 90  1  0
M  ISO  4   8 100  21 100  52 101  53 101
M  END
>  <TORSDO>  (20) 
F 18

>  <SCORE>  (20) 
-13.340

>  <name>  (20) 
19

>  <ligand_id>  (20) 
19

>  <original_smiles>  (20) 
[H]c1c([H])c([H])c2c(c1[H])C([H])([H])C([H])([H])C([H])([H])C2([H])N([H])C(=O)C1([H])N(C(=O)C([H])(N([H])C(=O)C([H])(N([H])C([H])([H])[H])C([H])([H])[H])C(C([H])([H])[H])(C([H])([H])[H])C([H])([H])[H])C([H])([H])c2c([H])c(OC([H])([H])c3c(C([H])([H])[H])c(C([H])([H])[H])c(C4([H])C([H])([H])C([H])([H])N(C(=O)N5C([H])([H])C([H])([H])C([H])([H])C([H])(n6nc(-c7c([H])c([H])c(Oc8c([H])c([H])c(F)c([H])c8F)c([H])c7[H])c(C(=O)N([H])[H])c6N([H])[H])C5([H])[H])C([H])([H])C4([H])[H])n3C([H])([H])C([H])([H])[H])c([H])c([H])c2C1([H])[H]

>  <smiles>  (20) 
[H]c1c([H])c([H])c2c(c1[H])C([H])([H])C([H])([H])C([H])([H])C2([H])N([H])C(=O)C1([H])N(C(=O)C([H])(N([H])C(=O)C([H])(N([H])C([H])([H])[H])C([H])([H])[H])C(C([H])([H])[H])(C([H])([H])[H])C([H])([H])[H])C([H])([H])c2c([H])c(OC([H])([H])c3c(C([H])([H])[H])c(C([H])([H])[H])c(C4([H])C([H])([H])C([H])([H])N(C(=O)N5C([H])([H])C([H])([H])C([H])([H])C([H])(n6nc(-c7c([H])c([H])c(Oc8c([H])c([H])c(F)c([H])c8F)c([H])c7[H])c(C(=O)N([H])[H])c6N([H])[H])C5([H])[H])C([H])([H])C4([H])[H])n3C([H])([H])C([H])([H])[H])c([H])c([H])c2C1([H])[H]

$$$$
20:0:0
     RDKit          3D

 95104  0  0  1  0  0  0  0  0999 V2000
  -31.1050  -23.1210   21.5790 C   0  0  0  0  0  3  0  0  0  0  0  0
  -28.3890  -23.0850   20.9190 C   0  0  0  0  0  3  0  0  0  0  0  0
  -30.4130  -24.3510   21.3990 C   0  0  0  0  0  0  0  0  0  0  0  0
  -30.4350  -21.8680   21.5060 C   0  0  0  0  0  0  0  0  0  0  0  0
  -29.0250  -24.3380   21.0980 C   0  0  0  0  0  0  0  0  0  0  0  0
  -29.0750  -21.8670   21.1350 C   0  0  0  0  0  0  0  0  0  0  0  0
  -31.1290  -25.6730   21.6560 C   0  0  0  0  0  1  0  0  0  0  0  0
  -28.4000  -20.6910   21.0720 F   0  0  0  0  0  0  0  0  0  0  0  0
  -31.0900  -20.5940   22.0840 C   0  0  0  0  0  2  0  0  0  0  0  0
  -30.9780  -17.7790   19.4630 C   0  0  0  0  0  2  0  0  0  0  0  0
  -31.1650  -19.2810   19.8240 C   0  0  0  0  0  2  0  0  0  0  0  0
  -30.5170  -18.1220   21.7860 C   0  0  0  0  0  2  0  0  0  0  0  0
  -30.9630  -17.0180   20.8110 C   0  0  0  0  0  3  0  0  0  0  0  0
  -31.2500  -19.3210   21.3020 N   0  0  2  0  0  4  0  0  0  0  0  0
  -32.2180  -19.1030   21.4890 H   0  0  0  0  0  0  0  0  0  0  0  0
  -30.7820  -14.5440   20.4450 C   0  0  0  0  0  0  0  0  0  0  0  0
  -30.3710  -12.3580   19.3730 C   0  0  0  0  0  2  0  0  0  0  0  0
  -29.4630  -12.5490   18.1450 C   0  0  0  0  0  2  0  0  0  0  0  0
  -27.9880  -12.4160   18.5610 C   0  0  0  0  0  2  0  0  0  0  0  0
  -27.6330  -13.2880   19.7940 C   0  0  0  0  0  3  0  0  0  0  0  0
  -28.6880  -13.1750   20.9240 C   0  0  0  0  0  2  0  0  0  0  0  0
  -30.0190  -13.4130   20.3460 N   0  0  0  0  0  0  0  0  0  0  0  0
  -31.9340  -14.5760   20.0140 O   0  0  0  0  0  0  0  0  0  0  0  0
  -30.2240  -15.7110   20.8520 N   0  0  0  0  0  0  0  0  0  0  0  0
  -29.2600  -15.7050   21.1540 H   0  0  0  0  0  0  0  0  0  0  0  0
  -25.2240  -13.8830   20.4620 C   0  0  0  0  0  0  0  0  0  0  0  0
  -24.1510  -13.1080   20.8170 C   0  0  0  0  0  0  0  0  0  0  0  0
  -24.6170  -11.7610   20.8110 C   0  0  0  0  0  0  0  0  0  0  0  0
  -26.2780  -13.0060   20.2640 N   0  0  0  0  0  0  0  0  0  0  0  0
  -25.9150  -11.7260   20.5370 N   0  0  0  0  0  0  0  0  0  0  0  0
  -23.8890  -10.4960   21.0030 C   0  0  0  0  0  0  0  0  0  0  0  0
  -24.3010   -9.5430   21.9610 C   0  0  0  0  0  3  0  0  0  0  0  0
  -23.5740   -8.3460   22.1400 C   0  0  0  0  0  3  0  0  0  0  0  0
  -22.4200   -8.0910   21.3600 C   0  0  0  0  0  0  0  0  0  0  0  0
  -22.0240   -9.0350   20.3980 C   0  0  0  0  0  3  0  0  0  0  0  0
  -22.7520  -10.2230   20.2180 C   0  0  0  0  0  3  0  0  0  0  0  0
  -21.6640   -6.9450   21.4450 O   0  0  0  0  0  0  0  0  0  0  0  0
  -21.5920   -6.2210   22.6080 C   0  0  0  0  0  0  0  0  0  0  0  0
  -21.1390   -6.7900   23.8170 C   0  0  0  0  0  3  0  0  0  0  0  0
  -21.0180   -5.9880   24.9700 C   0  0  0  0  0  3  0  0  0  0  0  0
  -21.3380   -4.6170   24.9140 C   0  0  0  0  0  0  0  0  0  0  0  0
  -21.7840   -4.0470   23.7080 C   0  0  0  0  0  3  0  0  0  0  0  0
  -21.9090   -4.8470   22.5580 C   0  0  0  0  0  0  0  0  0  0  0  0
  -22.3190   -4.2860   21.3940 F   0  0  0  0  0  0  0  0  0  0  0  0
  -21.2120   -3.8480   26.0190 F   0  0  0  0  0  0  0  0  0  0  0  0
  -22.7430  -13.5810   21.0480 C   0  0  0  0  0  0  0  0  0  0  0  0
  -22.0000  -12.8940   21.9100 N   0  0  0  0  0  0  0  0  0  0  0  0
  -22.3110  -14.5950   20.5010 O   0  0  0  0  0  0  0  0  0  0  0  0
  -22.3630  -12.0720   22.3690 H   0  0  0  0  0  0  0  0  0  0  0  0
  -21.0610  -13.1990   22.1150 H   0  0  0  0  0  0  0  0  0  0  0  0
  -25.3780  -15.2520   20.2690 N   0  0  0  0  0  0  0  0  0  0  0  0
  -24.5960  -15.8920   20.3520 H   0  0  0  0  0  0  0  0  0  0  0  0
  -26.2220  -15.6990   19.9330 H   0  0  0  0  0  0  0  0  0  0  0  0
  -28.1570  -25.6110   21.1910 C   0  0  0  0  0  2  0  0  0  0  0  0
  -28.2570  -26.5940   20.1360 O   0  0  0  0  0  0  0  0  0  0  0  0
  -24.5600  -31.8620   23.2350 C   0  0  0  0  0  0  0  0  0  0  0  0
  -27.1430  -27.4080   20.1050 C   0  0  0  0  0  0  0  0  0  0  0  0
  -23.3280  -30.4810   21.5970 C   0  0  0  0  0  3  0  0  0  0  0  0
  -24.7590  -28.9360   20.1480 C   0  0  0  0  0  0  0  0  0  0  0  0
  -25.8560  -30.8200   21.3720 C   0  0  0  0  0  2  0  0  0  0  0  0
  -25.9290  -29.4510   20.7220 C   0  0  0  0  0  0  0  0  0  0  0  0
  -27.1270  -28.6950   20.6950 C   0  0  0  0  0  3  0  0  0  0  0  0
  -25.9600  -26.9190   19.5130 C   0  0  0  0  0  3  0  0  0  0  0  0
  -24.7680  -27.6700   19.5370 C   0  0  0  0  0  3  0  0  0  0  0  0
  -23.5220  -29.8060   20.2150 C   0  0  0  0  0  2  0  0  0  0  0  0
  -24.6010  -31.0700   22.1260 N   0  0  0  0  0  0  0  0  0  0  0  0
  -23.4870  -32.1360   23.7910 O   0  0  0  0  0  0  0  0  0  0  0  0
  -22.6800  -29.4600   22.5610 C   0  0  0  0  0  0  0  0  0  0  0  0
  -21.3530  -29.2790   22.4440 N   0  0  0  0  0  0  0  0  0  0  0  0
  -23.3660  -28.8310   23.3710 O   0  0  0  0  0  0  0  0  0  0  0  0
  -20.8580  -29.8460   21.7710 H   0  0  0  0  0  0  0  0  0  0  0  0
  -17.9800  -28.0740   22.9490 C   0  0  0  0  0  0  0  0  0  0  0  0
  -20.5370  -28.3390   23.2150 C   0  0  0  0  0  3  0  0  0  0  0  0
  -20.6410  -26.9070   22.6440 C   0  0  0  0  0  2  0  0  0  0  0  0
  -19.5390  -26.5790   21.6300 C   0  0  0  0  0  2  0  0  0  0  0  0
  -18.1580  -26.7210   22.2780 C   0  0  0  0  0  2  0  0  0  0  0  0
  -19.0980  -28.8400   23.3750 C   0  0  0  0  0  0  0  0  0  0  0  0
  -18.8770  -30.1030   23.9640 C   0  0  0  0  0  3  0  0  0  0  0  0
  -17.5710  -30.6030   24.1290 C   0  0  0  0  0  3  0  0  0  0  0  0
  -16.4680  -29.8350   23.7170 C   0  0  0  0  0  3  0  0  0  0  0  0
  -16.6740  -28.5710   23.1350 C   0  0  0  0  0  3  0  0  0  0  0  0
  -25.8560  -32.4850   23.8460 C   0  0  0  0  0  3  0  0  0  0  0  0
  -26.3800  -31.7050   25.1120 C   0  0  1  0  0  0  0  0  0  0  0  0
  -25.3010  -31.4730   26.1950 C   0  0  0  0  0  1  0  0  0  0  0  0
  -26.9470  -30.3260   24.7050 C   0  0  0  0  0  1  0  0  0  0  0  0
  -27.5450  -32.4880   25.7620 C   0  0  0  0  0  1  0  0  0  0  0  0
  -25.5600  -33.8840   24.1780 N   0  0  0  0  0  0  0  0  0  0  0  0
  -25.9030  -34.9350   23.4220 C   0  0  0  0  0  0  0  0  0  0  0  0
  -26.5710  -34.8270   22.3880 O   0  0  0  0  0  0  0  0  0  0  0  0
  -24.9680  -34.0420   24.9810 H   0  0  0  0  0  0  0  0  0  0  0  0
  -24.2000  -36.7520   23.0680 C   0  0  0  0  0  1  0  0  0  0  0  0
  -25.4330  -36.3270   23.8850 C   0  0  0  0  0  3  0  0  0  0  0  0
  -27.5740  -37.1820   24.7320 C   0  0  0  0  0  1  0  0  0  0  0  0
  -26.4800  -37.3670   23.7820 N   0  0  0  0  0  0  0  0  0  0  0  0
  -26.0840  -38.2910   23.9300 H   0  0  0  0  0  0  0  0  0  0  0  0
  2  5  2  0
  2  6  1  0
  3  1  2  0
  3  7  1  0
  4  1  1  0
  4  9  1  0
  5 54  1  0
  5  3  1  0
  6  4  2  0
  8  6  1  0
 10 11  1  0
 10 13  1  0
 11 14  1  0
 13 24  1  0
 13 12  1  0
 14 15  1  6
 14 12  1  0
 14  9  1  0
 16 24  1  0
 17 22  1  0
 18 19  1  0
 18 17  1  0
 20 19  1  0
 20 29  1  0
 20 21  1  0
 22 16  1  0
 22 21  1  0
 23 16  2  0
 24 25  1  0
 26 27  2  0
 27 46  1  0
 28 27  1  0
 28 31  1  0
 29 26  1  0
 29 30  1  0
 30 28  2  0
 31 32  1  0
 32 33  2  0
 34 37  1  0
 34 33  1  0
 35 34  2  0
 36 35  1  0
 36 31  2  0
 37 38  1  0
 38 39  1  0
 39 40  2  0
 41 40  1  0
 41 45  1  0
 42 41  2  0
 43 38  2  0
 43 42  1  0
 44 43  1  0
 46 47  1  0
 47 50  1  0
 47 49  1  0
 48 46  2  0
 51 52  1  0
 51 26  1  0
 53 51  1  0
 55 54  1  0
 56 67  2  0
 57 55  1  0
 57 62  1  0
 58 66  1  0
 58 68  1  0
 59 65  1  0
 59 61  1  0
 60 66  1  0
 61 60  1  0
 62 61  2  0
 63 64  1  0
 63 57  2  0
 64 59  2  0
 65 58  1  0
 66 56  1  0
 68 70  2  0
 69 68  1  0
 71 69  1  0
 72 81  2  0
 72 77  1  0
 73 69  1  0
 73 77  1  0
 74 73  1  0
 75 76  1  0
 75 74  1  0
 76 72  1  0
 77 78  2  0
 78 79  1  0
 80 79  2  0
 81 80  1  0
 82 56  1  0
 82 87  1  0
 82 83  1  0
 83 86  1  1
 83 84  1  0
 85 83  1  0
 87 90  1  0
 88 92  1  0
 88 87  1  0
 89 88  2  0
 92 91  1  0
 94 92  1  0
 94 95  1  0
 94 93  1  0
M  ISO  4  16 100  24 100  54 101  55 101
M  END
>  <TORSDO>  (21) 
F 19

>  <SCORE>  (21) 
-14.252

>  <name>  (21) 
20

>  <ligand_id>  (21) 
20

>  <original_smiles>  (21) 
[H]c1c([H])c([H])c2c(c1[H])C([H])([H])C([H])([H])C([H])([H])C2([H])N([H])C(=O)C1([H])N(C(=O)C([H])(N([H])C(=O)C([H])(N([H])C([H])([H])[H])C([H])([H])[H])C(C([H])([H])[H])(C([H])([H])[H])C([H])([H])[H])C([H])([H])c2c([H])c(OC([H])([H])c3c([H])c(F)c(C([H])([H])[N+]4([H])C([H])([H])C([H])([H])C([H])(N([H])C(=O)N5C([H])([H])C([H])([H])C([H])([H])C([H])(n6nc(-c7c([H])c([H])c(Oc8c([H])c([H])c(F)c([H])c8F)c([H])c7[H])c(C(=O)N([H])[H])c6N([H])[H])C5([H])[H])C4([H])[H])c([H])c3C([H])([H])[H])c([H])c([H])c2C1([H])[H]

>  <smiles>  (21) 
[H]c1c([H])c([H])c2c(c1[H])C([H])([H])C([H])([H])C([H])([H])C2([H])N([H])C(=O)C1([H])N(C(=O)C([H])(N([H])C(=O)C([H])(N([H])C([H])([H])[H])C([H])([H])[H])C(C([H])([H])[H])(C([H])([H])[H])C([H])([H])[H])C([H])([H])c2c([H])c(OC([H])([H])c3c([H])c(F)c(C([H])([H])[N+]4([H])C([H])([H])C([H])([H])C([H])(N([H])C(=O)N5C([H])([H])C([H])([H])C([H])([H])C([H])(n6nc(-c7c([H])c([H])c(Oc8c([H])c([H])c(F)c([H])c8F)c([H])c7[H])c(C(=O)N([H])[H])c6N([H])[H])C5([H])[H])C4([H])[H])c([H])c3C([H])([H])[H])c([H])c([H])c2C1([H])[H]

$$$$
21:0:0
     RDKit          3D

100111  0  0  1  0  0  0  0  0999 V2000
  -29.8880  -20.8850   21.0090 C   0  0  0  0  0  3  0  0  0  0  0  0
  -28.3270  -21.2340   19.0960 C   0  0  0  0  0  3  0  0  0  0  0  0
  -30.4810  -22.0860   20.6210 C   0  0  0  0  0  0  0  0  0  0  0  0
  -30.0200  -22.8700   19.5010 C   0  0  0  0  0  0  0  0  0  0  0  0
  -28.9400  -22.4630   18.7110 C   0  0  0  0  0  0  0  0  0  0  0  0
  -28.7990  -20.4510   20.1990 C   0  0  0  0  0  0  0  0  0  0  0  0
  -32.5530  -23.5200   19.8650 C   0  0  0  0  0  2  0  0  0  0  0  0
  -31.5880  -23.0300   20.9150 C   0  0  2  0  0  0  0  0  0  0  0  0
  -31.1010  -23.8850   19.6920 C   0  0  1  0  0  0  0  0  0  0  0  0
  -28.4910  -23.2570   17.4990 C   0  0  0  0  0  1  0  0  0  0  0  0
  -31.5990  -23.5430   22.3410 C   0  0  0  0  0  1  0  0  0  0  0  0
  -28.2110  -19.2050   20.4540 N   0  0  0  0  0  0  0  0  0  0  0  0
  -27.3290  -19.0660   19.9710 H   0  0  0  0  0  0  0  0  0  0  0  0
  -30.8320  -14.2520   19.8750 C   0  0  0  0  0  0  0  0  0  0  0  0
  -30.4870  -12.0170   18.9350 C   0  0  0  0  0  2  0  0  0  0  0  0
  -29.4600  -12.1390   17.7910 C   0  0  0  0  0  2  0  0  0  0  0  0
  -28.0260  -12.0070   18.3370 C   0  0  0  0  0  2  0  0  0  0  0  0
  -27.7620  -12.9220   19.5620 C   0  0  0  0  0  3  0  0  0  0  0  0
  -28.9010  -12.8110   20.6020 C   0  0  0  0  0  2  0  0  0  0  0  0
  -30.1730  -13.0680   19.9080 N   0  0  0  0  0  0  0  0  0  0  0  0
  -31.9550  -14.3960   19.3770 O   0  0  0  0  0  0  0  0  0  0  0  0
  -28.7920  -17.2480   19.0610 C   0  0  0  0  0  2  0  0  0  0  0  0
  -29.2180  -17.1870   21.5250 C   0  0  0  0  0  2  0  0  0  0  0  0
  -29.8690  -16.1740   18.8740 C   0  0  0  0  0  2  0  0  0  0  0  0
  -30.2900  -16.1010   21.3040 C   0  0  0  0  0  2  0  0  0  0  0  0
  -29.1380  -18.0900   20.2870 C   0  0  0  0  0  3  0  0  0  0  0  0
  -30.0540  -15.3340   20.0730 N   0  0  0  0  0  0  0  0  0  0  0  0
  -25.4540  -13.5290   20.5220 C   0  0  0  0  0  0  0  0  0  0  0  0
  -24.4130  -12.7540   20.9610 C   0  0  0  0  0  0  0  0  0  0  0  0
  -24.8530  -11.4000   20.8350 C   0  0  0  0  0  0  0  0  0  0  0  0
  -26.4590  -12.6460   20.1610 N   0  0  0  0  0  0  0  0  0  0  0  0
  -26.1050  -11.3580   20.4050 N   0  0  0  0  0  0  0  0  0  0  0  0
  -24.1300  -10.1390   21.0450 C   0  0  0  0  0  0  0  0  0  0  0  0
  -24.5600   -9.1930   22.0010 C   0  0  0  0  0  3  0  0  0  0  0  0
  -23.8360   -7.9970   22.2000 C   0  0  0  0  0  3  0  0  0  0  0  0
  -22.6720   -7.7390   21.4380 C   0  0  0  0  0  0  0  0  0  0  0  0
  -22.2610   -8.6750   20.4710 C   0  0  0  0  0  3  0  0  0  0  0  0
  -22.9840   -9.8630   20.2720 C   0  0  0  0  0  3  0  0  0  0  0  0
  -21.9230   -6.5910   21.5440 O   0  0  0  0  0  0  0  0  0  0  0  0
  -21.7660   -5.9400   22.7420 C   0  0  0  0  0  0  0  0  0  0  0  0
  -21.1780   -6.5700   23.8610 C   0  0  0  0  0  3  0  0  0  0  0  0
  -20.9720   -5.8430   25.0510 C   0  0  0  0  0  3  0  0  0  0  0  0
  -21.3460   -4.4890   25.1220 C   0  0  0  0  0  0  0  0  0  0  0  0
  -21.9260   -3.8560   24.0080 C   0  0  0  0  0  3  0  0  0  0  0  0
  -22.1330   -4.5810   22.8210 C   0  0  0  0  0  0  0  0  0  0  0  0
  -22.6720   -3.9620   21.7420 F   0  0  0  0  0  0  0  0  0  0  0  0
  -21.1430   -3.7860   26.2610 F   0  0  0  0  0  0  0  0  0  0  0  0
  -23.0550  -13.2330   21.3850 C   0  0  0  0  0  0  0  0  0  0  0  0
  -22.4120  -12.5190   22.3030 N   0  0  0  0  0  0  0  0  0  0  0  0
  -22.5730  -14.2710   20.9340 O   0  0  0  0  0  0  0  0  0  0  0  0
  -22.8150  -11.6740   22.6790 H   0  0  0  0  0  0  0  0  0  0  0  0
  -21.5040  -12.8150   22.6290 H   0  0  0  0  0  0  0  0  0  0  0  0
  -25.6260  -14.9010   20.3860 N   0  0  0  0  0  0  0  0  0  0  0  0
  -24.8990  -15.5720   20.6080 H   0  0  0  0  0  0  0  0  0  0  0  0
  -26.4790  -15.3290   20.0500 H   0  0  0  0  0  0  0  0  0  0  0  0
  -30.6720  -25.1620   20.1530 O   0  0  0  0  0  0  0  0  0  0  0  0
  -31.8960  -26.7580   18.8310 C   0  0  0  0  0  1  0  0  0  0  0  0
  -30.5310  -26.1130   19.1040 C   0  0  0  0  0  3  0  0  0  0  0  0
  -29.4900  -27.1600   19.5340 C   0  0  0  0  0  2  0  0  0  0  0  0
  -28.2150  -26.5440   19.4450 O   0  0  0  0  0  0  0  0  0  0  0  0
  -24.5400  -31.5770   22.9710 C   0  0  0  0  0  0  0  0  0  0  0  0
  -27.0890  -27.3180   19.5960 C   0  0  0  0  0  0  0  0  0  0  0  0
  -23.2710  -30.2380   21.3210 C   0  0  0  0  0  3  0  0  0  0  0  0
  -24.6740  -28.7710   19.7800 C   0  0  0  0  0  0  0  0  0  0  0  0
  -25.7810  -30.6340   21.0300 C   0  0  0  0  0  2  0  0  0  0  0  0
  -25.8500  -29.2910   20.3360 C   0  0  0  0  0  0  0  0  0  0  0  0
  -27.0610  -28.5740   20.2470 C   0  0  0  0  0  3  0  0  0  0  0  0
  -25.8940  -26.7970   19.0590 C   0  0  0  0  0  3  0  0  0  0  0  0
  -24.6870  -27.5170   19.1440 C   0  0  0  0  0  3  0  0  0  0  0  0
  -23.4280  -29.6150   19.9080 C   0  0  0  0  0  2  0  0  0  0  0  0
  -24.5510  -30.8270   21.8340 N   0  0  0  0  0  0  0  0  0  0  0  0
  -23.4810  -31.8200   23.5640 O   0  0  0  0  0  0  0  0  0  0  0  0
  -22.6650  -29.1740   22.2640 C   0  0  0  0  0  0  0  0  0  0  0  0
  -21.3400  -28.9780   22.1680 N   0  0  0  0  0  0  0  0  0  0  0  0
  -23.3820  -28.5300   23.0330 O   0  0  0  0  0  0  0  0  0  0  0  0
  -20.8220  -29.5510   21.5170 H   0  0  0  0  0  0  0  0  0  0  0  0
  -17.9980  -27.7180   22.7130 C   0  0  0  0  0  0  0  0  0  0  0  0
  -20.5580  -28.0020   22.9270 C   0  0  0  0  0  3  0  0  0  0  0  0
  -20.6660  -26.5940   22.2980 C   0  0  0  0  0  2  0  0  0  0  0  0
  -19.5410  -26.2900   21.3030 C   0  0  0  0  0  2  0  0  0  0  0  0
  -18.1750  -26.3950   21.9870 C   0  0  0  0  0  2  0  0  0  0  0  0
  -19.1180  -28.4800   23.1410 C   0  0  0  0  0  0  0  0  0  0  0  0
  -18.8970  -29.7200   23.7770 C   0  0  0  0  0  3  0  0  0  0  0  0
  -17.5920  -30.1990   23.9930 C   0  0  0  0  0  3  0  0  0  0  0  0
  -16.4870  -29.4330   23.5820 C   0  0  0  0  0  3  0  0  0  0  0  0
  -16.6910  -28.1930   22.9480 C   0  0  0  0  0  3  0  0  0  0  0  0
  -25.8480  -32.1860   23.5640 C   0  0  0  0  0  3  0  0  0  0  0  0
  -26.4290  -31.3540   24.7730 C   0  0  1  0  0  0  0  0  0  0  0  0
  -25.3850  -31.0390   25.8700 C   0  0  0  0  0  1  0  0  0  0  0  0
  -27.0130  -30.0090   24.2760 C   0  0  0  0  0  1  0  0  0  0  0  0
  -27.5980  -32.1250   25.4300 C   0  0  0  0  0  1  0  0  0  0  0  0
  -25.5460  -33.5620   23.9750 N   0  0  0  0  0  0  0  0  0  0  0  0
  -25.8630  -34.6540   23.2670 C   0  0  0  0  0  0  0  0  0  0  0  0
  -26.5140  -34.6090   22.2190 O   0  0  0  0  0  0  0  0  0  0  0  0
  -24.9660  -33.6730   24.7950 H   0  0  0  0  0  0  0  0  0  0  0  0
  -24.1470  -36.4740   23.0140 C   0  0  0  0  0  1  0  0  0  0  0  0
  -25.3800  -36.0150   23.8060 C   0  0  0  0  0  3  0  0  0  0  0  0
  -27.5180  -36.8340   24.6990 C   0  0  0  0  0  1  0  0  0  0  0  0
  -26.4200  -37.0690   23.7660 N   0  0  0  0  0  0  0  0  0  0  0  0
  -26.0160  -37.9770   23.9720 H   0  0  0  0  0  0  0  0  0  0  0  0
  2  6  1  0
  3  8  1  0
  3  1  1  0
  4  9  1  0
  4  3  2  0
  5  2  2  0
  5  4  1  0
  6 12  1  0
  6  1  2  0
  7  8  1  0
  8 11  1  6
  9  7  1  0
  9 56  1  6
  9  8  1  0
 10  5  1  0
 13 12  1  0
 14 20  1  0
 14 27  1  0
 15 20  1  0
 16 17  1  0
 16 15  1  0
 18 17  1  0
 18 31  1  0
 18 19  1  0
 20 19  1  0
 21 14  2  0
 22 26  1  0
 24 22  1  0
 24 27  1  0
 25 23  1  0
 26 12  1  0
 26 23  1  0
 27 25  1  0
 28 29  2  0
 29 48  1  0
 30 29  1  0
 30 33  1  0
 31 32  1  0
 31 28  1  0
 32 30  2  0
 33 34  1  0
 34 35  2  0
 36 39  1  0
 36 35  1  0
 37 36  2  0
 38 37  1  0
 38 33  2  0
 39 40  1  0
 40 45  2  0
 40 41  1  0
 41 42  2  0
 42 43  1  0
 43 47  1  0
 44 43  2  0
 45 44  1  0
 46 45  1  0
 48 49  1  0
 49 52  1  0
 49 51  1  0
 50 48  2  0
 53 28  1  0
 53 54  1  0
 55 53  1  0
 58 57  1  0
 58 59  1  0
 58 56  1  0
 60 59  1  0
 60 62  1  0
 61 72  2  0
 62 67  1  0
 63 71  1  0
 63 73  1  0
 64 70  1  0
 64 66  1  0
 65 71  1  0
 66 65  1  0
 67 66  2  0
 68 69  1  0
 68 62  2  0
 69 64  2  0
 70 63  1  0
 71 61  1  0
 73 75  2  0
 74 73  1  0
 76 74  1  0
 77 86  2  0
 77 82  1  0
 78 74  1  0
 78 82  1  0
 79 78  1  0
 80 81  1  0
 80 79  1  0
 81 77  1  0
 82 83  2  0
 83 84  1  0
 85 84  2  0
 86 85  1  0
 87 61  1  0
 87 92  1  0
 87 88  1  0
 88 91  1  1
 88 89  1  0
 90 88  1  0
 92 95  1  0
 93 97  1  0
 93 92  1  0
 94 93  2  0
 97 96  1  0
 99 97  1  0
 99100  1  0
 99 98  1  0
M  ISO  4  14 100  27 100  59 101  60 101
M  END
>  <TORSDO>  (22) 
F 20

>  <SCORE>  (22) 
-11.001

>  <name>  (22) 
21

>  <ligand_id>  (22) 
21

>  <original_smiles>  (22) 
[H]c1c([H])c([H])c2c(c1[H])C([H])([H])C([H])([H])C([H])([H])C2([H])N([H])C(=O)C1([H])N(C(=O)C([H])(N([H])C(=O)C([H])(N([H])C([H])([H])[H])C([H])([H])[H])C(C([H])([H])[H])(C([H])([H])[H])C([H])([H])[H])C([H])([H])c2c([H])c(OC([H])([H])C([H])(OC34c5c(C([H])([H])[H])c([H])c(N([H])C6([H])C([H])([H])C([H])([H])N(C(=O)N7C([H])([H])C([H])([H])C([H])([H])C([H])(n8nc(-c9c([H])c([H])c(Oc%10c([H])c([H])c(F)c([H])c%10F)c([H])c9[H])c(C(=O)N([H])[H])c8N([H])[H])C7([H])[H])C([H])([H])C6([H])[H])c([H])c5C3(C([H])([H])[H])C4([H])[H])C([H])([H])[H])c([H])c([H])c2C1([H])[H]

>  <smiles>  (22) 
[H]c1c([H])c([H])c2c(c1[H])C([H])([H])C([H])([H])C([H])([H])C2([H])N([H])C(=O)C1([H])N(C(=O)C([H])(N([H])C(=O)C([H])(N([H])C([H])([H])[H])C([H])([H])[H])C(C([H])([H])[H])(C([H])([H])[H])C([H])([H])[H])C([H])([H])c2c([H])c(OC([H])([H])C([H])(OC34c5c(C([H])([H])[H])c([H])c(N([H])C6([H])C([H])([H])C([H])([H])N(C(=O)N7C([H])([H])C([H])([H])C([H])([H])C([H])(n8nc(-c9c([H])c([H])c(Oc%10c([H])c([H])c(F)c([H])c%10F)c([H])c9[H])c(C(=O)N([H])[H])c8N([H])[H])C7([H])[H])C([H])([H])C6([H])[H])c([H])c5C3(C([H])([H])[H])C4([H])[H])C([H])([H])[H])c([H])c([H])c2C1([H])[H]

$$$$
22:0:0
     RDKit          3D

 96105  0  0  1  0  0  0  0  0999 V2000
  -28.9330  -23.1650   21.1200 C   0  0  0  0  0  3  0  0  0  0  0  0
  -31.6250  -23.6630   20.5490 C   0  0  0  0  0  3  0  0  0  0  0  0
  -29.3490  -24.4990   20.8800 C   0  0  0  0  0  0  0  0  0  0  0  0
  -29.8460  -22.0830   21.0910 C   0  0  0  0  0  0  0  0  0  0  0  0
  -30.7180  -24.7430   20.6080 C   0  0  0  0  0  0  0  0  0  0  0  0
  -31.2060  -22.3310   20.7980 C   0  0  0  0  0  0  0  0  0  0  0  0
  -31.2500  -26.1520   20.4020 C   0  0  0  0  0  1  0  0  0  0  0  0
  -33.4550  -21.4860   20.6560 C   0  0  0  0  0  1  0  0  0  0  0  0
  -32.0610  -21.2480   20.7940 O   0  0  0  0  0  0  0  0  0  0  0  0
  -29.3890  -20.6570   21.4480 C   0  0  0  0  0  2  0  0  0  0  0  0
  -30.7360  -14.5580   20.0740 C   0  0  0  0  0  0  0  0  0  0  0  0
  -30.3760  -12.4060   18.9430 C   0  0  0  0  0  2  0  0  0  0  0  0
  -29.3700  -12.6250   17.7960 C   0  0  0  0  0  2  0  0  0  0  0  0
  -27.9230  -12.4830   18.3080 C   0  0  0  0  0  2  0  0  0  0  0  0
  -27.6530  -13.3030   19.5990 C   0  0  0  0  0  3  0  0  0  0  0  0
  -28.7740  -13.0910   20.6430 C   0  0  0  0  0  2  0  0  0  0  0  0
  -30.0580  -13.3840   19.9920 N   0  0  0  0  0  0  0  0  0  0  0  0
  -31.8930  -14.6940   19.6600 O   0  0  0  0  0  0  0  0  0  0  0  0
  -29.1040  -19.7550   20.2250 C   0  0  0  0  0  0  0  0  0  0  0  0
  -28.6360  -17.5140   19.2660 C   0  0  0  0  0  2  0  0  0  0  0  0
  -29.1410  -17.6230   21.6170 C   0  0  0  0  0  2  0  0  0  0  0  0
  -29.7630  -16.4880   19.0620 C   0  0  0  0  0  2  0  0  0  0  0  0
  -30.2060  -16.5010   21.4490 C   0  0  0  0  0  2  0  0  0  0  0  0
  -28.9920  -18.4050   20.3760 N   0  0  0  0  0  0  0  0  0  0  0  0
  -29.9650  -15.6570   20.2630 N   0  0  0  0  0  0  0  0  0  0  0  0
  -28.9530  -20.2930   19.1210 O   0  0  0  0  0  0  0  0  0  0  0  0
  -25.3050  -13.8860   20.4700 C   0  0  0  0  0  0  0  0  0  0  0  0
  -24.2590  -13.1030   20.8760 C   0  0  0  0  0  0  0  0  0  0  0  0
  -24.7170  -11.7530   20.7800 C   0  0  0  0  0  0  0  0  0  0  0  0
  -26.3330  -13.0130   20.1530 N   0  0  0  0  0  0  0  0  0  0  0  0
  -25.9870  -11.7240   20.3980 N   0  0  0  0  0  0  0  0  0  0  0  0
  -24.0020  -10.4850   20.9740 C   0  0  0  0  0  0  0  0  0  0  0  0
  -24.4560   -9.5160   21.8960 C   0  0  0  0  0  3  0  0  0  0  0  0
  -23.7400   -8.3120   22.0790 C   0  0  0  0  0  3  0  0  0  0  0  0
  -22.5590   -8.0690   21.3390 C   0  0  0  0  0  0  0  0  0  0  0  0
  -22.1240   -9.0280   20.4070 C   0  0  0  0  0  3  0  0  0  0  0  0
  -22.8390  -10.2230   20.2220 C   0  0  0  0  0  3  0  0  0  0  0  0
  -21.8140   -6.9190   21.4310 O   0  0  0  0  0  0  0  0  0  0  0  0
  -21.7400   -6.2010   22.5980 C   0  0  0  0  0  0  0  0  0  0  0  0
  -21.2710   -6.7770   23.7990 C   0  0  0  0  0  3  0  0  0  0  0  0
  -21.1470   -5.9840   24.9580 C   0  0  0  0  0  3  0  0  0  0  0  0
  -21.4810   -4.6170   24.9160 C   0  0  0  0  0  0  0  0  0  0  0  0
  -21.9430   -4.0410   23.7190 C   0  0  0  0  0  3  0  0  0  0  0  0
  -22.0690   -4.8310   22.5640 C   0  0  0  0  0  0  0  0  0  0  0  0
  -22.4950   -4.2660   21.4080 F   0  0  0  0  0  0  0  0  0  0  0  0
  -21.3550   -3.8530   26.0260 F   0  0  0  0  0  0  0  0  0  0  0  0
  -22.8790  -13.5710   21.2430 C   0  0  0  0  0  0  0  0  0  0  0  0
  -22.2020  -12.8470   22.1260 N   0  0  0  0  0  0  0  0  0  0  0  0
  -22.4130  -14.6110   20.7800 O   0  0  0  0  0  0  0  0  0  0  0  0
  -22.5920  -12.0040   22.5190 H   0  0  0  0  0  0  0  0  0  0  0  0
  -21.2790  -13.1400   22.4150 H   0  0  0  0  0  0  0  0  0  0  0  0
  -25.4620  -15.2620   20.3230 N   0  0  0  0  0  0  0  0  0  0  0  0
  -24.7090  -15.9190   20.4960 H   0  0  0  0  0  0  0  0  0  0  0  0
  -26.3080  -15.7010   19.9860 H   0  0  0  0  0  0  0  0  0  0  0  0
  -28.3210  -25.6300   21.0310 C   0  0  0  0  0  2  0  0  0  0  0  0
  -28.4290  -26.7170   20.0960 O   0  0  0  0  0  0  0  0  0  0  0  0
  -24.6510  -31.8860   23.2070 C   0  0  0  0  0  0  0  0  0  0  0  0
  -27.2930  -27.4910   20.0770 C   0  0  0  0  0  0  0  0  0  0  0  0
  -23.4390  -30.4900   21.5630 C   0  0  0  0  0  3  0  0  0  0  0  0
  -24.8930  -28.9760   20.1110 C   0  0  0  0  0  0  0  0  0  0  0  0
  -25.9600  -30.8710   21.3450 C   0  0  0  0  0  2  0  0  0  0  0  0
  -26.0530  -29.5060   20.6930 C   0  0  0  0  0  0  0  0  0  0  0  0
  -27.2600  -28.7710   20.6740 C   0  0  0  0  0  3  0  0  0  0  0  0
  -26.1240  -26.9780   19.4790 C   0  0  0  0  0  3  0  0  0  0  0  0
  -24.9230  -27.7120   19.4980 C   0  0  0  0  0  3  0  0  0  0  0  0
  -23.6420  -29.8230   20.1760 C   0  0  0  0  0  2  0  0  0  0  0  0
  -24.7020  -31.0960   22.0970 N   0  0  0  0  0  0  0  0  0  0  0  0
  -23.5730  -32.1470   23.7590 O   0  0  0  0  0  0  0  0  0  0  0  0
  -22.8040  -29.4560   22.5210 C   0  0  0  0  0  0  0  0  0  0  0  0
  -21.4780  -29.2760   22.4130 N   0  0  0  0  0  0  0  0  0  0  0  0
  -23.5010  -28.8210   23.3160 O   0  0  0  0  0  0  0  0  0  0  0  0
  -20.9770  -29.8420   21.7420 H   0  0  0  0  0  0  0  0  0  0  0  0
  -18.1120  -28.0710   22.9390 C   0  0  0  0  0  0  0  0  0  0  0  0
  -20.6720  -28.3290   23.1850 C   0  0  0  0  0  3  0  0  0  0  0  0
  -20.7710  -26.9050   22.5930 C   0  0  0  0  0  2  0  0  0  0  0  0
  -19.6580  -26.5900   21.5900 C   0  0  0  0  0  2  0  0  0  0  0  0
  -18.2830  -26.7280   22.2500 C   0  0  0  0  0  2  0  0  0  0  0  0
  -19.2350  -28.8300   23.3640 C   0  0  0  0  0  0  0  0  0  0  0  0
  -19.0210  -30.0880   23.9680 C   0  0  0  0  0  3  0  0  0  0  0  0
  -17.7180  -30.5860   24.1520 C   0  0  0  0  0  3  0  0  0  0  0  0
  -16.6100  -29.8230   23.7450 C   0  0  0  0  0  3  0  0  0  0  0  0
  -16.8080  -28.5670   23.1440 C   0  0  0  0  0  3  0  0  0  0  0  0
  -25.9390  -32.5210   23.8190 C   0  0  0  0  0  3  0  0  0  0  0  0
  -26.4780  -31.7380   25.0800 C   0  0  1  0  0  0  0  0  0  0  0  0
  -25.4000  -31.4780   26.1570 C   0  0  0  0  0  1  0  0  0  0  0  0
  -27.0680  -30.3700   24.6610 C   0  0  0  0  0  1  0  0  0  0  0  0
  -27.6300  -32.5340   25.7370 C   0  0  0  0  0  1  0  0  0  0  0  0
  -25.6240  -33.9130   24.1660 N   0  0  0  0  0  0  0  0  0  0  0  0
  -25.9400  -34.9740   23.4110 C   0  0  0  0  0  0  0  0  0  0  0  0
  -26.5990  -34.8850   22.3720 O   0  0  0  0  0  0  0  0  0  0  0  0
  -25.0380  -34.0560   24.9760 H   0  0  0  0  0  0  0  0  0  0  0  0
  -24.1940  -36.7560   23.0890 C   0  0  0  0  0  1  0  0  0  0  0  0
  -25.4460  -36.3550   23.8860 C   0  0  0  0  0  3  0  0  0  0  0  0
  -27.5820  -37.2460   24.7060 C   0  0  0  0  0  1  0  0  0  0  0  0
  -26.4700  -37.4160   23.7740 N   0  0  0  0  0  0  0  0  0  0  0  0
  -26.0580  -38.3320   23.9360 H   0  0  0  0  0  0  0  0  0  0  0  0
  2  5  2  0
  2  6  1  0
  3 55  1  0
  3  1  2  0
  4  1  1  0
  4 10  1  0
  5  3  1  0
  6  4  2  0
  7  5  1  0
  8  9  1  0
  9  6  1  0
 11 25  1  0
 12 17  1  0
 13 14  1  0
 13 12  1  0
 15 14  1  0
 15 30  1  0
 15 16  1  0
 17 11  1  0
 17 16  1  0
 18 11  2  0
 19 24  1  0
 19 10  1  0
 20 24  1  0
 22 20  1  0
 22 25  1  0
 23 21  1  0
 24 21  1  0
 25 23  1  0
 26 19  2  0
 27 28  2  0
 28 47  1  0
 29 28  1  0
 29 32  1  0
 30 31  1  0
 30 27  1  0
 31 29  2  0
 32 33  1  0
 33 34  2  0
 35 38  1  0
 35 34  1  0
 36 35  2  0
 37 36  1  0
 37 32  2  0
 38 39  1  0
 39 40  1  0
 40 41  2  0
 42 41  1  0
 42 46  1  0
 43 42  2  0
 44 39  2  0
 44 43  1  0
 45 44  1  0
 47 48  1  0
 48 51  1  0
 48 50  1  0
 49 47  2  0
 52 27  1  0
 52 53  1  0
 54 52  1  0
 56 55  1  0
 57 68  2  0
 58 56  1  0
 58 63  1  0
 59 67  1  0
 59 69  1  0
 60 66  1  0
 60 62  1  0
 61 67  1  0
 62 61  1  0
 63 62  2  0
 64 65  1  0
 64 58  2  0
 65 60  2  0
 66 59  1  0
 67 57  1  0
 69 71  2  0
 70 69  1  0
 72 70  1  0
 73 82  2  0
 73 78  1  0
 74 70  1  0
 74 78  1  0
 75 74  1  0
 76 77  1  0
 76 75  1  0
 77 73  1  0
 78 79  2  0
 79 80  1  0
 81 80  2  0
 82 81  1  0
 83 57  1  0
 83 88  1  0
 83 84  1  0
 84 87  1  1
 84 85  1  0
 86 84  1  0
 88 91  1  0
 89 93  1  0
 89 88  1  0
 90 89  2  0
 93 92  1  0
 95 93  1  0
 95 96  1  0
 95 94  1  0
M  ISO  4  11 100  25 100  55 101  56 101
M  END
>  <TORSDO>  (23) 
F 19

>  <SCORE>  (23) 
-13.952

>  <name>  (23) 
22

>  <ligand_id>  (23) 
22

>  <original_smiles>  (23) 
[H]c1c([H])c([H])c2c(c1[H])C([H])([H])C([H])([H])C([H])([H])C2([H])N([H])C(=O)C1([H])N(C(=O)C([H])(N([H])C(=O)C([H])(N([H])C([H])([H])[H])C([H])([H])[H])C(C([H])([H])[H])(C([H])([H])[H])C([H])([H])[H])C([H])([H])c2c([H])c(OC([H])([H])c3c([H])c(C([H])([H])C(=O)N4C([H])([H])C([H])([H])N(C(=O)N5C([H])([H])C([H])([H])C([H])([H])C([H])(n6nc(-c7c([H])c([H])c(Oc8c([H])c([H])c(F)c([H])c8F)c([H])c7[H])c(C(=O)N([H])[H])c6N([H])[H])C5([H])[H])C([H])([H])C4([H])[H])c(OC([H])([H])[H])c([H])c3C([H])([H])[H])c([H])c([H])c2C1([H])[H]

>  <smiles>  (23) 
[H]c1c([H])c([H])c2c(c1[H])C([H])([H])C([H])([H])C([H])([H])C2([H])N([H])C(=O)C1([H])N(C(=O)C([H])(N([H])C(=O)C([H])(N([H])C([H])([H])[H])C([H])([H])[H])C(C([H])([H])[H])(C([H])([H])[H])C([H])([H])[H])C([H])([H])c2c([H])c(OC([H])([H])c3c([H])c(C([H])([H])C(=O)N4C([H])([H])C([H])([H])N(C(=O)N5C([H])([H])C([H])([H])C([H])([H])C([H])(n6nc(-c7c([H])c([H])c(Oc8c([H])c([H])c(F)c([H])c8F)c([H])c7[H])c(C(=O)N([H])[H])c6N([H])[H])C5([H])[H])C([H])([H])C4([H])[H])c(OC([H])([H])[H])c([H])c3C([H])([H])[H])c([H])c([H])c2C1([H])[H]

$$$$
23:0:0
     RDKit          3D

 98108  0  0  1  0  0  0  0  0999 V2000
  -30.6050  -21.4600   22.3570 C   0  0  0  0  0  3  0  0  0  0  0  0
  -30.6380  -23.6740   20.5910 C   0  0  0  0  0  0  0  0  0  0  0  0
  -31.0050  -22.7210   22.8290 C   0  0  0  0  0  0  0  0  0  0  0  0
  -30.2130  -21.2650   21.0170 C   0  0  0  0  0  0  0  0  0  0  0  0
  -31.0120  -23.8330   21.9540 C   0  0  0  0  0  0  0  0  0  0  0  0
  -30.2970  -22.3660   20.1140 C   0  0  0  0  0  0  0  0  0  0  0  0
  -31.3880  -22.8540   24.2950 C   0  0  0  0  0  1  0  0  0  0  0  0
  -31.4070  -25.2090   22.4940 C   0  0  0  0  0  1  0  0  0  0  0  0
  -30.0200  -22.1420   18.6290 C   0  0  0  0  0  1  0  0  0  0  0  0
  -29.7760  -24.9850   18.4370 C   0  0  0  0  0  2  0  0  0  0  0  0
  -30.6110  -24.9090   19.6940 C   0  0  0  0  0  3  0  0  0  0  0  0
  -29.3860  -25.8250   19.6230 C   0  0  0  0  0  3  0  0  0  0  0  0
  -29.5460  -27.2350   19.3790 O   0  0  0  0  0  0  0  0  0  0  0  0
  -25.1590  -31.3610   23.1850 C   0  0  0  0  0  0  0  0  0  0  0  0
  -28.3490  -27.9210   19.4200 C   0  0  0  0  0  0  0  0  0  0  0  0
  -24.1880  -30.3140   21.1680 C   0  0  0  0  0  3  0  0  0  0  0  0
  -25.8540  -29.2510   19.5630 C   0  0  0  0  0  0  0  0  0  0  0  0
  -26.6870  -30.8590   21.2800 C   0  0  0  0  0  2  0  0  0  0  0  0
  -26.9260  -29.6850   20.3530 C   0  0  0  0  0  0  0  0  0  0  0  0
  -28.1780  -29.0310   20.2790 C   0  0  0  0  0  3  0  0  0  0  0  0
  -27.2580  -27.5150   18.6160 C   0  0  0  0  0  3  0  0  0  0  0  0
  -26.0160  -28.1660   18.6890 C   0  0  0  0  0  3  0  0  0  0  0  0
  -24.5470  -29.9960   19.6940 C   0  0  0  0  0  2  0  0  0  0  0  0
  -25.3580  -30.8450   21.9390 N   0  0  0  0  0  0  0  0  0  0  0  0
  -24.0230  -31.4340   23.6740 O   0  0  0  0  0  0  0  0  0  0  0  0
  -23.5510  -29.0590   21.8050 C   0  0  0  0  0  0  0  0  0  0  0  0
  -22.2390  -28.8750   21.5830 N   0  0  0  0  0  0  0  0  0  0  0  0
  -24.2340  -28.2650   22.4570 O   0  0  0  0  0  0  0  0  0  0  0  0
  -21.7480  -29.5730   21.0420 H   0  0  0  0  0  0  0  0  0  0  0  0
  -18.8690  -27.5910   21.8070 C   0  0  0  0  0  0  0  0  0  0  0  0
  -21.4360  -27.7460   22.0550 C   0  0  0  0  0  3  0  0  0  0  0  0
  -21.5030  -26.5630   21.0620 C   0  0  0  0  0  2  0  0  0  0  0  0
  -20.3640  -26.5720   20.0390 C   0  0  0  0  0  2  0  0  0  0  0  0
  -19.0060  -26.5140   20.7440 C   0  0  0  0  0  2  0  0  0  0  0  0
  -20.0100  -28.1800   22.4120 C   0  0  0  0  0  0  0  0  0  0  0  0
  -19.8280  -29.2020   23.3680 C   0  0  0  0  0  3  0  0  0  0  0  0
  -18.5350  -29.6310   23.7260 C   0  0  0  0  0  3  0  0  0  0  0  0
  -17.4080  -29.0330   23.1360 C   0  0  0  0  0  3  0  0  0  0  0  0
  -17.5760  -28.0130   22.1820 C   0  0  0  0  0  3  0  0  0  0  0  0
  -26.3430  -31.9050   24.0420 C   0  0  0  0  0  3  0  0  0  0  0  0
  -26.7430  -30.9440   25.2280 C   0  0  1  0  0  0  0  0  0  0  0  0
  -25.5430  -30.4930   26.0930 C   0  0  0  0  0  1  0  0  0  0  0  0
  -27.4390  -29.6730   24.6890 C   0  0  0  0  0  1  0  0  0  0  0  0
  -27.7650  -31.6470   26.1500 C   0  0  0  0  0  1  0  0  0  0  0  0
  -25.9510  -33.2250   24.5500 N   0  0  0  0  0  0  0  0  0  0  0  0
  -26.3260  -34.3920   24.0080 C   0  0  0  0  0  0  0  0  0  0  0  0
  -27.1080  -34.4660   23.0560 O   0  0  0  0  0  0  0  0  0  0  0  0
  -25.2680  -33.2400   25.2940 H   0  0  0  0  0  0  0  0  0  0  0  0
  -24.5880  -36.1890   23.7350 C   0  0  0  0  0  1  0  0  0  0  0  0
  -25.7400  -35.6800   24.6170 C   0  0  0  0  0  3  0  0  0  0  0  0
  -27.7280  -36.4540   25.8310 C   0  0  0  0  0  1  0  0  0  0  0  0
  -26.7420  -36.7540   24.7970 N   0  0  0  0  0  0  0  0  0  0  0  0
  -26.2890  -37.6320   25.0340 H   0  0  0  0  0  0  0  0  0  0  0  0
  -29.6260  -19.8840   20.6350 C   0  0  0  0  0  3  0  0  0  0  0  0
  -32.1460  -14.6470   20.8370 C   0  0  0  0  0  0  0  0  0  0  0  0
  -31.8990  -12.2400   20.3700 C   0  0  0  0  0  2  0  0  0  0  0  0
  -31.1600  -12.0300   19.0350 C   0  0  0  0  0  2  0  0  0  0  0  0
  -29.6380  -11.9910   19.2670 C   0  0  0  0  0  2  0  0  0  0  0  0
  -29.1340  -13.1800   20.1300 C   0  0  0  0  0  3  0  0  0  0  0  0
  -30.0120  -13.3800   21.3840 C   0  0  0  0  0  2  0  0  0  0  0  0
  -31.4130  -13.5030   20.9540 N   0  0  0  0  0  0  0  0  0  0  0  0
  -33.3280  -14.6220   20.4750 O   0  0  0  0  0  0  0  0  0  0  0  0
  -30.9460  -17.9540   19.5960 C   0  0  0  0  0  2  0  0  0  0  0  0
  -30.1860  -17.6520   21.9480 C   0  0  0  0  0  2  0  0  0  0  0  0
  -31.9330  -16.8000   19.8110 C   0  0  0  0  0  2  0  0  0  0  0  0
  -31.2210  -16.5130   22.1070 C   0  0  0  0  0  2  0  0  0  0  0  0
  -30.6280  -18.7070   20.9000 C   0  0  0  0  0  3  0  0  0  0  0  0
  -31.4810  -15.8310   20.8300 N   0  0  0  0  0  0  0  0  0  0  0  0
  -26.7300  -13.9870   20.5630 C   0  0  0  0  0  0  0  0  0  0  0  0
  -25.5740  -13.3110   20.8480 C   0  0  0  0  0  0  0  0  0  0  0  0
  -25.9320  -11.9300   20.9190 C   0  0  0  0  0  0  0  0  0  0  0  0
  -27.7240  -13.0240   20.4770 N   0  0  0  0  0  0  0  0  0  0  0  0
  -27.2390  -11.7840   20.7490 N   0  0  0  0  0  0  0  0  0  0  0  0
  -25.0940  -10.7340   21.0840 C   0  0  0  0  0  0  0  0  0  0  0  0
  -25.1760   -9.9270   22.2410 C   0  0  0  0  0  3  0  0  0  0  0  0
  -24.3470   -8.7940   22.3830 C   0  0  0  0  0  3  0  0  0  0  0  0
  -23.4230   -8.4570   21.3660 C   0  0  0  0  0  0  0  0  0  0  0  0
  -23.3630   -9.2490   20.2060 C   0  0  0  0  0  3  0  0  0  0  0  0
  -24.1910  -10.3740   20.0630 C   0  0  0  0  0  3  0  0  0  0  0  0
  -22.5970   -7.3600   21.4060 O   0  0  0  0  0  0  0  0  0  0  0  0
  -21.9270   -7.0050   22.5490 C   0  0  0  0  0  0  0  0  0  0  0  0
  -21.0890   -7.9120   23.2350 C   0  0  0  0  0  3  0  0  0  0  0  0
  -20.3660   -7.4840   24.3660 C   0  0  0  0  0  3  0  0  0  0  0  0
  -20.4700   -6.1520   24.8060 C   0  0  0  0  0  0  0  0  0  0  0  0
  -21.2990   -5.2460   24.1220 C   0  0  0  0  0  3  0  0  0  0  0  0
  -22.0230   -5.6710   22.9940 C   0  0  0  0  0  0  0  0  0  0  0  0
  -22.8040   -4.7880   22.3260 F   0  0  0  0  0  0  0  0  0  0  0  0
  -19.7680   -5.7390   25.8880 F   0  0  0  0  0  0  0  0  0  0  0  0
  -24.1970  -13.9010   20.9530 C   0  0  0  0  0  0  0  0  0  0  0  0
  -23.3450  -13.3210   21.7930 N   0  0  0  0  0  0  0  0  0  0  0  0
  -23.8830  -14.9120   20.3270 O   0  0  0  0  0  0  0  0  0  0  0  0
  -23.6070  -12.5040   22.3240 H   0  0  0  0  0  0  0  0  0  0  0  0
  -22.4150  -13.7010   21.9080 H   0  0  0  0  0  0  0  0  0  0  0  0
  -27.0190  -15.3320   20.3500 N   0  0  0  0  0  0  0  0  0  0  0  0
  -26.3030  -16.0510   20.3620 H   0  0  0  0  0  0  0  0  0  0  0  0
  -27.9390  -15.6920   20.1340 H   0  0  0  0  0  0  0  0  0  0  0  0
  -27.4940  -21.0010   21.6050 C   0  0  0  0  0  1  0  0  0  0  0  0
  -28.2290  -19.6880   21.2830 C   0  0  0  0  0  2  0  0  0  0  0  0
  1  3  1  0
  2  5  1  0
  3  7  1  0
  4  1  2  0
  5  8  1  0
  5  3  2  0
  6  2  2  0
  6  4  1  0
  9  6  1  0
 10 12  1  0
 10 11  1  0
 11  2  1  0
 12 13  1  0
 12 11  1  0
 13 15  1  0
 14 25  2  0
 15 20  1  0
 16 26  1  0
 16 24  1  0
 17 23  1  0
 17 19  1  0
 18 24  1  0
 19 18  1  0
 20 19  2  0
 21 22  1  0
 21 15  2  0
 22 17  2  0
 23 16  1  0
 24 14  1  0
 26 28  2  0
 27 26  1  0
 29 27  1  0
 30 39  2  0
 30 35  1  0
 31 27  1  0
 31 35  1  0
 32 31  1  0
 33 34  1  0
 33 32  1  0
 34 30  1  0
 35 36  2  0
 36 37  1  0
 38 37  2  0
 39 38  1  0
 40 14  1  0
 40 45  1  0
 40 41  1  0
 41 42  1  1
 41 44  1  0
 43 41  1  0
 45 48  1  0
 46 45  1  0
 46 50  1  0
 47 46  2  0
 50 49  1  0
 50 52  1  0
 52 53  1  0
 52 51  1  0
 54  4  1  0
 54 98  1  0
 55 61  1  0
 56 61  1  0
 57 58  1  0
 57 56  1  0
 59 58  1  0
 59 72  1  0
 59 60  1  0
 61 60  1  0
 62 55  2  0
 63 65  1  0
 63 67  1  0
 64 66  1  0
 65 68  1  0
 67 54  1  0
 67 64  1  0
 68 55  1  0
 68 66  1  0
 69 70  2  0
 70 71  1  0
 70 89  1  0
 71 74  1  0
 72 69  1  0
 72 73  1  0
 73 71  2  0
 74 75  1  0
 75 76  2  0
 77 80  1  0
 77 76  1  0
 78 77  2  0
 79 78  1  0
 79 74  2  0
 80 81  1  0
 81 86  2  0
 81 82  1  0
 82 83  2  0
 83 84  1  0
 84 88  1  0
 85 84  2  0
 86 85  1  0
 87 86  1  0
 89 90  1  0
 90 93  1  0
 90 92  1  0
 91 89  2  0
 94 95  1  0
 94 69  1  0
 96 94  1  0
 98 97  1  0
M  ISO  4  12 101  13 101  55 100  68 100
M  END
>  <TORSDO>  (24) 
F 19

>  <SCORE>  (24) 
-1.560

>  <name>  (24) 
23

>  <ligand_id>  (24) 
23

>  <original_smiles>  (24) 
[H]c1c([H])c([H])c2c(c1[H])C([H])([H])C([H])([H])C([H])([H])C2([H])N([H])C(=O)C1([H])N(C(=O)C([H])(N([H])C(=O)C([H])(N([H])C([H])([H])[H])C([H])([H])[H])C(C([H])([H])[H])(C([H])([H])[H])C([H])([H])[H])C([H])([H])c2c([H])c(OC3([H])C([H])([H])C3([H])c3c(C([H])([H])[H])c(C([H])([H])[H])c([H])c(C([H])(C([H])([H])C([H])([H])[H])C4([H])C([H])([H])C([H])([H])N(C(=O)N5C([H])([H])C([H])([H])C([H])([H])C([H])(n6nc(-c7c([H])c([H])c(Oc8c([H])c([H])c(F)c([H])c8F)c([H])c7[H])c(C(=O)N([H])[H])c6N([H])[H])C5([H])[H])C([H])([H])C4([H])[H])c3C([H])([H])[H])c([H])c([H])c2C1([H])[H]

>  <smiles>  (24) 
[H]c1c([H])c([H])c2c(c1[H])C([H])([H])C([H])([H])C([H])([H])C2([H])N([H])C(=O)C1([H])N(C(=O)C([H])(N([H])C(=O)C([H])(N([H])C([H])([H])[H])C([H])([H])[H])C(C([H])([H])[H])(C([H])([H])[H])C([H])([H])[H])C([H])([H])c2c([H])c(OC3([H])C([H])([H])C3([H])c3c(C([H])([H])[H])c(C([H])([H])[H])c([H])c(C([H])(C([H])([H])C([H])([H])[H])C4([H])C([H])([H])C([H])([H])N(C(=O)N5C([H])([H])C([H])([H])C([H])([H])C([H])(n6nc(-c7c([H])c([H])c(Oc8c([H])c([H])c(F)c([H])c8F)c([H])c7[H])c(C(=O)N([H])[H])c6N([H])[H])C5([H])[H])C([H])([H])C4([H])[H])c3C([H])([H])[H])c([H])c([H])c2C1([H])[H]

$$$$
24:0:0
     RDKit          3D

 94103  0  0  1  0  0  0  0  0999 V2000
  -30.8890  -15.4100   19.7240 C   0  0  0  0  0  0  0  0  0  0  0  0
  -30.7080  -12.8610   19.1350 C   0  0  0  0  0  2  0  0  0  0  0  0
  -29.7600  -12.4490   17.9850 C   0  0  0  0  0  2  0  0  0  0  0  0
  -28.3360  -12.2330   18.5140 C   0  0  0  0  0  2  0  0  0  0  0  0
  -27.9230  -13.3370   19.5190 C   0  0  0  0  0  3  0  0  0  0  0  0
  -29.0170  -13.6970   20.5520 C   0  0  0  0  0  2  0  0  0  0  0  0
  -30.1920  -14.1470   19.7780 N   0  0  0  0  0  0  0  0  0  0  0  0
  -32.1000  -15.1670   19.5730 O   0  0  0  0  0  0  0  0  0  0  0  0
  -31.3730  -22.8400   21.2850 C   0  0  0  0  0  3  0  0  0  0  0  0
  -29.8490  -21.1390   19.5860 C   0  0  0  0  0  0  0  0  0  0  0  0
  -31.0120  -20.6340   20.3070 C   0  0  0  0  0  0  0  0  0  0  0  0
  -30.3420  -23.4350   20.5530 C   0  0  0  0  0  0  0  0  0  0  0  0
  -29.5750  -22.7490   19.5530 C   0  0  0  0  0  0  0  0  0  0  0  0
  -31.7280  -21.5100   21.1490 C   0  0  0  0  0  0  0  0  0  0  0  0
  -29.1640  -19.6980   19.0100 C   0  0  0  0  0  3  0  0  0  0  0  0
  -31.5750  -19.1380   20.3850 C   0  0  0  0  0  3  0  0  0  0  0  0
  -31.4620  -17.9660   19.3110 C   0  0  0  0  0  3  0  0  0  0  0  0
  -29.2310  -17.9560   19.5420 C   0  0  0  0  0  0  0  0  0  0  0  0
  -30.0920  -24.8820   20.9780 C   0  0  0  0  0  1  0  0  0  0  0  0
  -30.4580  -16.8830   19.5980 N   0  0  0  0  0  0  0  0  0  0  0  0
  -25.6670  -14.0170   20.4700 C   0  0  0  0  0  0  0  0  0  0  0  0
  -24.5800  -13.3040   20.8890 C   0  0  0  0  0  0  0  0  0  0  0  0
  -24.9410  -11.9270   20.7720 C   0  0  0  0  0  0  0  0  0  0  0  0
  -26.6230  -13.0820   20.1230 N   0  0  0  0  0  0  0  0  0  0  0  0
  -26.2040  -11.8120   20.3710 N   0  0  0  0  0  0  0  0  0  0  0  0
  -24.1280  -10.7160   20.9600 C   0  0  0  0  0  0  0  0  0  0  0  0
  -24.5270   -9.6880   21.8400 C   0  0  0  0  0  3  0  0  0  0  0  0
  -23.7160   -8.5470   22.0250 C   0  0  0  0  0  3  0  0  0  0  0  0
  -22.4910   -8.4270   21.3270 C   0  0  0  0  0  0  0  0  0  0  0  0
  -22.1080   -9.4420   20.4340 C   0  0  0  0  0  3  0  0  0  0  0  0
  -22.9180  -10.5750   20.2490 C   0  0  0  0  0  3  0  0  0  0  0  0
  -21.6520   -7.3430   21.4230 O   0  0  0  0  0  0  0  0  0  0  0  0
  -21.5780   -6.5880   22.5660 C   0  0  0  0  0  0  0  0  0  0  0  0
  -21.1850   -7.1460   23.8020 C   0  0  0  0  0  3  0  0  0  0  0  0
  -21.0550   -6.3210   24.9380 C   0  0  0  0  0  3  0  0  0  0  0  0
  -21.3090   -4.9390   24.8370 C   0  0  0  0  0  0  0  0  0  0  0  0
  -21.6940   -4.3820   23.6060 C   0  0  0  0  0  3  0  0  0  0  0  0
  -21.8250   -5.2040   22.4730 C   0  0  0  0  0  0  0  0  0  0  0  0
  -22.1770   -4.6580   21.2830 F   0  0  0  0  0  0  0  0  0  0  0  0
  -21.1760   -4.1460   25.9250 F   0  0  0  0  0  0  0  0  0  0  0  0
  -23.2450  -13.8750   21.2670 C   0  0  0  0  0  0  0  0  0  0  0  0
  -22.5300  -13.2100   22.1680 N   0  0  0  0  0  0  0  0  0  0  0  0
  -22.8530  -14.9450   20.8050 O   0  0  0  0  0  0  0  0  0  0  0  0
  -22.8640  -12.3430   22.5610 H   0  0  0  0  0  0  0  0  0  0  0  0
  -21.6360  -13.5730   22.4680 H   0  0  0  0  0  0  0  0  0  0  0  0
  -25.9050  -15.3780   20.3180 N   0  0  0  0  0  0  0  0  0  0  0  0
  -25.1780  -16.0660   20.4790 H   0  0  0  0  0  0  0  0  0  0  0  0
  -26.7370  -15.7690   19.8950 H   0  0  0  0  0  0  0  0  0  0  0  0
  -28.9970  -17.5210   22.0970 C   0  0  0  0  0  1  0  0  0  0  0  0
  -28.2990  -17.6960   20.7420 C   0  0  0  0  0  2  0  0  0  0  0  0
  -32.7620  -21.0740   21.9320 O   0  0  0  0  0  0  0  0  0  0  0  0
  -33.1400  -21.7580   22.4750 H   0  0  0  0  0  0  0  0  0  0  0  0
  -28.6060  -24.0230   18.7520 C   0  0  0  0  0  2  0  0  0  0  0  0
  -28.6180  -25.7120   18.9510 O   0  0  0  0  0  0  0  0  0  0  0  0
  -24.6440  -31.1130   22.5610 C   0  0  0  0  0  0  0  0  0  0  0  0
  -27.5160  -26.7440   19.0140 C   0  0  0  0  0  0  0  0  0  0  0  0
  -23.5210  -29.7690   20.8320 C   0  0  0  0  0  3  0  0  0  0  0  0
  -25.0570  -28.4390   19.2140 C   0  0  0  0  0  0  0  0  0  0  0  0
  -26.0530  -30.2200   20.6300 C   0  0  0  0  0  2  0  0  0  0  0  0
  -26.2290  -28.8850   19.8360 C   0  0  0  0  0  0  0  0  0  0  0  0
  -27.4480  -28.0650   19.7070 C   0  0  0  0  0  3  0  0  0  0  0  0
  -26.2940  -26.4640   18.3640 C   0  0  0  0  0  3  0  0  0  0  0  0
  -25.1170  -27.2580   18.4560 C   0  0  0  0  0  3  0  0  0  0  0  0
  -23.7600  -29.2380   19.3890 C   0  0  0  0  0  2  0  0  0  0  0  0
  -24.7610  -30.3940   21.3960 N   0  0  0  0  0  0  0  0  0  0  0  0
  -23.5550  -31.2490   23.1410 O   0  0  0  0  0  0  0  0  0  0  0  0
  -22.9570  -28.6290   21.7210 C   0  0  0  0  0  0  0  0  0  0  0  0
  -21.6350  -28.3830   21.6580 N   0  0  0  0  0  0  0  0  0  0  0  0
  -23.7160  -27.9700   22.4360 O   0  0  0  0  0  0  0  0  0  0  0  0
  -21.0710  -28.9730   21.0620 H   0  0  0  0  0  0  0  0  0  0  0  0
  -18.3750  -26.9160   22.2830 C   0  0  0  0  0  0  0  0  0  0  0  0
  -20.9320  -27.3070   22.3670 C   0  0  0  0  0  3  0  0  0  0  0  0
  -21.0520  -25.9670   21.6020 C   0  0  0  0  0  2  0  0  0  0  0  0
  -19.8810  -25.7080   20.6490 C   0  0  0  0  0  2  0  0  0  0  0  0
  -18.5580  -25.6800   21.4190 C   0  0  0  0  0  2  0  0  0  0  0  0
  -19.4870  -27.6880   22.7150 C   0  0  0  0  0  0  0  0  0  0  0  0
  -19.2560  -28.8420   23.4940 C   0  0  0  0  0  3  0  0  0  0  0  0
  -17.9470  -29.2290   23.8390 C   0  0  0  0  0  3  0  0  0  0  0  0
  -16.8510  -28.4550   23.4190 C   0  0  0  0  0  3  0  0  0  0  0  0
  -17.0660  -27.3000   22.6470 C   0  0  0  0  0  3  0  0  0  0  0  0
  -25.8730  -31.8160   23.2140 C   0  0  0  0  0  3  0  0  0  0  0  0
  -25.4420  -33.1500   23.6730 N   0  0  0  0  0  0  0  0  0  0  0  0
  -25.6770  -34.3000   23.0260 C   0  0  0  0  0  0  0  0  0  0  0  0
  -26.3400  -34.3520   21.9870 O   0  0  0  0  0  0  0  0  0  0  0  0
  -24.8440  -33.1710   24.4860 H   0  0  0  0  0  0  0  0  0  0  0  0
  -23.8070  -35.9780   22.8650 C   0  0  0  0  0  1  0  0  0  0  0  0
  -25.0870  -35.5940   23.6220 C   0  0  0  0  0  3  0  0  0  0  0  0
  -27.1440  -36.5760   24.5380 C   0  0  0  0  0  1  0  0  0  0  0  0
  -26.0290  -36.7340   23.6080 N   0  0  0  0  0  0  0  0  0  0  0  0
  -25.5480  -37.6000   23.8340 H   0  0  0  0  0  0  0  0  0  0  0  0
  -26.4770  -31.0000   24.4240 C   0  0  1  0  0  0  0  0  0  0  0  0
  -25.4340  -30.6070   25.4960 C   0  0  0  0  0  1  0  0  0  0  0  0
  -27.1530  -29.7000   23.9330 C   0  0  0  0  0  1  0  0  0  0  0  0
  -27.5780  -31.8340   25.1190 C   0  0  0  0  0  1  0  0  0  0  0  0
  1  7  1  0
  2  7  1  0
  3  4  1  0
  3  2  1  0
  5  4  1  0
  5 24  1  0
  5  6  1  0
  7  6  1  0
  8  1  2  0
 10 11  1  0
 11 16  1  0
 11 14  2  0
 12 19  1  0
 12  9  2  0
 13 10  2  0
 13 12  1  0
 14  9  1  0
 14 51  1  0
 15 18  2  3
 15 10  1  0
 17 20  1  0
 17 16  2  0
 18 20  1  0
 18 50  1  0
 20  1  1  0
 21 22  2  0
 22 41  1  0
 23 22  1  0
 23 26  1  0
 24 25  1  0
 24 21  1  0
 25 23  2  0
 26 27  1  0
 27 28  2  0
 29 32  1  0
 29 28  1  0
 30 29  2  0
 31 30  1  0
 31 26  2  0
 32 33  1  0
 33 34  1  0
 34 35  2  0
 36 35  1  0
 36 40  1  0
 37 36  2  0
 38 33  2  0
 38 37  1  0
 39 38  1  0
 41 42  1  0
 42 45  1  0
 42 44  1  0
 43 41  2  0
 46 21  1  0
 46 47  1  0
 48 46  1  0
 50 49  1  0
 51 52  1  0
 53 54  1  0
 53 13  1  0
 54 56  1  0
 55 66  2  0
 56 61  1  0
 57 65  1  0
 57 67  1  0
 58 64  1  0
 58 60  1  0
 59 65  1  0
 60 59  1  0
 61 60  2  0
 62 63  1  0
 62 56  2  0
 63 58  2  0
 64 57  1  0
 65 55  1  0
 67 69  2  0
 68 67  1  0
 70 68  1  0
 71 80  2  0
 71 76  1  0
 72 68  1  0
 72 76  1  0
 73 72  1  0
 74 75  1  0
 74 73  1  0
 75 71  1  0
 76 77  2  0
 77 78  1  0
 79 78  2  0
 80 79  1  0
 81 55  1  0
 81 82  1  0
 81 91  1  0
 82 85  1  0
 83 87  1  0
 83 82  1  0
 84 83  2  0
 87 86  1  0
 89 87  1  0
 89 90  1  0
 89 88  1  0
 91 94  1  1
 91 92  1  0
 93 91  1  0
M  ISO  4   1 100  20 100  53 101  54 101
M  END
>  <TORSDO>  (25) 
F 18

>  <SCORE>  (25) 
-11.028

>  <name>  (25) 
24

>  <ligand_id>  (25) 
24

>  <original_smiles>  (25) 
[H]Oc1c([H])c(C([H])([H])[H])c(C([H])([H])Oc2c([H])c([H])c3c(c2[H])C([H])([H])N(C(=O)C([H])(N([H])C(=O)C([H])(N([H])C([H])([H])[H])C([H])([H])[H])C(C([H])([H])[H])(C([H])([H])[H])C([H])([H])[H])C([H])(C(=O)N([H])C2([H])c4c([H])c([H])c([H])c([H])c4C([H])([H])C([H])([H])C2([H])[H])C3([H])[H])c2c1C([H])([H])C([H])([H])N(C(=O)N1C([H])([H])C([H])([H])C([H])([H])C([H])(n3nc(-c4c([H])c([H])c(Oc5c([H])c([H])c(F)c([H])c5F)c([H])c4[H])c(C(=O)N([H])[H])c3N([H])[H])C1([H])[H])C([H])(C([H])([H])C([H])([H])[H])C2([H])[H]

>  <smiles>  (25) 
[H]Oc1c([H])c(C([H])([H])[H])c(C([H])([H])Oc2c([H])c([H])c3c(c2[H])C([H])([H])N(C(=O)C([H])(N([H])C(=O)C([H])(N([H])C([H])([H])[H])C([H])([H])[H])C(C([H])([H])[H])(C([H])([H])[H])C([H])([H])[H])C([H])(C(=O)N([H])C2([H])c4c([H])c([H])c([H])c([H])c4C([H])([H])C([H])([H])C2([H])[H])C3([H])[H])c2c1C([H])([H])C([H])([H])N(C(=O)N1C([H])([H])C([H])([H])C([H])([H])C([H])(n3nc(-c4c([H])c([H])c(Oc5c([H])c([H])c(F)c([H])c5F)c([H])c4[H])c(C(=O)N([H])[H])c3N([H])[H])C1([H])[H])C([H])(C([H])([H])C([H])([H])[H])C2([H])[H]

$$$$
25:0:0
     RDKit          3D

102112  0  0  1  0  0  0  0  0999 V2000
  -28.0590  -22.9200   21.3270 C   0  0  0  0  0  3  0  0  0  0  0  0
  -28.3660  -21.5550   21.1350 C   0  0  0  0  0  3  0  0  0  0  0  0
  -29.7330  -23.5970   19.6990 C   0  0  0  0  0  0  0  0  0  0  0  0
  -28.7030  -23.9720   20.6290 C   0  0  0  0  0  0  0  0  0  0  0  0
  -29.9770  -22.1860   19.4430 C   0  0  0  0  0  0  0  0  0  0  0  0
  -29.3160  -21.1480   20.1730 C   0  0  0  0  0  0  0  0  0  0  0  0
  -29.9320  -25.3320   17.7720 C   0  0  0  0  0  2  0  0  0  0  0  0
  -31.3820  -26.9160   18.9180 C   0  0  0  0  0  2  0  0  0  0  0  0
  -30.5880  -24.6670   18.9810 C   0  0  0  0  0  3  0  0  0  0  0  0
  -30.7900  -26.5890   17.5210 C   0  0  2  0  0  0  0  0  0  0  0  0
  -29.9330  -27.7460   16.9710 C   0  0  0  0  0  1  0  0  0  0  0  0
  -31.9220  -26.2930   16.5130 C   0  0  0  0  0  1  0  0  0  0  0  0
  -31.0730  -25.7780   19.8090 N   0  0  0  0  0  4  0  0  0  0  0  0
  -30.3020  -26.0720   20.3920 H   0  0  0  0  0  0  0  0  0  0  0  0
  -31.8580  -25.5160   20.3840 H   0  0  0  0  0  0  0  0  0  0  0  0
  -30.1440  -21.3960   17.0340 C   0  0  0  0  0  1  0  0  0  0  0  0
  -30.9130  -21.7010   18.3260 C   0  0  0  0  0  2  0  0  0  0  0  0
  -28.2450  -25.4100   21.0700 C   0  0  0  0  0  2  0  0  0  0  0  0
  -28.4200  -26.5840   20.2190 O   0  0  0  0  0  0  0  0  0  0  0  0
  -24.5990  -31.8900   23.2200 C   0  0  0  0  0  0  0  0  0  0  0  0
  -27.3090  -27.4200   20.1800 C   0  0  0  0  0  0  0  0  0  0  0  0
  -23.4340  -30.4840   21.5580 C   0  0  0  0  0  3  0  0  0  0  0  0
  -24.9210  -28.9590   20.1460 C   0  0  0  0  0  0  0  0  0  0  0  0
  -25.9660  -30.8460   21.4050 C   0  0  0  0  0  2  0  0  0  0  0  0
  -26.0720  -29.4740   20.7560 C   0  0  0  0  0  0  0  0  0  0  0  0
  -27.2760  -28.7160   20.7640 C   0  0  0  0  0  3  0  0  0  0  0  0
  -26.1430  -26.9390   19.5530 C   0  0  0  0  0  3  0  0  0  0  0  0
  -24.9560  -27.6930   19.5350 C   0  0  0  0  0  3  0  0  0  0  0  0
  -23.6710  -29.8120   20.1790 C   0  0  0  0  0  2  0  0  0  0  0  0
  -24.6830  -31.0900   22.1190 N   0  0  0  0  0  0  0  0  0  0  0  0
  -23.5060  -32.1520   23.7420 O   0  0  0  0  0  0  0  0  0  0  0  0
  -22.7690  -29.4570   22.5060 C   0  0  0  0  0  0  0  0  0  0  0  0
  -21.4430  -29.2850   22.3770 N   0  0  0  0  0  0  0  0  0  0  0  0
  -23.4470  -28.8190   23.3160 O   0  0  0  0  0  0  0  0  0  0  0  0
  -20.9580  -29.8530   21.6950 H   0  0  0  0  0  0  0  0  0  0  0  0
  -18.0540  -28.1270   22.8870 C   0  0  0  0  0  0  0  0  0  0  0  0
  -20.6190  -28.3440   23.1360 C   0  0  0  0  0  3  0  0  0  0  0  0
  -20.6940  -26.9240   22.5280 C   0  0  0  0  0  2  0  0  0  0  0  0
  -19.5770  -26.6390   21.5200 C   0  0  0  0  0  2  0  0  0  0  0  0
  -18.2040  -26.7920   22.1810 C   0  0  0  0  0  2  0  0  0  0  0  0
  -19.1880  -28.8650   23.3210 C   0  0  0  0  0  0  0  0  0  0  0  0
  -18.9940  -30.1180   23.9410 C   0  0  0  0  0  3  0  0  0  0  0  0
  -17.6980  -30.6340   24.1340 C   0  0  0  0  0  3  0  0  0  0  0  0
  -16.5790  -29.8920   23.7160 C   0  0  0  0  0  3  0  0  0  0  0  0
  -16.7580  -28.6420   23.0980 C   0  0  0  0  0  3  0  0  0  0  0  0
  -25.8680  -32.5320   23.8630 C   0  0  0  0  0  3  0  0  0  0  0  0
  -26.3650  -31.7710   25.1530 C   0  0  1  0  0  0  0  0  0  0  0  0
  -25.2540  -31.5280   26.2020 C   0  0  0  0  0  1  0  0  0  0  0  0
  -26.9660  -30.3950   24.7780 C   0  0  0  0  0  1  0  0  0  0  0  0
  -27.4980  -32.5750   25.8320 C   0  0  0  0  0  1  0  0  0  0  0  0
  -25.5460  -33.9300   24.1790 N   0  0  0  0  0  0  0  0  0  0  0  0
  -25.8880  -34.9800   23.4220 C   0  0  0  0  0  0  0  0  0  0  0  0
  -26.5770  -34.8740   22.4040 O   0  0  0  0  0  0  0  0  0  0  0  0
  -24.9360  -34.0860   24.9700 H   0  0  0  0  0  0  0  0  0  0  0  0
  -24.1650  -36.7690   23.0170 C   0  0  0  0  0  1  0  0  0  0  0  0
  -25.3840  -36.3690   23.8630 C   0  0  0  0  0  3  0  0  0  0  0  0
  -27.4930  -37.2640   24.7500 C   0  0  0  0  0  1  0  0  0  0  0  0
  -26.4170  -37.4240   23.7750 N   0  0  0  0  0  0  0  0  0  0  0  0
  -26.0040  -38.3440   23.9050 H   0  0  0  0  0  0  0  0  0  0  0  0
  -29.6450  -19.8030   19.9110 O   0  0  0  0  0  0  0  0  0  0  0  0
  -30.7420  -14.6410   20.0150 C   0  0  0  0  0  0  0  0  0  0  0  0
  -30.3800  -12.4500   18.9330 C   0  0  0  0  0  2  0  0  0  0  0  0
  -29.3780  -12.6320   17.7750 C   0  0  0  0  0  2  0  0  0  0  0  0
  -27.9320  -12.4900   18.2870 C   0  0  0  0  0  2  0  0  0  0  0  0
  -27.6540  -13.3170   19.5740 C   0  0  0  0  0  3  0  0  0  0  0  0
  -28.7810  -13.1580   20.6190 C   0  0  0  0  0  2  0  0  0  0  0  0
  -30.0510  -13.4640   19.9490 N   0  0  0  0  0  0  0  0  0  0  0  0
  -31.9160  -14.7200   19.6410 O   0  0  0  0  0  0  0  0  0  0  0  0
  -28.5190  -17.6360   19.3610 C   0  0  0  0  0  2  0  0  0  0  0  0
  -29.6310  -17.9210   21.5990 C   0  0  0  0  0  2  0  0  0  0  0  0
  -29.5840  -16.5440   19.0520 C   0  0  0  0  0  2  0  0  0  0  0  0
  -30.6280  -16.8060   21.1540 C   0  0  0  0  0  2  0  0  0  0  0  0
  -28.9030  -18.6720   20.4510 C   0  0  0  0  0  3  0  0  0  0  0  0
  -30.0340  -15.7940   20.2510 N   0  0  0  0  0  0  0  0  0  0  0  0
  -25.3120  -13.8890   20.4550 C   0  0  0  0  0  0  0  0  0  0  0  0
  -24.2670  -13.1050   20.8600 C   0  0  0  0  0  0  0  0  0  0  0  0
  -24.7250  -11.7550   20.7670 C   0  0  0  0  0  0  0  0  0  0  0  0
  -26.3400  -13.0180   20.1350 N   0  0  0  0  0  0  0  0  0  0  0  0
  -25.9950  -11.7270   20.3840 N   0  0  0  0  0  0  0  0  0  0  0  0
  -24.0090  -10.4880   20.9640 C   0  0  0  0  0  0  0  0  0  0  0  0
  -24.4610   -9.5210   21.8880 C   0  0  0  0  0  3  0  0  0  0  0  0
  -23.7470   -8.3170   22.0720 C   0  0  0  0  0  3  0  0  0  0  0  0
  -22.5650   -8.0740   21.3340 C   0  0  0  0  0  0  0  0  0  0  0  0
  -22.1300   -9.0300   20.3990 C   0  0  0  0  0  3  0  0  0  0  0  0
  -22.8460  -10.2240   20.2130 C   0  0  0  0  0  3  0  0  0  0  0  0
  -21.8190   -6.9230   21.4300 O   0  0  0  0  0  0  0  0  0  0  0  0
  -21.7530   -6.2030   22.5960 C   0  0  0  0  0  0  0  0  0  0  0  0
  -21.2700   -6.7700   23.7960 C   0  0  0  0  0  3  0  0  0  0  0  0
  -21.1530   -5.9750   24.9530 C   0  0  0  0  0  3  0  0  0  0  0  0
  -21.5090   -4.6140   24.9120 C   0  0  0  0  0  0  0  0  0  0  0  0
  -21.9870   -4.0460   23.7170 C   0  0  0  0  0  3  0  0  0  0  0  0
  -22.1060   -4.8390   22.5620 C   0  0  0  0  0  0  0  0  0  0  0  0
  -22.5460   -4.2820   21.4070 F   0  0  0  0  0  0  0  0  0  0  0  0
  -21.3880   -3.8470   26.0200 F   0  0  0  0  0  0  0  0  0  0  0  0
  -22.8880  -13.5760   21.2240 C   0  0  0  0  0  0  0  0  0  0  0  0
  -22.2040  -12.8560   22.1070 N   0  0  0  0  0  0  0  0  0  0  0  0
  -22.4250  -14.6170   20.7600 O   0  0  0  0  0  0  0  0  0  0  0  0
  -22.5890  -12.0130   22.5050 H   0  0  0  0  0  0  0  0  0  0  0  0
  -21.2820  -13.1580   22.3900 H   0  0  0  0  0  0  0  0  0  0  0  0
  -25.4660  -15.2630   20.3100 N   0  0  0  0  0  0  0  0  0  0  0  0
  -24.7050  -15.9100   20.4840 H   0  0  0  0  0  0  0  0  0  0  0  0
  -26.3020  -15.7080   19.9560 H   0  0  0  0  0  0  0  0  0  0  0  0
  2  1  1  0
  3  4  1  0
  4 18  1  0
  4  1  2  0
  5  3  2  0
  5  6  1  0
  6  2  2  0
  7  9  1  0
  8 13  1  0
  9  3  1  0
  9 13  1  0
 10  7  1  0
 10  8  1  0
 10 11  1  6
 12 10  1  0
 13 15  1  0
 13 14  1  0
 16 17  1  0
 17  5  1  0
 19 18  1  0
 20 31  2  0
 21 19  1  0
 21 26  1  0
 22 30  1  0
 22 32  1  0
 23 29  1  0
 23 25  1  0
 24 30  1  0
 25 26  2  0
 25 24  1  0
 27 21  2  0
 28 27  1  0
 28 23  2  0
 29 22  1  0
 30 20  1  0
 32 34  2  0
 33 32  1  0
 35 33  1  0
 36 45  2  0
 36 41  1  0
 37 33  1  0
 37 41  1  0
 38 37  1  0
 39 40  1  0
 39 38  1  0
 40 36  1  0
 41 42  2  0
 42 43  1  0
 44 43  2  0
 45 44  1  0
 46 20  1  0
 46 51  1  0
 46 47  1  0
 47 50  1  1
 47 48  1  0
 49 47  1  0
 51 54  1  0
 52 56  1  0
 52 51  1  0
 53 52  2  0
 56 55  1  0
 58 56  1  0
 58 59  1  0
 58 57  1  0
 60  6  1  0
 61 74  1  0
 62 67  1  0
 63 64  1  0
 63 62  1  0
 65 64  1  0
 65 78  1  0
 65 66  1  0
 67 61  1  0
 67 66  1  0
 68 61  2  0
 69 73  1  0
 71 69  1  0
 71 74  1  0
 72 70  1  0
 73 60  1  0
 73 70  1  0
 74 72  1  0
 75 76  2  0
 76 95  1  0
 77 76  1  0
 77 80  1  0
 78 79  1  0
 78 75  1  0
 79 77  2  0
 80 81  1  0
 81 82  2  0
 83 86  1  0
 83 82  1  0
 84 83  2  0
 85 84  1  0
 85 80  2  0
 86 87  1  0
 87 88  1  0
 88 89  2  0
 90 89  1  0
 90 94  1  0
 91 90  2  0
 92 87  2  0
 92 91  1  0
 93 92  1  0
 95 96  1  0
 96 99  1  0
 96 98  1  0
 97 95  2  0
100 75  1  0
100101  1  0
102100  1  0
M  ISO  4  18 101  19 101  61 100  74 100
M  END
>  <TORSDO>  (26) 
F 20

>  <SCORE>  (26) 
-14.105

>  <name>  (26) 
25

>  <ligand_id>  (26) 
25

>  <original_smiles>  (26) 
[H]c1c([H])c([H])c2c(c1[H])C([H])([H])C([H])([H])C([H])([H])C2([H])N([H])C(=O)C1([H])N(C(=O)C([H])(N([H])C(=O)C([H])(N([H])C([H])([H])[H])C([H])([H])[H])C(C([H])([H])[H])(C([H])([H])[H])C([H])([H])[H])C([H])([H])c2c([H])c(OC([H])([H])c3c([H])c([H])c(OC4([H])C([H])([H])C([H])([H])N(C(=O)N5C([H])([H])C([H])([H])C([H])([H])C([H])(n6nc(-c7c([H])c([H])c(Oc8c([H])c([H])c(F)c([H])c8F)c([H])c7[H])c(C(=O)N([H])[H])c6N([H])[H])C5([H])[H])C([H])([H])C4([H])[H])c(C([H])([H])C([H])([H])[H])c3C3([H])C([H])([H])C(C([H])([H])[H])(C([H])([H])[H])C([H])([H])[N+]3([H])[H])c([H])c([H])c2C1([H])[H]

>  <smiles>  (26) 
[H]c1c([H])c([H])c2c(c1[H])C([H])([H])C([H])([H])C([H])([H])C2([H])N([H])C(=O)C1([H])N(C(=O)C([H])(N([H])C(=O)C([H])(N([H])C([H])([H])[H])C([H])([H])[H])C(C([H])([H])[H])(C([H])([H])[H])C([H])([H])[H])C([H])([H])c2c([H])c(OC([H])([H])c3c([H])c([H])c(OC4([H])C([H])([H])C([H])([H])N(C(=O)N5C([H])([H])C([H])([H])C([H])([H])C([H])(n6nc(-c7c([H])c([H])c(Oc8c([H])c([H])c(F)c([H])c8F)c([H])c7[H])c(C(=O)N([H])[H])c6N([H])[H])C5([H])[H])C([H])([H])C4([H])[H])c(C([H])([H])C([H])([H])[H])c3C3([H])C([H])([H])C(C([H])([H])[H])(C([H])([H])[H])C([H])([H])[N+]3([H])[H])c([H])c([H])c2C1([H])[H]

$$$$
26:0:0
     RDKit          3D

 96106  0  0  1  0  0  0  0  0999 V2000
  -30.5850  -16.1470   19.4790 C   0  0  0  0  0  0  0  0  0  0  0  0
  -30.8940  -13.4990   19.2380 C   0  0  0  0  0  2  0  0  0  0  0  0
  -30.0760  -12.7580   18.1460 C   0  0  0  0  0  2  0  0  0  0  0  0
  -28.6650  -12.3990   18.6460 C   0  0  0  0  0  2  0  0  0  0  0  0
  -28.0440  -13.5510   19.4720 C   0  0  0  0  0  3  0  0  0  0  0  0
  -29.0280  -14.1970   20.4770 C   0  0  0  0  0  2  0  0  0  0  0  0
  -30.1470  -14.7620   19.6850 N   0  0  0  0  0  0  0  0  0  0  0  0
  -31.8310  -16.1360   19.4330 O   0  0  0  0  0  0  0  0  0  0  0  0
  -28.2030  -19.1870   17.8390 C   0  0  0  0  0  2  0  0  0  0  0  0
  -29.9800  -19.1450   19.2550 C   0  0  0  0  0  3  0  0  0  0  0  0
  -28.7580  -20.3880   18.6800 C   0  0  0  0  0  3  0  0  0  0  0  0
  -28.5090  -17.6600   18.3960 C   0  0  0  0  0  3  0  0  0  0  0  0
  -28.4000  -16.6710   17.2240 C   0  0  0  0  0  1  0  0  0  0  0  0
  -29.7810  -17.4680   19.1850 N   0  0  0  0  0  0  0  0  0  0  0  0
  -30.6400  -18.6440   21.7510 C   0  0  0  0  0  0  0  0  0  0  0  0
  -31.2900  -19.3180   22.8580 C   0  0  0  0  0  0  0  0  0  0  0  0
  -30.4600  -19.4740   20.6570 C   0  0  0  0  0  0  0  0  0  0  0  0
  -31.4040  -20.6740   22.6440 C   0  0  0  0  0  0  0  0  0  0  0  0
  -31.8170  -18.6730   24.1190 C   0  0  0  0  0  1  0  0  0  0  0  0
  -31.8770  -21.7460   23.5810 C   0  0  0  0  0  1  0  0  0  0  0  0
  -30.9230  -21.1080   21.0320 S   0  0  0  0  0  0  0  0  0  0  0  0
  -29.8140  -16.4400   22.9610 C   0  0  0  0  0  2  0  0  0  0  0  0
  -30.9850  -15.9960   22.1060 C   0  0  0  0  0  2  0  0  0  0  0  0
  -30.1710  -17.2010   21.7100 C   0  0  0  0  0  3  0  0  0  0  0  0
  -25.7450  -14.0630   20.4260 C   0  0  0  0  0  0  0  0  0  0  0  0
  -24.7040  -13.2780   20.8230 C   0  0  0  0  0  0  0  0  0  0  0  0
  -25.1500  -11.9260   20.6940 C   0  0  0  0  0  0  0  0  0  0  0  0
  -26.7620  -13.2000   20.0670 N   0  0  0  0  0  0  0  0  0  0  0  0
  -26.4210  -11.9040   20.2950 N   0  0  0  0  0  0  0  0  0  0  0  0
  -24.4180  -10.6620   20.8690 C   0  0  0  0  0  0  0  0  0  0  0  0
  -24.7960   -9.7140   21.8470 C   0  0  0  0  0  3  0  0  0  0  0  0
  -24.0580   -8.5230   22.0120 C   0  0  0  0  0  3  0  0  0  0  0  0
  -22.9290   -8.2650   21.1980 C   0  0  0  0  0  0  0  0  0  0  0  0
  -22.5690   -9.2020   20.2130 C   0  0  0  0  0  3  0  0  0  0  0  0
  -23.3060  -10.3860   20.0470 C   0  0  0  0  0  3  0  0  0  0  0  0
  -22.1680   -7.1240   21.2680 O   0  0  0  0  0  0  0  0  0  0  0  0
  -21.9150   -6.4990   22.4640 C   0  0  0  0  0  0  0  0  0  0  0  0
  -21.2530   -7.1550   23.5220 C   0  0  0  0  0  3  0  0  0  0  0  0
  -20.9580   -6.4540   24.7100 C   0  0  0  0  0  3  0  0  0  0  0  0
  -21.3130   -5.0980   24.8330 C   0  0  0  0  0  0  0  0  0  0  0  0
  -21.9650   -4.4410   23.7760 C   0  0  0  0  0  3  0  0  0  0  0  0
  -22.2640   -5.1400   22.5940 C   0  0  0  0  0  0  0  0  0  0  0  0
  -22.8750   -4.4970   21.5690 F   0  0  0  0  0  0  0  0  0  0  0  0
  -21.0220   -4.4210   25.9710 F   0  0  0  0  0  0  0  0  0  0  0  0
  -23.3300  -13.7520   21.2020 C   0  0  0  0  0  0  0  0  0  0  0  0
  -22.6620  -13.0520   22.1090 N   0  0  0  0  0  0  0  0  0  0  0  0
  -22.8670  -14.7880   20.7270 O   0  0  0  0  0  0  0  0  0  0  0  0
  -23.0510  -12.2140   22.5210 H   0  0  0  0  0  0  0  0  0  0  0  0
  -21.7400  -13.3560   22.3980 H   0  0  0  0  0  0  0  0  0  0  0  0
  -25.9190  -15.4430   20.3020 N   0  0  0  0  0  0  0  0  0  0  0  0
  -25.1850  -16.1130   20.4960 H   0  0  0  0  0  0  0  0  0  0  0  0
  -26.7560  -15.8680   19.9300 H   0  0  0  0  0  0  0  0  0  0  0  0
  -30.1530  -22.7010   18.3910 C   0  0  0  0  0  1  0  0  0  0  0  0
  -28.7220  -22.2480   18.0480 C   0  0  0  0  0  3  0  0  0  0  0  0
  -27.7220  -23.9370   18.1680 C   0  0  0  0  0  2  0  0  0  0  0  0
  -27.9070  -25.7060   18.0960 O   0  0  0  0  0  0  0  0  0  0  0  0
  -25.2820  -31.1220   23.0620 C   0  0  0  0  0  0  0  0  0  0  0  0
  -27.0440  -26.9450   18.5080 C   0  0  0  0  0  0  0  0  0  0  0  0
  -23.8290  -30.3410   21.2360 C   0  0  0  0  0  3  0  0  0  0  0  0
  -24.9870  -29.0710   19.2710 C   0  0  0  0  0  0  0  0  0  0  0  0
  -26.3920  -30.3320   20.8760 C   0  0  0  0  0  2  0  0  0  0  0  0
  -26.2620  -29.1460   19.8420 C   0  0  0  0  0  0  0  0  0  0  0  0
  -27.2750  -28.1240   19.4340 C   0  0  0  0  0  3  0  0  0  0  0  0
  -25.7500  -27.0970   17.9410 C   0  0  0  0  0  3  0  0  0  0  0  0
  -24.7750  -28.0820   18.2960 C   0  0  0  0  0  3  0  0  0  0  0  0
  -23.8820  -30.0490   19.7080 C   0  0  0  0  0  2  0  0  0  0  0  0
  -25.2000  -30.6140   21.7810 N   0  0  0  0  0  0  0  0  0  0  0  0
  -24.2690  -31.3360   23.7530 O   0  0  0  0  0  0  0  0  0  0  0  0
  -23.1020  -29.1810   21.9680 C   0  0  0  0  0  0  0  0  0  0  0  0
  -21.7560  -29.1560   21.9330 N   0  0  0  0  0  0  0  0  0  0  0  0
  -23.7590  -28.3080   22.5420 O   0  0  0  0  0  0  0  0  0  0  0  0
  -21.2800  -29.9070   21.4510 H   0  0  0  0  0  0  0  0  0  0  0  0
  -18.3220  -28.0320   22.3400 C   0  0  0  0  0  0  0  0  0  0  0  0
  -20.9060  -28.0940   22.4890 C   0  0  0  0  0  3  0  0  0  0  0  0
  -20.8800  -26.8580   21.5590 C   0  0  0  0  0  2  0  0  0  0  0  0
  -19.7080  -26.8670   20.5730 C   0  0  0  0  0  2  0  0  0  0  0  0
  -18.3740  -26.9040   21.3230 C   0  0  0  0  0  2  0  0  0  0  0  0
  -19.5090  -28.6010   22.8740 C   0  0  0  0  0  0  0  0  0  0  0  0
  -19.3990  -29.6660   23.7960 C   0  0  0  0  0  3  0  0  0  0  0  0
  -18.1380  -30.1580   24.1820 C   0  0  0  0  0  3  0  0  0  0  0  0
  -16.9670  -29.5810   23.6610 C   0  0  0  0  0  3  0  0  0  0  0  0
  -17.0610  -28.5190   22.7440 C   0  0  0  0  0  3  0  0  0  0  0  0
  -26.6510  -31.4660   23.7210 C   0  0  0  0  0  3  0  0  0  0  0  0
  -27.2360  -30.2790   24.5850 C   0  0  1  0  0  0  0  0  0  0  0  0
  -26.2440  -29.7180   25.6310 C   0  0  0  0  0  1  0  0  0  0  0  0
  -27.6700  -29.1000   23.6860 C   0  0  0  0  0  1  0  0  0  0  0  0
  -28.5070  -30.7510   25.3280 C   0  0  0  0  0  1  0  0  0  0  0  0
  -26.4690  -32.6610   24.5720 N   0  0  0  0  0  0  0  0  0  0  0  0
  -26.8890  -33.8960   24.2670 C   0  0  0  0  0  0  0  0  0  0  0  0
  -27.5290  -34.1440   23.2410 O   0  0  0  0  0  0  0  0  0  0  0  0
  -25.9010  -32.5400   25.3990 H   0  0  0  0  0  0  0  0  0  0  0  0
  -25.3870  -35.8690   24.7050 C   0  0  0  0  0  1  0  0  0  0  0  0
  -26.5530  -35.0330   25.2540 C   0  0  0  0  0  3  0  0  0  0  0  0
  -28.7560  -35.2720   26.3180 C   0  0  0  0  0  1  0  0  0  0  0  0
  -27.7000  -35.9230   25.5460 N   0  0  0  0  0  0  0  0  0  0  0  0
  -27.3940  -36.7490   26.0550 H   0  0  0  0  0  0  0  0  0  0  0  0
  1  7  1  0
  2  7  1  0
  3  4  1  0
  3  2  1  0
  5  4  1  0
  5 28  1  0
  5  6  1  0
  7  6  1  0
  8  1  2  0
  9 12  1  0
  9 11  1  0
 10 17  1  0
 11 54  1  0
 11 10  1  0
 12 13  1  0
 12 14  1  0
 14 10  1  0
 14  1  1  0
 15 16  1  0
 16 19  1  0
 17 21  1  0
 17 15  2  0
 18 16  2  0
 18 20  1  0
 21 18  1  0
 23 22  1  0
 24 15  1  0
 24 23  1  0
 24 22  1  0
 25 26  2  0
 26 45  1  0
 27 26  1  0
 27 30  1  0
 28 29  1  0
 28 25  1  0
 29 27  2  0
 30 31  1  0
 31 32  2  0
 33 36  1  0
 33 32  1  0
 34 33  2  0
 35 34  1  0
 35 30  2  0
 36 37  1  0
 37 42  2  0
 37 38  1  0
 38 39  2  0
 39 40  1  0
 40 44  1  0
 41 40  2  0
 42 41  1  0
 43 42  1  0
 45 46  1  0
 46 49  1  0
 46 48  1  0
 47 45  2  0
 50 25  1  0
 50 51  1  0
 52 50  1  0
 54 55  1  0
 54 53  1  0
 56 55  1  0
 56 58  1  0
 57 68  2  0
 58 63  1  0
 59 67  1  0
 59 69  1  0
 60 66  1  0
 60 62  1  0
 61 67  1  0
 62 61  1  0
 63 62  2  0
 64 65  1  0
 64 58  2  0
 65 60  2  0
 66 59  1  0
 67 57  1  0
 69 71  2  0
 70 69  1  0
 72 70  1  0
 73 82  2  0
 73 78  1  0
 74 70  1  0
 74 78  1  0
 75 74  1  0
 76 77  1  0
 76 75  1  0
 77 73  1  0
 78 79  2  0
 79 80  1  0
 81 80  2  0
 82 81  1  0
 83 57  1  0
 83 88  1  0
 83 84  1  0
 84 87  1  1
 84 85  1  0
 86 84  1  0
 88 91  1  0
 89 88  1  0
 89 93  1  0
 90 89  2  0
 93 92  1  0
 93 95  1  0
 95 96  1  0
 95 94  1  0
M  ISO  4   1 100  14 100  55 101  56 101
M  END
>  <TORSDO>  (27) 
F 19

>  <SCORE>  (27) 
-6.174

>  <name>  (27) 
26

>  <ligand_id>  (27) 
26

>  <original_smiles>  (27) 
[H]c1c([H])c([H])c2c(c1[H])C([H])([H])C([H])([H])C([H])([H])C2([H])N([H])C(=O)C1([H])N(C(=O)C([H])(N([H])C(=O)C([H])(N([H])C([H])([H])[H])C([H])([H])[H])C(C([H])([H])[H])(C([H])([H])[H])C([H])([H])[H])C([H])([H])c2c([H])c(OC([H])([H])C([H])(C([H])([H])[H])C3([H])C([H])(c4sc(C([H])([H])[H])c(C([H])([H])[H])c4C4([H])C([H])([H])C4([H])[H])N(C(=O)N4C([H])([H])C([H])([H])C([H])([H])C([H])(n5nc(-c6c([H])c([H])c(Oc7c([H])c([H])c(F)c([H])c7F)c([H])c6[H])c(C(=O)N([H])[H])c5N([H])[H])C4([H])[H])C([H])(C([H])([H])[H])C3([H])[H])c([H])c([H])c2C1([H])[H]

>  <smiles>  (27) 
[H]c1c([H])c([H])c2c(c1[H])C([H])([H])C([H])([H])C([H])([H])C2([H])N([H])C(=O)C1([H])N(C(=O)C([H])(N([H])C(=O)C([H])(N([H])C([H])([H])[H])C([H])([H])[H])C(C([H])([H])[H])(C([H])([H])[H])C([H])([H])[H])C([H])([H])c2c([H])c(OC([H])([H])C([H])(C([H])([H])[H])C3([H])C([H])(c4sc(C([H])([H])[H])c(C([H])([H])[H])c4C4([H])C([H])([H])C4([H])[H])N(C(=O)N4C([H])([H])C([H])([H])C([H])([H])C([H])(n5nc(-c6c([H])c([H])c(Oc7c([H])c([H])c(F)c([H])c7F)c([H])c6[H])c(C(=O)N([H])[H])c5N([H])[H])C4([H])[H])C([H])(C([H])([H])[H])C3([H])[H])c([H])c([H])c2C1([H])[H]

$$$$
27:0:0
     RDKit          3D

 90100  0  0  1  0  0  0  0  0999 V2000
  -30.3530  -15.7970   20.1460 C   0  0  0  0  0  0  0  0  0  0  0  0
  -30.3680  -13.2500   19.3860 C   0  0  0  0  0  2  0  0  0  0  0  0
  -29.5380  -12.9680   18.0660 C   0  0  0  0  0  2  0  0  0  0  0  0
  -28.1920  -12.3670   18.4930 C   0  0  0  0  0  2  0  0  0  0  0  0
  -27.4900  -13.2780   19.5290 C   0  0  0  0  0  3  0  0  0  0  0  0
  -28.4860  -13.8880   20.6300 C   0  0  0  0  0  2  0  0  0  0  0  0
  -29.7630  -14.4490   20.1010 N   0  0  0  0  0  0  0  0  0  0  0  0
  -31.5830  -15.6490   20.1090 O   0  0  0  0  0  0  0  0  0  0  0  0
  -29.0640  -21.3380   17.2660 C   0  0  0  0  0  2  0  0  0  0  0  0
  -28.3660  -20.3720   18.2090 C   0  0  0  0  0  2  0  0  0  0  0  0
  -27.4220  -18.3220   20.3440 C   0  0  0  0  0  2  0  0  0  0  0  0
  -28.1590  -17.0800   19.9670 C   0  0  0  0  0  2  0  0  0  0  0  0
  -28.8740  -22.6630   17.9850 C   0  0  0  0  0  3  0  0  0  0  0  0
  -29.1510  -22.4710   19.5020 C   0  0  0  0  0  3  0  0  0  0  0  0
  -29.8790  -18.9600   20.0880 C   0  0  0  0  0  3  0  0  0  0  0  0
  -28.5450  -19.1130   20.9300 C   0  0  0  0  0  3  0  0  0  0  0  0
  -29.0130  -20.5690   19.5880 C   0  0  2  0  0  0  0  0  0  0  0  0
  -29.5520  -23.8690   17.3180 C   0  0  0  0  0  1  0  0  0  0  0  0
  -29.6190  -17.2050   20.0210 N   0  0  0  0  0  0  0  0  0  0  0  0
  -28.2240  -20.4890   20.7590 O   0  0  0  0  0  0  0  0  0  0  0  0
  -25.1870  -13.7940   20.3510 C   0  0  0  0  0  0  0  0  0  0  0  0
  -24.1350  -13.0080   20.7950 C   0  0  0  0  0  0  0  0  0  0  0  0
  -24.6420  -11.6730   20.7820 C   0  0  0  0  0  0  0  0  0  0  0  0
  -26.2250  -12.9170   20.1170 N   0  0  0  0  0  0  0  0  0  0  0  0
  -25.9260  -11.6480   20.4440 N   0  0  0  0  0  0  0  0  0  0  0  0
  -23.9350  -10.4060   20.9940 C   0  0  0  0  0  0  0  0  0  0  0  0
  -24.3320   -9.4560   21.9540 C   0  0  0  0  0  3  0  0  0  0  0  0
  -23.5930   -8.2660   22.1210 C   0  0  0  0  0  3  0  0  0  0  0  0
  -22.4350   -8.0200   21.3460 C   0  0  0  0  0  0  0  0  0  0  0  0
  -22.0640   -8.9570   20.3810 C   0  0  0  0  0  3  0  0  0  0  0  0
  -22.8050  -10.1330   20.2080 C   0  0  0  0  0  3  0  0  0  0  0  0
  -21.6720   -6.8780   21.4490 O   0  0  0  0  0  0  0  0  0  0  0  0
  -21.6180   -6.1450   22.6150 C   0  0  0  0  0  0  0  0  0  0  0  0
  -21.1880   -6.7250   23.8200 C   0  0  0  0  0  3  0  0  0  0  0  0
  -21.0860   -5.9260   24.9850 C   0  0  0  0  0  3  0  0  0  0  0  0
  -21.3970   -4.5550   24.9180 C   0  0  0  0  0  0  0  0  0  0  0  0
  -21.8200   -3.9730   23.7130 C   0  0  0  0  0  3  0  0  0  0  0  0
  -21.9290   -4.7760   22.5510 C   0  0  0  0  0  0  0  0  0  0  0  0
  -22.3250   -4.2190   21.3850 F   0  0  0  0  0  0  0  0  0  0  0  0
  -21.2710   -3.7880   26.0210 F   0  0  0  0  0  0  0  0  0  0  0  0
  -22.7460  -13.4870   21.0380 C   0  0  0  0  0  0  0  0  0  0  0  0
  -22.0020  -12.8110   21.9210 N   0  0  0  0  0  0  0  0  0  0  0  0
  -22.3250  -14.4710   20.4740 O   0  0  0  0  0  0  0  0  0  0  0  0
  -22.3410  -11.9940   22.3960 H   0  0  0  0  0  0  0  0  0  0  0  0
  -21.0600  -13.1190   22.1210 H   0  0  0  0  0  0  0  0  0  0  0  0
  -25.3660  -15.1520   20.1270 N   0  0  0  0  0  0  0  0  0  0  0  0
  -24.5030  -15.6610   20.2560 H   0  0  0  0  0  0  0  0  0  0  0  0
  -26.1920  -15.6890   19.8270 H   0  0  0  0  0  0  0  0  0  0  0  0
  -28.1790  -23.9950   20.0420 C   0  0  0  0  0  2  0  0  0  0  0  0
  -28.2770  -25.7020   19.8750 O   0  0  0  0  0  0  0  0  0  0  0  0
  -24.7190  -31.7860   22.9970 C   0  0  0  0  0  0  0  0  0  0  0  0
  -27.2380  -26.8160   19.9250 C   0  0  0  0  0  0  0  0  0  0  0  0
  -23.4990  -30.3800   21.3690 C   0  0  0  0  0  3  0  0  0  0  0  0
  -24.9280  -28.7520   19.9380 C   0  0  0  0  0  0  0  0  0  0  0  0
  -26.0630  -30.5710   21.1880 C   0  0  0  0  0  2  0  0  0  0  0  0
  -26.1290  -29.1440   20.5410 C   0  0  0  0  0  0  0  0  0  0  0  0
  -27.2760  -28.2000   20.5050 C   0  0  0  0  0  3  0  0  0  0  0  0
  -25.9900  -26.6110   19.2900 C   0  0  0  0  0  3  0  0  0  0  0  0
  -24.8850  -27.5070   19.2970 C   0  0  0  0  0  3  0  0  0  0  0  0
  -23.7150  -29.6870   19.9910 C   0  0  0  0  0  2  0  0  0  0  0  0
  -24.7800  -30.9570   21.9030 N   0  0  0  0  0  0  0  0  0  0  0  0
  -23.6340  -32.0730   23.5220 O   0  0  0  0  0  0  0  0  0  0  0  0
  -22.8070  -29.3990   22.3470 C   0  0  0  0  0  0  0  0  0  0  0  0
  -21.4730  -29.2740   22.2720 N   0  0  0  0  0  0  0  0  0  0  0  0
  -23.4780  -28.7630   23.1600 O   0  0  0  0  0  0  0  0  0  0  0  0
  -20.9760  -29.8410   21.6030 H   0  0  0  0  0  0  0  0  0  0  0  0
  -18.0780  -28.1110   22.8840 C   0  0  0  0  0  0  0  0  0  0  0  0
  -20.6590  -28.3380   23.0530 C   0  0  0  0  0  3  0  0  0  0  0  0
  -20.7040  -26.9120   22.4540 C   0  0  0  0  0  2  0  0  0  0  0  0
  -19.5580  -26.6250   21.4760 C   0  0  0  0  0  2  0  0  0  0  0  0
  -18.2060  -26.7760   22.1750 C   0  0  0  0  0  2  0  0  0  0  0  0
  -19.2270  -28.8500   23.2820 C   0  0  0  0  0  0  0  0  0  0  0  0
  -19.0460  -30.0990   23.9160 C   0  0  0  0  0  3  0  0  0  0  0  0
  -17.7550  -30.6120   24.1490 C   0  0  0  0  0  3  0  0  0  0  0  0
  -16.6240  -29.8740   23.7590 C   0  0  0  0  0  3  0  0  0  0  0  0
  -16.7870  -28.6230   23.1370 C   0  0  0  0  0  3  0  0  0  0  0  0
  -25.9950  -32.4290   23.6120 C   0  0  0  0  0  3  0  0  0  0  0  0
  -25.6560  -33.8050   24.0260 N   0  0  0  0  0  0  0  0  0  0  0  0
  -25.9450  -34.9130   23.3280 C   0  0  0  0  0  0  0  0  0  0  0  0
  -26.5860  -34.8840   22.2740 O   0  0  0  0  0  0  0  0  0  0  0  0
  -25.0850  -33.8990   24.8550 H   0  0  0  0  0  0  0  0  0  0  0  0
  -24.1840  -36.7040   23.1490 C   0  0  0  0  0  1  0  0  0  0  0  0
  -25.4590  -36.2640   23.8900 C   0  0  0  0  0  3  0  0  0  0  0  0
  -27.6100  -37.1400   24.6960 C   0  0  0  0  0  1  0  0  0  0  0  0
  -26.4710  -37.3430   23.8020 N   0  0  0  0  0  0  0  0  0  0  0  0
  -26.0550  -38.2450   24.0220 H   0  0  0  0  0  0  0  0  0  0  0  0
  -26.5600  -31.6170   24.8440 C   0  0  1  0  0  0  0  0  0  0  0  0
  -25.5070  -31.3290   25.9390 C   0  0  0  0  0  1  0  0  0  0  0  0
  -27.1450  -30.2640   24.3910 C   0  0  0  0  0  1  0  0  0  0  0  0
  -27.7230  -32.4020   25.4950 C   0  0  0  0  0  1  0  0  0  0  0  0
  2  7  1  0
  3  4  1  0
  3  2  1  0
  5  4  1  0
  5 24  1  0
  5  6  1  0
  7  1  1  0
  7  6  1  0
  8  1  2  0
  9 13  1  0
  9 10  1  0
 12 19  1  0
 12 11  1  0
 13 18  1  0
 13 14  1  0
 14 17  1  0
 14 49  1  0
 15 19  1  0
 15 16  1  0
 16 11  1  0
 17 10  1  6
 17 15  1  0
 17 20  1  0
 19  1  1  0
 20 16  1  0
 21 22  2  0
 22 41  1  0
 23 22  1  0
 23 26  1  0
 24 21  1  0
 24 25  1  0
 25 23  2  0
 26 27  1  0
 27 28  2  0
 29 32  1  0
 29 28  1  0
 30 29  2  0
 31 30  1  0
 31 26  2  0
 32 33  1  0
 33 34  1  0
 34 35  2  0
 36 35  1  0
 36 40  1  0
 37 36  2  0
 38 33  2  0
 38 37  1  0
 39 38  1  0
 41 42  1  0
 42 45  1  0
 42 44  1  0
 43 41  2  0
 46 47  1  0
 46 21  1  0
 48 46  1  0
 50 52  1  0
 50 49  1  0
 51 62  2  0
 52 57  1  0
 53 61  1  0
 53 63  1  0
 54 60  1  0
 54 56  1  0
 55 61  1  0
 56 55  1  0
 57 56  2  0
 58 59  1  0
 58 52  2  0
 59 54  2  0
 60 53  1  0
 61 51  1  0
 63 65  2  0
 64 63  1  0
 66 64  1  0
 67 76  2  0
 67 72  1  0
 68 64  1  0
 68 72  1  0
 69 68  1  0
 70 71  1  0
 70 69  1  0
 71 67  1  0
 72 73  2  0
 73 74  1  0
 75 74  2  0
 76 75  1  0
 77 51  1  0
 77 78  1  0
 77 87  1  0
 78 81  1  0
 79 83  1  0
 79 78  1  0
 80 79  2  0
 83 82  1  0
 85 83  1  0
 85 86  1  0
 85 84  1  0
 87 90  1  1
 87 88  1  0
 89 87  1  0
M  ISO  4   1 100  19 100  49 101  50 101
M  END
>  <TORSDO>  (28) 
F 16

>  <SCORE>  (28) 
-16.113

>  <name>  (28) 
27

>  <ligand_id>  (28) 
27

>  <original_smiles>  (28) 
[H]c1c([H])c([H])c2c(c1[H])C([H])([H])C([H])([H])C([H])([H])C2([H])N([H])C(=O)C1([H])N(C(=O)C([H])(N([H])C(=O)C([H])(N([H])C([H])([H])[H])C([H])([H])[H])C(C([H])([H])[H])(C([H])([H])[H])C([H])([H])[H])C([H])([H])c2c([H])c(OC([H])([H])C3([H])C([H])(C([H])([H])[H])C([H])([H])C([H])([H])C34OC3([H])C([H])([H])C([H])([H])N(C(=O)N5C([H])([H])C([H])([H])C([H])([H])C([H])(n6nc(-c7c([H])c([H])c(Oc8c([H])c([H])c(F)c([H])c8F)c([H])c7[H])c(C(=O)N([H])[H])c6N([H])[H])C5([H])[H])C34[H])c([H])c([H])c2C1([H])[H]

>  <smiles>  (28) 
[H]c1c([H])c([H])c2c(c1[H])C([H])([H])C([H])([H])C([H])([H])C2([H])N([H])C(=O)C1([H])N(C(=O)C([H])(N([H])C(=O)C([H])(N([H])C([H])([H])[H])C([H])([H])[H])C(C([H])([H])[H])(C([H])([H])[H])C([H])([H])[H])C([H])([H])c2c([H])c(OC([H])([H])C3([H])C([H])(C([H])([H])[H])C([H])([H])C([H])([H])C34OC3([H])C([H])([H])C([H])([H])N(C(=O)N5C([H])([H])C([H])([H])C([H])([H])C([H])(n6nc(-c7c([H])c([H])c(Oc8c([H])c([H])c(F)c([H])c8F)c([H])c7[H])c(C(=O)N([H])[H])c6N([H])[H])C5([H])[H])C34[H])c([H])c([H])c2C1([H])[H]

$$$$
28:0:0
     RDKit          3D

 97106  0  0  1  0  0  0  0  0999 V2000
  -30.5950  -14.9290   20.3670 C   0  0  0  0  0  0  0  0  0  0  0  0
  -30.4480  -12.5610   19.5010 C   0  0  0  0  0  2  0  0  0  0  0  0
  -29.5530  -12.4970   18.2440 C   0  0  0  0  0  2  0  0  0  0  0  0
  -28.0770  -12.3140   18.6450 C   0  0  0  0  0  2  0  0  0  0  0  0
  -27.6480  -13.2750   19.7850 C   0  0  0  0  0  3  0  0  0  0  0  0
  -28.6730  -13.3260   20.9370 C   0  0  0  0  0  2  0  0  0  0  0  0
  -29.9620  -13.6920   20.3400 N   0  0  0  0  0  0  0  0  0  0  0  0
  -31.8020  -14.9430   20.0970 O   0  0  0  0  0  0  0  0  0  0  0  0
  -29.0450  -23.4000   19.8560 C   0  0  0  0  0  0  0  0  0  0  0  0
  -28.6180  -21.9750   19.9330 C   0  0  0  0  0  0  0  0  0  0  0  0
  -30.4660  -23.5640   19.9050 C   0  0  0  0  0  0  0  0  0  0  0  0
  -29.5420  -20.8380   20.1100 C   0  0  0  0  0  0  0  0  0  0  0  0
  -31.2800  -22.4260   20.1900 C   0  0  0  0  0  0  0  0  0  0  0  0
  -30.0930  -18.5830   19.1300 C   0  0  0  0  0  2  0  0  0  0  0  0
  -29.5160  -18.6050   21.3650 C   0  0  0  0  0  2  0  0  0  0  0  0
  -29.8420  -17.0010   19.0290 C   0  0  0  0  0  2  0  0  0  0  0  0
  -29.3080  -16.9930   21.3720 C   0  0  0  0  0  2  0  0  0  0  0  0
  -27.1350  -21.6710   19.7970 C   0  0  0  0  0  1  0  0  0  0  0  0
  -30.8330  -21.1550   20.2810 N   0  0  0  0  0  0  0  0  0  0  0  0
  -29.2870  -19.3740   20.1040 N   0  0  0  0  0  0  0  0  0  0  0  0
  -29.8580  -16.1430   20.2620 N   0  0  0  0  0  0  0  0  0  0  0  0
  -25.2550  -13.8740   20.4660 C   0  0  0  0  0  0  0  0  0  0  0  0
  -24.1780  -13.1090   20.8190 C   0  0  0  0  0  0  0  0  0  0  0  0
  -24.6350  -11.7550   20.8130 C   0  0  0  0  0  0  0  0  0  0  0  0
  -26.2980  -12.9890   20.2590 N   0  0  0  0  0  0  0  0  0  0  0  0
  -25.9340  -11.7090   20.5350 N   0  0  0  0  0  0  0  0  0  0  0  0
  -23.8970  -10.4990   20.9990 C   0  0  0  0  0  0  0  0  0  0  0  0
  -24.3060   -9.5330   21.9460 C   0  0  0  0  0  3  0  0  0  0  0  0
  -23.5670   -8.3430   22.1200 C   0  0  0  0  0  3  0  0  0  0  0  0
  -22.4040   -8.1110   21.3490 C   0  0  0  0  0  0  0  0  0  0  0  0
  -22.0140   -9.0650   20.3920 C   0  0  0  0  0  3  0  0  0  0  0  0
  -22.7530  -10.2460   20.2150 C   0  0  0  0  0  3  0  0  0  0  0  0
  -21.6380   -6.9730   21.4320 O   0  0  0  0  0  0  0  0  0  0  0  0
  -21.5630   -6.2390   22.5890 C   0  0  0  0  0  0  0  0  0  0  0  0
  -21.1400   -6.8090   23.8080 C   0  0  0  0  0  3  0  0  0  0  0  0
  -21.0110   -6.0020   24.9560 C   0  0  0  0  0  3  0  0  0  0  0  0
  -21.2970   -4.6260   24.8850 C   0  0  0  0  0  0  0  0  0  0  0  0
  -21.7130   -4.0530   23.6700 C   0  0  0  0  0  3  0  0  0  0  0  0
  -21.8430   -4.8580   22.5240 C   0  0  0  0  0  0  0  0  0  0  0  0
  -22.2240   -4.2990   21.3510 F   0  0  0  0  0  0  0  0  0  0  0  0
  -21.1660   -3.8480   25.9850 F   0  0  0  0  0  0  0  0  0  0  0  0
  -22.7790  -13.5970   21.0530 C   0  0  0  0  0  0  0  0  0  0  0  0
  -22.0300  -12.9210   21.9160 N   0  0  0  0  0  0  0  0  0  0  0  0
  -22.3590  -14.6150   20.5040 O   0  0  0  0  0  0  0  0  0  0  0  0
  -22.3830  -12.0970   22.3810 H   0  0  0  0  0  0  0  0  0  0  0  0
  -21.0890  -13.2320   22.1160 H   0  0  0  0  0  0  0  0  0  0  0  0
  -25.4320  -15.2420   20.2790 N   0  0  0  0  0  0  0  0  0  0  0  0
  -24.6700  -15.9040   20.3700 H   0  0  0  0  0  0  0  0  0  0  0  0
  -26.2960  -15.6720   19.9740 H   0  0  0  0  0  0  0  0  0  0  0  0
  -32.2410  -24.9550   18.5880 C   0  0  0  0  0  1  0  0  0  0  0  0
  -31.4570  -25.6960   20.9130 C   0  0  0  0  0  1  0  0  0  0  0  0
  -31.0950  -24.9460   19.6220 C   0  0  0  0  0  3  0  0  0  0  0  0
  -33.5490  -21.4540   20.1270 C   0  0  0  0  0  1  0  0  0  0  0  0
  -32.6510  -22.5640   20.4300 N   0  0  0  0  0  0  0  0  0  0  0  0
  -33.0270  -23.4990   20.3200 H   0  0  0  0  0  0  0  0  0  0  0  0
  -28.0240  -24.6830   19.6250 C   0  0  0  0  0  2  0  0  0  0  0  0
  -28.3030  -26.1940   19.8620 O   0  0  0  0  0  0  0  0  0  0  0  0
  -24.6870  -31.7600   23.0460 C   0  0  0  0  0  0  0  0  0  0  0  0
  -27.2380  -27.1620   19.8380 C   0  0  0  0  0  0  0  0  0  0  0  0
  -23.4640  -30.3950   21.4000 C   0  0  0  0  0  3  0  0  0  0  0  0
  -24.8940  -28.8750   19.9040 C   0  0  0  0  0  0  0  0  0  0  0  0
  -26.0110  -30.6920   21.1870 C   0  0  0  0  0  2  0  0  0  0  0  0
  -26.0820  -29.3200   20.4970 C   0  0  0  0  0  0  0  0  0  0  0  0
  -27.2550  -28.4790   20.4470 C   0  0  0  0  0  3  0  0  0  0  0  0
  -26.0190  -26.8190   19.2110 C   0  0  0  0  0  3  0  0  0  0  0  0
  -24.8740  -27.6380   19.2460 C   0  0  0  0  0  3  0  0  0  0  0  0
  -23.6600  -29.7570   20.0000 C   0  0  0  0  0  2  0  0  0  0  0  0
  -24.7410  -30.9690   21.9320 N   0  0  0  0  0  0  0  0  0  0  0  0
  -23.6110  -32.0210   23.6050 O   0  0  0  0  0  0  0  0  0  0  0  0
  -22.8160  -29.3550   22.3490 C   0  0  0  0  0  0  0  0  0  0  0  0
  -21.4830  -29.1940   22.2630 N   0  0  0  0  0  0  0  0  0  0  0  0
  -23.5130  -28.7000   23.1270 O   0  0  0  0  0  0  0  0  0  0  0  0
  -20.9770  -29.7740   21.6090 H   0  0  0  0  0  0  0  0  0  0  0  0
  -18.1130  -28.0060   22.8560 C   0  0  0  0  0  0  0  0  0  0  0  0
  -20.6830  -28.2360   23.0300 C   0  0  0  0  0  3  0  0  0  0  0  0
  -20.7480  -26.8250   22.4000 C   0  0  0  0  0  2  0  0  0  0  0  0
  -19.6030  -26.5500   21.4180 C   0  0  0  0  0  2  0  0  0  0  0  0
  -18.2490  -26.6820   22.1220 C   0  0  0  0  0  2  0  0  0  0  0  0
  -19.2560  -28.7420   23.2680 C   0  0  0  0  0  0  0  0  0  0  0  0
  -19.0720  -29.9830   23.9180 C   0  0  0  0  0  3  0  0  0  0  0  0
  -17.7800  -30.4860   24.1570 C   0  0  0  0  0  3  0  0  0  0  0  0
  -16.6520  -29.7460   23.7590 C   0  0  0  0  0  3  0  0  0  0  0  0
  -16.8210  -28.5080   23.1150 C   0  0  0  0  0  3  0  0  0  0  0  0
  -25.9730  -32.3900   23.6610 C   0  0  0  0  0  3  0  0  0  0  0  0
  -25.6480  -33.7680   24.0630 N   0  0  0  0  0  0  0  0  0  0  0  0
  -25.9330  -34.8620   23.3440 C   0  0  0  0  0  0  0  0  0  0  0  0
  -26.5650  -34.8180   22.2850 O   0  0  0  0  0  0  0  0  0  0  0  0
  -25.0810  -33.8740   24.8920 H   0  0  0  0  0  0  0  0  0  0  0  0
  -24.1570  -36.6340   23.1460 C   0  0  0  0  0  1  0  0  0  0  0  0
  -25.4410  -36.2200   23.8840 C   0  0  0  0  0  3  0  0  0  0  0  0
  -27.5940  -37.1120   24.6560 C   0  0  0  0  0  1  0  0  0  0  0  0
  -26.4470  -37.2980   23.7720 N   0  0  0  0  0  0  0  0  0  0  0  0
  -26.0310  -38.2030   23.9770 H   0  0  0  0  0  0  0  0  0  0  0  0
  -26.5350  -31.5770   24.8920 C   0  0  1  0  0  0  0  0  0  0  0  0
  -25.4770  -31.2850   25.9820 C   0  0  0  0  0  1  0  0  0  0  0  0
  -27.1210  -30.2210   24.4350 C   0  0  0  0  0  1  0  0  0  0  0  0
  -27.6970  -32.3590   25.5510 C   0  0  0  0  0  1  0  0  0  0  0  0
  2  7  1  0
  3  4  1  0
  3  2  1  0
  5  4  1  0
  5 25  1  0
  5  6  1  0
  7  1  1  0
  7  6  1  0
  8  1  2  0
  9 11  2  0
  9 10  1  0
 10 12  2  0
 11 13  1  0
 12 19  1  0
 13 19  2  0
 13 54  1  0
 14 20  1  0
 15 17  1  0
 16 14  1  0
 16 21  1  0
 18 10  1  0
 20 12  1  0
 20 15  1  0
 21  1  1  0
 21 17  1  0
 22 23  2  0
 23 42  1  0
 24 23  1  0
 24 27  1  0
 25 22  1  0
 25 26  1  0
 26 24  2  0
 27 28  1  0
 28 29  2  0
 30 33  1  0
 30 29  1  0
 31 30  2  0
 32 31  1  0
 32 27  2  0
 33 34  1  0
 34 35  1  0
 35 36  2  0
 37 36  1  0
 37 41  1  0
 38 37  2  0
 39 34  2  0
 39 38  1  0
 40 39  1  0
 42 43  1  0
 43 46  1  0
 43 45  1  0
 44 42  2  0
 47 48  1  0
 47 22  1  0
 49 47  1  0
 50 52  1  0
 52 11  1  0
 52 51  1  0
 53 54  1  0
 55 54  1  0
 56  9  1  0
 56 57  1  0
 58 69  2  0
 59 57  1  0
 59 64  1  0
 60 68  1  0
 60 70  1  0
 61 67  1  0
 61 63  1  0
 62 68  1  0
 63 62  1  0
 64 63  2  0
 65 66  1  0
 65 59  2  0
 66 61  2  0
 67 60  1  0
 68 58  1  0
 70 72  2  0
 71 70  1  0
 73 71  1  0
 74 83  2  0
 74 79  1  0
 75 71  1  0
 75 79  1  0
 76 75  1  0
 77 78  1  0
 77 76  1  0
 78 74  1  0
 79 80  2  0
 80 81  1  0
 82 81  2  0
 83 82  1  0
 84 58  1  0
 84 85  1  0
 84 94  1  0
 85 88  1  0
 86 90  1  0
 86 85  1  0
 87 86  2  0
 90 89  1  0
 92 90  1  0
 92 93  1  0
 92 91  1  0
 94 97  1  1
 94 95  1  0
 96 94  1  0
M  ISO  4   1 100  21 100  56 101  57 101
M  END
>  <TORSDO>  (29) 
F 18

>  <SCORE>  (29) 
-14.174

>  <name>  (29) 
28

>  <ligand_id>  (29) 
28

>  <original_smiles>  (29) 
[H]c1c([H])c([H])c2c(c1[H])C([H])([H])C([H])([H])C([H])([H])C2([H])N([H])C(=O)C1([H])N(C(=O)C([H])(N([H])C(=O)C([H])(N([H])C([H])([H])[H])C([H])([H])[H])C(C([H])([H])[H])(C([H])([H])[H])C([H])([H])[H])C([H])([H])c2c([H])c(OC([H])([H])c3c(C([H])([H])[H])c(N4C([H])([H])C([H])([H])N(C(=O)N5C([H])([H])C([H])([H])C([H])([H])C([H])(n6nc(-c7c([H])c([H])c(Oc8c([H])c([H])c(F)c([H])c8F)c([H])c7[H])c(C(=O)N([H])[H])c6N([H])[H])C5([H])[H])C([H])([H])C4([H])[H])nc(N([H])C([H])([H])[H])c3C([H])(C([H])([H])[H])C([H])([H])[H])c([H])c([H])c2C1([H])[H]

>  <smiles>  (29) 
[H]c1c([H])c([H])c2c(c1[H])C([H])([H])C([H])([H])C([H])([H])C2([H])N([H])C(=O)C1([H])N(C(=O)C([H])(N([H])C(=O)C([H])(N([H])C([H])([H])[H])C([H])([H])[H])C(C([H])([H])[H])(C([H])([H])[H])C([H])([H])[H])C([H])([H])c2c([H])c(OC([H])([H])c3c(C([H])([H])[H])c(N4C([H])([H])C([H])([H])N(C(=O)N5C([H])([H])C([H])([H])C([H])([H])C([H])(n6nc(-c7c([H])c([H])c(Oc8c([H])c([H])c(F)c([H])c8F)c([H])c7[H])c(C(=O)N([H])[H])c6N([H])[H])C5([H])[H])C([H])([H])C4([H])[H])nc(N([H])C([H])([H])[H])c3C([H])(C([H])([H])[H])C([H])([H])[H])c([H])c([H])c2C1([H])[H]

$$$$
29:0:0
     RDKit          3D

 97108  0  0  1  0  0  0  0  0999 V2000
  -30.7450  -14.8000   20.4060 C   0  0  0  0  0  0  0  0  0  0  0  0
  -30.3920  -12.5330   19.4140 C   0  0  0  0  0  2  0  0  0  0  0  0
  -29.4800  -12.5940   18.1750 C   0  0  0  0  0  2  0  0  0  0  0  0
  -28.0100  -12.4460   18.5990 C   0  0  0  0  0  2  0  0  0  0  0  0
  -27.6360  -13.3630   19.7940 C   0  0  0  0  0  3  0  0  0  0  0  0
  -28.6900  -13.3410   20.9220 C   0  0  0  0  0  2  0  0  0  0  0  0
  -29.9860  -13.6460   20.3120 N   0  0  0  0  0  0  0  0  0  0  0  0
  -31.9570  -14.6820   20.2040 O   0  0  0  0  0  0  0  0  0  0  0  0
  -29.1690  -21.5310   19.3010 C   0  0  0  0  0  0  0  0  0  0  0  0
  -28.9870  -22.9710   19.4780 C   0  0  0  0  0  0  0  0  0  0  0  0
  -28.7880  -23.5530   20.7670 C   0  0  0  0  0  0  0  0  0  0  0  0
  -28.8940  -22.5870   21.8210 C   0  0  0  0  0  0  0  0  0  0  0  0
  -29.2710  -20.6620   20.4470 C   0  0  0  0  0  0  0  0  0  0  0  0
  -31.7470  -17.5720   19.4090 C   0  0  0  0  0  2  0  0  0  0  0  0
  -30.5890  -17.2240   18.4690 C   0  0  0  0  0  2  0  0  0  0  0  0
  -30.4920  -18.5840   21.3810 C   0  0  0  0  0  2  0  0  0  0  0  0
  -28.6830  -18.1420   19.9280 C   0  0  0  0  0  2  0  0  0  0  0  0
  -31.1500  -17.2510   20.8020 C   0  0  0  0  0  3  0  0  0  0  0  0
  -29.4700  -16.8240   19.4510 C   0  0  0  0  0  3  0  0  0  0  0  0
  -29.0170  -23.9330   18.2980 C   0  0  0  0  0  1  0  0  0  0  0  0
  -28.6870  -22.9860   23.2720 C   0  0  0  0  0  1  0  0  0  0  0  0
  -29.1540  -21.2460   21.6650 N   0  0  0  0  0  0  0  0  0  0  0  0
  -29.5770  -19.2280   20.4140 N   0  0  0  0  0  0  0  0  0  0  0  0
  -30.2010  -16.1020   20.5450 N   0  0  0  0  0  0  0  0  0  0  0  0
  -25.2620  -13.9960   20.5030 C   0  0  0  0  0  0  0  0  0  0  0  0
  -24.1780  -13.2440   20.8610 C   0  0  0  0  0  0  0  0  0  0  0  0
  -24.6170  -11.8840   20.8470 C   0  0  0  0  0  0  0  0  0  0  0  0
  -26.2910  -13.0970   20.2850 N   0  0  0  0  0  0  0  0  0  0  0  0
  -25.9130  -11.8210   20.5590 N   0  0  0  0  0  0  0  0  0  0  0  0
  -23.8650  -10.6360   21.0330 C   0  0  0  0  0  0  0  0  0  0  0  0
  -24.2670   -9.6660   21.9780 C   0  0  0  0  0  3  0  0  0  0  0  0
  -23.5140   -8.4840   22.1530 C   0  0  0  0  0  3  0  0  0  0  0  0
  -22.3470   -8.2650   21.3830 C   0  0  0  0  0  0  0  0  0  0  0  0
  -21.9660   -9.2240   20.4280 C   0  0  0  0  0  3  0  0  0  0  0  0
  -22.7180  -10.3960   20.2510 C   0  0  0  0  0  3  0  0  0  0  0  0
  -21.5690   -7.1370   21.4680 O   0  0  0  0  0  0  0  0  0  0  0  0
  -21.4860   -6.4040   22.6250 C   0  0  0  0  0  0  0  0  0  0  0  0
  -21.0550   -6.9770   23.8400 C   0  0  0  0  0  3  0  0  0  0  0  0
  -20.9190   -6.1720   24.9900 C   0  0  0  0  0  3  0  0  0  0  0  0
  -21.2040   -4.7960   24.9230 C   0  0  0  0  0  0  0  0  0  0  0  0
  -21.6270   -4.2220   23.7120 C   0  0  0  0  0  3  0  0  0  0  0  0
  -21.7650   -5.0230   22.5650 C   0  0  0  0  0  0  0  0  0  0  0  0
  -22.1540   -4.4610   21.3950 F   0  0  0  0  0  0  0  0  0  0  0  0
  -21.0650   -4.0200   26.0240 F   0  0  0  0  0  0  0  0  0  0  0  0
  -22.7860  -13.7480   21.1050 C   0  0  0  0  0  0  0  0  0  0  0  0
  -22.0330  -13.0740   21.9650 N   0  0  0  0  0  0  0  0  0  0  0  0
  -22.3760  -14.7770   20.5680 O   0  0  0  0  0  0  0  0  0  0  0  0
  -22.3770  -12.2420   22.4220 H   0  0  0  0  0  0  0  0  0  0  0  0
  -21.0970  -13.3940   22.1730 H   0  0  0  0  0  0  0  0  0  0  0  0
  -25.4540  -15.3630   20.3190 N   0  0  0  0  0  0  0  0  0  0  0  0
  -24.7010  -16.0330   20.4180 H   0  0  0  0  0  0  0  0  0  0  0  0
  -26.3230  -15.7820   20.0180 H   0  0  0  0  0  0  0  0  0  0  0  0
  -28.6120  -21.3960   16.6620 C   0  0  0  0  0  2  0  0  0  0  0  0
  -28.2350  -20.0910   17.2820 C   0  0  0  0  0  2  0  0  0  0  0  0
  -29.3340  -20.9240   17.9180 C   0  0  0  0  0  3  0  0  0  0  0  0
  -28.2430  -25.0550   21.0670 C   0  0  0  0  0  2  0  0  0  0  0  0
  -28.5830  -26.3420   20.3500 O   0  0  0  0  0  0  0  0  0  0  0  0
  -24.6860  -31.8290   23.1630 C   0  0  0  0  0  0  0  0  0  0  0  0
  -27.5180  -27.2730   20.2490 C   0  0  0  0  0  0  0  0  0  0  0  0
  -23.5890  -30.3930   21.4850 C   0  0  0  0  0  3  0  0  0  0  0  0
  -25.1380  -28.8770   20.1180 C   0  0  0  0  0  0  0  0  0  0  0  0
  -26.1310  -30.7630   21.4070 C   0  0  0  0  0  2  0  0  0  0  0  0
  -26.2730  -29.3810   20.7670 C   0  0  0  0  0  0  0  0  0  0  0  0
  -27.4720  -28.5920   20.8220 C   0  0  0  0  0  3  0  0  0  0  0  0
  -26.3690  -26.8530   19.5470 C   0  0  0  0  0  3  0  0  0  0  0  0
  -25.1920  -27.6230   19.4930 C   0  0  0  0  0  3  0  0  0  0  0  0
  -23.8770  -29.7230   20.1170 C   0  0  0  0  0  2  0  0  0  0  0  0
  -24.8190  -31.0150   22.0750 N   0  0  0  0  0  0  0  0  0  0  0  0
  -23.5760  -32.0800   23.6520 O   0  0  0  0  0  0  0  0  0  0  0  0
  -22.9140  -29.3630   22.4240 C   0  0  0  0  0  0  0  0  0  0  0  0
  -21.5920  -29.1730   22.2690 N   0  0  0  0  0  0  0  0  0  0  0  0
  -23.5800  -28.7380   23.2530 O   0  0  0  0  0  0  0  0  0  0  0  0
  -21.1130  -29.7290   21.5740 H   0  0  0  0  0  0  0  0  0  0  0  0
  -18.2080  -27.9690   22.7280 C   0  0  0  0  0  0  0  0  0  0  0  0
  -20.7660  -28.2220   23.0160 C   0  0  0  0  0  3  0  0  0  0  0  0
  -20.8700  -26.8020   22.4130 C   0  0  0  0  0  2  0  0  0  0  0  0
  -19.7730  -26.5000   21.3870 C   0  0  0  0  0  2  0  0  0  0  0  0
  -18.3870  -26.6330   22.0260 C   0  0  0  0  0  2  0  0  0  0  0  0
  -19.3260  -28.7220   23.1790 C   0  0  0  0  0  0  0  0  0  0  0  0
  -19.1040  -29.9720   23.7960 C   0  0  0  0  0  3  0  0  0  0  0  0
  -17.7980  -30.4690   23.9670 C   0  0  0  0  0  3  0  0  0  0  0  0
  -16.6960  -29.7130   23.5320 C   0  0  0  0  0  3  0  0  0  0  0  0
  -16.9020  -28.4650   22.9190 C   0  0  0  0  0  3  0  0  0  0  0  0
  -25.9250  -32.5020   23.8310 C   0  0  0  0  0  3  0  0  0  0  0  0
  -25.5530  -33.8860   24.1640 N   0  0  0  0  0  0  0  0  0  0  0  0
  -25.8570  -34.9570   23.4190 C   0  0  0  0  0  0  0  0  0  0  0  0
  -26.5480  -34.8870   22.3980 O   0  0  0  0  0  0  0  0  0  0  0  0
  -24.9400  -34.0120   24.9560 H   0  0  0  0  0  0  0  0  0  0  0  0
  -24.0580  -36.6800   23.0600 C   0  0  0  0  0  1  0  0  0  0  0  0
  -25.3110  -36.3230   23.8770 C   0  0  0  0  0  3  0  0  0  0  0  0
  -27.4020  -37.2920   24.7240 C   0  0  0  0  0  1  0  0  0  0  0  0
  -26.2980  -37.4180   23.7750 N   0  0  0  0  0  0  0  0  0  0  0  0
  -25.8530  -38.3200   23.9230 H   0  0  0  0  0  0  0  0  0  0  0  0
  -26.4240  -31.7390   25.1190 C   0  0  1  0  0  0  0  0  0  0  0  0
  -25.3050  -31.4580   26.1500 C   0  0  0  0  0  1  0  0  0  0  0  0
  -27.0670  -30.3840   24.7410 C   0  0  0  0  0  1  0  0  0  0  0  0
  -27.5260  -32.5680   25.8230 C   0  0  0  0  0  1  0  0  0  0  0  0
  1 24  1  0
  2  7  1  0
  3  4  1  0
  3  2  1  0
  5  4  1  0
  5 28  1  0
  5  6  1  0
  7  1  1  0
  7  6  1  0
  8  1  2  0
  9 10  2  0
  9 13  1  0
 10 11  1  0
 11 56  1  0
 11 12  2  0
 12 21  1  0
 13 22  2  0
 15 14  1  0
 17 23  1  0
 18 14  1  0
 18 16  1  0
 19 15  1  0
 19 17  1  0
 19 24  1  0
 20 10  1  0
 22 12  1  0
 23 13  1  0
 23 16  1  0
 24 18  1  0
 25 26  2  0
 26 45  1  0
 27 26  1  0
 27 30  1  0
 28 25  1  0
 28 29  1  0
 29 27  2  0
 30 31  1  0
 31 32  2  0
 33 36  1  0
 33 32  1  0
 34 33  2  0
 35 34  1  0
 35 30  2  0
 36 37  1  0
 37 38  1  0
 38 39  2  0
 40 39  1  0
 40 44  1  0
 41 40  2  0
 42 37  2  0
 42 41  1  0
 43 42  1  0
 45 46  1  0
 46 49  1  0
 46 48  1  0
 47 45  2  0
 50 51  1  0
 50 25  1  0
 52 50  1  0
 53 54  1  0
 53 55  1  0
 54 55  1  0
 55  9  1  0
 57 56  1  0
 58 69  2  0
 59 57  1  0
 59 64  1  0
 60 68  1  0
 60 70  1  0
 61 63  1  0
 62 68  1  0
 63 64  2  0
 63 62  1  0
 65 59  2  0
 66 65  1  0
 66 61  2  0
 67 61  1  0
 67 60  1  0
 68 58  1  0
 70 72  2  0
 71 70  1  0
 73 71  1  0
 74 83  2  0
 74 79  1  0
 75 71  1  0
 75 79  1  0
 76 75  1  0
 77 78  1  0
 77 76  1  0
 78 74  1  0
 79 80  2  0
 80 81  1  0
 82 81  2  0
 83 82  1  0
 84 58  1  0
 84 85  1  0
 84 94  1  0
 85 88  1  0
 86 90  1  0
 86 85  1  0
 87 86  2  0
 90 89  1  0
 92 90  1  0
 92 93  1  0
 92 91  1  0
 94 97  1  1
 94 95  1  0
 96 94  1  0
M  ISO  4   1 100  24 100  56 101  57 101
M  END
>  <TORSDO>  (30) 
F 17

>  <SCORE>  (30) 
-14.525

>  <name>  (30) 
29

>  <ligand_id>  (30) 
29

>  <original_smiles>  (30) 
[H]c1c([H])c([H])c2c(c1[H])C([H])([H])C([H])([H])C([H])([H])C2([H])N([H])C(=O)C1([H])N(C(=O)C([H])(N([H])C(=O)C([H])(N([H])C([H])([H])[H])C([H])([H])[H])C(C([H])([H])[H])(C([H])([H])[H])C([H])([H])[H])C([H])([H])c2c([H])c(OC([H])([H])c3c(C([H])([H])[H])nc(N4C([H])([H])C5([H])N(C(=O)N6C([H])([H])C([H])([H])C([H])([H])C([H])(n7nc(-c8c([H])c([H])c(Oc9c([H])c([H])c(F)c([H])c9F)c([H])c8[H])c(C(=O)N([H])[H])c7N([H])[H])C6([H])[H])C([H])(C4([H])[H])C([H])([H])C5([H])[H])c(C4([H])C([H])([H])C4([H])[H])c3C([H])([H])[H])c([H])c([H])c2C1([H])[H]

>  <smiles>  (30) 
[H]c1c([H])c([H])c2c(c1[H])C([H])([H])C([H])([H])C([H])([H])C2([H])N([H])C(=O)C1([H])N(C(=O)C([H])(N([H])C(=O)C([H])(N([H])C([H])([H])[H])C([H])([H])[H])C(C([H])([H])[H])(C([H])([H])[H])C([H])([H])[H])C([H])([H])c2c([H])c(OC([H])([H])c3c(C([H])([H])[H])nc(N4C([H])([H])C5([H])N(C(=O)N6C([H])([H])C([H])([H])C([H])([H])C([H])(n7nc(-c8c([H])c([H])c(Oc9c([H])c([H])c(F)c([H])c9F)c([H])c8[H])c(C(=O)N([H])[H])c7N([H])[H])C6([H])[H])C([H])(C4([H])[H])C([H])([H])C5([H])[H])c(C4([H])C([H])([H])C4([H])[H])c3C([H])([H])[H])c([H])c([H])c2C1([H])[H]

$$$$
30:0:0
     RDKit          3D

 93102  0  0  1  0  0  0  0  0999 V2000
  -28.9650  -21.6900   21.0800 C   0  0  0  0  0  0  0  0  0  0  0  0
  -28.5670  -23.0800   21.0950 C   0  0  0  0  0  0  0  0  0  0  0  0
  -29.2410  -21.0050   19.8490 C   0  0  0  0  0  0  0  0  0  0  0  0
  -28.4900  -23.8730   19.9000 C   0  0  0  0  0  0  0  0  0  0  0  0
  -29.1280  -21.8880   18.7140 C   0  0  0  0  0  0  0  0  0  0  0  0
  -29.0870  -20.9540   22.4130 C   0  0  0  0  0  1  0  0  0  0  0  0
  -28.1910  -23.7370   22.4300 C   0  0  0  0  0  1  0  0  0  0  0  0
  -29.3910  -21.3400   17.3250 C   0  0  0  0  0  1  0  0  0  0  0  0
  -28.7790  -23.2300   18.7320 N   0  0  0  0  0  0  0  0  0  0  0  0
  -30.9180  -15.2070   19.8340 C   0  0  0  0  0  0  0  0  0  0  0  0
  -30.6250  -12.8560   19.0130 C   0  0  0  0  0  2  0  0  0  0  0  0
  -29.6610  -12.7800   17.8120 C   0  0  0  0  0  2  0  0  0  0  0  0
  -28.2160  -12.5980   18.3080 C   0  0  0  0  0  2  0  0  0  0  0  0
  -27.8520  -13.5900   19.4430 C   0  0  0  0  0  3  0  0  0  0  0  0
  -28.9500  -13.6830   20.5310 C   0  0  0  0  0  2  0  0  0  0  0  0
  -30.2060  -14.0160   19.8480 N   0  0  0  0  0  0  0  0  0  0  0  0
  -32.1140  -15.1260   19.5330 O   0  0  0  0  0  0  0  0  0  0  0  0
  -30.8200  -19.1020   20.3970 C   0  0  0  0  0  3  0  0  0  0  0  0
  -28.5700  -18.5120   19.8570 C   0  0  0  0  0  3  0  0  0  0  0  0
  -31.3110  -17.6690   19.9530 C   0  0  0  0  0  3  0  0  0  0  0  0
  -29.0020  -16.9840   19.6140 C   0  0  0  0  0  3  0  0  0  0  0  0
  -29.5980  -19.5780   19.7310 N   0  0  0  0  0  0  0  0  0  0  0  0
  -30.3670  -16.5020   19.9970 N   0  0  0  0  0  0  0  0  0  0  0  0
  -25.5280  -14.2100   20.3200 C   0  0  0  0  0  0  0  0  0  0  0  0
  -24.4660  -13.4490   20.7260 C   0  0  0  0  0  0  0  0  0  0  0  0
  -24.8960  -12.0900   20.6360 C   0  0  0  0  0  0  0  0  0  0  0  0
  -26.5360  -13.3150   20.0070 N   0  0  0  0  0  0  0  0  0  0  0  0
  -26.1690  -12.0330   20.2640 N   0  0  0  0  0  0  0  0  0  0  0  0
  -24.1500  -10.8410   20.8250 C   0  0  0  0  0  0  0  0  0  0  0  0
  -24.5380   -9.8880   21.7930 C   0  0  0  0  0  3  0  0  0  0  0  0
  -23.7920   -8.7030   21.9700 C   0  0  0  0  0  3  0  0  0  0  0  0
  -22.6440   -8.4620   21.1790 C   0  0  0  0  0  0  0  0  0  0  0  0
  -22.2760   -9.4020   20.2000 C   0  0  0  0  0  3  0  0  0  0  0  0
  -23.0230  -10.5790   20.0220 C   0  0  0  0  0  3  0  0  0  0  0  0
  -21.8720   -7.3280   21.2650 O   0  0  0  0  0  0  0  0  0  0  0  0
  -21.6780   -6.6780   22.4570 C   0  0  0  0  0  0  0  0  0  0  0  0
  -21.0550   -7.3070   23.5570 C   0  0  0  0  0  3  0  0  0  0  0  0
  -20.8140   -6.5800   24.7400 C   0  0  0  0  0  3  0  0  0  0  0  0
  -21.1860   -5.2240   24.8220 C   0  0  0  0  0  0  0  0  0  0  0  0
  -21.8010   -4.5950   23.7260 C   0  0  0  0  0  3  0  0  0  0  0  0
  -22.0440   -5.3200   22.5460 C   0  0  0  0  0  0  0  0  0  0  0  0
  -22.6180   -4.7030   21.4840 F   0  0  0  0  0  0  0  0  0  0  0  0
  -20.9470   -4.5240   25.9550 F   0  0  0  0  0  0  0  0  0  0  0  0
  -23.0960  -13.9520   21.0760 C   0  0  0  0  0  0  0  0  0  0  0  0
  -22.4040  -13.2650   21.9780 N   0  0  0  0  0  0  0  0  0  0  0  0
  -22.6510  -14.9880   20.5840 O   0  0  0  0  0  0  0  0  0  0  0  0
  -22.7770  -12.4260   22.3970 H   0  0  0  0  0  0  0  0  0  0  0  0
  -21.4870  -13.5850   22.2550 H   0  0  0  0  0  0  0  0  0  0  0  0
  -25.7070  -15.5810   20.1650 N   0  0  0  0  0  0  0  0  0  0  0  0
  -24.9510  -16.2370   20.3220 H   0  0  0  0  0  0  0  0  0  0  0  0
  -26.5280  -16.0090   19.7610 H   0  0  0  0  0  0  0  0  0  0  0  0
  -27.9270  -25.3960   19.9860 C   0  0  0  0  0  2  0  0  0  0  0  0
  -28.0140  -26.5380   18.9990 O   0  0  0  0  0  0  0  0  0  0  0  0
  -24.6820  -31.6210   23.0280 C   0  0  0  0  0  0  0  0  0  0  0  0
  -26.9860  -27.5020   19.1540 C   0  0  0  0  0  0  0  0  0  0  0  0
  -23.3370  -30.4530   21.3210 C   0  0  0  0  0  3  0  0  0  0  0  0
  -24.6550  -29.1350   19.5630 C   0  0  0  0  0  0  0  0  0  0  0  0
  -25.8590  -30.8030   20.9680 C   0  0  0  0  0  2  0  0  0  0  0  0
  -25.8790  -29.5260   20.1240 C   0  0  0  0  0  0  0  0  0  0  0  0
  -27.0500  -28.7230   19.9120 C   0  0  0  0  0  3  0  0  0  0  0  0
  -25.7460  -27.2040   18.5510 C   0  0  0  0  0  3  0  0  0  0  0  0
  -24.5940  -27.9850   18.7620 C   0  0  0  0  0  3  0  0  0  0  0  0
  -23.4300  -29.9840   19.8460 C   0  0  0  0  0  2  0  0  0  0  0  0
  -24.6490  -30.9690   21.8280 N   0  0  0  0  0  0  0  0  0  0  0  0
  -23.6490  -31.8110   23.6890 O   0  0  0  0  0  0  0  0  0  0  0  0
  -22.7570  -29.3060   22.1850 C   0  0  0  0  0  0  0  0  0  0  0  0
  -21.4280  -29.1130   22.1250 N   0  0  0  0  0  0  0  0  0  0  0  0
  -23.5000  -28.5990   22.8700 O   0  0  0  0  0  0  0  0  0  0  0  0
  -20.8840  -29.7370   21.5470 H   0  0  0  0  0  0  0  0  0  0  0  0
  -18.1150  -27.7690   22.6920 C   0  0  0  0  0  0  0  0  0  0  0  0
  -20.6810  -28.0640   22.8230 C   0  0  0  0  0  3  0  0  0  0  0  0
  -20.7700  -26.7190   22.0650 C   0  0  0  0  0  2  0  0  0  0  0  0
  -19.6070  -26.4970   21.0930 C   0  0  0  0  0  2  0  0  0  0  0  0
  -18.2700  -26.5220   21.8380 C   0  0  0  0  0  2  0  0  0  0  0  0
  -19.2450  -28.5020   23.1410 C   0  0  0  0  0  0  0  0  0  0  0  0
  -19.0430  -29.6730   23.9040 C   0  0  0  0  0  3  0  0  0  0  0  0
  -17.7430  -30.1110   24.2180 C   0  0  0  0  0  3  0  0  0  0  0  0
  -16.6280  -29.3750   23.7840 C   0  0  0  0  0  3  0  0  0  0  0  0
  -16.8140  -28.2040   23.0260 C   0  0  0  0  0  3  0  0  0  0  0  0
  -26.0150  -32.1760   23.6190 C   0  0  0  0  0  3  0  0  0  0  0  0
  -25.7550  -33.5430   24.0940 N   0  0  0  0  0  0  0  0  0  0  0  0
  -26.0650  -34.6580   23.4190 C   0  0  0  0  0  0  0  0  0  0  0  0
  -26.6690  -34.6400   22.3420 O   0  0  0  0  0  0  0  0  0  0  0  0
  -25.2130  -33.6310   24.9410 H   0  0  0  0  0  0  0  0  0  0  0  0
  -24.3510  -36.4990   23.3540 C   0  0  0  0  0  1  0  0  0  0  0  0
  -25.6380  -36.0050   24.0330 C   0  0  0  0  0  3  0  0  0  0  0  0
  -27.8340  -36.7920   24.7980 C   0  0  0  0  0  1  0  0  0  0  0  0
  -26.6810  -37.0510   23.9410 N   0  0  0  0  0  0  0  0  0  0  0  0
  -26.3010  -37.9610   24.1860 H   0  0  0  0  0  0  0  0  0  0  0  0
  -26.5950  -31.2850   24.7850 C   0  0  1  0  0  0  0  0  0  0  0  0
  -25.5700  -30.9800   25.9040 C   0  0  0  0  0  1  0  0  0  0  0  0
  -27.1110  -29.9330   24.2400 C   0  0  0  0  0  1  0  0  0  0  0  0
  -27.8100  -31.9930   25.4300 C   0  0  0  0  0  1  0  0  0  0  0  0
  1  2  1  0
  1  6  1  0
  2  7  1  0
  3  1  2  0
  4 52  1  0
  4  2  2  0
  5  9  2  0
  5  3  1  0
  8  5  1  0
  9  4  1  0
 10 16  1  0
 10 23  1  0
 11 16  1  0
 12 13  1  0
 12 11  1  0
 14 13  1  0
 14 27  1  0
 14 15  1  0
 16 15  1  0
 17 10  2  0
 20 23  1  0
 20 18  2  0
 21 19  2  0
 21 23  1  0
 22  3  1  0
 22 19  1  0
 22 18  1  0
 24 25  2  0
 25 44  1  0
 26 25  1  0
 26 29  1  0
 27 28  1  0
 27 24  1  0
 28 26  2  0
 29 30  1  0
 30 31  2  0
 32 35  1  0
 32 31  1  0
 33 32  2  0
 34 33  1  0
 34 29  2  0
 35 36  1  0
 36 41  2  0
 36 37  1  0
 37 38  2  0
 38 39  1  0
 39 43  1  0
 40 39  2  0
 41 40  1  0
 42 41  1  0
 44 45  1  0
 45 48  1  0
 45 47  1  0
 46 44  2  0
 49 24  1  0
 49 50  1  0
 51 49  1  0
 53 55  1  0
 53 52  1  0
 54 65  2  0
 55 60  1  0
 56 64  1  0
 56 66  1  0
 57 63  1  0
 57 59  1  0
 58 64  1  0
 59 58  1  0
 60 59  2  0
 61 62  1  0
 61 55  2  0
 62 57  2  0
 63 56  1  0
 64 54  1  0
 66 68  2  0
 67 66  1  0
 69 67  1  0
 70 79  2  0
 70 75  1  0
 71 67  1  0
 71 75  1  0
 72 71  1  0
 73 74  1  0
 73 72  1  0
 74 70  1  0
 75 76  2  0
 76 77  1  0
 78 77  2  0
 79 78  1  0
 80 54  1  0
 80 81  1  0
 80 90  1  0
 81 84  1  0
 82 86  1  0
 82 81  1  0
 83 82  2  0
 86 85  1  0
 88 86  1  0
 88 89  1  0
 88 87  1  0
 90 93  1  1
 90 91  1  0
 92 90  1  0
M  ISO  4  10 100  23 100  52 101  53 101
M  END
>  <TORSDO>  (31) 
F 17

>  <SCORE>  (31) 
-12.887

>  <name>  (31) 
30

>  <ligand_id>  (31) 
30

>  <original_smiles>  (31) 
[H]c1c([H])c([H])c2c(c1[H])C([H])([H])C([H])([H])C([H])([H])C2([H])N([H])C(=O)C1([H])N(C(=O)C([H])(N([H])C(=O)C([H])(N([H])C([H])([H])[H])C([H])([H])[H])C(C([H])([H])[H])(C([H])([H])[H])C([H])([H])[H])C([H])([H])c2c([H])c(OC([H])([H])c3nc(C([H])([H])[H])c(N4C([H])([H])C([H])([H])N(C(=O)N5C([H])([H])C([H])([H])C([H])([H])C([H])(n6nc(-c7c([H])c([H])c(Oc8c([H])c([H])c(F)c([H])c8F)c([H])c7[H])c(C(=O)N([H])[H])c6N([H])[H])C5([H])[H])C([H])([H])C4([H])[H])c(C([H])([H])[H])c3C([H])([H])[H])c([H])c([H])c2C1([H])[H]

>  <smiles>  (31) 
[H]c1c([H])c([H])c2c(c1[H])C([H])([H])C([H])([H])C([H])([H])C2([H])N([H])C(=O)C1([H])N(C(=O)C([H])(N([H])C(=O)C([H])(N([H])C([H])([H])[H])C([H])([H])[H])C(C([H])([H])[H])(C([H])([H])[H])C([H])([H])[H])C([H])([H])c2c([H])c(OC([H])([H])c3nc(C([H])([H])[H])c(N4C([H])([H])C([H])([H])N(C(=O)N5C([H])([H])C([H])([H])C([H])([H])C([H])(n6nc(-c7c([H])c([H])c(Oc8c([H])c([H])c(F)c([H])c8F)c([H])c7[H])c(C(=O)N([H])[H])c6N([H])[H])C5([H])[H])C([H])([H])C4([H])[H])c(C([H])([H])[H])c3C([H])([H])[H])c([H])c([H])c2C1([H])[H]

$$$$
31:0:0
     RDKit          3D

 94103  0  0  1  0  0  0  0  0999 V2000
  -29.2170  -23.1150   19.1990 C   0  0  0  0  0  3  0  0  0  0  0  0
  -28.5910  -23.5980   20.3830 C   0  0  0  0  0  0  0  0  0  0  0  0
  -29.5250  -21.7130   19.0030 C   0  0  0  0  0  0  0  0  0  0  0  0
  -28.3230  -22.5370   21.3120 C   0  0  0  0  0  0  0  0  0  0  0  0
  -29.2150  -20.7330   20.0090 C   0  0  0  0  0  0  0  0  0  0  0  0
  -27.6200  -22.8300   22.6270 C   0  0  0  0  0  1  0  0  0  0  0  0
  -28.6170  -21.2030   21.1330 N   0  0  0  0  0  0  0  0  0  0  0  0
  -30.8310  -14.9150   19.9130 C   0  0  0  0  0  0  0  0  0  0  0  0
  -30.4810  -12.6330   18.9370 C   0  0  0  0  0  2  0  0  0  0  0  0
  -29.4760  -12.6420   17.7700 C   0  0  0  0  0  2  0  0  0  0  0  0
  -28.0450  -12.4500   18.3010 C   0  0  0  0  0  2  0  0  0  0  0  0
  -27.7350  -13.3610   19.5190 C   0  0  0  0  0  3  0  0  0  0  0  0
  -28.8710  -13.3510   20.5670 C   0  0  0  0  0  2  0  0  0  0  0  0
  -30.0950  -13.7390   19.8580 N   0  0  0  0  0  0  0  0  0  0  0  0
  -32.0250  -14.8170   19.6120 O   0  0  0  0  0  0  0  0  0  0  0  0
  -30.8690  -18.8450   19.9180 C   0  0  0  0  0  3  0  0  0  0  0  0
  -28.7060  -18.2820   20.6560 C   0  0  0  0  0  3  0  0  0  0  0  0
  -31.1170  -17.3680   19.4130 C   0  0  0  0  0  3  0  0  0  0  0  0
  -28.9110  -16.7370   20.2560 C   0  0  0  0  0  3  0  0  0  0  0  0
  -29.4730  -19.2930   19.8910 N   0  0  0  0  0  0  0  0  0  0  0  0
  -30.2860  -16.2270   19.9480 N   0  0  0  0  0  0  0  0  0  0  0  0
  -25.4200  -13.9370   20.4430 C   0  0  0  0  0  0  0  0  0  0  0  0
  -24.3750  -13.1570   20.8560 C   0  0  0  0  0  0  0  0  0  0  0  0
  -24.8220  -11.8050   20.7440 C   0  0  0  0  0  0  0  0  0  0  0  0
  -26.4350  -13.0590   20.1030 N   0  0  0  0  0  0  0  0  0  0  0  0
  -26.0890  -11.7700   20.3500 N   0  0  0  0  0  0  0  0  0  0  0  0
  -24.0960  -10.5430   20.9340 C   0  0  0  0  0  0  0  0  0  0  0  0
  -24.5460   -9.5620   21.8450 C   0  0  0  0  0  3  0  0  0  0  0  0
  -23.8190   -8.3650   22.0250 C   0  0  0  0  0  3  0  0  0  0  0  0
  -22.6290   -8.1400   21.2940 C   0  0  0  0  0  0  0  0  0  0  0  0
  -22.1980   -9.1090   20.3690 C   0  0  0  0  0  3  0  0  0  0  0  0
  -22.9260  -10.2970   20.1880 C   0  0  0  0  0  3  0  0  0  0  0  0
  -21.8710   -6.9970   21.3860 O   0  0  0  0  0  0  0  0  0  0  0  0
  -21.8010   -6.2710   22.5480 C   0  0  0  0  0  0  0  0  0  0  0  0
  -21.3160   -6.8340   23.7500 C   0  0  0  0  0  3  0  0  0  0  0  0
  -21.1970   -6.0330   24.9030 C   0  0  0  0  0  3  0  0  0  0  0  0
  -21.5510   -4.6700   24.8550 C   0  0  0  0  0  0  0  0  0  0  0  0
  -22.0280   -4.1090   23.6580 C   0  0  0  0  0  3  0  0  0  0  0  0
  -22.1500   -4.9060   22.5070 C   0  0  0  0  0  0  0  0  0  0  0  0
  -22.5900   -4.3550   21.3510 F   0  0  0  0  0  0  0  0  0  0  0  0
  -21.4280   -3.8990   25.9600 F   0  0  0  0  0  0  0  0  0  0  0  0
  -23.0030  -13.6360   21.2330 C   0  0  0  0  0  0  0  0  0  0  0  0
  -22.3260  -12.9180   22.1210 N   0  0  0  0  0  0  0  0  0  0  0  0
  -22.5450  -14.6830   20.7770 O   0  0  0  0  0  0  0  0  0  0  0  0
  -22.7100  -12.0700   22.5110 H   0  0  0  0  0  0  0  0  0  0  0  0
  -21.4090  -13.2210   22.4170 H   0  0  0  0  0  0  0  0  0  0  0  0
  -25.5830  -15.3110   20.3010 N   0  0  0  0  0  0  0  0  0  0  0  0
  -24.8290  -15.9630   20.4870 H   0  0  0  0  0  0  0  0  0  0  0  0
  -26.4040  -15.7530   19.9090 H   0  0  0  0  0  0  0  0  0  0  0  0
  -31.4700  -21.9880   17.3840 C   0  0  0  0  0  1  0  0  0  0  0  0
  -29.1320  -21.5140   16.5090 C   0  0  0  0  0  1  0  0  0  0  0  0
  -30.1270  -21.2920   17.6590 C   0  0  0  0  0  3  0  0  0  0  0  0
  -28.0820  -25.1020   20.6940 C   0  0  0  0  0  2  0  0  0  0  0  0
  -28.3780  -26.3790   19.9430 O   0  0  0  0  0  0  0  0  0  0  0  0
  -24.6180  -31.7880   23.0960 C   0  0  0  0  0  0  0  0  0  0  0  0
  -27.3160  -27.3180   19.9250 C   0  0  0  0  0  0  0  0  0  0  0  0
  -23.4510  -30.4150   21.4120 C   0  0  0  0  0  3  0  0  0  0  0  0
  -24.9390  -28.9350   19.9400 C   0  0  0  0  0  0  0  0  0  0  0  0
  -25.9900  -30.7730   21.2530 C   0  0  0  0  0  2  0  0  0  0  0  0
  -26.1000  -29.4120   20.5630 C   0  0  0  0  0  0  0  0  0  0  0  0
  -27.2970  -28.6160   20.5440 C   0  0  0  0  0  3  0  0  0  0  0  0
  -26.1370  -26.9250   19.2590 C   0  0  0  0  0  3  0  0  0  0  0  0
  -24.9620  -27.7010   19.2750 C   0  0  0  0  0  3  0  0  0  0  0  0
  -23.6850  -29.7870   20.0130 C   0  0  0  0  0  2  0  0  0  0  0  0
  -24.7050  -31.0090   21.9770 N   0  0  0  0  0  0  0  0  0  0  0  0
  -23.5260  -32.0270   23.6330 O   0  0  0  0  0  0  0  0  0  0  0  0
  -22.8030  -29.3570   22.3390 C   0  0  0  0  0  0  0  0  0  0  0  0
  -21.4800  -29.1570   22.2030 N   0  0  0  0  0  0  0  0  0  0  0  0
  -23.4900  -28.7210   23.1420 O   0  0  0  0  0  0  0  0  0  0  0  0
  -20.9820  -29.7220   21.5300 H   0  0  0  0  0  0  0  0  0  0  0  0
  -18.1220  -27.8930   22.6800 C   0  0  0  0  0  0  0  0  0  0  0  0
  -20.6780  -28.1810   22.9440 C   0  0  0  0  0  3  0  0  0  0  0  0
  -20.7980  -26.7730   22.3170 C   0  0  0  0  0  2  0  0  0  0  0  0
  -19.6930  -26.4710   21.2980 C   0  0  0  0  0  2  0  0  0  0  0  0
  -18.3140  -26.5720   21.9550 C   0  0  0  0  0  2  0  0  0  0  0  0
  -19.2320  -28.6550   23.1320 C   0  0  0  0  0  0  0  0  0  0  0  0
  -18.9980  -29.8910   23.7730 C   0  0  0  0  0  3  0  0  0  0  0  0
  -17.6870  -30.3650   23.9650 C   0  0  0  0  0  3  0  0  0  0  0  0
  -16.5920  -29.6000   23.5290 C   0  0  0  0  0  3  0  0  0  0  0  0
  -16.8100  -28.3650   22.8930 C   0  0  0  0  0  3  0  0  0  0  0  0
  -25.8830  -32.4300   23.7420 C   0  0  0  0  0  3  0  0  0  0  0  0
  -25.5440  -33.8150   24.1010 N   0  0  0  0  0  0  0  0  0  0  0  0
  -25.8610  -34.8920   23.3690 C   0  0  0  0  0  0  0  0  0  0  0  0
  -26.5380  -34.8250   22.3390 O   0  0  0  0  0  0  0  0  0  0  0  0
  -24.9410  -33.9400   24.9010 H   0  0  0  0  0  0  0  0  0  0  0  0
  -24.1070  -36.6670   23.0450 C   0  0  0  0  0  1  0  0  0  0  0  0
  -25.3480  -36.2610   23.8560 C   0  0  0  0  0  3  0  0  0  0  0  0
  -27.4560  -37.1640   24.7350 C   0  0  0  0  0  1  0  0  0  0  0  0
  -26.3640  -37.3330   23.7800 N   0  0  0  0  0  0  0  0  0  0  0  0
  -25.9410  -38.2440   23.9390 H   0  0  0  0  0  0  0  0  0  0  0  0
  -26.4010  -31.6420   25.0080 C   0  0  1  0  0  0  0  0  0  0  0  0
  -25.3030  -31.3640   26.0610 C   0  0  0  0  0  1  0  0  0  0  0  0
  -27.0110  -30.2820   24.5970 C   0  0  0  0  0  1  0  0  0  0  0  0
  -27.5330  -32.4420   25.6950 C   0  0  0  0  0  1  0  0  0  0  0  0
  1  2  1  0
  2 53  1  0
  2  4  2  0
  3  1  2  0
  3  5  1  0
  4  6  1  0
  5  7  2  0
  7  4  1  0
  8 21  1  0
  9 14  1  0
 10 11  1  0
 10  9  1  0
 12 11  1  0
 12 25  1  0
 12 13  1  0
 14  8  1  0
 14 13  1  0
 15  8  2  0
 18 16  2  0
 18 21  1  0
 19 17  2  0
 20 16  1  0
 20  5  1  0
 20 17  1  0
 21 19  1  0
 22 23  2  0
 23 42  1  0
 24 23  1  0
 24 27  1  0
 25 26  1  0
 25 22  1  0
 26 24  2  0
 27 28  1  0
 28 29  2  0
 30 33  1  0
 30 29  1  0
 31 30  2  0
 32 31  1  0
 32 27  2  0
 33 34  1  0
 34 35  1  0
 35 36  2  0
 37 36  1  0
 37 41  1  0
 38 37  2  0
 39 34  2  0
 39 38  1  0
 40 39  1  0
 42 43  1  0
 43 46  1  0
 43 45  1  0
 44 42  2  0
 47 22  1  0
 47 48  1  0
 49 47  1  0
 50 52  1  0
 51 52  1  0
 52  3  1  0
 54 53  1  0
 55 66  2  0
 56 54  1  0
 56 61  1  0
 57 65  1  0
 57 67  1  0
 58 64  1  0
 58 60  1  0
 59 65  1  0
 60 59  1  0
 61 60  2  0
 62 63  1  0
 62 56  2  0
 63 58  2  0
 64 57  1  0
 65 55  1  0
 67 69  2  0
 68 67  1  0
 70 68  1  0
 71 80  2  0
 71 76  1  0
 72 68  1  0
 72 76  1  0
 73 72  1  0
 74 75  1  0
 74 73  1  0
 75 71  1  0
 76 77  2  0
 77 78  1  0
 79 78  2  0
 80 79  1  0
 81 55  1  0
 81 82  1  0
 81 91  1  0
 82 85  1  0
 83 87  1  0
 83 82  1  0
 84 83  2  0
 87 86  1  0
 89 87  1  0
 89 90  1  0
 89 88  1  0
 91 94  1  1
 91 92  1  0
 93 91  1  0
M  ISO  4   8 100  21 100  53 101  54 101
M  END
>  <TORSDO>  (32) 
F 18

>  <SCORE>  (32) 
-13.524

>  <name>  (32) 
31

>  <ligand_id>  (32) 
31

>  <original_smiles>  (32) 
[H]c1c([H])c([H])c2c(c1[H])C([H])([H])C([H])([H])C([H])([H])C2([H])N([H])C(=O)C1([H])N(C(=O)C([H])(N([H])C(=O)C([H])(N([H])C([H])([H])[H])C([H])([H])[H])C(C([H])([H])[H])(C([H])([H])[H])C([H])([H])[H])C([H])([H])c2c([H])c(OC([H])([H])c3c(C([H])([H])[H])nc(N4C([H])([H])C([H])([H])N(C(=O)N5C([H])([H])C([H])([H])C([H])([H])C([H])(n6nc(-c7c([H])c([H])c(Oc8c([H])c([H])c(F)c([H])c8F)c([H])c7[H])c(C(=O)N([H])[H])c6N([H])[H])C5([H])[H])C([H])([H])C4([H])[H])c(C([H])(C([H])([H])[H])C([H])([H])[H])c3[H])c([H])c([H])c2C1([H])[H]

>  <smiles>  (32) 
[H]c1c([H])c([H])c2c(c1[H])C([H])([H])C([H])([H])C([H])([H])C2([H])N([H])C(=O)C1([H])N(C(=O)C([H])(N([H])C(=O)C([H])(N([H])C([H])([H])[H])C([H])([H])[H])C(C([H])([H])[H])(C([H])([H])[H])C([H])([H])[H])C([H])([H])c2c([H])c(OC([H])([H])c3c(C([H])([H])[H])nc(N4C([H])([H])C([H])([H])N(C(=O)N5C([H])([H])C([H])([H])C([H])([H])C([H])(n6nc(-c7c([H])c([H])c(Oc8c([H])c([H])c(F)c([H])c8F)c([H])c7[H])c(C(=O)N([H])[H])c6N([H])[H])C5([H])[H])C([H])([H])C4([H])[H])c(C([H])(C([H])([H])[H])C([H])([H])[H])c3[H])c([H])c([H])c2C1([H])[H]

$$$$
32:0:0
     RDKit          3D

 99109  0  0  1  0  0  0  0  0999 V2000
  -29.6410  -18.4350   18.9990 C   0  0  0  0  0  3  0  0  0  0  0  0
  -29.8880  -18.5010   20.3740 C   0  0  0  0  0  0  0  0  0  0  0  0
  -29.1630  -20.8980   18.8270 C   0  0  0  0  0  0  0  0  0  0  0  0
  -29.4000  -21.0190   20.2320 C   0  0  0  0  0  0  0  0  0  0  0  0
  -29.3130  -19.5870   18.2320 C   0  0  0  0  0  0  0  0  0  0  0  0
  -29.7950  -19.8240   20.9610 C   0  0  0  0  0  0  0  0  0  0  0  0
  -28.2880  -23.3890   18.8630 C   0  0  0  0  0  2  0  0  0  0  0  0
  -29.1940  -22.4150   20.9730 C   0  0  0  0  0  3  0  0  0  0  0  0
  -29.1150  -23.7590   20.0980 C   0  0  0  0  0  3  0  0  0  0  0  0
  -28.8090  -22.1900   18.0050 C   0  0  2  0  0  0  0  0  0  0  0  0
  -29.1280  -19.2990   16.7470 C   0  0  0  0  0  1  0  0  0  0  0  0
  -27.9550  -22.3180   21.8970 C   0  0  0  0  0  1  0  0  0  0  0  0
  -27.6750  -21.9690   16.9720 C   0  0  0  0  0  1  0  0  0  0  0  0
  -30.0750  -22.6730   17.2660 C   0  0  0  0  0  1  0  0  0  0  0  0
  -30.7970  -14.7650   20.0550 C   0  0  0  0  0  0  0  0  0  0  0  0
  -30.4940  -12.5750   18.8610 C   0  0  0  0  0  2  0  0  0  0  0  0
  -29.4730  -12.7480   17.7180 C   0  0  0  0  0  2  0  0  0  0  0  0
  -28.0350  -12.5570   18.2390 C   0  0  0  0  0  2  0  0  0  0  0  0
  -27.7630  -13.3630   19.5370 C   0  0  0  0  0  3  0  0  0  0  0  0
  -28.8910  -13.1580   20.5710 C   0  0  0  0  0  2  0  0  0  0  0  0
  -30.1570  -13.5510   19.9240 N   0  0  0  0  0  0  0  0  0  0  0  0
  -31.8440  -14.9890   19.4350 O   0  0  0  0  0  0  0  0  0  0  0  0
  -31.4500  -16.9890   22.0300 C   0  0  0  0  0  2  0  0  0  0  0  0
  -30.9020  -15.5800   22.2530 C   0  0  0  0  0  2  0  0  0  0  0  0
  -30.1710  -17.2010   21.2510 C   0  0  0  0  0  3  0  0  0  0  0  0
  -30.2400  -15.6850   20.9270 N   0  0  0  0  0  0  0  0  0  0  0  0
  -25.4230  -13.9390   20.4250 C   0  0  0  0  0  0  0  0  0  0  0  0
  -24.3770  -13.1560   20.8330 C   0  0  0  0  0  0  0  0  0  0  0  0
  -24.8300  -11.8050   20.7260 C   0  0  0  0  0  0  0  0  0  0  0  0
  -26.4470  -13.0640   20.0950 N   0  0  0  0  0  0  0  0  0  0  0  0
  -26.0970  -11.7730   20.3330 N   0  0  0  0  0  0  0  0  0  0  0  0
  -24.1080  -10.5400   20.9200 C   0  0  0  0  0  0  0  0  0  0  0  0
  -24.5360   -9.5830   21.8660 C   0  0  0  0  0  3  0  0  0  0  0  0
  -23.8130   -8.3830   22.0490 C   0  0  0  0  0  3  0  0  0  0  0  0
  -22.6500   -8.1330   21.2820 C   0  0  0  0  0  0  0  0  0  0  0  0
  -22.2410   -9.0790   20.3250 C   0  0  0  0  0  3  0  0  0  0  0  0
  -22.9640  -10.2700   20.1420 C   0  0  0  0  0  3  0  0  0  0  0  0
  -21.9010   -6.9840   21.3710 O   0  0  0  0  0  0  0  0  0  0  0  0
  -21.7620   -6.3060   22.5550 C   0  0  0  0  0  0  0  0  0  0  0  0
  -21.1950   -6.9100   23.6980 C   0  0  0  0  0  3  0  0  0  0  0  0
  -21.0060   -6.1560   24.8730 C   0  0  0  0  0  3  0  0  0  0  0  0
  -21.3750   -4.7980   24.9060 C   0  0  0  0  0  0  0  0  0  0  0  0
  -21.9340   -4.1930   23.7660 C   0  0  0  0  0  3  0  0  0  0  0  0
  -22.1240   -4.9440   22.5940 C   0  0  0  0  0  0  0  0  0  0  0  0
  -22.6450   -4.3490   21.4930 F   0  0  0  0  0  0  0  0  0  0  0  0
  -21.1870   -4.0710   26.0320 F   0  0  0  0  0  0  0  0  0  0  0  0
  -23.0030  -13.6310   21.2100 C   0  0  0  0  0  0  0  0  0  0  0  0
  -22.3310  -12.9150   22.1060 N   0  0  0  0  0  0  0  0  0  0  0  0
  -22.5340  -14.6690   20.7480 O   0  0  0  0  0  0  0  0  0  0  0  0
  -22.7250  -12.0760   22.5030 H   0  0  0  0  0  0  0  0  0  0  0  0
  -21.4110  -13.2120   22.3970 H   0  0  0  0  0  0  0  0  0  0  0  0
  -25.5800  -15.3150   20.2880 N   0  0  0  0  0  0  0  0  0  0  0  0
  -24.8250  -15.9650   20.4770 H   0  0  0  0  0  0  0  0  0  0  0  0
  -26.4220  -15.7700   19.9540 H   0  0  0  0  0  0  0  0  0  0  0  0
  -30.1060  -19.9540   22.3160 N   0  0  0  0  0  0  0  0  0  0  0  0
  -30.1790  -19.1310   22.9030 H   0  0  0  0  0  0  0  0  0  0  0  0
  -29.8030  -20.7850   22.8120 H   0  0  0  0  0  0  0  0  0  0  0  0
  -28.5760  -25.1210   20.8090 C   0  0  0  0  0  2  0  0  0  0  0  0
  -28.7340  -26.5060   20.2460 O   0  0  0  0  0  0  0  0  0  0  0  0
  -24.6180  -31.7310   23.1840 C   0  0  0  0  0  0  0  0  0  0  0  0
  -27.5930  -27.3340   20.1950 C   0  0  0  0  0  0  0  0  0  0  0  0
  -23.5640  -30.2930   21.4770 C   0  0  0  0  0  3  0  0  0  0  0  0
  -25.1550  -28.8410   20.0950 C   0  0  0  0  0  0  0  0  0  0  0  0
  -26.0900  -30.7450   21.4060 C   0  0  0  0  0  2  0  0  0  0  0  0
  -26.2730  -29.3790   20.7480 C   0  0  0  0  0  0  0  0  0  0  0  0
  -27.4990  -28.6400   20.7830 C   0  0  0  0  0  3  0  0  0  0  0  0
  -26.4550  -26.8600   19.5130 C   0  0  0  0  0  3  0  0  0  0  0  0
  -25.2500  -27.5900   19.4660 C   0  0  0  0  0  3  0  0  0  0  0  0
  -23.8720  -29.6500   20.1010 C   0  0  0  0  0  2  0  0  0  0  0  0
  -24.7740  -30.9420   22.0810 N   0  0  0  0  0  0  0  0  0  0  0  0
  -23.4980  -31.9410   23.6740 O   0  0  0  0  0  0  0  0  0  0  0  0
  -22.9150  -29.2300   22.3960 C   0  0  0  0  0  0  0  0  0  0  0  0
  -21.6000  -29.0060   22.2270 N   0  0  0  0  0  0  0  0  0  0  0  0
  -23.5950  -28.6110   23.2190 O   0  0  0  0  0  0  0  0  0  0  0  0
  -21.1100  -29.5580   21.5400 H   0  0  0  0  0  0  0  0  0  0  0  0
  -18.2520  -27.6970   22.6400 C   0  0  0  0  0  0  0  0  0  0  0  0
  -20.7980  -28.0200   22.9540 C   0  0  0  0  0  3  0  0  0  0  0  0
  -20.9490  -26.6130   22.3280 C   0  0  0  0  0  2  0  0  0  0  0  0
  -19.8690  -26.2960   21.2890 C   0  0  0  0  0  2  0  0  0  0  0  0
  -18.4750  -26.3790   21.9180 C   0  0  0  0  0  2  0  0  0  0  0  0
  -19.3420  -28.4760   23.1120 C   0  0  0  0  0  0  0  0  0  0  0  0
  -19.0790  -29.7090   23.7460 C   0  0  0  0  0  3  0  0  0  0  0  0
  -17.7580  -30.1650   23.9140 C   0  0  0  0  0  3  0  0  0  0  0  0
  -16.6820  -29.3830   23.4580 C   0  0  0  0  0  3  0  0  0  0  0  0
  -16.9300  -28.1510   22.8280 C   0  0  0  0  0  3  0  0  0  0  0  0
  -25.8340  -32.4230   23.8720 C   0  0  0  0  0  3  0  0  0  0  0  0
  -25.4450  -33.8070   24.1800 N   0  0  0  0  0  0  0  0  0  0  0  0
  -25.7550  -34.8720   23.4280 C   0  0  0  0  0  0  0  0  0  0  0  0
  -26.4670  -34.7950   22.4240 O   0  0  0  0  0  0  0  0  0  0  0  0
  -24.8170  -33.9370   24.9600 H   0  0  0  0  0  0  0  0  0  0  0  0
  -23.9530  -36.5750   23.0040 C   0  0  0  0  0  1  0  0  0  0  0  0
  -25.1840  -36.2380   23.8580 C   0  0  0  0  0  3  0  0  0  0  0  0
  -27.2380  -37.2370   24.7590 C   0  0  0  0  0  1  0  0  0  0  0  0
  -26.1670  -37.3390   23.7720 N   0  0  0  0  0  0  0  0  0  0  0  0
  -25.7100  -38.2400   23.8910 H   0  0  0  0  0  0  0  0  0  0  0  0
  -26.3160  -31.6800   25.1770 C   0  0  1  0  0  0  0  0  0  0  0  0
  -25.1800  -31.3920   26.1860 C   0  0  0  0  0  1  0  0  0  0  0  0
  -26.9840  -30.3310   24.8250 C   0  0  0  0  0  1  0  0  0  0  0  0
  -27.3920  -32.5290   25.8970 C   0  0  0  0  0  1  0  0  0  0  0  0
  1  2  1  0
  2  6  2  0
  3  4  2  0
  4  6  1  0
  4  8  1  0
  5  3  1  0
  5  1  2  0
  6 55  1  0
  7  9  1  0
  8 12  1  0
  9 58  1  0
  9  8  1  0
 10  3  1  0
 10  7  1  0
 11  5  1  0
 10 13  1  6
 14 10  1  0
 15 26  1  0
 16 21  1  0
 17 18  1  0
 17 16  1  0
 19 18  1  0
 19 30  1  0
 19 20  1  0
 21 15  1  0
 21 20  1  0
 22 15  2  0
 23 24  1  0
 25  2  1  0
 25 23  1  0
 26 25  1  0
 26 24  1  0
 27 28  2  0
 28 47  1  0
 29 28  1  0
 29 32  1  0
 30 31  1  0
 30 27  1  0
 31 29  2  0
 32 33  1  0
 33 34  2  0
 35 38  1  0
 35 34  1  0
 36 35  2  0
 37 36  1  0
 37 32  2  0
 38 39  1  0
 39 44  2  0
 39 40  1  0
 40 41  2  0
 41 42  1  0
 42 46  1  0
 43 42  2  0
 44 43  1  0
 45 44  1  0
 47 48  1  0
 48 51  1  0
 48 50  1  0
 49 47  2  0
 52 27  1  0
 52 53  1  0
 54 52  1  0
 55 57  1  0
 55 56  1  0
 59 58  1  0
 60 71  2  0
 61 59  1  0
 61 66  1  0
 62 70  1  0
 62 72  1  0
 63 69  1  0
 63 65  1  0
 64 70  1  0
 65 66  2  0
 65 64  1  0
 67 61  2  0
 68 67  1  0
 68 63  2  0
 69 62  1  0
 70 60  1  0
 72 74  2  0
 73 72  1  0
 75 73  1  0
 76 85  2  0
 76 81  1  0
 77 73  1  0
 77 81  1  0
 78 77  1  0
 79 80  1  0
 79 78  1  0
 80 76  1  0
 81 82  2  0
 82 83  1  0
 84 83  2  0
 85 84  1  0
 86 60  1  0
 86 87  1  0
 86 96  1  0
 87 90  1  0
 88 92  1  0
 88 87  1  0
 89 88  2  0
 92 91  1  0
 94 92  1  0
 94 95  1  0
 94 93  1  0
 96 99  1  1
 96 97  1  0
 98 96  1  0
M  ISO  4  15 100  26 100  58 101  59 101
M  END
>  <TORSDO>  (33) 
F 18

>  <SCORE>  (33) 
-13.526

>  <name>  (33) 
32

>  <ligand_id>  (33) 
32

>  <original_smiles>  (33) 
[H]c1c([H])c([H])c2c(c1[H])C([H])([H])C([H])([H])C([H])([H])C2([H])N([H])C(=O)C1([H])N(C(=O)C([H])(N([H])C(=O)C([H])(N([H])C([H])([H])[H])C([H])([H])[H])C(C([H])([H])[H])(C([H])([H])[H])C([H])([H])[H])C([H])([H])c2c([H])c(OC([H])([H])C3([H])C([H])([H])C(C([H])([H])[H])(C([H])([H])[H])c4c(C([H])([H])[H])c([H])c(C5([H])N(C(=O)N6C([H])([H])C([H])([H])C([H])([H])C([H])(n7nc(-c8c([H])c([H])c(Oc9c([H])c([H])c(F)c([H])c9F)c([H])c8[H])c(C(=O)N([H])[H])c7N([H])[H])C6([H])[H])C([H])([H])C5([H])[H])c(N([H])[H])c4C3([H])C([H])([H])[H])c([H])c([H])c2C1([H])[H]

>  <smiles>  (33) 
[H]c1c([H])c([H])c2c(c1[H])C([H])([H])C([H])([H])C([H])([H])C2([H])N([H])C(=O)C1([H])N(C(=O)C([H])(N([H])C(=O)C([H])(N([H])C([H])([H])[H])C([H])([H])[H])C(C([H])([H])[H])(C([H])([H])[H])C([H])([H])[H])C([H])([H])c2c([H])c(OC([H])([H])C3([H])C([H])([H])C(C([H])([H])[H])(C([H])([H])[H])c4c(C([H])([H])[H])c([H])c(C5([H])N(C(=O)N6C([H])([H])C([H])([H])C([H])([H])C([H])(n7nc(-c8c([H])c([H])c(Oc9c([H])c([H])c(F)c([H])c9F)c([H])c8[H])c(C(=O)N([H])[H])c7N([H])[H])C6([H])[H])C([H])([H])C5([H])[H])c(N([H])[H])c4C3([H])C([H])([H])[H])c([H])c([H])c2C1([H])[H]

$$$$
33:0:0
     RDKit          3D

 99109  0  0  1  0  0  0  0  0999 V2000
  -29.3560  -19.6230   18.9110 C   0  0  0  0  0  0  0  0  0  0  0  0
  -28.6480  -20.8910   19.2020 C   0  0  0  0  0  0  0  0  0  0  0  0
  -28.9310  -18.8820   17.7440 C   0  0  0  0  0  0  0  0  0  0  0  0
  -27.3700  -21.0650   18.5710 C   0  0  0  0  0  0  0  0  0  0  0  0
  -27.7450  -19.2130   17.0390 C   0  0  0  0  0  0  0  0  0  0  0  0
  -26.9820  -20.3220   17.4390 C   0  0  0  0  0  0  0  0  0  0  0  0
  -29.7100  -17.6850   17.1940 C   0  0  0  0  0  1  0  0  0  0  0  0
  -26.2890  -21.9900   19.1570 C   0  0  0  0  0  1  0  0  0  0  0  0
  -27.2170  -18.3140   15.9110 C   0  0  0  0  0  1  0  0  0  0  0  0
  -25.7360  -20.7230   16.6450 C   0  0  0  0  0  1  0  0  0  0  0  0
  -31.5190  -15.1360   19.5420 C   0  0  0  0  0  0  0  0  0  0  0  0
  -31.0670  -12.9460   18.4060 C   0  0  0  0  0  2  0  0  0  0  0  0
  -29.9750  -13.1160   17.3270 C   0  0  0  0  0  2  0  0  0  0  0  0
  -28.5640  -12.9730   17.9340 C   0  0  0  0  0  2  0  0  0  0  0  0
  -28.4040  -13.7810   19.2480 C   0  0  0  0  0  3  0  0  0  0  0  0
  -29.6010  -13.5380   20.1990 C   0  0  0  0  0  2  0  0  0  0  0  0
  -30.8080  -13.9500   19.4700 N   0  0  0  0  0  0  0  0  0  0  0  0
  -32.6330  -15.1830   19.0110 O   0  0  0  0  0  0  0  0  0  0  0  0
  -31.3730  -17.7350   19.5570 C   0  0  0  0  0  2  0  0  0  0  0  0
  -29.8360  -16.5740   20.8870 C   0  0  0  0  0  2  0  0  0  0  0  0
  -30.3180  -18.8760   19.9460 C   0  0  0  0  0  3  0  0  0  0  0  0
  -29.4720  -18.0840   20.9720 C   0  0  0  0  0  3  0  0  0  0  0  0
  -29.5810  -18.6000   22.4130 C   0  0  0  0  0  1  0  0  0  0  0  0
  -30.8970  -16.3440   19.8990 N   0  0  0  0  0  0  0  0  0  0  0  0
  -26.1780  -14.4470   20.3450 C   0  0  0  0  0  0  0  0  0  0  0  0
  -25.1300  -13.6990   20.8010 C   0  0  0  0  0  0  0  0  0  0  0  0
  -25.4950  -12.3320   20.5960 C   0  0  0  0  0  0  0  0  0  0  0  0
  -27.1230  -13.5340   19.8960 N   0  0  0  0  0  0  0  0  0  0  0  0
  -26.7260  -12.2540   20.1060 N   0  0  0  0  0  0  0  0  0  0  0  0
  -24.7230  -11.0970   20.7790 C   0  0  0  0  0  0  0  0  0  0  0  0
  -25.0880  -10.1280   21.7370 C   0  0  0  0  0  3  0  0  0  0  0  0
  -24.3140   -8.9600   21.9060 C   0  0  0  0  0  3  0  0  0  0  0  0
  -23.1600   -8.7560   21.1140 C   0  0  0  0  0  0  0  0  0  0  0  0
  -22.8130   -9.7140   20.1450 C   0  0  0  0  0  3  0  0  0  0  0  0
  -23.5890  -10.8700   19.9750 C   0  0  0  0  0  3  0  0  0  0  0  0
  -22.3650   -7.6360   21.1870 O   0  0  0  0  0  0  0  0  0  0  0  0
  -22.0710   -7.0420   22.3880 C   0  0  0  0  0  0  0  0  0  0  0  0
  -21.4090   -7.7400   23.4220 C   0  0  0  0  0  3  0  0  0  0  0  0
  -21.0670   -7.0710   24.6150 C   0  0  0  0  0  3  0  0  0  0  0  0
  -21.3750   -5.7070   24.7710 C   0  0  0  0  0  0  0  0  0  0  0  0
  -22.0280   -5.0110   23.7400 C   0  0  0  0  0  3  0  0  0  0  0  0
  -22.3730   -5.6750   22.5510 C   0  0  0  0  0  0  0  0  0  0  0  0
  -22.9840   -4.9930   21.5530 F   0  0  0  0  0  0  0  0  0  0  0  0
  -21.0340   -5.0610   25.9110 F   0  0  0  0  0  0  0  0  0  0  0  0
  -23.8130  -14.2210   21.3010 C   0  0  0  0  0  0  0  0  0  0  0  0
  -23.2000  -13.5280   22.2550 N   0  0  0  0  0  0  0  0  0  0  0  0
  -23.3440  -15.2750   20.8740 O   0  0  0  0  0  0  0  0  0  0  0  0
  -23.6060  -12.6830   22.6310 H   0  0  0  0  0  0  0  0  0  0  0  0
  -22.3040  -13.8410   22.6060 H   0  0  0  0  0  0  0  0  0  0  0  0
  -26.3910  -15.8190   20.2540 N   0  0  0  0  0  0  0  0  0  0  0  0
  -25.7060  -16.4860   20.5920 H   0  0  0  0  0  0  0  0  0  0  0  0
  -27.1730  -16.2600   19.7910 H   0  0  0  0  0  0  0  0  0  0  0  0
  -30.2990  -22.7340   20.7240 C   0  0  0  0  0  2  0  0  0  0  0  0
  -28.9980  -22.1050   20.1880 C   0  0  0  0  0  3  0  0  0  0  0  0
  -29.8110  -24.1290   20.1880 C   0  0  1  0  0  0  0  0  0  0  0  0
  -30.6640  -24.7560   19.0860 C   0  0  0  0  0  1  0  0  0  0  0  0
  -28.7190  -23.4170   19.5330 O   0  0  0  0  0  0  0  0  0  0  0  0
  -29.1880  -25.3180   21.0880 C   0  0  0  0  0  2  0  0  0  0  0  0
  -29.2420  -26.7530   20.6620 O   0  0  0  0  0  0  0  0  0  0  0  0
  -24.8020  -31.8770   23.2320 C   0  0  0  0  0  0  0  0  0  0  0  0
  -28.0530  -27.4950   20.5430 C   0  0  0  0  0  0  0  0  0  0  0  0
  -23.8700  -30.3490   21.5290 C   0  0  0  0  0  3  0  0  0  0  0  0
  -25.5690  -28.8960   20.2790 C   0  0  0  0  0  0  0  0  0  0  0  0
  -26.3820  -30.8840   21.5530 C   0  0  0  0  0  2  0  0  0  0  0  0
  -26.6380  -29.5020   20.9560 C   0  0  0  0  0  0  0  0  0  0  0  0
  -27.8860  -28.8180   21.0660 C   0  0  0  0  0  3  0  0  0  0  0  0
  -26.9610  -26.9360   19.8480 C   0  0  0  0  0  3  0  0  0  0  0  0
  -25.7350  -27.6200   19.7140 C   0  0  0  0  0  3  0  0  0  0  0  0
  -24.2630  -29.6660   20.1930 C   0  0  0  0  0  2  0  0  0  0  0  0
  -25.0310  -31.0580   22.1630 N   0  0  0  0  0  0  0  0  0  0  0  0
  -23.6560  -32.0690   23.6630 O   0  0  0  0  0  0  0  0  0  0  0  0
  -23.2110  -29.2990   22.4570 C   0  0  0  0  0  0  0  0  0  0  0  0
  -21.9110  -29.0300   22.2370 N   0  0  0  0  0  0  0  0  0  0  0  0
  -23.8710  -28.7270   23.3280 O   0  0  0  0  0  0  0  0  0  0  0  0
  -21.4380  -29.5470   21.5100 H   0  0  0  0  0  0  0  0  0  0  0  0
  -18.5690  -27.6930   22.6010 C   0  0  0  0  0  0  0  0  0  0  0  0
  -21.1050  -28.0450   22.9610 C   0  0  0  0  0  3  0  0  0  0  0  0
  -21.2810  -26.6300   22.3600 C   0  0  0  0  0  2  0  0  0  0  0  0
  -20.2270  -26.2900   21.3020 C   0  0  0  0  0  2  0  0  0  0  0  0
  -18.8210  -26.3670   21.9030 C   0  0  0  0  0  2  0  0  0  0  0  0
  -19.6420  -28.4880   23.0830 C   0  0  0  0  0  0  0  0  0  0  0  0
  -19.3550  -29.7270   23.6950 C   0  0  0  0  0  3  0  0  0  0  0  0
  -18.0270  -30.1740   23.8270 C   0  0  0  0  0  3  0  0  0  0  0  0
  -16.9680  -29.3760   23.3600 C   0  0  0  0  0  3  0  0  0  0  0  0
  -17.2390  -28.1380   22.7530 C   0  0  0  0  0  3  0  0  0  0  0  0
  -25.9670  -32.6280   23.9470 C   0  0  0  0  0  3  0  0  0  0  0  0
  -25.4760  -33.9660   24.3100 N   0  0  0  0  0  0  0  0  0  0  0  0
  -25.6980  -35.0780   23.5980 C   0  0  0  0  0  0  0  0  0  0  0  0
  -26.4050  -35.0940   22.5870 O   0  0  0  0  0  0  0  0  0  0  0  0
  -24.8420  -34.0190   25.0950 H   0  0  0  0  0  0  0  0  0  0  0  0
  -23.7800  -36.6650   23.2340 C   0  0  0  0  0  1  0  0  0  0  0  0
  -25.0300  -36.3810   24.0820 C   0  0  0  0  0  3  0  0  0  0  0  0
  -27.0140  -37.4780   25.0280 C   0  0  0  0  0  1  0  0  0  0  0  0
  -25.9320  -37.5530   24.0490 N   0  0  0  0  0  0  0  0  0  0  0  0
  -25.4130  -38.4110   24.2140 H   0  0  0  0  0  0  0  0  0  0  0  0
  -26.5040  -31.8700   25.2230 C   0  0  1  0  0  0  0  0  0  0  0  0
  -25.3900  -31.3810   26.1760 C   0  0  0  0  0  1  0  0  0  0  0  0
  -27.3420  -30.6360   24.8120 C   0  0  0  0  0  1  0  0  0  0  0  0
  -27.4480  -32.7970   26.0250 C   0  0  0  0  0  1  0  0  0  0  0  0
  1  2  1  0
  3  1  2  0
  4  8  1  0
  4  2  2  0
  5  6  2  0
  5  3  1  0
  6  4  1  0
  7  3  1  0
  9  5  1  0
 10  6  1  0
 11 24  1  0
 12 17  1  0
 13 14  1  0
 13 12  1  0
 15 14  1  0
 15 28  1  0
 15 16  1  0
 17 11  1  0
 17 16  1  0
 18 11  2  0
 19 24  1  0
 19 21  1  0
 20 22  1  0
 21  1  1  0
 21 22  1  0
 22 23  1  0
 24 20  1  0
 25 26  2  0
 26 45  1  0
 27 30  1  0
 27 26  1  0
 28 29  1  0
 28 25  1  0
 29 27  2  0
 30 31  1  0
 31 32  2  0
 33 36  1  0
 33 32  1  0
 34 33  2  0
 35 34  1  0
 35 30  2  0
 36 37  1  0
 37 42  2  0
 37 38  1  0
 38 39  2  0
 39 40  1  0
 40 44  1  0
 41 40  2  0
 42 41  1  0
 43 42  1  0
 45 46  1  0
 46 49  1  0
 46 48  1  0
 47 45  2  0
 50 25  1  0
 50 51  1  0
 52 50  1  0
 54  2  1  0
 54 53  1  0
 55 56  1  6
 55 53  1  0
 55 58  1  0
 57 55  1  0
 57 54  1  0
 59 58  1  0
 60 71  2  0
 61 59  1  0
 61 66  1  0
 62 70  1  0
 62 72  1  0
 63 65  1  0
 64 70  1  0
 65 66  2  0
 65 64  1  0
 67 61  2  0
 68 67  1  0
 68 63  2  0
 69 63  1  0
 69 62  1  0
 70 60  1  0
 72 74  2  0
 73 72  1  0
 75 73  1  0
 76 85  2  0
 76 81  1  0
 77 73  1  0
 77 81  1  0
 78 77  1  0
 79 80  1  0
 79 78  1  0
 80 76  1  0
 81 82  2  0
 82 83  1  0
 84 83  2  0
 85 84  1  0
 86 60  1  0
 86 87  1  0
 86 96  1  0
 87 90  1  0
 88 92  1  0
 88 87  1  0
 89 88  2  0
 92 91  1  0
 94 92  1  0
 94 95  1  0
 94 93  1  0
 96 99  1  1
 96 97  1  0
 98 96  1  0
M  ISO  4  11 100  24 100  58 101  59 101
M  END
>  <TORSDO>  (34) 
F 18

>  <SCORE>  (34) 
-8.499

>  <name>  (34) 
33

>  <ligand_id>  (34) 
33

>  <original_smiles>  (34) 
[H]c1c([H])c([H])c2c(c1[H])C([H])([H])C([H])([H])C([H])([H])C2([H])N([H])C(=O)C1([H])N(C(=O)C([H])(N([H])C(=O)C([H])(N([H])C([H])([H])[H])C([H])([H])[H])C(C([H])([H])[H])(C([H])([H])[H])C([H])([H])[H])C([H])([H])c2c([H])c(OC([H])([H])C3(C([H])([H])[H])OC([H])(c4c(C([H])([H])[H])c(C([H])([H])[H])c(C([H])([H])[H])c(C([H])([H])[H])c4C4([H])C([H])([H])N(C(=O)N5C([H])([H])C([H])([H])C([H])([H])C([H])(n6nc(-c7c([H])c([H])c(Oc8c([H])c([H])c(F)c([H])c8F)c([H])c7[H])c(C(=O)N([H])[H])c6N([H])[H])C5([H])[H])C([H])([H])C4([H])C([H])([H])[H])C3([H])[H])c([H])c([H])c2C1([H])[H]

>  <smiles>  (34) 
[H]c1c([H])c([H])c2c(c1[H])C([H])([H])C([H])([H])C([H])([H])C2([H])N([H])C(=O)C1([H])N(C(=O)C([H])(N([H])C(=O)C([H])(N([H])C([H])([H])[H])C([H])([H])[H])C(C([H])([H])[H])(C([H])([H])[H])C([H])([H])[H])C([H])([H])c2c([H])c(OC([H])([H])C3(C([H])([H])[H])OC([H])(c4c(C([H])([H])[H])c(C([H])([H])[H])c(C([H])([H])[H])c(C([H])([H])[H])c4C4([H])C([H])([H])N(C(=O)N5C([H])([H])C([H])([H])C([H])([H])C([H])(n6nc(-c7c([H])c([H])c(Oc8c([H])c([H])c(F)c([H])c8F)c([H])c7[H])c(C(=O)N([H])[H])c6N([H])[H])C5([H])[H])C([H])([H])C4([H])C([H])([H])[H])C3([H])[H])c([H])c([H])c2C1([H])[H]

$$$$
34:0:0
     RDKit          3D

 96105  0  0  1  0  0  0  0  0999 V2000
  -30.6060  -21.6230   18.8300 C   0  0  0  0  0  0  0  0  0  0  0  0
  -30.2660  -20.2450   18.7680 C   0  0  0  0  0  0  0  0  0  0  0  0
  -30.5590  -22.2880   20.0850 C   0  0  0  0  0  0  0  0  0  0  0  0
  -30.0830  -19.5220   19.9790 C   0  0  0  0  0  0  0  0  0  0  0  0
  -30.3450  -21.4860   21.2330 C   0  0  0  0  0  0  0  0  0  0  0  0
  -31.0540  -22.3530   17.5650 C   0  0  0  0  0  1  0  0  0  0  0  0
  -30.1200  -19.5720   17.4020 C   0  0  0  0  0  1  0  0  0  0  0  0
  -30.3160  -22.0710   22.6360 C   0  0  0  0  0  1  0  0  0  0  0  0
  -30.1710  -20.1480   21.1750 N   0  0  0  0  0  0  0  0  0  0  0  0
  -30.9120  -14.4640   20.1350 C   0  0  0  0  0  0  0  0  0  0  0  0
  -30.4300  -12.3640   18.9250 C   0  0  0  0  0  2  0  0  0  0  0  0
  -29.4380  -12.6290   17.7770 C   0  0  0  0  0  2  0  0  0  0  0  0
  -27.9840  -12.4840   18.2700 C   0  0  0  0  0  2  0  0  0  0  0  0
  -27.7260  -13.2380   19.6010 C   0  0  0  0  0  3  0  0  0  0  0  0
  -28.8570  -12.9700   20.6340 C   0  0  0  0  0  2  0  0  0  0  0  0
  -30.1250  -13.3440   19.9890 N   0  0  0  0  0  0  0  0  0  0  0  0
  -32.0650  -14.4370   19.7130 O   0  0  0  0  0  0  0  0  0  0  0  0
  -28.9330  -17.5050   21.1730 C   0  0  0  0  0  2  0  0  0  0  0  0
  -29.2360  -16.0030   21.2940 C   0  0  0  0  0  2  0  0  0  0  0  0
  -29.8130  -17.9920   20.0250 C   0  0  0  0  0  3  0  0  0  0  0  0
  -31.0070  -17.0220   20.1080 C   0  0  0  0  0  3  0  0  0  0  0  0
  -31.9510  -17.1290   18.8800 C   0  0  0  0  0  1  0  0  0  0  0  0
  -30.3660  -15.6940   20.4050 N   0  0  0  0  0  0  0  0  0  0  0  0
  -25.3550  -13.8220   20.4030 C   0  0  0  0  0  0  0  0  0  0  0  0
  -24.3050  -13.0420   20.8050 C   0  0  0  0  0  0  0  0  0  0  0  0
  -24.7700  -11.6920   20.7370 C   0  0  0  0  0  0  0  0  0  0  0  0
  -26.3970  -12.9480   20.1310 N   0  0  0  0  0  0  0  0  0  0  0  0
  -26.0480  -11.6600   20.3800 N   0  0  0  0  0  0  0  0  0  0  0  0
  -24.0530  -10.4270   20.9390 C   0  0  0  0  0  0  0  0  0  0  0  0
  -24.4950   -9.4690   21.8780 C   0  0  0  0  0  3  0  0  0  0  0  0
  -23.7800   -8.2660   22.0640 C   0  0  0  0  0  3  0  0  0  0  0  0
  -22.6080   -8.0120   21.3130 C   0  0  0  0  0  0  0  0  0  0  0  0
  -22.1860   -8.9590   20.3630 C   0  0  0  0  0  3  0  0  0  0  0  0
  -22.9020  -10.1530   20.1750 C   0  0  0  0  0  3  0  0  0  0  0  0
  -21.8630   -6.8610   21.4130 O   0  0  0  0  0  0  0  0  0  0  0  0
  -21.7810   -6.1570   22.5860 C   0  0  0  0  0  0  0  0  0  0  0  0
  -21.2830   -6.7400   23.7730 C   0  0  0  0  0  3  0  0  0  0  0  0
  -21.1510   -5.9590   24.9390 C   0  0  0  0  0  3  0  0  0  0  0  0
  -21.5060   -4.5970   24.9180 C   0  0  0  0  0  0  0  0  0  0  0  0
  -21.9960   -4.0140   23.7370 C   0  0  0  0  0  3  0  0  0  0  0  0
  -22.1320   -4.7920   22.5750 C   0  0  0  0  0  0  0  0  0  0  0  0
  -22.5850   -4.2210   21.4330 F   0  0  0  0  0  0  0  0  0  0  0  0
  -21.3740   -3.8450   26.0360 F   0  0  0  0  0  0  0  0  0  0  0  0
  -22.9180  -13.5120   21.1410 C   0  0  0  0  0  0  0  0  0  0  0  0
  -22.2300  -12.8030   22.0290 N   0  0  0  0  0  0  0  0  0  0  0  0
  -22.4570  -14.5440   20.6550 O   0  0  0  0  0  0  0  0  0  0  0  0
  -22.6160  -11.9700   22.4440 H   0  0  0  0  0  0  0  0  0  0  0  0
  -21.3000  -13.0960   22.2910 H   0  0  0  0  0  0  0  0  0  0  0  0
  -25.5010  -15.1930   20.2260 N   0  0  0  0  0  0  0  0  0  0  0  0
  -24.7150  -15.8260   20.3190 H   0  0  0  0  0  0  0  0  0  0  0  0
  -26.3310  -15.6400   19.8590 H   0  0  0  0  0  0  0  0  0  0  0  0
  -30.7800  -23.8120   20.2080 C   0  0  0  0  0  2  0  0  0  0  0  0
  -30.5100  -25.7960   18.6350 C   0  0  0  0  0  1  0  0  0  0  0  0
  -29.7620  -24.7120   19.4360 C   0  0  0  0  0  3  0  0  0  0  0  0
  -28.6340  -25.3240   20.3220 C   0  0  0  0  0  2  0  0  0  0  0  0
  -28.5690  -26.7560   20.2010 O   0  0  0  0  0  0  0  0  0  0  0  0
  -24.5260  -31.7920   23.1730 C   0  0  0  0  0  0  0  0  0  0  0  0
  -27.3480  -27.3960   20.1850 C   0  0  0  0  0  0  0  0  0  0  0  0
  -23.3900  -30.3580   21.5090 C   0  0  0  0  0  3  0  0  0  0  0  0
  -24.9110  -28.8410   20.1320 C   0  0  0  0  0  0  0  0  0  0  0  0
  -25.9100  -30.7720   21.3680 C   0  0  0  0  0  2  0  0  0  0  0  0
  -26.0420  -29.3990   20.7390 C   0  0  0  0  0  0  0  0  0  0  0  0
  -27.2590  -28.6870   20.7570 C   0  0  0  0  0  3  0  0  0  0  0  0
  -26.1970  -26.8510   19.5660 C   0  0  0  0  0  3  0  0  0  0  0  0
  -24.9840  -27.5660   19.5440 C   0  0  0  0  0  3  0  0  0  0  0  0
  -23.6470  -29.6720   20.1400 C   0  0  0  0  0  2  0  0  0  0  0  0
  -24.6260  -30.9890   22.0750 N   0  0  0  0  0  0  0  0  0  0  0  0
  -23.4270  -32.0430   23.6860 O   0  0  0  0  0  0  0  0  0  0  0  0
  -22.7380  -29.3280   22.4580 C   0  0  0  0  0  0  0  0  0  0  0  0
  -21.4150  -29.1400   22.3180 N   0  0  0  0  0  0  0  0  0  0  0  0
  -23.4180  -28.7000   23.2730 O   0  0  0  0  0  0  0  0  0  0  0  0
  -20.9290  -29.6970   21.6300 H   0  0  0  0  0  0  0  0  0  0  0  0
  -18.0330  -27.9720   22.8170 C   0  0  0  0  0  0  0  0  0  0  0  0
  -20.5960  -28.1950   23.0760 C   0  0  0  0  0  3  0  0  0  0  0  0
  -20.6780  -26.7770   22.4690 C   0  0  0  0  0  2  0  0  0  0  0  0
  -19.5660  -26.4860   21.4560 C   0  0  0  0  0  2  0  0  0  0  0  0
  -18.1900  -26.6350   22.1140 C   0  0  0  0  0  2  0  0  0  0  0  0
  -19.1640  -28.7120   23.2550 C   0  0  0  0  0  0  0  0  0  0  0  0
  -18.9630  -29.9660   23.8720 C   0  0  0  0  0  3  0  0  0  0  0  0
  -17.6650  -30.4780   24.0570 C   0  0  0  0  0  3  0  0  0  0  0  0
  -16.5500  -29.7340   23.6370 C   0  0  0  0  0  3  0  0  0  0  0  0
  -16.7340  -28.4830   23.0210 C   0  0  0  0  0  3  0  0  0  0  0  0
  -25.7830  -32.4510   23.8220 C   0  0  0  0  0  3  0  0  0  0  0  0
  -26.3010  -31.6810   25.0990 C   0  0  1  0  0  0  0  0  0  0  0  0
  -25.1950  -31.3970   26.1410 C   0  0  0  0  0  1  0  0  0  0  0  0
  -26.9320  -30.3290   24.6970 C   0  0  0  0  0  1  0  0  0  0  0  0
  -27.4170  -32.5020   25.7880 C   0  0  0  0  0  1  0  0  0  0  0  0
  -25.4300  -33.8380   24.1580 N   0  0  0  0  0  0  0  0  0  0  0  0
  -25.7460  -34.9050   23.4110 C   0  0  0  0  0  0  0  0  0  0  0  0
  -26.4350  -34.8280   22.3900 O   0  0  0  0  0  0  0  0  0  0  0  0
  -24.8170  -33.9700   24.9490 H   0  0  0  0  0  0  0  0  0  0  0  0
  -23.9750  -36.6480   23.0390 C   0  0  0  0  0  1  0  0  0  0  0  0
  -25.2120  -36.2750   23.8700 C   0  0  0  0  0  3  0  0  0  0  0  0
  -27.3050  -37.2090   24.7510 C   0  0  0  0  0  1  0  0  0  0  0  0
  -26.2180  -37.3560   23.7850 N   0  0  0  0  0  0  0  0  0  0  0  0
  -25.7860  -38.2640   23.9320 H   0  0  0  0  0  0  0  0  0  0  0  0
  1  3  1  0
  2  1  2  0
  2  4  1  0
  3 52  1  0
  3  5  2  0
  4  9  2  0
  5  8  1  0
  6  1  1  0
  7  2  1  0
  9  5  1  0
 10 23  1  0
 11 16  1  0
 12 13  1  0
 12 11  1  0
 14 13  1  0
 14 27  1  0
 14 15  1  0
 16 10  1  0
 16 15  1  0
 17 10  2  0
 18 19  1  0
 20  4  1  0
 20 21  1  0
 20 18  1  0
 21 22  1  0
 21 23  1  0
 23 19  1  0
 24 25  2  0
 25 44  1  0
 26 25  1  0
 26 29  1  0
 27 28  1  0
 27 24  1  0
 28 26  2  0
 29 30  1  0
 30 31  2  0
 32 35  1  0
 32 31  1  0
 33 32  2  0
 34 33  1  0
 34 29  2  0
 35 36  1  0
 36 37  1  0
 37 38  2  0
 39 38  1  0
 39 43  1  0
 40 39  2  0
 41 36  2  0
 41 40  1  0
 42 41  1  0
 44 45  1  0
 45 48  1  0
 45 47  1  0
 46 44  2  0
 49 50  1  0
 49 24  1  0
 51 49  1  0
 54 53  1  0
 54 52  1  0
 54 55  1  0
 56 55  1  0
 57 68  2  0
 58 56  1  0
 58 63  1  0
 59 67  1  0
 59 69  1  0
 60 66  1  0
 60 62  1  0
 61 67  1  0
 62 63  2  0
 62 61  1  0
 64 58  2  0
 65 64  1  0
 65 60  2  0
 66 59  1  0
 67 57  1  0
 69 71  2  0
 70 69  1  0
 72 70  1  0
 73 82  2  0
 73 78  1  0
 74 70  1  0
 74 78  1  0
 75 74  1  0
 76 77  1  0
 76 75  1  0
 77 73  1  0
 78 79  2  0
 79 80  1  0
 81 80  2  0
 82 81  1  0
 83 57  1  0
 83 88  1  0
 83 84  1  0
 84 87  1  1
 84 85  1  0
 86 84  1  0
 88 91  1  0
 89 93  1  0
 89 88  1  0
 90 89  2  0
 93 92  1  0
 95 93  1  0
 95 96  1  0
 95 94  1  0
M  ISO  4  10 100  23 100  55 101  56 101
M  END
>  <TORSDO>  (35) 
F 19

>  <SCORE>  (35) 
-14.116

>  <name>  (35) 
34

>  <ligand_id>  (35) 
34

>  <original_smiles>  (35) 
[H]c1c([H])c([H])c2c(c1[H])C([H])([H])C([H])([H])C([H])([H])C2([H])N([H])C(=O)C1([H])N(C(=O)C([H])(N([H])C(=O)C([H])(N([H])C([H])([H])[H])C([H])([H])[H])C(C([H])([H])[H])(C([H])([H])[H])C([H])([H])[H])C([H])([H])c2c([H])c(OC([H])([H])C([H])(C([H])([H])[H])C([H])([H])c3c(C([H])([H])[H])nc(C4([H])C([H])([H])C([H])([H])N(C(=O)N5C([H])([H])C([H])([H])C([H])([H])C([H])(n6nc(-c7c([H])c([H])c(Oc8c([H])c([H])c(F)c([H])c8F)c([H])c7[H])c(C(=O)N([H])[H])c6N([H])[H])C5([H])[H])C4([H])C([H])([H])[H])c(C([H])([H])[H])c3C([H])([H])[H])c([H])c([H])c2C1([H])[H]

>  <smiles>  (35) 
[H]c1c([H])c([H])c2c(c1[H])C([H])([H])C([H])([H])C([H])([H])C2([H])N([H])C(=O)C1([H])N(C(=O)C([H])(N([H])C(=O)C([H])(N([H])C([H])([H])[H])C([H])([H])[H])C(C([H])([H])[H])(C([H])([H])[H])C([H])([H])[H])C([H])([H])c2c([H])c(OC([H])([H])C([H])(C([H])([H])[H])C([H])([H])c3c(C([H])([H])[H])nc(C4([H])C([H])([H])C([H])([H])N(C(=O)N5C([H])([H])C([H])([H])C([H])([H])C([H])(n6nc(-c7c([H])c([H])c(Oc8c([H])c([H])c(F)c([H])c8F)c([H])c7[H])c(C(=O)N([H])[H])c6N([H])[H])C5([H])[H])C4([H])C([H])([H])[H])c(C([H])([H])[H])c3C([H])([H])[H])c([H])c([H])c2C1([H])[H]

$$$$
35:0:0
     RDKit          3D

 93104  0  0  1  0  0  0  0  0999 V2000
  -30.5800  -19.8730   22.1880 C   0  0  0  0  0  2  0  0  0  0  0  0
  -29.3640  -17.7990   21.3840 C   0  0  0  0  0  2  0  0  0  0  0  0
  -31.5940  -18.4340   20.4200 C   0  0  0  0  0  2  0  0  0  0  0  0
  -28.6770  -20.2180   20.8850 C   0  0  0  0  0  2  0  0  0  0  0  0
  -29.7380  -18.8490   19.1040 C   0  0  0  0  0  2  0  0  0  0  0  0
  -29.2070  -19.2520   21.9460 C   0  0  0  0  0  3  0  0  0  0  0  0
  -31.1300  -19.9120   20.7530 C   0  0  0  0  0  3  0  0  0  0  0  0
  -30.2740  -17.7020   20.1080 C   0  0  2  0  0  0  0  0  0  0  0  0
  -29.8530  -20.2680   19.8840 C   0  0  2  0  0  0  0  0  0  0  0  0
  -31.1670  -15.0890   19.5300 C   0  0  0  0  0  0  0  0  0  0  0  0
  -30.9680  -12.7630   18.5590 C   0  0  0  0  0  2  0  0  0  0  0  0
  -29.8970  -12.7680   17.4410 C   0  0  0  0  0  2  0  0  0  0  0  0
  -28.4780  -12.6030   18.0240 C   0  0  0  0  0  2  0  0  0  0  0  0
  -28.2270  -13.5150   19.2540 C   0  0  0  0  0  3  0  0  0  0  0  0
  -29.3920  -13.4310   20.2600 C   0  0  0  0  0  2  0  0  0  0  0  0
  -30.6030  -13.8260   19.5280 N   0  0  0  0  0  0  0  0  0  0  0  0
  -32.3450  -15.2170   19.1720 O   0  0  0  0  0  0  0  0  0  0  0  0
  -30.2930  -16.1730   19.7370 N   0  0  0  0  0  0  0  0  0  0  0  0
  -29.3680  -15.7870   19.8400 H   0  0  0  0  0  0  0  0  0  0  0  0
  -25.9750  -14.1680   20.2900 C   0  0  0  0  0  0  0  0  0  0  0  0
  -24.9220  -13.4200   20.7450 C   0  0  0  0  0  0  0  0  0  0  0  0
  -25.3110  -12.0540   20.5840 C   0  0  0  0  0  0  0  0  0  0  0  0
  -26.9390  -13.2590   19.8830 N   0  0  0  0  0  0  0  0  0  0  0  0
  -26.5540  -11.9790   20.1210 N   0  0  0  0  0  0  0  0  0  0  0  0
  -24.5480  -10.8160   20.7860 C   0  0  0  0  0  0  0  0  0  0  0  0
  -24.9390   -9.8560   21.7450 C   0  0  0  0  0  3  0  0  0  0  0  0
  -24.1780   -8.6830   21.9340 C   0  0  0  0  0  3  0  0  0  0  0  0
  -23.0120   -8.4620   21.1620 C   0  0  0  0  0  0  0  0  0  0  0  0
  -22.6400   -9.4100   20.1930 C   0  0  0  0  0  3  0  0  0  0  0  0
  -23.4020  -10.5750   20.0030 C   0  0  0  0  0  3  0  0  0  0  0  0
  -22.2240   -7.3400   21.2590 O   0  0  0  0  0  0  0  0  0  0  0  0
  -21.9260   -6.7720   22.4710 C   0  0  0  0  0  0  0  0  0  0  0  0
  -21.2800   -7.4990   23.4960 C   0  0  0  0  0  3  0  0  0  0  0  0
  -20.9280   -6.8570   24.7000 C   0  0  0  0  0  3  0  0  0  0  0  0
  -21.2140   -5.4890   24.8780 C   0  0  0  0  0  0  0  0  0  0  0  0
  -21.8540   -4.7630   23.8590 C   0  0  0  0  0  3  0  0  0  0  0  0
  -22.2050   -5.4040   22.6560 C   0  0  0  0  0  0  0  0  0  0  0  0
  -22.8020   -4.6940   21.6680 F   0  0  0  0  0  0  0  0  0  0  0  0
  -20.8700   -4.8700   26.0330 F   0  0  0  0  0  0  0  0  0  0  0  0
  -23.5900  -13.9420   21.2020 C   0  0  0  0  0  0  0  0  0  0  0  0
  -22.9590  -13.2590   22.1490 N   0  0  0  0  0  0  0  0  0  0  0  0
  -23.1280  -14.9880   20.7510 O   0  0  0  0  0  0  0  0  0  0  0  0
  -23.3540  -12.4130   22.5350 H   0  0  0  0  0  0  0  0  0  0  0  0
  -22.0700  -13.5860   22.4950 H   0  0  0  0  0  0  0  0  0  0  0  0
  -26.1780  -15.5380   20.1640 N   0  0  0  0  0  0  0  0  0  0  0  0
  -25.4390  -16.1960   20.3790 H   0  0  0  0  0  0  0  0  0  0  0  0
  -26.9490  -15.9670   19.6720 H   0  0  0  0  0  0  0  0  0  0  0  0
  -29.9360  -21.6240   19.1770 O   0  0  0  0  0  0  0  0  0  0  0  0
  -29.0230  -23.9310   18.0970 C   0  0  0  0  0  2  0  0  0  0  0  0
  -28.7640  -23.9090   20.2080 C   0  0  0  0  0  2  0  0  0  0  0  0
  -29.2190  -25.0310   19.2050 C   0  0  0  0  0  3  0  0  0  0  0  0
  -28.8850  -22.7360   19.1420 C   0  0  0  0  0  3  0  0  0  0  0  0
  -28.9230  -26.5450   19.2660 O   0  0  0  0  0  0  0  0  0  0  0  0
  -24.5980  -31.2320   22.8260 C   0  0  0  0  0  0  0  0  0  0  0  0
  -27.7070  -27.2770   19.3090 C   0  0  0  0  0  0  0  0  0  0  0  0
  -23.5860  -29.9560   20.9730 C   0  0  0  0  0  3  0  0  0  0  0  0
  -25.2140  -28.7290   19.4130 C   0  0  0  0  0  0  0  0  0  0  0  0
  -26.0980  -30.4980   20.9390 C   0  0  0  0  0  2  0  0  0  0  0  0
  -26.3200  -29.2220   20.1160 C   0  0  0  0  0  0  0  0  0  0  0  0
  -27.5670  -28.5140   20.0430 C   0  0  0  0  0  3  0  0  0  0  0  0
  -26.5710  -26.8570   18.5930 C   0  0  0  0  0  3  0  0  0  0  0  0
  -25.3470  -27.5630   18.6410 C   0  0  0  0  0  3  0  0  0  0  0  0
  -23.9030  -29.4860   19.5270 C   0  0  0  0  0  2  0  0  0  0  0  0
  -24.7780  -30.5760   21.6400 N   0  0  0  0  0  0  0  0  0  0  0  0
  -23.4750  -31.3400   23.3450 O   0  0  0  0  0  0  0  0  0  0  0  0
  -22.9950  -28.7660   21.7660 C   0  0  0  0  0  0  0  0  0  0  0  0
  -21.6820  -28.5220   21.6080 N   0  0  0  0  0  0  0  0  0  0  0  0
  -23.7170  -28.0710   22.4840 O   0  0  0  0  0  0  0  0  0  0  0  0
  -21.1540  -29.1420   21.0120 H   0  0  0  0  0  0  0  0  0  0  0  0
  -18.3700  -27.1270   22.0400 C   0  0  0  0  0  0  0  0  0  0  0  0
  -20.9320  -27.4250   22.2240 C   0  0  0  0  0  3  0  0  0  0  0  0
  -21.0360  -26.1340   21.3790 C   0  0  0  0  0  2  0  0  0  0  0  0
  -19.8850  -25.9690   20.3800 C   0  0  0  0  0  2  0  0  0  0  0  0
  -18.5390  -25.9410   21.1080 C   0  0  0  0  0  2  0  0  0  0  0  0
  -19.4900  -27.8340   22.5520 C   0  0  0  0  0  0  0  0  0  0  0  0
  -19.2700  -28.9490   23.3880 C   0  0  0  0  0  3  0  0  0  0  0  0
  -17.9630  -29.3610   23.7130 C   0  0  0  0  0  3  0  0  0  0  0  0
  -16.8580  -28.6500   23.2150 C   0  0  0  0  0  3  0  0  0  0  0  0
  -17.0630  -27.5340   22.3830 C   0  0  0  0  0  3  0  0  0  0  0  0
  -25.7920  -31.8940   23.5790 C   0  0  0  0  0  3  0  0  0  0  0  0
  -25.3750  -33.2460   23.9810 N   0  0  0  0  0  0  0  0  0  0  0  0
  -25.6730  -34.3660   23.3110 C   0  0  0  0  0  0  0  0  0  0  0  0
  -26.3960  -34.3760   22.3110 O   0  0  0  0  0  0  0  0  0  0  0  0
  -24.7400  -33.3120   24.7630 H   0  0  0  0  0  0  0  0  0  0  0  0
  -23.8370  -36.0550   23.0000 C   0  0  0  0  0  1  0  0  0  0  0  0
  -25.0760  -35.6870   23.8330 C   0  0  0  0  0  3  0  0  0  0  0  0
  -27.1000  -36.6680   24.8150 C   0  0  0  0  0  1  0  0  0  0  0  0
  -26.0350  -36.8110   23.8240 N   0  0  0  0  0  0  0  0  0  0  0  0
  -25.5600  -37.6930   23.9930 H   0  0  0  0  0  0  0  0  0  0  0  0
  -26.2690  -31.0670   24.8370 C   0  0  1  0  0  0  0  0  0  0  0  0
  -25.1230  -30.6970   25.8050 C   0  0  0  0  0  1  0  0  0  0  0  0
  -26.9540  -29.7530   24.3970 C   0  0  0  0  0  1  0  0  0  0  0  0
  -27.3280  -31.8750   25.6250 C   0  0  0  0  0  1  0  0  0  0  0  0
  2  6  1  0
  5  9  1  0
  5  8  1  0
  6  4  1  0
  6  1  1  0
  7  3  1  0
  7  1  1  0
  8 18  1  6
  8  3  1  0
  8  2  1  0
  9 48  1  6
  9  7  1  0
  9  4  1  0
 10 18  1  0
 11 16  1  0
 12 13  1  0
 12 11  1  0
 14 13  1  0
 14 23  1  0
 14 15  1  0
 16 10  1  0
 16 15  1  0
 17 10  2  0
 18 19  1  0
 20 21  2  0
 21 40  1  0
 22 21  1  0
 22 25  1  0
 23 24  1  0
 23 20  1  0
 24 22  2  0
 25 26  1  0
 26 27  2  0
 28 31  1  0
 28 27  1  0
 29 28  2  0
 30 29  1  0
 30 25  2  0
 31 32  1  0
 32 37  2  0
 32 33  1  0
 33 34  2  0
 34 35  1  0
 35 39  1  0
 36 35  2  0
 37 36  1  0
 38 37  1  0
 40 41  1  0
 41 44  1  0
 41 43  1  0
 42 40  2  0
 45 20  1  0
 45 46  1  0
 47 45  1  0
 49 52  1  0
 49 51  1  0
 51 53  1  0
 51 50  1  0
 52 48  1  0
 52 50  1  0
 53 55  1  0
 54 65  2  0
 55 60  1  0
 56 64  1  0
 56 66  1  0
 57 63  1  0
 57 59  1  0
 58 64  1  0
 59 58  1  0
 60 59  2  0
 61 62  1  0
 61 55  2  0
 62 57  2  0
 63 56  1  0
 64 54  1  0
 66 68  2  0
 67 66  1  0
 69 67  1  0
 70 79  2  0
 70 75  1  0
 71 67  1  0
 71 75  1  0
 72 71  1  0
 73 74  1  0
 73 72  1  0
 74 70  1  0
 75 76  2  0
 76 77  1  0
 78 77  2  0
 79 78  1  0
 80 54  1  0
 80 81  1  0
 80 90  1  0
 81 84  1  0
 82 86  1  0
 82 81  1  0
 83 82  2  0
 86 85  1  0
 88 86  1  0
 88 89  1  0
 88 87  1  0
 90 93  1  1
 90 91  1  0
 92 90  1  0
M  ISO  4  10 100  18 100  51 101  53 101
M  END
>  <TORSDO>  (36) 
F 18

>  <SCORE>  (36) 
-9.696

>  <name>  (36) 
35

>  <ligand_id>  (36) 
35

>  <original_smiles>  (36) 
[H]c1c([H])c([H])c2c(c1[H])C([H])([H])C([H])([H])C([H])([H])C2([H])N([H])C(=O)C1([H])N(C(=O)C([H])(N([H])C(=O)C([H])(N([H])C([H])([H])[H])C([H])([H])[H])C(C([H])([H])[H])(C([H])([H])[H])C([H])([H])[H])C([H])([H])c2c([H])c(OC3([H])C([H])([H])C([H])(OC45C([H])([H])C6([H])C([H])([H])C4([H])C([H])([H])C(N([H])C(=O)N4C([H])([H])C([H])([H])C([H])([H])C([H])(n7nc(-c8c([H])c([H])c(Oc9c([H])c([H])c(F)c([H])c9F)c([H])c8[H])c(C(=O)N([H])[H])c7N([H])[H])C4([H])[H])(C6([H])[H])C5([H])[H])C3([H])[H])c([H])c([H])c2C1([H])[H]

>  <smiles>  (36) 
[H]c1c([H])c([H])c2c(c1[H])C([H])([H])C([H])([H])C([H])([H])C2([H])N([H])C(=O)C1([H])N(C(=O)C([H])(N([H])C(=O)C([H])(N([H])C([H])([H])[H])C([H])([H])[H])C(C([H])([H])[H])(C([H])([H])[H])C([H])([H])[H])C([H])([H])c2c([H])c(OC3([H])C([H])([H])C([H])(OC45C([H])([H])C6([H])C([H])([H])C4([H])C([H])([H])C(N([H])C(=O)N4C([H])([H])C([H])([H])C([H])([H])C([H])(n7nc(-c8c([H])c([H])c(Oc9c([H])c([H])c(F)c([H])c9F)c([H])c8[H])c(C(=O)N([H])[H])c7N([H])[H])C4([H])[H])(C6([H])[H])C5([H])[H])C3([H])[H])c([H])c([H])c2C1([H])[H]

$$$$
36:0:0
     RDKit          3D

 92101  0  0  1  0  0  0  0  0999 V2000
  -30.7010  -14.8050   20.2630 C   0  0  0  0  0  0  0  0  0  0  0  0
  -30.4820  -12.4760   19.3600 C   0  0  0  0  0  2  0  0  0  0  0  0
  -29.5480  -12.4490   18.1330 C   0  0  0  0  0  2  0  0  0  0  0  0
  -28.0830  -12.2850   18.5740 C   0  0  0  0  0  2  0  0  0  0  0  0
  -27.6960  -13.2350   19.7400 C   0  0  0  0  0  3  0  0  0  0  0  0
  -28.7580  -13.2560   20.8610 C   0  0  0  0  0  2  0  0  0  0  0  0
  -30.0370  -13.5930   20.2320 N   0  0  0  0  0  0  0  0  0  0  0  0
  -31.9010  -14.8130   19.9690 O   0  0  0  0  0  0  0  0  0  0  0  0
  -29.0930  -21.4150   18.9970 C   0  0  0  0  0  3  0  0  0  0  0  0
  -28.7710  -22.8250   19.0360 C   0  0  0  0  0  0  0  0  0  0  0  0
  -28.4970  -23.4900   20.2700 C   0  0  0  0  0  0  0  0  0  0  0  0
  -28.5720  -22.5900   21.3880 C   0  0  0  0  0  0  0  0  0  0  0  0
  -29.1430  -20.5980   20.1680 C   0  0  0  0  0  0  0  0  0  0  0  0
  -29.4820  -18.3210   18.9960 C   0  0  0  0  0  2  0  0  0  0  0  0
  -29.1270  -18.2960   21.3570 C   0  0  0  0  0  2  0  0  0  0  0  0
  -30.3270  -16.9850   19.1310 C   0  0  0  0  0  2  0  0  0  0  0  0
  -29.8760  -16.8810   21.4560 C   0  0  0  0  0  2  0  0  0  0  0  0
  -28.6870  -23.6070   17.7390 C   0  0  0  0  0  1  0  0  0  0  0  0
  -28.2440  -23.0700   22.7920 C   0  0  0  0  0  1  0  0  0  0  0  0
  -28.8840  -21.2460   21.3340 N   0  0  0  0  0  0  0  0  0  0  0  0
  -29.4670  -19.1650   20.2040 N   0  0  0  0  0  0  0  0  0  0  0  0
  -29.9920  -16.0230   20.2330 N   0  0  0  0  0  0  0  0  0  0  0  0
  -25.3280  -13.8360   20.5090 C   0  0  0  0  0  0  0  0  0  0  0  0
  -24.2590  -13.0690   20.8800 C   0  0  0  0  0  0  0  0  0  0  0  0
  -24.7080  -11.7130   20.8320 C   0  0  0  0  0  0  0  0  0  0  0  0
  -26.3600  -12.9490   20.2520 N   0  0  0  0  0  0  0  0  0  0  0  0
  -25.9960  -11.6660   20.5120 N   0  0  0  0  0  0  0  0  0  0  0  0
  -23.9700  -10.4570   21.0160 C   0  0  0  0  0  0  0  0  0  0  0  0
  -24.3840   -9.4850   21.9550 C   0  0  0  0  0  3  0  0  0  0  0  0
  -23.6440   -8.2940   22.1260 C   0  0  0  0  0  3  0  0  0  0  0  0
  -22.4780   -8.0670   21.3590 C   0  0  0  0  0  0  0  0  0  0  0  0
  -22.0840   -9.0250   20.4080 C   0  0  0  0  0  3  0  0  0  0  0  0
  -22.8240  -10.2070   20.2350 C   0  0  0  0  0  3  0  0  0  0  0  0
  -21.7120   -6.9290   21.4410 O   0  0  0  0  0  0  0  0  0  0  0  0
  -21.6150   -6.2070   22.6040 C   0  0  0  0  0  0  0  0  0  0  0  0
  -21.1450   -6.7870   23.8030 C   0  0  0  0  0  3  0  0  0  0  0  0
  -20.9970   -5.9930   24.9570 C   0  0  0  0  0  3  0  0  0  0  0  0
  -21.3070   -4.6200   24.9130 C   0  0  0  0  0  0  0  0  0  0  0  0
  -21.7690   -4.0400   23.7180 C   0  0  0  0  0  3  0  0  0  0  0  0
  -21.9200   -4.8320   22.5660 C   0  0  0  0  0  0  0  0  0  0  0  0
  -22.3450   -4.2640   21.4120 F   0  0  0  0  0  0  0  0  0  0  0  0
  -21.1570   -3.8540   26.0190 F   0  0  0  0  0  0  0  0  0  0  0  0
  -22.8680  -13.5570   21.1650 C   0  0  0  0  0  0  0  0  0  0  0  0
  -22.1410  -12.8630   22.0340 N   0  0  0  0  0  0  0  0  0  0  0  0
  -22.4360  -14.5910   20.6580 O   0  0  0  0  0  0  0  0  0  0  0  0
  -22.5030  -12.0260   22.4670 H   0  0  0  0  0  0  0  0  0  0  0  0
  -21.2110  -13.1740   22.2720 H   0  0  0  0  0  0  0  0  0  0  0  0
  -25.5060  -15.2070   20.3440 N   0  0  0  0  0  0  0  0  0  0  0  0
  -24.7480  -15.8700   20.4700 H   0  0  0  0  0  0  0  0  0  0  0  0
  -26.3620  -15.6390   20.0240 H   0  0  0  0  0  0  0  0  0  0  0  0
  -27.8980  -24.9870   20.4490 C   0  0  0  0  0  2  0  0  0  0  0  0
  -28.1900  -26.2280   19.6360 O   0  0  0  0  0  0  0  0  0  0  0  0
  -24.6630  -31.6860   22.9630 C   0  0  0  0  0  0  0  0  0  0  0  0
  -27.1550  -27.1990   19.6510 C   0  0  0  0  0  0  0  0  0  0  0  0
  -23.4130  -30.3610   21.2990 C   0  0  0  0  0  3  0  0  0  0  0  0
  -24.8200  -28.8720   19.7610 C   0  0  0  0  0  0  0  0  0  0  0  0
  -25.9530  -30.6650   21.0660 C   0  0  0  0  0  2  0  0  0  0  0  0
  -26.0120  -29.3120   20.3540 C   0  0  0  0  0  0  0  0  0  0  0  0
  -27.1870  -28.4880   20.2890 C   0  0  0  0  0  3  0  0  0  0  0  0
  -25.9480  -26.8460   19.0110 C   0  0  0  0  0  3  0  0  0  0  0  0
  -24.7940  -27.6470   19.0770 C   0  0  0  0  0  3  0  0  0  0  0  0
  -23.5900  -29.7510   19.8840 C   0  0  0  0  0  2  0  0  0  0  0  0
  -24.6970  -30.9210   21.8320 N   0  0  0  0  0  0  0  0  0  0  0  0
  -23.5940  -31.9420   23.5370 O   0  0  0  0  0  0  0  0  0  0  0  0
  -22.7710  -29.3050   22.2320 C   0  0  0  0  0  0  0  0  0  0  0  0
  -21.4390  -29.1520   22.1530 N   0  0  0  0  0  0  0  0  0  0  0  0
  -23.4720  -28.6280   22.9900 O   0  0  0  0  0  0  0  0  0  0  0  0
  -20.9300  -29.7490   21.5160 H   0  0  0  0  0  0  0  0  0  0  0  0
  -18.0610  -28.0110   22.7810 C   0  0  0  0  0  0  0  0  0  0  0  0
  -20.6370  -28.1870   22.9080 C   0  0  0  0  0  3  0  0  0  0  0  0
  -20.6630  -26.7940   22.2360 C   0  0  0  0  0  2  0  0  0  0  0  0
  -19.4930  -26.5690   21.2720 C   0  0  0  0  0  2  0  0  0  0  0  0
  -18.1560  -26.7060   22.0070 C   0  0  0  0  0  2  0  0  0  0  0  0
  -19.2250  -28.7130   23.1900 C   0  0  0  0  0  0  0  0  0  0  0  0
  -19.0800  -29.9370   23.8780 C   0  0  0  0  0  3  0  0  0  0  0  0
  -17.8020  -30.4590   24.1580 C   0  0  0  0  0  3  0  0  0  0  0  0
  -16.6530  -29.7520   23.7620 C   0  0  0  0  0  3  0  0  0  0  0  0
  -16.7840  -28.5290   23.0810 C   0  0  0  0  0  3  0  0  0  0  0  0
  -25.9610  -32.2930   23.5760 C   0  0  0  0  0  3  0  0  0  0  0  0
  -25.6420  -33.6510   24.0400 N   0  0  0  0  0  0  0  0  0  0  0  0
  -25.9080  -34.7730   23.3570 C   0  0  0  0  0  0  0  0  0  0  0  0
  -26.5190  -34.7740   22.2850 O   0  0  0  0  0  0  0  0  0  0  0  0
  -25.0930  -33.7230   24.8840 H   0  0  0  0  0  0  0  0  0  0  0  0
  -24.1250  -36.5450   23.2600 C   0  0  0  0  0  1  0  0  0  0  0  0
  -25.4220  -36.1060   23.9580 C   0  0  0  0  0  3  0  0  0  0  0  0
  -27.5830  -36.9730   24.7350 C   0  0  0  0  0  1  0  0  0  0  0  0
  -26.4230  -37.1910   23.8760 N   0  0  0  0  0  0  0  0  0  0  0  0
  -26.0080  -38.0840   24.1250 H   0  0  0  0  0  0  0  0  0  0  0  0
  -26.5520  -31.4290   24.7580 C   0  0  1  0  0  0  0  0  0  0  0  0
  -25.5170  -31.0900   25.8560 C   0  0  0  0  0  1  0  0  0  0  0  0
  -27.1290  -30.0960   24.2300 C   0  0  0  0  0  1  0  0  0  0  0  0
  -27.7250  -32.1860   25.4240 C   0  0  0  0  0  1  0  0  0  0  0  0
  2  7  1  0
  3  4  1  0
  3  2  1  0
  5  4  1  0
  5 26  1  0
  5  6  1  0
  7  1  1  0
  7  6  1  0
  8  1  2  0
  9 10  2  0
  9 13  1  0
 10 11  1  0
 11 51  1  0
 11 12  2  0
 12 19  1  0
 13 21  1  0
 13 20  2  0
 14 16  1  0
 14 21  1  0
 15 17  1  0
 16 22  1  0
 18 10  1  0
 20 12  1  0
 21 15  1  0
 22  1  1  0
 22 17  1  0
 23 24  2  0
 24 43  1  0
 25 24  1  0
 25 28  1  0
 26 23  1  0
 26 27  1  0
 27 25  2  0
 28 29  1  0
 29 30  2  0
 31 34  1  0
 31 30  1  0
 32 31  2  0
 33 32  1  0
 33 28  2  0
 34 35  1  0
 35 36  1  0
 36 37  2  0
 38 37  1  0
 38 42  1  0
 39 38  2  0
 40 35  2  0
 40 39  1  0
 41 40  1  0
 43 44  1  0
 44 47  1  0
 44 46  1  0
 45 43  2  0
 48 49  1  0
 48 23  1  0
 50 48  1  0
 52 54  1  0
 52 51  1  0
 53 64  2  0
 54 59  1  0
 55 63  1  0
 55 65  1  0
 56 62  1  0
 56 58  1  0
 57 63  1  0
 58 57  1  0
 59 58  2  0
 60 61  1  0
 60 54  2  0
 61 56  2  0
 62 55  1  0
 63 53  1  0
 65 67  2  0
 66 65  1  0
 68 66  1  0
 69 78  2  0
 69 74  1  0
 70 66  1  0
 70 74  1  0
 71 70  1  0
 72 73  1  0
 72 71  1  0
 73 69  1  0
 74 75  2  0
 75 76  1  0
 77 76  2  0
 78 77  1  0
 79 53  1  0
 79 80  1  0
 79 89  1  0
 80 83  1  0
 81 85  1  0
 81 80  1  0
 82 81  2  0
 85 84  1  0
 87 85  1  0
 87 88  1  0
 87 86  1  0
 89 92  1  1
 89 90  1  0
 91 89  1  0
M  ISO  4   1 100  22 100  51 101  52 101
M  END
>  <TORSDO>  (37) 
F 16

>  <SCORE>  (37) 
-14.195

>  <name>  (37) 
36

>  <ligand_id>  (37) 
36

>  <original_smiles>  (37) 
[H]c1c([H])c([H])c2c(c1[H])C([H])([H])C([H])([H])C([H])([H])C2([H])N([H])C(=O)C1([H])N(C(=O)C([H])(N([H])C(=O)C([H])(N([H])C([H])([H])[H])C([H])([H])[H])C(C([H])([H])[H])(C([H])([H])[H])C([H])([H])[H])C([H])([H])c2c([H])c(OC([H])([H])c3c(C([H])([H])[H])nc(N4C([H])([H])C([H])([H])N(C(=O)N5C([H])([H])C([H])([H])C([H])([H])C([H])(n6nc(-c7c([H])c([H])c(Oc8c([H])c([H])c(F)c([H])c8F)c([H])c7[H])c(C(=O)N([H])[H])c6N([H])[H])C5([H])[H])C([H])([H])C4([H])[H])c([H])c3C([H])([H])[H])c([H])c([H])c2C1([H])[H]

>  <smiles>  (37) 
[H]c1c([H])c([H])c2c(c1[H])C([H])([H])C([H])([H])C([H])([H])C2([H])N([H])C(=O)C1([H])N(C(=O)C([H])(N([H])C(=O)C([H])(N([H])C([H])([H])[H])C([H])([H])[H])C(C([H])([H])[H])(C([H])([H])[H])C([H])([H])[H])C([H])([H])c2c([H])c(OC([H])([H])c3c(C([H])([H])[H])nc(N4C([H])([H])C([H])([H])N(C(=O)N5C([H])([H])C([H])([H])C([H])([H])C([H])(n6nc(-c7c([H])c([H])c(Oc8c([H])c([H])c(F)c([H])c8F)c([H])c7[H])c(C(=O)N([H])[H])c6N([H])[H])C5([H])[H])C([H])([H])C4([H])[H])c([H])c3C([H])([H])[H])c([H])c([H])c2C1([H])[H]

$$$$
37:0:0
     RDKit          3D

 95104  0  0  1  0  0  0  0  0999 V2000
  -30.0080  -22.5230   21.4540 C   0  0  0  0  0  3  0  0  0  0  0  0
  -29.6790  -23.8500   21.0710 C   0  0  0  0  0  0  0  0  0  0  0  0
  -28.8580  -24.0600   19.9340 C   0  0  0  0  0  0  0  0  0  0  0  0
  -29.5400  -21.4170   20.7170 C   0  0  0  0  0  0  0  0  0  0  0  0
  -28.4150  -22.8810   19.2650 C   0  0  0  0  0  0  0  0  0  0  0  0
  -30.2510  -25.0100   21.8670 C   0  0  0  0  0  1  0  0  0  0  0  0
  -28.7390  -21.6060   19.6500 N   0  0  0  0  0  0  0  0  0  0  0  0
  -29.9510  -20.1160   21.1080 N   0  0  0  0  0  0  0  0  0  0  0  0
  -30.5600  -20.0820   21.9180 H   0  0  0  0  0  0  0  0  0  0  0  0
  -30.8020  -14.6570   20.0360 C   0  0  0  0  0  0  0  0  0  0  0  0
  -30.4960  -12.4640   18.9260 C   0  0  0  0  0  2  0  0  0  0  0  0
  -29.4790  -12.6290   17.7750 C   0  0  0  0  0  2  0  0  0  0  0  0
  -28.0370  -12.4520   18.2900 C   0  0  0  0  0  2  0  0  0  0  0  0
  -27.7550  -13.2720   19.5790 C   0  0  0  0  0  3  0  0  0  0  0  0
  -28.8830  -13.0850   20.6160 C   0  0  0  0  0  2  0  0  0  0  0  0
  -30.1460  -13.4560   19.9610 N   0  0  0  0  0  0  0  0  0  0  0  0
  -31.9520  -14.7680   19.5990 O   0  0  0  0  0  0  0  0  0  0  0  0
  -29.5960  -17.7230   21.7310 C   0  0  0  0  0  2  0  0  0  0  0  0
  -30.3900  -18.2500   19.4580 C   0  0  0  0  0  2  0  0  0  0  0  0
  -29.2810  -16.2530   21.3040 C   0  0  0  0  0  2  0  0  0  0  0  0
  -30.0110  -16.8000   19.0250 C   0  0  0  0  0  2  0  0  0  0  0  0
  -29.5100  -18.7910   20.6050 C   0  0  0  0  0  3  0  0  0  0  0  0
  -30.0200  -15.7880   20.1130 N   0  0  0  0  0  0  0  0  0  0  0  0
  -25.4120  -13.8260   20.4750 C   0  0  0  0  0  0  0  0  0  0  0  0
  -24.3760  -13.0310   20.8840 C   0  0  0  0  0  0  0  0  0  0  0  0
  -24.8420  -11.6850   20.7700 C   0  0  0  0  0  0  0  0  0  0  0  0
  -26.4430  -12.9630   20.1390 N   0  0  0  0  0  0  0  0  0  0  0  0
  -26.1090  -11.6680   20.3760 N   0  0  0  0  0  0  0  0  0  0  0  0
  -24.1360  -10.4100   20.9570 C   0  0  0  0  0  0  0  0  0  0  0  0
  -24.5810   -9.4510   21.8930 C   0  0  0  0  0  3  0  0  0  0  0  0
  -23.8750   -8.2410   22.0670 C   0  0  0  0  0  3  0  0  0  0  0  0
  -22.7110   -7.9830   21.3060 C   0  0  0  0  0  0  0  0  0  0  0  0
  -22.2850   -8.9310   20.3600 C   0  0  0  0  0  3  0  0  0  0  0  0
  -22.9930  -10.1320   20.1830 C   0  0  0  0  0  3  0  0  0  0  0  0
  -21.9760   -6.8240   21.3900 O   0  0  0  0  0  0  0  0  0  0  0  0
  -21.8470   -6.1380   22.5710 C   0  0  0  0  0  0  0  0  0  0  0  0
  -21.2860   -6.7330   23.7210 C   0  0  0  0  0  3  0  0  0  0  0  0
  -21.1080   -5.9700   24.8920 C   0  0  0  0  0  3  0  0  0  0  0  0
  -21.4810   -4.6120   24.9130 C   0  0  0  0  0  0  0  0  0  0  0  0
  -22.0360   -4.0170   23.7670 C   0  0  0  0  0  3  0  0  0  0  0  0
  -22.2150   -4.7780   22.5980 C   0  0  0  0  0  0  0  0  0  0  0  0
  -22.7310   -4.1930   21.4890 F   0  0  0  0  0  0  0  0  0  0  0  0
  -21.3040   -3.8780   26.0360 F   0  0  0  0  0  0  0  0  0  0  0  0
  -22.9970  -13.4860   21.2660 C   0  0  0  0  0  0  0  0  0  0  0  0
  -22.3340  -12.7550   22.1550 N   0  0  0  0  0  0  0  0  0  0  0  0
  -22.5180  -14.5250   20.8120 O   0  0  0  0  0  0  0  0  0  0  0  0
  -22.7350  -11.9140   22.5440 H   0  0  0  0  0  0  0  0  0  0  0  0
  -21.4120  -13.0410   22.4530 H   0  0  0  0  0  0  0  0  0  0  0  0
  -25.5550  -15.2030   20.3390 N   0  0  0  0  0  0  0  0  0  0  0  0
  -24.7930  -15.8460   20.5220 H   0  0  0  0  0  0  0  0  0  0  0  0
  -26.3760  -15.6590   19.9620 H   0  0  0  0  0  0  0  0  0  0  0  0
  -27.1860  -21.8450   17.4660 C   0  0  0  0  0  1  0  0  0  0  0  0
  -27.6360  -23.0210   18.1350 O   0  0  0  0  0  0  0  0  0  0  0  0
  -28.5900  -25.4740   19.3170 C   0  0  0  0  0  2  0  0  0  0  0  0
  -28.3710  -26.6220   20.1950 O   0  0  0  0  0  0  0  0  0  0  0  0
  -24.5530  -31.8940   23.2080 C   0  0  0  0  0  0  0  0  0  0  0  0
  -27.2010  -27.3830   20.1450 C   0  0  0  0  0  0  0  0  0  0  0  0
  -23.3550  -30.4860   21.5690 C   0  0  0  0  0  3  0  0  0  0  0  0
  -24.8120  -28.9420   20.1490 C   0  0  0  0  0  0  0  0  0  0  0  0
  -25.8880  -30.8280   21.3830 C   0  0  0  0  0  2  0  0  0  0  0  0
  -25.9740  -29.4510   20.7420 C   0  0  0  0  0  0  0  0  0  0  0  0
  -27.1660  -28.6790   20.7370 C   0  0  0  0  0  3  0  0  0  0  0  0
  -26.0050  -26.9000   19.5640 C   0  0  0  0  0  3  0  0  0  0  0  0
  -24.8260  -27.6690   19.5590 C   0  0  0  0  0  3  0  0  0  0  0  0
  -23.5710  -29.8070   20.1910 C   0  0  0  0  0  2  0  0  0  0  0  0
  -24.6180  -31.0850   22.1110 N   0  0  0  0  0  0  0  0  0  0  0  0
  -23.4690  -32.1670   23.7420 O   0  0  0  0  0  0  0  0  0  0  0  0
  -22.6990  -29.4670   22.5300 C   0  0  0  0  0  0  0  0  0  0  0  0
  -21.3760  -29.2770   22.3930 N   0  0  0  0  0  0  0  0  0  0  0  0
  -23.3780  -28.8510   23.3550 O   0  0  0  0  0  0  0  0  0  0  0  0
  -20.8880  -29.8250   21.7000 H   0  0  0  0  0  0  0  0  0  0  0  0
  -18.0040  -28.0650   22.8760 C   0  0  0  0  0  0  0  0  0  0  0  0
  -20.5580  -28.3370   23.1630 C   0  0  0  0  0  3  0  0  0  0  0  0
  -20.6730  -26.9040   22.5930 C   0  0  0  0  0  2  0  0  0  0  0  0
  -19.5790  -26.5710   21.5740 C   0  0  0  0  0  2  0  0  0  0  0  0
  -18.1920  -26.7120   22.2090 C   0  0  0  0  0  2  0  0  0  0  0  0
  -19.1160  -28.8340   23.3100 C   0  0  0  0  0  0  0  0  0  0  0  0
  -18.8870  -30.0990   23.8940 C   0  0  0  0  0  3  0  0  0  0  0  0
  -17.5790  -30.5940   24.0480 C   0  0  0  0  0  3  0  0  0  0  0  0
  -16.4810  -29.8220   23.6320 C   0  0  0  0  0  3  0  0  0  0  0  0
  -16.6950  -28.5590   23.0510 C   0  0  0  0  0  3  0  0  0  0  0  0
  -25.8340  -32.5300   23.8300 C   0  0  0  0  0  3  0  0  0  0  0  0
  -25.5170  -33.9260   24.1610 N   0  0  0  0  0  0  0  0  0  0  0  0
  -25.8500  -34.9820   23.4060 C   0  0  0  0  0  0  0  0  0  0  0  0
  -26.5260  -34.8820   22.3790 O   0  0  0  0  0  0  0  0  0  0  0  0
  -24.9180  -34.0770   24.9600 H   0  0  0  0  0  0  0  0  0  0  0  0
  -24.1290  -36.7770   23.0350 C   0  0  0  0  0  1  0  0  0  0  0  0
  -25.3560  -36.3670   23.8640 C   0  0  0  0  0  3  0  0  0  0  0  0
  -27.4720  -37.2530   24.7400 C   0  0  0  0  0  1  0  0  0  0  0  0
  -26.3900  -37.4210   23.7740 N   0  0  0  0  0  0  0  0  0  0  0  0
  -25.9820  -38.3410   23.9130 H   0  0  0  0  0  0  0  0  0  0  0  0
  -26.3540  -31.7600   25.1060 C   0  0  1  0  0  0  0  0  0  0  0  0
  -25.2610  -31.5100   26.1710 C   0  0  0  0  0  1  0  0  0  0  0  0
  -26.9500  -30.3890   24.7110 C   0  0  0  0  0  1  0  0  0  0  0  0
  -27.4950  -32.5630   25.7740 C   0  0  0  0  0  1  0  0  0  0  0  0
  2  1  1  0
  2  6  1  0
  3  2  2  0
  4  8  1  0
  4  1  2  0
  5  7  2  0
  5  3  1  0
  7  4  1  0
  8  9  1  0
 10 23  1  0
 11 16  1  0
 12 13  1  0
 12 11  1  0
 14 13  1  0
 14 27  1  0
 14 15  1  0
 16 10  1  0
 16 15  1  0
 17 10  2  0
 19 22  1  0
 20 18  1  0
 21 19  1  0
 21 23  1  0
 22  8  1  0
 22 18  1  0
 23 20  1  0
 24 25  2  0
 25 44  1  0
 26 25  1  0
 26 29  1  0
 27 28  1  0
 27 24  1  0
 28 26  2  0
 29 30  1  0
 30 31  2  0
 32 35  1  0
 32 31  1  0
 33 32  2  0
 34 33  1  0
 34 29  2  0
 35 36  1  0
 36 41  2  0
 36 37  1  0
 37 38  2  0
 38 39  1  0
 39 43  1  0
 40 39  2  0
 41 40  1  0
 42 41  1  0
 44 45  1  0
 45 48  1  0
 45 47  1  0
 46 44  2  0
 49 24  1  0
 49 50  1  0
 51 49  1  0
 52 53  1  0
 53  5  1  0
 54  3  1  0
 54 55  1  0
 56 67  2  0
 57 55  1  0
 57 62  1  0
 58 66  1  0
 58 68  1  0
 59 65  1  0
 59 61  1  0
 60 66  1  0
 61 60  1  0
 62 61  2  0
 63 57  2  0
 64 63  1  0
 64 59  2  0
 65 58  1  0
 66 56  1  0
 68 70  2  0
 69 68  1  0
 71 69  1  0
 72 81  2  0
 72 77  1  0
 73 69  1  0
 73 77  1  0
 74 73  1  0
 75 76  1  0
 75 74  1  0
 76 72  1  0
 77 78  2  0
 78 79  1  0
 80 79  2  0
 81 80  1  0
 82 56  1  0
 82 83  1  0
 82 92  1  0
 83 86  1  0
 84 88  1  0
 84 83  1  0
 85 84  2  0
 88 87  1  0
 90 88  1  0
 90 91  1  0
 90 89  1  0
 92 95  1  1
 92 93  1  0
 94 92  1  0
M  ISO  4  10 100  23 100  54 101  55 101
M  END
>  <TORSDO>  (38) 
F 18

>  <SCORE>  (38) 
-13.992

>  <name>  (38) 
37

>  <ligand_id>  (38) 
37

>  <original_smiles>  (38) 
[H]c1c([H])c([H])c2c(c1[H])C([H])([H])C([H])([H])C([H])([H])C2([H])N([H])C(=O)C1([H])N(C(=O)C([H])(N([H])C(=O)C([H])(N([H])C([H])([H])[H])C([H])([H])[H])C(C([H])([H])[H])(C([H])([H])[H])C([H])([H])[H])C([H])([H])c2c([H])c(OC([H])([H])c3c(OC([H])([H])[H])nc(N([H])C4([H])C([H])([H])C([H])([H])N(C(=O)N5C([H])([H])C([H])([H])C([H])([H])C([H])(n6nc(-c7c([H])c([H])c(Oc8c([H])c([H])c(F)c([H])c8F)c([H])c7[H])c(C(=O)N([H])[H])c6N([H])[H])C5([H])[H])C([H])([H])C4([H])[H])c([H])c3C([H])([H])[H])c([H])c([H])c2C1([H])[H]

>  <smiles>  (38) 
[H]c1c([H])c([H])c2c(c1[H])C([H])([H])C([H])([H])C([H])([H])C2([H])N([H])C(=O)C1([H])N(C(=O)C([H])(N([H])C(=O)C([H])(N([H])C([H])([H])[H])C([H])([H])[H])C(C([H])([H])[H])(C([H])([H])[H])C([H])([H])[H])C([H])([H])c2c([H])c(OC([H])([H])c3c(OC([H])([H])[H])nc(N([H])C4([H])C([H])([H])C([H])([H])N(C(=O)N5C([H])([H])C([H])([H])C([H])([H])C([H])(n6nc(-c7c([H])c([H])c(Oc8c([H])c([H])c(F)c([H])c8F)c([H])c7[H])c(C(=O)N([H])[H])c6N([H])[H])C5([H])[H])C([H])([H])C4([H])[H])c([H])c3C([H])([H])[H])c([H])c([H])c2C1([H])[H]

$$$$
38:0:0
     RDKit          3D

102112  0  0  1  0  0  0  0  0999 V2000
  -32.0160  -18.4420   17.4480 C   0  0  0  0  0  3  0  0  0  0  0  0
  -31.1920  -18.2010   19.7560 C   0  0  0  0  0  0  0  0  0  0  0  0
  -31.8900  -18.9570   18.7530 C   0  0  0  0  0  0  0  0  0  0  0  0
  -31.3600  -17.2570   17.0940 C   0  0  0  0  0  0  0  0  0  0  0  0
  -30.7000  -16.5030   18.0900 C   0  0  0  0  0  0  0  0  0  0  0  0
  -30.7790  -16.8470   19.4750 C   0  0  0  0  0  0  0  0  0  0  0  0
  -30.6730  -18.9450   20.9740 C   0  0  0  0  0  0  0  0  0  0  0  0
  -33.3040  -22.1100   18.0210 C   0  0  0  0  0  2  0  0  0  0  0  0
  -31.9140  -21.4750   18.0340 C   0  0  0  0  0  2  0  0  0  0  0  0
  -33.8370  -20.7490   18.4820 C   0  0  0  0  0  2  0  0  0  0  0  0
  -32.2490  -20.7070   20.4900 C   0  0  0  0  0  2  0  0  0  0  0  0
  -32.4240  -20.3830   19.0100 C   0  0  2  0  0  0  0  0  0  0  0  0
  -31.3220  -16.8350   15.6270 C   0  0  0  0  0  1  0  0  0  0  0  0
  -29.7570  -15.4300   17.5930 C   0  0  0  0  0  1  0  0  0  0  0  0
  -30.9490  -20.2710   21.0010 N   0  0  0  0  0  0  0  0  0  0  0  0
  -29.8600  -18.4240   21.7450 O   0  0  0  0  0  0  0  0  0  0  0  0
  -29.8910  -21.2940   21.1720 C   0  0  0  0  0  2  0  0  0  0  0  0
  -30.4440  -21.8790   23.5950 C   0  0  0  0  0  1  0  0  0  0  0  0
  -30.2200  -22.4310   22.1770 C   0  0  0  0  0  3  0  0  0  0  0  0
  -29.1690  -23.4830   22.1850 N   0  0  0  0  0  4  0  0  0  0  0  0
  -28.2570  -23.0500   22.2040 H   0  0  0  0  0  0  0  0  0  0  0  0
  -29.2700  -23.9720   23.0630 H   0  0  0  0  0  0  0  0  0  0  0  0
  -29.2540  -24.4920   21.0830 C   0  0  0  0  0  2  0  0  0  0  0  0
  -28.4070  -25.7530   21.3640 C   0  0  0  0  0  2  0  0  0  0  0  0
  -28.5670  -26.7960   20.3740 O   0  0  0  0  0  0  0  0  0  0  0  0
  -24.6840  -31.8590   23.4840 C   0  0  0  0  0  0  0  0  0  0  0  0
  -27.4470  -27.5910   20.2950 C   0  0  0  0  0  0  0  0  0  0  0  0
  -23.5360  -30.5230   21.7480 C   0  0  0  0  0  3  0  0  0  0  0  0
  -25.0460  -29.0790   20.2820 C   0  0  0  0  0  0  0  0  0  0  0  0
  -26.0610  -30.9240   21.6310 C   0  0  0  0  0  2  0  0  0  0  0  0
  -26.1830  -29.5870   20.9280 C   0  0  0  0  0  0  0  0  0  0  0  0
  -27.3890  -28.8510   20.9310 C   0  0  0  0  0  3  0  0  0  0  0  0
  -26.3090  -27.1070   19.6210 C   0  0  0  0  0  3  0  0  0  0  0  0
  -25.1090  -27.8420   19.6200 C   0  0  0  0  0  3  0  0  0  0  0  0
  -23.7870  -29.9130   20.3410 C   0  0  0  0  0  2  0  0  0  0  0  0
  -24.7780  -31.1120   22.3470 N   0  0  0  0  0  0  0  0  0  0  0  0
  -23.5870  -32.0880   24.0120 O   0  0  0  0  0  0  0  0  0  0  0  0
  -22.8790  -29.4470   22.6410 C   0  0  0  0  0  0  0  0  0  0  0  0
  -21.5650  -29.2300   22.4520 N   0  0  0  0  0  0  0  0  0  0  0  0
  -23.5490  -28.8150   23.4620 O   0  0  0  0  0  0  0  0  0  0  0  0
  -21.0820  -29.7990   21.7700 H   0  0  0  0  0  0  0  0  0  0  0  0
  -18.2250  -27.8890   22.7210 C   0  0  0  0  0  0  0  0  0  0  0  0
  -20.7470  -28.2400   23.1550 C   0  0  0  0  0  3  0  0  0  0  0  0
  -20.9440  -26.8260   22.5590 C   0  0  0  0  0  2  0  0  0  0  0  0
  -19.9170  -26.4820   21.4760 C   0  0  0  0  0  2  0  0  0  0  0  0
  -18.4930  -26.5620   22.0330 C   0  0  0  0  0  2  0  0  0  0  0  0
  -19.2830  -28.6830   23.2360 C   0  0  0  0  0  0  0  0  0  0  0  0
  -18.9780  -29.9260   23.8330 C   0  0  0  0  0  3  0  0  0  0  0  0
  -17.6450  -30.3690   23.9300 C   0  0  0  0  0  3  0  0  0  0  0  0
  -16.5990  -29.5700   23.4370 C   0  0  0  0  0  3  0  0  0  0  0  0
  -16.8910  -28.3360   22.8310 C   0  0  0  0  0  3  0  0  0  0  0  0
  -25.9480  -32.4760   24.1600 C   0  0  0  0  0  3  0  0  0  0  0  0
  -25.6830  -33.9040   24.3730 N   0  0  0  0  0  0  0  0  0  0  0  0
  -26.1290  -34.8860   23.5820 C   0  0  0  0  0  0  0  0  0  0  0  0
  -26.8780  -34.6870   22.6210 O   0  0  0  0  0  0  0  0  0  0  0  0
  -25.0410  -34.1350   25.1170 H   0  0  0  0  0  0  0  0  0  0  0  0
  -24.5290  -36.7180   22.9570 C   0  0  0  0  0  1  0  0  0  0  0  0
  -25.6700  -36.3190   23.9060 C   0  0  0  0  0  3  0  0  0  0  0  0
  -27.7600  -37.1650   24.8780 C   0  0  0  0  0  1  0  0  0  0  0  0
  -26.7570  -37.3170   23.8270 N   0  0  0  0  0  0  0  0  0  0  0  0
  -26.3820  -38.2590   23.8820 H   0  0  0  0  0  0  0  0  0  0  0  0
  -26.3290  -31.7750   25.5210 C   0  0  1  0  0  0  0  0  0  0  0  0
  -25.1360  -31.6360   26.4960 C   0  0  0  0  0  1  0  0  0  0  0  0
  -26.9030  -30.3620   25.2560 C   0  0  0  0  0  1  0  0  0  0  0  0
  -27.4360  -32.5830   26.2380 C   0  0  0  0  0  1  0  0  0  0  0  0
  -30.3420  -15.9180   20.4470 O   0  0  0  0  0  0  0  0  0  0  0  0
  -31.1770  -14.8300   20.7810 C   0  0  0  0  0  0  0  0  0  0  0  0
  -30.9400  -12.5260   19.9280 C   0  0  0  0  0  2  0  0  0  0  0  0
  -30.0830  -12.5870   18.6480 C   0  0  0  0  0  2  0  0  0  0  0  0
  -28.5610  -12.6350   18.9400 C   0  0  0  0  0  2  0  0  0  0  0  0
  -28.1380  -13.4890   20.1720 C   0  0  0  0  0  3  0  0  0  0  0  0
  -29.1390  -13.3710   21.3340 C   0  0  0  0  0  2  0  0  0  0  0  0
  -30.4950  -13.5980   20.8230 N   0  0  0  0  0  0  0  0  0  0  0  0
  -32.4010  -14.9290   20.7100 O   0  0  0  0  0  0  0  0  0  0  0  0
  -25.7040  -14.0420   20.7900 C   0  0  0  0  0  0  0  0  0  0  0  0
  -24.6300  -13.2480   21.0900 C   0  0  0  0  0  0  0  0  0  0  0  0
  -25.1150  -11.9050   21.0730 C   0  0  0  0  0  0  0  0  0  0  0  0
  -26.7740  -13.1810   20.5990 N   0  0  0  0  0  0  0  0  0  0  0  0
  -26.4220  -11.8910   20.8430 N   0  0  0  0  0  0  0  0  0  0  0  0
  -24.4000  -10.6280   21.2000 C   0  0  0  0  0  0  0  0  0  0  0  0
  -24.7430   -9.6850   22.1940 C   0  0  0  0  0  3  0  0  0  0  0  0
  -24.0240   -8.4760   22.3120 C   0  0  0  0  0  3  0  0  0  0  0  0
  -22.9530   -8.1980   21.4310 C   0  0  0  0  0  0  0  0  0  0  0  0
  -22.6340   -9.1270   20.4260 C   0  0  0  0  0  3  0  0  0  0  0  0
  -23.3530  -10.3280   20.3070 C   0  0  0  0  0  3  0  0  0  0  0  0
  -22.2200   -7.0360   21.4500 O   0  0  0  0  0  0  0  0  0  0  0  0
  -21.9260   -6.3880   22.6240 C   0  0  0  0  0  0  0  0  0  0  0  0
  -21.1990   -7.0160   23.6580 C   0  0  0  0  0  3  0  0  0  0  0  0
  -20.8650   -6.2950   24.8210 C   0  0  0  0  0  3  0  0  0  0  0  0
  -21.2420   -4.9440   24.9470 C   0  0  0  0  0  0  0  0  0  0  0  0
  -21.9560   -4.3150   23.9130 C   0  0  0  0  0  3  0  0  0  0  0  0
  -22.2950   -5.0340   22.7540 C   0  0  0  0  0  0  0  0  0  0  0  0
  -22.9690   -4.4180   21.7530 F   0  0  0  0  0  0  0  0  0  0  0  0
  -20.9110   -4.2480   26.0590 F   0  0  0  0  0  0  0  0  0  0  0  0
  -23.2120  -13.7010   21.2850 C   0  0  0  0  0  0  0  0  0  0  0  0
  -22.4490  -12.9860   22.1080 N   0  0  0  0  0  0  0  0  0  0  0  0
  -22.7870  -14.7200   20.7470 O   0  0  0  0  0  0  0  0  0  0  0  0
  -22.8090  -12.1690   22.5790 H   0  0  0  0  0  0  0  0  0  0  0  0
  -21.4900  -13.2620   22.2680 H   0  0  0  0  0  0  0  0  0  0  0  0
  -25.8560  -15.4160   20.6370 N   0  0  0  0  0  0  0  0  0  0  0  0
  -25.0850  -16.0660   20.7440 H   0  0  0  0  0  0  0  0  0  0  0  0
  -26.7180  -15.8730   20.3700 H   0  0  0  0  0  0  0  0  0  0  0  0
  1  3  1  0
  2  7  1  0
  3 12  1  0
  3  2  2  0
  4  1  2  0
  4  5  1  0
  5  6  2  0
  6  2  1  0
  6 66  1  0
  7 15  1  0
  7 16  2  0
  8  9  1  0
  8 10  1  0
 12  9  1  6
 10 12  1  0
 11 15  1  0
 12 11  1  0
 13  4  1  0
 14  5  1  0
 15 17  1  0
 17 19  1  0
 19 20  1  0
 19 18  1  0
 20 21  1  0
 20 22  1  0
 23 24  1  0
 23 20  1  0
 25 24  1  0
 26 37  2  0
 27 25  1  0
 27 32  1  0
 28 36  1  0
 28 38  1  0
 29 35  1  0
 29 31  1  0
 30 36  1  0
 31 32  2  0
 31 30  1  0
 33 27  2  0
 34 33  1  0
 34 29  2  0
 35 28  1  0
 36 26  1  0
 38 40  2  0
 39 38  1  0
 41 39  1  0
 42 51  2  0
 42 47  1  0
 43 39  1  0
 43 47  1  0
 44 43  1  0
 45 46  1  0
 45 44  1  0
 46 42  1  0
 47 48  2  0
 48 49  1  0
 50 49  2  0
 51 50  1  0
 52 26  1  0
 52 53  1  0
 52 62  1  0
 53 56  1  0
 54 58  1  0
 54 53  1  0
 55 54  2  0
 58 57  1  0
 60 61  1  0
 60 58  1  0
 60 59  1  0
 62 65  1  1
 62 63  1  0
 64 62  1  0
 66 67  1  0
 67 73  1  0
 68 73  1  0
 69 70  1  0
 69 68  1  0
 71 70  1  0
 71 78  1  0
 71 72  1  0
 73 72  1  0
 74 67  2  0
 75 76  2  0
 76 95  1  0
 77 76  1  0
 77 80  1  0
 78 75  1  0
 78 79  1  0
 79 77  2  0
 80 81  1  0
 81 82  2  0
 83 86  1  0
 83 82  1  0
 84 83  2  0
 85 84  1  0
 85 80  2  0
 86 87  1  0
 87 92  2  0
 87 88  1  0
 88 89  2  0
 89 90  1  0
 90 94  1  0
 91 90  2  0
 92 91  1  0
 93 92  1  0
 95 96  1  0
 96 99  1  0
 96 98  1  0
 97 95  2  0
100101  1  0
100 75  1  0
102100  1  0
M  ISO  4  24 101  25 101  66 100  67 100
M  END
>  <TORSDO>  (39) 
F 22

>  <SCORE>  (39) 
-10.075

>  <name>  (39) 
38

>  <ligand_id>  (39) 
38

>  <original_smiles>  (39) 
[H]c1c([H])c([H])c2c(c1[H])C([H])([H])C([H])([H])C([H])([H])C2([H])N([H])C(=O)C1([H])N(C(=O)C([H])(N([H])C(=O)C([H])(N([H])C([H])([H])[H])C([H])([H])[H])C(C([H])([H])[H])(C([H])([H])[H])C([H])([H])[H])C([H])([H])c2c([H])c(OC([H])([H])C([H])([H])[N+]([H])([H])C([H])(C([H])([H])[H])C([H])([H])N3C(=O)c4c(OC(=O)N5C([H])([H])C([H])([H])C([H])([H])C([H])(n6nc(-c7c([H])c([H])c(Oc8c([H])c([H])c(F)c([H])c8F)c([H])c7[H])c(C(=O)N([H])[H])c6N([H])[H])C5([H])[H])c(C([H])([H])[H])c(C([H])([H])[H])c([H])c4C4(C3([H])[H])C([H])([H])C([H])([H])C4([H])[H])c([H])c([H])c2C1([H])[H]

>  <smiles>  (39) 
[H]c1c([H])c([H])c2c(c1[H])C([H])([H])C([H])([H])C([H])([H])C2([H])N([H])C(=O)C1([H])N(C(=O)C([H])(N([H])C(=O)C([H])(N([H])C([H])([H])[H])C([H])([H])[H])C(C([H])([H])[H])(C([H])([H])[H])C([H])([H])[H])C([H])([H])c2c([H])c(OC([H])([H])C([H])([H])[N+]([H])([H])C([H])(C([H])([H])[H])C([H])([H])N3C(=O)c4c(OC(=O)N5C([H])([H])C([H])([H])C([H])([H])C([H])(n6nc(-c7c([H])c([H])c(Oc8c([H])c([H])c(F)c([H])c8F)c([H])c7[H])c(C(=O)N([H])[H])c6N([H])[H])C5([H])[H])c(C([H])([H])[H])c(C([H])([H])[H])c([H])c4C4(C3([H])[H])C([H])([H])C([H])([H])C4([H])[H])c([H])c([H])c2C1([H])[H]

$$$$
39:0:0
     RDKit          3D

 94103  0  0  1  0  0  0  0  0999 V2000
  -30.1120  -22.0940   20.8720 C   0  0  0  0  0  3  0  0  0  0  0  0
  -29.8500  -23.4730   20.6140 C   0  0  0  0  0  0  0  0  0  0  0  0
  -27.9670  -22.8270   19.2480 C   0  0  0  0  0  0  0  0  0  0  0  0
  -28.7830  -23.8920   19.7710 C   0  0  0  0  0  0  0  0  0  0  0  0
  -28.2000  -21.4360   19.5850 C   0  0  0  0  0  0  0  0  0  0  0  0
  -29.3340  -21.0200   20.3540 C   0  0  0  0  0  0  0  0  0  0  0  0
  -30.7890  -24.5040   21.2200 C   0  0  0  0  0  1  0  0  0  0  0  0
  -26.8290  -23.1710   18.2830 C   0  0  0  0  0  1  0  0  0  0  0  0
  -27.1830  -20.3810   19.1550 C   0  0  0  0  0  1  0  0  0  0  0  0
  -30.8880  -17.8070   21.6810 C   0  0  0  0  0  2  0  0  0  0  0  0
  -30.8240  -19.3400   21.5320 C   0  0  0  0  0  2  0  0  0  0  0  0
  -29.3500  -18.3730   19.9420 C   0  0  0  0  0  2  0  0  0  0  0  0
  -30.4140  -17.2640   20.3280 C   0  0  0  0  0  3  0  0  0  0  0  0
  -29.6950  -19.6400   20.6550 N   0  0  0  0  0  0  0  0  0  0  0  0
  -30.7140  -14.7050   20.0410 C   0  0  0  0  0  0  0  0  0  0  0  0
  -30.4060  -12.4900   18.9560 C   0  0  0  0  0  2  0  0  0  0  0  0
  -29.3970  -12.6420   17.7980 C   0  0  0  0  0  2  0  0  0  0  0  0
  -27.9530  -12.4750   18.3100 C   0  0  0  0  0  2  0  0  0  0  0  0
  -27.6680  -13.3200   19.5820 C   0  0  0  0  0  3  0  0  0  0  0  0
  -28.7910  -13.1630   20.6320 C   0  0  0  0  0  2  0  0  0  0  0  0
  -30.0600  -13.5010   19.9750 N   0  0  0  0  0  0  0  0  0  0  0  0
  -31.8650  -14.8210   19.6130 O   0  0  0  0  0  0  0  0  0  0  0  0
  -29.9850  -15.8140   20.3940 N   0  0  0  0  0  0  0  0  0  0  0  0
  -29.0380  -15.6400   20.6930 H   0  0  0  0  0  0  0  0  0  0  0  0
  -25.3290  -13.9070   20.4630 C   0  0  0  0  0  0  0  0  0  0  0  0
  -24.2830  -13.1280   20.8760 C   0  0  0  0  0  0  0  0  0  0  0  0
  -24.7350  -11.7760   20.7840 C   0  0  0  0  0  0  0  0  0  0  0  0
  -26.3520  -13.0280   20.1420 N   0  0  0  0  0  0  0  0  0  0  0  0
  -26.0050  -11.7410   20.3970 N   0  0  0  0  0  0  0  0  0  0  0  0
  -24.0140  -10.5120   20.9840 C   0  0  0  0  0  0  0  0  0  0  0  0
  -24.4680   -9.5400   21.9020 C   0  0  0  0  0  3  0  0  0  0  0  0
  -23.7480   -8.3420   22.0930 C   0  0  0  0  0  3  0  0  0  0  0  0
  -22.5570   -8.1070   21.3640 C   0  0  0  0  0  0  0  0  0  0  0  0
  -22.1210   -9.0680   20.4350 C   0  0  0  0  0  3  0  0  0  0  0  0
  -22.8440  -10.2580   20.2430 C   0  0  0  0  0  3  0  0  0  0  0  0
  -21.8060   -6.9610   21.4630 O   0  0  0  0  0  0  0  0  0  0  0  0
  -21.7570   -6.2310   22.6240 C   0  0  0  0  0  0  0  0  0  0  0  0
  -21.2900   -6.7870   23.8350 C   0  0  0  0  0  3  0  0  0  0  0  0
  -21.1900   -5.9830   24.9870 C   0  0  0  0  0  3  0  0  0  0  0  0
  -21.5450   -4.6220   24.9290 C   0  0  0  0  0  0  0  0  0  0  0  0
  -22.0050   -4.0640   23.7230 C   0  0  0  0  0  3  0  0  0  0  0  0
  -22.1060   -4.8670   22.5730 C   0  0  0  0  0  0  0  0  0  0  0  0
  -22.5290   -4.3200   21.4080 F   0  0  0  0  0  0  0  0  0  0  0  0
  -21.4420   -3.8470   26.0350 F   0  0  0  0  0  0  0  0  0  0  0  0
  -22.9060  -13.6040   21.2420 C   0  0  0  0  0  0  0  0  0  0  0  0
  -22.2240  -12.8870   22.1270 N   0  0  0  0  0  0  0  0  0  0  0  0
  -22.4470  -14.6480   20.7790 O   0  0  0  0  0  0  0  0  0  0  0  0
  -22.6080  -12.0420   22.5240 H   0  0  0  0  0  0  0  0  0  0  0  0
  -21.3040  -13.1880   22.4140 H   0  0  0  0  0  0  0  0  0  0  0  0
  -25.4880  -15.2810   20.3070 N   0  0  0  0  0  0  0  0  0  0  0  0
  -24.7260  -15.9290   20.4700 H   0  0  0  0  0  0  0  0  0  0  0  0
  -26.3050  -15.7240   19.9090 H   0  0  0  0  0  0  0  0  0  0  0  0
  -28.6710  -25.4100   19.2900 C   0  0  0  0  0  2  0  0  0  0  0  0
  -28.4360  -26.5310   20.2220 O   0  0  0  0  0  0  0  0  0  0  0  0
  -24.5970  -31.8690   23.1840 C   0  0  0  0  0  0  0  0  0  0  0  0
  -27.2940  -27.3450   20.1400 C   0  0  0  0  0  0  0  0  0  0  0  0
  -23.4250  -30.4600   21.5290 C   0  0  0  0  0  3  0  0  0  0  0  0
  -24.9060  -28.9270   20.1160 C   0  0  0  0  0  0  0  0  0  0  0  0
  -25.9620  -30.8050   21.3730 C   0  0  0  0  0  2  0  0  0  0  0  0
  -26.0630  -29.4290   20.7250 C   0  0  0  0  0  0  0  0  0  0  0  0
  -27.2540  -28.6460   20.7330 C   0  0  0  0  0  3  0  0  0  0  0  0
  -26.1050  -26.8860   19.5280 C   0  0  0  0  0  3  0  0  0  0  0  0
  -24.9290  -27.6600   19.5120 C   0  0  0  0  0  3  0  0  0  0  0  0
  -23.6600  -29.7880   20.1510 C   0  0  0  0  0  2  0  0  0  0  0  0
  -24.6800  -31.0620   22.0850 N   0  0  0  0  0  0  0  0  0  0  0  0
  -23.5050  -32.1350   23.7070 O   0  0  0  0  0  0  0  0  0  0  0  0
  -22.7630  -29.4360   22.4810 C   0  0  0  0  0  0  0  0  0  0  0  0
  -21.4350  -29.2680   22.3600 N   0  0  0  0  0  0  0  0  0  0  0  0
  -23.4420  -28.7950   23.2880 O   0  0  0  0  0  0  0  0  0  0  0  0
  -20.9460  -29.8350   21.6820 H   0  0  0  0  0  0  0  0  0  0  0  0
  -18.0470  -28.1230   22.9000 C   0  0  0  0  0  0  0  0  0  0  0  0
  -20.6150  -28.3280   23.1250 C   0  0  0  0  0  3  0  0  0  0  0  0
  -20.6770  -26.9100   22.5130 C   0  0  0  0  0  2  0  0  0  0  0  0
  -19.5500  -26.6320   21.5140 C   0  0  0  0  0  2  0  0  0  0  0  0
  -18.1840  -26.7880   22.1880 C   0  0  0  0  0  2  0  0  0  0  0  0
  -19.1880  -28.8540   23.3250 C   0  0  0  0  0  0  0  0  0  0  0  0
  -19.0050  -30.1060   23.9520 C   0  0  0  0  0  3  0  0  0  0  0  0
  -17.7130  -30.6270   24.1560 C   0  0  0  0  0  3  0  0  0  0  0  0
  -16.5870  -29.8930   23.7460 C   0  0  0  0  0  3  0  0  0  0  0  0
  -16.7540  -28.6430   23.1240 C   0  0  0  0  0  3  0  0  0  0  0  0
  -25.8660  -32.5130   23.8210 C   0  0  0  0  0  3  0  0  0  0  0  0
  -25.5430  -33.9120   24.1360 N   0  0  0  0  0  0  0  0  0  0  0  0
  -25.8910  -34.9630   23.3810 C   0  0  0  0  0  0  0  0  0  0  0  0
  -26.5860  -34.8570   22.3670 O   0  0  0  0  0  0  0  0  0  0  0  0
  -24.9290  -34.0680   24.9220 H   0  0  0  0  0  0  0  0  0  0  0  0
  -24.1790  -36.7580   22.9640 C   0  0  0  0  0  1  0  0  0  0  0  0
  -25.3880  -36.3520   23.8200 C   0  0  0  0  0  3  0  0  0  0  0  0
  -27.4870  -37.2390   24.7340 C   0  0  0  0  0  1  0  0  0  0  0  0
  -26.4250  -37.4040   23.7450 N   0  0  0  0  0  0  0  0  0  0  0  0
  -26.0140  -38.3250   23.8720 H   0  0  0  0  0  0  0  0  0  0  0  0
  -26.3660  -31.7560   25.1120 C   0  0  1  0  0  0  0  0  0  0  0  0
  -25.2570  -31.5180   26.1630 C   0  0  0  0  0  1  0  0  0  0  0  0
  -26.9670  -30.3790   24.7420 C   0  0  0  0  0  1  0  0  0  0  0  0
  -27.5000  -32.5630   25.7890 C   0  0  0  0  0  1  0  0  0  0  0  0
  2  1  1  0
  2  7  1  0
  3  5  2  0
  3  4  1  0
  4  2  2  0
  5  6  1  0
  6 14  1  0
  6  1  2  0
  8  3  1  0
  9  5  1  0
 11 10  1  0
 12 13  1  0
 12 14  1  0
 13 23  1  0
 13 10  1  0
 14 11  1  0
 15 23  1  0
 16 21  1  0
 17 18  1  0
 17 16  1  0
 19 18  1  0
 19 28  1  0
 19 20  1  0
 21 15  1  0
 21 20  1  0
 22 15  2  0
 23 24  1  0
 25 26  2  0
 26 45  1  0
 27 26  1  0
 27 30  1  0
 28 29  1  0
 28 25  1  0
 29 27  2  0
 30 31  1  0
 31 32  2  0
 33 36  1  0
 33 32  1  0
 34 33  2  0
 35 34  1  0
 35 30  2  0
 36 37  1  0
 37 38  1  0
 38 39  2  0
 40 39  1  0
 40 44  1  0
 41 40  2  0
 42 37  2  0
 42 41  1  0
 43 42  1  0
 45 46  1  0
 46 49  1  0
 46 48  1  0
 47 45  2  0
 50 25  1  0
 50 51  1  0
 52 50  1  0
 53  4  1  0
 53 54  1  0
 55 66  2  0
 56 54  1  0
 56 61  1  0
 57 65  1  0
 57 67  1  0
 58 64  1  0
 58 60  1  0
 59 65  1  0
 60 61  2  0
 60 59  1  0
 62 56  2  0
 63 62  1  0
 63 58  2  0
 64 57  1  0
 65 55  1  0
 67 69  2  0
 68 67  1  0
 70 68  1  0
 71 80  2  0
 71 76  1  0
 72 68  1  0
 72 76  1  0
 73 72  1  0
 74 75  1  0
 74 73  1  0
 75 71  1  0
 76 77  2  0
 77 78  1  0
 79 78  2  0
 80 79  1  0
 81 55  1  0
 81 82  1  0
 81 91  1  0
 82 85  1  0
 83 87  1  0
 83 82  1  0
 84 83  2  0
 87 86  1  0
 89 87  1  0
 89 90  1  0
 89 88  1  0
 91 94  1  1
 91 92  1  0
 93 91  1  0
M  ISO  4  15 100  23 100  53 101  54 101
M  END
>  <TORSDO>  (40) 
F 18

>  <SCORE>  (40) 
-14.855

>  <name>  (40) 
39

>  <ligand_id>  (40) 
39

>  <original_smiles>  (40) 
[H]c1c([H])c([H])c2c(c1[H])C([H])([H])C([H])([H])C([H])([H])C2([H])N([H])C(=O)C1([H])N(C(=O)C([H])(N([H])C(=O)C([H])(N([H])C([H])([H])[H])C([H])([H])[H])C(C([H])([H])[H])(C([H])([H])[H])C([H])([H])[H])C([H])([H])c2c([H])c(OC([H])([H])c3c(C([H])([H])[H])c([H])c(N4C([H])([H])C([H])([H])C([H])(N([H])C(=O)N5C([H])([H])C([H])([H])C([H])([H])C([H])(n6nc(-c7c([H])c([H])c(Oc8c([H])c([H])c(F)c([H])c8F)c([H])c7[H])c(C(=O)N([H])[H])c6N([H])[H])C5([H])[H])C4([H])[H])c(C([H])([H])[H])c3C([H])([H])[H])c([H])c([H])c2C1([H])[H]

>  <smiles>  (40) 
[H]c1c([H])c([H])c2c(c1[H])C([H])([H])C([H])([H])C([H])([H])C2([H])N([H])C(=O)C1([H])N(C(=O)C([H])(N([H])C(=O)C([H])(N([H])C([H])([H])[H])C([H])([H])[H])C(C([H])([H])[H])(C([H])([H])[H])C([H])([H])[H])C([H])([H])c2c([H])c(OC([H])([H])c3c(C([H])([H])[H])c([H])c(N4C([H])([H])C([H])([H])C([H])(N([H])C(=O)N5C([H])([H])C([H])([H])C([H])([H])C([H])(n6nc(-c7c([H])c([H])c(Oc8c([H])c([H])c(F)c([H])c8F)c([H])c7[H])c(C(=O)N([H])[H])c6N([H])[H])C5([H])[H])C4([H])[H])c(C([H])([H])[H])c3C([H])([H])[H])c([H])c([H])c2C1([H])[H]

$$$$
40:0:0
     RDKit          3D

 97107  0  0  1  0  0  0  0  0999 V2000
  -30.9770  -18.2150   18.4210 C   0  0  0  0  0  3  0  0  0  0  0  0
  -30.6260  -19.6240   18.8220 C   0  0  0  0  0  0  0  0  0  0  0  0
  -32.0240  -17.3180   19.0260 C   0  0  0  0  0  0  0  0  0  0  0  0
  -31.3530  -20.0580   19.9730 C   0  0  0  0  0  0  0  0  0  0  0  0
  -32.4530  -19.2930   20.4810 C   0  0  0  0  0  0  0  0  0  0  0  0
  -32.8050  -17.9990   19.9980 C   0  0  0  0  0  0  0  0  0  0  0  0
  -33.3130  -19.8750   21.6070 C   0  0  0  0  0  1  0  0  0  0  0  0
  -32.4650  -15.8070   18.6010 C   0  0  0  0  0  0  0  0  0  0  0  0
  -32.0060  -13.3410   18.1190 C   0  0  0  0  0  2  0  0  0  0  0  0
  -30.8550  -13.1970   17.0940 C   0  0  0  0  0  2  0  0  0  0  0  0
  -29.4890  -13.1930   17.8050 C   0  0  0  0  0  2  0  0  0  0  0  0
  -29.3860  -14.3170   18.8680 C   0  0  0  0  0  3  0  0  0  0  0  0
  -30.6340  -14.3960   19.7690 C   0  0  0  0  0  2  0  0  0  0  0  0
  -31.7980  -14.6050   18.8980 N   0  0  0  0  0  0  0  0  0  0  0  0
  -33.5080  -15.6790   17.9470 O   0  0  0  0  0  0  0  0  0  0  0  0
  -27.4960  -15.2470   20.3160 C   0  0  0  0  0  0  0  0  0  0  0  0
  -26.3550  -14.6840   20.8160 C   0  0  0  0  0  0  0  0  0  0  0  0
  -26.3830  -13.3120   20.4190 C   0  0  0  0  0  0  0  0  0  0  0  0
  -28.1570  -14.2320   19.6470 N   0  0  0  0  0  0  0  0  0  0  0  0
  -27.5100  -13.0430   19.7690 N   0  0  0  0  0  0  0  0  0  0  0  0
  -25.3740  -12.2550   20.5730 C   0  0  0  0  0  0  0  0  0  0  0  0
  -25.7100  -10.9790   21.0780 C   0  0  0  0  0  3  0  0  0  0  0  0
  -24.7160   -9.9870   21.2350 C   0  0  0  0  0  3  0  0  0  0  0  0
  -23.3720  -10.2670   20.8900 C   0  0  0  0  0  0  0  0  0  0  0  0
  -23.0470  -11.5320   20.3670 C   0  0  0  0  0  3  0  0  0  0  0  0
  -24.0380  -12.5150   20.2070 C   0  0  0  0  0  3  0  0  0  0  0  0
  -22.3470   -9.3580   20.9850 O   0  0  0  0  0  0  0  0  0  0  0  0
  -22.4060   -8.2930   21.8470 C   0  0  0  0  0  0  0  0  0  0  0  0
  -22.5920   -8.4670   23.2350 C   0  0  0  0  0  3  0  0  0  0  0  0
  -22.5760   -7.3490   24.0940 C   0  0  0  0  0  3  0  0  0  0  0  0
  -22.3660   -6.0610   23.5690 C   0  0  0  0  0  0  0  0  0  0  0  0
  -22.1760   -5.8860   22.1870 C   0  0  0  0  0  3  0  0  0  0  0  0
  -22.1920   -6.9990   21.3290 C   0  0  0  0  0  0  0  0  0  0  0  0
  -21.9860   -6.8280   20.0010 F   0  0  0  0  0  0  0  0  0  0  0  0
  -22.3440   -4.9870   24.3930 F   0  0  0  0  0  0  0  0  0  0  0  0
  -25.2510  -15.4030   21.5370 C   0  0  0  0  0  0  0  0  0  0  0  0
  -24.5520  -14.7120   22.4300 N   0  0  0  0  0  0  0  0  0  0  0  0
  -25.0360  -16.5990   21.3450 O   0  0  0  0  0  0  0  0  0  0  0  0
  -24.7440  -13.7360   22.6030 H   0  0  0  0  0  0  0  0  0  0  0  0
  -23.8140  -15.1660   22.9500 H   0  0  0  0  0  0  0  0  0  0  0  0
  -28.0180  -16.5370   20.3510 N   0  0  0  0  0  0  0  0  0  0  0  0
  -27.5310  -17.3070   20.7980 H   0  0  0  0  0  0  0  0  0  0  0  0
  -28.8960  -16.8140   19.9290 H   0  0  0  0  0  0  0  0  0  0  0  0
  -29.4220  -20.5690   18.2540 C   0  0  0  0  0  0  0  0  0  0  0  0
  -29.4180  -22.0020   18.1700 N   0  0  0  0  0  0  0  0  0  0  0  0
  -28.3900  -19.9810   17.9270 O   0  0  0  0  0  0  0  0  0  0  0  0
  -30.3620  -22.3510   18.2690 H   0  0  0  0  0  0  0  0  0  0  0  0
  -28.3560  -23.1890   18.4210 C   0  0  0  0  0  2  0  0  0  0  0  0
  -27.9800  -24.6030   17.5370 C   0  0  0  0  0  2  0  0  0  0  0  0
  -27.8810  -26.1370   17.9140 O   0  0  0  0  0  0  0  0  0  0  0  0
  -24.5290  -30.8410   22.4950 C   0  0  0  0  0  0  0  0  0  0  0  0
  -26.7480  -27.0040   18.1710 C   0  0  0  0  0  0  0  0  0  0  0  0
  -23.1190  -29.6600   20.8510 C   0  0  0  0  0  3  0  0  0  0  0  0
  -24.3540  -28.5130   18.8980 C   0  0  0  0  0  0  0  0  0  0  0  0
  -25.5730  -30.1860   20.2890 C   0  0  0  0  0  2  0  0  0  0  0  0
  -25.5980  -28.9480   19.3690 C   0  0  0  0  0  0  0  0  0  0  0  0
  -26.7850  -28.2080   18.9940 C   0  0  0  0  0  3  0  0  0  0  0  0
  -25.4650  -26.6780   17.6810 C   0  0  0  0  0  3  0  0  0  0  0  0
  -24.2980  -27.3980   18.0400 C   0  0  0  0  0  3  0  0  0  0  0  0
  -23.1080  -29.2660   19.3460 C   0  0  0  0  0  2  0  0  0  0  0  0
  -24.4360  -30.2450   21.2650 N   0  0  0  0  0  0  0  0  0  0  0  0
  -23.5520  -30.9190   23.2550 O   0  0  0  0  0  0  0  0  0  0  0  0
  -22.7000  -28.4370   21.7040 C   0  0  0  0  0  0  0  0  0  0  0  0
  -21.4150  -28.0460   21.6280 N   0  0  0  0  0  0  0  0  0  0  0  0
  -23.5300  -27.8470   22.3990 O   0  0  0  0  0  0  0  0  0  0  0  0
  -20.7880  -28.5860   21.0480 H   0  0  0  0  0  0  0  0  0  0  0  0
  -18.4120  -26.0440   21.9480 C   0  0  0  0  0  0  0  0  0  0  0  0
  -20.8310  -26.8850   22.3070 C   0  0  0  0  0  3  0  0  0  0  0  0
  -21.2780  -25.5660   21.6340 C   0  0  0  0  0  2  0  0  0  0  0  0
  -20.2950  -25.0700   20.5660 C   0  0  0  0  0  2  0  0  0  0  0  0
  -18.9130  -24.8320   21.1790 C   0  0  0  0  0  2  0  0  0  0  0  0
  -19.3110  -27.0150   22.4630 C   0  0  0  0  0  0  0  0  0  0  0  0
  -18.7900  -28.1380   23.1420 C   0  0  0  0  0  3  0  0  0  0  0  0
  -17.4010  -28.2990   23.3090 C   0  0  0  0  0  3  0  0  0  0  0  0
  -16.5170  -27.3270   22.8090 C   0  0  0  0  0  3  0  0  0  0  0  0
  -17.0220  -26.2010   22.1350 C   0  0  0  0  0  3  0  0  0  0  0  0
  -25.8650  -31.4710   22.9990 C   0  0  0  0  0  3  0  0  0  0  0  0
  -25.5390  -32.7440   23.6620 N   0  0  0  0  0  0  0  0  0  0  0  0
  -25.7560  -33.9580   23.1380 C   0  0  0  0  0  0  0  0  0  0  0  0
  -26.3170  -34.1250   22.0520 O   0  0  0  0  0  0  0  0  0  0  0  0
  -25.0260  -32.6810   24.5280 H   0  0  0  0  0  0  0  0  0  0  0  0
  -23.9590  -35.7090   23.3530 C   0  0  0  0  0  1  0  0  0  0  0  0
  -25.2760  -35.1810   23.9450 C   0  0  0  0  0  3  0  0  0  0  0  0
  -27.4500  -35.9480   24.7930 C   0  0  0  0  0  1  0  0  0  0  0  0
  -26.2670  -36.2780   24.0000 N   0  0  0  0  0  0  0  0  0  0  0  0
  -25.8520  -37.1210   24.3860 H   0  0  0  0  0  0  0  0  0  0  0  0
  -26.6630  -30.5300   23.9850 C   0  0  1  0  0  0  0  0  0  0  0  0
  -25.8150  -30.0030   25.1660 C   0  0  0  0  0  1  0  0  0  0  0  0
  -27.2340  -29.3040   23.2350 C   0  0  0  0  0  1  0  0  0  0  0  0
  -27.8760  -31.2920   24.5700 C   0  0  0  0  0  1  0  0  0  0  0  0
  -30.1140  -21.2880   21.9760 C   0  0  0  0  0  2  0  0  0  0  0  0
  -29.5190  -21.8390   20.7180 C   0  0  0  0  0  2  0  0  0  0  0  0
  -30.9520  -21.3280   20.7070 C   0  0  0  0  0  3  0  0  0  0  0  0
  -33.9400  -17.4260   20.5340 O   0  0  0  0  0  0  0  0  0  0  0  0
  -36.2230  -17.6810   19.7520 C   0  0  0  0  0  2  0  0  0  0  0  0
  -35.3620  -17.9320   18.5330 C   0  0  0  0  0  2  0  0  0  0  0  0
  -34.9090  -16.9550   19.5960 C   0  0  0  0  0  3  0  0  0  0  0  0
  1  2  2  0
  1  3  1  0
  2  4  1  0
  3  6  2  0
  4  5  2  0
  4 93  1  0
  5  7  1  0
  6  5  1  0
  6 94  1  0
  8 14  1  0
  8  3  1  0
  9 14  1  0
 10 11  1  0
 10  9  1  0
 12 11  1  0
 12 19  1  0
 12 13  1  0
 14 13  1  0
 15  8  2  0
 16 41  1  0
 16 17  2  0
 17 36  1  0
 18 21  1  0
 18 17  1  0
 19 20  1  0
 19 16  1  0
 20 18  2  0
 21 22  1  0
 22 23  2  0
 24 27  1  0
 24 23  1  0
 25 24  2  0
 26 25  1  0
 26 21  2  0
 27 28  1  0
 28 29  1  0
 29 30  2  0
 31 30  1  0
 31 35  1  0
 32 31  2  0
 33 28  2  0
 33 32  1  0
 34 33  1  0
 36 37  1  0
 37 39  1  0
 37 40  1  0
 38 36  2  0
 41 42  1  0
 43 41  1  0
 44  2  1  0
 45 44  1  0
 45 47  1  0
 45 48  1  0
 46 44  2  0
 49 50  1  0
 49 48  1  0
 50 52  1  0
 51 62  2  0
 52 57  1  0
 53 61  1  0
 53 63  1  0
 54 60  1  0
 54 56  1  0
 55 61  1  0
 56 55  1  0
 57 56  2  0
 58 59  1  0
 58 52  2  0
 59 54  2  0
 60 53  1  0
 61 51  1  0
 63 65  2  0
 64 63  1  0
 66 64  1  0
 67 76  2  0
 67 72  1  0
 68 64  1  0
 68 72  1  0
 69 68  1  0
 70 71  1  0
 70 69  1  0
 71 67  1  0
 72 73  2  0
 73 74  1  0
 75 74  2  0
 76 75  1  0
 77 51  1  0
 77 78  1  0
 77 87  1  0
 78 81  1  0
 79 78  1  0
 79 83  1  0
 80 79  2  0
 83 82  1  0
 83 85  1  0
 85 86  1  0
 85 84  1  0
 87 90  1  1
 87 88  1  0
 89 87  1  0
 92 91  1  0
 93 92  1  0
 93 91  1  0
 96 97  1  0
 96 95  1  0
 97 95  1  0
 97 94  1  0
M  ISO  4   3 100   8 100  49 101  50 101
M  END
>  <TORSDO>  (41) 
F 22

>  <SCORE>  (41) 
-5.411

>  <name>  (41) 
40

>  <ligand_id>  (41) 
40

>  <original_smiles>  (41) 
[H]c1c([H])c([H])c2c(c1[H])C([H])([H])C([H])([H])C([H])([H])C2([H])N([H])C(=O)C1([H])N(C(=O)C([H])(N([H])C(=O)C([H])(N([H])C([H])([H])[H])C([H])([H])[H])C(C([H])([H])[H])(C([H])([H])[H])C([H])([H])[H])C([H])([H])c2c([H])c(OC([H])([H])C([H])([H])N([H])C(=O)c3c([H])c(C(=O)N4C([H])([H])C([H])([H])C([H])([H])C([H])(n5nc(-c6c([H])c([H])c(Oc7c([H])c([H])c(F)c([H])c7F)c([H])c6[H])c(C(=O)N([H])[H])c5N([H])[H])C4([H])[H])c(OC4([H])C([H])([H])C4([H])[H])c(C([H])([H])[H])c3C3([H])C([H])([H])C3([H])[H])c([H])c([H])c2C1([H])[H]

>  <smiles>  (41) 
[H]c1c([H])c([H])c2c(c1[H])C([H])([H])C([H])([H])C([H])([H])C2([H])N([H])C(=O)C1([H])N(C(=O)C([H])(N([H])C(=O)C([H])(N([H])C([H])([H])[H])C([H])([H])[H])C(C([H])([H])[H])(C([H])([H])[H])C([H])([H])[H])C([H])([H])c2c([H])c(OC([H])([H])C([H])([H])N([H])C(=O)c3c([H])c(C(=O)N4C([H])([H])C([H])([H])C([H])([H])C([H])(n5nc(-c6c([H])c([H])c(Oc7c([H])c([H])c(F)c([H])c7F)c([H])c6[H])c(C(=O)N([H])[H])c5N([H])[H])C4([H])[H])c(OC4([H])C([H])([H])C4([H])[H])c(C([H])([H])[H])c3C3([H])C([H])([H])C3([H])[H])c([H])c([H])c2C1([H])[H]

$$$$
41:0:0
     RDKit          3D

 96106  0  0  1  0  0  0  0  0999 V2000
  -29.1500  -23.4750   22.1250 C   0  0  0  0  0  3  0  0  0  0  0  0
  -28.8800  -23.3940   19.7210 C   0  0  0  0  0  3  0  0  0  0  0  0
  -29.7060  -22.1810   22.0760 C   0  0  0  0  0  0  0  0  0  0  0  0
  -29.8520  -21.4420   20.8960 C   0  0  0  0  0  0  0  0  0  0  0  0
  -28.7190  -24.1110   20.9370 C   0  0  0  0  0  0  0  0  0  0  0  0
  -29.4650  -22.0860   19.6810 C   0  0  0  0  0  0  0  0  0  0  0  0
  -30.3560  -21.5000   23.2380 C   0  0  0  0  0  2  0  0  0  0  0  0
  -31.2990  -20.5120   22.5410 C   0  0  0  0  0  2  0  0  0  0  0  0
  -30.6730  -20.1310   21.1540 C   0  0  0  0  0  3  0  0  0  0  0  0
  -29.7040  -21.4570   18.3220 C   0  0  0  0  0  1  0  0  0  0  0  0
  -30.6240  -14.6710   20.0600 C   0  0  0  0  0  0  0  0  0  0  0  0
  -30.2670  -12.5130   18.9090 C   0  0  0  0  0  2  0  0  0  0  0  0
  -29.2560  -12.7240   17.7630 C   0  0  0  0  0  2  0  0  0  0  0  0
  -27.8130  -12.5560   18.2790 C   0  0  0  0  0  2  0  0  0  0  0  0
  -27.5430  -13.3630   19.5790 C   0  0  0  0  0  3  0  0  0  0  0  0
  -28.6700  -13.1620   20.6170 C   0  0  0  0  0  2  0  0  0  0  0  0
  -29.9430  -13.4920   19.9630 N   0  0  0  0  0  0  0  0  0  0  0  0
  -31.7490  -14.8050   19.5700 O   0  0  0  0  0  0  0  0  0  0  0  0
  -29.7540  -16.8820   19.4000 C   0  0  0  0  0  2  0  0  0  0  0  0
  -29.9110  -16.2870   21.7750 C   0  0  0  0  0  2  0  0  0  0  0  0
  -29.3220  -18.2990   19.9330 C   0  0  0  0  0  2  0  0  0  0  0  0
  -30.6560  -17.6500   21.9200 C   0  0  0  0  0  3  0  0  0  0  0  0
  -32.1500  -17.4880   21.5290 C   0  0  0  0  0  1  0  0  0  0  0  0
  -29.8970  -15.7840   20.3940 N   0  0  0  0  0  0  0  0  0  0  0  0
  -29.9560  -18.7780   21.2020 N   0  0  1  0  0  4  0  0  0  0  0  0
  -29.1560  -18.9760   21.7880 H   0  0  0  0  0  0  0  0  0  0  0  0
  -25.1940  -13.9200   20.4560 C   0  0  0  0  0  0  0  0  0  0  0  0
  -24.1560  -13.1280   20.8660 C   0  0  0  0  0  0  0  0  0  0  0  0
  -24.6250  -11.7810   20.7690 C   0  0  0  0  0  0  0  0  0  0  0  0
  -26.2280  -13.0560   20.1360 N   0  0  0  0  0  0  0  0  0  0  0  0
  -25.8950  -11.7630   20.3830 N   0  0  0  0  0  0  0  0  0  0  0  0
  -23.9200  -10.5090   20.9670 C   0  0  0  0  0  0  0  0  0  0  0  0
  -24.3800   -9.5450   21.8920 C   0  0  0  0  0  3  0  0  0  0  0  0
  -23.6750   -8.3370   22.0780 C   0  0  0  0  0  3  0  0  0  0  0  0
  -22.4960   -8.0820   21.3380 C   0  0  0  0  0  0  0  0  0  0  0  0
  -22.0540   -9.0340   20.4020 C   0  0  0  0  0  3  0  0  0  0  0  0
  -22.7610  -10.2330   20.2140 C   0  0  0  0  0  3  0  0  0  0  0  0
  -21.7600   -6.9260   21.4340 O   0  0  0  0  0  0  0  0  0  0  0  0
  -21.7010   -6.2040   22.5990 C   0  0  0  0  0  0  0  0  0  0  0  0
  -21.2460   -6.7750   23.8070 C   0  0  0  0  0  3  0  0  0  0  0  0
  -21.1350   -5.9790   24.9640 C   0  0  0  0  0  3  0  0  0  0  0  0
  -21.4720   -4.6120   24.9140 C   0  0  0  0  0  0  0  0  0  0  0  0
  -21.9210   -4.0420   23.7110 C   0  0  0  0  0  3  0  0  0  0  0  0
  -22.0320   -4.8340   22.5560 C   0  0  0  0  0  0  0  0  0  0  0  0
  -22.4460   -4.2740   21.3940 F   0  0  0  0  0  0  0  0  0  0  0  0
  -21.3590   -3.8460   26.0250 F   0  0  0  0  0  0  0  0  0  0  0  0
  -22.7740  -13.5850   21.2360 C   0  0  0  0  0  0  0  0  0  0  0  0
  -22.1030  -12.8550   22.1200 N   0  0  0  0  0  0  0  0  0  0  0  0
  -22.3000  -14.6230   20.7760 O   0  0  0  0  0  0  0  0  0  0  0  0
  -22.4990  -12.0140   22.5110 H   0  0  0  0  0  0  0  0  0  0  0  0
  -21.1790  -13.1420   22.4090 H   0  0  0  0  0  0  0  0  0  0  0  0
  -25.3390  -15.2970   20.3080 N   0  0  0  0  0  0  0  0  0  0  0  0
  -24.5770  -15.9440   20.4800 H   0  0  0  0  0  0  0  0  0  0  0  0
  -26.1700  -15.7480   19.9470 H   0  0  0  0  0  0  0  0  0  0  0  0
  -27.9500  -25.4510   21.0630 C   0  0  0  0  0  2  0  0  0  0  0  0
  -28.2830  -26.6050   20.2340 O   0  0  0  0  0  0  0  0  0  0  0  0
  -24.5870  -31.9540   23.2450 C   0  0  0  0  0  0  0  0  0  0  0  0
  -27.2030  -27.4740   20.1520 C   0  0  0  0  0  0  0  0  0  0  0  0
  -23.3760  -30.5500   21.6120 C   0  0  0  0  0  3  0  0  0  0  0  0
  -24.8240  -29.0240   20.1640 C   0  0  0  0  0  0  0  0  0  0  0  0
  -25.9060  -30.9030   21.4020 C   0  0  0  0  0  2  0  0  0  0  0  0
  -25.9920  -29.5320   20.7520 C   0  0  0  0  0  0  0  0  0  0  0  0
  -27.1880  -28.7650   20.7430 C   0  0  0  0  0  3  0  0  0  0  0  0
  -26.0270  -27.0120   19.5250 C   0  0  0  0  0  3  0  0  0  0  0  0
  -24.8410  -27.7650   19.5420 C   0  0  0  0  0  3  0  0  0  0  0  0
  -23.5780  -29.8800   20.2280 C   0  0  0  0  0  2  0  0  0  0  0  0
  -24.6420  -31.1510   22.1430 N   0  0  0  0  0  0  0  0  0  0  0  0
  -23.5090  -32.2240   23.7910 O   0  0  0  0  0  0  0  0  0  0  0  0
  -22.7320  -29.5260   22.5760 C   0  0  0  0  0  0  0  0  0  0  0  0
  -21.4070  -29.3400   22.4590 N   0  0  0  0  0  0  0  0  0  0  0  0
  -23.4230  -28.9040   23.3880 O   0  0  0  0  0  0  0  0  0  0  0  0
  -20.9090  -29.8940   21.7760 H   0  0  0  0  0  0  0  0  0  0  0  0
  -18.0430  -28.1150   22.9680 C   0  0  0  0  0  0  0  0  0  0  0  0
  -20.5990  -28.3990   23.2360 C   0  0  0  0  0  3  0  0  0  0  0  0
  -20.7140  -26.9660   22.6680 C   0  0  0  0  0  2  0  0  0  0  0  0
  -19.6150  -26.6260   21.6570 C   0  0  0  0  0  2  0  0  0  0  0  0
  -18.2320  -26.7640   22.3000 C   0  0  0  0  0  2  0  0  0  0  0  0
  -19.1550  -28.8910   23.3930 C   0  0  0  0  0  0  0  0  0  0  0  0
  -18.9250  -30.1550   23.9750 C   0  0  0  0  0  3  0  0  0  0  0  0
  -17.6160  -30.6460   24.1380 C   0  0  0  0  0  3  0  0  0  0  0  0
  -16.5180  -29.8690   23.7310 C   0  0  0  0  0  3  0  0  0  0  0  0
  -16.7330  -28.6060   23.1510 C   0  0  0  0  0  3  0  0  0  0  0  0
  -25.8760  -32.5910   23.8540 C   0  0  0  0  0  3  0  0  0  0  0  0
  -25.5640  -33.9890   24.1830 N   0  0  0  0  0  0  0  0  0  0  0  0
  -25.9000  -35.0420   23.4250 C   0  0  0  0  0  0  0  0  0  0  0  0
  -26.5750  -34.9380   22.3960 O   0  0  0  0  0  0  0  0  0  0  0  0
  -24.9680  -34.1440   24.9820 H   0  0  0  0  0  0  0  0  0  0  0  0
  -24.1810  -36.8400   23.0520 C   0  0  0  0  0  1  0  0  0  0  0  0
  -25.4100  -36.4300   23.8800 C   0  0  0  0  0  3  0  0  0  0  0  0
  -27.5380  -37.3040   24.7400 C   0  0  0  0  0  1  0  0  0  0  0  0
  -26.4460  -37.4810   23.7840 N   0  0  0  0  0  0  0  0  0  0  0  0
  -26.0400  -38.4010   23.9350 H   0  0  0  0  0  0  0  0  0  0  0  0
  -26.4040  -31.8230   25.1270 C   0  0  1  0  0  0  0  0  0  0  0  0
  -25.3210  -31.5820   26.2030 C   0  0  0  0  0  1  0  0  0  0  0  0
  -26.9910  -30.4480   24.7320 C   0  0  0  0  0  1  0  0  0  0  0  0
  -27.5570  -32.6230   25.7790 C   0  0  0  0  0  1  0  0  0  0  0  0
  2  5  1  0
  3  1  1  0
  3  7  1  0
  4  9  1  0
  4  3  2  0
  5 55  1  0
  5  1  2  0
  6  2  2  0
  6  4  1  0
  8  7  1  0
  9 25  1  0
  9  8  1  0
 10  6  1  0
 11 24  1  0
 12 17  1  0
 13 14  1  0
 13 12  1  0
 15 14  1  0
 15 30  1  0
 15 16  1  0
 17 11  1  0
 17 16  1  0
 18 11  2  0
 19 21  1  0
 19 24  1  0
 20 22  1  0
 21 25  1  0
 22 23  1  0
 24 20  1  0
 25 26  1  1
 25 22  1  0
 27 28  2  0
 28 47  1  0
 29 28  1  0
 29 32  1  0
 30 31  1  0
 30 27  1  0
 31 29  2  0
 32 33  1  0
 33 34  2  0
 35 38  1  0
 35 34  1  0
 36 35  2  0
 37 36  1  0
 37 32  2  0
 38 39  1  0
 39 40  1  0
 40 41  2  0
 42 41  1  0
 42 46  1  0
 43 42  2  0
 44 39  2  0
 44 43  1  0
 45 44  1  0
 47 48  1  0
 48 51  1  0
 48 50  1  0
 49 47  2  0
 52 27  1  0
 52 53  1  0
 54 52  1  0
 56 55  1  0
 57 68  2  0
 58 56  1  0
 58 63  1  0
 59 67  1  0
 59 69  1  0
 60 66  1  0
 60 62  1  0
 61 67  1  0
 62 61  1  0
 63 62  2  0
 64 65  1  0
 64 58  2  0
 65 60  2  0
 66 59  1  0
 67 57  1  0
 69 71  2  0
 70 69  1  0
 72 70  1  0
 73 82  2  0
 73 78  1  0
 74 70  1  0
 74 78  1  0
 75 74  1  0
 76 77  1  0
 76 75  1  0
 77 73  1  0
 78 79  2  0
 79 80  1  0
 81 80  2  0
 82 81  1  0
 83 57  1  0
 83 84  1  0
 83 93  1  0
 84 87  1  0
 85 89  1  0
 85 84  1  0
 86 85  2  0
 89 88  1  0
 91 89  1  0
 91 92  1  0
 91 90  1  0
 93 96  1  1
 93 94  1  0
 95 93  1  0
M  ISO  4  11 100  24 100  55 101  56 101
M  END
>  <TORSDO>  (42) 
F 17

>  <SCORE>  (42) 
-15.172

>  <name>  (42) 
41

>  <ligand_id>  (42) 
41

>  <original_smiles>  (42) 
[H]c1c([H])c([H])c2c(c1[H])C([H])([H])C([H])([H])C([H])([H])C2([H])N([H])C(=O)C1([H])N(C(=O)C([H])(N([H])C(=O)C([H])(N([H])C([H])([H])[H])C([H])([H])[H])C(C([H])([H])[H])(C([H])([H])[H])C([H])([H])[H])C([H])([H])c2c([H])c(OC([H])([H])c3c([H])c(C([H])([H])[H])c4c(c3[H])C([H])([H])C([H])([H])C4([H])[N+]3([H])C([H])([H])C([H])([H])N(C(=O)N4C([H])([H])C([H])([H])C([H])([H])C([H])(n5nc(-c6c([H])c([H])c(Oc7c([H])c([H])c(F)c([H])c7F)c([H])c6[H])c(C(=O)N([H])[H])c5N([H])[H])C4([H])[H])C([H])([H])C3([H])C([H])([H])[H])c([H])c([H])c2C1([H])[H]

>  <smiles>  (42) 
[H]c1c([H])c([H])c2c(c1[H])C([H])([H])C([H])([H])C([H])([H])C2([H])N([H])C(=O)C1([H])N(C(=O)C([H])(N([H])C(=O)C([H])(N([H])C([H])([H])[H])C([H])([H])[H])C(C([H])([H])[H])(C([H])([H])[H])C([H])([H])[H])C([H])([H])c2c([H])c(OC([H])([H])c3c([H])c(C([H])([H])[H])c4c(c3[H])C([H])([H])C([H])([H])C4([H])[N+]3([H])C([H])([H])C([H])([H])N(C(=O)N4C([H])([H])C([H])([H])C([H])([H])C([H])(n5nc(-c6c([H])c([H])c(Oc7c([H])c([H])c(F)c([H])c7F)c([H])c6[H])c(C(=O)N([H])[H])c5N([H])[H])C4([H])[H])C([H])([H])C3([H])C([H])([H])[H])c([H])c([H])c2C1([H])[H]

$$$$
42:0:0
     RDKit          3D

 99109  0  0  1  0  0  0  0  0999 V2000
  -30.2540  -20.7170   20.0780 C   0  0  0  0  0  0  0  0  0  0  0  0
  -30.3470  -21.3130   21.3370 C   0  0  0  0  0  0  0  0  0  0  0  0
  -30.4060  -19.3090   19.9000 C   0  0  0  0  0  0  0  0  0  0  0  0
  -30.4750  -20.4880   22.4920 C   0  0  0  0  0  0  0  0  0  0  0  0
  -30.6830  -19.0800   22.3280 C   0  0  0  0  0  0  0  0  0  0  0  0
  -30.7410  -18.4930   21.0280 C   0  0  0  0  0  0  0  0  0  0  0  0
  -30.0780  -21.7860   19.0580 C   0  0  0  0  0  0  0  0  0  0  0  0
  -29.3640  -25.1300   21.7270 C   0  0  0  0  0  2  0  0  0  0  0  0
  -29.5040  -23.6580   22.1680 C   0  0  0  0  0  2  0  0  0  0  0  0
  -30.1340  -23.1820   19.7230 C   0  0  0  0  0  3  0  0  0  0  0  0
  -28.9040  -24.1230   19.3900 C   0  0  0  0  0  3  0  0  0  0  0  0
  -28.5620  -25.2520   20.4270 C   0  0  0  0  0  3  0  0  0  0  0  0
  -30.4400  -22.8580   21.2280 C   0  0  2  0  0  0  0  0  0  0  0  0
  -30.3040  -18.6910   18.5080 C   0  0  0  0  0  1  0  0  0  0  0  0
  -30.4340  -21.1140   23.8860 C   0  0  0  0  0  1  0  0  0  0  0  0
  -30.9210  -18.2100   23.5620 C   0  0  0  0  0  1  0  0  0  0  0  0
  -28.9590  -24.7040   17.9620 C   0  0  0  0  0  1  0  0  0  0  0  0
  -31.9140  -23.2510   21.5010 C   0  0  0  0  0  1  0  0  0  0  0  0
  -29.9480  -21.6320   17.8400 O   0  0  0  0  0  0  0  0  0  0  0  0
  -28.6200  -26.6300   19.9290 O   0  0  0  0  0  0  0  0  0  0  0  0
  -24.5470  -31.6070   23.0890 C   0  0  0  0  0  0  0  0  0  0  0  0
  -27.4300  -27.3520   19.9170 C   0  0  0  0  0  0  0  0  0  0  0  0
  -23.4180  -30.1440   21.4500 C   0  0  0  0  0  3  0  0  0  0  0  0
  -24.9510  -28.7360   19.9730 C   0  0  0  0  0  0  0  0  0  0  0  0
  -25.9150  -30.6710   21.2210 C   0  0  0  0  0  2  0  0  0  0  0  0
  -26.0850  -29.3160   20.5560 C   0  0  0  0  0  0  0  0  0  0  0  0
  -27.3290  -28.6330   20.5230 C   0  0  0  0  0  3  0  0  0  0  0  0
  -26.2800  -26.8230   19.2880 C   0  0  0  0  0  3  0  0  0  0  0  0
  -25.0450  -27.4920   19.3320 C   0  0  0  0  0  3  0  0  0  0  0  0
  -23.6520  -29.5070   20.0560 C   0  0  0  0  0  2  0  0  0  0  0  0
  -24.6450  -30.8240   21.9770 N   0  0  0  0  0  0  0  0  0  0  0  0
  -23.4590  -31.7940   23.6500 O   0  0  0  0  0  0  0  0  0  0  0  0
  -22.8580  -29.0640   22.4060 C   0  0  0  0  0  0  0  0  0  0  0  0
  -21.5710  -28.7190   22.2350 N   0  0  0  0  0  0  0  0  0  0  0  0
  -23.5800  -28.5390   23.2570 O   0  0  0  0  0  0  0  0  0  0  0  0
  -21.0440  -29.2010   21.5210 H   0  0  0  0  0  0  0  0  0  0  0  0
  -18.3860  -27.0390   22.5550 C   0  0  0  0  0  0  0  0  0  0  0  0
  -20.8450  -27.7020   22.9950 C   0  0  0  0  0  3  0  0  0  0  0  0
  -21.2080  -26.2790   22.5070 C   0  0  0  0  0  2  0  0  0  0  0  0
  -20.2520  -25.7470   21.4350 C   0  0  0  0  0  2  0  0  0  0  0  0
  -18.8170  -25.7050   21.9690 C   0  0  0  0  0  2  0  0  0  0  0  0
  -19.3390  -27.9830   23.0210 C   0  0  0  0  0  0  0  0  0  0  0  0
  -18.8870  -29.2230   23.5240 C   0  0  0  0  0  3  0  0  0  0  0  0
  -17.5120  -29.5240   23.5650 C   0  0  0  0  0  3  0  0  0  0  0  0
  -16.5720  -28.5810   23.1160 C   0  0  0  0  0  3  0  0  0  0  0  0
  -17.0090  -27.3400   22.6170 C   0  0  0  0  0  3  0  0  0  0  0  0
  -25.7940  -32.3230   23.6940 C   0  0  0  0  0  3  0  0  0  0  0  0
  -25.3890  -33.6880   24.0560 N   0  0  0  0  0  0  0  0  0  0  0  0
  -25.6460  -34.7780   23.3220 C   0  0  0  0  0  0  0  0  0  0  0  0
  -26.3200  -34.7440   22.2880 O   0  0  0  0  0  0  0  0  0  0  0  0
  -24.7860  -33.7820   24.8620 H   0  0  0  0  0  0  0  0  0  0  0  0
  -23.7950  -36.4510   23.0030 C   0  0  0  0  0  1  0  0  0  0  0  0
  -25.0610  -36.1180   23.8090 C   0  0  0  0  0  3  0  0  0  0  0  0
  -27.1300  -37.1280   24.6630 C   0  0  0  0  0  1  0  0  0  0  0  0
  -26.0180  -37.2430   23.7230 N   0  0  0  0  0  0  0  0  0  0  0  0
  -25.5480  -38.1280   23.8940 H   0  0  0  0  0  0  0  0  0  0  0  0
  -26.3960  -31.5710   24.9440 C   0  0  1  0  0  0  0  0  0  0  0  0
  -25.3500  -31.2380   26.0330 C   0  0  0  0  0  1  0  0  0  0  0  0
  -27.0680  -30.2470   24.5130 C   0  0  0  0  0  1  0  0  0  0  0  0
  -27.5020  -32.4370   25.5940 C   0  0  0  0  0  1  0  0  0  0  0  0
  -31.4180  -17.1020   20.8150 C   0  0  0  0  0  2  0  0  0  0  0  0
  -31.2220  -14.6800   20.2920 C   0  0  0  0  0  0  0  0  0  0  0  0
  -30.8040  -12.4700   19.2710 C   0  0  0  0  0  2  0  0  0  0  0  0
  -29.8940  -12.6330   18.0390 C   0  0  0  0  0  2  0  0  0  0  0  0
  -28.4130  -12.5680   18.4590 C   0  0  0  0  0  2  0  0  0  0  0  0
  -28.0910  -13.4890   19.6670 C   0  0  0  0  0  3  0  0  0  0  0  0
  -29.1310  -13.3380   20.8000 C   0  0  0  0  0  2  0  0  0  0  0  0
  -30.4620  -13.5500   20.2160 N   0  0  0  0  0  0  0  0  0  0  0  0
  -32.3830  -14.6950   19.8800 O   0  0  0  0  0  0  0  0  0  0  0  0
  -30.6370  -15.8410   20.6880 N   0  0  0  0  0  0  0  0  0  0  0  0
  -29.6670  -15.8360   20.9640 H   0  0  0  0  0  0  0  0  0  0  0  0
  -25.7410  -14.2180   20.4090 C   0  0  0  0  0  0  0  0  0  0  0  0
  -24.6280  -13.5030   20.7570 C   0  0  0  0  0  0  0  0  0  0  0  0
  -25.0010  -12.1260   20.6860 C   0  0  0  0  0  0  0  0  0  0  0  0
  -26.7270  -13.2800   20.1480 N   0  0  0  0  0  0  0  0  0  0  0  0
  -26.2870  -12.0150   20.3750 N   0  0  0  0  0  0  0  0  0  0  0  0
  -24.1950  -10.9080   20.8400 C   0  0  0  0  0  0  0  0  0  0  0  0
  -24.5610   -9.8890   21.7470 C   0  0  0  0  0  3  0  0  0  0  0  0
  -23.7590   -8.7370   21.8910 C   0  0  0  0  0  3  0  0  0  0  0  0
  -22.5760   -8.5950   21.1260 C   0  0  0  0  0  0  0  0  0  0  0  0
  -22.2290   -9.6010   20.2080 C   0  0  0  0  0  3  0  0  0  0  0  0
  -23.0310  -10.7450   20.0620 C   0  0  0  0  0  3  0  0  0  0  0  0
  -21.7490   -7.4990   21.1810 O   0  0  0  0  0  0  0  0  0  0  0  0
  -21.6320   -6.7420   22.3200 C   0  0  0  0  0  0  0  0  0  0  0  0
  -21.2340   -7.3050   23.5510 C   0  0  0  0  0  3  0  0  0  0  0  0
  -21.0580   -6.4790   24.6790 C   0  0  0  0  0  3  0  0  0  0  0  0
  -21.2700   -5.0910   24.5760 C   0  0  0  0  0  0  0  0  0  0  0  0
  -21.6620   -4.5280   23.3490 C   0  0  0  0  0  3  0  0  0  0  0  0
  -21.8390   -5.3510   22.2230 C   0  0  0  0  0  0  0  0  0  0  0  0
  -22.1960   -4.8000   21.0380 F   0  0  0  0  0  0  0  0  0  0  0  0
  -21.0950   -4.2960   25.6570 F   0  0  0  0  0  0  0  0  0  0  0  0
  -23.2640  -14.0620   21.0450 C   0  0  0  0  0  0  0  0  0  0  0  0
  -22.4980  -13.3960   21.9040 N   0  0  0  0  0  0  0  0  0  0  0  0
  -22.8880  -15.1210   20.5470 O   0  0  0  0  0  0  0  0  0  0  0  0
  -22.8150  -12.5370   22.3290 H   0  0  0  0  0  0  0  0  0  0  0  0
  -21.5820  -13.7500   22.1400 H   0  0  0  0  0  0  0  0  0  0  0  0
  -25.9930  -15.5780   20.2700 N   0  0  0  0  0  0  0  0  0  0  0  0
  -25.2700  -16.2780   20.3960 H   0  0  0  0  0  0  0  0  0  0  0  0
  -26.8690  -15.9710   19.9460 H   0  0  0  0  0  0  0  0  0  0  0  0
  1  2  1  0
  2  4  2  0
  3  1  2  0
  3  6  1  0
  4 15  1  0
  5  4  1  0
  5 16  1  0
  6  5  2  0
  7  1  1  0
  8  9  1  0
 10  7  1  0
 10 13  1  0
 11 17  1  0
 11 10  1  0
 11 12  1  0
 12 20  1  0
 12  8  1  0
 13  2  1  0
 13 18  1  1
 13  9  1  0
 14  3  1  0
 19  7  2  0
 21 32  2  0
 22 20  1  0
 22 27  1  0
 23 31  1  0
 23 33  1  0
 24 30  1  0
 24 26  1  0
 25 31  1  0
 26 25  1  0
 27 26  2  0
 28 29  1  0
 28 22  2  0
 29 24  2  0
 30 23  1  0
 31 21  1  0
 33 35  2  0
 34 33  1  0
 36 34  1  0
 37 46  2  0
 37 42  1  0
 38 34  1  0
 38 42  1  0
 39 38  1  0
 40 41  1  0
 40 39  1  0
 41 37  1  0
 42 43  2  0
 43 44  1  0
 45 44  2  0
 46 45  1  0
 47 21  1  0
 47 48  1  0
 47 57  1  0
 48 51  1  0
 49 53  1  0
 49 48  1  0
 50 49  2  0
 53 52  1  0
 55 53  1  0
 55 56  1  0
 55 54  1  0
 57 60  1  1
 57 58  1  0
 59 57  1  0
 61  6  1  0
 62 70  1  0
 63 68  1  0
 64 65  1  0
 64 63  1  0
 66 65  1  0
 66 75  1  0
 66 67  1  0
 68 62  1  0
 68 67  1  0
 69 62  2  0
 70 61  1  0
 70 71  1  0
 72 73  2  0
 73 92  1  0
 74 73  1  0
 74 77  1  0
 75 76  1  0
 75 72  1  0
 76 74  2  0
 77 78  1  0
 78 79  2  0
 80 83  1  0
 80 79  1  0
 81 80  2  0
 82 81  1  0
 82 77  2  0
 83 84  1  0
 84 85  1  0
 85 86  2  0
 87 86  1  0
 87 91  1  0
 88 87  2  0
 89 84  2  0
 89 88  1  0
 90 89  1  0
 92 93  1  0
 93 96  1  0
 93 95  1  0
 94 92  2  0
 97 98  1  0
 97 72  1  0
 99 97  1  0
M  ISO  4  12 101  20 101  62 100  70 100
M  END
>  <TORSDO>  (43) 
F 17

>  <SCORE>  (43) 
-13.053

>  <name>  (43) 
42

>  <ligand_id>  (43) 
42

>  <original_smiles>  (43) 
[H]c1c([H])c([H])c2c(c1[H])C([H])([H])C([H])([H])C([H])([H])C2([H])N([H])C(=O)C1([H])N(C(=O)C([H])(N([H])C(=O)C([H])(N([H])C([H])([H])[H])C([H])([H])[H])C(C([H])([H])[H])(C([H])([H])[H])C([H])([H])[H])C([H])([H])c2c([H])c(OC3([H])C([H])([H])C([H])([H])C4(C([H])([H])[H])c5c(c(C([H])([H])[H])c(C([H])([H])N([H])C(=O)N6C([H])([H])C([H])([H])C([H])([H])C([H])(n7nc(-c8c([H])c([H])c(Oc9c([H])c([H])c(F)c([H])c9F)c([H])c8[H])c(C(=O)N([H])[H])c7N([H])[H])C6([H])[H])c(C([H])([H])[H])c5C([H])([H])[H])C(=O)C4([H])C3([H])C([H])([H])[H])c([H])c([H])c2C1([H])[H]

>  <smiles>  (43) 
[H]c1c([H])c([H])c2c(c1[H])C([H])([H])C([H])([H])C([H])([H])C2([H])N([H])C(=O)C1([H])N(C(=O)C([H])(N([H])C(=O)C([H])(N([H])C([H])([H])[H])C([H])([H])[H])C(C([H])([H])[H])(C([H])([H])[H])C([H])([H])[H])C([H])([H])c2c([H])c(OC3([H])C([H])([H])C([H])([H])C4(C([H])([H])[H])c5c(c(C([H])([H])[H])c(C([H])([H])N([H])C(=O)N6C([H])([H])C([H])([H])C([H])([H])C([H])(n7nc(-c8c([H])c([H])c(Oc9c([H])c([H])c(F)c([H])c9F)c([H])c8[H])c(C(=O)N([H])[H])c7N([H])[H])C6([H])[H])c(C([H])([H])[H])c5C([H])([H])[H])C(=O)C4([H])C3([H])C([H])([H])[H])c([H])c([H])c2C1([H])[H]

$$$$
43:0:0
     RDKit          3D

 94104  0  0  1  0  0  0  0  0999 V2000
  -29.5550  -21.7430   18.8190 C   0  0  0  0  0  0  0  0  0  0  0  0
  -29.3010  -23.1700   18.9060 C   0  0  0  0  0  0  0  0  0  0  0  0
  -29.4310  -21.1360   20.0510 C   0  0  0  0  0  0  0  0  0  0  0  0
  -29.0430  -23.5410   20.2040 C   0  0  0  0  0  0  0  0  0  0  0  0
  -29.8660  -21.0210   17.5300 C   0  0  0  0  0  1  0  0  0  0  0  0
  -29.2780  -24.1060   17.7230 C   0  0  0  0  0  1  0  0  0  0  0  0
  -29.1600  -22.2740   20.9050 N   0  0  0  0  0  0  0  0  0  0  0  0
  -30.9000  -15.0070   20.1190 C   0  0  0  0  0  0  0  0  0  0  0  0
  -30.6300  -12.6930   19.1430 C   0  0  0  0  0  2  0  0  0  0  0  0
  -29.6610  -12.6720   17.9450 C   0  0  0  0  0  2  0  0  0  0  0  0
  -28.2170  -12.4610   18.4350 C   0  0  0  0  0  2  0  0  0  0  0  0
  -27.8560  -13.3820   19.6290 C   0  0  0  0  0  3  0  0  0  0  0  0
  -28.9540  -13.4190   20.7130 C   0  0  0  0  0  2  0  0  0  0  0  0
  -30.2040  -13.8020   20.0430 N   0  0  0  0  0  0  0  0  0  0  0  0
  -32.1050  -14.9570   19.8500 O   0  0  0  0  0  0  0  0  0  0  0  0
  -28.9380  -18.4410   19.5120 C   0  0  0  0  0  2  0  0  0  0  0  0
  -30.9620  -18.9060   20.6630 C   0  0  0  0  0  2  0  0  0  0  0  0
  -29.0230  -16.8730   19.9120 C   0  0  0  0  0  2  0  0  0  0  0  0
  -31.0560  -17.3730   21.1350 C   0  0  0  0  0  2  0  0  0  0  0  0
  -29.5400  -19.5490   20.4680 C   0  0  0  0  0  3  0  0  0  0  0  0
  -30.3140  -16.2800   20.4020 N   0  0  0  0  0  0  0  0  0  0  0  0
  -25.5160  -13.9640   20.4800 C   0  0  0  0  0  0  0  0  0  0  0  0
  -24.4600  -13.1890   20.8700 C   0  0  0  0  0  0  0  0  0  0  0  0
  -24.9120  -11.8350   20.7890 C   0  0  0  0  0  0  0  0  0  0  0  0
  -26.5410  -13.0840   20.1790 N   0  0  0  0  0  0  0  0  0  0  0  0
  -26.1900  -11.7970   20.4310 N   0  0  0  0  0  0  0  0  0  0  0  0
  -24.1830  -10.5740   20.9720 C   0  0  0  0  0  0  0  0  0  0  0  0
  -24.5990   -9.6110   21.9160 C   0  0  0  0  0  3  0  0  0  0  0  0
  -23.8690   -8.4150   22.0880 C   0  0  0  0  0  3  0  0  0  0  0  0
  -22.7080   -8.1750   21.3140 C   0  0  0  0  0  0  0  0  0  0  0  0
  -22.3120   -9.1270   20.3600 C   0  0  0  0  0  3  0  0  0  0  0  0
  -23.0420  -10.3150   20.1860 C   0  0  0  0  0  3  0  0  0  0  0  0
  -21.9500   -7.0320   21.3960 O   0  0  0  0  0  0  0  0  0  0  0  0
  -21.8170   -6.3390   22.5720 C   0  0  0  0  0  0  0  0  0  0  0  0
  -21.2810   -6.9380   23.7330 C   0  0  0  0  0  3  0  0  0  0  0  0
  -21.0970   -6.1710   24.9000 C   0  0  0  0  0  3  0  0  0  0  0  0
  -21.4380   -4.8050   24.9070 C   0  0  0  0  0  0  0  0  0  0  0  0
  -21.9670   -4.2060   23.7510 C   0  0  0  0  0  3  0  0  0  0  0  0
  -22.1530   -4.9710   22.5850 C   0  0  0  0  0  0  0  0  0  0  0  0
  -22.6430   -4.3840   21.4670 F   0  0  0  0  0  0  0  0  0  0  0  0
  -21.2550   -4.0660   26.0260 F   0  0  0  0  0  0  0  0  0  0  0  0
  -23.0780  -13.6700   21.1990 C   0  0  0  0  0  0  0  0  0  0  0  0
  -22.3720  -12.9580   22.0720 N   0  0  0  0  0  0  0  0  0  0  0  0
  -22.6330  -14.7120   20.7190 O   0  0  0  0  0  0  0  0  0  0  0  0
  -22.7450  -12.1150   22.4820 H   0  0  0  0  0  0  0  0  0  0  0  0
  -21.4460  -13.2630   22.3350 H   0  0  0  0  0  0  0  0  0  0  0  0
  -25.6830  -15.3380   20.3290 N   0  0  0  0  0  0  0  0  0  0  0  0
  -24.9260  -15.9930   20.4890 H   0  0  0  0  0  0  0  0  0  0  0  0
  -26.5230  -15.7780   19.9770 H   0  0  0  0  0  0  0  0  0  0  0  0
  -29.7800  -23.0130   23.2220 C   0  0  0  0  0  2  0  0  0  0  0  0
  -30.0490  -21.5340   23.1340 C   0  0  0  0  0  2  0  0  0  0  0  0
  -28.9130  -22.1420   22.3360 C   0  0  0  0  0  3  0  0  0  0  0  0
  -28.5500  -24.9540   20.8550 C   0  0  0  0  0  2  0  0  0  0  0  0
  -28.8070  -26.3350   20.2190 O   0  0  0  0  0  0  0  0  0  0  0  0
  -24.8440  -31.7590   23.2280 C   0  0  0  0  0  0  0  0  0  0  0  0
  -27.7250  -27.2740   20.1790 C   0  0  0  0  0  0  0  0  0  0  0  0
  -23.7610  -30.3580   21.5110 C   0  0  0  0  0  3  0  0  0  0  0  0
  -25.3260  -28.8910   20.1010 C   0  0  0  0  0  0  0  0  0  0  0  0
  -26.3020  -30.7480   21.4420 C   0  0  0  0  0  2  0  0  0  0  0  0
  -26.4620  -29.3800   20.7620 C   0  0  0  0  0  0  0  0  0  0  0  0
  -27.6670  -28.5880   20.7830 C   0  0  0  0  0  3  0  0  0  0  0  0
  -26.5680  -26.8830   19.4740 C   0  0  0  0  0  3  0  0  0  0  0  0
  -25.3900  -27.6560   19.4400 C   0  0  0  0  0  3  0  0  0  0  0  0
  -24.0590  -29.7300   20.1250 C   0  0  0  0  0  2  0  0  0  0  0  0
  -24.9850  -30.9750   22.1160 N   0  0  0  0  0  0  0  0  0  0  0  0
  -23.7280  -31.9800   23.7260 O   0  0  0  0  0  0  0  0  0  0  0  0
  -23.0970  -29.2940   22.4220 C   0  0  0  0  0  0  0  0  0  0  0  0
  -21.7800  -29.0790   22.2520 N   0  0  0  0  0  0  0  0  0  0  0  0
  -23.7690  -28.6660   23.2430 O   0  0  0  0  0  0  0  0  0  0  0  0
  -21.2930  -29.6400   21.5670 H   0  0  0  0  0  0  0  0  0  0  0  0
  -18.4290  -27.7590   22.6370 C   0  0  0  0  0  0  0  0  0  0  0  0
  -20.9730  -28.0910   22.9710 C   0  0  0  0  0  3  0  0  0  0  0  0
  -21.1320  -26.6830   22.3500 C   0  0  0  0  0  2  0  0  0  0  0  0
  -20.0620  -26.3630   21.3000 C   0  0  0  0  0  2  0  0  0  0  0  0
  -18.6630  -26.4420   21.9180 C   0  0  0  0  0  2  0  0  0  0  0  0
  -19.5140  -28.5410   23.1180 C   0  0  0  0  0  0  0  0  0  0  0  0
  -19.2420  -29.7730   23.7520 C   0  0  0  0  0  3  0  0  0  0  0  0
  -17.9180  -30.2250   23.9070 C   0  0  0  0  0  3  0  0  0  0  0  0
  -16.8470  -29.4410   23.4420 C   0  0  0  0  0  3  0  0  0  0  0  0
  -17.1040  -28.2100   22.8140 C   0  0  0  0  0  3  0  0  0  0  0  0
  -26.0710  -32.4300   23.9140 C   0  0  0  0  0  3  0  0  0  0  0  0
  -25.6950  -33.8120   24.2500 N   0  0  0  0  0  0  0  0  0  0  0  0
  -25.9970  -34.8870   23.5100 C   0  0  0  0  0  0  0  0  0  0  0  0
  -26.6890  -34.8220   22.4910 O   0  0  0  0  0  0  0  0  0  0  0  0
  -25.0820  -33.9320   25.0440 H   0  0  0  0  0  0  0  0  0  0  0  0
  -24.1950  -36.6070   23.1550 C   0  0  0  0  0  1  0  0  0  0  0  0
  -25.4460  -36.2500   23.9740 C   0  0  0  0  0  3  0  0  0  0  0  0
  -27.5320  -37.2250   24.8300 C   0  0  0  0  0  1  0  0  0  0  0  0
  -26.4320  -37.3490   23.8770 N   0  0  0  0  0  0  0  0  0  0  0  0
  -25.9850  -38.2490   24.0240 H   0  0  0  0  0  0  0  0  0  0  0  0
  -26.5560  -31.6620   25.2060 C   0  0  1  0  0  0  0  0  0  0  0  0
  -25.4260  -31.3780   26.2230 C   0  0  0  0  0  1  0  0  0  0  0  0
  -27.2010  -30.3080   24.8320 C   0  0  0  0  0  1  0  0  0  0  0  0
  -27.6500  -32.4870   25.9250 C   0  0  0  0  0  1  0  0  0  0  0  0
  1  2  1  0
  1  3  2  0
  2  4  2  0
  3  7  1  0
  4 53  1  0
  4  7  1  0
  5  1  1  0
  6  2  1  0
  7 52  1  0
  8 21  1  0
  9 14  1  0
 10 11  1  0
 10  9  1  0
 12 11  1  0
 12 25  1  0
 12 13  1  0
 14  8  1  0
 14 13  1  0
 15  8  2  0
 16 18  1  0
 16 20  1  0
 17 19  1  0
 18 21  1  0
 20  3  1  0
 20 17  1  0
 21 19  1  0
 22 23  2  0
 23 42  1  0
 24 23  1  0
 24 27  1  0
 25 26  1  0
 25 22  1  0
 26 24  2  0
 27 28  1  0
 28 29  2  0
 30 33  1  0
 30 29  1  0
 31 30  2  0
 32 31  1  0
 32 27  2  0
 33 34  1  0
 34 39  2  0
 34 35  1  0
 35 36  2  0
 36 37  1  0
 37 41  1  0
 38 37  2  0
 39 38  1  0
 40 39  1  0
 42 43  1  0
 43 46  1  0
 43 45  1  0
 44 42  2  0
 47 22  1  0
 47 48  1  0
 49 47  1  0
 51 50  1  0
 52 51  1  0
 52 50  1  0
 54 53  1  0
 55 66  2  0
 56 54  1  0
 56 61  1  0
 57 65  1  0
 57 67  1  0
 58 64  1  0
 58 60  1  0
 59 65  1  0
 60 61  2  0
 60 59  1  0
 62 56  2  0
 63 62  1  0
 63 58  2  0
 64 57  1  0
 65 55  1  0
 67 69  2  0
 68 67  1  0
 70 68  1  0
 71 80  2  0
 71 76  1  0
 72 68  1  0
 72 76  1  0
 73 72  1  0
 74 75  1  0
 74 73  1  0
 75 71  1  0
 76 77  2  0
 77 78  1  0
 79 78  2  0
 80 79  1  0
 81 55  1  0
 81 82  1  0
 81 91  1  0
 82 85  1  0
 83 87  1  0
 83 82  1  0
 84 83  2  0
 87 86  1  0
 89 87  1  0
 89 90  1  0
 89 88  1  0
 91 94  1  1
 91 92  1  0
 93 91  1  0
M  ISO  4   8 100  21 100  53 101  54 101
M  END
>  <TORSDO>  (44) 
F 18

>  <SCORE>  (44) 
-14.606

>  <name>  (44) 
43

>  <ligand_id>  (44) 
43

>  <original_smiles>  (44) 
[H]c1c([H])c([H])c2c(c1[H])C([H])([H])C([H])([H])C([H])([H])C2([H])N([H])C(=O)C1([H])N(C(=O)C([H])(N([H])C(=O)C([H])(N([H])C([H])([H])[H])C([H])([H])[H])C(C([H])([H])[H])(C([H])([H])[H])C([H])([H])[H])C([H])([H])c2c([H])c(OC([H])([H])c3c(C([H])([H])[H])c(C([H])([H])[H])c(C4([H])C([H])([H])C([H])([H])N(C(=O)N5C([H])([H])C([H])([H])C([H])([H])C([H])(n6nc(-c7c([H])c([H])c(Oc8c([H])c([H])c(F)c([H])c8F)c([H])c7[H])c(C(=O)N([H])[H])c6N([H])[H])C5([H])[H])C([H])([H])C4([H])[H])n3C3([H])C([H])([H])C3([H])[H])c([H])c([H])c2C1([H])[H]

>  <smiles>  (44) 
[H]c1c([H])c([H])c2c(c1[H])C([H])([H])C([H])([H])C([H])([H])C2([H])N([H])C(=O)C1([H])N(C(=O)C([H])(N([H])C(=O)C([H])(N([H])C([H])([H])[H])C([H])([H])[H])C(C([H])([H])[H])(C([H])([H])[H])C([H])([H])[H])C([H])([H])c2c([H])c(OC([H])([H])c3c(C([H])([H])[H])c(C([H])([H])[H])c(C4([H])C([H])([H])C([H])([H])N(C(=O)N5C([H])([H])C([H])([H])C([H])([H])C([H])(n6nc(-c7c([H])c([H])c(Oc8c([H])c([H])c(F)c([H])c8F)c([H])c7[H])c(C(=O)N([H])[H])c6N([H])[H])C5([H])[H])C([H])([H])C4([H])[H])n3C3([H])C([H])([H])C3([H])[H])c([H])c([H])c2C1([H])[H]

$$$$
44:0:0
     RDKit          3D

 92101  0  0  1  0  0  0  0  0999 V2000
  -30.8520  -21.4040   20.6600 C   0  0  0  0  0  3  0  0  0  0  0  0
  -28.9920  -23.5070   20.2310 C   0  0  0  0  0  0  0  0  0  0  0  0
  -29.5790  -20.9400   20.2630 C   0  0  0  0  0  0  0  0  0  0  0  0
  -28.6430  -22.0740   20.0640 C   0  0  0  0  0  0  0  0  0  0  0  0
  -30.3300  -23.7040   20.6360 C   0  0  0  0  0  0  0  0  0  0  0  0
  -30.9080  -25.0880   20.8700 C   0  0  0  0  0  1  0  0  0  0  0  0
  -31.2090  -22.6970   20.8420 N   0  0  0  0  0  0  0  0  0  0  0  0
  -27.3780  -21.7810   19.6710 F   0  0  0  0  0  0  0  0  0  0  0  0
  -30.6500  -14.9940   19.9970 C   0  0  0  0  0  0  0  0  0  0  0  0
  -30.4280  -12.6880   18.9890 C   0  0  0  0  0  2  0  0  0  0  0  0
  -29.4230  -12.7000   17.8170 C   0  0  0  0  0  2  0  0  0  0  0  0
  -27.9880  -12.4780   18.3340 C   0  0  0  0  0  2  0  0  0  0  0  0
  -27.6620  -13.3550   19.5720 C   0  0  0  0  0  3  0  0  0  0  0  0
  -28.7880  -13.3400   20.6260 C   0  0  0  0  0  2  0  0  0  0  0  0
  -30.0140  -13.7590   19.9380 N   0  0  0  0  0  0  0  0  0  0  0  0
  -31.8330  -15.0250   19.6400 O   0  0  0  0  0  0  0  0  0  0  0  0
  -30.4210  -18.7180   19.2750 C   0  0  0  0  0  3  0  0  0  0  0  0
  -28.8980  -18.5260   21.0990 C   0  0  0  0  0  3  0  0  0  0  0  0
  -30.0250  -17.2160   18.9020 C   0  0  0  0  0  3  0  0  0  0  0  0
  -29.5520  -17.0300   21.2370 C   0  0  0  0  0  3  0  0  0  0  0  0
  -29.4040  -19.4720   20.0510 N   0  0  0  0  0  0  0  0  0  0  0  0
  -29.9160  -16.2150   20.0160 N   0  0  0  0  0  0  0  0  0  0  0  0
  -25.3360  -13.8860   20.4920 C   0  0  0  0  0  0  0  0  0  0  0  0
  -24.3010  -13.0910   20.8990 C   0  0  0  0  0  0  0  0  0  0  0  0
  -24.7660  -11.7460   20.7800 C   0  0  0  0  0  0  0  0  0  0  0  0
  -26.3620  -13.0260   20.1460 N   0  0  0  0  0  0  0  0  0  0  0  0
  -26.0340  -11.7290   20.3850 N   0  0  0  0  0  0  0  0  0  0  0  0
  -24.0570  -10.4730   20.9640 C   0  0  0  0  0  0  0  0  0  0  0  0
  -24.5100   -9.5000   21.8840 C   0  0  0  0  0  3  0  0  0  0  0  0
  -23.8010   -8.2930   22.0600 C   0  0  0  0  0  3  0  0  0  0  0  0
  -22.6220   -8.0490   21.3160 C   0  0  0  0  0  0  0  0  0  0  0  0
  -22.1870   -9.0090   20.3860 C   0  0  0  0  0  3  0  0  0  0  0  0
  -22.8970  -10.2090   20.2080 C   0  0  0  0  0  3  0  0  0  0  0  0
  -21.8790   -6.8950   21.4030 O   0  0  0  0  0  0  0  0  0  0  0  0
  -21.7830   -6.1870   22.5730 C   0  0  0  0  0  0  0  0  0  0  0  0
  -21.2520   -6.7600   23.7500 C   0  0  0  0  0  3  0  0  0  0  0  0
  -21.1100   -5.9770   24.9120 C   0  0  0  0  0  3  0  0  0  0  0  0
  -21.4820   -4.6200   24.8970 C   0  0  0  0  0  0  0  0  0  0  0  0
  -22.0020   -4.0440   23.7240 C   0  0  0  0  0  3  0  0  0  0  0  0
  -22.1490   -4.8250   22.5650 C   0  0  0  0  0  0  0  0  0  0  0  0
  -22.6320   -4.2610   21.4320 F   0  0  0  0  0  0  0  0  0  0  0  0
  -21.3370   -3.8640   26.0110 F   0  0  0  0  0  0  0  0  0  0  0  0
  -22.9250  -13.5500   21.2810 C   0  0  0  0  0  0  0  0  0  0  0  0
  -22.2600  -12.8230   22.1720 N   0  0  0  0  0  0  0  0  0  0  0  0
  -22.4480  -14.5900   20.8240 O   0  0  0  0  0  0  0  0  0  0  0  0
  -22.6620  -11.9840   22.5640 H   0  0  0  0  0  0  0  0  0  0  0  0
  -21.3380  -13.1100   22.4670 H   0  0  0  0  0  0  0  0  0  0  0  0
  -25.4850  -15.2640   20.3610 N   0  0  0  0  0  0  0  0  0  0  0  0
  -24.7270  -15.9100   20.5460 H   0  0  0  0  0  0  0  0  0  0  0  0
  -26.3160  -15.7200   20.0050 H   0  0  0  0  0  0  0  0  0  0  0  0
  -27.9910  -24.7770   19.9630 C   0  0  0  0  0  2  0  0  0  0  0  0
  -28.3070  -26.2770   20.1950 O   0  0  0  0  0  0  0  0  0  0  0  0
  -24.6970  -31.8860   23.2940 C   0  0  0  0  0  0  0  0  0  0  0  0
  -27.2590  -27.2600   20.1450 C   0  0  0  0  0  0  0  0  0  0  0  0
  -23.4940  -30.5370   21.6210 C   0  0  0  0  0  3  0  0  0  0  0  0
  -24.9380  -29.0010   20.1560 C   0  0  0  0  0  0  0  0  0  0  0  0
  -26.0490  -30.8020   21.4650 C   0  0  0  0  0  2  0  0  0  0  0  0
  -26.1180  -29.4310   20.7760 C   0  0  0  0  0  0  0  0  0  0  0  0
  -27.2830  -28.5770   20.7520 C   0  0  0  0  0  3  0  0  0  0  0  0
  -26.0510  -26.9300   19.4890 C   0  0  0  0  0  3  0  0  0  0  0  0
  -24.9160  -27.7640   19.4980 C   0  0  0  0  0  3  0  0  0  0  0  0
  -23.7130  -29.8980   20.2250 C   0  0  0  0  0  2  0  0  0  0  0  0
  -24.7680  -31.0940   22.1820 N   0  0  0  0  0  0  0  0  0  0  0  0
  -23.6120  -32.1610   23.8270 O   0  0  0  0  0  0  0  0  0  0  0  0
  -22.8140  -29.5050   22.5540 C   0  0  0  0  0  0  0  0  0  0  0  0
  -21.4880  -29.3310   22.4100 N   0  0  0  0  0  0  0  0  0  0  0  0
  -23.4810  -28.8630   23.3700 O   0  0  0  0  0  0  0  0  0  0  0  0
  -21.0080  -29.9010   21.7270 H   0  0  0  0  0  0  0  0  0  0  0  0
  -18.0980  -28.1420   22.8810 C   0  0  0  0  0  0  0  0  0  0  0  0
  -20.6590  -28.3780   23.1530 C   0  0  0  0  0  3  0  0  0  0  0  0
  -20.7520  -26.9640   22.5360 C   0  0  0  0  0  2  0  0  0  0  0  0
  -19.6470  -26.6770   21.5150 C   0  0  0  0  0  2  0  0  0  0  0  0
  -18.2670  -26.8120   22.1630 C   0  0  0  0  0  2  0  0  0  0  0  0
  -19.2230  -28.8840   23.3310 C   0  0  0  0  0  0  0  0  0  0  0  0
  -19.0120  -30.1280   23.9630 C   0  0  0  0  0  3  0  0  0  0  0  0
  -17.7110  -30.6330   24.1440 C   0  0  0  0  0  3  0  0  0  0  0  0
  -16.6010  -29.8870   23.7110 C   0  0  0  0  0  3  0  0  0  0  0  0
  -16.7960  -28.6430   23.0860 C   0  0  0  0  0  3  0  0  0  0  0  0
  -25.9760  -32.5000   23.9400 C   0  0  0  0  0  3  0  0  0  0  0  0
  -25.6820  -33.9040   24.2670 N   0  0  0  0  0  0  0  0  0  0  0  0
  -25.9970  -34.9520   23.4940 C   0  0  0  0  0  0  0  0  0  0  0  0
  -26.6350  -34.8380   22.4440 O   0  0  0  0  0  0  0  0  0  0  0  0
  -25.1100  -34.0680   25.0830 H   0  0  0  0  0  0  0  0  0  0  0  0
  -24.2490  -36.7410   23.2110 C   0  0  0  0  0  1  0  0  0  0  0  0
  -25.5330  -36.3470   23.9580 C   0  0  0  0  0  3  0  0  0  0  0  0
  -27.7020  -37.2540   24.6670 C   0  0  0  0  0  1  0  0  0  0  0  0
  -26.5550  -37.4000   23.7740 N   0  0  0  0  0  0  0  0  0  0  0  0
  -26.1530  -38.3230   23.9200 H   0  0  0  0  0  0  0  0  0  0  0  0
  -26.4530  -31.7250   25.2290 C   0  0  1  0  0  0  0  0  0  0  0  0
  -25.3330  -31.5040   26.2740 C   0  0  0  0  0  1  0  0  0  0  0  0
  -27.0250  -30.3390   24.8560 C   0  0  0  0  0  1  0  0  0  0  0  0
  -27.6020  -32.5040   25.9150 C   0  0  0  0  0  1  0  0  0  0  0  0
  1  7  1  0
  2  5  1  0
  3  1  2  0
  4  2  2  0
  4  3  1  0
  5  7  2  0
  5  6  1  0
  8  4  1  0
  9 22  1  0
 10 15  1  0
 11 12  1  0
 11 10  1  0
 13 12  1  0
 13 26  1  0
 13 14  1  0
 15  9  1  0
 15 14  1  0
 16  9  2  0
 17 21  1  0
 18 20  2  0
 19 17  2  0
 19 22  1  0
 21  3  1  0
 21 18  1  0
 22 20  1  0
 23 24  2  0
 24 43  1  0
 25 24  1  0
 25 28  1  0
 26 27  1  0
 26 23  1  0
 27 25  2  0
 28 29  1  0
 29 30  2  0
 31 34  1  0
 31 30  1  0
 32 31  2  0
 33 32  1  0
 33 28  2  0
 34 35  1  0
 35 36  1  0
 36 37  2  0
 38 37  1  0
 38 42  1  0
 39 38  2  0
 40 35  2  0
 40 39  1  0
 41 40  1  0
 43 44  1  0
 44 47  1  0
 44 46  1  0
 45 43  2  0
 48 23  1  0
 48 49  1  0
 50 48  1  0
 51 52  1  0
 51  2  1  0
 53 64  2  0
 54 52  1  0
 54 59  1  0
 55 63  1  0
 55 65  1  0
 56 62  1  0
 56 58  1  0
 57 63  1  0
 58 57  1  0
 59 58  2  0
 60 61  1  0
 60 54  2  0
 61 56  2  0
 62 55  1  0
 63 53  1  0
 65 67  2  0
 66 65  1  0
 68 66  1  0
 69 78  2  0
 69 74  1  0
 70 66  1  0
 70 74  1  0
 71 70  1  0
 72 73  1  0
 72 71  1  0
 73 69  1  0
 74 75  2  0
 75 76  1  0
 77 76  2  0
 78 77  1  0
 79 53  1  0
 79 80  1  0
 79 89  1  0
 80 83  1  0
 81 85  1  0
 81 80  1  0
 82 81  2  0
 85 84  1  0
 87 88  1  0
 87 85  1  0
 87 86  1  0
 89 92  1  1
 89 90  1  0
 91 89  1  0
M  ISO  4   9 100  22 100  51 101  52 101
M  END
>  <TORSDO>  (45) 
F 17

>  <SCORE>  (45) 
-14.866

>  <name>  (45) 
44

>  <ligand_id>  (45) 
44

>  <original_smiles>  (45) 
[H]c1nc(C([H])([H])[H])c(C([H])([H])Oc2c([H])c([H])c3c(c2[H])C([H])([H])N(C(=O)C([H])(N([H])C(=O)C([H])(N([H])C([H])([H])[H])C([H])([H])[H])C(C([H])([H])[H])(C([H])([H])[H])C([H])([H])[H])C([H])(C(=O)N([H])C2([H])c4c([H])c([H])c([H])c([H])c4C([H])([H])C([H])([H])C2([H])[H])C3([H])[H])c(F)c1N1C([H])([H])C([H])([H])N(C(=O)N2C([H])([H])C([H])([H])C([H])([H])C([H])(n3nc(-c4c([H])c([H])c(Oc5c([H])c([H])c(F)c([H])c5F)c([H])c4[H])c(C(=O)N([H])[H])c3N([H])[H])C2([H])[H])C([H])([H])C1([H])[H]

>  <smiles>  (45) 
[H]c1nc(C([H])([H])[H])c(C([H])([H])Oc2c([H])c([H])c3c(c2[H])C([H])([H])N(C(=O)C([H])(N([H])C(=O)C([H])(N([H])C([H])([H])[H])C([H])([H])[H])C(C([H])([H])[H])(C([H])([H])[H])C([H])([H])[H])C([H])(C(=O)N([H])C2([H])c4c([H])c([H])c([H])c([H])c4C([H])([H])C([H])([H])C2([H])[H])C3([H])[H])c(F)c1N1C([H])([H])C([H])([H])N(C(=O)N2C([H])([H])C([H])([H])C([H])([H])C([H])(n3nc(-c4c([H])c([H])c(Oc5c([H])c([H])c(F)c([H])c5F)c([H])c4[H])c(C(=O)N([H])[H])c3N([H])[H])C2([H])[H])C([H])([H])C1([H])[H]

$$$$
45:0:0
     RDKit          3D

 95104  0  0  1  0  0  0  0  0999 V2000
  -30.4940  -15.1940   20.3860 C   0  0  0  0  0  0  0  0  0  0  0  0
  -30.4170  -12.7930   19.5040 C   0  0  0  0  0  2  0  0  0  0  0  0
  -29.5140  -12.6980   18.2500 C   0  0  0  0  0  2  0  0  0  0  0  0
  -28.0460  -12.4670   18.6570 C   0  0  0  0  0  2  0  0  0  0  0  0
  -27.6060  -13.4120   19.8060 C   0  0  0  0  0  3  0  0  0  0  0  0
  -28.6380  -13.4680   20.9540 C   0  0  0  0  0  2  0  0  0  0  0  0
  -29.9060  -13.9130   20.3590 N   0  0  0  0  0  0  0  0  0  0  0  0
  -31.7160  -15.1940   20.1640 O   0  0  0  0  0  0  0  0  0  0  0  0
  -29.6170  -20.6050   18.7270 C   0  0  0  0  0  0  0  0  0  0  0  0
  -29.7440  -21.9140   18.1370 C   0  0  0  0  0  0  0  0  0  0  0  0
  -29.8220  -19.3940   17.9830 C   0  0  0  0  0  0  0  0  0  0  0  0
  -29.2130  -23.1110   18.7190 C   0  0  0  0  0  0  0  0  0  0  0  0
  -28.7430  -23.1530   20.0550 C   0  0  0  0  0  0  0  0  0  0  0  0
  -28.8210  -21.7910   20.7080 C   0  0  0  0  0  0  0  0  0  0  0  0
  -29.9930  -18.1130   18.6090 C   0  0  0  0  0  0  0  0  0  0  0  0
  -29.2520  -20.4750   20.0910 C   0  0  0  0  0  0  0  0  0  0  0  0
  -29.7500  -17.9190   20.0030 C   0  0  0  0  0  0  0  0  0  0  0  0
  -30.6350  -22.1050   16.9060 C   0  0  0  0  0  1  0  0  0  0  0  0
  -29.6240  -19.4040   16.4610 C   0  0  0  0  0  1  0  0  0  0  0  0
  -29.1280  -24.3810   17.8690 C   0  0  0  0  0  1  0  0  0  0  0  0
  -28.3940  -21.7430   22.1650 C   0  0  0  0  0  1  0  0  0  0  0  0
  -30.3730  -16.9150   17.7320 C   0  0  0  0  0  1  0  0  0  0  0  0
  -29.3290  -19.1380   20.6560 N   0  0  0  0  0  0  0  0  0  0  0  0
  -29.7260  -16.4250   20.5280 N   0  0  0  0  0  0  0  0  0  0  0  0
  -28.8330  -16.2160   20.9440 H   0  0  0  0  0  0  0  0  0  0  0  0
  -25.2190  -13.9950   20.4940 C   0  0  0  0  0  0  0  0  0  0  0  0
  -24.1490  -13.2260   20.8560 C   0  0  0  0  0  0  0  0  0  0  0  0
  -24.6110  -11.8730   20.8470 C   0  0  0  0  0  0  0  0  0  0  0  0
  -26.2640  -13.1130   20.2840 N   0  0  0  0  0  0  0  0  0  0  0  0
  -25.9080  -11.8330   20.5660 N   0  0  0  0  0  0  0  0  0  0  0  0
  -23.8760  -10.6160   21.0320 C   0  0  0  0  0  0  0  0  0  0  0  0
  -24.2890   -9.6540   21.9790 C   0  0  0  0  0  3  0  0  0  0  0  0
  -23.5540   -8.4610   22.1530 C   0  0  0  0  0  3  0  0  0  0  0  0
  -22.3910   -8.2240   21.3840 C   0  0  0  0  0  0  0  0  0  0  0  0
  -21.9960   -9.1780   20.4280 C   0  0  0  0  0  3  0  0  0  0  0  0
  -22.7310  -10.3610   20.2520 C   0  0  0  0  0  3  0  0  0  0  0  0
  -21.6260   -7.0850   21.4720 O   0  0  0  0  0  0  0  0  0  0  0  0
  -21.5580   -6.3490   22.6290 C   0  0  0  0  0  0  0  0  0  0  0  0
  -21.1290   -6.9140   23.8500 C   0  0  0  0  0  3  0  0  0  0  0  0
  -21.0060   -6.1030   24.9960 C   0  0  0  0  0  3  0  0  0  0  0  0
  -21.3080   -4.7300   24.9240 C   0  0  0  0  0  0  0  0  0  0  0  0
  -21.7270   -4.1640   23.7070 C   0  0  0  0  0  3  0  0  0  0  0  0
  -21.8520   -4.9720   22.5640 C   0  0  0  0  0  0  0  0  0  0  0  0
  -22.2370   -4.4180   21.3890 F   0  0  0  0  0  0  0  0  0  0  0  0
  -21.1840   -3.9500   26.0220 F   0  0  0  0  0  0  0  0  0  0  0  0
  -22.7490  -13.7100   21.0930 C   0  0  0  0  0  0  0  0  0  0  0  0
  -22.0010  -13.0280   21.9540 N   0  0  0  0  0  0  0  0  0  0  0  0
  -22.3290  -14.7290   20.5480 O   0  0  0  0  0  0  0  0  0  0  0  0
  -22.3530  -12.2020   22.4150 H   0  0  0  0  0  0  0  0  0  0  0  0
  -21.0620  -13.3380   22.1550 H   0  0  0  0  0  0  0  0  0  0  0  0
  -25.3840  -15.3640   20.2950 N   0  0  0  0  0  0  0  0  0  0  0  0
  -24.6050  -16.0090   20.3610 H   0  0  0  0  0  0  0  0  0  0  0  0
  -26.2060  -15.7850   19.8820 H   0  0  0  0  0  0  0  0  0  0  0  0
  -28.0940  -24.6050   20.6660 C   0  0  0  0  0  2  0  0  0  0  0  0
  -28.3580  -26.1250   20.2550 O   0  0  0  0  0  0  0  0  0  0  0  0
  -24.6900  -31.9240   23.2330 C   0  0  0  0  0  0  0  0  0  0  0  0
  -27.3140  -27.1480   20.2500 C   0  0  0  0  0  0  0  0  0  0  0  0
  -23.5140  -30.4960   21.6070 C   0  0  0  0  0  3  0  0  0  0  0  0
  -24.9790  -28.9170   20.1990 C   0  0  0  0  0  0  0  0  0  0  0  0
  -26.0720  -30.7690   21.4540 C   0  0  0  0  0  2  0  0  0  0  0  0
  -26.1600  -29.3680   20.8070 C   0  0  0  0  0  0  0  0  0  0  0  0
  -27.3290  -28.5020   20.8060 C   0  0  0  0  0  3  0  0  0  0  0  0
  -26.1060  -26.8210   19.6000 C   0  0  0  0  0  3  0  0  0  0  0  0
  -24.9690  -27.6590   19.5790 C   0  0  0  0  0  3  0  0  0  0  0  0
  -23.7500  -29.8140   20.2330 C   0  0  0  0  0  2  0  0  0  0  0  0
  -24.7790  -31.0900   22.1500 N   0  0  0  0  0  0  0  0  0  0  0  0
  -23.5990  -32.2000   23.7540 O   0  0  0  0  0  0  0  0  0  0  0  0
  -22.8400  -29.4910   22.5760 C   0  0  0  0  0  0  0  0  0  0  0  0
  -21.5130  -29.3040   22.4520 N   0  0  0  0  0  0  0  0  0  0  0  0
  -23.5180  -28.8830   23.4090 O   0  0  0  0  0  0  0  0  0  0  0  0
  -21.0240  -29.8520   21.7600 H   0  0  0  0  0  0  0  0  0  0  0  0
  -18.1490  -28.0530   22.9770 C   0  0  0  0  0  0  0  0  0  0  0  0
  -20.7050  -28.3620   23.2320 C   0  0  0  0  0  3  0  0  0  0  0  0
  -20.8220  -26.9260   22.6720 C   0  0  0  0  0  2  0  0  0  0  0  0
  -19.7230  -26.5750   21.6640 C   0  0  0  0  0  2  0  0  0  0  0  0
  -18.3410  -26.7040   22.3100 C   0  0  0  0  0  2  0  0  0  0  0  0
  -19.2570  -28.8410   23.3950 C   0  0  0  0  0  0  0  0  0  0  0  0
  -19.0150  -30.1010   23.9830 C   0  0  0  0  0  3  0  0  0  0  0  0
  -17.7010  -30.5810   24.1460 C   0  0  0  0  0  3  0  0  0  0  0  0
  -16.6100  -29.7940   23.7410 C   0  0  0  0  0  3  0  0  0  0  0  0
  -16.8340  -28.5300   23.1670 C   0  0  0  0  0  3  0  0  0  0  0  0
  -25.9540  -32.5860   23.8560 C   0  0  0  0  0  3  0  0  0  0  0  0
  -25.6160  -33.9810   24.1960 N   0  0  0  0  0  0  0  0  0  0  0  0
  -25.9020  -35.0460   23.4370 C   0  0  0  0  0  0  0  0  0  0  0  0
  -26.5500  -34.9640   22.3900 O   0  0  0  0  0  0  0  0  0  0  0  0
  -25.0520  -34.1190   25.0230 H   0  0  0  0  0  0  0  0  0  0  0  0
  -24.1210  -36.7980   23.1370 C   0  0  0  0  0  1  0  0  0  0  0  0
  -25.3940  -36.4220   23.9130 C   0  0  0  0  0  3  0  0  0  0  0  0
  -27.5280  -37.3580   24.6880 C   0  0  0  0  0  1  0  0  0  0  0  0
  -26.3970  -37.5010   23.7740 N   0  0  0  0  0  0  0  0  0  0  0  0
  -25.9720  -38.4110   23.9350 H   0  0  0  0  0  0  0  0  0  0  0  0
  -26.4880  -31.8300   25.1360 C   0  0  1  0  0  0  0  0  0  0  0  0
  -25.4040  -31.5700   26.2080 C   0  0  0  0  0  1  0  0  0  0  0  0
  -27.1010  -30.4640   24.7540 C   0  0  0  0  0  1  0  0  0  0  0  0
  -27.6270  -32.6510   25.7870 C   0  0  0  0  0  1  0  0  0  0  0  0
  1 24  1  0
  2  7  1  0
  3  4  1  0
  3  2  1  0
  5  4  1  0
  5 29  1  0
  5  6  1  0
  7  1  1  0
  7  6  1  0
  8  1  2  0
  9 16  1  0
 10 12  2  0
 10  9  1  0
 11 15  1  0
 11  9  2  0
 12 13  1  0
 13 54  1  0
 13 14  2  0
 14 21  1  0
 15 17  2  0
 16 23  2  0
 16 14  1  0
 17 24  1  0
 17 23  1  0
 18 10  1  0
 19 11  1  0
 20 12  1  0
 22 15  1  0
 24 25  1  0
 26 27  2  0
 27 46  1  0
 28 27  1  0
 28 31  1  0
 29 26  1  0
 29 30  1  0
 30 28  2  0
 31 32  1  0
 32 33  2  0
 34 37  1  0
 34 33  1  0
 35 34  2  0
 36 35  1  0
 36 31  2  0
 37 38  1  0
 38 39  1  0
 39 40  2  0
 41 40  1  0
 41 45  1  0
 42 41  2  0
 43 38  2  0
 43 42  1  0
 44 43  1  0
 46 47  1  0
 47 50  1  0
 47 49  1  0
 48 46  2  0
 51 52  1  0
 51 26  1  0
 53 51  1  0
 55 54  1  0
 56 67  2  0
 57 55  1  0
 57 62  1  0
 58 66  1  0
 58 68  1  0
 59 65  1  0
 59 61  1  0
 60 66  1  0
 61 60  1  0
 62 61  2  0
 63 57  2  0
 64 63  1  0
 64 59  2  0
 65 58  1  0
 66 56  1  0
 68 70  2  0
 69 68  1  0
 71 69  1  0
 72 81  2  0
 72 77  1  0
 73 69  1  0
 73 77  1  0
 74 73  1  0
 75 76  1  0
 75 74  1  0
 76 72  1  0
 77 78  2  0
 78 79  1  0
 80 79  2  0
 81 80  1  0
 82 56  1  0
 82 83  1  0
 82 92  1  0
 83 86  1  0
 84 88  1  0
 84 83  1  0
 85 84  2  0
 88 87  1  0
 90 88  1  0
 90 91  1  0
 90 89  1  0
 92 95  1  1
 92 93  1  0
 94 92  1  0
M  ISO  4   1 100  24 100  54 101  55 101
M  END
>  <TORSDO>  (46) 
F 16

>  <SCORE>  (46) 
-15.752

>  <name>  (46) 
45

>  <ligand_id>  (46) 
45

>  <original_smiles>  (46) 
[H]c1c([H])c([H])c2c(c1[H])C([H])([H])C([H])([H])C([H])([H])C2([H])N([H])C(=O)C1([H])N(C(=O)C([H])(N([H])C(=O)C([H])(N([H])C([H])([H])[H])C([H])([H])[H])C(C([H])([H])[H])(C([H])([H])[H])C([H])([H])[H])C([H])([H])c2c([H])c(OC([H])([H])c3c(C([H])([H])[H])c(C([H])([H])[H])c4c(C([H])([H])[H])c(C([H])([H])[H])c(N([H])C(=O)N5C([H])([H])C([H])([H])C([H])([H])C([H])(n6nc(-c7c([H])c([H])c(Oc8c([H])c([H])c(F)c([H])c8F)c([H])c7[H])c(C(=O)N([H])[H])c6N([H])[H])C5([H])[H])nc4c3C([H])([H])[H])c([H])c([H])c2C1([H])[H]

>  <smiles>  (46) 
[H]c1c([H])c([H])c2c(c1[H])C([H])([H])C([H])([H])C([H])([H])C2([H])N([H])C(=O)C1([H])N(C(=O)C([H])(N([H])C(=O)C([H])(N([H])C([H])([H])[H])C([H])([H])[H])C(C([H])([H])[H])(C([H])([H])[H])C([H])([H])[H])C([H])([H])c2c([H])c(OC([H])([H])c3c(C([H])([H])[H])c(C([H])([H])[H])c4c(C([H])([H])[H])c(C([H])([H])[H])c(N([H])C(=O)N5C([H])([H])C([H])([H])C([H])([H])C([H])(n6nc(-c7c([H])c([H])c(Oc8c([H])c([H])c(F)c([H])c8F)c([H])c7[H])c(C(=O)N([H])[H])c6N([H])[H])C5([H])[H])nc4c3C([H])([H])[H])c([H])c([H])c2C1([H])[H]

$$$$
46:0:0
     RDKit          3D

 94103  0  0  1  0  0  0  0  0999 V2000
  -29.9050  -21.5460   20.5380 C   0  0  0  0  0  3  0  0  0  0  0  0
  -29.7440  -22.9810   20.4470 C   0  0  0  0  0  0  0  0  0  0  0  0
  -27.9540  -22.6620   18.8850 C   0  0  0  0  0  0  0  0  0  0  0  0
  -28.7840  -23.6140   19.5880 C   0  0  0  0  0  0  0  0  0  0  0  0
  -28.1200  -21.2190   18.9950 C   0  0  0  0  0  0  0  0  0  0  0  0
  -29.1450  -20.6020   19.7840 C   0  0  0  0  0  0  0  0  0  0  0  0
  -30.6920  -23.8490   21.2530 C   0  0  0  0  0  1  0  0  0  0  0  0
  -26.8560  -23.1540   17.9410 C   0  0  0  0  0  1  0  0  0  0  0  0
  -27.1660  -20.2970   18.2340 C   0  0  0  0  0  1  0  0  0  0  0  0
  -30.8460  -14.8500   19.4960 C   0  0  0  0  0  0  0  0  0  0  0  0
  -30.4520  -12.5810   18.5050 C   0  0  0  0  0  2  0  0  0  0  0  0
  -29.3590  -12.6580   17.4170 C   0  0  0  0  0  2  0  0  0  0  0  0
  -27.9670  -12.4790   18.0480 C   0  0  0  0  0  2  0  0  0  0  0  0
  -27.7700  -13.3560   19.3130 C   0  0  0  0  0  3  0  0  0  0  0  0
  -28.9740  -13.2870   20.2750 C   0  0  0  0  0  2  0  0  0  0  0  0
  -30.1600  -13.6500   19.4940 N   0  0  0  0  0  0  0  0  0  0  0  0
  -31.9930  -14.8510   19.0340 O   0  0  0  0  0  0  0  0  0  0  0  0
  -29.5680  -18.4230   18.5120 C   0  0  0  0  0  2  0  0  0  0  0  0
  -30.5290  -17.1680   18.5850 C   0  0  0  0  0  2  0  0  0  0  0  0
  -29.5000  -16.7070   20.7310 C   0  0  0  0  0  2  0  0  0  0  0  0
  -29.6880  -18.2950   20.9620 C   0  0  0  0  0  3  0  0  0  0  0  0
  -28.8690  -18.7490   22.1800 C   0  0  0  0  0  1  0  0  0  0  0  0
  -29.4050  -19.1550   19.7820 N   0  0  0  0  0  0  0  0  0  0  0  0
  -30.1550  -16.0770   19.5410 N   0  0  0  0  0  0  0  0  0  0  0  0
  -25.5560  -13.9450   20.4520 C   0  0  0  0  0  0  0  0  0  0  0  0
  -24.5290  -13.1730   20.9210 C   0  0  0  0  0  0  0  0  0  0  0  0
  -24.9250  -11.8160   20.7110 C   0  0  0  0  0  0  0  0  0  0  0  0
  -26.5120  -13.0600   19.9860 N   0  0  0  0  0  0  0  0  0  0  0  0
  -26.1510  -11.7680   20.2030 N   0  0  0  0  0  0  0  0  0  0  0  0
  -24.1850  -10.5640   20.9100 C   0  0  0  0  0  0  0  0  0  0  0  0
  -24.6550   -9.5580   21.7820 C   0  0  0  0  0  3  0  0  0  0  0  0
  -23.9140   -8.3710   21.9710 C   0  0  0  0  0  3  0  0  0  0  0  0
  -22.6880   -8.1840   21.2900 C   0  0  0  0  0  0  0  0  0  0  0  0
  -22.2350   -9.1790   20.4060 C   0  0  0  0  0  3  0  0  0  0  0  0
  -22.9760  -10.3570   20.2150 C   0  0  0  0  0  3  0  0  0  0  0  0
  -21.9110   -7.0550   21.3950 O   0  0  0  0  0  0  0  0  0  0  0  0
  -21.8300   -6.3420   22.5630 C   0  0  0  0  0  0  0  0  0  0  0  0
  -21.3860   -6.9340   23.7660 C   0  0  0  0  0  3  0  0  0  0  0  0
  -21.2520   -6.1480   24.9290 C   0  0  0  0  0  3  0  0  0  0  0  0
  -21.5500   -4.7740   24.8890 C   0  0  0  0  0  0  0  0  0  0  0  0
  -21.9880   -4.1820   23.6890 C   0  0  0  0  0  3  0  0  0  0  0  0
  -22.1240   -4.9640   22.5300 C   0  0  0  0  0  0  0  0  0  0  0  0
  -22.5260   -4.3860   21.3720 F   0  0  0  0  0  0  0  0  0  0  0  0
  -21.4140   -4.0150   26.0020 F   0  0  0  0  0  0  0  0  0  0  0  0
  -23.2120  -13.6680   21.4410 C   0  0  0  0  0  0  0  0  0  0  0  0
  -22.6050  -12.9340   22.3670 N   0  0  0  0  0  0  0  0  0  0  0  0
  -22.7340  -14.7360   21.0610 O   0  0  0  0  0  0  0  0  0  0  0  0
  -23.0050  -12.0650   22.6870 H   0  0  0  0  0  0  0  0  0  0  0  0
  -21.7290  -13.2460   22.7620 H   0  0  0  0  0  0  0  0  0  0  0  0
  -25.7500  -15.3200   20.3590 N   0  0  0  0  0  0  0  0  0  0  0  0
  -25.0410  -15.9850   20.6460 H   0  0  0  0  0  0  0  0  0  0  0  0
  -26.5600  -15.7570   19.9420 H   0  0  0  0  0  0  0  0  0  0  0  0
  -28.8480  -25.2020   19.2160 C   0  0  0  0  0  2  0  0  0  0  0  0
  -28.5980  -26.3830   20.1240 O   0  0  0  0  0  0  0  0  0  0  0  0
  -24.5830  -31.6720   23.0800 C   0  0  0  0  0  0  0  0  0  0  0  0
  -27.4710  -27.2400   20.0070 C   0  0  0  0  0  0  0  0  0  0  0  0
  -23.4900  -30.2520   21.3850 C   0  0  0  0  0  3  0  0  0  0  0  0
  -25.0460  -28.7970   19.9620 C   0  0  0  0  0  0  0  0  0  0  0  0
  -26.0220  -30.6770   21.2770 C   0  0  0  0  0  2  0  0  0  0  0  0
  -26.1800  -29.3110   20.6020 C   0  0  0  0  0  0  0  0  0  0  0  0
  -27.3920  -28.5440   20.6170 C   0  0  0  0  0  3  0  0  0  0  0  0
  -26.3060  -26.7960   19.3500 C   0  0  0  0  0  3  0  0  0  0  0  0
  -25.1150  -27.5490   19.3270 C   0  0  0  0  0  3  0  0  0  0  0  0
  -23.7700  -29.6170   19.9970 C   0  0  0  0  0  2  0  0  0  0  0  0
  -24.7150  -30.8870   21.9700 N   0  0  0  0  0  0  0  0  0  0  0  0
  -23.4720  -31.8880   23.5910 O   0  0  0  0  0  0  0  0  0  0  0  0
  -22.8510  -29.1860   22.3100 C   0  0  0  0  0  0  0  0  0  0  0  0
  -21.5320  -28.9720   22.1710 N   0  0  0  0  0  0  0  0  0  0  0  0
  -23.5450  -28.5570   23.1140 O   0  0  0  0  0  0  0  0  0  0  0  0
  -21.0300  -29.5310   21.4950 H   0  0  0  0  0  0  0  0  0  0  0  0
  -18.1810  -27.6930   22.6620 C   0  0  0  0  0  0  0  0  0  0  0  0
  -20.7390  -27.9850   22.9080 C   0  0  0  0  0  3  0  0  0  0  0  0
  -20.8560  -26.5840   22.2650 C   0  0  0  0  0  2  0  0  0  0  0  0
  -19.7450  -26.2890   21.2520 C   0  0  0  0  0  2  0  0  0  0  0  0
  -18.3700  -26.3800   21.9190 C   0  0  0  0  0  2  0  0  0  0  0  0
  -19.2920  -28.4540   23.1110 C   0  0  0  0  0  0  0  0  0  0  0  0
  -19.0580  -29.6830   23.7650 C   0  0  0  0  0  3  0  0  0  0  0  0
  -17.7480  -30.1510   23.9730 C   0  0  0  0  0  3  0  0  0  0  0  0
  -16.6510  -29.3860   23.5390 C   0  0  0  0  0  3  0  0  0  0  0  0
  -16.8680  -28.1590   22.8890 C   0  0  0  0  0  3  0  0  0  0  0  0
  -25.8140  -32.3570   23.7460 C   0  0  0  0  0  3  0  0  0  0  0  0
  -25.4240  -33.7290   24.1020 N   0  0  0  0  0  0  0  0  0  0  0  0
  -25.6950  -34.8150   23.3660 C   0  0  0  0  0  0  0  0  0  0  0  0
  -26.3700  -34.7700   22.3330 O   0  0  0  0  0  0  0  0  0  0  0  0
  -24.8270  -33.8340   24.9080 H   0  0  0  0  0  0  0  0  0  0  0  0
  -23.8640  -36.5110   23.0480 C   0  0  0  0  0  1  0  0  0  0  0  0
  -25.1290  -36.1640   23.8500 C   0  0  0  0  0  3  0  0  0  0  0  0
  -27.2050  -37.1610   24.6980 C   0  0  0  0  0  1  0  0  0  0  0  0
  -26.0960  -37.2790   23.7560 N   0  0  0  0  0  0  0  0  0  0  0  0
  -25.6370  -38.1700   23.9140 H   0  0  0  0  0  0  0  0  0  0  0  0
  -26.3390  -31.5860   25.0200 C   0  0  1  0  0  0  0  0  0  0  0  0
  -25.2320  -31.2630   26.0510 C   0  0  0  0  0  1  0  0  0  0  0  0
  -27.0070  -30.2520   24.6170 C   0  0  0  0  0  1  0  0  0  0  0  0
  -27.4250  -32.4270   25.7310 C   0  0  0  0  0  1  0  0  0  0  0  0
  2  1  1  0
  2  7  1  0
  3  5  2  0
  3  4  1  0
  4  2  2  0
  5  6  1  0
  6  1  2  0
  8  3  1  0
  9  5  1  0
 10 24  1  0
 11 16  1  0
 12 13  1  0
 12 11  1  0
 14 13  1  0
 14 28  1  0
 14 15  1  0
 16 10  1  0
 16 15  1  0
 17 10  2  0
 18 19  1  0
 18 23  1  0
 19 24  1  0
 20 21  1  0
 21 22  1  0
 23  6  1  0
 23 21  1  0
 24 20  1  0
 25 26  2  0
 26 45  1  0
 27 30  1  0
 27 26  1  0
 28 29  1  0
 28 25  1  0
 29 27  2  0
 30 31  1  0
 31 32  2  0
 33 36  1  0
 33 32  1  0
 34 33  2  0
 35 34  1  0
 35 30  2  0
 36 37  1  0
 37 38  1  0
 38 39  2  0
 40 39  1  0
 40 44  1  0
 41 40  2  0
 42 37  2  0
 42 41  1  0
 43 42  1  0
 45 46  1  0
 46 48  1  0
 46 49  1  0
 47 45  2  0
 50 25  1  0
 50 51  1  0
 52 50  1  0
 53  4  1  0
 53 54  1  0
 55 66  2  0
 56 54  1  0
 56 61  1  0
 57 65  1  0
 57 67  1  0
 58 64  1  0
 58 60  1  0
 59 65  1  0
 60 61  2  0
 60 59  1  0
 62 56  2  0
 63 62  1  0
 63 58  2  0
 64 57  1  0
 65 55  1  0
 67 69  2  0
 68 67  1  0
 70 68  1  0
 71 80  2  0
 71 76  1  0
 72 68  1  0
 72 76  1  0
 73 72  1  0
 74 75  1  0
 74 73  1  0
 75 71  1  0
 76 77  2  0
 77 78  1  0
 79 78  2  0
 80 79  1  0
 81 55  1  0
 81 82  1  0
 81 91  1  0
 82 85  1  0
 83 87  1  0
 83 82  1  0
 84 83  2  0
 87 86  1  0
 89 87  1  0
 89 90  1  0
 89 88  1  0
 91 94  1  1
 91 92  1  0
 93 91  1  0
M  ISO  4  10 100  24 100  53 101  54 101
M  END
>  <TORSDO>  (47) 
F 17

>  <SCORE>  (47) 
-11.504

>  <name>  (47) 
46

>  <ligand_id>  (47) 
46

>  <original_smiles>  (47) 
[H]c1c([H])c([H])c2c(c1[H])C([H])([H])C([H])([H])C([H])([H])C2([H])N([H])C(=O)C1([H])N(C(=O)C([H])(N([H])C(=O)C([H])(N([H])C([H])([H])[H])C([H])([H])[H])C(C([H])([H])[H])(C([H])([H])[H])C([H])([H])[H])C([H])([H])c2c([H])c(OC([H])([H])c3c(C([H])([H])[H])c([H])c(N4C([H])([H])C([H])([H])N(C(=O)N5C([H])([H])C([H])([H])C([H])([H])C([H])(n6nc(-c7c([H])c([H])c(Oc8c([H])c([H])c(F)c([H])c8F)c([H])c7[H])c(C(=O)N([H])[H])c6N([H])[H])C5([H])[H])C([H])([H])C4([H])C([H])([H])[H])c(C([H])([H])[H])c3C([H])([H])[H])c([H])c([H])c2C1([H])[H]

>  <smiles>  (47) 
[H]c1c([H])c([H])c2c(c1[H])C([H])([H])C([H])([H])C([H])([H])C2([H])N([H])C(=O)C1([H])N(C(=O)C([H])(N([H])C(=O)C([H])(N([H])C([H])([H])[H])C([H])([H])[H])C(C([H])([H])[H])(C([H])([H])[H])C([H])([H])[H])C([H])([H])c2c([H])c(OC([H])([H])c3c(C([H])([H])[H])c([H])c(N4C([H])([H])C([H])([H])N(C(=O)N5C([H])([H])C([H])([H])C([H])([H])C([H])(n6nc(-c7c([H])c([H])c(Oc8c([H])c([H])c(F)c([H])c8F)c([H])c7[H])c(C(=O)N([H])[H])c6N([H])[H])C5([H])[H])C([H])([H])C4([H])C([H])([H])[H])c(C([H])([H])[H])c3C([H])([H])[H])c([H])c([H])c2C1([H])[H]

$$$$
47:0:0
     RDKit          3D

 99109  0  0  1  0  0  0  0  0999 V2000
  -28.6100  -20.6940   20.5760 C   0  0  0  0  0  2  0  0  0  0  0  0
  -29.6820  -20.6320   19.5040 C   0  0  0  0  0  3  0  0  0  0  0  0
  -29.4800  -21.9180   20.3840 C   0  0  0  0  0  3  0  0  0  0  0  0
  -30.9510  -19.7340   19.5730 C   0  0  0  0  0  0  0  0  0  0  0  0
  -32.2180  -20.3990   19.5240 C   0  0  0  0  0  0  0  0  0  0  0  0
  -33.4200  -19.6510   19.5990 C   0  0  0  0  0  0  0  0  0  0  0  0
  -31.0010  -18.2820   19.5880 C   0  0  0  0  0  0  0  0  0  0  0  0
  -33.3360  -18.2510   19.6770 C   0  0  0  0  0  0  0  0  0  0  0  0
  -32.3240  -21.9130   19.3440 C   0  0  0  0  0  1  0  0  0  0  0  0
  -34.8000  -20.3070   19.5590 C   0  0  0  0  0  1  0  0  0  0  0  0
  -34.5670  -17.3630   19.6770 C   0  0  0  0  0  1  0  0  0  0  0  0
  -32.1640  -17.6090   19.6980 N   0  0  0  0  0  0  0  0  0  0  0  0
  -30.6810  -14.7880   19.7300 C   0  0  0  0  0  0  0  0  0  0  0  0
  -30.5210  -12.4500   18.8750 C   0  0  0  0  0  2  0  0  0  0  0  0
  -29.5200  -12.4250   17.6960 C   0  0  0  0  0  2  0  0  0  0  0  0
  -28.0650  -12.2770   18.1960 C   0  0  0  0  0  2  0  0  0  0  0  0
  -27.7440  -13.2450   19.3640 C   0  0  0  0  0  3  0  0  0  0  0  0
  -28.8500  -13.1360   20.4380 C   0  0  0  0  0  2  0  0  0  0  0  0
  -30.1110  -13.5360   19.7940 N   0  0  0  0  0  0  0  0  0  0  0  0
  -31.7760  -14.9160   19.1680 O   0  0  0  0  0  0  0  0  0  0  0  0
  -28.7380  -17.5310   20.5920 C   0  0  0  0  0  2  0  0  0  0  0  0
  -29.0200  -16.1530   21.1580 C   0  0  0  0  0  2  0  0  0  0  0  0
  -29.7880  -17.3200   19.5100 C   0  0  0  0  0  3  0  0  0  0  0  0
  -29.8730  -15.8780   19.9930 N   0  0  0  0  0  0  0  0  0  0  0  0
  -25.4000  -13.9180   20.1760 C   0  0  0  0  0  0  0  0  0  0  0  0
  -24.3350  -13.1740   20.6080 C   0  0  0  0  0  0  0  0  0  0  0  0
  -24.7630  -11.8130   20.5680 C   0  0  0  0  0  0  0  0  0  0  0  0
  -26.4120  -13.0080   19.9090 N   0  0  0  0  0  0  0  0  0  0  0  0
  -26.0350  -11.7390   20.2010 N   0  0  0  0  0  0  0  0  0  0  0  0
  -24.0190  -10.5700   20.8040 C   0  0  0  0  0  0  0  0  0  0  0  0
  -24.4420   -9.6290   21.7680 C   0  0  0  0  0  3  0  0  0  0  0  0
  -23.7010   -8.4480   21.9900 C   0  0  0  0  0  3  0  0  0  0  0  0
  -22.5240   -8.2000   21.2430 C   0  0  0  0  0  0  0  0  0  0  0  0
  -22.1190   -9.1290   20.2690 C   0  0  0  0  0  3  0  0  0  0  0  0
  -22.8610  -10.3010   20.0450 C   0  0  0  0  0  3  0  0  0  0  0  0
  -21.7540   -7.0670   21.3740 O   0  0  0  0  0  0  0  0  0  0  0  0
  -21.6530   -6.3970   22.5670 C   0  0  0  0  0  0  0  0  0  0  0  0
  -21.1990   -7.0330   23.7440 C   0  0  0  0  0  3  0  0  0  0  0  0
  -21.0470   -6.2910   24.9310 C   0  0  0  0  0  3  0  0  0  0  0  0
  -21.3390   -4.9150   24.9460 C   0  0  0  0  0  0  0  0  0  0  0  0
  -21.7880   -4.2790   23.7750 C   0  0  0  0  0  3  0  0  0  0  0  0
  -21.9440   -5.0180   22.5890 C   0  0  0  0  0  0  0  0  0  0  0  0
  -22.3540   -4.3960   21.4570 F   0  0  0  0  0  0  0  0  0  0  0  0
  -21.1870   -4.1980   26.0840 F   0  0  0  0  0  0  0  0  0  0  0  0
  -22.9630  -13.6840   20.9490 C   0  0  0  0  0  0  0  0  0  0  0  0
  -22.2770  -13.0250   21.8760 N   0  0  0  0  0  0  0  0  0  0  0  0
  -22.5090  -14.7040   20.4300 O   0  0  0  0  0  0  0  0  0  0  0  0
  -22.6560  -12.1980   22.3130 H   0  0  0  0  0  0  0  0  0  0  0  0
  -21.3600  -13.3500   22.1480 H   0  0  0  0  0  0  0  0  0  0  0  0
  -25.5930  -15.2810   19.9760 N   0  0  0  0  0  0  0  0  0  0  0  0
  -24.8580  -15.9670   20.1100 H   0  0  0  0  0  0  0  0  0  0  0  0
  -26.4470  -15.6770   19.6080 H   0  0  0  0  0  0  0  0  0  0  0  0
  -28.7990  -23.1180   19.7490 N   0  0  0  0  0  4  0  0  0  0  0  0
  -28.2570  -22.7830   18.9690 H   0  0  0  0  0  0  0  0  0  0  0  0
  -29.5010  -23.7190   19.3470 H   0  0  0  0  0  0  0  0  0  0  0  0
  -27.8730  -23.9760   20.5890 C   0  0  0  0  0  2  0  0  0  0  0  0
  -29.7620  -25.3480   21.7220 C   0  0  0  0  0  1  0  0  0  0  0  0
  -28.3610  -25.4030   21.0990 C   0  0  0  0  0  3  0  0  0  0  0  0
  -28.3130  -26.5770   20.2140 O   0  0  0  0  0  0  0  0  0  0  0  0
  -24.5460  -31.9400   23.2410 C   0  0  0  0  0  0  0  0  0  0  0  0
  -27.1740  -27.3830   20.2410 C   0  0  0  0  0  0  0  0  0  0  0  0
  -23.3460  -30.5300   21.6040 C   0  0  0  0  0  3  0  0  0  0  0  0
  -24.8020  -28.9580   20.2080 C   0  0  0  0  0  0  0  0  0  0  0  0
  -25.8810  -30.8550   21.4230 C   0  0  0  0  0  2  0  0  0  0  0  0
  -25.9640  -29.4680   20.8010 C   0  0  0  0  0  0  0  0  0  0  0  0
  -27.1570  -28.6910   20.8060 C   0  0  0  0  0  3  0  0  0  0  0  0
  -25.9920  -26.9080   19.6390 C   0  0  0  0  0  3  0  0  0  0  0  0
  -24.8140  -27.6820   19.6210 C   0  0  0  0  0  3  0  0  0  0  0  0
  -23.5650  -29.8340   20.2350 C   0  0  0  0  0  2  0  0  0  0  0  0
  -24.6100  -31.1260   22.1480 N   0  0  0  0  0  0  0  0  0  0  0  0
  -23.4600  -32.2240   23.7690 O   0  0  0  0  0  0  0  0  0  0  0  0
  -22.6760  -29.5260   22.5720 C   0  0  0  0  0  0  0  0  0  0  0  0
  -21.3570  -29.3220   22.4110 N   0  0  0  0  0  0  0  0  0  0  0  0
  -23.3410  -28.9310   23.4230 O   0  0  0  0  0  0  0  0  0  0  0  0
  -20.8800  -29.8540   21.6960 H   0  0  0  0  0  0  0  0  0  0  0  0
  -18.0000  -28.0320   22.7920 C   0  0  0  0  0  0  0  0  0  0  0  0
  -20.5320  -28.3880   23.1780 C   0  0  0  0  0  3  0  0  0  0  0  0
  -20.7090  -26.9400   22.6680 C   0  0  0  0  0  2  0  0  0  0  0  0
  -19.6710  -26.5390   21.6140 C   0  0  0  0  0  2  0  0  0  0  0  0
  -18.2540  -26.6630   22.1840 C   0  0  0  0  0  2  0  0  0  0  0  0
  -19.0700  -28.8480   23.2440 C   0  0  0  0  0  0  0  0  0  0  0  0
  -18.7820  -30.1250   23.7720 C   0  0  0  0  0  3  0  0  0  0  0  0
  -17.4540  -30.5880   23.8520 C   0  0  0  0  0  3  0  0  0  0  0  0
  -16.3980  -29.7700   23.4170 C   0  0  0  0  0  3  0  0  0  0  0  0
  -16.6710  -28.4940   22.8930 C   0  0  0  0  0  3  0  0  0  0  0  0
  -25.8270  -32.5730   23.8670 C   0  0  0  0  0  3  0  0  0  0  0  0
  -26.3390  -31.8010   25.1440 C   0  0  1  0  0  0  0  0  0  0  0  0
  -25.2450  -31.5640   26.2110 C   0  0  0  0  0  1  0  0  0  0  0  0
  -26.9200  -30.4220   24.7510 C   0  0  0  0  0  1  0  0  0  0  0  0
  -27.4910  -32.5920   25.8070 C   0  0  0  0  0  1  0  0  0  0  0  0
  -25.5180  -33.9710   24.1960 N   0  0  0  0  0  0  0  0  0  0  0  0
  -25.8580  -35.0230   23.4380 C   0  0  0  0  0  0  0  0  0  0  0  0
  -26.5320  -34.9170   22.4110 O   0  0  0  0  0  0  0  0  0  0  0  0
  -24.9190  -34.1270   24.9930 H   0  0  0  0  0  0  0  0  0  0  0  0
  -24.1330  -36.8190   23.0780 C   0  0  0  0  0  1  0  0  0  0  0  0
  -25.3720  -36.4140   23.8930 C   0  0  0  0  0  3  0  0  0  0  0  0
  -27.5090  -37.2940   24.7220 C   0  0  0  0  0  1  0  0  0  0  0  0
  -26.4070  -37.4640   23.7790 N   0  0  0  0  0  0  0  0  0  0  0  0
  -26.0040  -38.3850   23.9240 H   0  0  0  0  0  0  0  0  0  0  0  0
  2  4  1  0
  2  3  1  0
  2  1  1  0
  3 53  1  0
  3  1  1  0
  4  7  1  0
  5  4  2  0
  5  6  1  0
  6  8  2  0
  7 12  2  0
  8 12  1  0
  9  5  1  0
 10  6  1  0
 11  8  1  0
 13 19  1  0
 13 24  1  0
 14 19  1  0
 15 16  1  0
 15 14  1  0
 17 16  1  0
 17 28  1  0
 17 18  1  0
 19 18  1  0
 20 13  2  0
 21 22  1  0
 23  7  1  0
 23 24  1  0
 23 21  1  0
 24 22  1  0
 25 26  2  0
 26 45  1  0
 27 26  1  0
 27 30  1  0
 28 25  1  0
 28 29  1  0
 29 27  2  0
 30 31  1  0
 31 32  2  0
 33 36  1  0
 33 32  1  0
 34 33  2  0
 35 34  1  0
 35 30  2  0
 36 37  1  0
 37 42  2  0
 37 38  1  0
 38 39  2  0
 39 40  1  0
 40 44  1  0
 41 40  2  0
 42 41  1  0
 43 42  1  0
 45 46  1  0
 46 49  1  0
 46 48  1  0
 47 45  2  0
 50 51  1  0
 50 25  1  0
 52 50  1  0
 53 56  1  0
 54 53  1  0
 55 53  1  0
 56 58  1  0
 58 57  1  0
 59 61  1  0
 59 58  1  0
 60 71  2  0
 61 66  1  0
 62 70  1  0
 62 72  1  0
 63 69  1  0
 63 65  1  0
 64 70  1  0
 65 66  2  0
 65 64  1  0
 67 61  2  0
 68 67  1  0
 68 63  2  0
 69 62  1  0
 70 60  1  0
 72 74  2  0
 73 72  1  0
 75 73  1  0
 76 85  2  0
 76 81  1  0
 77 73  1  0
 77 81  1  0
 78 77  1  0
 79 80  1  0
 79 78  1  0
 80 76  1  0
 81 82  2  0
 82 83  1  0
 84 83  2  0
 85 84  1  0
 86 60  1  0
 86 91  1  0
 86 87  1  0
 87 90  1  1
 87 88  1  0
 89 87  1  0
 91 94  1  0
 92 96  1  0
 92 91  1  0
 93 92  2  0
 96 95  1  0
 98 96  1  0
 98 99  1  0
 98 97  1  0
M  ISO  4  13 100  24 100  58 101  59 101
M  END
>  <TORSDO>  (48) 
F 20

>  <SCORE>  (48) 
-13.626

>  <name>  (48) 
47

>  <ligand_id>  (48) 
47

>  <original_smiles>  (48) 
[H]c1c([H])c([H])c2c(c1[H])C([H])([H])C([H])([H])C([H])([H])C2([H])N([H])C(=O)C1([H])N(C(=O)C([H])(N([H])C(=O)C([H])(N([H])C([H])([H])[H])C([H])([H])[H])C(C([H])([H])[H])(C([H])([H])[H])C([H])([H])[H])C([H])([H])c2c([H])c(OC([H])(C([H])([H])[H])C([H])([H])[N+]([H])([H])C3([H])C([H])([H])C3([H])c3c(C4([H])N(C(=O)N5C([H])([H])C([H])([H])C([H])([H])C([H])(n6nc(-c7c([H])c([H])c(Oc8c([H])c([H])c(F)c([H])c8F)c([H])c7[H])c(C(=O)N([H])[H])c6N([H])[H])C5([H])[H])C([H])([H])C4([H])[H])nc(C([H])([H])[H])c(C([H])([H])[H])c3C([H])([H])[H])c([H])c([H])c2C1([H])[H]

>  <smiles>  (48) 
[H]c1c([H])c([H])c2c(c1[H])C([H])([H])C([H])([H])C([H])([H])C2([H])N([H])C(=O)C1([H])N(C(=O)C([H])(N([H])C(=O)C([H])(N([H])C([H])([H])[H])C([H])([H])[H])C(C([H])([H])[H])(C([H])([H])[H])C([H])([H])[H])C([H])([H])c2c([H])c(OC([H])(C([H])([H])[H])C([H])([H])[N+]([H])([H])C3([H])C([H])([H])C3([H])c3c(C4([H])N(C(=O)N5C([H])([H])C([H])([H])C([H])([H])C([H])(n6nc(-c7c([H])c([H])c(Oc8c([H])c([H])c(F)c([H])c8F)c([H])c7[H])c(C(=O)N([H])[H])c6N([H])[H])C5([H])[H])C([H])([H])C4([H])[H])nc(C([H])([H])[H])c(C([H])([H])[H])c3C([H])([H])[H])c([H])c([H])c2C1([H])[H]

$$$$
48:0:0
     RDKit          3D

 95104  0  0  1  0  0  0  0  0999 V2000
  -31.2680  -21.8270   21.4190 C   0  0  0  0  0  0  0  0  0  0  0  0
  -30.3350  -22.8530   21.1260 C   0  0  0  0  0  0  0  0  0  0  0  0
  -30.9340  -20.4750   21.1510 C   0  0  0  0  0  0  0  0  0  0  0  0
  -29.1110  -22.5230   20.4880 C   0  0  0  0  0  0  0  0  0  0  0  0
  -29.6690  -20.1640   20.5930 C   0  0  0  0  0  0  0  0  0  0  0  0
  -32.6120  -22.1800   22.0600 C   0  0  0  0  0  1  0  0  0  0  0  0
  -30.6570  -24.2920   21.5350 C   0  0  0  0  0  1  0  0  0  0  0  0
  -31.9570  -19.3860   21.4770 C   0  0  0  0  0  1  0  0  0  0  0  0
  -28.8050  -21.1880   20.2530 N   0  0  0  0  0  0  0  0  0  0  0  0
  -30.6720  -14.6080   19.9920 C   0  0  0  0  0  0  0  0  0  0  0  0
  -30.3670  -12.3740   18.9360 C   0  0  0  0  0  2  0  0  0  0  0  0
  -29.3540  -12.4820   17.7780 C   0  0  0  0  0  2  0  0  0  0  0  0
  -27.9160  -12.3020   18.3010 C   0  0  0  0  0  2  0  0  0  0  0  0
  -27.6240  -13.1530   19.5670 C   0  0  0  0  0  3  0  0  0  0  0  0
  -28.7570  -13.0490   20.6100 C   0  0  0  0  0  2  0  0  0  0  0  0
  -30.0040  -13.4080   19.9300 N   0  0  0  0  0  0  0  0  0  0  0  0
  -31.8380  -14.6700   19.5860 O   0  0  0  0  0  0  0  0  0  0  0  0
  -29.0600  -17.8460   21.5170 C   0  0  0  0  0  2  0  0  0  0  0  0
  -29.3100  -18.1250   19.0990 C   0  0  0  0  0  2  0  0  0  0  0  0
  -29.8030  -16.4450   21.4390 C   0  0  0  0  0  2  0  0  0  0  0  0
  -30.1950  -16.8290   19.0680 C   0  0  0  0  0  2  0  0  0  0  0  0
  -29.2940  -18.7830   20.4030 N   0  0  0  0  0  0  0  0  0  0  0  0
  -29.9430  -15.7870   20.1100 N   0  0  0  0  0  0  0  0  0  0  0  0
  -25.2890  -13.6960   20.4740 C   0  0  0  0  0  0  0  0  0  0  0  0
  -24.2590  -12.9010   20.8950 C   0  0  0  0  0  0  0  0  0  0  0  0
  -24.7320  -11.5570   20.7980 C   0  0  0  0  0  0  0  0  0  0  0  0
  -26.3220  -12.8360   20.1440 N   0  0  0  0  0  0  0  0  0  0  0  0
  -25.9990  -11.5410   20.4000 N   0  0  0  0  0  0  0  0  0  0  0  0
  -24.0320  -10.2810   21.0030 C   0  0  0  0  0  0  0  0  0  0  0  0
  -24.4850   -9.3350   21.9490 C   0  0  0  0  0  3  0  0  0  0  0  0
  -23.7860   -8.1240   22.1430 C   0  0  0  0  0  3  0  0  0  0  0  0
  -22.6190   -7.8500   21.3880 C   0  0  0  0  0  0  0  0  0  0  0  0
  -22.1860   -8.7850   20.4320 C   0  0  0  0  0  3  0  0  0  0  0  0
  -22.8870   -9.9870   20.2370 C   0  0  0  0  0  3  0  0  0  0  0  0
  -21.8890   -6.6910   21.4920 O   0  0  0  0  0  0  0  0  0  0  0  0
  -21.7770   -6.0130   22.6790 C   0  0  0  0  0  0  0  0  0  0  0  0
  -21.2230   -6.6130   23.8300 C   0  0  0  0  0  3  0  0  0  0  0  0
  -21.0630   -5.8580   25.0100 C   0  0  0  0  0  3  0  0  0  0  0  0
  -21.4470   -4.5030   25.0370 C   0  0  0  0  0  0  0  0  0  0  0  0
  -21.9930   -3.9030   23.8880 C   0  0  0  0  0  3  0  0  0  0  0  0
  -22.1540   -4.6560   22.7120 C   0  0  0  0  0  0  0  0  0  0  0  0
  -22.6610   -4.0650   21.6030 F   0  0  0  0  0  0  0  0  0  0  0  0
  -21.2860   -3.7760   26.1670 F   0  0  0  0  0  0  0  0  0  0  0  0
  -22.8780  -13.3550   21.2700 C   0  0  0  0  0  0  0  0  0  0  0  0
  -22.2130  -12.6320   22.1630 N   0  0  0  0  0  0  0  0  0  0  0  0
  -22.3980  -14.3880   20.8060 O   0  0  0  0  0  0  0  0  0  0  0  0
  -22.6130  -11.7960   22.5640 H   0  0  0  0  0  0  0  0  0  0  0  0
  -21.2890  -12.9200   22.4530 H   0  0  0  0  0  0  0  0  0  0  0  0
  -25.4290  -15.0730   20.3230 N   0  0  0  0  0  0  0  0  0  0  0  0
  -24.6690  -15.7170   20.5090 H   0  0  0  0  0  0  0  0  0  0  0  0
  -26.2580  -15.5300   19.9630 H   0  0  0  0  0  0  0  0  0  0  0  0
  -27.0970  -23.8790   21.3640 C   0  0  0  0  0  1  0  0  0  0  0  0
  -28.0270  -23.6430   20.1620 C   0  0  0  0  0  3  0  0  0  0  0  0
  -28.4400  -25.0240   19.4250 C   0  0  0  0  0  2  0  0  0  0  0  0
  -28.3550  -26.3790   20.0430 O   0  0  0  0  0  0  0  0  0  0  0  0
  -24.5940  -31.7090   23.1180 C   0  0  0  0  0  0  0  0  0  0  0  0
  -27.2190  -27.2070   19.9740 C   0  0  0  0  0  0  0  0  0  0  0  0
  -23.3990  -30.3450   21.4410 C   0  0  0  0  0  3  0  0  0  0  0  0
  -24.8550  -28.8250   19.9850 C   0  0  0  0  0  0  0  0  0  0  0  0
  -25.9380  -30.6670   21.2760 C   0  0  0  0  0  2  0  0  0  0  0  0
  -26.0190  -29.3020   20.5980 C   0  0  0  0  0  0  0  0  0  0  0  0
  -27.2010  -28.5020   20.5840 C   0  0  0  0  0  3  0  0  0  0  0  0
  -26.0280  -26.7800   19.3460 C   0  0  0  0  0  3  0  0  0  0  0  0
  -24.8610  -27.5710   19.3510 C   0  0  0  0  0  3  0  0  0  0  0  0
  -23.6190  -29.7010   20.0460 C   0  0  0  0  0  2  0  0  0  0  0  0
  -24.6630  -30.9240   22.0030 N   0  0  0  0  0  0  0  0  0  0  0  0
  -23.5090  -31.9730   23.6550 O   0  0  0  0  0  0  0  0  0  0  0  0
  -22.7330  -29.3070   22.3750 C   0  0  0  0  0  0  0  0  0  0  0  0
  -21.4030  -29.1610   22.2660 N   0  0  0  0  0  0  0  0  0  0  0  0
  -23.4130  -28.6400   23.1600 O   0  0  0  0  0  0  0  0  0  0  0  0
  -20.9150  -29.7510   21.6060 H   0  0  0  0  0  0  0  0  0  0  0  0
  -18.0050  -28.0430   22.8120 C   0  0  0  0  0  0  0  0  0  0  0  0
  -20.5770  -28.2120   23.0160 C   0  0  0  0  0  3  0  0  0  0  0  0
  -20.6180  -26.8070   22.3710 C   0  0  0  0  0  2  0  0  0  0  0  0
  -19.4770  -26.5650   21.3780 C   0  0  0  0  0  2  0  0  0  0  0  0
  -18.1200  -26.7220   22.0690 C   0  0  0  0  0  2  0  0  0  0  0  0
  -19.1580  -28.7500   23.2440 C   0  0  0  0  0  0  0  0  0  0  0  0
  -18.9960  -29.9890   23.9000 C   0  0  0  0  0  3  0  0  0  0  0  0
  -17.7120  -30.5200   24.1300 C   0  0  0  0  0  3  0  0  0  0  0  0
  -16.5730  -29.8080   23.7140 C   0  0  0  0  0  3  0  0  0  0  0  0
  -16.7200  -28.5710   23.0620 C   0  0  0  0  0  3  0  0  0  0  0  0
  -25.8730  -32.3280   23.7590 C   0  0  0  0  0  3  0  0  0  0  0  0
  -25.5580  -33.7170   24.1270 N   0  0  0  0  0  0  0  0  0  0  0  0
  -25.8840  -34.7910   23.3940 C   0  0  0  0  0  0  0  0  0  0  0  0
  -26.5490  -34.7170   22.3590 O   0  0  0  0  0  0  0  0  0  0  0  0
  -24.9690  -33.8480   24.9360 H   0  0  0  0  0  0  0  0  0  0  0  0
  -24.1500  -36.5890   23.0920 C   0  0  0  0  0  1  0  0  0  0  0  0
  -25.3930  -36.1650   23.8910 C   0  0  0  0  0  3  0  0  0  0  0  0
  -27.5210  -37.0370   24.7510 C   0  0  0  0  0  1  0  0  0  0  0  0
  -26.4220  -37.2240   23.8070 N   0  0  0  0  0  0  0  0  0  0  0  0
  -26.0130  -38.1400   23.9750 H   0  0  0  0  0  0  0  0  0  0  0  0
  -26.3880  -31.5280   25.0190 C   0  0  1  0  0  0  0  0  0  0  0  0
  -25.2910  -31.2600   26.0760 C   0  0  0  0  0  1  0  0  0  0  0  0
  -26.9780  -30.1640   24.5940 C   0  0  0  0  0  1  0  0  0  0  0  0
  -27.5330  -32.3100   25.7050 C   0  0  0  0  0  1  0  0  0  0  0  0
  1  6  1  0
  2  1  2  0
  2  7  1  0
  3  1  1  0
  3  8  1  0
  4  2  1  0
  5  3  2  0
  9  4  2  0
  9  5  1  0
 10 23  1  0
 11 16  1  0
 12 13  1  0
 12 11  1  0
 14 13  1  0
 14 27  1  0
 14 15  1  0
 16 10  1  0
 16 15  1  0
 17 10  2  0
 19 22  1  0
 20 18  1  0
 21 19  1  0
 21 23  1  0
 22  5  1  0
 22 18  1  0
 23 20  1  0
 24 25  2  0
 25 44  1  0
 26 25  1  0
 26 29  1  0
 27 28  1  0
 27 24  1  0
 28 26  2  0
 29 30  1  0
 30 31  2  0
 32 35  1  0
 32 31  1  0
 33 32  2  0
 34 33  1  0
 34 29  2  0
 35 36  1  0
 36 41  2  0
 36 37  1  0
 37 38  2  0
 38 39  1  0
 39 43  1  0
 40 39  2  0
 41 40  1  0
 42 41  1  0
 44 45  1  0
 45 48  1  0
 45 47  1  0
 46 44  2  0
 49 24  1  0
 49 50  1  0
 51 49  1  0
 53  4  1  0
 53 52  1  0
 54 55  1  0
 54 53  1  0
 56 67  2  0
 57 55  1  0
 57 62  1  0
 58 66  1  0
 58 68  1  0
 59 65  1  0
 59 61  1  0
 60 66  1  0
 61 60  1  0
 62 61  2  0
 63 64  1  0
 63 57  2  0
 64 59  2  0
 65 58  1  0
 66 56  1  0
 68 70  2  0
 69 68  1  0
 71 69  1  0
 72 81  2  0
 72 77  1  0
 73 69  1  0
 73 77  1  0
 74 73  1  0
 75 76  1  0
 75 74  1  0
 76 72  1  0
 77 78  2  0
 78 79  1  0
 80 79  2  0
 81 80  1  0
 82 56  1  0
 82 83  1  0
 82 92  1  0
 83 86  1  0
 84 88  1  0
 84 83  1  0
 85 84  2  0
 88 87  1  0
 90 88  1  0
 90 91  1  0
 90 89  1  0
 92 95  1  1
 92 93  1  0
 94 92  1  0
M  ISO  4  10 100  23 100  54 101  55 101
M  END
>  <TORSDO>  (49) 
F 18

>  <SCORE>  (49) 
-13.218

>  <name>  (49) 
48

>  <ligand_id>  (49) 
48

>  <original_smiles>  (49) 
[H]c1c([H])c([H])c2c(c1[H])C([H])([H])C([H])([H])C([H])([H])C2([H])N([H])C(=O)C1([H])N(C(=O)C([H])(N([H])C(=O)C([H])(N([H])C([H])([H])[H])C([H])([H])[H])C(C([H])([H])[H])(C([H])([H])[H])C([H])([H])[H])C([H])([H])c2c([H])c(OC([H])([H])C([H])(c3nc(N4C([H])([H])C([H])([H])N(C(=O)N5C([H])([H])C([H])([H])C([H])([H])C([H])(n6nc(-c7c([H])c([H])c(Oc8c([H])c([H])c(F)c([H])c8F)c([H])c7[H])c(C(=O)N([H])[H])c6N([H])[H])C5([H])[H])C([H])([H])C4([H])[H])c(C([H])([H])[H])c(C([H])([H])[H])c3C([H])([H])[H])C([H])([H])[H])c([H])c([H])c2C1([H])[H]

>  <smiles>  (49) 
[H]c1c([H])c([H])c2c(c1[H])C([H])([H])C([H])([H])C([H])([H])C2([H])N([H])C(=O)C1([H])N(C(=O)C([H])(N([H])C(=O)C([H])(N([H])C([H])([H])[H])C([H])([H])[H])C(C([H])([H])[H])(C([H])([H])[H])C([H])([H])[H])C([H])([H])c2c([H])c(OC([H])([H])C([H])(c3nc(N4C([H])([H])C([H])([H])N(C(=O)N5C([H])([H])C([H])([H])C([H])([H])C([H])(n6nc(-c7c([H])c([H])c(Oc8c([H])c([H])c(F)c([H])c8F)c([H])c7[H])c(C(=O)N([H])[H])c6N([H])[H])C5([H])[H])C([H])([H])C4([H])[H])c(C([H])([H])[H])c(C([H])([H])[H])c3C([H])([H])[H])C([H])([H])[H])c([H])c([H])c2C1([H])[H]

$$$$
49:0:0
     RDKit          3D

 92101  0  0  1  0  0  0  0  0999 V2000
  -29.6140  -22.9380   20.8170 C   0  0  0  0  0  3  0  0  0  0  0  0
  -29.6300  -20.4530   20.1060 C   0  0  0  0  0  0  0  0  0  0  0  0
  -30.0210  -21.5480   20.9750 C   0  0  0  0  0  0  0  0  0  0  0  0
  -28.8340  -23.4390   19.7310 C   0  0  0  0  0  0  0  0  0  0  0  0
  -28.8940  -20.9560   18.9750 C   0  0  0  0  0  0  0  0  0  0  0  0
  -28.5440  -22.3760   18.7850 C   0  0  0  0  0  0  0  0  0  0  0  0
  -30.9920  -21.2690   22.1010 C   0  0  0  0  0  1  0  0  0  0  0  0
  -28.5360  -19.8990   17.9360 C   0  0  0  0  0  1  0  0  0  0  0  0
  -27.8770  -22.8370   17.4850 C   0  0  0  0  0  1  0  0  0  0  0  0
  -30.6670  -14.9680   19.9510 C   0  0  0  0  0  0  0  0  0  0  0  0
  -30.3860  -12.6660   18.9330 C   0  0  0  0  0  2  0  0  0  0  0  0
  -29.3700  -12.6890   17.7700 C   0  0  0  0  0  2  0  0  0  0  0  0
  -27.9490  -12.4590   18.3060 C   0  0  0  0  0  2  0  0  0  0  0  0
  -27.6380  -13.3530   19.5340 C   0  0  0  0  0  3  0  0  0  0  0  0
  -28.7760  -13.3320   20.5830 C   0  0  0  0  0  2  0  0  0  0  0  0
  -30.0110  -13.7370   19.9020 N   0  0  0  0  0  0  0  0  0  0  0  0
  -31.8060  -15.0150   19.4770 O   0  0  0  0  0  0  0  0  0  0  0  0
  -29.7310  -18.2350   21.7410 C   0  0  0  0  0  2  0  0  0  0  0  0
  -30.0450  -16.6920   21.6820 C   0  0  0  0  0  2  0  0  0  0  0  0
  -29.8860  -17.5040   19.4980 C   0  0  0  0  0  2  0  0  0  0  0  0
  -30.0960  -18.8650   20.3830 C   0  0  0  0  0  3  0  0  0  0  0  0
  -30.0010  -16.1810   20.2950 N   0  0  0  0  0  0  0  0  0  0  0  0
  -25.3150  -13.9120   20.4440 C   0  0  0  0  0  0  0  0  0  0  0  0
  -24.2750  -13.1290   20.8550 C   0  0  0  0  0  0  0  0  0  0  0  0
  -24.7290  -11.7760   20.7510 C   0  0  0  0  0  0  0  0  0  0  0  0
  -26.3380  -13.0410   20.1130 N   0  0  0  0  0  0  0  0  0  0  0  0
  -26.0010  -11.7500   20.3630 N   0  0  0  0  0  0  0  0  0  0  0  0
  -24.0100  -10.5110   20.9470 C   0  0  0  0  0  0  0  0  0  0  0  0
  -24.4680   -9.5320   21.8560 C   0  0  0  0  0  3  0  0  0  0  0  0
  -23.7450   -8.3340   22.0460 C   0  0  0  0  0  3  0  0  0  0  0  0
  -22.5480   -8.1050   21.3280 C   0  0  0  0  0  0  0  0  0  0  0  0
  -22.1100   -9.0690   20.4030 C   0  0  0  0  0  3  0  0  0  0  0  0
  -22.8350  -10.2580   20.2110 C   0  0  0  0  0  3  0  0  0  0  0  0
  -21.7970   -6.9590   21.4290 O   0  0  0  0  0  0  0  0  0  0  0  0
  -21.7430   -6.2330   22.5910 C   0  0  0  0  0  0  0  0  0  0  0  0
  -21.3070   -6.8040   23.8060 C   0  0  0  0  0  3  0  0  0  0  0  0
  -21.1990   -6.0060   24.9610 C   0  0  0  0  0  3  0  0  0  0  0  0
  -21.5160   -4.6350   24.9030 C   0  0  0  0  0  0  0  0  0  0  0  0
  -21.9450   -4.0620   23.6920 C   0  0  0  0  0  3  0  0  0  0  0  0
  -22.0500   -4.8590   22.5380 C   0  0  0  0  0  0  0  0  0  0  0  0
  -22.4430   -4.2970   21.3690 F   0  0  0  0  0  0  0  0  0  0  0  0
  -21.4040   -3.8650   26.0110 F   0  0  0  0  0  0  0  0  0  0  0  0
  -22.9000  -13.5940   21.2360 C   0  0  0  0  0  0  0  0  0  0  0  0
  -22.2340  -12.8680   22.1270 N   0  0  0  0  0  0  0  0  0  0  0  0
  -22.4260  -14.6320   20.7760 O   0  0  0  0  0  0  0  0  0  0  0  0
  -22.6390  -12.0290   22.5210 H   0  0  0  0  0  0  0  0  0  0  0  0
  -21.3120  -13.1510   22.4270 H   0  0  0  0  0  0  0  0  0  0  0  0
  -25.4820  -15.2890   20.2980 N   0  0  0  0  0  0  0  0  0  0  0  0
  -24.7510  -15.9660   20.4990 H   0  0  0  0  0  0  0  0  0  0  0  0
  -26.3470  -15.7100   19.9830 H   0  0  0  0  0  0  0  0  0  0  0  0
  -28.5040  -25.0310   19.3970 C   0  0  0  0  0  2  0  0  0  0  0  0
  -28.2920  -26.2420   20.3250 O   0  0  0  0  0  0  0  0  0  0  0  0
  -24.6020  -31.8690   23.2650 C   0  0  0  0  0  0  0  0  0  0  0  0
  -27.2130  -27.1920   20.2120 C   0  0  0  0  0  0  0  0  0  0  0  0
  -23.4080  -30.4780   21.6170 C   0  0  0  0  0  3  0  0  0  0  0  0
  -24.8630  -28.9120   20.1900 C   0  0  0  0  0  0  0  0  0  0  0  0
  -25.9640  -30.7500   21.4620 C   0  0  0  0  0  2  0  0  0  0  0  0
  -26.0390  -29.3650   20.8000 C   0  0  0  0  0  0  0  0  0  0  0  0
  -27.2100  -28.5230   20.7960 C   0  0  0  0  0  3  0  0  0  0  0  0
  -25.9990  -26.8240   19.5880 C   0  0  0  0  0  3  0  0  0  0  0  0
  -24.8560  -27.6520   19.5700 C   0  0  0  0  0  3  0  0  0  0  0  0
  -23.6250  -29.7960   20.2410 C   0  0  0  0  0  2  0  0  0  0  0  0
  -24.6780  -31.0550   22.1680 N   0  0  0  0  0  0  0  0  0  0  0  0
  -23.5140  -32.1540   23.7900 O   0  0  0  0  0  0  0  0  0  0  0  0
  -22.7310  -29.4680   22.5780 C   0  0  0  0  0  0  0  0  0  0  0  0
  -21.4050  -29.2910   22.4360 N   0  0  0  0  0  0  0  0  0  0  0  0
  -23.4000  -28.8500   23.4070 O   0  0  0  0  0  0  0  0  0  0  0  0
  -20.9280  -29.8440   21.7360 H   0  0  0  0  0  0  0  0  0  0  0  0
  -18.0330  -28.0570   22.8950 C   0  0  0  0  0  0  0  0  0  0  0  0
  -20.5830  -28.3510   23.2010 C   0  0  0  0  0  3  0  0  0  0  0  0
  -20.7090  -26.9140   22.6390 C   0  0  0  0  0  2  0  0  0  0  0  0
  -19.6260  -26.5750   21.6060 C   0  0  0  0  0  2  0  0  0  0  0  0
  -18.2340  -26.7070   22.2250 C   0  0  0  0  0  2  0  0  0  0  0  0
  -19.1350  -28.8370   23.3330 C   0  0  0  0  0  0  0  0  0  0  0  0
  -18.8910  -30.1000   23.9140 C   0  0  0  0  0  3  0  0  0  0  0  0
  -17.5780  -30.5850   24.0620 C   0  0  0  0  0  3  0  0  0  0  0  0
  -16.4880  -29.8050   23.6330 C   0  0  0  0  0  3  0  0  0  0  0  0
  -16.7160  -28.5440   23.0560 C   0  0  0  0  0  3  0  0  0  0  0  0
  -25.8770  -32.5010   23.9010 C   0  0  0  0  0  3  0  0  0  0  0  0
  -25.5630  -33.9050   24.2130 N   0  0  0  0  0  0  0  0  0  0  0  0
  -25.9010  -34.9540   23.4470 C   0  0  0  0  0  0  0  0  0  0  0  0
  -26.5730  -34.8380   22.4190 O   0  0  0  0  0  0  0  0  0  0  0  0
  -24.9560  -34.0650   25.0030 H   0  0  0  0  0  0  0  0  0  0  0  0
  -24.1690  -36.7470   23.0850 C   0  0  0  0  0  1  0  0  0  0  0  0
  -25.4180  -36.3490   23.8910 C   0  0  0  0  0  3  0  0  0  0  0  0
  -27.5590  -37.2460   24.6940 C   0  0  0  0  0  1  0  0  0  0  0  0
  -26.4510  -37.3980   23.7540 N   0  0  0  0  0  0  0  0  0  0  0  0
  -26.0460  -38.3230   23.8830 H   0  0  0  0  0  0  0  0  0  0  0  0
  -26.3670  -31.7450   25.1990 C   0  0  1  0  0  0  0  0  0  0  0  0
  -25.2550  -31.5280   26.2520 C   0  0  0  0  0  1  0  0  0  0  0  0
  -26.9490  -30.3560   24.8450 C   0  0  0  0  0  1  0  0  0  0  0  0
  -27.5080  -32.5490   25.8670 C   0  0  0  0  0  1  0  0  0  0  0  0
  1  3  1  0
  2  3  2  0
  3  7  1  0
  4  1  2  0
  5  2  1  0
  6  5  2  0
  6  4  1  0
  8  5  1  0
  9  6  1  0
 10 22  1  0
 11 16  1  0
 12 13  1  0
 12 11  1  0
 14 13  1  0
 14 26  1  0
 14 15  1  0
 16 10  1  0
 16 15  1  0
 17 10  2  0
 19 18  1  0
 20 22  1  0
 20 21  1  0
 21  2  1  0
 21 18  1  0
 22 19  1  0
 23 24  2  0
 24 43  1  0
 25 24  1  0
 25 28  1  0
 26 27  1  0
 26 23  1  0
 27 25  2  0
 28 29  1  0
 29 30  2  0
 31 34  1  0
 31 30  1  0
 32 31  2  0
 33 32  1  0
 33 28  2  0
 34 35  1  0
 35 36  1  0
 36 37  2  0
 38 37  1  0
 38 42  1  0
 39 38  2  0
 40 35  2  0
 40 39  1  0
 41 40  1  0
 43 44  1  0
 44 47  1  0
 44 46  1  0
 45 43  2  0
 48 23  1  0
 48 49  1  0
 50 48  1  0
 51  4  1  0
 51 52  1  0
 53 64  2  0
 54 52  1  0
 54 59  1  0
 55 63  1  0
 55 65  1  0
 56 62  1  0
 56 58  1  0
 57 63  1  0
 58 57  1  0
 59 58  2  0
 60 54  2  0
 61 60  1  0
 61 56  2  0
 62 55  1  0
 63 53  1  0
 65 67  2  0
 66 65  1  0
 68 66  1  0
 69 78  2  0
 69 74  1  0
 70 66  1  0
 70 74  1  0
 71 70  1  0
 72 73  1  0
 72 71  1  0
 73 69  1  0
 74 75  2  0
 75 76  1  0
 77 76  2  0
 78 77  1  0
 79 53  1  0
 79 80  1  0
 79 89  1  0
 80 83  1  0
 81 85  1  0
 81 80  1  0
 82 81  2  0
 85 84  1  0
 87 88  1  0
 87 85  1  0
 87 86  1  0
 89 92  1  1
 89 90  1  0
 91 89  1  0
M  ISO  4  10 100  22 100  51 101  52 101
M  END
>  <TORSDO>  (50) 
F 17

>  <SCORE>  (50) 
-14.627

>  <name>  (50) 
49

>  <ligand_id>  (50) 
49

>  <original_smiles>  (50) 
[H]c1c([H])c([H])c2c(c1[H])C([H])([H])C([H])([H])C([H])([H])C2([H])N([H])C(=O)C1([H])N(C(=O)C([H])(N([H])C(=O)C([H])(N([H])C([H])([H])[H])C([H])([H])[H])C(C([H])([H])[H])(C([H])([H])[H])C([H])([H])[H])C([H])([H])c2c([H])c(OC([H])([H])c3c([H])c(C([H])([H])[H])c(C4([H])C([H])([H])N(C(=O)N5C([H])([H])C([H])([H])C([H])([H])C([H])(n6nc(-c7c([H])c([H])c(Oc8c([H])c([H])c(F)c([H])c8F)c([H])c7[H])c(C(=O)N([H])[H])c6N([H])[H])C5([H])[H])C([H])([H])C4([H])[H])c(C([H])([H])[H])c3C([H])([H])[H])c([H])c([H])c2C1([H])[H]

>  <smiles>  (50) 
[H]c1c([H])c([H])c2c(c1[H])C([H])([H])C([H])([H])C([H])([H])C2([H])N([H])C(=O)C1([H])N(C(=O)C([H])(N([H])C(=O)C([H])(N([H])C([H])([H])[H])C([H])([H])[H])C(C([H])([H])[H])(C([H])([H])[H])C([H])([H])[H])C([H])([H])c2c([H])c(OC([H])([H])c3c([H])c(C([H])([H])[H])c(C4([H])C([H])([H])N(C(=O)N5C([H])([H])C([H])([H])C([H])([H])C([H])(n6nc(-c7c([H])c([H])c(Oc8c([H])c([H])c(F)c([H])c8F)c([H])c7[H])c(C(=O)N([H])[H])c6N([H])[H])C5([H])[H])C([H])([H])C4([H])[H])c(C([H])([H])[H])c3C([H])([H])[H])c([H])c([H])c2C1([H])[H]

$$$$
50:0:0
     RDKit          3D

 93101  0  0  1  0  0  0  0  0999 V2000
  -27.9350  -21.1240   20.3990 C   0  0  0  0  0  0  0  0  0  0  0  0
  -28.9080  -20.1330   20.1180 C   0  0  0  0  0  0  0  0  0  0  0  0
  -28.2090  -22.5040   20.1990 C   0  0  0  0  0  0  0  0  0  0  0  0
  -30.5410  -21.9160   19.7510 C   0  0  0  0  0  0  0  0  0  0  0  0
  -30.2270  -20.4950   19.7420 C   0  0  0  0  0  0  0  0  0  0  0  0
  -29.5480  -22.9640   19.9660 C   0  0  0  0  0  0  0  0  0  0  0  0
  -26.5460  -20.6890   20.8950 C   0  0  0  0  0  1  0  0  0  0  0  0
  -28.4740  -18.6680   20.1910 C   0  0  0  0  0  1  0  0  0  0  0  0
  -27.0020  -23.4390   20.2180 C   0  0  0  0  0  1  0  0  0  0  0  0
  -31.9850  -22.3350   19.5090 C   0  0  0  0  0  1  0  0  0  0  0  0
  -31.1880  -19.3390   19.2140 C   0  0  0  0  0  2  0  0  0  0  0  0
  -31.9620  -18.3530   20.2160 C   0  0  0  0  0  2  0  0  0  0  0  0
  -32.4100  -15.7590   20.0120 C   0  0  0  0  0  0  0  0  0  0  0  0
  -32.2260  -13.3820   19.2900 C   0  0  0  0  0  2  0  0  0  0  0  0
  -31.3100  -13.2970   18.0490 C   0  0  0  0  0  2  0  0  0  0  0  0
  -29.8320  -13.1890   18.4710 C   0  0  0  0  0  2  0  0  0  0  0  0
  -29.4370  -14.2400   19.5410 C   0  0  0  0  0  3  0  0  0  0  0  0
  -30.4670  -14.2750   20.6940 C   0  0  0  0  0  2  0  0  0  0  0  0
  -31.7830  -14.5410   20.0920 N   0  0  0  0  0  0  0  0  0  0  0  0
  -33.5820  -15.8530   19.6370 O   0  0  0  0  0  0  0  0  0  0  0  0
  -31.6260  -16.8740   20.1960 N   0  0  0  0  0  0  0  0  0  0  0  0
  -30.6830  -16.6520   20.4800 H   0  0  0  0  0  0  0  0  0  0  0  0
  -27.0990  -14.9740   20.3140 C   0  0  0  0  0  0  0  0  0  0  0  0
  -25.9860  -14.2670   20.6710 C   0  0  0  0  0  0  0  0  0  0  0  0
  -26.3500  -12.8870   20.5820 C   0  0  0  0  0  0  0  0  0  0  0  0
  -28.0750  -14.0330   20.0300 N   0  0  0  0  0  0  0  0  0  0  0  0
  -27.6300  -12.7700   20.2500 N   0  0  0  0  0  0  0  0  0  0  0  0
  -25.5380  -11.6730   20.7350 C   0  0  0  0  0  0  0  0  0  0  0  0
  -25.8100  -10.7260   21.7470 C   0  0  0  0  0  3  0  0  0  0  0  0
  -25.0050   -9.5750   21.8840 C   0  0  0  0  0  3  0  0  0  0  0  0
  -23.9120   -9.3620   21.0100 C   0  0  0  0  0  0  0  0  0  0  0  0
  -23.6590  -10.2980   19.9900 C   0  0  0  0  0  3  0  0  0  0  0  0
  -24.4660  -11.4410   19.8510 C   0  0  0  0  0  3  0  0  0  0  0  0
  -23.0930   -8.2630   21.0520 O   0  0  0  0  0  0  0  0  0  0  0  0
  -22.6780   -7.7200   22.2420 C   0  0  0  0  0  0  0  0  0  0  0  0
  -21.9330   -8.4640   23.1820 C   0  0  0  0  0  3  0  0  0  0  0  0
  -21.4670   -7.8460   24.3600 C   0  0  0  0  0  3  0  0  0  0  0  0
  -21.7360   -6.4860   24.5960 C   0  0  0  0  0  0  0  0  0  0  0  0
  -22.4750   -5.7410   23.6590 C   0  0  0  0  0  3  0  0  0  0  0  0
  -22.9400   -6.3570   22.4840 C   0  0  0  0  0  0  0  0  0  0  0  0
  -23.6330   -5.6290   21.5750 F   0  0  0  0  0  0  0  0  0  0  0  0
  -21.2850   -5.8910   25.7250 F   0  0  0  0  0  0  0  0  0  0  0  0
  -24.6270  -14.8290   20.9810 C   0  0  0  0  0  0  0  0  0  0  0  0
  -23.8710  -14.1670   21.8470 N   0  0  0  0  0  0  0  0  0  0  0  0
  -24.2520  -15.8930   20.4870 O   0  0  0  0  0  0  0  0  0  0  0  0
  -24.1880  -13.3040   22.2630 H   0  0  0  0  0  0  0  0  0  0  0  0
  -22.9600  -14.5280   22.0960 H   0  0  0  0  0  0  0  0  0  0  0  0
  -27.3550  -16.3360   20.1810 N   0  0  0  0  0  0  0  0  0  0  0  0
  -26.6210  -17.0260   20.2920 H   0  0  0  0  0  0  0  0  0  0  0  0
  -28.2020  -16.7220   19.7860 H   0  0  0  0  0  0  0  0  0  0  0  0
  -29.9620  -24.5240   19.9940 C   0  0  0  0  0  3  0  0  0  0  0  0
  -28.8930  -25.7300   19.9540 C   0  0  0  0  0  3  0  0  0  0  0  0
  -29.1610  -27.2040   19.9790 O   0  0  0  0  0  0  0  0  0  0  0  0
  -24.9870  -31.8660   23.6790 C   0  0  0  0  0  0  0  0  0  0  0  0
  -28.0150  -28.0300   20.0260 C   0  0  0  0  0  0  0  0  0  0  0  0
  -23.9500  -30.6900   21.7760 C   0  0  0  0  0  3  0  0  0  0  0  0
  -25.5500  -29.4910   20.1860 C   0  0  0  0  0  0  0  0  0  0  0  0
  -26.4700  -31.1710   21.7810 C   0  0  0  0  0  2  0  0  0  0  0  0
  -26.6640  -29.9300   20.9150 C   0  0  0  0  0  0  0  0  0  0  0  0
  -27.8980  -29.2110   20.8320 C   0  0  0  0  0  3  0  0  0  0  0  0
  -26.8750  -27.6790   19.2610 C   0  0  0  0  0  3  0  0  0  0  0  0
  -25.6580  -28.3760   19.3500 C   0  0  0  0  0  3  0  0  0  0  0  0
  -24.2630  -30.2710   20.3170 C   0  0  0  0  0  2  0  0  0  0  0  0
  -25.1500  -31.2520   22.4700 N   0  0  0  0  0  0  0  0  0  0  0  0
  -23.8650  -31.9900   24.1940 O   0  0  0  0  0  0  0  0  0  0  0  0
  -23.3160  -29.4890   22.5150 C   0  0  0  0  0  0  0  0  0  0  0  0
  -22.0160  -29.2410   22.2710 N   0  0  0  0  0  0  0  0  0  0  0  0
  -23.9930  -28.7920   23.2760 O   0  0  0  0  0  0  0  0  0  0  0  0
  -21.5260  -29.8730   21.6580 H   0  0  0  0  0  0  0  0  0  0  0  0
  -18.7070  -27.7620   22.3850 C   0  0  0  0  0  0  0  0  0  0  0  0
  -21.2270  -28.1400   22.8280 C   0  0  0  0  0  3  0  0  0  0  0  0
  -21.4560  -26.8290   22.0430 C   0  0  0  0  0  2  0  0  0  0  0  0
  -20.4250  -26.5950   20.9310 C   0  0  0  0  0  2  0  0  0  0  0  0
  -19.0100  -26.5500   21.5180 C   0  0  0  0  0  2  0  0  0  0  0  0
  -19.7500  -28.5150   22.9890 C   0  0  0  0  0  0  0  0  0  0  0  0
  -19.4160  -29.6420   23.7700 C   0  0  0  0  0  3  0  0  0  0  0  0
  -18.0730  -30.0160   23.9550 C   0  0  0  0  0  3  0  0  0  0  0  0
  -17.0440  -29.2610   23.3640 C   0  0  0  0  0  3  0  0  0  0  0  0
  -17.3610  -28.1390   22.5800 C   0  0  0  0  0  3  0  0  0  0  0  0
  -26.1970  -32.4610   24.4600 C   0  0  0  0  0  3  0  0  0  0  0  0
  -26.5680  -31.6360   25.7530 C   0  0  1  0  0  0  0  0  0  0  0  0
  -25.3570  -31.3430   26.6710 C   0  0  0  0  0  1  0  0  0  0  0  0
  -27.2120  -30.2830   25.3750 C   0  0  0  0  0  1  0  0  0  0  0  0
  -27.6230  -32.4070   26.5830 C   0  0  0  0  0  1  0  0  0  0  0  0
  -25.8600  -33.8470   24.8170 N   0  0  0  0  0  0  0  0  0  0  0  0
  -26.2500  -34.9280   24.1280 C   0  0  0  0  0  0  0  0  0  0  0  0
  -27.0030  -34.8600   23.1530 O   0  0  0  0  0  0  0  0  0  0  0  0
  -25.2000  -33.9760   25.5700 H   0  0  0  0  0  0  0  0  0  0  0  0
  -24.5500  -36.7330   23.7000 C   0  0  0  0  0  1  0  0  0  0  0  0
  -25.7230  -36.2990   24.5950 C   0  0  0  0  0  3  0  0  0  0  0  0
  -27.7720  -37.1600   25.6380 C   0  0  0  0  0  1  0  0  0  0  0  0
  -26.7590  -37.3540   24.6050 N   0  0  0  0  0  0  0  0  0  0  0  0
  -26.3390  -38.2690   24.7430 H   0  0  0  0  0  0  0  0  0  0  0  0
  1  7  1  0
  2  8  1  0
  2  1  2  0
  3  9  1  0
  3  1  1  0
  4  6  1  0
  5  4  2  0
  5  2  1  0
  6 51  1  0
  6  3  2  0
 10  4  1  0
 11  5  1  0
 11 12  1  0
 13 19  1  0
 13 21  1  0
 14 19  1  0
 15 16  1  0
 15 14  1  0
 17 16  1  0
 17 26  1  0
 17 18  1  0
 19 18  1  0
 20 13  2  0
 21 12  1  0
 21 22  1  0
 23 24  2  0
 24 43  1  0
 25 24  1  0
 25 28  1  0
 26 27  1  0
 26 23  1  0
 27 25  2  0
 28 29  1  0
 29 30  2  0
 31 34  1  0
 31 30  1  0
 32 31  2  0
 33 32  1  0
 33 28  2  0
 34 35  1  0
 35 40  2  0
 35 36  1  0
 36 37  2  0
 37 38  1  0
 38 42  1  0
 39 38  2  0
 40 39  1  0
 41 40  1  0
 43 44  1  0
 44 47  1  0
 44 46  1  0
 45 43  2  0
 48 49  1  0
 48 23  1  0
 50 48  1  0
 52 53  1  0
 52 51  2  0
 53 55  1  0
 54 65  2  0
 55 60  1  0
 56 64  1  0
 56 66  1  0
 57 63  1  0
 57 59  1  0
 58 64  1  0
 59 58  1  0
 60 59  2  0
 61 62  1  0
 61 55  2  0
 62 57  2  0
 63 56  1  0
 64 54  1  0
 66 68  2  0
 67 66  1  0
 69 67  1  0
 70 79  2  0
 70 75  1  0
 71 67  1  0
 71 75  1  0
 72 71  1  0
 73 74  1  0
 73 72  1  0
 74 70  1  0
 75 76  2  0
 76 77  1  0
 78 77  2  0
 79 78  1  0
 80 54  1  0
 80 85  1  0
 80 81  1  0
 81 84  1  1
 81 82  1  0
 83 81  1  0
 85 88  1  0
 86 90  1  0
 86 85  1  0
 87 86  2  0
 90 89  1  0
 90 92  1  0
 92 93  1  0
 92 91  1  0
M  ISO  4  13 100  21 100  52 101  53 101
M  END
>  <TORSDO>  (51) 
F 20

>  <SCORE>  (51) 
-7.066

>  <name>  (51) 
50

>  <ligand_id>  (51) 
50

>  <original_smiles>  (51) 
[H]c1c([H])c([H])c2c(c1[H])C([H])([H])C([H])([H])C([H])([H])C2([H])N([H])C(=O)C1([H])N(C(=O)C([H])(N([H])C(=O)C([H])(N([H])C([H])([H])[H])C([H])([H])[H])C(C([H])([H])[H])(C([H])([H])[H])C([H])([H])[H])C([H])([H])c2c([H])c(OC([H])([H])C([H])([H])c3c(C([H])([H])[H])c(C([H])([H])[H])c(C([H])([H])[H])c(C([H])([H])C([H])([H])N([H])C(=O)N4C([H])([H])C([H])([H])C([H])([H])C([H])(n5nc(-c6c([H])c([H])c(Oc7c([H])c([H])c(F)c([H])c7F)c([H])c6[H])c(C(=O)N([H])[H])c5N([H])[H])C4([H])[H])c3C([H])([H])[H])c([H])c([H])c2C1([H])[H]

>  <smiles>  (51) 
[H]c1c([H])c([H])c2c(c1[H])C([H])([H])C([H])([H])C([H])([H])C2([H])N([H])C(=O)C1([H])N(C(=O)C([H])(N([H])C(=O)C([H])(N([H])C([H])([H])[H])C([H])([H])[H])C(C([H])([H])[H])(C([H])([H])[H])C([H])([H])[H])C([H])([H])c2c([H])c(OC([H])([H])C([H])([H])c3c(C([H])([H])[H])c(C([H])([H])[H])c(C([H])([H])[H])c(C([H])([H])C([H])([H])N([H])C(=O)N4C([H])([H])C([H])([H])C([H])([H])C([H])(n5nc(-c6c([H])c([H])c(Oc7c([H])c([H])c(F)c([H])c7F)c([H])c6[H])c(C(=O)N([H])[H])c5N([H])[H])C4([H])[H])c3C([H])([H])[H])c([H])c([H])c2C1([H])[H]

$$$$
51:0:0
     RDKit          3D

 95105  0  0  1  0  0  0  0  0999 V2000
  -27.9920  -22.8530   19.6010 C   0  0  0  0  0  3  0  0  0  0  0  0
  -28.4560  -23.6650   20.6660 C   0  0  0  0  0  0  0  0  0  0  0  0
  -28.2670  -21.4470   19.4730 C   0  0  0  0  0  0  0  0  0  0  0  0
  -29.2600  -22.9520   21.6120 C   0  0  0  0  0  0  0  0  0  0  0  0
  -29.4860  -21.5160   21.5340 C   0  0  0  0  0  0  0  0  0  0  0  0
  -29.0170  -20.6930   20.4460 C   0  0  0  0  0  0  0  0  0  0  0  0
  -27.7220  -20.7930   18.2250 C   0  0  0  0  0  1  0  0  0  0  0  0
  -29.8630  -23.7440   22.7680 C   0  0  0  0  0  1  0  0  0  0  0  0
  -30.1930  -20.8340   22.7030 C   0  0  0  0  0  1  0  0  0  0  0  0
  -30.7100  -14.8830   20.3970 C   0  0  0  0  0  0  0  0  0  0  0  0
  -30.4160  -12.6160   19.3750 C   0  0  0  0  0  2  0  0  0  0  0  0
  -29.4790  -12.6320   18.1510 C   0  0  0  0  0  2  0  0  0  0  0  0
  -28.0230  -12.4350   18.6030 C   0  0  0  0  0  2  0  0  0  0  0  0
  -27.6380  -13.3500   19.7950 C   0  0  0  0  0  3  0  0  0  0  0  0
  -28.7090  -13.3410   20.9120 C   0  0  0  0  0  2  0  0  0  0  0  0
  -29.9790  -13.7130   20.2820 N   0  0  0  0  0  0  0  0  0  0  0  0
  -31.9150  -14.8080   20.1490 O   0  0  0  0  0  0  0  0  0  0  0  0
  -30.1450  -17.4510   18.2940 C   0  0  0  0  0  2  0  0  0  0  0  0
  -28.6330  -17.6470   18.5580 C   0  0  0  0  0  2  0  0  0  0  0  0
  -30.7090  -18.7300   20.3870 C   0  0  0  0  0  2  0  0  0  0  0  0
  -28.8550  -16.7700   20.8690 C   0  0  0  0  0  2  0  0  0  0  0  0
  -30.8400  -17.3130   19.6620 C   0  0  0  0  0  3  0  0  0  0  0  0
  -28.4280  -18.0880   20.0420 C   0  0  0  0  0  3  0  0  0  0  0  0
  -29.3170  -19.2480   20.3710 N   0  0  0  0  0  0  0  0  0  0  0  0
  -30.1370  -16.1710   20.3550 N   0  0  0  0  0  0  0  0  0  0  0  0
  -25.2540  -13.9180   20.5450 C   0  0  0  0  0  0  0  0  0  0  0  0
  -24.1970  -13.1340   20.9140 C   0  0  0  0  0  0  0  0  0  0  0  0
  -24.6690  -11.7860   20.8720 C   0  0  0  0  0  0  0  0  0  0  0  0
  -26.3040  -13.0490   20.3010 N   0  0  0  0  0  0  0  0  0  0  0  0
  -25.9580  -11.7610   20.5620 N   0  0  0  0  0  0  0  0  0  0  0  0
  -23.9500  -10.5170   21.0510 C   0  0  0  0  0  0  0  0  0  0  0  0
  -24.3790   -9.5500   21.9860 C   0  0  0  0  0  3  0  0  0  0  0  0
  -23.6580   -8.3470   22.1530 C   0  0  0  0  0  3  0  0  0  0  0  0
  -22.4940   -8.1040   21.3860 C   0  0  0  0  0  0  0  0  0  0  0  0
  -22.0870   -9.0600   20.4390 C   0  0  0  0  0  3  0  0  0  0  0  0
  -22.8080  -10.2540   20.2700 C   0  0  0  0  0  3  0  0  0  0  0  0
  -21.7450   -6.9550   21.4650 O   0  0  0  0  0  0  0  0  0  0  0  0
  -21.6690   -6.2230   22.6220 C   0  0  0  0  0  0  0  0  0  0  0  0
  -21.1770   -6.7770   23.8240 C   0  0  0  0  0  3  0  0  0  0  0  0
  -21.0510   -5.9700   24.9720 C   0  0  0  0  0  3  0  0  0  0  0  0
  -21.4070   -4.6080   24.9200 C   0  0  0  0  0  0  0  0  0  0  0  0
  -21.8920   -4.0540   23.7220 C   0  0  0  0  0  3  0  0  0  0  0  0
  -22.0200   -4.8580   22.5760 C   0  0  0  0  0  0  0  0  0  0  0  0
  -22.4670   -4.3130   21.4190 F   0  0  0  0  0  0  0  0  0  0  0  0
  -21.2770   -3.8310   26.0190 F   0  0  0  0  0  0  0  0  0  0  0  0
  -22.7980  -13.6000   21.1890 C   0  0  0  0  0  0  0  0  0  0  0  0
  -22.0750  -12.8940   22.0520 N   0  0  0  0  0  0  0  0  0  0  0  0
  -22.3540  -14.6250   20.6740 O   0  0  0  0  0  0  0  0  0  0  0  0
  -22.4500  -12.0650   22.4900 H   0  0  0  0  0  0  0  0  0  0  0  0
  -21.1360  -13.1870   22.2780 H   0  0  0  0  0  0  0  0  0  0  0  0
  -25.4000  -15.2900   20.3680 N   0  0  0  0  0  0  0  0  0  0  0  0
  -24.6120  -15.9210   20.4600 H   0  0  0  0  0  0  0  0  0  0  0  0
  -26.2250  -15.7360   19.9920 H   0  0  0  0  0  0  0  0  0  0  0  0
  -27.8410  -25.1280   20.9350 C   0  0  0  0  0  2  0  0  0  0  0  0
  -28.2140  -26.4090   20.2400 O   0  0  0  0  0  0  0  0  0  0  0  0
  -24.5680  -31.9410   23.2370 C   0  0  0  0  0  0  0  0  0  0  0  0
  -27.1690  -27.3600   20.1760 C   0  0  0  0  0  0  0  0  0  0  0  0
  -23.3690  -30.5520   21.5880 C   0  0  0  0  0  3  0  0  0  0  0  0
  -24.8250  -29.0120   20.1500 C   0  0  0  0  0  0  0  0  0  0  0  0
  -25.9130  -30.8610   21.4160 C   0  0  0  0  0  2  0  0  0  0  0  0
  -25.9950  -29.4830   20.7610 C   0  0  0  0  0  0  0  0  0  0  0  0
  -27.1740  -28.6680   20.7670 C   0  0  0  0  0  3  0  0  0  0  0  0
  -25.9870  -26.9700   19.5110 C   0  0  0  0  0  3  0  0  0  0  0  0
  -24.8260  -27.7640   19.5100 C   0  0  0  0  0  3  0  0  0  0  0  0
  -23.5890  -29.8890   20.2020 C   0  0  0  0  0  2  0  0  0  0  0  0
  -24.6360  -31.1370   22.1370 N   0  0  0  0  0  0  0  0  0  0  0  0
  -23.4810  -32.2160   23.7710 O   0  0  0  0  0  0  0  0  0  0  0  0
  -22.7020  -29.5310   22.5420 C   0  0  0  0  0  0  0  0  0  0  0  0
  -21.3750  -29.3590   22.4180 N   0  0  0  0  0  0  0  0  0  0  0  0
  -23.3810  -28.8990   23.3560 O   0  0  0  0  0  0  0  0  0  0  0  0
  -20.8870  -29.9180   21.7340 H   0  0  0  0  0  0  0  0  0  0  0  0
  -17.9960  -28.1640   22.9240 C   0  0  0  0  0  0  0  0  0  0  0  0
  -20.5560  -28.4150   23.1830 C   0  0  0  0  0  3  0  0  0  0  0  0
  -20.6530  -26.9890   22.5950 C   0  0  0  0  0  2  0  0  0  0  0  0
  -19.5450  -26.6770   21.5830 C   0  0  0  0  0  2  0  0  0  0  0  0
  -18.1660  -26.8200   22.2320 C   0  0  0  0  0  2  0  0  0  0  0  0
  -19.1170  -28.9190   23.3540 C   0  0  0  0  0  0  0  0  0  0  0  0
  -18.9030  -30.1780   23.9590 C   0  0  0  0  0  3  0  0  0  0  0  0
  -17.6010  -30.6810   24.1320 C   0  0  0  0  0  3  0  0  0  0  0  0
  -16.4930  -29.9210   23.7170 C   0  0  0  0  0  3  0  0  0  0  0  0
  -16.6910  -28.6640   23.1190 C   0  0  0  0  0  3  0  0  0  0  0  0
  -25.8470  -32.5740   23.8650 C   0  0  0  0  0  3  0  0  0  0  0  0
  -25.5390  -33.9760   24.1850 N   0  0  0  0  0  0  0  0  0  0  0  0
  -25.8860  -35.0240   23.4250 C   0  0  0  0  0  0  0  0  0  0  0  0
  -26.5650  -34.9150   22.4020 O   0  0  0  0  0  0  0  0  0  0  0  0
  -24.9340  -34.1360   24.9770 H   0  0  0  0  0  0  0  0  0  0  0  0
  -24.1810  -36.8360   23.0370 C   0  0  0  0  0  1  0  0  0  0  0  0
  -25.4020  -36.4180   23.8730 C   0  0  0  0  0  3  0  0  0  0  0  0
  -27.5240  -37.2880   24.7510 C   0  0  0  0  0  1  0  0  0  0  0  0
  -26.4460  -37.4610   23.7810 N   0  0  0  0  0  0  0  0  0  0  0  0
  -26.0440  -38.3850   23.9170 H   0  0  0  0  0  0  0  0  0  0  0  0
  -26.3490  -31.8110   25.1510 C   0  0  1  0  0  0  0  0  0  0  0  0
  -25.2460  -31.5840   26.2120 C   0  0  0  0  0  1  0  0  0  0  0  0
  -26.9310  -30.4280   24.7760 C   0  0  0  0  0  1  0  0  0  0  0  0
  -27.4950  -32.6070   25.8190 C   0  0  0  0  0  1  0  0  0  0  0  0
  1  2  1  0
  2 54  1  0
  2  4  2  0
  3  1  2  0
  3  6  1  0
  4  8  1  0
  5  4  1  0
  5  9  1  0
  6  5  2  0
  7  3  1  0
 11 16  1  0
 12 13  1  0
 12 11  1  0
 14 13  1  0
 14 29  1  0
 14 15  1  0
 16 10  1  0
 16 15  1  0
 17 10  2  0
 18 19  1  0
 22 18  1  0
 22 25  1  0
 22 20  1  0
 23 19  1  0
 23 24  1  0
 23 21  1  0
 24 20  1  0
 24  6  1  0
 25 10  1  0
 25 21  1  0
 26 27  2  0
 27 46  1  0
 28 27  1  0
 28 31  1  0
 29 26  1  0
 29 30  1  0
 30 28  2  0
 31 32  1  0
 32 33  2  0
 34 37  1  0
 34 33  1  0
 35 34  2  0
 36 35  1  0
 36 31  2  0
 37 38  1  0
 38 39  1  0
 39 40  2  0
 41 40  1  0
 41 45  1  0
 42 41  2  0
 43 38  2  0
 43 42  1  0
 44 43  1  0
 46 47  1  0
 47 50  1  0
 47 49  1  0
 48 46  2  0
 51 52  1  0
 51 26  1  0
 53 51  1  0
 55 54  1  0
 56 67  2  0
 57 55  1  0
 57 62  1  0
 58 66  1  0
 58 68  1  0
 59 65  1  0
 59 61  1  0
 60 66  1  0
 61 62  2  0
 61 60  1  0
 63 57  2  0
 64 63  1  0
 64 59  2  0
 65 58  1  0
 66 56  1  0
 68 70  2  0
 69 68  1  0
 71 69  1  0
 72 81  2  0
 72 77  1  0
 73 69  1  0
 73 77  1  0
 74 73  1  0
 75 76  1  0
 75 74  1  0
 76 72  1  0
 77 78  2  0
 78 79  1  0
 80 79  2  0
 81 80  1  0
 82 56  1  0
 82 83  1  0
 82 92  1  0
 83 86  1  0
 84 88  1  0
 84 83  1  0
 85 84  2  0
 88 87  1  0
 90 88  1  0
 90 91  1  0
 90 89  1  0
 92 95  1  1
 92 93  1  0
 94 92  1  0
M  ISO  4  10 100  25 100  54 101  55 101
M  END
>  <TORSDO>  (52) 
F 17

>  <SCORE>  (52) 
-15.696

>  <name>  (52) 
51

>  <ligand_id>  (52) 
51

>  <original_smiles>  (52) 
[H]c1c([H])c([H])c2c(c1[H])C([H])([H])C([H])([H])C([H])([H])C2([H])N([H])C(=O)C1([H])N(C(=O)C([H])(N([H])C(=O)C([H])(N([H])C([H])([H])[H])C([H])([H])[H])C(C([H])([H])[H])(C([H])([H])[H])C([H])([H])[H])C([H])([H])c2c([H])c(OC([H])([H])c3c([H])c(C([H])([H])[H])c(N4C([H])([H])C5([H])N(C(=O)N6C([H])([H])C([H])([H])C([H])([H])C([H])(n7nc(-c8c([H])c([H])c(Oc9c([H])c([H])c(F)c([H])c9F)c([H])c8[H])c(C(=O)N([H])[H])c7N([H])[H])C6([H])[H])C([H])([H])C4([H])C([H])([H])C5([H])[H])c(C([H])([H])[H])c3C([H])([H])[H])c([H])c([H])c2C1([H])[H]

>  <smiles>  (52) 
[H]c1c([H])c([H])c2c(c1[H])C([H])([H])C([H])([H])C([H])([H])C2([H])N([H])C(=O)C1([H])N(C(=O)C([H])(N([H])C(=O)C([H])(N([H])C([H])([H])[H])C([H])([H])[H])C(C([H])([H])[H])(C([H])([H])[H])C([H])([H])[H])C([H])([H])c2c([H])c(OC([H])([H])c3c([H])c(C([H])([H])[H])c(N4C([H])([H])C5([H])N(C(=O)N6C([H])([H])C([H])([H])C([H])([H])C([H])(n7nc(-c8c([H])c([H])c(Oc9c([H])c([H])c(F)c([H])c9F)c([H])c8[H])c(C(=O)N([H])[H])c7N([H])[H])C6([H])[H])C([H])([H])C4([H])C([H])([H])C5([H])[H])c(C([H])([H])[H])c3C([H])([H])[H])c([H])c([H])c2C1([H])[H]

$$$$
52:0:0
     RDKit          3D

 97106  0  0  1  0  0  0  0  0999 V2000
  -30.7780  -20.6600   19.6180 C   0  0  0  0  0  3  0  0  0  0  0  0
  -31.1360  -20.4730   17.8710 Cl  0  0  0  0  0  0  0  0  0  0  0  0
  -31.8700  -18.0750   22.3150 C   0  0  0  0  0  3  0  0  0  0  0  0
  -30.7240  -18.0390   19.7770 C   0  0  0  0  0  3  0  0  0  0  0  0
  -31.5340  -16.8340   21.7430 C   0  0  0  0  0  0  0  0  0  0  0  0
  -31.6370  -19.2970   21.6540 C   0  0  0  0  0  0  0  0  0  0  0  0
  -31.0160  -19.3120   20.3750 C   0  0  0  0  0  0  0  0  0  0  0  0
  -31.0160  -16.8010   20.4280 C   0  0  0  0  0  0  0  0  0  0  0  0
  -32.0740  -20.5550   22.3820 C   0  0  0  0  0  1  0  0  0  0  0  0
  -31.3410  -14.5040   19.3670 C   0  0  0  0  0  0  0  0  0  0  0  0
  -30.7750  -12.4220   18.1400 C   0  0  0  0  0  2  0  0  0  0  0  0
  -29.6810  -12.7700   17.1050 C   0  0  0  0  0  2  0  0  0  0  0  0
  -28.2710  -12.7260   17.7320 C   0  0  0  0  0  2  0  0  0  0  0  0
  -28.1950  -13.5000   19.0740 C   0  0  0  0  0  3  0  0  0  0  0  0
  -29.3670  -13.0820   19.9930 C   0  0  0  0  0  2  0  0  0  0  0  0
  -30.6170  -13.3520   19.2660 N   0  0  0  0  0  0  0  0  0  0  0  0
  -32.4440  -14.6530   18.8290 O   0  0  0  0  0  0  0  0  0  0  0  0
  -30.6210  -15.5290   19.8900 N   0  0  0  0  0  0  0  0  0  0  0  0
  -29.7200  -15.2070   20.2040 H   0  0  0  0  0  0  0  0  0  0  0  0
  -26.0020  -14.3030   20.1530 C   0  0  0  0  0  0  0  0  0  0  0  0
  -24.9120  -13.6200   20.6210 C   0  0  0  0  0  0  0  0  0  0  0  0
  -25.2100  -12.2350   20.4450 C   0  0  0  0  0  0  0  0  0  0  0  0
  -26.8990  -13.3370   19.7250 N   0  0  0  0  0  0  0  0  0  0  0  0
  -26.4340  -12.0830   19.9580 N   0  0  0  0  0  0  0  0  0  0  0  0
  -24.3790  -11.0440   20.6610 C   0  0  0  0  0  0  0  0  0  0  0  0
  -24.7900  -10.0020   21.5210 C   0  0  0  0  0  3  0  0  0  0  0  0
  -23.9650   -8.8750   21.7270 C   0  0  0  0  0  3  0  0  0  0  0  0
  -22.7150   -8.7830   21.0700 C   0  0  0  0  0  0  0  0  0  0  0  0
  -22.3190   -9.8120   20.1980 C   0  0  0  0  0  3  0  0  0  0  0  0
  -23.1440  -10.9310   19.9920 C   0  0  0  0  0  3  0  0  0  0  0  0
  -21.8600   -7.7140   21.1880 O   0  0  0  0  0  0  0  0  0  0  0  0
  -21.7850   -6.9760   22.3410 C   0  0  0  0  0  0  0  0  0  0  0  0
  -21.4960   -7.5700   23.5890 C   0  0  0  0  0  3  0  0  0  0  0  0
  -21.3620   -6.7650   24.7380 C   0  0  0  0  0  3  0  0  0  0  0  0
  -21.5060   -5.3680   24.6400 C   0  0  0  0  0  0  0  0  0  0  0  0
  -21.7890   -4.7750   23.3970 C   0  0  0  0  0  3  0  0  0  0  0  0
  -21.9260   -5.5760   22.2500 C   0  0  0  0  0  0  0  0  0  0  0  0
  -22.1770   -4.9980   21.0510 F   0  0  0  0  0  0  0  0  0  0  0  0
  -21.3680   -4.5930   25.7410 F   0  0  0  0  0  0  0  0  0  0  0  0
  -23.6260  -14.2190   21.1150 C   0  0  0  0  0  0  0  0  0  0  0  0
  -22.9650  -13.5580   22.0590 N   0  0  0  0  0  0  0  0  0  0  0  0
  -23.2240  -15.3040   20.6980 O   0  0  0  0  0  0  0  0  0  0  0  0
  -23.3010  -12.6740   22.4110 H   0  0  0  0  0  0  0  0  0  0  0  0
  -22.1110  -13.9450   22.4360 H   0  0  0  0  0  0  0  0  0  0  0  0
  -26.2880  -15.6600   20.0380 N   0  0  0  0  0  0  0  0  0  0  0  0
  -25.5990  -16.3620   20.2840 H   0  0  0  0  0  0  0  0  0  0  0  0
  -27.1080  -16.0520   19.5940 H   0  0  0  0  0  0  0  0  0  0  0  0
  -30.5240  -14.7850   23.0440 C   0  0  0  0  0  2  0  0  0  0  0  0
  -31.3310  -15.5710   24.0400 C   0  0  0  0  0  2  0  0  0  0  0  0
  -31.7170  -15.5910   22.5740 C   0  0  0  0  0  3  0  0  0  0  0  0
  -29.3860  -21.4050   19.7280 C   0  0  0  0  0  2  0  0  0  0  0  0
  -29.2790  -22.6120   20.6240 N   0  0  0  0  0  4  0  0  0  0  0  0
  -28.7130  -22.3480   21.4170 H   0  0  0  0  0  0  0  0  0  0  0  0
  -30.2020  -22.8340   20.9650 H   0  0  0  0  0  0  0  0  0  0  0  0
  -28.7060  -23.8600   19.9830 C   0  0  0  0  0  2  0  0  0  0  0  0
  -28.3730  -25.0690   20.9350 C   0  0  0  0  0  2  0  0  0  0  0  0
  -28.4500  -26.3930   20.3160 O   0  0  0  0  0  0  0  0  0  0  0  0
  -24.5690  -31.7140   23.1430 C   0  0  0  0  0  0  0  0  0  0  0  0
  -27.2950  -27.1600   20.2710 C   0  0  0  0  0  0  0  0  0  0  0  0
  -23.4110  -30.2730   21.5010 C   0  0  0  0  0  3  0  0  0  0  0  0
  -24.9070  -28.6980   20.1550 C   0  0  0  0  0  0  0  0  0  0  0  0
  -25.9430  -30.6260   21.3630 C   0  0  0  0  0  2  0  0  0  0  0  0
  -26.0510  -29.2320   20.7620 C   0  0  0  0  0  0  0  0  0  0  0  0
  -27.2510  -28.4760   20.8090 C   0  0  0  0  0  3  0  0  0  0  0  0
  -26.1360  -26.6520   19.6500 C   0  0  0  0  0  3  0  0  0  0  0  0
  -24.9490  -27.4110   19.5890 C   0  0  0  0  0  3  0  0  0  0  0  0
  -23.6620  -29.5600   20.1430 C   0  0  0  0  0  2  0  0  0  0  0  0
  -24.6580  -30.8880   22.0620 N   0  0  0  0  0  0  0  0  0  0  0  0
  -23.4730  -31.9970   23.6480 O   0  0  0  0  0  0  0  0  0  0  0  0
  -22.7330  -29.2750   22.4680 C   0  0  0  0  0  0  0  0  0  0  0  0
  -21.4140  -29.0860   22.3120 N   0  0  0  0  0  0  0  0  0  0  0  0
  -23.3950  -28.6730   23.3170 O   0  0  0  0  0  0  0  0  0  0  0  0
  -20.9390  -29.6290   21.6050 H   0  0  0  0  0  0  0  0  0  0  0  0
  -18.0300  -27.8910   22.7510 C   0  0  0  0  0  0  0  0  0  0  0  0
  -20.5800  -28.1610   23.0790 C   0  0  0  0  0  3  0  0  0  0  0  0
  -20.6990  -26.7180   22.5360 C   0  0  0  0  0  2  0  0  0  0  0  0
  -19.6230  -26.3740   21.5010 C   0  0  0  0  0  2  0  0  0  0  0  0
  -18.2270  -26.5270   22.1080 C   0  0  0  0  0  2  0  0  0  0  0  0
  -19.1360  -28.6640   23.1930 C   0  0  0  0  0  0  0  0  0  0  0  0
  -18.9010  -29.9380   23.7520 C   0  0  0  0  0  3  0  0  0  0  0  0
  -17.5920  -30.4380   23.8780 C   0  0  0  0  0  3  0  0  0  0  0  0
  -16.4990  -29.6640   23.4500 C   0  0  0  0  0  3  0  0  0  0  0  0
  -16.7190  -28.3910   22.8940 C   0  0  0  0  0  3  0  0  0  0  0  0
  -25.8360  -32.3630   23.7830 C   0  0  0  0  0  3  0  0  0  0  0  0
  -25.5070  -33.7570   24.1030 N   0  0  0  0  0  0  0  0  0  0  0  0
  -25.8430  -34.8120   23.3480 C   0  0  0  0  0  0  0  0  0  0  0  0
  -26.5330  -34.7130   22.3280 O   0  0  0  0  0  0  0  0  0  0  0  0
  -24.9010  -33.9100   24.8950 H   0  0  0  0  0  0  0  0  0  0  0  0
  -24.0970  -36.5810   22.9650 C   0  0  0  0  0  1  0  0  0  0  0  0
  -25.3340  -36.1970   23.7930 C   0  0  0  0  0  3  0  0  0  0  0  0
  -27.4490  -37.1080   24.6450 C   0  0  0  0  0  1  0  0  0  0  0  0
  -26.3560  -37.2620   23.6890 N   0  0  0  0  0  0  0  0  0  0  0  0
  -25.9370  -38.1770   23.8320 H   0  0  0  0  0  0  0  0  0  0  0  0
  -26.3460  -31.6020   25.0670 C   0  0  1  0  0  0  0  0  0  0  0  0
  -25.2410  -31.3470   26.1170 C   0  0  0  0  0  1  0  0  0  0  0  0
  -26.9630  -30.2370   24.6830 C   0  0  0  0  0  1  0  0  0  0  0  0
  -27.4740  -32.4180   25.7440 C   0  0  0  0  0  1  0  0  0  0  0  0
  1  2  1  0
  1 51  1  0
  1  7  1  0
  4  7  2  0
  4  8  1  0
  5  3  1  0
  5 50  1  0
  6  3  2  0
  6  9  1  0
  7  6  1  0
  8  5  2  0
 10 18  1  0
 11 16  1  0
 12 13  1  0
 12 11  1  0
 14 13  1  0
 14 23  1  0
 14 15  1  0
 16 10  1  0
 16 15  1  0
 17 10  2  0
 18 19  1  0
 18  8  1  0
 20 21  2  0
 21 40  1  0
 22 21  1  0
 22 25  1  0
 23 24  1  0
 23 20  1  0
 24 22  2  0
 25 26  1  0
 26 27  2  0
 28 31  1  0
 28 27  1  0
 29 28  2  0
 30 29  1  0
 30 25  2  0
 31 32  1  0
 32 33  1  0
 33 34  2  0
 35 34  1  0
 35 39  1  0
 36 35  2  0
 37 32  2  0
 37 36  1  0
 38 37  1  0
 40 41  1  0
 41 43  1  0
 41 44  1  0
 42 40  2  0
 45 20  1  0
 45 46  1  0
 47 45  1  0
 48 49  1  0
 50 48  1  0
 50 49  1  0
 51 52  1  0
 52 54  1  0
 52 53  1  0
 55 52  1  0
 55 56  1  0
 57 56  1  0
 58 69  2  0
 59 57  1  0
 59 64  1  0
 60 68  1  0
 60 70  1  0
 61 63  1  0
 62 68  1  0
 63 64  2  0
 63 62  1  0
 65 59  2  0
 66 65  1  0
 66 61  2  0
 67 61  1  0
 67 60  1  0
 68 58  1  0
 70 72  2  0
 71 70  1  0
 73 71  1  0
 74 83  2  0
 74 79  1  0
 75 71  1  0
 75 79  1  0
 76 75  1  0
 77 78  1  0
 77 76  1  0
 78 74  1  0
 79 80  2  0
 80 81  1  0
 82 81  2  0
 83 82  1  0
 84 58  1  0
 84 85  1  0
 84 94  1  0
 85 88  1  0
 86 90  1  0
 86 85  1  0
 87 86  2  0
 90 89  1  0
 92 90  1  0
 92 93  1  0
 92 91  1  0
 94 97  1  1
 94 95  1  0
 96 94  1  0
M  ISO  4  10 100  18 100  56 101  57 101
M  END
>  <TORSDO>  (53) 
F 22

>  <SCORE>  (53) 
-2.859

>  <name>  (53) 
52

>  <ligand_id>  (53) 
52

>  <original_smiles>  (53) 
[H]c1c([H])c([H])c2c(c1[H])C([H])([H])C([H])([H])C([H])([H])C2([H])N([H])C(=O)C1([H])N(C(=O)C([H])(N([H])C(=O)C([H])(N([H])C([H])([H])[H])C([H])([H])[H])C(C([H])([H])[H])(C([H])([H])[H])C([H])([H])[H])C([H])([H])c2c([H])c(OC([H])([H])C([H])([H])[N+]([H])([H])C([H])([H])C([H])(Cl)c3c([H])c(N([H])C(=O)N4C([H])([H])C([H])([H])C([H])([H])C([H])(n5nc(-c6c([H])c([H])c(Oc7c([H])c([H])c(F)c([H])c7F)c([H])c6[H])c(C(=O)N([H])[H])c5N([H])[H])C4([H])[H])c(C4([H])C([H])([H])C4([H])[H])c([H])c3C([H])([H])[H])c([H])c([H])c2C1([H])[H]

>  <smiles>  (53) 
[H]c1c([H])c([H])c2c(c1[H])C([H])([H])C([H])([H])C([H])([H])C2([H])N([H])C(=O)C1([H])N(C(=O)C([H])(N([H])C(=O)C([H])(N([H])C([H])([H])[H])C([H])([H])[H])C(C([H])([H])[H])(C([H])([H])[H])C([H])([H])[H])C([H])([H])c2c([H])c(OC([H])([H])C([H])([H])[N+]([H])([H])C([H])([H])C([H])(Cl)c3c([H])c(N([H])C(=O)N4C([H])([H])C([H])([H])C([H])([H])C([H])(n5nc(-c6c([H])c([H])c(Oc7c([H])c([H])c(F)c([H])c7F)c([H])c6[H])c(C(=O)N([H])[H])c5N([H])[H])C4([H])[H])c(C4([H])C([H])([H])C4([H])[H])c([H])c3C([H])([H])[H])c([H])c([H])c2C1([H])[H]

$$$$
53:0:0
     RDKit          3D

100111  0  0  1  0  0  0  0  0999 V2000
  -29.1320  -22.8340   20.1380 C   0  0  0  0  0  0  0  0  0  0  0  0
  -29.7720  -23.1400   18.9070 C   0  0  0  0  0  0  0  0  0  0  0  0
  -29.1610  -21.4500   20.5780 C   0  0  0  0  0  0  0  0  0  0  0  0
  -30.4680  -22.1310   18.1780 C   0  0  0  0  0  0  0  0  0  0  0  0
  -29.7960  -20.4040   19.8210 C   0  0  0  0  0  0  0  0  0  0  0  0
  -30.5020  -20.7880   18.6540 C   0  0  0  0  0  0  0  0  0  0  0  0
  -29.6990  -24.5700   18.3780 C   0  0  0  0  0  1  0  0  0  0  0  0
  -28.4870  -21.0710   21.8940 C   0  0  0  0  0  1  0  0  0  0  0  0
  -31.1490  -22.4970   16.8580 C   0  0  0  0  0  1  0  0  0  0  0  0
  -30.8400  -14.8210   20.1680 C   0  0  0  0  0  0  0  0  0  0  0  0
  -30.5420  -12.5940   19.1310 C   0  0  0  0  0  2  0  0  0  0  0  0
  -29.5640  -12.7180   17.9460 C   0  0  0  0  0  2  0  0  0  0  0  0
  -28.1100  -12.5530   18.4290 C   0  0  0  0  0  2  0  0  0  0  0  0
  -27.7850  -13.4180   19.6770 C   0  0  0  0  0  3  0  0  0  0  0  0
  -28.8870  -13.3110   20.7530 C   0  0  0  0  0  2  0  0  0  0  0  0
  -30.1690  -13.6300   20.1100 N   0  0  0  0  0  0  0  0  0  0  0  0
  -32.0210  -14.9070   19.8180 O   0  0  0  0  0  0  0  0  0  0  0  0
  -28.9830  -18.0680   19.3340 C   0  0  0  0  0  2  0  0  0  0  0  0
  -30.7720  -18.3870   21.0110 C   0  0  0  0  0  2  0  0  0  0  0  0
  -29.7320  -16.7130   19.0970 C   0  0  0  0  0  2  0  0  0  0  0  0
  -30.4240  -16.9140   21.4390 C   0  0  0  0  0  2  0  0  0  0  0  0
  -29.7280  -19.0070   20.1840 N   0  0  0  0  0  0  0  0  0  0  0  0
  -30.1050  -15.9710   20.3300 N   0  0  0  0  0  0  0  0  0  0  0  0
  -25.4250  -13.9910   20.5130 C   0  0  0  0  0  0  0  0  0  0  0  0
  -24.3720  -13.2070   20.8980 C   0  0  0  0  0  0  0  0  0  0  0  0
  -24.8320  -11.8560   20.8110 C   0  0  0  0  0  0  0  0  0  0  0  0
  -26.4590  -13.1180   20.2120 N   0  0  0  0  0  0  0  0  0  0  0  0
  -26.1100  -11.8280   20.4510 N   0  0  0  0  0  0  0  0  0  0  0  0
  -24.1120  -10.5890   20.9890 C   0  0  0  0  0  0  0  0  0  0  0  0
  -24.5300   -9.6300   21.9380 C   0  0  0  0  0  3  0  0  0  0  0  0
  -23.8100   -8.4270   22.1080 C   0  0  0  0  0  3  0  0  0  0  0  0
  -22.6580   -8.1750   21.3260 C   0  0  0  0  0  0  0  0  0  0  0  0
  -22.2590   -9.1220   20.3650 C   0  0  0  0  0  3  0  0  0  0  0  0
  -22.9810  -10.3150   20.1950 C   0  0  0  0  0  3  0  0  0  0  0  0
  -21.9120   -7.0230   21.4010 O   0  0  0  0  0  0  0  0  0  0  0  0
  -21.7820   -6.3260   22.5740 C   0  0  0  0  0  0  0  0  0  0  0  0
  -21.1890   -6.8980   23.7210 C   0  0  0  0  0  3  0  0  0  0  0  0
  -21.0120   -6.1230   24.8850 C   0  0  0  0  0  3  0  0  0  0  0  0
  -21.4200   -4.7750   24.9020 C   0  0  0  0  0  0  0  0  0  0  0  0
  -22.0060   -4.2020   23.7600 C   0  0  0  0  0  3  0  0  0  0  0  0
  -22.1840   -4.9750   22.5990 C   0  0  0  0  0  0  0  0  0  0  0  0
  -22.7300   -4.4120   21.4950 F   0  0  0  0  0  0  0  0  0  0  0  0
  -21.2440   -4.0280   26.0170 F   0  0  0  0  0  0  0  0  0  0  0  0
  -22.9850  -13.6750   21.2340 C   0  0  0  0  0  0  0  0  0  0  0  0
  -22.2830  -12.9470   22.0950 N   0  0  0  0  0  0  0  0  0  0  0  0
  -22.5340  -14.7230   20.7720 O   0  0  0  0  0  0  0  0  0  0  0  0
  -22.6610  -12.0990   22.4930 H   0  0  0  0  0  0  0  0  0  0  0  0
  -21.3560  -13.2430   22.3620 H   0  0  0  0  0  0  0  0  0  0  0  0
  -25.5840  -15.3660   20.3740 N   0  0  0  0  0  0  0  0  0  0  0  0
  -24.8280  -16.0200   20.5410 H   0  0  0  0  0  0  0  0  0  0  0  0
  -26.4340  -15.8140   20.0600 H   0  0  0  0  0  0  0  0  0  0  0  0
  -29.1870  -24.9370   21.7880 C   0  0  0  0  0  2  0  0  0  0  0  0
  -28.4020  -23.9100   21.0110 C   0  0  0  0  0  3  0  0  0  0  0  0
  -28.0010  -25.4390   20.9870 C   0  0  0  0  0  3  0  0  0  0  0  0
  -28.4020  -26.6380   20.2300 O   0  0  0  0  0  0  0  0  0  0  0  0
  -24.5940  -31.9530   23.2060 C   0  0  0  0  0  0  0  0  0  0  0  0
  -27.3270  -27.5210   20.1140 C   0  0  0  0  0  0  0  0  0  0  0  0
  -23.4310  -30.5490   21.5400 C   0  0  0  0  0  3  0  0  0  0  0  0
  -24.9280  -29.0560   20.1000 C   0  0  0  0  0  0  0  0  0  0  0  0
  -25.9620  -30.9350   21.3770 C   0  0  0  0  0  2  0  0  0  0  0  0
  -26.0810  -29.5700   20.7110 C   0  0  0  0  0  0  0  0  0  0  0  0
  -27.2880  -28.8140   20.7120 C   0  0  0  0  0  3  0  0  0  0  0  0
  -26.1610  -27.0550   19.4680 C   0  0  0  0  0  3  0  0  0  0  0  0
  -24.9710  -27.8030   19.4670 C   0  0  0  0  0  3  0  0  0  0  0  0
  -23.6700  -29.8950   20.1530 C   0  0  0  0  0  2  0  0  0  0  0  0
  -24.6800  -31.1590   22.0990 N   0  0  0  0  0  0  0  0  0  0  0  0
  -23.5020  -32.2020   23.7370 O   0  0  0  0  0  0  0  0  0  0  0  0
  -22.7830  -29.5070   22.4830 C   0  0  0  0  0  0  0  0  0  0  0  0
  -21.4600  -29.3170   22.3550 N   0  0  0  0  0  0  0  0  0  0  0  0
  -23.4710  -28.8750   23.2900 O   0  0  0  0  0  0  0  0  0  0  0  0
  -20.9650  -29.8800   21.6770 H   0  0  0  0  0  0  0  0  0  0  0  0
  -18.0880  -28.1150   22.8710 C   0  0  0  0  0  0  0  0  0  0  0  0
  -20.6510  -28.3600   23.1100 C   0  0  0  0  0  3  0  0  0  0  0  0
  -20.7400  -26.9450   22.4910 C   0  0  0  0  0  2  0  0  0  0  0  0
  -19.6220  -26.6550   21.4850 C   0  0  0  0  0  2  0  0  0  0  0  0
  -18.2500  -26.7860   22.1540 C   0  0  0  0  0  2  0  0  0  0  0  0
  -19.2150  -28.8620   23.3050 C   0  0  0  0  0  0  0  0  0  0  0  0
  -19.0090  -30.1070   23.9360 C   0  0  0  0  0  3  0  0  0  0  0  0
  -17.7080  -30.6060   24.1380 C   0  0  0  0  0  3  0  0  0  0  0  0
  -16.5950  -29.8570   23.7190 C   0  0  0  0  0  3  0  0  0  0  0  0
  -16.7860  -28.6130   23.0900 C   0  0  0  0  0  3  0  0  0  0  0  0
  -25.8610  -32.6030   23.8440 C   0  0  0  0  0  3  0  0  0  0  0  0
  -26.3630  -31.8460   25.1350 C   0  0  1  0  0  0  0  0  0  0  0  0
  -25.2530  -31.6000   26.1820 C   0  0  0  0  0  1  0  0  0  0  0  0
  -26.9730  -30.4750   24.7630 C   0  0  0  0  0  1  0  0  0  0  0  0
  -27.4900  -32.6600   25.8140 C   0  0  0  0  0  1  0  0  0  0  0  0
  -25.5330  -34.0000   24.1590 N   0  0  0  0  0  0  0  0  0  0  0  0
  -25.8770  -35.0510   23.4020 C   0  0  0  0  0  0  0  0  0  0  0  0
  -26.5740  -34.9470   22.3880 O   0  0  0  0  0  0  0  0  0  0  0  0
  -24.9160  -34.1550   24.9420 H   0  0  0  0  0  0  0  0  0  0  0  0
  -24.1680  -36.8450   22.9690 C   0  0  0  0  0  1  0  0  0  0  0  0
  -25.3690  -36.4380   23.8380 C   0  0  0  0  0  3  0  0  0  0  0  0
  -27.4540  -37.3290   24.7810 C   0  0  0  0  0  1  0  0  0  0  0  0
  -26.4060  -37.4920   23.7770 N   0  0  0  0  0  0  0  0  0  0  0  0
  -25.9910  -38.4120   23.8980 H   0  0  0  0  0  0  0  0  0  0  0  0
  -31.2300  -19.7810   18.0030 N   0  0  0  0  0  0  0  0  0  0  0  0
  -30.8760  -18.9210   18.4190 H   0  0  0  0  0  0  0  0  0  0  0  0
  -33.4610  -18.6510   18.5230 C   0  0  0  0  0  2  0  0  0  0  0  0
  -33.5900  -19.2680   17.1510 C   0  0  0  0  0  2  0  0  0  0  0  0
  -32.6720  -19.8920   18.1760 C   0  0  0  0  0  3  0  0  0  0  0  0
  1  3  1  0
  2  1  2  0
  3  8  1  0
  4  6  2  0
  4  2  1  0
  5 22  1  0
  5  3  2  0
  6  5  1  0
  7  2  1  0
  9  4  1  0
 10 23  1  0
 11 16  1  0
 12 13  1  0
 12 11  1  0
 14 13  1  0
 14 27  1  0
 14 15  1  0
 16 10  1  0
 16 15  1  0
 17 10  2  0
 18 22  1  0
 19 21  1  0
 20 18  1  0
 20 23  1  0
 22 19  1  0
 23 21  1  0
 24 25  2  0
 25 44  1  0
 26 25  1  0
 26 29  1  0
 27 28  1  0
 27 24  1  0
 28 26  2  0
 29 30  1  0
 30 31  2  0
 32 35  1  0
 32 31  1  0
 33 32  2  0
 34 33  1  0
 34 29  2  0
 35 36  1  0
 36 41  2  0
 36 37  1  0
 37 38  2  0
 38 39  1  0
 39 43  1  0
 40 39  2  0
 41 40  1  0
 42 41  1  0
 44 45  1  0
 45 48  1  0
 45 47  1  0
 46 44  2  0
 49 24  1  0
 49 50  1  0
 51 49  1  0
 53  1  1  0
 53 52  1  0
 54 55  1  0
 54 53  1  0
 54 52  1  0
 56 67  2  0
 57 55  1  0
 57 62  1  0
 58 66  1  0
 58 68  1  0
 59 65  1  0
 59 61  1  0
 60 66  1  0
 61 62  2  0
 61 60  1  0
 63 57  2  0
 64 63  1  0
 64 59  2  0
 65 58  1  0
 66 56  1  0
 68 70  2  0
 69 68  1  0
 71 69  1  0
 72 81  2  0
 72 77  1  0
 73 69  1  0
 73 77  1  0
 74 73  1  0
 75 76  1  0
 75 74  1  0
 76 72  1  0
 77 78  2  0
 78 79  1  0
 80 79  2  0
 81 80  1  0
 82 56  1  0
 82 87  1  0
 82 83  1  0
 83 86  1  1
 83 84  1  0
 85 83  1  0
 87 90  1  0
 88 92  1  0
 88 87  1  0
 89 88  2  0
 92 91  1  0
 94 92  1  0
 94 95  1  0
 94 93  1  0
 96100  1  0
 96 97  1  0
 96  6  1  0
 99100  1  0
 99 98  1  0
100 98  1  0
M  ISO  4  10 100  23 100  54 101  55 101
M  END
>  <TORSDO>  (54) 
F 19

>  <SCORE>  (54) 
-14.140

>  <name>  (54) 
53

>  <ligand_id>  (54) 
53

>  <original_smiles>  (54) 
[H]c1c([H])c([H])c2c(c1[H])C([H])([H])C([H])([H])C([H])([H])C2([H])N([H])C(=O)C1([H])N(C(=O)C([H])(N([H])C(=O)C([H])(N([H])C([H])([H])[H])C([H])([H])[H])C(C([H])([H])[H])(C([H])([H])[H])C([H])([H])[H])C([H])([H])c2c([H])c(OC3([H])C([H])([H])C3([H])c3c(C([H])([H])[H])c(N4C([H])([H])C([H])([H])N(C(=O)N5C([H])([H])C([H])([H])C([H])([H])C([H])(n6nc(-c7c([H])c([H])c(Oc8c([H])c([H])c(F)c([H])c8F)c([H])c7[H])c(C(=O)N([H])[H])c6N([H])[H])C5([H])[H])C([H])([H])C4([H])[H])c(N([H])C4([H])C([H])([H])C4([H])[H])c(C([H])([H])[H])c3C([H])([H])[H])c([H])c([H])c2C1([H])[H]

>  <smiles>  (54) 
[H]c1c([H])c([H])c2c(c1[H])C([H])([H])C([H])([H])C([H])([H])C2([H])N([H])C(=O)C1([H])N(C(=O)C([H])(N([H])C(=O)C([H])(N([H])C([H])([H])[H])C([H])([H])[H])C(C([H])([H])[H])(C([H])([H])[H])C([H])([H])[H])C([H])([H])c2c([H])c(OC3([H])C([H])([H])C3([H])c3c(C([H])([H])[H])c(N4C([H])([H])C([H])([H])N(C(=O)N5C([H])([H])C([H])([H])C([H])([H])C([H])(n6nc(-c7c([H])c([H])c(Oc8c([H])c([H])c(F)c([H])c8F)c([H])c7[H])c(C(=O)N([H])[H])c6N([H])[H])C5([H])[H])C([H])([H])C4([H])[H])c(N([H])C4([H])C([H])([H])C4([H])[H])c(C([H])([H])[H])c3C([H])([H])[H])c([H])c([H])c2C1([H])[H]

$$$$
54:0:0
     RDKit          3D

 92101  0  0  1  0  0  0  0  0999 V2000
  -29.3560  -22.8690   18.8340 C   0  0  0  0  0  3  0  0  0  0  0  0
  -29.7340  -20.6940   20.0890 C   0  0  0  0  0  0  0  0  0  0  0  0
  -29.0890  -23.6820   19.9750 C   0  0  0  0  0  0  0  0  0  0  0  0
  -29.5760  -21.5290   21.2570 C   0  0  0  0  0  0  0  0  0  0  0  0
  -29.2800  -22.9590   21.2040 C   0  0  0  0  0  0  0  0  0  0  0  0
  -29.6590  -21.4640   18.8810 C   0  0  0  0  0  0  0  0  0  0  0  0
  -29.6290  -20.8550   22.6240 C   0  0  0  0  0  1  0  0  0  0  0  0
  -29.0730  -23.7190   22.5090 C   0  0  0  0  0  1  0  0  0  0  0  0
  -29.7850  -20.8330   17.6910 F   0  0  0  0  0  0  0  0  0  0  0  0
  -30.5440  -18.3450   19.0420 C   0  0  0  0  0  2  0  0  0  0  0  0
  -29.7100  -19.0600   20.0860 C   0  0  0  0  0  3  0  0  0  0  0  0
  -30.7130  -17.8070   20.4330 C   0  0  0  0  0  3  0  0  0  0  0  0
  -31.1500  -15.1810   20.5850 C   0  0  0  0  0  0  0  0  0  0  0  0
  -31.0660  -12.7960   19.7910 C   0  0  0  0  0  2  0  0  0  0  0  0
  -30.2160  -12.7030   18.5040 C   0  0  0  0  0  2  0  0  0  0  0  0
  -28.7230  -12.5300   18.8450 C   0  0  0  0  0  2  0  0  0  0  0  0
  -28.2460  -13.5230   19.9380 C   0  0  0  0  0  3  0  0  0  0  0  0
  -29.2260  -13.5880   21.1300 C   0  0  0  0  0  2  0  0  0  0  0  0
  -30.5460  -13.9340   20.5880 N   0  0  0  0  0  0  0  0  0  0  0  0
  -32.3620  -15.2550   20.3630 O   0  0  0  0  0  0  0  0  0  0  0  0
  -30.3520  -16.3320   20.5980 N   0  0  0  0  0  0  0  0  0  0  0  0
  -29.3700  -16.1480   20.7320 H   0  0  0  0  0  0  0  0  0  0  0  0
  -25.8340  -14.1430   20.5440 C   0  0  0  0  0  0  0  0  0  0  0  0
  -24.7410  -13.3840   20.8600 C   0  0  0  0  0  0  0  0  0  0  0  0
  -25.1880  -12.0270   20.8570 C   0  0  0  0  0  0  0  0  0  0  0  0
  -26.8770  -13.2500   20.3630 N   0  0  0  0  0  0  0  0  0  0  0  0
  -26.4930  -11.9720   20.6150 N   0  0  0  0  0  0  0  0  0  0  0  0
  -24.4340  -10.7760   21.0100 C   0  0  0  0  0  0  0  0  0  0  0  0
  -24.7890   -9.8140   21.9830 C   0  0  0  0  0  3  0  0  0  0  0  0
  -24.0360   -8.6290   22.1250 C   0  0  0  0  0  3  0  0  0  0  0  0
  -22.9150   -8.3950   21.2950 C   0  0  0  0  0  0  0  0  0  0  0  0
  -22.5810   -9.3440   20.3120 C   0  0  0  0  0  3  0  0  0  0  0  0
  -23.3340  -10.5210   20.1680 C   0  0  0  0  0  3  0  0  0  0  0  0
  -22.1410   -7.2610   21.3430 O   0  0  0  0  0  0  0  0  0  0  0  0
  -21.9670   -6.5570   22.5080 C   0  0  0  0  0  0  0  0  0  0  0  0
  -21.3930   -7.1480   23.6540 C   0  0  0  0  0  3  0  0  0  0  0  0
  -21.1680   -6.3700   24.8090 C   0  0  0  0  0  3  0  0  0  0  0  0
  -21.5080   -5.0040   24.8150 C   0  0  0  0  0  0  0  0  0  0  0  0
  -22.0750   -4.4130   23.6720 C   0  0  0  0  0  3  0  0  0  0  0  0
  -22.3020   -5.1880   22.5210 C   0  0  0  0  0  0  0  0  0  0  0  0
  -22.8280   -4.6100   21.4150 F   0  0  0  0  0  0  0  0  0  0  0  0
  -21.2860   -4.2550   25.9200 F   0  0  0  0  0  0  0  0  0  0  0  0
  -23.3380  -13.8810   21.0550 C   0  0  0  0  0  0  0  0  0  0  0  0
  -22.5610  -13.2070   21.8950 N   0  0  0  0  0  0  0  0  0  0  0  0
  -22.9400  -14.9040   20.4980 O   0  0  0  0  0  0  0  0  0  0  0  0
  -22.8960  -12.3800   22.3660 H   0  0  0  0  0  0  0  0  0  0  0  0
  -21.6180  -13.5240   22.0690 H   0  0  0  0  0  0  0  0  0  0  0  0
  -26.0230  -15.5110   20.3710 N   0  0  0  0  0  0  0  0  0  0  0  0
  -25.2530  -16.1690   20.4390 H   0  0  0  0  0  0  0  0  0  0  0  0
  -26.8790  -15.9390   20.0450 H   0  0  0  0  0  0  0  0  0  0  0  0
  -28.2460  -25.0650   19.8200 C   0  0  0  0  0  2  0  0  0  0  0  0
  -28.6120  -26.5140   20.1500 O   0  0  0  0  0  0  0  0  0  0  0  0
  -24.8710  -31.9320   23.3690 C   0  0  0  0  0  0  0  0  0  0  0  0
  -27.5550  -27.4850   20.0970 C   0  0  0  0  0  0  0  0  0  0  0  0
  -23.7090  -30.6210   21.6370 C   0  0  0  0  0  3  0  0  0  0  0  0
  -25.1970  -29.1720   20.1350 C   0  0  0  0  0  0  0  0  0  0  0  0
  -26.2580  -30.9420   21.5190 C   0  0  0  0  0  2  0  0  0  0  0  0
  -26.3590  -29.5970   20.7920 C   0  0  0  0  0  0  0  0  0  0  0  0
  -27.5380  -28.7670   20.7670 C   0  0  0  0  0  3  0  0  0  0  0  0
  -26.3700  -27.1740   19.3830 C   0  0  0  0  0  3  0  0  0  0  0  0
  -25.2140  -27.9730   19.4150 C   0  0  0  0  0  3  0  0  0  0  0  0
  -23.9510  -30.0350   20.2220 C   0  0  0  0  0  2  0  0  0  0  0  0
  -24.9650  -31.1810   22.2310 N   0  0  0  0  0  0  0  0  0  0  0  0
  -23.7750  -32.1720   23.8980 O   0  0  0  0  0  0  0  0  0  0  0  0
  -23.0360  -29.5450   22.5250 C   0  0  0  0  0  0  0  0  0  0  0  0
  -21.7200  -29.3410   22.3420 N   0  0  0  0  0  0  0  0  0  0  0  0
  -23.7000  -28.9000   23.3400 O   0  0  0  0  0  0  0  0  0  0  0  0
  -21.2410  -29.9140   21.6620 H   0  0  0  0  0  0  0  0  0  0  0  0
  -18.3660  -28.0120   22.6520 C   0  0  0  0  0  0  0  0  0  0  0  0
  -20.8990  -28.3500   23.0420 C   0  0  0  0  0  3  0  0  0  0  0  0
  -21.0760  -26.9440   22.4210 C   0  0  0  0  0  2  0  0  0  0  0  0
  -20.0300  -26.6240   21.3460 C   0  0  0  0  0  2  0  0  0  0  0  0
  -18.6180  -26.6980   21.9320 C   0  0  0  0  0  2  0  0  0  0  0  0
  -19.4370  -28.7960   23.1570 C   0  0  0  0  0  0  0  0  0  0  0  0
  -19.1470  -30.0280   23.7840 C   0  0  0  0  0  3  0  0  0  0  0  0
  -17.8180  -30.4740   23.9150 C   0  0  0  0  0  3  0  0  0  0  0  0
  -16.7610  -29.6880   23.4250 C   0  0  0  0  0  3  0  0  0  0  0  0
  -17.0350  -28.4590   22.8000 C   0  0  0  0  0  3  0  0  0  0  0  0
  -26.1340  -32.5440   24.0470 C   0  0  0  0  0  3  0  0  0  0  0  0
  -25.8180  -33.9370   24.4030 N   0  0  0  0  0  0  0  0  0  0  0  0
  -26.1480  -35.0060   23.6680 C   0  0  0  0  0  0  0  0  0  0  0  0
  -26.8210  -34.9270   22.6370 O   0  0  0  0  0  0  0  0  0  0  0  0
  -25.2230  -34.0710   25.2080 H   0  0  0  0  0  0  0  0  0  0  0  0
  -24.4100  -36.7990   23.3590 C   0  0  0  0  0  1  0  0  0  0  0  0
  -25.6580  -36.3850   24.1540 C   0  0  0  0  0  3  0  0  0  0  0  0
  -27.7880  -37.2740   24.9950 C   0  0  0  0  0  1  0  0  0  0  0  0
  -26.6870  -37.4440   24.0510 N   0  0  0  0  0  0  0  0  0  0  0  0
  -26.2770  -38.3620   24.2040 H   0  0  0  0  0  0  0  0  0  0  0  0
  -26.6000  -31.7400   25.3210 C   0  0  1  0  0  0  0  0  0  0  0  0
  -25.4680  -31.4820   26.3440 C   0  0  0  0  0  1  0  0  0  0  0  0
  -27.1890  -30.3670   24.9190 C   0  0  0  0  0  1  0  0  0  0  0  0
  -27.7340  -32.5100   26.0390 C   0  0  0  0  0  1  0  0  0  0  0  0
  1  6  2  0
  1  3  1  0
  2  4  2  0
  3  5  2  0
  4  7  1  0
  5  4  1  0
  5  8  1  0
  6  2  1  0
  9  6  1  0
 10 11  1  0
 10 12  1  0
 11  2  1  0
 11 12  1  0
 12 21  1  0
 13 19  1  0
 13 21  1  0
 14 19  1  0
 15 16  1  0
 15 14  1  0
 17 16  1  0
 17 26  1  0
 17 18  1  0
 19 18  1  0
 20 13  2  0
 21 22  1  0
 23 24  2  0
 24 43  1  0
 25 24  1  0
 25 28  1  0
 26 23  1  0
 26 27  1  0
 27 25  2  0
 28 29  1  0
 29 30  2  0
 31 34  1  0
 31 30  1  0
 32 31  2  0
 33 32  1  0
 33 28  2  0
 34 35  1  0
 35 40  2  0
 35 36  1  0
 36 37  2  0
 37 38  1  0
 38 42  1  0
 39 38  2  0
 40 39  1  0
 41 40  1  0
 43 44  1  0
 44 47  1  0
 44 46  1  0
 45 43  2  0
 48 49  1  0
 48 23  1  0
 50 48  1  0
 51  3  1  0
 51 52  1  0
 53 64  2  0
 54 52  1  0
 54 59  1  0
 55 63  1  0
 55 65  1  0
 56 62  1  0
 56 58  1  0
 57 63  1  0
 58 57  1  0
 59 58  2  0
 60 61  1  0
 60 54  2  0
 61 56  2  0
 62 55  1  0
 63 53  1  0
 65 67  2  0
 66 65  1  0
 68 66  1  0
 69 78  2  0
 69 74  1  0
 70 66  1  0
 70 74  1  0
 71 70  1  0
 72 73  1  0
 72 71  1  0
 73 69  1  0
 74 75  2  0
 75 76  1  0
 77 76  2  0
 78 77  1  0
 79 53  1  0
 79 80  1  0
 79 89  1  0
 80 83  1  0
 81 85  1  0
 81 80  1  0
 82 81  2  0
 85 84  1  0
 87 85  1  0
 87 88  1  0
 87 86  1  0
 89 92  1  1
 89 90  1  0
 91 89  1  0
M  ISO  4  13 100  21 100  51 101  52 101
M  END
>  <TORSDO>  (55) 
F 18

>  <SCORE>  (55) 
-13.433

>  <name>  (55) 
54

>  <ligand_id>  (55) 
54

>  <original_smiles>  (55) 
[H]c1c([H])c([H])c2c(c1[H])C([H])([H])C([H])([H])C([H])([H])C2([H])N([H])C(=O)C1([H])N(C(=O)C([H])(N([H])C(=O)C([H])(N([H])C([H])([H])[H])C([H])([H])[H])C(C([H])([H])[H])(C([H])([H])[H])C([H])([H])[H])C([H])([H])c2c([H])c(OC([H])([H])c3c([H])c(F)c(C4([H])C([H])([H])C4([H])N([H])C(=O)N4C([H])([H])C([H])([H])C([H])([H])C([H])(n5nc(-c6c([H])c([H])c(Oc7c([H])c([H])c(F)c([H])c7F)c([H])c6[H])c(C(=O)N([H])[H])c5N([H])[H])C4([H])[H])c(C([H])([H])[H])c3C([H])([H])[H])c([H])c([H])c2C1([H])[H]

>  <smiles>  (55) 
[H]c1c([H])c([H])c2c(c1[H])C([H])([H])C([H])([H])C([H])([H])C2([H])N([H])C(=O)C1([H])N(C(=O)C([H])(N([H])C(=O)C([H])(N([H])C([H])([H])[H])C([H])([H])[H])C(C([H])([H])[H])(C([H])([H])[H])C([H])([H])[H])C([H])([H])c2c([H])c(OC([H])([H])c3c([H])c(F)c(C4([H])C([H])([H])C4([H])N([H])C(=O)N4C([H])([H])C([H])([H])C([H])([H])C([H])(n5nc(-c6c([H])c([H])c(Oc7c([H])c([H])c(F)c([H])c7F)c([H])c6[H])c(C(=O)N([H])[H])c5N([H])[H])C4([H])[H])c(C([H])([H])[H])c3C([H])([H])[H])c([H])c([H])c2C1([H])[H]

$$$$
55:0:0
     RDKit          3D

 99109  0  0  1  0  0  0  0  0999 V2000
  -30.6630  -22.2910   18.4260 C   0  0  0  0  0  3  0  0  0  0  0  0
  -29.7090  -22.7900   19.3490 C   0  0  0  0  0  0  0  0  0  0  0  0
  -29.2770  -24.1950   19.1960 C   0  0  0  0  0  0  0  0  0  0  0  0
  -29.7250  -24.8980   18.0230 C   0  0  0  0  0  0  0  0  0  0  0  0
  -30.7110  -24.3540   17.1620 C   0  0  0  0  0  0  0  0  0  0  0  0
  -31.1960  -23.0600   17.3840 C   0  0  0  0  0  0  0  0  0  0  0  0
  -29.1130  -26.2390   17.6110 C   0  0  0  0  0  1  0  0  0  0  0  0
  -31.2510  -25.1390   15.9680 C   0  0  0  0  0  1  0  0  0  0  0  0
  -29.2500  -21.9250   21.8610 C   0  0  0  0  0  2  0  0  0  0  0  0
  -30.5600  -21.1530   21.8420 C   0  0  0  0  0  2  0  0  0  0  0  0
  -29.1930  -21.6770   20.3550 C   0  0  0  0  0  3  0  0  0  0  0  0
  -30.1260  -20.4830   20.6070 N   0  0  2  0  0  4  0  0  0  0  0  0
  -30.8910  -20.5120   19.9520 H   0  0  0  0  0  0  0  0  0  0  0  0
  -30.6040  -14.6820   20.0980 C   0  0  0  0  0  0  0  0  0  0  0  0
  -30.2740  -12.4610   19.0180 C   0  0  0  0  0  2  0  0  0  0  0  0
  -29.2780  -12.6040   17.8470 C   0  0  0  0  0  2  0  0  0  0  0  0
  -27.8300  -12.4390   18.3500 C   0  0  0  0  0  2  0  0  0  0  0  0
  -27.5330  -13.2920   19.6120 C   0  0  0  0  0  3  0  0  0  0  0  0
  -28.6490  -13.1600   20.6710 C   0  0  0  0  0  2  0  0  0  0  0  0
  -29.9220  -13.4910   20.0180 N   0  0  0  0  0  0  0  0  0  0  0  0
  -31.7680  -14.7620   19.6920 O   0  0  0  0  0  0  0  0  0  0  0  0
  -30.6850  -18.0980   21.5180 C   0  0  0  0  0  2  0  0  0  0  0  0
  -29.4770  -18.2210   19.4260 C   0  0  0  0  0  2  0  0  0  0  0  0
  -30.2970  -16.5870   21.7010 C   0  0  0  0  0  2  0  0  0  0  0  0
  -29.1170  -16.6770   19.5540 C   0  0  0  0  0  2  0  0  0  0  0  0
  -29.6590  -19.0140   20.7610 C   0  0  0  0  0  3  0  0  0  0  0  0
  -29.9290  -15.8320   20.4820 N   0  0  0  0  0  0  0  0  0  0  0  0
  -25.1920  -13.8860   20.4790 C   0  0  0  0  0  0  0  0  0  0  0  0
  -24.1370  -13.1120   20.8800 C   0  0  0  0  0  0  0  0  0  0  0  0
  -24.5840  -11.7590   20.7910 C   0  0  0  0  0  0  0  0  0  0  0  0
  -26.2130  -13.0050   20.1650 N   0  0  0  0  0  0  0  0  0  0  0  0
  -25.8570  -11.7180   20.4150 N   0  0  0  0  0  0  0  0  0  0  0  0
  -23.8540  -10.4990   20.9850 C   0  0  0  0  0  0  0  0  0  0  0  0
  -24.2960   -9.5230   21.9060 C   0  0  0  0  0  3  0  0  0  0  0  0
  -23.5660   -8.3270   22.0870 C   0  0  0  0  0  3  0  0  0  0  0  0
  -22.3810   -8.1010   21.3470 C   0  0  0  0  0  0  0  0  0  0  0  0
  -21.9580   -9.0660   20.4170 C   0  0  0  0  0  3  0  0  0  0  0  0
  -22.6880  -10.2530   20.2330 C   0  0  0  0  0  3  0  0  0  0  0  0
  -21.6220   -6.9600   21.4380 O   0  0  0  0  0  0  0  0  0  0  0  0
  -21.5560   -6.2310   22.5980 C   0  0  0  0  0  0  0  0  0  0  0  0
  -21.0840   -6.7920   23.8040 C   0  0  0  0  0  3  0  0  0  0  0  0
  -20.9660   -5.9880   24.9560 C   0  0  0  0  0  3  0  0  0  0  0  0
  -21.3120   -4.6240   24.9020 C   0  0  0  0  0  0  0  0  0  0  0  0
  -21.7790   -4.0640   23.7000 C   0  0  0  0  0  3  0  0  0  0  0  0
  -21.8990   -4.8640   22.5510 C   0  0  0  0  0  0  0  0  0  0  0  0
  -22.3300   -4.3140   21.3900 F   0  0  0  0  0  0  0  0  0  0  0  0
  -21.1920   -3.8500   26.0050 F   0  0  0  0  0  0  0  0  0  0  0  0
  -22.7610  -13.5980   21.2310 C   0  0  0  0  0  0  0  0  0  0  0  0
  -22.0630  -12.8870   22.1100 N   0  0  0  0  0  0  0  0  0  0  0  0
  -22.3130  -14.6440   20.7640 O   0  0  0  0  0  0  0  0  0  0  0  0
  -22.4370  -12.0430   22.5180 H   0  0  0  0  0  0  0  0  0  0  0  0
  -21.1420  -13.1990   22.3840 H   0  0  0  0  0  0  0  0  0  0  0  0
  -25.3600  -15.2600   20.3360 N   0  0  0  0  0  0  0  0  0  0  0  0
  -24.6050  -15.9130   20.5160 H   0  0  0  0  0  0  0  0  0  0  0  0
  -26.1970  -15.7060   19.9880 H   0  0  0  0  0  0  0  0  0  0  0  0
  -33.3980  -22.3040   17.1090 C   0  0  0  0  0  1  0  0  0  0  0  0
  -32.1170  -22.5140   16.5280 O   0  0  0  0  0  0  0  0  0  0  0  0
  -28.2890  -24.9780   20.1540 C   0  0  0  0  0  2  0  0  0  0  0  0
  -28.3850  -26.4720   20.2250 O   0  0  0  0  0  0  0  0  0  0  0  0
  -24.6260  -31.8690   23.2420 C   0  0  0  0  0  0  0  0  0  0  0  0
  -27.2400  -27.2940   20.2050 C   0  0  0  0  0  0  0  0  0  0  0  0
  -23.4230  -30.4650   21.6060 C   0  0  0  0  0  3  0  0  0  0  0  0
  -24.8730  -28.9100   20.1880 C   0  0  0  0  0  0  0  0  0  0  0  0
  -25.9630  -30.7830   21.4240 C   0  0  0  0  0  2  0  0  0  0  0  0
  -26.0420  -29.4020   20.7820 C   0  0  0  0  0  0  0  0  0  0  0  0
  -27.2280  -28.6060   20.7790 C   0  0  0  0  0  3  0  0  0  0  0  0
  -26.0460  -26.8620   19.5830 C   0  0  0  0  0  3  0  0  0  0  0  0
  -24.8780  -27.6470   19.5800 C   0  0  0  0  0  3  0  0  0  0  0  0
  -23.6370  -29.7860   20.2290 C   0  0  0  0  0  2  0  0  0  0  0  0
  -24.6900  -31.0580   22.1470 N   0  0  0  0  0  0  0  0  0  0  0  0
  -23.5430  -32.1470   23.7760 O   0  0  0  0  0  0  0  0  0  0  0  0
  -22.7630  -29.4500   22.5700 C   0  0  0  0  0  0  0  0  0  0  0  0
  -21.4370  -29.2700   22.4430 N   0  0  0  0  0  0  0  0  0  0  0  0
  -23.4430  -28.8260   23.3900 O   0  0  0  0  0  0  0  0  0  0  0  0
  -20.9470  -29.8230   21.7550 H   0  0  0  0  0  0  0  0  0  0  0  0
  -18.0580  -28.0860   22.9580 C   0  0  0  0  0  0  0  0  0  0  0  0
  -20.6190  -28.3340   23.2160 C   0  0  0  0  0  3  0  0  0  0  0  0
  -20.7130  -26.9030   22.6390 C   0  0  0  0  0  2  0  0  0  0  0  0
  -19.6040  -26.5870   21.6300 C   0  0  0  0  0  2  0  0  0  0  0  0
  -18.2270  -26.7370   22.2800 C   0  0  0  0  0  2  0  0  0  0  0  0
  -19.1820  -28.8430   23.3840 C   0  0  0  0  0  0  0  0  0  0  0  0
  -18.9720  -30.1050   23.9790 C   0  0  0  0  0  3  0  0  0  0  0  0
  -17.6700  -30.6130   24.1510 C   0  0  0  0  0  3  0  0  0  0  0  0
  -16.5610  -29.8530   23.7420 C   0  0  0  0  0  3  0  0  0  0  0  0
  -16.7560  -28.5910   23.1510 C   0  0  0  0  0  3  0  0  0  0  0  0
  -25.9090  -32.5050   23.8610 C   0  0  0  0  0  3  0  0  0  0  0  0
  -26.4290  -31.7360   25.1370 C   0  0  1  0  0  0  0  0  0  0  0  0
  -25.3370  -31.4940   26.2060 C   0  0  0  0  0  1  0  0  0  0  0  0
  -27.0170  -30.3600   24.7470 C   0  0  0  0  0  1  0  0  0  0  0  0
  -27.5750  -32.5340   25.8000 C   0  0  0  0  0  1  0  0  0  0  0  0
  -25.5960  -33.9020   24.1920 N   0  0  0  0  0  0  0  0  0  0  0  0
  -25.9150  -34.9560   23.4300 C   0  0  0  0  0  0  0  0  0  0  0  0
  -26.5760  -34.8540   22.3910 O   0  0  0  0  0  0  0  0  0  0  0  0
  -25.0080  -34.0550   24.9980 H   0  0  0  0  0  0  0  0  0  0  0  0
  -24.1790  -36.7450   23.0880 C   0  0  0  0  0  1  0  0  0  0  0  0
  -25.4270  -36.3420   23.8920 C   0  0  0  0  0  3  0  0  0  0  0  0
  -27.5590  -37.2390   24.7170 C   0  0  0  0  0  1  0  0  0  0  0  0
  -26.4560  -37.3990   23.7740 N   0  0  0  0  0  0  0  0  0  0  0  0
  -26.0460  -38.3170   23.9190 H   0  0  0  0  0  0  0  0  0  0  0  0
  1  2  1  0
  3  2  2  0
  3 58  1  0
  4  3  1  0
  5  6  1  0
  5  4  2  0
  6  1  2  0
  7  4  1  0
  8  5  1  0
 10  9  1  0
 11  2  1  0
 11 12  1  0
 11  9  1  0
 12 13  1  6
 12 26  1  0
 12 10  1  0
 14 27  1  0
 15 20  1  0
 16 17  1  0
 16 15  1  0
 18 17  1  0
 18 31  1  0
 18 19  1  0
 20 14  1  0
 20 19  1  0
 21 14  2  0
 22 24  1  0
 23 25  1  0
 25 27  1  0
 26 23  1  0
 26 22  1  0
 27 24  1  0
 28 29  2  0
 29 48  1  0
 30 29  1  0
 30 33  1  0
 31 32  1  0
 31 28  1  0
 32 30  2  0
 33 34  1  0
 34 35  2  0
 36 39  1  0
 36 35  1  0
 37 36  2  0
 38 37  1  0
 38 33  2  0
 39 40  1  0
 40 41  1  0
 41 42  2  0
 43 42  1  0
 43 47  1  0
 44 43  2  0
 45 40  2  0
 45 44  1  0
 46 45  1  0
 48 49  1  0
 49 52  1  0
 49 51  1  0
 50 48  2  0
 53 28  1  0
 53 54  1  0
 55 53  1  0
 57 56  1  0
 57  6  1  0
 58 59  1  0
 60 71  2  0
 61 59  1  0
 61 66  1  0
 62 70  1  0
 62 72  1  0
 63 69  1  0
 63 65  1  0
 64 70  1  0
 65 64  1  0
 66 65  2  0
 67 61  2  0
 68 67  1  0
 68 63  2  0
 69 62  1  0
 70 60  1  0
 72 74  2  0
 73 72  1  0
 75 73  1  0
 76 85  2  0
 76 81  1  0
 77 73  1  0
 77 81  1  0
 78 77  1  0
 79 80  1  0
 79 78  1  0
 80 76  1  0
 81 82  2  0
 82 83  1  0
 84 83  2  0
 85 84  1  0
 86 60  1  0
 86 91  1  0
 86 87  1  0
 87 90  1  1
 87 88  1  0
 89 87  1  0
 91 94  1  0
 92 96  1  0
 92 91  1  0
 93 92  2  0
 96 95  1  0
 98 96  1  0
 98 99  1  0
 98 97  1  0
M  ISO  4  14 100  27 100  58 101  59 101
M  END
>  <TORSDO>  (56) 
F 19

>  <SCORE>  (56) 
-14.626

>  <name>  (56) 
55

>  <ligand_id>  (56) 
55

>  <original_smiles>  (56) 
[H]c1c([H])c([H])c2c(c1[H])C([H])([H])C([H])([H])C([H])([H])C2([H])N([H])C(=O)C1([H])N(C(=O)C([H])(N([H])C(=O)C([H])(N([H])C([H])([H])[H])C([H])([H])[H])C(C([H])([H])[H])(C([H])([H])[H])C([H])([H])[H])C([H])([H])c2c([H])c(OC([H])([H])c3c(C([H])([H])[H])c(C([H])([H])[H])c(OC([H])([H])[H])c([H])c3C3([H])C([H])([H])C([H])([H])[N+]3([H])C3([H])C([H])([H])C([H])([H])N(C(=O)N4C([H])([H])C([H])([H])C([H])([H])C([H])(n5nc(-c6c([H])c([H])c(Oc7c([H])c([H])c(F)c([H])c7F)c([H])c6[H])c(C(=O)N([H])[H])c5N([H])[H])C4([H])[H])C([H])([H])C3([H])[H])c([H])c([H])c2C1([H])[H]

>  <smiles>  (56) 
[H]c1c([H])c([H])c2c(c1[H])C([H])([H])C([H])([H])C([H])([H])C2([H])N([H])C(=O)C1([H])N(C(=O)C([H])(N([H])C(=O)C([H])(N([H])C([H])([H])[H])C([H])([H])[H])C(C([H])([H])[H])(C([H])([H])[H])C([H])([H])[H])C([H])([H])c2c([H])c(OC([H])([H])c3c(C([H])([H])[H])c(C([H])([H])[H])c(OC([H])([H])[H])c([H])c3C3([H])C([H])([H])C([H])([H])[N+]3([H])C3([H])C([H])([H])C([H])([H])N(C(=O)N4C([H])([H])C([H])([H])C([H])([H])C([H])(n5nc(-c6c([H])c([H])c(Oc7c([H])c([H])c(F)c([H])c7F)c([H])c6[H])c(C(=O)N([H])[H])c5N([H])[H])C4([H])[H])C([H])([H])C3([H])[H])c([H])c([H])c2C1([H])[H]

$$$$
56:0:0
     RDKit          3D

 96107  0  0  1  0  0  0  0  0999 V2000
  -29.8270  -20.5970   18.5280 C   0  0  0  0  0  3  0  0  0  0  0  0
  -29.4120  -21.9120   18.1890 C   0  0  0  0  0  3  0  0  0  0  0  0
  -28.0850  -20.4660   20.1850 C   0  0  0  0  0  3  0  0  0  0  0  0
  -29.2220  -19.8810   19.5850 C   0  0  0  0  0  0  0  0  0  0  0  0
  -27.5980  -21.7360   19.8030 C   0  0  0  0  0  0  0  0  0  0  0  0
  -28.3370  -22.5340   18.8740 C   0  0  0  0  0  0  0  0  0  0  0  0
  -32.2590  -15.8140   19.9170 C   0  0  0  0  0  0  0  0  0  0  0  0
  -32.1630  -13.4420   19.1870 C   0  0  0  0  0  2  0  0  0  0  0  0
  -31.2600  -13.3260   17.9440 C   0  0  0  0  0  2  0  0  0  0  0  0
  -29.7620  -13.2180   18.3270 C   0  0  0  0  0  2  0  0  0  0  0  0
  -29.3440  -14.2750   19.3800 C   0  0  0  0  0  3  0  0  0  0  0  0
  -30.3550  -14.3100   20.5430 C   0  0  0  0  0  2  0  0  0  0  0  0
  -31.6840  -14.5840   19.9840 N   0  0  0  0  0  0  0  0  0  0  0  0
  -33.3580  -16.0110   19.3750 O   0  0  0  0  0  0  0  0  0  0  0  0
  -30.3970  -18.6220   21.5200 C   0  0  0  0  0  2  0  0  0  0  0  0
  -31.3970  -17.4530   21.6100 C   0  0  0  0  0  2  0  0  0  0  0  0
  -30.8650  -17.8080   19.3260 C   0  0  0  0  0  2  0  0  0  0  0  0
  -29.7660  -18.5410   20.1330 C   0  0  0  0  0  3  0  0  0  0  0  0
  -31.4310  -16.8380   20.2690 N   0  0  0  0  0  0  0  0  0  0  0  0
  -26.9640  -14.9840   20.0480 C   0  0  0  0  0  0  0  0  0  0  0  0
  -25.8780  -14.2640   20.4660 C   0  0  0  0  0  0  0  0  0  0  0  0
  -26.2970  -12.9010   20.4830 C   0  0  0  0  0  0  0  0  0  0  0  0
  -27.9820  -14.0620   19.8580 N   0  0  0  0  0  0  0  0  0  0  0  0
  -27.5890  -12.8060   20.1790 N   0  0  0  0  0  0  0  0  0  0  0  0
  -25.5340  -11.6680   20.7220 C   0  0  0  0  0  0  0  0  0  0  0  0
  -25.8270  -10.8240   21.8130 C   0  0  0  0  0  3  0  0  0  0  0  0
  -25.0720   -9.6510   22.0300 C   0  0  0  0  0  3  0  0  0  0  0  0
  -24.0080   -9.3200   21.1580 C   0  0  0  0  0  0  0  0  0  0  0  0
  -23.7340  -10.1600   20.0630 C   0  0  0  0  0  3  0  0  0  0  0  0
  -24.4900  -11.3210   19.8460 C   0  0  0  0  0  3  0  0  0  0  0  0
  -23.2320   -8.1940   21.2830 O   0  0  0  0  0  0  0  0  0  0  0  0
  -22.7550   -7.7790   22.5000 C   0  0  0  0  0  0  0  0  0  0  0  0
  -21.9320   -8.6040   23.2990 C   0  0  0  0  0  3  0  0  0  0  0  0
  -21.4040   -8.1140   24.5090 C   0  0  0  0  0  3  0  0  0  0  0  0
  -21.6890   -6.7970   24.9190 C   0  0  0  0  0  0  0  0  0  0  0  0
  -22.5030   -5.9710   24.1240 C   0  0  0  0  0  3  0  0  0  0  0  0
  -23.0320   -6.4610   22.9170 C   0  0  0  0  0  0  0  0  0  0  0  0
  -23.7990   -5.6540   22.1440 F   0  0  0  0  0  0  0  0  0  0  0  0
  -21.1730   -6.3220   26.0780 F   0  0  0  0  0  0  0  0  0  0  0  0
  -24.4910  -14.7860   20.7090 C   0  0  0  0  0  0  0  0  0  0  0  0
  -23.7700  -14.2060   21.6620 N   0  0  0  0  0  0  0  0  0  0  0  0
  -24.0520  -15.7530   20.0820 O   0  0  0  0  0  0  0  0  0  0  0  0
  -24.1370  -13.4380   22.2030 H   0  0  0  0  0  0  0  0  0  0  0  0
  -22.8430  -14.5550   21.8610 H   0  0  0  0  0  0  0  0  0  0  0  0
  -27.1580  -16.3330   19.7800 N   0  0  0  0  0  0  0  0  0  0  0  0
  -26.3670  -16.9680   19.8060 H   0  0  0  0  0  0  0  0  0  0  0  0
  -27.8980  -16.6540   19.1590 H   0  0  0  0  0  0  0  0  0  0  0  0
  -25.3550  -23.2720   20.0080 C   0  0  0  0  0  2  0  0  0  0  0  0
  -26.0810  -23.2590   21.3350 C   0  0  0  0  0  2  0  0  0  0  0  0
  -26.2420  -22.1050   20.3780 C   0  0  0  0  0  3  0  0  0  0  0  0
  -28.0370  -23.9120   18.7860 N   0  0  0  0  0  0  0  0  0  0  0  0
  -28.0850  -24.3620   19.6910 H   0  0  0  0  0  0  0  0  0  0  0  0
  -27.4060  -26.1210   18.3320 C   0  0  0  0  0  2  0  0  0  0  0  0
  -27.2820  -24.7640   17.8400 C   0  0  0  0  0  3  0  0  0  0  0  0
  -27.7600  -25.9200   16.8360 C   0  0  0  0  0  3  0  0  0  0  0  0
  -27.2480  -27.2460   16.3560 O   0  0  0  0  0  0  0  0  0  0  0  0
  -25.1480  -29.7140   22.6750 C   0  0  0  0  0  0  0  0  0  0  0  0
  -26.2420  -27.9450   17.0090 C   0  0  0  0  0  0  0  0  0  0  0  0
  -23.3700  -29.3320   20.9980 C   0  0  0  0  0  3  0  0  0  0  0  0
  -24.1500  -29.0190   18.5920 C   0  0  0  0  0  0  0  0  0  0  0  0
  -25.7260  -30.0060   20.2640 C   0  0  0  0  0  2  0  0  0  0  0  0
  -25.4820  -29.2490   18.9620 C   0  0  0  0  0  0  0  0  0  0  0  0
  -26.5400  -28.7240   18.1610 C   0  0  0  0  0  3  0  0  0  0  0  0
  -24.8930  -27.7870   16.6350 C   0  0  0  0  0  3  0  0  0  0  0  0
  -23.8510  -28.2950   17.4270 C   0  0  0  0  0  3  0  0  0  0  0  0
  -23.0760  -29.5820   19.4990 C   0  0  0  0  0  2  0  0  0  0  0  0
  -24.7830  -29.6690   21.3620 N   0  0  0  0  0  0  0  0  0  0  0  0
  -24.3210  -29.5220   23.5770 O   0  0  0  0  0  0  0  0  0  0  0  0
  -22.9760  -27.8840   21.3650 C   0  0  0  0  0  0  0  0  0  0  0  0
  -21.6720  -27.5700   21.2650 N   0  0  0  0  0  0  0  0  0  0  0  0
  -23.8280  -27.0670   21.7190 O   0  0  0  0  0  0  0  0  0  0  0  0
  -21.0310  -28.3040   20.9860 H   0  0  0  0  0  0  0  0  0  0  0  0
  -18.6290  -25.6100   21.1140 C   0  0  0  0  0  0  0  0  0  0  0  0
  -21.0870  -26.2550   21.5600 C   0  0  0  0  0  3  0  0  0  0  0  0
  -21.4550  -25.2250   20.4550 C   0  0  0  0  0  2  0  0  0  0  0  0
  -20.3910  -25.1070   19.3680 C   0  0  0  0  0  2  0  0  0  0  0  0
  -19.0410  -24.6930   19.9730 C   0  0  0  0  0  2  0  0  0  0  0  0
  -19.5870  -26.3420   21.8610 C   0  0  0  0  0  0  0  0  0  0  0  0
  -19.1430  -27.1600   22.9250 C   0  0  0  0  0  3  0  0  0  0  0  0
  -17.7810  -27.2540   23.2470 C   0  0  0  0  0  3  0  0  0  0  0  0
  -16.8330  -26.5430   22.4950 C   0  0  0  0  0  3  0  0  0  0  0  0
  -17.2560  -25.7220   21.4320 C   0  0  0  0  0  3  0  0  0  0  0  0
  -26.6140  -30.0540   23.1020 C   0  0  0  0  0  3  0  0  0  0  0  0
  -27.3610  -28.8360   23.7720 C   0  0  1  0  0  0  0  0  0  0  0  0
  -26.5700  -28.1780   24.9280 C   0  0  0  0  0  1  0  0  0  0  0  0
  -27.6650  -27.7390   22.7250 C   0  0  0  0  0  1  0  0  0  0  0  0
  -28.7240  -29.3030   24.3300 C   0  0  0  0  0  1  0  0  0  0  0  0
  -26.5500  -31.1960   24.0250 N   0  0  0  0  0  0  0  0  0  0  0  0
  -26.9960  -32.4290   23.7440 C   0  0  0  0  0  0  0  0  0  0  0  0
  -27.5840  -32.7030   22.6970 O   0  0  0  0  0  0  0  0  0  0  0  0
  -26.0590  -31.0450   24.8920 H   0  0  0  0  0  0  0  0  0  0  0  0
  -25.6730  -34.4950   24.2880 C   0  0  0  0  0  1  0  0  0  0  0  0
  -26.7560  -33.5290   24.7950 C   0  0  0  0  0  3  0  0  0  0  0  0
  -28.9570  -33.4980   25.8800 C   0  0  0  0  0  1  0  0  0  0  0  0
  -27.9770  -34.2880   25.1430 N   0  0  0  0  0  0  0  0  0  0  0  0
  -27.7420  -35.1010   25.7060 H   0  0  0  0  0  0  0  0  0  0  0  0
  1  4  1  0
  2  1  2  0
  2  6  1  0
  4  3  2  0
  5  3  1  0
  5 50  1  0
  6  5  2  0
  7 13  1  0
  7 19  1  0
  8 13  1  0
  9 10  1  0
  9  8  1  0
 11 10  1  0
 11 23  1  0
 11 12  1  0
 13 12  1  0
 14  7  2  0
 15 16  1  0
 17 18  1  0
 17 19  1  0
 18  4  1  0
 18 15  1  0
 19 16  1  0
 20 21  2  0
 21 22  1  0
 21 40  1  0
 22 25  1  0
 23 20  1  0
 23 24  1  0
 24 22  2  0
 25 26  1  0
 26 27  2  0
 28 31  1  0
 28 27  1  0
 29 28  2  0
 30 29  1  0
 30 25  2  0
 31 32  1  0
 32 37  2  0
 32 33  1  0
 33 34  2  0
 34 35  1  0
 35 39  1  0
 36 35  2  0
 37 36  1  0
 38 37  1  0
 40 41  1  0
 41 44  1  0
 41 43  1  0
 42 40  2  0
 45 46  1  0
 45 20  1  0
 47 45  1  0
 48 50  1  0
 48 49  1  0
 50 49  1  0
 51  6  1  0
 51 52  1  0
 54 53  1  0
 54 51  1  0
 55 56  1  0
 55 54  1  0
 55 53  1  0
 56 58  1  0
 57 68  2  0
 58 63  1  0
 59 67  1  0
 59 69  1  0
 60 62  1  0
 60 66  1  0
 61 67  1  0
 62 61  1  0
 63 62  2  0
 64 58  2  0
 64 65  1  0
 65 60  2  0
 66 59  1  0
 67 57  1  0
 69 71  2  0
 70 69  1  0
 72 70  1  0
 73 82  2  0
 73 78  1  0
 74 70  1  0
 74 78  1  0
 75 74  1  0
 76 77  1  0
 76 75  1  0
 77 73  1  0
 78 79  2  0
 79 80  1  0
 81 80  2  0
 82 81  1  0
 83 57  1  0
 83 84  1  0
 83 88  1  0
 84 87  1  1
 84 85  1  0
 86 84  1  0
 88 91  1  0
 89 88  1  0
 89 93  1  0
 90 89  2  0
 93 92  1  0
 93 95  1  0
 95 96  1  0
 95 94  1  0
M  ISO  4   7 100  19 100  55 101  56 101
M  END
>  <TORSDO>  (57) 
F 19

>  <SCORE>  (57) 
-6.862

>  <name>  (57) 
56

>  <ligand_id>  (57) 
56

>  <original_smiles>  (57) 
[H]c1c([H])c([H])c2c(c1[H])C([H])([H])C([H])([H])C([H])([H])C2([H])N([H])C(=O)C1([H])N(C(=O)C([H])(N([H])C(=O)C([H])(N([H])C([H])([H])[H])C([H])([H])[H])C(C([H])([H])[H])(C([H])([H])[H])C([H])([H])[H])C([H])([H])c2c([H])c(OC3([H])C([H])([H])C3([H])N([H])c3c([H])c([H])c(C4([H])C([H])([H])N(C(=O)N5C([H])([H])C([H])([H])C([H])([H])C([H])(n6nc(-c7c([H])c([H])c(Oc8c([H])c([H])c(F)c([H])c8F)c([H])c7[H])c(C(=O)N([H])[H])c6N([H])[H])C5([H])[H])C([H])([H])C4([H])[H])c([H])c3C3([H])C([H])([H])C3([H])[H])c([H])c([H])c2C1([H])[H]

>  <smiles>  (57) 
[H]c1c([H])c([H])c2c(c1[H])C([H])([H])C([H])([H])C([H])([H])C2([H])N([H])C(=O)C1([H])N(C(=O)C([H])(N([H])C(=O)C([H])(N([H])C([H])([H])[H])C([H])([H])[H])C(C([H])([H])[H])(C([H])([H])[H])C([H])([H])[H])C([H])([H])c2c([H])c(OC3([H])C([H])([H])C3([H])N([H])c3c([H])c([H])c(C4([H])C([H])([H])N(C(=O)N5C([H])([H])C([H])([H])C([H])([H])C([H])(n6nc(-c7c([H])c([H])c(Oc8c([H])c([H])c(F)c([H])c8F)c([H])c7[H])c(C(=O)N([H])[H])c6N([H])[H])C5([H])[H])C([H])([H])C4([H])[H])c([H])c3C3([H])C([H])([H])C3([H])[H])c([H])c([H])c2C1([H])[H]

$$$$
57:0:0
     RDKit          3D

 96106  0  0  1  0  0  0  0  0999 V2000
  -30.5340  -22.8610   20.7030 C   0  0  0  0  0  3  0  0  0  0  0  0
  -28.8910  -23.3980   18.5140 C   0  0  0  0  0  3  0  0  0  0  0  0
  -30.4040  -21.8780   19.6960 C   0  0  0  0  0  0  0  0  0  0  0  0
  -29.9540  -24.1440   20.5690 C   0  0  0  0  0  0  0  0  0  0  0  0
  -29.5300  -22.1410   18.6120 C   0  0  0  0  0  0  0  0  0  0  0  0
  -29.1450  -24.4340   19.4380 C   0  0  0  0  0  0  0  0  0  0  0  0
  -30.3180  -25.2090   21.5910 C   0  0  0  0  0  1  0  0  0  0  0  0
  -29.3820  -21.1720   17.4520 C   0  0  0  0  0  1  0  0  0  0  0  0
  -32.0050  -17.0490   19.0810 C   0  0  0  0  0  2  0  0  0  0  0  0
  -32.1370  -18.4850   18.6670 C   0  0  0  0  0  2  0  0  0  0  0  0
  -30.0850  -18.3110   19.9110 C   0  0  0  0  0  2  0  0  0  0  0  0
  -31.8080  -19.9620   20.8530 C   0  0  0  0  0  2  0  0  0  0  0  0
  -30.5390  -16.8480   19.5140 C   0  0  0  0  0  3  0  0  0  0  0  0
  -31.4670  -20.7980   19.6450 C   0  0  1  0  0  0  0  0  0  0  0  0
  -31.2680  -19.2630   19.6210 C   0  0  1  0  0  0  0  0  0  0  0  0
  -32.6510  -21.4230   18.9090 C   0  0  0  0  0  1  0  0  0  0  0  0
  -30.9150  -14.4750   20.2460 C   0  0  0  0  0  0  0  0  0  0  0  0
  -30.4410  -12.3580   19.0890 C   0  0  0  0  0  2  0  0  0  0  0  0
  -29.4910  -12.6030   17.9030 C   0  0  0  0  0  2  0  0  0  0  0  0
  -28.0290  -12.4890   18.3690 C   0  0  0  0  0  2  0  0  0  0  0  0
  -27.7360  -13.3190   19.6480 C   0  0  0  0  0  3  0  0  0  0  0  0
  -28.8180  -13.1100   20.7280 C   0  0  0  0  0  2  0  0  0  0  0  0
  -30.1240  -13.3740   20.1100 N   0  0  0  0  0  0  0  0  0  0  0  0
  -32.0840  -14.4290   19.8700 O   0  0  0  0  0  0  0  0  0  0  0  0
  -30.0050  -16.0550   21.8410 C   0  0  0  0  0  1  0  0  0  0  0  0
  -30.3150  -15.6890   20.4570 N   0  0  0  0  0  0  0  0  0  0  0  0
  -25.3670  -13.9290   20.4250 C   0  0  0  0  0  0  0  0  0  0  0  0
  -24.3030  -13.1600   20.8130 C   0  0  0  0  0  0  0  0  0  0  0  0
  -24.7580  -11.8060   20.7720 C   0  0  0  0  0  0  0  0  0  0  0  0
  -26.3990  -13.0440   20.1670 N   0  0  0  0  0  0  0  0  0  0  0  0
  -26.0410  -11.7630   20.4370 N   0  0  0  0  0  0  0  0  0  0  0  0
  -24.0290  -10.5470   20.9730 C   0  0  0  0  0  0  0  0  0  0  0  0
  -24.4720   -9.5760   21.8980 C   0  0  0  0  0  3  0  0  0  0  0  0
  -23.7420   -8.3830   22.0880 C   0  0  0  0  0  3  0  0  0  0  0  0
  -22.5550   -8.1510   21.3540 C   0  0  0  0  0  0  0  0  0  0  0  0
  -22.1310   -9.1110   20.4170 C   0  0  0  0  0  3  0  0  0  0  0  0
  -22.8620  -10.2950   20.2250 C   0  0  0  0  0  3  0  0  0  0  0  0
  -21.7960   -7.0110   21.4550 O   0  0  0  0  0  0  0  0  0  0  0  0
  -21.7570   -6.2710   22.6090 C   0  0  0  0  0  0  0  0  0  0  0  0
  -21.3510   -6.8330   23.8400 C   0  0  0  0  0  3  0  0  0  0  0  0
  -21.2570   -6.0200   24.9880 C   0  0  0  0  0  3  0  0  0  0  0  0
  -21.5590   -4.6480   24.9060 C   0  0  0  0  0  0  0  0  0  0  0  0
  -21.9570   -4.0860   23.6790 C   0  0  0  0  0  3  0  0  0  0  0  0
  -22.0530   -4.8950   22.5340 C   0  0  0  0  0  0  0  0  0  0  0  0
  -22.4160   -4.3440   21.3510 F   0  0  0  0  0  0  0  0  0  0  0  0
  -21.4620   -3.8640   26.0050 F   0  0  0  0  0  0  0  0  0  0  0  0
  -22.9150  -13.6440   21.1160 C   0  0  0  0  0  0  0  0  0  0  0  0
  -22.2040  -12.9530   21.9980 N   0  0  0  0  0  0  0  0  0  0  0  0
  -22.4710  -14.6720   20.6050 O   0  0  0  0  0  0  0  0  0  0  0  0
  -22.5750  -12.1200   22.4310 H   0  0  0  0  0  0  0  0  0  0  0  0
  -21.2730  -13.2570   22.2440 H   0  0  0  0  0  0  0  0  0  0  0  0
  -25.5360  -15.2990   20.2480 N   0  0  0  0  0  0  0  0  0  0  0  0
  -24.7840  -15.9640   20.3890 H   0  0  0  0  0  0  0  0  0  0  0  0
  -26.3950  -15.7340   19.9340 H   0  0  0  0  0  0  0  0  0  0  0  0
  -28.6900  -25.8520   19.0600 C   0  0  0  0  0  2  0  0  0  0  0  0
  -28.3660  -26.7240   20.1490 O   0  0  0  0  0  0  0  0  0  0  0  0
  -24.5770  -31.8820   23.2300 C   0  0  0  0  0  0  0  0  0  0  0  0
  -27.1830  -27.4300   20.1270 C   0  0  0  0  0  0  0  0  0  0  0  0
  -23.3510  -30.4780   21.6030 C   0  0  0  0  0  3  0  0  0  0  0  0
  -24.7880  -28.9350   20.1690 C   0  0  0  0  0  0  0  0  0  0  0  0
  -25.8750  -30.8320   21.3800 C   0  0  0  0  0  2  0  0  0  0  0  0
  -25.9510  -29.4580   20.7450 C   0  0  0  0  0  0  0  0  0  0  0  0
  -27.1470  -28.7090   20.7290 C   0  0  0  0  0  3  0  0  0  0  0  0
  -25.9930  -26.9100   19.5690 C   0  0  0  0  0  3  0  0  0  0  0  0
  -24.8020  -27.6580   19.5830 C   0  0  0  0  0  3  0  0  0  0  0  0
  -23.5440  -29.7920   20.2230 C   0  0  0  0  0  2  0  0  0  0  0  0
  -24.6210  -31.0780   22.1280 N   0  0  0  0  0  0  0  0  0  0  0  0
  -23.5020  -32.1580   23.7800 O   0  0  0  0  0  0  0  0  0  0  0  0
  -22.7080  -29.4600   22.5710 C   0  0  0  0  0  0  0  0  0  0  0  0
  -21.3830  -29.2820   22.4570 N   0  0  0  0  0  0  0  0  0  0  0  0
  -23.3980  -28.8340   23.3810 O   0  0  0  0  0  0  0  0  0  0  0  0
  -20.8880  -29.8420   21.7770 H   0  0  0  0  0  0  0  0  0  0  0  0
  -18.0110  -28.0920   22.9720 C   0  0  0  0  0  0  0  0  0  0  0  0
  -20.5690  -28.3490   23.2350 C   0  0  0  0  0  3  0  0  0  0  0  0
  -20.6690  -26.9140   22.6650 C   0  0  0  0  0  2  0  0  0  0  0  0
  -19.5630  -26.5870   21.6570 C   0  0  0  0  0  2  0  0  0  0  0  0
  -18.1840  -26.7380   22.3050 C   0  0  0  0  0  2  0  0  0  0  0  0
  -19.1320  -28.8550   23.3950 C   0  0  0  0  0  0  0  0  0  0  0  0
  -18.9170  -30.1230   23.9770 C   0  0  0  0  0  3  0  0  0  0  0  0
  -17.6140  -30.6290   24.1430 C   0  0  0  0  0  3  0  0  0  0  0  0
  -16.5080  -29.8620   23.7390 C   0  0  0  0  0  3  0  0  0  0  0  0
  -16.7070  -28.5960   23.1600 C   0  0  0  0  0  3  0  0  0  0  0  0
  -25.8710  -32.5100   23.8350 C   0  0  0  0  0  3  0  0  0  0  0  0
  -25.5700  -33.9090   24.1690 N   0  0  0  0  0  0  0  0  0  0  0  0
  -25.9020  -34.9600   23.4080 C   0  0  0  0  0  0  0  0  0  0  0  0
  -26.5650  -34.8560   22.3730 O   0  0  0  0  0  0  0  0  0  0  0  0
  -24.9800  -34.0640   24.9730 H   0  0  0  0  0  0  0  0  0  0  0  0
  -24.1770  -36.7570   23.0620 C   0  0  0  0  0  1  0  0  0  0  0  0
  -25.4190  -36.3480   23.8690 C   0  0  0  0  0  3  0  0  0  0  0  0
  -27.5590  -37.2240   24.6960 C   0  0  0  0  0  1  0  0  0  0  0  0
  -26.4540  -37.3990   23.7570 N   0  0  0  0  0  0  0  0  0  0  0  0
  -26.0510  -38.3190   23.9090 H   0  0  0  0  0  0  0  0  0  0  0  0
  -26.4040  -31.7360   25.1030 C   0  0  1  0  0  0  0  0  0  0  0  0
  -25.3260  -31.4960   26.1840 C   0  0  0  0  0  1  0  0  0  0  0  0
  -26.9800  -30.3590   24.6970 C   0  0  0  0  0  1  0  0  0  0  0  0
  -27.5640  -32.5270   25.7520 C   0  0  0  0  0  1  0  0  0  0  0  0
  2  5  2  0
  2  6  1  0
  3  1  2  0
  4  1  1  0
  4  7  1  0
  5  3  1  0
  6  4  2  0
  8  5  1  0
  9 13  1  0
 10  9  1  0
 13 11  1  0
 13 26  1  0
 14 16  1  6
 14  3  1  0
 14 12  1  0
 15 10  1  6
 15 14  1  0
 15 11  1  0
 15 12  1  0
 17 26  1  0
 18 23  1  0
 19 20  1  0
 19 18  1  0
 21 20  1  0
 21 30  1  0
 21 22  1  0
 23 17  1  0
 23 22  1  0
 24 17  2  0
 26 25  1  0
 27 28  2  0
 28 47  1  0
 29 28  1  0
 29 32  1  0
 30 27  1  0
 30 31  1  0
 31 29  2  0
 32 33  1  0
 33 34  2  0
 35 38  1  0
 35 34  1  0
 36 35  2  0
 37 36  1  0
 37 32  2  0
 38 39  1  0
 39 40  1  0
 40 41  2  0
 42 41  1  0
 42 46  1  0
 43 42  2  0
 44 39  2  0
 44 43  1  0
 45 44  1  0
 47 48  1  0
 48 51  1  0
 48 50  1  0
 49 47  2  0
 52 53  1  0
 52 27  1  0
 54 52  1  0
 55  6  1  0
 55 56  1  0
 57 68  2  0
 58 56  1  0
 58 63  1  0
 59 67  1  0
 59 69  1  0
 60 66  1  0
 60 62  1  0
 61 67  1  0
 62 61  1  0
 63 62  2  0
 64 65  1  0
 64 58  2  0
 65 60  2  0
 66 59  1  0
 67 57  1  0
 69 71  2  0
 70 69  1  0
 72 70  1  0
 73 82  2  0
 73 78  1  0
 74 70  1  0
 74 78  1  0
 75 74  1  0
 76 77  1  0
 76 75  1  0
 77 73  1  0
 78 79  2  0
 79 80  1  0
 81 80  2  0
 82 81  1  0
 83 57  1  0
 83 84  1  0
 83 93  1  0
 84 87  1  0
 85 89  1  0
 85 84  1  0
 86 85  2  0
 89 88  1  0
 91 89  1  0
 91 92  1  0
 91 90  1  0
 93 96  1  1
 93 94  1  0
 95 93  1  0
M  ISO  4  17 100  26 100  55 101  56 101
M  END
>  <TORSDO>  (58) 
F 18

>  <SCORE>  (58) 
-14.778

>  <name>  (58) 
57

>  <ligand_id>  (58) 
57

>  <original_smiles>  (58) 
[H]c1c([H])c([H])c2c(c1[H])C([H])([H])C([H])([H])C([H])([H])C2([H])N([H])C(=O)C1([H])N(C(=O)C([H])(N([H])C(=O)C([H])(N([H])C([H])([H])[H])C([H])([H])[H])C(C([H])([H])[H])(C([H])([H])[H])C([H])([H])[H])C([H])([H])c2c([H])c(OC([H])([H])c3c([H])c(C([H])([H])[H])c(C4(C([H])([H])[H])C([H])([H])C45C([H])([H])C([H])([H])C([H])(N(C(=O)N4C([H])([H])C([H])([H])C([H])([H])C([H])(n6nc(-c7c([H])c([H])c(Oc8c([H])c([H])c(F)c([H])c8F)c([H])c7[H])c(C(=O)N([H])[H])c6N([H])[H])C4([H])[H])C([H])([H])[H])C5([H])[H])c([H])c3C([H])([H])[H])c([H])c([H])c2C1([H])[H]

>  <smiles>  (58) 
[H]c1c([H])c([H])c2c(c1[H])C([H])([H])C([H])([H])C([H])([H])C2([H])N([H])C(=O)C1([H])N(C(=O)C([H])(N([H])C(=O)C([H])(N([H])C([H])([H])[H])C([H])([H])[H])C(C([H])([H])[H])(C([H])([H])[H])C([H])([H])[H])C([H])([H])c2c([H])c(OC([H])([H])c3c([H])c(C([H])([H])[H])c(C4(C([H])([H])[H])C([H])([H])C45C([H])([H])C([H])([H])C([H])(N(C(=O)N4C([H])([H])C([H])([H])C([H])([H])C([H])(n6nc(-c7c([H])c([H])c(Oc8c([H])c([H])c(F)c([H])c8F)c([H])c7[H])c(C(=O)N([H])[H])c6N([H])[H])C4([H])[H])C([H])([H])[H])C5([H])[H])c([H])c3C([H])([H])[H])c([H])c([H])c2C1([H])[H]

$$$$
59:0:0
     RDKit          3D

104114  0  0  1  0  0  0  0  0999 V2000
  -27.7540  -22.0980   18.7970 C   0  0  0  0  0  0  0  0  0  0  0  0
  -28.7570  -21.9430   17.8280 C   0  0  0  0  0  0  0  0  0  0  0  0
  -28.0650  -21.7930   20.1390 C   0  0  0  0  0  0  0  0  0  0  0  0
  -29.3870  -21.3470   20.3750 C   0  0  0  0  0  0  0  0  0  0  0  0
  -29.7140  -20.8000   18.1200 C   0  0  0  0  0  0  0  0  0  0  0  0
  -26.9930  -23.2600   16.8340 C   0  0  0  0  0  2  0  0  0  0  0  0
  -26.5000  -22.7710   18.2280 C   0  0  2  0  0  0  0  0  0  0  0  0
  -28.5430  -23.2820   16.8590 C   0  0  2  0  0  0  0  0  0  0  0  0
  -27.0940  -22.0220   21.2880 C   0  0  0  0  0  1  0  0  0  0  0  0
  -30.0180  -21.4120   21.7530 C   0  0  0  0  0  1  0  0  0  0  0  0
  -25.9360  -23.9280   19.0890 C   0  0  0  0  0  1  0  0  0  0  0  0
  -25.3630  -21.7400   18.0480 C   0  0  0  0  0  1  0  0  0  0  0  0
  -29.1680  -23.0530   15.4770 C   0  0  0  0  0  1  0  0  0  0  0  0
  -30.1670  -20.8380   19.3910 N   0  0  0  0  0  0  0  0  0  0  0  0
  -29.9300  -19.4100   17.5440 N   0  0  0  0  0  0  0  0  0  0  0  0
  -30.0560  -19.4230   16.5370 H   0  0  0  0  0  0  0  0  0  0  0  0
  -30.8360  -17.1170   18.8740 C   0  0  0  0  0  0  0  0  0  0  0  0
  -30.8810  -17.4870   20.2360 C   0  0  0  0  0  0  0  0  0  0  0  0
  -29.6540  -17.8170   20.8600 C   0  0  0  0  0  0  0  0  0  0  0  0
  -28.4610  -17.7500   20.0850 C   0  0  0  0  0  0  0  0  0  0  0  0
  -28.5570  -17.7620   18.6560 C   0  0  0  0  0  0  0  0  0  0  0  0
  -29.8410  -17.9940   18.1230 C   0  0  0  0  0  0  0  0  0  0  0  0
  -32.1560  -17.3100   21.0550 C   0  0  0  0  0  1  0  0  0  0  0  0
  -29.5900  -18.1200   22.3530 C   0  0  0  0  0  1  0  0  0  0  0  0
  -27.1300  -17.7540   20.8330 C   0  0  0  0  0  1  0  0  0  0  0  0
  -27.3750  -17.8070   17.6820 C   0  0  0  0  0  1  0  0  0  0  0  0
  -31.4330  -15.6100   18.6200 C   0  0  0  0  0  0  0  0  0  0  0  0
  -31.4250  -13.0500   18.4920 C   0  0  0  0  0  2  0  0  0  0  0  0
  -30.4250  -12.5210   17.4340 C   0  0  0  0  0  2  0  0  0  0  0  0
  -29.0280  -12.3530   18.0490 C   0  0  0  0  0  2  0  0  0  0  0  0
  -28.6110  -13.5770   18.9000 C   0  0  0  0  0  3  0  0  0  0  0  0
  -29.7340  -14.0610   19.8490 C   0  0  0  0  0  2  0  0  0  0  0  0
  -30.9210  -14.3610   19.0320 N   0  0  0  0  0  0  0  0  0  0  0  0
  -32.5340  -15.5440   18.0620 O   0  0  0  0  0  0  0  0  0  0  0  0
  -26.4100  -14.2780   19.9920 C   0  0  0  0  0  0  0  0  0  0  0  0
  -25.3710  -13.5840   20.5340 C   0  0  0  0  0  0  0  0  0  0  0  0
  -25.7180  -12.2060   20.4060 C   0  0  0  0  0  0  0  0  0  0  0  0
  -27.3490  -13.3440   19.5980 N   0  0  0  0  0  0  0  0  0  0  0  0
  -26.9410  -12.0820   19.8980 N   0  0  0  0  0  0  0  0  0  0  0  0
  -24.9240  -11.0030   20.6770 C   0  0  0  0  0  0  0  0  0  0  0  0
  -25.3200  -10.0580   21.6470 C   0  0  0  0  0  3  0  0  0  0  0  0
  -24.5250   -8.9210   21.9040 C   0  0  0  0  0  3  0  0  0  0  0  0
  -23.3200   -8.7220   21.1890 C   0  0  0  0  0  0  0  0  0  0  0  0
  -22.9420   -9.6550   20.2060 C   0  0  0  0  0  3  0  0  0  0  0  0
  -23.7380  -10.7820   19.9490 C   0  0  0  0  0  3  0  0  0  0  0  0
  -22.4990   -7.6320   21.3540 O   0  0  0  0  0  0  0  0  0  0  0  0
  -22.2410   -7.1080   22.5940 C   0  0  0  0  0  0  0  0  0  0  0  0
  -21.7310   -7.9000   23.6460 C   0  0  0  0  0  3  0  0  0  0  0  0
  -21.4140   -7.3090   24.8850 C   0  0  0  0  0  3  0  0  0  0  0  0
  -21.5930   -5.9260   25.0710 C   0  0  0  0  0  0  0  0  0  0  0  0
  -22.0950   -5.1330   24.0230 C   0  0  0  0  0  3  0  0  0  0  0  0
  -22.4130   -5.7220   22.7870 C   0  0  0  0  0  0  0  0  0  0  0  0
  -22.8750   -4.9500   21.7740 F   0  0  0  0  0  0  0  0  0  0  0  0
  -21.2820   -5.3540   26.2580 F   0  0  0  0  0  0  0  0  0  0  0  0
  -24.0820  -14.1670   21.0380 C   0  0  0  0  0  0  0  0  0  0  0  0
  -23.4990  -13.5630   22.0670 N   0  0  0  0  0  0  0  0  0  0  0  0
  -23.6120  -15.1990   20.5570 O   0  0  0  0  0  0  0  0  0  0  0  0
  -23.8870  -12.7260   22.4770 H   0  0  0  0  0  0  0  0  0  0  0  0
  -22.6450  -13.9450   22.4480 H   0  0  0  0  0  0  0  0  0  0  0  0
  -26.6140  -15.6240   19.7650 N   0  0  0  0  0  0  0  0  0  0  0  0
  -25.9290  -16.3220   20.0270 H   0  0  0  0  0  0  0  0  0  0  0  0
  -27.4970  -16.0250   19.4780 H   0  0  0  0  0  0  0  0  0  0  0  0
  -28.8530  -24.9060   17.3500 C   0  0  0  0  0  2  0  0  0  0  0  0
  -28.2650  -26.2800   16.8330 O   0  0  0  0  0  0  0  0  0  0  0  0
  -25.7430  -29.7890   22.8940 C   0  0  0  0  0  0  0  0  0  0  0  0
  -27.2980  -27.0990   17.5410 C   0  0  0  0  0  0  0  0  0  0  0  0
  -24.1250  -29.2430   21.1130 C   0  0  0  0  0  3  0  0  0  0  0  0
  -25.1300  -28.5600   18.8430 C   0  0  0  0  0  0  0  0  0  0  0  0
  -26.5930  -29.6690   20.5220 C   0  0  0  0  0  2  0  0  0  0  0  0
  -26.4400  -28.7240   19.3120 C   0  0  0  0  0  0  0  0  0  0  0  0
  -27.5210  -28.0110   18.6570 C   0  0  0  0  0  3  0  0  0  0  0  0
  -25.9680  -27.0780   17.0810 C   0  0  0  0  0  3  0  0  0  0  0  0
  -24.9020  -27.7520   17.7160 C   0  0  0  0  0  3  0  0  0  0  0  0
  -24.0000  -29.2810   19.5650 C   0  0  0  0  0  2  0  0  0  0  0  0
  -25.5200  -29.5640   21.5630 N   0  0  0  0  0  0  0  0  0  0  0  0
  -24.8190  -29.7500   23.7210 O   0  0  0  0  0  0  0  0  0  0  0  0
  -23.6110  -27.8810   21.6400 C   0  0  0  0  0  0  0  0  0  0  0  0
  -22.3020  -27.6090   21.4740 N   0  0  0  0  0  0  0  0  0  0  0  0
  -24.3890  -27.0820   22.1660 O   0  0  0  0  0  0  0  0  0  0  0  0
  -21.7290  -28.3050   21.0160 H   0  0  0  0  0  0  0  0  0  0  0  0
  -19.2140  -25.7480   21.2030 C   0  0  0  0  0  0  0  0  0  0  0  0
  -21.6350  -26.3650   21.8620 C   0  0  0  0  0  3  0  0  0  0  0  0
  -22.0680  -25.1960   20.9490 C   0  0  0  0  0  2  0  0  0  0  0  0
  -21.1460  -25.0190   19.7360 C   0  0  0  0  0  2  0  0  0  0  0  0
  -19.7230  -24.7140   20.2120 C   0  0  0  0  0  2  0  0  0  0  0  0
  -20.1140  -26.5330   21.9720 C   0  0  0  0  0  0  0  0  0  0  0  0
  -19.5920  -27.4960   22.8660 C   0  0  0  0  0  3  0  0  0  0  0  0
  -18.2020  -27.6770   22.9950 C   0  0  0  0  0  3  0  0  0  0  0  0
  -17.3150  -26.8890   22.2380 C   0  0  0  0  0  3  0  0  0  0  0  0
  -17.8200  -25.9300   21.3440 C   0  0  0  0  0  3  0  0  0  0  0  0
  -27.1640  -30.1250   23.4380 C   0  0  0  0  0  3  0  0  0  0  0  0
  -27.9300  -28.8630   23.9960 C   0  0  1  0  0  0  0  0  0  0  0  0
  -27.1210  -28.0480   25.0310 C   0  0  0  0  0  1  0  0  0  0  0  0
  -28.3240  -27.9060   22.8450 C   0  0  0  0  0  1  0  0  0  0  0  0
  -29.2500  -29.3060   24.6710 C   0  0  0  0  0  1  0  0  0  0  0  0
  -27.0150  -31.1380   24.4960 N   0  0  0  0  0  0  0  0  0  0  0  0
  -27.4140  -32.4130   24.3960 C   0  0  0  0  0  0  0  0  0  0  0  0
  -28.0100  -32.8500   23.4080 O   0  0  0  0  0  0  0  0  0  0  0  0
  -26.4880  -30.8650   25.3130 H   0  0  0  0  0  0  0  0  0  0  0  0
  -25.9870  -34.3380   25.1710 C   0  0  0  0  0  1  0  0  0  0  0  0
  -27.0990  -33.3540   25.5770 C   0  0  0  0  0  3  0  0  0  0  0  0
  -29.2670  -33.2710   26.7260 C   0  0  0  0  0  1  0  0  0  0  0  0
  -28.2740  -34.1100   26.0590 N   0  0  0  0  0  0  0  0  0  0  0  0
  -27.9920  -34.8430   26.7030 H   0  0  0  0  0  0  0  0  0  0  0  0
  1  3  1  0
  2  5  1  0
  2  1  2  0
  3  4  2  0
  3  9  1  0
  4 10  1  0
  5 14  2  0
  6  8  1  0
  6  7  1  0
  7  1  1  0
  7 11  1  1
  8 13  1  6
  8 63  1  0
  8  2  1  0
 12  7  1  0
 14  4  1  0
 15  5  1  0
 15 22  1  0
 16 15  1  0
 17 18  1  0
 18 19  2  0
 18 23  1  0
 19 24  1  0
 20 25  1  0
 20 19  1  0
 21 20  2  0
 22 21  1  0
 22 17  2  0
 26 21  1  0
 27 17  1  0
 27 33  1  0
 28 33  1  0
 29 30  1  0
 29 28  1  0
 31 30  1  0
 31 38  1  0
 31 32  1  0
 33 32  1  0
 34 27  2  0
 35 36  2  0
 36 55  1  0
 37 36  1  0
 37 40  1  0
 38 39  1  0
 38 35  1  0
 39 37  2  0
 40 41  1  0
 41 42  2  0
 43 46  1  0
 43 42  1  0
 44 43  2  0
 45 44  1  0
 45 40  2  0
 46 47  1  0
 47 52  2  0
 47 48  1  0
 48 49  2  0
 49 50  1  0
 50 54  1  0
 51 50  2  0
 52 51  1  0
 53 52  1  0
 55 56  1  0
 56 59  1  0
 56 58  1  0
 57 55  2  0
 60 35  1  0
 60 61  1  0
 62 60  1  0
 64 63  1  0
 64 66  1  0
 65 76  2  0
 66 71  1  0
 67 75  1  0
 67 77  1  0
 68 70  1  0
 68 74  1  0
 69 75  1  0
 70 69  1  0
 71 70  2  0
 72 66  2  0
 72 73  1  0
 73 68  2  0
 74 67  1  0
 75 65  1  0
 77 79  2  0
 78 77  1  0
 80 78  1  0
 81 90  2  0
 81 86  1  0
 82 78  1  0
 82 86  1  0
 83 82  1  0
 84 85  1  0
 84 83  1  0
 85 81  1  0
 86 87  2  0
 87 88  1  0
 89 88  2  0
 90 89  1  0
 91 65  1  0
 91 92  1  0
 91 96  1  0
 92 95  1  1
 92 93  1  0
 94 92  1  0
 96 99  1  0
 97 96  1  0
 97101  1  0
 98 97  2  0
101100  1  0
101103  1  0
103104  1  0
103102  1  0
M  ISO  4  17 100  27 100  63 101  64 101
M  END
>  <TORSDO>  (59) 
F 19

>  <SCORE>  (59) 
-5.552

>  <name>  (59) 
59

>  <ligand_id>  (59) 
59

>  <original_smiles>  (59) 
[H]c1c([H])c([H])c2c(c1[H])C([H])([H])C([H])([H])C([H])([H])C2([H])N([H])C(=O)C1([H])N(C(=O)C([H])(N([H])C(=O)C([H])(N([H])C([H])([H])[H])C([H])([H])[H])C(C([H])([H])[H])(C([H])([H])[H])C([H])([H])[H])C([H])([H])c2c([H])c(OC([H])([H])C3(C([H])([H])[H])c4c(N([H])c5c(C(=O)N6C([H])([H])C([H])([H])C([H])([H])C([H])(n7nc(-c8c([H])c([H])c(Oc9c([H])c([H])c(F)c([H])c9F)c([H])c8[H])c(C(=O)N([H])[H])c7N([H])[H])C6([H])[H])c(C([H])([H])[H])c(C([H])([H])[H])c(C([H])([H])[H])c5C([H])([H])[H])nc(C([H])([H])[H])c(C([H])([H])[H])c4C(C([H])([H])[H])(C([H])([H])[H])C3([H])[H])c([H])c([H])c2C1([H])[H]

>  <smiles>  (59) 
[H]c1c([H])c([H])c2c(c1[H])C([H])([H])C([H])([H])C([H])([H])C2([H])N([H])C(=O)C1([H])N(C(=O)C([H])(N([H])C(=O)C([H])(N([H])C([H])([H])[H])C([H])([H])[H])C(C([H])([H])[H])(C([H])([H])[H])C([H])([H])[H])C([H])([H])c2c([H])c(OC([H])([H])C3(C([H])([H])[H])c4c(N([H])c5c(C(=O)N6C([H])([H])C([H])([H])C([H])([H])C([H])(n7nc(-c8c([H])c([H])c(Oc9c([H])c([H])c(F)c([H])c9F)c([H])c8[H])c(C(=O)N([H])[H])c7N([H])[H])C6([H])[H])c(C([H])([H])[H])c(C([H])([H])[H])c(C([H])([H])[H])c5C([H])([H])[H])nc(C([H])([H])[H])c(C([H])([H])[H])c4C(C([H])([H])[H])(C([H])([H])[H])C3([H])[H])c([H])c([H])c2C1([H])[H]

$$$$
60:0:0
     RDKit          3D

 98107  0  0  1  0  0  0  0  0999 V2000
  -31.6710  -21.9370   20.5970 C   0  0  0  0  0  2  0  0  0  0  0  0
  -31.5030  -23.2110   19.7420 C   0  0  0  0  0  2  0  0  0  0  0  0
  -29.3040  -22.5240   18.9470 C   0  0  0  0  0  2  0  0  0  0  0  0
  -30.7970  -20.7830   20.0530 C   0  0  0  0  0  3  0  0  0  0  0  0
  -29.3290  -21.2360   19.8040 C   0  0  0  0  0  3  0  0  0  0  0  0
  -28.4420  -20.1330   19.1830 C   0  0  0  0  0  1  0  0  0  0  0  0
  -30.0770  -23.6240   19.6000 N   0  0  2  0  0  4  0  0  0  0  0  0
  -29.7040  -23.7390   20.5310 H   0  0  0  0  0  0  0  0  0  0  0  0
  -30.9330  -19.4150   20.7820 C   0  0  0  0  0  0  0  0  0  0  0  0
  -30.8480  -19.3030   22.2060 C   0  0  0  0  0  0  0  0  0  0  0  0
  -31.0230  -18.2120   20.0080 C   0  0  0  0  0  0  0  0  0  0  0  0
  -30.9710  -18.0330   22.8280 C   0  0  0  0  0  0  0  0  0  0  0  0
  -30.9540  -16.8490   22.0500 C   0  0  0  0  0  0  0  0  0  0  0  0
  -30.8830  -16.9470   20.6370 C   0  0  0  0  0  0  0  0  0  0  0  0
  -30.5470  -20.4890   23.1300 C   0  0  0  0  0  1  0  0  0  0  0  0
  -31.1820  -18.2610   18.4820 C   0  0  0  0  0  1  0  0  0  0  0  0
  -31.0030  -17.9530   24.3620 C   0  0  0  0  0  1  0  0  0  0  0  0
  -30.9290  -15.4920   22.7550 C   0  0  0  0  0  1  0  0  0  0  0  0
  -30.3260  -15.7570   19.8280 C   0  0  0  0  0  2  0  0  0  0  0  0
  -31.1960  -14.4930   19.5950 C   0  0  0  0  0  0  0  0  0  0  0  0
  -30.8780  -12.2020   18.7430 C   0  0  0  0  0  2  0  0  0  0  0  0
  -29.8430  -12.2650   17.5980 C   0  0  0  0  0  2  0  0  0  0  0  0
  -28.3910  -12.2340   18.1210 C   0  0  0  0  0  2  0  0  0  0  0  0
  -28.1570  -13.2100   19.3020 C   0  0  0  0  0  3  0  0  0  0  0  0
  -29.2800  -13.0450   20.3500 C   0  0  0  0  0  2  0  0  0  0  0  0
  -30.5720  -13.2870   19.6820 N   0  0  0  0  0  0  0  0  0  0  0  0
  -32.3320  -14.6160   19.1200 O   0  0  0  0  0  0  0  0  0  0  0  0
  -25.8850  -13.9960   20.2290 C   0  0  0  0  0  0  0  0  0  0  0  0
  -24.7910  -13.2990   20.6670 C   0  0  0  0  0  0  0  0  0  0  0  0
  -25.1340  -11.9160   20.5620 C   0  0  0  0  0  0  0  0  0  0  0  0
  -26.8330  -13.0380   19.8900 N   0  0  0  0  0  0  0  0  0  0  0  0
  -26.3870  -11.7820   20.1440 N   0  0  0  0  0  0  0  0  0  0  0  0
  -24.3260  -10.7110   20.7800 C   0  0  0  0  0  0  0  0  0  0  0  0
  -24.6920   -9.7370   21.7360 C   0  0  0  0  0  3  0  0  0  0  0  0
  -23.8910   -8.5930   21.9370 C   0  0  0  0  0  3  0  0  0  0  0  0
  -22.7040   -8.4190   21.1850 C   0  0  0  0  0  0  0  0  0  0  0  0
  -22.3600   -9.3750   20.2120 C   0  0  0  0  0  3  0  0  0  0  0  0
  -23.1640  -10.5100   20.0100 C   0  0  0  0  0  3  0  0  0  0  0  0
  -21.8730   -7.3300   21.3010 O   0  0  0  0  0  0  0  0  0  0  0  0
  -21.6910   -6.6850   22.4980 C   0  0  0  0  0  0  0  0  0  0  0  0
  -21.2040   -7.3560   23.6430 C   0  0  0  0  0  3  0  0  0  0  0  0
  -20.9670   -6.6380   24.8320 C   0  0  0  0  0  3  0  0  0  0  0  0
  -21.2040   -5.2500   24.8780 C   0  0  0  0  0  0  0  0  0  0  0  0
  -21.6810   -4.5800   23.7370 C   0  0  0  0  0  3  0  0  0  0  0  0
  -21.9170   -5.2950   22.5510 C   0  0  0  0  0  0  0  0  0  0  0  0
  -22.3580   -4.6410   21.4500 F   0  0  0  0  0  0  0  0  0  0  0  0
  -20.9650   -4.5560   26.0140 F   0  0  0  0  0  0  0  0  0  0  0  0
  -23.4630  -13.8720   21.0720 C   0  0  0  0  0  0  0  0  0  0  0  0
  -22.7710  -13.2090   21.9910 N   0  0  0  0  0  0  0  0  0  0  0  0
  -23.0510  -14.9320   20.6030 O   0  0  0  0  0  0  0  0  0  0  0  0
  -23.1260  -12.3510   22.3930 H   0  0  0  0  0  0  0  0  0  0  0  0
  -21.8720  -13.5510   22.2980 H   0  0  0  0  0  0  0  0  0  0  0  0
  -26.1490  -15.3560   20.0720 N   0  0  0  0  0  0  0  0  0  0  0  0
  -25.4500  -16.0740   20.2260 H   0  0  0  0  0  0  0  0  0  0  0  0
  -27.0100  -15.7200   19.6850 H   0  0  0  0  0  0  0  0  0  0  0  0
  -29.9740  -24.9660   18.9360 C   0  0  0  0  0  2  0  0  0  0  0  0
  -28.5830  -25.6600   18.9770 C   0  0  0  0  0  2  0  0  0  0  0  0
  -28.4940  -26.7410   19.9250 O   0  0  0  0  0  0  0  0  0  0  0  0
  -24.7480  -31.8840   23.1970 C   0  0  0  0  0  0  0  0  0  0  0  0
  -27.3090  -27.4630   19.9710 C   0  0  0  0  0  0  0  0  0  0  0  0
  -23.5040  -30.5120   21.5650 C   0  0  0  0  0  3  0  0  0  0  0  0
  -24.9200  -28.9950   20.0880 C   0  0  0  0  0  0  0  0  0  0  0  0
  -26.0320  -30.8520   21.3270 C   0  0  0  0  0  2  0  0  0  0  0  0
  -26.0950  -29.4890   20.6650 C   0  0  0  0  0  0  0  0  0  0  0  0
  -27.2880  -28.7280   20.6160 C   0  0  0  0  0  3  0  0  0  0  0  0
  -26.1010  -26.9880   19.3990 C   0  0  0  0  0  3  0  0  0  0  0  0
  -24.9170  -27.7410   19.4610 C   0  0  0  0  0  3  0  0  0  0  0  0
  -23.6840  -29.8630   20.1710 C   0  0  0  0  0  2  0  0  0  0  0  0
  -24.7810  -31.0960   22.0870 N   0  0  0  0  0  0  0  0  0  0  0  0
  -23.6770  -32.1550   23.7580 O   0  0  0  0  0  0  0  0  0  0  0  0
  -22.8670  -29.4760   22.5190 C   0  0  0  0  0  0  0  0  0  0  0  0
  -21.5490  -29.2630   22.3770 N   0  0  0  0  0  0  0  0  0  0  0  0
  -23.5540  -28.8660   23.3400 O   0  0  0  0  0  0  0  0  0  0  0  0
  -21.0530  -29.8000   21.6790 H   0  0  0  0  0  0  0  0  0  0  0  0
  -18.2010  -27.9760   22.8250 C   0  0  0  0  0  0  0  0  0  0  0  0
  -20.7440  -28.3130   23.1450 C   0  0  0  0  0  3  0  0  0  0  0  0
  -20.9030  -26.8790   22.5890 C   0  0  0  0  0  2  0  0  0  0  0  0
  -19.8300  -26.5100   21.5610 C   0  0  0  0  0  2  0  0  0  0  0  0
  -18.4290  -26.6260   22.1700 C   0  0  0  0  0  2  0  0  0  0  0  0
  -19.2880  -28.7760   23.2680 C   0  0  0  0  0  0  0  0  0  0  0  0
  -19.0200  -30.0410   23.8360 C   0  0  0  0  0  3  0  0  0  0  0  0
  -17.6990  -30.5080   23.9640 C   0  0  0  0  0  3  0  0  0  0  0  0
  -16.6250  -29.7060   23.5380 C   0  0  0  0  0  3  0  0  0  0  0  0
  -16.8770  -28.4420   22.9750 C   0  0  0  0  0  3  0  0  0  0  0  0
  -26.0470  -32.4980   23.8020 C   0  0  0  0  0  3  0  0  0  0  0  0
  -26.6020  -31.6840   25.0340 C   0  0  1  0  0  0  0  0  0  0  0  0
  -25.5240  -31.3580   26.0930 C   0  0  0  0  0  1  0  0  0  0  0  0
  -27.2270  -30.3480   24.5660 C   0  0  0  0  0  1  0  0  0  0  0  0
  -27.7340  -32.4810   25.7230 C   0  0  0  0  0  1  0  0  0  0  0  0
  -25.7400  -33.8830   24.1880 N   0  0  0  0  0  0  0  0  0  0  0  0
  -26.0470  -34.9610   23.4560 C   0  0  0  0  0  0  0  0  0  0  0  0
  -26.6920  -34.8960   22.4050 O   0  0  0  0  0  0  0  0  0  0  0  0
  -25.1640  -34.0050   25.0080 H   0  0  0  0  0  0  0  0  0  0  0  0
  -24.2990  -36.7520   23.2090 C   0  0  0  0  0  1  0  0  0  0  0  0
  -25.5660  -36.3310   23.9710 C   0  0  0  0  0  3  0  0  0  0  0  0
  -27.7150  -37.2090   24.7730 C   0  0  0  0  0  1  0  0  0  0  0  0
  -26.5920  -37.3900   23.8570 N   0  0  0  0  0  0  0  0  0  0  0  0
  -26.1880  -38.3080   24.0260 H   0  0  0  0  0  0  0  0  0  0  0  0
  2  1  1  0
  3  7  1  0
  3  5  1  0
  4  1  1  0
  4  9  1  0
  5  6  1  0
  5  4  1  0
  7  2  1  0
  7  8  1  1
  9 10  1  0
 10 12  2  0
 10 15  1  0
 11 14  1  0
 11  9  2  0
 12 17  1  0
 13 18  1  0
 13 12  1  0
 14 13  2  0
 16 11  1  0
 19 14  1  0
 20 26  1  0
 20 19  1  0
 21 26  1  0
 22 23  1  0
 22 21  1  0
 24 23  1  0
 24 31  1  0
 24 25  1  0
 26 25  1  0
 27 20  2  0
 28 29  2  0
 29 48  1  0
 30 29  1  0
 30 33  1  0
 31 32  1  0
 31 28  1  0
 32 30  2  0
 33 34  1  0
 34 35  2  0
 36 39  1  0
 36 35  1  0
 37 36  2  0
 38 37  1  0
 38 33  2  0
 39 40  1  0
 40 45  2  0
 40 41  1  0
 41 42  2  0
 42 43  1  0
 43 47  1  0
 44 43  2  0
 45 44  1  0
 46 45  1  0
 48 49  1  0
 49 52  1  0
 49 51  1  0
 50 48  2  0
 53 54  1  0
 53 28  1  0
 55 53  1  0
 56 57  1  0
 56  7  1  0
 57 58  1  0
 58 60  1  0
 59 70  2  0
 60 65  1  0
 61 69  1  0
 61 71  1  0
 62 68  1  0
 62 64  1  0
 63 69  1  0
 64 63  1  0
 65 64  2  0
 66 67  1  0
 66 60  2  0
 67 62  2  0
 68 61  1  0
 69 59  1  0
 71 73  2  0
 72 71  1  0
 74 72  1  0
 75 84  2  0
 75 80  1  0
 76 72  1  0
 76 80  1  0
 77 76  1  0
 78 79  1  0
 78 77  1  0
 79 75  1  0
 80 81  2  0
 81 82  1  0
 83 82  2  0
 84 83  1  0
 85 59  1  0
 85 90  1  0
 85 86  1  0
 86 89  1  1
 86 87  1  0
 88 86  1  0
 90 93  1  0
 91 95  1  0
 91 90  1  0
 92 91  2  0
 95 94  1  0
 97 95  1  0
 97 98  1  0
 97 96  1  0
M  ISO  4  19 100  20 100  57 101  58 101
M  END
>  <TORSDO>  (60) 
F 20

>  <SCORE>  (60) 
-10.873

>  <name>  (60) 
60

>  <ligand_id>  (60) 
60

>  <original_smiles>  (60) 
[H]c1c([H])c([H])c2c(c1[H])C([H])([H])C([H])([H])C([H])([H])C2([H])N([H])C(=O)C1([H])N(C(=O)C([H])(N([H])C(=O)C([H])(N([H])C([H])([H])[H])C([H])([H])[H])C(C([H])([H])[H])(C([H])([H])[H])C([H])([H])[H])C([H])([H])c2c([H])c(OC([H])([H])C([H])([H])[N+]3([H])C([H])([H])C([H])([H])C([H])(c4c(C([H])([H])[H])c(C([H])([H])[H])c(C([H])([H])[H])c(C([H])([H])C(=O)N5C([H])([H])C([H])([H])C([H])([H])C([H])(n6nc(-c7c([H])c([H])c(Oc8c([H])c([H])c(F)c([H])c8F)c([H])c7[H])c(C(=O)N([H])[H])c6N([H])[H])C5([H])[H])c4C([H])([H])[H])C([H])(C([H])([H])[H])C3([H])[H])c([H])c([H])c2C1([H])[H]

>  <smiles>  (60) 
[H]c1c([H])c([H])c2c(c1[H])C([H])([H])C([H])([H])C([H])([H])C2([H])N([H])C(=O)C1([H])N(C(=O)C([H])(N([H])C(=O)C([H])(N([H])C([H])([H])[H])C([H])([H])[H])C(C([H])([H])[H])(C([H])([H])[H])C([H])([H])[H])C([H])([H])c2c([H])c(OC([H])([H])C([H])([H])[N+]3([H])C([H])([H])C([H])([H])C([H])(c4c(C([H])([H])[H])c(C([H])([H])[H])c(C([H])([H])[H])c(C([H])([H])C(=O)N5C([H])([H])C([H])([H])C([H])([H])C([H])(n6nc(-c7c([H])c([H])c(Oc8c([H])c([H])c(F)c([H])c8F)c([H])c7[H])c(C(=O)N([H])[H])c6N([H])[H])C5([H])[H])c4C([H])([H])[H])C([H])(C([H])([H])[H])C3([H])[H])c([H])c([H])c2C1([H])[H]

$$$$
61:0:0
     RDKit          3D

 95106  0  0  1  0  0  0  0  0999 V2000
  -28.8920  -21.6500   20.3870 C   0  0  0  0  0  3  0  0  0  0  0  0
  -29.6740  -20.4850   19.7960 C   0  0  0  0  0  0  0  0  0  0  0  0
  -30.4980  -20.9560   18.7120 C   0  0  0  0  0  0  0  0  0  0  0  0
  -30.3590  -22.2630   18.1370 C   0  0  0  0  0  0  0  0  0  0  0  0
  -28.9060  -23.1170   19.9570 C   0  0  0  0  0  0  0  0  0  0  0  0
  -29.6750  -23.3280   18.7900 C   0  0  0  0  0  0  0  0  0  0  0  0
  -29.7650  -24.7470   18.2250 C   0  0  0  0  0  1  0  0  0  0  0  0
  -30.6730  -15.1610   20.3470 C   0  0  0  0  0  0  0  0  0  0  0  0
  -30.4580  -12.8010   19.3830 C   0  0  0  0  0  2  0  0  0  0  0  0
  -29.5420  -12.6940   18.1450 C   0  0  0  0  0  2  0  0  0  0  0  0
  -28.0850  -12.4730   18.5840 C   0  0  0  0  0  2  0  0  0  0  0  0
  -27.6680  -13.4170   19.7420 C   0  0  0  0  0  3  0  0  0  0  0  0
  -28.7220  -13.5100   20.8660 C   0  0  0  0  0  2  0  0  0  0  0  0
  -29.9690  -13.9460   20.2260 N   0  0  0  0  0  0  0  0  0  0  0  0
  -31.8910  -15.0410   20.1690 O   0  0  0  0  0  0  0  0  0  0  0  0
  -30.9430  -17.8270   20.6330 C   0  0  0  0  0  2  0  0  0  0  0  0
  -28.9230  -17.4490   20.4850 C   0  0  0  0  0  2  0  0  0  0  0  0
  -29.7780  -18.7700   20.0680 C   0  0  0  0  0  3  0  0  0  0  0  0
  -30.1590  -16.5300   20.4660 N   0  0  0  0  0  0  0  0  0  0  0  0
  -25.2980  -13.9920   20.4820 C   0  0  0  0  0  0  0  0  0  0  0  0
  -24.2290  -13.2220   20.8430 C   0  0  0  0  0  0  0  0  0  0  0  0
  -24.6900  -11.8690   20.8200 C   0  0  0  0  0  0  0  0  0  0  0  0
  -26.3370  -13.1120   20.2490 N   0  0  0  0  0  0  0  0  0  0  0  0
  -25.9830  -11.8280   20.5220 N   0  0  0  0  0  0  0  0  0  0  0  0
  -23.9540  -10.6110   21.0060 C   0  0  0  0  0  0  0  0  0  0  0  0
  -24.3830   -9.6320   21.9300 C   0  0  0  0  0  3  0  0  0  0  0  0
  -23.6450   -8.4420   22.1060 C   0  0  0  0  0  3  0  0  0  0  0  0
  -22.4640   -8.2210   21.3570 C   0  0  0  0  0  0  0  0  0  0  0  0
  -22.0550   -9.1870   20.4220 C   0  0  0  0  0  3  0  0  0  0  0  0
  -22.7940  -10.3690   20.2440 C   0  0  0  0  0  3  0  0  0  0  0  0
  -21.6980   -7.0830   21.4420 O   0  0  0  0  0  0  0  0  0  0  0  0
  -21.6650   -6.3220   22.5830 C   0  0  0  0  0  0  0  0  0  0  0  0
  -21.2670   -6.8600   23.8260 C   0  0  0  0  0  3  0  0  0  0  0  0
  -21.1800   -6.0250   24.9600 C   0  0  0  0  0  3  0  0  0  0  0  0
  -21.4800   -4.6550   24.8500 C   0  0  0  0  0  0  0  0  0  0  0  0
  -21.8720   -4.1170   23.6100 C   0  0  0  0  0  3  0  0  0  0  0  0
  -21.9600   -4.9480   22.4800 C   0  0  0  0  0  0  0  0  0  0  0  0
  -22.3170   -4.4190   21.2850 F   0  0  0  0  0  0  0  0  0  0  0  0
  -21.3890   -3.8510   25.9350 F   0  0  0  0  0  0  0  0  0  0  0  0
  -22.8320  -13.7060   21.0950 C   0  0  0  0  0  0  0  0  0  0  0  0
  -22.0920  -13.0230   21.9590 N   0  0  0  0  0  0  0  0  0  0  0  0
  -22.4060  -14.7290   20.5590 O   0  0  0  0  0  0  0  0  0  0  0  0
  -22.4500  -12.1960   22.4160 H   0  0  0  0  0  0  0  0  0  0  0  0
  -21.1540  -13.3320   22.1710 H   0  0  0  0  0  0  0  0  0  0  0  0
  -25.4690  -15.3630   20.3040 N   0  0  0  0  0  0  0  0  0  0  0  0
  -24.7060  -16.0210   20.4170 H   0  0  0  0  0  0  0  0  0  0  0  0
  -26.3250  -15.7980   19.9900 H   0  0  0  0  0  0  0  0  0  0  0  0
  -32.7800  -19.6060   18.9060 C   0  0  0  0  0  2  0  0  0  0  0  0
  -32.9820  -20.6040   17.8130 C   0  0  0  0  0  2  0  0  0  0  0  0
  -31.5820  -20.0730   18.1030 C   0  0  0  0  0  3  0  0  0  0  0  0
  -30.0140  -23.0150   15.6350 C   0  0  0  0  0  2  0  0  0  0  0  0
  -30.6020  -21.6350   15.5630 C   0  0  0  0  0  2  0  0  0  0  0  0
  -30.9210  -22.5270   16.7530 C   0  0  0  0  0  3  0  0  0  0  0  0
  -28.0250  -24.4640   20.5230 C   0  0  0  0  0  2  0  0  0  0  0  0
  -28.2880  -26.0410   20.3210 O   0  0  0  0  0  0  0  0  0  0  0  0
  -24.6270  -31.8950   23.2070 C   0  0  0  0  0  0  0  0  0  0  0  0
  -27.2500  -27.0750   20.2820 C   0  0  0  0  0  0  0  0  0  0  0  0
  -23.4610  -30.4780   21.5640 C   0  0  0  0  0  3  0  0  0  0  0  0
  -24.9360  -28.8800   20.1820 C   0  0  0  0  0  0  0  0  0  0  0  0
  -26.0220  -30.7260   21.4440 C   0  0  0  0  0  2  0  0  0  0  0  0
  -26.1100  -29.3180   20.8090 C   0  0  0  0  0  0  0  0  0  0  0  0
  -27.2680  -28.4350   20.8330 C   0  0  0  0  0  3  0  0  0  0  0  0
  -26.0500  -26.7650   19.6080 C   0  0  0  0  0  3  0  0  0  0  0  0
  -24.9250  -27.6210   19.5620 C   0  0  0  0  0  3  0  0  0  0  0  0
  -23.7100  -29.7860   20.1970 C   0  0  0  0  0  2  0  0  0  0  0  0
  -24.7230  -31.0590   22.1270 N   0  0  0  0  0  0  0  0  0  0  0  0
  -23.5300  -32.1820   23.7120 O   0  0  0  0  0  0  0  0  0  0  0  0
  -22.7660  -29.4820   22.5270 C   0  0  0  0  0  0  0  0  0  0  0  0
  -21.4350  -29.3250   22.4000 N   0  0  0  0  0  0  0  0  0  0  0  0
  -23.4270  -28.8500   23.3550 O   0  0  0  0  0  0  0  0  0  0  0  0
  -20.9560  -29.8850   21.7080 H   0  0  0  0  0  0  0  0  0  0  0  0
  -18.0380  -28.1750   22.9250 C   0  0  0  0  0  0  0  0  0  0  0  0
  -20.6030  -28.3960   23.1700 C   0  0  0  0  0  3  0  0  0  0  0  0
  -20.6770  -26.9670   22.5830 C   0  0  0  0  0  2  0  0  0  0  0  0
  -19.5600  -26.6700   21.5760 C   0  0  0  0  0  2  0  0  0  0  0  0
  -18.1870  -26.8300   22.2330 C   0  0  0  0  0  2  0  0  0  0  0  0
  -19.1710  -28.9170   23.3500 C   0  0  0  0  0  0  0  0  0  0  0  0
  -18.9760  -30.1750   23.9600 C   0  0  0  0  0  3  0  0  0  0  0  0
  -17.6790  -30.6910   24.1470 C   0  0  0  0  0  3  0  0  0  0  0  0
  -16.5600  -29.9470   23.7350 C   0  0  0  0  0  3  0  0  0  0  0  0
  -16.7400  -28.6900   23.1290 C   0  0  0  0  0  3  0  0  0  0  0  0
  -25.8880  -32.5460   23.8510 C   0  0  0  0  0  3  0  0  0  0  0  0
  -26.3770  -31.7970   25.1510 C   0  0  1  0  0  0  0  0  0  0  0  0
  -25.2600  -31.5740   26.1980 C   0  0  0  0  0  1  0  0  0  0  0  0
  -26.9730  -30.4140   24.8020 C   0  0  0  0  0  1  0  0  0  0  0  0
  -27.5090  -32.6060   25.8270 C   0  0  0  0  0  1  0  0  0  0  0  0
  -25.5620  -33.9480   24.1630 N   0  0  0  0  0  0  0  0  0  0  0  0
  -25.9060  -35.0010   23.4100 C   0  0  0  0  0  0  0  0  0  0  0  0
  -26.5940  -34.8950   22.3910 O   0  0  0  0  0  0  0  0  0  0  0  0
  -24.9530  -34.1030   24.9520 H   0  0  0  0  0  0  0  0  0  0  0  0
  -24.1840  -36.7960   23.0170 C   0  0  0  0  0  1  0  0  0  0  0  0
  -25.4080  -36.3920   23.8540 C   0  0  0  0  0  3  0  0  0  0  0  0
  -27.5240  -37.2840   24.7290 C   0  0  0  0  0  1  0  0  0  0  0  0
  -26.4420  -37.4460   23.7600 N   0  0  0  0  0  0  0  0  0  0  0  0
  -26.0310  -38.3660   23.8950 H   0  0  0  0  0  0  0  0  0  0  0  0
  2  1  2  0
  3  2  1  0
  4  3  2  0
  4  6  1  0
  5  1  1  0
  5 54  1  0
  6  5  2  0
  7  6  1  0
  8 19  1  0
  9 14  1  0
 10 11  1  0
 10  9  1  0
 12 11  1  0
 12 23  1  0
 12 13  1  0
 14  8  1  0
 14 13  1  0
 15  8  2  0
 18  2  1  0
 18 17  1  0
 18 16  1  0
 19 17  1  0
 19 16  1  0
 20 21  2  0
 21 40  1  0
 22 21  1  0
 22 25  1  0
 23 20  1  0
 23 24  1  0
 24 22  2  0
 25 26  1  0
 26 27  2  0
 28 31  1  0
 28 27  1  0
 29 28  2  0
 30 29  1  0
 30 25  2  0
 31 32  1  0
 32 33  1  0
 33 34  2  0
 35 34  1  0
 35 39  1  0
 36 35  2  0
 37 32  2  0
 37 36  1  0
 38 37  1  0
 40 41  1  0
 41 44  1  0
 41 43  1  0
 42 40  2  0
 45 46  1  0
 45 20  1  0
 47 45  1  0
 49 50  1  0
 49 48  1  0
 50  3  1  0
 50 48  1  0
 51 53  1  0
 52 51  1  0
 52 53  1  0
 53  4  1  0
 55 54  1  0
 56 67  2  0
 57 55  1  0
 57 62  1  0
 58 66  1  0
 58 68  1  0
 59 65  1  0
 59 61  1  0
 60 66  1  0
 61 62  2  0
 61 60  1  0
 63 57  2  0
 64 63  1  0
 64 59  2  0
 65 58  1  0
 66 56  1  0
 68 70  2  0
 69 68  1  0
 71 69  1  0
 72 81  2  0
 72 77  1  0
 73 69  1  0
 73 77  1  0
 74 73  1  0
 75 76  1  0
 75 74  1  0
 76 72  1  0
 77 78  2  0
 78 79  1  0
 80 79  2  0
 81 80  1  0
 82 56  1  0
 82 87  1  0
 82 83  1  0
 83 86  1  1
 83 84  1  0
 85 83  1  0
 87 90  1  0
 88 92  1  0
 88 87  1  0
 89 88  2  0
 92 91  1  0
 94 92  1  0
 94 95  1  0
 94 93  1  0
M  ISO  4   8 100  19 100  54 101  55 101
M  END
>  <TORSDO>  (61) 
F 19

>  <SCORE>  (61) 
-15.445

>  <name>  (61) 
61

>  <ligand_id>  (61) 
61

>  <original_smiles>  (61) 
[H]c1c([H])c([H])c2c(c1[H])C([H])([H])C([H])([H])C([H])([H])C2([H])N([H])C(=O)C1([H])N(C(=O)C([H])(N([H])C(=O)C([H])(N([H])C([H])([H])[H])C([H])([H])[H])C(C([H])([H])[H])(C([H])([H])[H])C([H])([H])[H])C([H])([H])c2c([H])c(OC([H])([H])c3c([H])c(C4([H])C([H])([H])N(C(=O)N5C([H])([H])C([H])([H])C([H])([H])C([H])(n6nc(-c7c([H])c([H])c(Oc8c([H])c([H])c(F)c([H])c8F)c([H])c7[H])c(C(=O)N([H])[H])c6N([H])[H])C5([H])[H])C4([H])[H])c(C4([H])C([H])([H])C4([H])[H])c(C4([H])C([H])([H])C4([H])[H])c3C([H])([H])[H])c([H])c([H])c2C1([H])[H]

>  <smiles>  (61) 
[H]c1c([H])c([H])c2c(c1[H])C([H])([H])C([H])([H])C([H])([H])C2([H])N([H])C(=O)C1([H])N(C(=O)C([H])(N([H])C(=O)C([H])(N([H])C([H])([H])[H])C([H])([H])[H])C(C([H])([H])[H])(C([H])([H])[H])C([H])([H])[H])C([H])([H])c2c([H])c(OC([H])([H])c3c([H])c(C4([H])C([H])([H])N(C(=O)N5C([H])([H])C([H])([H])C([H])([H])C([H])(n6nc(-c7c([H])c([H])c(Oc8c([H])c([H])c(F)c([H])c8F)c([H])c7[H])c(C(=O)N([H])[H])c6N([H])[H])C5([H])[H])C4([H])[H])c(C4([H])C([H])([H])C4([H])[H])c(C4([H])C([H])([H])C4([H])[H])c3C([H])([H])[H])c([H])c([H])c2C1([H])[H]

$$$$
62:0:0
     RDKit          3D

 91100  0  0  1  0  0  0  0  0999 V2000
  -28.0700  -20.6530   19.8390 C   0  0  0  0  0  3  0  0  0  0  0  0
  -29.1840  -20.1040   20.5580 C   0  0  0  0  0  0  0  0  0  0  0  0
  -27.7130  -22.0670   19.7560 C   0  0  0  0  0  0  0  0  0  0  0  0
  -29.9500  -21.1790   21.1610 C   0  0  0  0  0  0  0  0  0  0  0  0
  -29.6060  -22.6160   21.0710 C   0  0  0  0  0  0  0  0  0  0  0  0
  -28.4350  -23.1430   20.4090 C   0  0  0  0  0  0  0  0  0  0  0  0
  -26.4660  -22.4020   18.9450 C   0  0  0  0  0  1  0  0  0  0  0  0
  -31.1680  -20.7430   21.9750 C   0  0  0  0  0  1  0  0  0  0  0  0
  -30.5070  -23.6550   21.7330 C   0  0  0  0  0  1  0  0  0  0  0  0
  -30.5970  -15.0140   20.2670 C   0  0  0  0  0  0  0  0  0  0  0  0
  -30.3840  -12.6690   19.3190 C   0  0  0  0  0  2  0  0  0  0  0  0
  -29.4590  -12.6490   18.0830 C   0  0  0  0  0  2  0  0  0  0  0  0
  -27.9930  -12.4520   18.5100 C   0  0  0  0  0  2  0  0  0  0  0  0
  -27.6000  -13.3520   19.7130 C   0  0  0  0  0  3  0  0  0  0  0  0
  -28.6650  -13.3840   20.8320 C   0  0  0  0  0  2  0  0  0  0  0  0
  -29.9340  -13.7820   20.2150 N   0  0  0  0  0  0  0  0  0  0  0  0
  -31.7840  -14.9950   19.9260 O   0  0  0  0  0  0  0  0  0  0  0  0
  -28.8830  -17.1300   20.0970 C   0  0  0  0  0  2  0  0  0  0  0  0
  -30.7800  -17.5880   20.7180 C   0  0  0  0  0  2  0  0  0  0  0  0
  -29.4560  -18.4590   20.7840 C   0  0  0  0  0  3  0  0  0  0  0  0
  -30.0150  -16.2730   20.6400 N   0  0  0  0  0  0  0  0  0  0  0  0
  -25.2280  -13.8960   20.4870 C   0  0  0  0  0  0  0  0  0  0  0  0
  -24.1750  -13.1080   20.8660 C   0  0  0  0  0  0  0  0  0  0  0  0
  -24.6490  -11.7620   20.8160 C   0  0  0  0  0  0  0  0  0  0  0  0
  -26.2750  -13.0280   20.2260 N   0  0  0  0  0  0  0  0  0  0  0  0
  -25.9370  -11.7380   20.4890 N   0  0  0  0  0  0  0  0  0  0  0  0
  -23.9300  -10.4940   21.0030 C   0  0  0  0  0  0  0  0  0  0  0  0
  -24.3550   -9.5310   21.9450 C   0  0  0  0  0  3  0  0  0  0  0  0
  -23.6300   -8.3320   22.1210 C   0  0  0  0  0  3  0  0  0  0  0  0
  -22.4660   -8.0860   21.3540 C   0  0  0  0  0  0  0  0  0  0  0  0
  -22.0600   -9.0380   20.4010 C   0  0  0  0  0  3  0  0  0  0  0  0
  -22.7850  -10.2280   20.2240 C   0  0  0  0  0  3  0  0  0  0  0  0
  -21.7140   -6.9390   21.4390 O   0  0  0  0  0  0  0  0  0  0  0  0
  -21.6290   -6.2190   22.6020 C   0  0  0  0  0  0  0  0  0  0  0  0
  -21.1260   -6.7850   23.7950 C   0  0  0  0  0  3  0  0  0  0  0  0
  -20.9920   -5.9880   24.9500 C   0  0  0  0  0  3  0  0  0  0  0  0
  -21.3480   -4.6270   24.9110 C   0  0  0  0  0  0  0  0  0  0  0  0
  -21.8430   -4.0610   23.7230 C   0  0  0  0  0  3  0  0  0  0  0  0
  -21.9780   -4.8540   22.5710 C   0  0  0  0  0  0  0  0  0  0  0  0
  -22.4360   -4.2980   21.4230 F   0  0  0  0  0  0  0  0  0  0  0  0
  -21.2120   -3.8580   26.0180 F   0  0  0  0  0  0  0  0  0  0  0  0
  -22.7790  -13.5770   21.1540 C   0  0  0  0  0  0  0  0  0  0  0  0
  -22.0600  -12.8680   22.0160 N   0  0  0  0  0  0  0  0  0  0  0  0
  -22.3360  -14.6090   20.6510 O   0  0  0  0  0  0  0  0  0  0  0  0
  -22.4310  -12.0320   22.4410 H   0  0  0  0  0  0  0  0  0  0  0  0
  -21.1240  -13.1660   22.2540 H   0  0  0  0  0  0  0  0  0  0  0  0
  -25.3760  -15.2670   20.3150 N   0  0  0  0  0  0  0  0  0  0  0  0
  -24.5950  -15.9080   20.4150 H   0  0  0  0  0  0  0  0  0  0  0  0
  -26.2050  -15.7050   19.9340 H   0  0  0  0  0  0  0  0  0  0  0  0
  -27.7700  -24.6680   20.6500 C   0  0  0  0  0  2  0  0  0  0  0  0
  -28.1980  -26.1150   20.2270 O   0  0  0  0  0  0  0  0  0  0  0  0
  -24.6130  -31.8850   23.2000 C   0  0  0  0  0  0  0  0  0  0  0  0
  -27.1880  -27.1520   20.1810 C   0  0  0  0  0  0  0  0  0  0  0  0
  -23.4200  -30.4920   21.5590 C   0  0  0  0  0  3  0  0  0  0  0  0
  -24.8710  -28.9220   20.1340 C   0  0  0  0  0  0  0  0  0  0  0  0
  -25.9780  -30.7540   21.3990 C   0  0  0  0  0  2  0  0  0  0  0  0
  -26.0540  -29.3600   20.7470 C   0  0  0  0  0  0  0  0  0  0  0  0
  -27.2170  -28.4940   20.7480 C   0  0  0  0  0  3  0  0  0  0  0  0
  -25.9840  -26.8360   19.5120 C   0  0  0  0  0  3  0  0  0  0  0  0
  -24.8520  -27.6730   19.4980 C   0  0  0  0  0  3  0  0  0  0  0  0
  -23.6460  -29.8200   20.1780 C   0  0  0  0  0  2  0  0  0  0  0  0
  -24.6910  -31.0660   22.1080 N   0  0  0  0  0  0  0  0  0  0  0  0
  -23.5240  -32.1640   23.7270 O   0  0  0  0  0  0  0  0  0  0  0  0
  -22.7410  -29.4810   22.5170 C   0  0  0  0  0  0  0  0  0  0  0  0
  -21.4120  -29.3080   22.3900 N   0  0  0  0  0  0  0  0  0  0  0  0
  -23.4110  -28.8540   23.3420 O   0  0  0  0  0  0  0  0  0  0  0  0
  -20.9250  -29.8660   21.7010 H   0  0  0  0  0  0  0  0  0  0  0  0
  -18.0270  -28.1260   22.9120 C   0  0  0  0  0  0  0  0  0  0  0  0
  -20.5910  -28.3690   23.1590 C   0  0  0  0  0  3  0  0  0  0  0  0
  -20.6780  -26.9410   22.5720 C   0  0  0  0  0  2  0  0  0  0  0  0
  -19.5660  -26.6340   21.5650 C   0  0  0  0  0  2  0  0  0  0  0  0
  -18.1890  -26.7830   22.2190 C   0  0  0  0  0  2  0  0  0  0  0  0
  -19.1550  -28.8780   23.3380 C   0  0  0  0  0  0  0  0  0  0  0  0
  -18.9470  -30.1350   23.9460 C   0  0  0  0  0  3  0  0  0  0  0  0
  -17.6460  -30.6400   24.1310 C   0  0  0  0  0  3  0  0  0  0  0  0
  -16.5340  -29.8840   23.7220 C   0  0  0  0  0  3  0  0  0  0  0  0
  -16.7260  -28.6290   23.1190 C   0  0  0  0  0  3  0  0  0  0  0  0
  -25.8880  -32.5280   23.8300 C   0  0  0  0  0  3  0  0  0  0  0  0
  -25.5710  -33.9260   24.1580 N   0  0  0  0  0  0  0  0  0  0  0  0
  -25.9000  -34.9830   23.4030 C   0  0  0  0  0  0  0  0  0  0  0  0
  -26.5730  -34.8860   22.3740 O   0  0  0  0  0  0  0  0  0  0  0  0
  -24.9890  -34.0800   24.9680 H   0  0  0  0  0  0  0  0  0  0  0  0
  -24.1830  -36.7830   23.0380 C   0  0  0  0  0  1  0  0  0  0  0  0
  -25.4120  -36.3700   23.8650 C   0  0  0  0  0  3  0  0  0  0  0  0
  -27.5330  -37.2470   24.7370 C   0  0  0  0  0  1  0  0  0  0  0  0
  -26.4460  -37.4230   23.7760 N   0  0  0  0  0  0  0  0  0  0  0  0
  -26.0370  -38.3410   23.9270 H   0  0  0  0  0  0  0  0  0  0  0  0
  -26.3950  -31.7660   25.1150 C   0  0  1  0  0  0  0  0  0  0  0  0
  -25.2920  -31.5350   26.1760 C   0  0  0  0  0  1  0  0  0  0  0  0
  -26.9830  -30.3860   24.7410 C   0  0  0  0  0  1  0  0  0  0  0  0
  -27.5430  -32.5650   25.7800 C   0  0  0  0  0  1  0  0  0  0  0  0
  1  2  1  0
  2  4  2  0
  3  1  2  0
  3  6  1  0
  4  8  1  0
  5  4  1  0
  5  9  1  0
  6 50  1  0
  6  5  2  0
  7  3  1  0
 10 21  1  0
 11 16  1  0
 12 13  1  0
 12 11  1  0
 14 13  1  0
 14 25  1  0
 14 15  1  0
 16 10  1  0
 16 15  1  0
 17 10  2  0
 18 21  1  0
 18 20  1  0
 19 20  1  0
 20  2  1  0
 21 19  1  0
 22 23  2  0
 23 42  1  0
 24 23  1  0
 24 27  1  0
 25 22  1  0
 25 26  1  0
 26 24  2  0
 27 28  1  0
 28 29  2  0
 30 33  1  0
 30 29  1  0
 31 30  2  0
 32 31  1  0
 32 27  2  0
 33 34  1  0
 34 35  1  0
 35 36  2  0
 37 36  1  0
 37 41  1  0
 38 37  2  0
 39 34  2  0
 39 38  1  0
 40 39  1  0
 42 43  1  0
 43 46  1  0
 43 45  1  0
 44 42  2  0
 47 48  1  0
 47 22  1  0
 49 47  1  0
 51 50  1  0
 52 63  2  0
 53 51  1  0
 53 58  1  0
 54 62  1  0
 54 64  1  0
 55 61  1  0
 55 57  1  0
 56 62  1  0
 57 58  2  0
 57 56  1  0
 59 53  2  0
 60 59  1  0
 60 55  2  0
 61 54  1  0
 62 52  1  0
 64 66  2  0
 65 64  1  0
 67 65  1  0
 68 77  2  0
 68 73  1  0
 69 65  1  0
 69 73  1  0
 70 69  1  0
 71 72  1  0
 71 70  1  0
 72 68  1  0
 73 74  2  0
 74 75  1  0
 76 75  2  0
 77 76  1  0
 78 52  1  0
 78 79  1  0
 78 88  1  0
 79 82  1  0
 80 84  1  0
 80 79  1  0
 81 80  2  0
 84 83  1  0
 86 84  1  0
 86 87  1  0
 86 85  1  0
 88 91  1  1
 88 89  1  0
 90 88  1  0
M  ISO  4  10 100  21 100  50 101  51 101
M  END
>  <TORSDO>  (62) 
F 17

>  <SCORE>  (62) 
-15.442

>  <name>  (62) 
62

>  <ligand_id>  (62) 
62

>  <original_smiles>  (62) 
[H]c1c([H])c([H])c2c(c1[H])C([H])([H])C([H])([H])C([H])([H])C2([H])N([H])C(=O)C1([H])N(C(=O)C([H])(N([H])C(=O)C([H])(N([H])C([H])([H])[H])C([H])([H])[H])C(C([H])([H])[H])(C([H])([H])[H])C([H])([H])[H])C([H])([H])c2c([H])c(OC([H])([H])c3c(C([H])([H])[H])c([H])c(C4([H])C([H])([H])N(C(=O)N5C([H])([H])C([H])([H])C([H])([H])C([H])(n6nc(-c7c([H])c([H])c(Oc8c([H])c([H])c(F)c([H])c8F)c([H])c7[H])c(C(=O)N([H])[H])c6N([H])[H])C5([H])[H])C4([H])[H])c(C([H])([H])[H])c3C([H])([H])[H])c([H])c([H])c2C1([H])[H]

>  <smiles>  (62) 
[H]c1c([H])c([H])c2c(c1[H])C([H])([H])C([H])([H])C([H])([H])C2([H])N([H])C(=O)C1([H])N(C(=O)C([H])(N([H])C(=O)C([H])(N([H])C([H])([H])[H])C([H])([H])[H])C(C([H])([H])[H])(C([H])([H])[H])C([H])([H])[H])C([H])([H])c2c([H])c(OC([H])([H])c3c(C([H])([H])[H])c([H])c(C4([H])C([H])([H])N(C(=O)N5C([H])([H])C([H])([H])C([H])([H])C([H])(n6nc(-c7c([H])c([H])c(Oc8c([H])c([H])c(F)c([H])c8F)c([H])c7[H])c(C(=O)N([H])[H])c6N([H])[H])C5([H])[H])C4([H])[H])c(C([H])([H])[H])c3C([H])([H])[H])c([H])c([H])c2C1([H])[H]

$$$$
63:0:0
     RDKit          3D

 92101  0  0  1  0  0  0  0  0999 V2000
  -30.0410  -21.6270   18.8030 C   0  0  0  0  0  3  0  0  0  0  0  0
  -29.7930  -23.0710   18.8290 C   0  0  0  0  0  3  0  0  0  0  0  0
  -28.6950  -21.3630   20.7120 C   0  0  0  0  0  3  0  0  0  0  0  0
  -29.5010  -20.6800   19.7480 C   0  0  0  0  0  0  0  0  0  0  0  0
  -28.9540  -23.7330   19.7930 C   0  0  0  0  0  0  0  0  0  0  0  0
  -28.4290  -22.7900   20.7480 C   0  0  0  0  0  0  0  0  0  0  0  0
  -31.0160  -15.2660   19.7270 C   0  0  0  0  0  0  0  0  0  0  0  0
  -30.8010  -12.8910   18.8520 C   0  0  0  0  0  2  0  0  0  0  0  0
  -29.7830  -12.7940   17.6920 C   0  0  0  0  0  2  0  0  0  0  0  0
  -28.3530  -12.5930   18.2300 C   0  0  0  0  0  2  0  0  0  0  0  0
  -28.0270  -13.5560   19.4010 C   0  0  0  0  0  3  0  0  0  0  0  0
  -29.1650  -13.5820   20.4480 C   0  0  0  0  0  2  0  0  0  0  0  0
  -30.3830  -14.0160   19.7440 N   0  0  0  0  0  0  0  0  0  0  0  0
  -32.1770  -15.2800   19.3000 O   0  0  0  0  0  0  0  0  0  0  0  0
  -28.8740  -18.2980   20.8540 C   0  0  0  0  0  2  0  0  0  0  0  0
  -29.1340  -16.7660   20.7090 C   0  0  0  0  0  2  0  0  0  0  0  0
  -30.7400  -17.9600   19.4910 C   0  0  0  0  0  2  0  0  0  0  0  0
  -29.5170  -19.0240   19.6650 C   0  0  0  0  0  3  0  0  0  0  0  0
  -30.3310  -16.5150   19.8940 N   0  0  0  0  0  0  0  0  0  0  0  0
  -25.7430  -14.1790   20.3870 C   0  0  0  0  0  0  0  0  0  0  0  0
  -24.6880  -13.4210   20.8130 C   0  0  0  0  0  0  0  0  0  0  0  0
  -25.0900  -12.0600   20.6550 C   0  0  0  0  0  0  0  0  0  0  0  0
  -26.7260  -13.2810   20.0000 N   0  0  0  0  0  0  0  0  0  0  0  0
  -26.3460  -11.9960   20.2230 N   0  0  0  0  0  0  0  0  0  0  0  0
  -24.3300  -10.8170   20.8310 C   0  0  0  0  0  0  0  0  0  0  0  0
  -24.7420   -9.8210   21.7440 C   0  0  0  0  0  3  0  0  0  0  0  0
  -23.9830   -8.6440   21.9080 C   0  0  0  0  0  3  0  0  0  0  0  0
  -22.7970   -8.4530   21.1590 C   0  0  0  0  0  0  0  0  0  0  0  0
  -22.4040   -9.4360   20.2350 C   0  0  0  0  0  3  0  0  0  0  0  0
  -23.1640  -10.6060   20.0680 C   0  0  0  0  0  3  0  0  0  0  0  0
  -22.0090   -7.3300   21.2360 O   0  0  0  0  0  0  0  0  0  0  0  0
  -21.8540   -6.6380   22.4090 C   0  0  0  0  0  0  0  0  0  0  0  0
  -21.3120   -7.2420   23.5640 C   0  0  0  0  0  3  0  0  0  0  0  0
  -21.1050   -6.4760   24.7290 C   0  0  0  0  0  3  0  0  0  0  0  0
  -21.4300   -5.1060   24.7390 C   0  0  0  0  0  0  0  0  0  0  0  0
  -21.9640   -4.5020   23.5880 C   0  0  0  0  0  3  0  0  0  0  0  0
  -22.1730   -5.2660   22.4250 C   0  0  0  0  0  0  0  0  0  0  0  0
  -22.6700   -4.6720   21.3130 F   0  0  0  0  0  0  0  0  0  0  0  0
  -21.2250   -4.3690   25.8540 F   0  0  0  0  0  0  0  0  0  0  0  0
  -23.3430  -13.9340   21.2410 C   0  0  0  0  0  0  0  0  0  0  0  0
  -22.6800  -13.2300   22.1510 N   0  0  0  0  0  0  0  0  0  0  0  0
  -22.8930  -14.9930   20.8050 O   0  0  0  0  0  0  0  0  0  0  0  0
  -23.0570  -12.3730   22.5260 H   0  0  0  0  0  0  0  0  0  0  0  0
  -21.7800  -13.5540   22.4780 H   0  0  0  0  0  0  0  0  0  0  0  0
  -25.9300  -15.5510   20.2700 N   0  0  0  0  0  0  0  0  0  0  0  0
  -25.1890  -16.2120   20.4840 H   0  0  0  0  0  0  0  0  0  0  0  0
  -26.7350  -15.9880   19.8410 H   0  0  0  0  0  0  0  0  0  0  0  0
  -29.6750  -25.9550   20.9390 C   0  0  0  0  0  1  0  0  0  0  0  0
  -28.6150  -25.3410   20.0070 C   0  0  0  0  0  3  0  0  0  0  0  0
  -28.4270  -26.4660   18.9890 O   0  0  0  0  0  0  0  0  0  0  0  0
  -24.7420  -31.6080   22.7870 C   0  0  0  0  0  0  0  0  0  0  0  0
  -27.3390  -27.3820   19.1630 C   0  0  0  0  0  0  0  0  0  0  0  0
  -23.5070  -30.3280   21.0790 C   0  0  0  0  0  3  0  0  0  0  0  0
  -24.9350  -28.9720   19.4320 C   0  0  0  0  0  0  0  0  0  0  0  0
  -26.0290  -30.7400   20.8020 C   0  0  0  0  0  2  0  0  0  0  0  0
  -26.1260  -29.4250   20.0160 C   0  0  0  0  0  0  0  0  0  0  0  0
  -27.3330  -28.6480   19.8660 C   0  0  0  0  0  3  0  0  0  0  0  0
  -26.1180  -27.0170   18.5610 C   0  0  0  0  0  3  0  0  0  0  0  0
  -24.9390  -27.7810   18.6910 C   0  0  0  0  0  3  0  0  0  0  0  0
  -23.6750  -29.8000   19.6310 C   0  0  0  0  0  2  0  0  0  0  0  0
  -24.7810  -30.9080   21.6120 N   0  0  0  0  0  0  0  0  0  0  0  0
  -23.6780  -31.7880   23.3990 O   0  0  0  0  0  0  0  0  0  0  0  0
  -22.9270  -29.1990   21.9700 C   0  0  0  0  0  0  0  0  0  0  0  0
  -21.5960  -29.0090   21.9290 N   0  0  0  0  0  0  0  0  0  0  0  0
  -23.6740  -28.5010   22.6580 O   0  0  0  0  0  0  0  0  0  0  0  0
  -21.0480  -29.6280   21.3480 H   0  0  0  0  0  0  0  0  0  0  0  0
  -18.2800  -27.7220   22.6110 C   0  0  0  0  0  0  0  0  0  0  0  0
  -20.8550  -27.9710   22.6490 C   0  0  0  0  0  3  0  0  0  0  0  0
  -20.8910  -26.6290   21.8830 C   0  0  0  0  0  2  0  0  0  0  0  0
  -19.6890  -26.4310   20.9530 C   0  0  0  0  0  2  0  0  0  0  0  0
  -18.3810  -26.4750   21.7480 C   0  0  0  0  0  2  0  0  0  0  0  0
  -19.4390  -28.4330   23.0200 C   0  0  0  0  0  0  0  0  0  0  0  0
  -19.2860  -29.6030   23.7950 C   0  0  0  0  0  3  0  0  0  0  0  0
  -18.0060  -30.0620   24.1620 C   0  0  0  0  0  3  0  0  0  0  0  0
  -16.8620  -29.3460   23.7650 C   0  0  0  0  0  3  0  0  0  0  0  0
  -17.0010  -28.1780   22.9950 C   0  0  0  0  0  3  0  0  0  0  0  0
  -26.0280  -32.2350   23.4060 C   0  0  0  0  0  3  0  0  0  0  0  0
  -25.6720  -33.5650   23.9240 N   0  0  0  0  0  0  0  0  0  0  0  0
  -25.9250  -34.7210   23.2970 C   0  0  0  0  0  0  0  0  0  0  0  0
  -26.5500  -34.7830   22.2340 O   0  0  0  0  0  0  0  0  0  0  0  0
  -25.1080  -33.5880   24.7610 H   0  0  0  0  0  0  0  0  0  0  0  0
  -24.1080  -36.4620   23.2560 C   0  0  0  0  0  1  0  0  0  0  0  0
  -25.4040  -36.0170   23.9510 C   0  0  0  0  0  3  0  0  0  0  0  0
  -27.5340  -36.8980   24.8000 C   0  0  0  0  0  1  0  0  0  0  0  0
  -26.3840  -37.1240   23.9280 N   0  0  0  0  0  0  0  0  0  0  0  0
  -25.9460  -37.9990   24.2020 H   0  0  0  0  0  0  0  0  0  0  0  0
  -26.6600  -31.3490   24.5490 C   0  0  1  0  0  0  0  0  0  0  0  0
  -25.6520  -30.9360   25.6480 C   0  0  0  0  0  1  0  0  0  0  0  0
  -27.2710  -30.0550   23.9640 C   0  0  0  0  0  1  0  0  0  0  0  0
  -27.8200  -32.1170   25.2260 C   0  0  0  0  0  1  0  0  0  0  0  0
  -27.3670  -22.5960   22.9140 C   0  0  0  0  0  1  0  0  0  0  0  0
  -27.6150  -23.3340   21.7240 O   0  0  0  0  0  0  0  0  0  0  0  0
  1  2  2  0
  1  4  1  0
  2  5  1  0
  3  6  1  0
  4  3  2  0
  5 49  1  0
  5  6  2  0
  6 92  1  0
  7 13  1  0
  7 19  1  0
  8 13  1  0
  9 10  1  0
  9  8  1  0
 11 10  1  0
 11 23  1  0
 11 12  1  0
 13 12  1  0
 14  7  2  0
 16 15  1  0
 17 18  1  0
 17 19  1  0
 18  4  1  0
 18 15  1  0
 19 16  1  0
 20 21  2  0
 21 40  1  0
 22 21  1  0
 22 25  1  0
 23 24  1  0
 23 20  1  0
 24 22  2  0
 25 26  1  0
 26 27  2  0
 28 31  1  0
 28 27  1  0
 29 28  2  0
 30 29  1  0
 30 25  2  0
 31 32  1  0
 32 37  2  0
 32 33  1  0
 33 34  2  0
 34 35  1  0
 35 39  1  0
 36 35  2  0
 37 36  1  0
 38 37  1  0
 40 41  1  0
 41 44  1  0
 41 43  1  0
 42 40  2  0
 45 20  1  0
 45 46  1  0
 47 45  1  0
 49 48  1  0
 50 52  1  0
 50 49  1  0
 51 62  2  0
 52 57  1  0
 53 61  1  0
 53 63  1  0
 54 60  1  0
 54 56  1  0
 55 61  1  0
 56 55  1  0
 57 56  2  0
 58 59  1  0
 58 52  2  0
 59 54  2  0
 60 53  1  0
 61 51  1  0
 63 65  2  0
 64 63  1  0
 66 64  1  0
 67 76  2  0
 67 72  1  0
 68 64  1  0
 68 72  1  0
 69 68  1  0
 70 71  1  0
 70 69  1  0
 71 67  1  0
 72 73  2  0
 73 74  1  0
 75 74  2  0
 76 75  1  0
 77 51  1  0
 77 78  1  0
 77 87  1  0
 78 81  1  0
 79 78  1  0
 79 83  1  0
 80 79  2  0
 83 82  1  0
 85 83  1  0
 85 86  1  0
 85 84  1  0
 87 90  1  1
 87 88  1  0
 89 87  1  0
 92 91  1  0
M  ISO  4   7 100  19 100  49 101  50 101
M  END
>  <TORSDO>  (63) 
F 18

>  <SCORE>  (63) 
-10.483

>  <name>  (63) 
63

>  <ligand_id>  (63) 
63

>  <original_smiles>  (63) 
[H]c1c([H])c([H])c2c(c1[H])C([H])([H])C([H])([H])C([H])([H])C2([H])N([H])C(=O)C1([H])N(C(=O)C([H])(N([H])C(=O)C([H])(N([H])C([H])([H])[H])C([H])([H])[H])C(C([H])([H])[H])(C([H])([H])[H])C([H])([H])[H])C([H])([H])c2c([H])c(OC([H])(c3c([H])c([H])c(C4([H])C([H])([H])N(C(=O)N5C([H])([H])C([H])([H])C([H])([H])C([H])(n6nc(-c7c([H])c([H])c(Oc8c([H])c([H])c(F)c([H])c8F)c([H])c7[H])c(C(=O)N([H])[H])c6N([H])[H])C5([H])[H])C([H])([H])C4([H])[H])c([H])c3OC([H])([H])[H])C([H])([H])[H])c([H])c([H])c2C1([H])[H]

>  <smiles>  (63) 
[H]c1c([H])c([H])c2c(c1[H])C([H])([H])C([H])([H])C([H])([H])C2([H])N([H])C(=O)C1([H])N(C(=O)C([H])(N([H])C(=O)C([H])(N([H])C([H])([H])[H])C([H])([H])[H])C(C([H])([H])[H])(C([H])([H])[H])C([H])([H])[H])C([H])([H])c2c([H])c(OC([H])(c3c([H])c([H])c(C4([H])C([H])([H])N(C(=O)N5C([H])([H])C([H])([H])C([H])([H])C([H])(n6nc(-c7c([H])c([H])c(Oc8c([H])c([H])c(F)c([H])c8F)c([H])c7[H])c(C(=O)N([H])[H])c6N([H])[H])C5([H])[H])C([H])([H])C4([H])[H])c([H])c3OC([H])([H])[H])C([H])([H])[H])c([H])c([H])c2C1([H])[H]

$$$$
64:0:0
     RDKit          3D

 96106  0  0  1  0  0  0  0  0999 V2000
  -29.4460  -21.9090   21.7270 C   0  0  0  0  0  3  0  0  0  0  0  0
  -29.9070  -21.5030   20.4590 C   0  0  0  0  0  0  0  0  0  0  0  0
  -28.9140  -23.2070   21.9160 C   0  0  0  0  0  0  0  0  0  0  0  0
  -29.7720  -22.4660   19.4140 C   0  0  0  0  0  0  0  0  0  0  0  0
  -28.8460  -24.1150   20.8270 C   0  0  0  0  0  0  0  0  0  0  0  0
  -28.4420  -23.6110   23.3060 C   0  0  0  0  0  1  0  0  0  0  0  0
  -29.2430  -23.7140   19.5950 N   0  0  0  0  0  0  0  0  0  0  0  0
  -31.6890  -22.1350   17.6490 C   0  0  0  0  0  2  0  0  0  0  0  0
  -30.8590  -23.2830   17.1500 C   0  0  0  0  0  2  0  0  0  0  0  0
  -30.2150  -22.2010   17.9980 C   0  0  0  0  0  3  0  0  0  0  0  0
  -30.7050  -20.1610   20.3160 C   0  0  0  0  0  2  0  0  0  0  0  0
  -30.7910  -14.6790   20.1500 C   0  0  0  0  0  0  0  0  0  0  0  0
  -30.5130  -12.4680   19.0720 C   0  0  0  0  0  2  0  0  0  0  0  0
  -29.5200  -12.6250   17.9000 C   0  0  0  0  0  2  0  0  0  0  0  0
  -28.0670  -12.4630   18.3890 C   0  0  0  0  0  2  0  0  0  0  0  0
  -27.7610  -13.3080   19.6560 C   0  0  0  0  0  3  0  0  0  0  0  0
  -28.8680  -13.1470   20.7240 C   0  0  0  0  0  2  0  0  0  0  0  0
  -30.1500  -13.4740   20.0860 N   0  0  0  0  0  0  0  0  0  0  0  0
  -31.9470  -14.8200   19.7410 O   0  0  0  0  0  0  0  0  0  0  0  0
  -29.6980  -16.5240   21.4800 C   0  0  0  0  0  2  0  0  0  0  0  0
  -29.6730  -16.6050   19.0530 C   0  0  0  0  0  2  0  0  0  0  0  0
  -30.2980  -17.9740   21.5130 C   0  0  0  0  0  2  0  0  0  0  0  0
  -30.3070  -18.0270   19.0770 C   0  0  0  0  0  2  0  0  0  0  0  0
  -29.9780  -15.7790   20.2380 N   0  0  0  0  0  0  0  0  0  0  0  0
  -29.9990  -18.8170   20.3080 N   0  0  2  0  0  4  0  0  0  0  0  0
  -29.0070  -18.9970   20.3010 H   0  0  0  0  0  0  0  0  0  0  0  0
  -25.4090  -13.8900   20.5070 C   0  0  0  0  0  0  0  0  0  0  0  0
  -24.3560  -13.1080   20.8990 C   0  0  0  0  0  0  0  0  0  0  0  0
  -24.8110  -11.7570   20.8010 C   0  0  0  0  0  0  0  0  0  0  0  0
  -26.4360  -13.0140   20.1950 N   0  0  0  0  0  0  0  0  0  0  0  0
  -26.0850  -11.7250   20.4310 N   0  0  0  0  0  0  0  0  0  0  0  0
  -24.0890  -10.4900   20.9800 C   0  0  0  0  0  0  0  0  0  0  0  0
  -24.5050   -9.5320   21.9300 C   0  0  0  0  0  3  0  0  0  0  0  0
  -23.7840   -8.3300   22.0970 C   0  0  0  0  0  3  0  0  0  0  0  0
  -22.6330   -8.0780   21.3150 C   0  0  0  0  0  0  0  0  0  0  0  0
  -22.2360   -9.0250   20.3540 C   0  0  0  0  0  3  0  0  0  0  0  0
  -22.9580  -10.2180   20.1850 C   0  0  0  0  0  3  0  0  0  0  0  0
  -21.8840   -6.9280   21.3910 O   0  0  0  0  0  0  0  0  0  0  0  0
  -21.7430   -6.2380   22.5680 C   0  0  0  0  0  0  0  0  0  0  0  0
  -21.1640   -6.8270   23.7130 C   0  0  0  0  0  3  0  0  0  0  0  0
  -20.9760   -6.0590   24.8800 C   0  0  0  0  0  3  0  0  0  0  0  0
  -21.3570   -4.7040   24.9010 C   0  0  0  0  0  0  0  0  0  0  0  0
  -21.9270   -4.1140   23.7590 C   0  0  0  0  0  3  0  0  0  0  0  0
  -22.1170   -4.8790   22.5950 C   0  0  0  0  0  0  0  0  0  0  0  0
  -22.6490   -4.3010   21.4920 F   0  0  0  0  0  0  0  0  0  0  0  0
  -21.1690   -3.9640   26.0190 F   0  0  0  0  0  0  0  0  0  0  0  0
  -22.9750  -13.5800   21.2500 C   0  0  0  0  0  0  0  0  0  0  0  0
  -22.2800  -12.8500   22.1160 N   0  0  0  0  0  0  0  0  0  0  0  0
  -22.5220  -14.6270   20.7930 O   0  0  0  0  0  0  0  0  0  0  0  0
  -22.6610  -12.0000   22.5060 H   0  0  0  0  0  0  0  0  0  0  0  0
  -21.3540  -13.1430   22.3920 H   0  0  0  0  0  0  0  0  0  0  0  0
  -25.5720  -15.2650   20.3700 N   0  0  0  0  0  0  0  0  0  0  0  0
  -24.8140  -15.9180   20.5340 H   0  0  0  0  0  0  0  0  0  0  0  0
  -26.4110  -15.7080   20.0190 H   0  0  0  0  0  0  0  0  0  0  0  0
  -28.2760  -25.5560   21.0350 C   0  0  0  0  0  2  0  0  0  0  0  0
  -28.4200  -26.5880   20.0110 O   0  0  0  0  0  0  0  0  0  0  0  0
  -24.5920  -31.8060   23.1100 C   0  0  0  0  0  0  0  0  0  0  0  0
  -27.3150  -27.4270   19.9660 C   0  0  0  0  0  0  0  0  0  0  0  0
  -23.4210  -30.4170   21.4350 C   0  0  0  0  0  3  0  0  0  0  0  0
  -24.9110  -28.9350   19.9800 C   0  0  0  0  0  0  0  0  0  0  0  0
  -25.9460  -30.8120   21.2620 C   0  0  0  0  0  2  0  0  0  0  0  0
  -26.0620  -29.4530   20.5900 C   0  0  0  0  0  0  0  0  0  0  0  0
  -27.2720  -28.7070   20.5800 C   0  0  0  0  0  3  0  0  0  0  0  0
  -26.1530  -26.9460   19.3330 C   0  0  0  0  0  3  0  0  0  0  0  0
  -24.9550  -27.6830   19.3430 C   0  0  0  0  0  3  0  0  0  0  0  0
  -23.6510  -29.7720   20.0410 C   0  0  0  0  0  2  0  0  0  0  0  0
  -24.6710  -31.0270   21.9930 N   0  0  0  0  0  0  0  0  0  0  0  0
  -23.5030  -32.0480   23.6490 O   0  0  0  0  0  0  0  0  0  0  0  0
  -22.7800  -29.3650   22.3710 C   0  0  0  0  0  0  0  0  0  0  0  0
  -21.4530  -29.1860   22.2580 N   0  0  0  0  0  0  0  0  0  0  0  0
  -23.4750  -28.7160   23.1570 O   0  0  0  0  0  0  0  0  0  0  0  0
  -20.9520  -29.7640   21.5980 H   0  0  0  0  0  0  0  0  0  0  0  0
  -18.0830  -27.9960   22.7970 C   0  0  0  0  0  0  0  0  0  0  0  0
  -20.6490  -28.2230   23.0110 C   0  0  0  0  0  3  0  0  0  0  0  0
  -20.7230  -26.8170   22.3720 C   0  0  0  0  0  2  0  0  0  0  0  0
  -19.5930  -26.5460   21.3750 C   0  0  0  0  0  2  0  0  0  0  0  0
  -18.2300  -26.6750   22.0610 C   0  0  0  0  0  2  0  0  0  0  0  0
  -19.2190  -28.7310   23.2290 C   0  0  0  0  0  0  0  0  0  0  0  0
  -19.0260  -29.9690   23.8790 C   0  0  0  0  0  3  0  0  0  0  0  0
  -17.7320  -30.4740   24.0990 C   0  0  0  0  0  3  0  0  0  0  0  0
  -16.6100  -29.7360   23.6840 C   0  0  0  0  0  3  0  0  0  0  0  0
  -16.7870  -28.4980   23.0380 C   0  0  0  0  0  3  0  0  0  0  0  0
  -25.8620  -32.4490   23.7480 C   0  0  0  0  0  3  0  0  0  0  0  0
  -26.3990  -31.6530   25.0010 C   0  0  1  0  0  0  0  0  0  0  0  0
  -25.3140  -31.3570   26.0620 C   0  0  0  0  0  1  0  0  0  0  0  0
  -27.0150  -30.3030   24.5680 C   0  0  0  0  0  1  0  0  0  0  0  0
  -27.5300  -32.4550   25.6870 C   0  0  0  0  0  1  0  0  0  0  0  0
  -25.5230  -33.8300   24.1190 N   0  0  0  0  0  0  0  0  0  0  0  0
  -25.8280  -34.9100   23.3890 C   0  0  0  0  0  0  0  0  0  0  0  0
  -26.4980  -34.8520   22.3530 O   0  0  0  0  0  0  0  0  0  0  0  0
  -24.9260  -33.9480   24.9250 H   0  0  0  0  0  0  0  0  0  0  0  0
  -24.0690  -36.6800   23.0740 C   0  0  0  0  0  1  0  0  0  0  0  0
  -25.3090  -36.2740   23.8860 C   0  0  0  0  0  3  0  0  0  0  0  0
  -27.4150  -37.1750   24.7700 C   0  0  0  0  0  1  0  0  0  0  0  0
  -26.3210  -37.3500   23.8170 N   0  0  0  0  0  0  0  0  0  0  0  0
  -25.8950  -38.2570   23.9880 H   0  0  0  0  0  0  0  0  0  0  0  0
  1  3  1  0
  2  1  2  0
  3  6  1  0
  4  7  2  0
  4  2  1  0
  5 55  1  0
  5  3  2  0
  7  5  1  0
  8 10  1  0
  9  8  1  0
  9 10  1  0
 10  4  1  0
 11  2  1  0
 12 24  1  0
 13 18  1  0
 14 15  1  0
 14 13  1  0
 16 15  1  0
 16 30  1  0
 16 17  1  0
 18 12  1  0
 18 17  1  0
 19 12  2  0
 20 22  1  0
 21 23  1  0
 21 24  1  0
 23 25  1  0
 24 20  1  0
 25 11  1  0
 25 22  1  0
 25 26  1  6
 27 28  2  0
 28 47  1  0
 29 28  1  0
 29 32  1  0
 30 31  1  0
 30 27  1  0
 31 29  2  0
 32 33  1  0
 33 34  2  0
 35 38  1  0
 35 34  1  0
 36 35  2  0
 37 36  1  0
 37 32  2  0
 38 39  1  0
 39 44  2  0
 39 40  1  0
 40 41  2  0
 41 42  1  0
 42 46  1  0
 43 42  2  0
 44 43  1  0
 45 44  1  0
 47 48  1  0
 48 51  1  0
 48 50  1  0
 49 47  2  0
 52 27  1  0
 52 53  1  0
 54 52  1  0
 56 55  1  0
 57 68  2  0
 58 56  1  0
 58 63  1  0
 59 67  1  0
 59 69  1  0
 60 66  1  0
 60 62  1  0
 61 67  1  0
 62 61  1  0
 63 62  2  0
 64 65  1  0
 64 58  2  0
 65 60  2  0
 66 59  1  0
 67 57  1  0
 69 71  2  0
 70 69  1  0
 72 70  1  0
 73 82  2  0
 73 78  1  0
 74 70  1  0
 74 78  1  0
 75 74  1  0
 76 77  1  0
 76 75  1  0
 77 73  1  0
 78 79  2  0
 79 80  1  0
 81 80  2  0
 82 81  1  0
 83 57  1  0
 83 88  1  0
 83 84  1  0
 84 87  1  1
 84 85  1  0
 86 84  1  0
 88 91  1  0
 89 93  1  0
 89 88  1  0
 90 89  2  0
 93 92  1  0
 95 93  1  0
 95 96  1  0
 95 94  1  0
M  ISO  4  12 100  24 100  55 101  56 101
M  END
>  <TORSDO>  (64) 
F 19

>  <SCORE>  (64) 
-13.330

>  <name>  (64) 
64

>  <ligand_id>  (64) 
64

>  <original_smiles>  (64) 
[H]c1c([H])c([H])c2c(c1[H])C([H])([H])C([H])([H])C([H])([H])C2([H])N([H])C(=O)C1([H])N(C(=O)C([H])(N([H])C(=O)C([H])(N([H])C([H])([H])[H])C([H])([H])[H])C(C([H])([H])[H])(C([H])([H])[H])C([H])([H])[H])C([H])([H])c2c([H])c(OC([H])([H])c3nc(C4([H])C([H])([H])C4([H])[H])c(C([H])([H])[N+]4([H])C([H])([H])C([H])([H])N(C(=O)N5C([H])([H])C([H])([H])C([H])([H])C([H])(n6nc(-c7c([H])c([H])c(Oc8c([H])c([H])c(F)c([H])c8F)c([H])c7[H])c(C(=O)N([H])[H])c6N([H])[H])C5([H])[H])C([H])([H])C4([H])[H])c([H])c3C([H])([H])[H])c([H])c([H])c2C1([H])[H]

>  <smiles>  (64) 
[H]c1c([H])c([H])c2c(c1[H])C([H])([H])C([H])([H])C([H])([H])C2([H])N([H])C(=O)C1([H])N(C(=O)C([H])(N([H])C(=O)C([H])(N([H])C([H])([H])[H])C([H])([H])[H])C(C([H])([H])[H])(C([H])([H])[H])C([H])([H])[H])C([H])([H])c2c([H])c(OC([H])([H])c3nc(C4([H])C([H])([H])C4([H])[H])c(C([H])([H])[N+]4([H])C([H])([H])C([H])([H])N(C(=O)N5C([H])([H])C([H])([H])C([H])([H])C([H])(n6nc(-c7c([H])c([H])c(Oc8c([H])c([H])c(F)c([H])c8F)c([H])c7[H])c(C(=O)N([H])[H])c6N([H])[H])C5([H])[H])C([H])([H])C4([H])[H])c([H])c3C([H])([H])[H])c([H])c([H])c2C1([H])[H]

$$$$
65:0:0
     RDKit          3D

 93102  0  0  1  0  0  0  0  0999 V2000
  -28.2050  -22.8840   19.2630 C   0  0  0  0  0  3  0  0  0  0  0  0
  -28.5760  -21.5470   19.5830 C   0  0  0  0  0  3  0  0  0  0  0  0
  -29.9910  -23.7350   20.6330 C   0  0  0  0  0  3  0  0  0  0  0  0
  -28.9090  -24.0090   19.7660 C   0  0  0  0  0  0  0  0  0  0  0  0
  -30.3710  -22.3990   20.9540 C   0  0  0  0  0  0  0  0  0  0  0  0
  -29.6840  -21.2710   20.4260 C   0  0  0  0  0  0  0  0  0  0  0  0
  -31.5700  -22.1790   21.8580 C   0  0  0  0  0  1  0  0  0  0  0  0
  -29.8260  -25.9470   18.4150 C   0  0  0  0  0  1  0  0  0  0  0  0
  -28.6210  -25.4460   19.2230 C   0  0  0  0  0  3  0  0  0  0  0  0
  -28.3570  -26.5150   20.1880 O   0  0  0  0  0  0  0  0  0  0  0  0
  -24.5960  -31.8290   23.2070 C   0  0  0  0  0  0  0  0  0  0  0  0
  -27.2020  -27.3030   20.1260 C   0  0  0  0  0  0  0  0  0  0  0  0
  -23.3850  -30.4380   21.5660 C   0  0  0  0  0  3  0  0  0  0  0  0
  -24.8270  -28.8890   20.1360 C   0  0  0  0  0  0  0  0  0  0  0  0
  -25.9220  -30.7580   21.3770 C   0  0  0  0  0  2  0  0  0  0  0  0
  -25.9950  -29.3840   20.7280 C   0  0  0  0  0  0  0  0  0  0  0  0
  -27.1810  -28.5980   20.7180 C   0  0  0  0  0  3  0  0  0  0  0  0
  -25.9990  -26.8370   19.5440 C   0  0  0  0  0  3  0  0  0  0  0  0
  -24.8290  -27.6190   19.5410 C   0  0  0  0  0  3  0  0  0  0  0  0
  -23.5920  -29.7640   20.1850 C   0  0  0  0  0  2  0  0  0  0  0  0
  -24.6530  -31.0250   22.1070 N   0  0  0  0  0  0  0  0  0  0  0  0
  -23.5140  -32.1100   23.7440 O   0  0  0  0  0  0  0  0  0  0  0  0
  -22.7210  -29.4210   22.5240 C   0  0  0  0  0  0  0  0  0  0  0  0
  -21.3950  -29.2500   22.3970 N   0  0  0  0  0  0  0  0  0  0  0  0
  -23.3980  -28.7900   23.3400 O   0  0  0  0  0  0  0  0  0  0  0  0
  -20.9100  -29.8100   21.7110 H   0  0  0  0  0  0  0  0  0  0  0  0
  -18.0140  -28.0630   22.8800 C   0  0  0  0  0  0  0  0  0  0  0  0
  -20.5700  -28.3180   23.1670 C   0  0  0  0  0  3  0  0  0  0  0  0
  -20.6730  -26.8840   22.5990 C   0  0  0  0  0  2  0  0  0  0  0  0
  -19.5780  -26.5580   21.5780 C   0  0  0  0  0  2  0  0  0  0  0  0
  -18.1920  -26.7100   22.2120 C   0  0  0  0  0  2  0  0  0  0  0  0
  -19.1310  -28.8250   23.3140 C   0  0  0  0  0  0  0  0  0  0  0  0
  -18.9110  -30.0920   23.8970 C   0  0  0  0  0  3  0  0  0  0  0  0
  -17.6060  -30.5970   24.0500 C   0  0  0  0  0  3  0  0  0  0  0  0
  -16.5030  -29.8320   23.6320 C   0  0  0  0  0  3  0  0  0  0  0  0
  -16.7080  -28.5670   23.0540 C   0  0  0  0  0  3  0  0  0  0  0  0
  -25.8830  -32.4550   23.8290 C   0  0  0  0  0  3  0  0  0  0  0  0
  -25.5840  -33.8560   24.1550 N   0  0  0  0  0  0  0  0  0  0  0  0
  -25.9090  -34.9030   23.3830 C   0  0  0  0  0  0  0  0  0  0  0  0
  -26.5640  -34.7890   22.3430 O   0  0  0  0  0  0  0  0  0  0  0  0
  -25.0010  -34.0180   24.9640 H   0  0  0  0  0  0  0  0  0  0  0  0
  -24.1730  -36.6910   23.0480 C   0  0  0  0  0  1  0  0  0  0  0  0
  -25.4310  -36.2950   23.8370 C   0  0  0  0  0  3  0  0  0  0  0  0
  -27.5810  -37.1900   24.6170 C   0  0  0  0  0  1  0  0  0  0  0  0
  -26.4620  -37.3460   23.6910 N   0  0  0  0  0  0  0  0  0  0  0  0
  -26.0590  -38.2690   23.8340 H   0  0  0  0  0  0  0  0  0  0  0  0
  -26.3910  -31.6830   25.1100 C   0  0  1  0  0  0  0  0  0  0  0  0
  -25.2940  -31.4550   26.1750 C   0  0  0  0  0  1  0  0  0  0  0  0
  -26.9660  -30.3020   24.7200 C   0  0  0  0  0  1  0  0  0  0  0  0
  -27.5450  -32.4720   25.7720 C   0  0  0  0  0  1  0  0  0  0  0  0
  -30.1640  -19.9940   20.7570 O   0  0  0  0  0  0  0  0  0  0  0  0
  -30.7640  -14.5260   19.9930 C   0  0  0  0  0  0  0  0  0  0  0  0
  -30.3900  -12.3190   18.9350 C   0  0  0  0  0  2  0  0  0  0  0  0
  -29.3810  -12.4750   17.7790 C   0  0  0  0  0  2  0  0  0  0  0  0
  -27.9370  -12.3400   18.3020 C   0  0  0  0  0  2  0  0  0  0  0  0
  -27.6700  -13.2100   19.5590 C   0  0  0  0  0  3  0  0  0  0  0  0
  -28.7940  -13.0600   20.6080 C   0  0  0  0  0  2  0  0  0  0  0  0
  -30.0690  -13.3500   19.9370 N   0  0  0  0  0  0  0  0  0  0  0  0
  -31.9160  -14.6150   19.5590 O   0  0  0  0  0  0  0  0  0  0  0  0
  -29.9790  -18.0280   19.2230 C   0  0  0  0  0  2  0  0  0  0  0  0
  -29.6110  -17.7680   21.6900 C   0  0  0  0  0  2  0  0  0  0  0  0
  -29.5810  -16.5150   19.1590 C   0  0  0  0  0  2  0  0  0  0  0  0
  -30.4870  -16.4940   21.4430 C   0  0  0  0  0  2  0  0  0  0  0  0
  -29.4600  -18.7500   20.4890 C   0  0  0  0  0  3  0  0  0  0  0  0
  -30.0620  -15.6690   20.2880 N   0  0  0  0  0  0  0  0  0  0  0  0
  -25.3470  -13.8360   20.4590 C   0  0  0  0  0  0  0  0  0  0  0  0
  -24.2890  -13.0720   20.8750 C   0  0  0  0  0  0  0  0  0  0  0  0
  -24.7180  -11.7140   20.7730 C   0  0  0  0  0  0  0  0  0  0  0  0
  -26.3530  -12.9420   20.1290 N   0  0  0  0  0  0  0  0  0  0  0  0
  -25.9840  -11.6590   20.3790 N   0  0  0  0  0  0  0  0  0  0  0  0
  -23.9780  -10.4600   20.9740 C   0  0  0  0  0  0  0  0  0  0  0  0
  -24.4210   -9.4800   21.8880 C   0  0  0  0  0  3  0  0  0  0  0  0
  -23.6820   -8.2920   22.0770 C   0  0  0  0  0  3  0  0  0  0  0  0
  -22.4870   -8.0760   21.3500 C   0  0  0  0  0  0  0  0  0  0  0  0
  -22.0640   -9.0450   20.4220 C   0  0  0  0  0  3  0  0  0  0  0  0
  -22.8040  -10.2240   20.2320 C   0  0  0  0  0  3  0  0  0  0  0  0
  -21.7180   -6.9410   21.4490 O   0  0  0  0  0  0  0  0  0  0  0  0
  -21.6460   -6.2210   22.6140 C   0  0  0  0  0  0  0  0  0  0  0  0
  -21.1950   -6.7980   23.8210 C   0  0  0  0  0  3  0  0  0  0  0  0
  -21.0690   -6.0030   24.9770 C   0  0  0  0  0  3  0  0  0  0  0  0
  -21.3840   -4.6330   24.9280 C   0  0  0  0  0  0  0  0  0  0  0  0
  -21.8290   -4.0540   23.7260 C   0  0  0  0  0  3  0  0  0  0  0  0
  -21.9560   -4.8470   22.5720 C   0  0  0  0  0  0  0  0  0  0  0  0
  -22.3650   -4.2810   21.4110 F   0  0  0  0  0  0  0  0  0  0  0  0
  -21.2560   -3.8660   26.0370 F   0  0  0  0  0  0  0  0  0  0  0  0
  -22.9230  -13.5690   21.2540 C   0  0  0  0  0  0  0  0  0  0  0  0
  -22.2420  -12.8650   22.1510 N   0  0  0  0  0  0  0  0  0  0  0  0
  -22.4720  -14.6150   20.7890 O   0  0  0  0  0  0  0  0  0  0  0  0
  -22.6210  -12.0180   22.5470 H   0  0  0  0  0  0  0  0  0  0  0  0
  -21.3300  -13.1810   22.4480 H   0  0  0  0  0  0  0  0  0  0  0  0
  -25.5320  -15.2070   20.3140 N   0  0  0  0  0  0  0  0  0  0  0  0
  -24.7990  -15.8810   20.5080 H   0  0  0  0  0  0  0  0  0  0  0  0
  -26.3860  -15.6340   19.9790 H   0  0  0  0  0  0  0  0  0  0  0  0
  1  2  2  0
  1  4  1  0
  2  6  1  0
  3  5  1  0
  4  3  2  0
  5  7  1  0
  6 51  1  0
  6  5  2  0
  9  8  1  0
  9  4  1  0
  9 10  1  0
 11 22  2  0
 12 10  1  0
 12 17  1  0
 13 21  1  0
 13 23  1  0
 14 20  1  0
 14 16  1  0
 15 21  1  0
 16 15  1  0
 17 16  2  0
 18 12  2  0
 19 18  1  0
 19 14  2  0
 20 13  1  0
 21 11  1  0
 23 25  2  0
 24 23  1  0
 26 24  1  0
 27 36  2  0
 27 32  1  0
 28 24  1  0
 28 32  1  0
 29 28  1  0
 30 31  1  0
 30 29  1  0
 31 27  1  0
 32 33  2  0
 33 34  1  0
 35 34  2  0
 36 35  1  0
 37 11  1  0
 37 38  1  0
 37 47  1  0
 38 41  1  0
 39 43  1  0
 39 38  1  0
 40 39  2  0
 43 42  1  0
 45 46  1  0
 45 43  1  0
 45 44  1  0
 47 50  1  1
 47 48  1  0
 49 47  1  0
 52 65  1  0
 53 58  1  0
 54 55  1  0
 54 53  1  0
 56 55  1  0
 56 69  1  0
 56 57  1  0
 58 52  1  0
 58 57  1  0
 59 52  2  0
 60 64  1  0
 62 60  1  0
 62 65  1  0
 63 61  1  0
 64 51  1  0
 64 61  1  0
 65 63  1  0
 66 67  2  0
 67 86  1  0
 68 67  1  0
 68 71  1  0
 69 70  1  0
 69 66  1  0
 70 68  2  0
 71 72  1  0
 72 73  2  0
 74 77  1  0
 74 73  1  0
 75 74  2  0
 76 75  1  0
 76 71  2  0
 77 78  1  0
 78 79  1  0
 79 80  2  0
 81 80  1  0
 81 85  1  0
 82 81  2  0
 83 78  2  0
 83 82  1  0
 84 83  1  0
 86 87  1  0
 87 90  1  0
 87 89  1  0
 88 86  2  0
 91 66  1  0
 91 92  1  0
 93 91  1  0
M  ISO  4   9 101  10 101  52 100  65 100
M  END
>  <TORSDO>  (65) 
F 18

>  <SCORE>  (65) 
-14.231

>  <name>  (65) 
65

>  <ligand_id>  (65) 
65

>  <original_smiles>  (65) 
[H]c1c([H])c([H])c2c(c1[H])C([H])([H])C([H])([H])C([H])([H])C2([H])N([H])C(=O)C1([H])N(C(=O)C([H])(N([H])C(=O)C([H])(N([H])C([H])([H])[H])C([H])([H])[H])C(C([H])([H])[H])(C([H])([H])[H])C([H])([H])[H])C([H])([H])c2c([H])c(OC([H])(c3c([H])c([H])c(OC4([H])C([H])([H])C([H])([H])N(C(=O)N5C([H])([H])C([H])([H])C([H])([H])C([H])(n6nc(-c7c([H])c([H])c(Oc8c([H])c([H])c(F)c([H])c8F)c([H])c7[H])c(C(=O)N([H])[H])c6N([H])[H])C5([H])[H])C([H])([H])C4([H])[H])c(C([H])([H])[H])c3[H])C([H])([H])[H])c([H])c([H])c2C1([H])[H]

>  <smiles>  (65) 
[H]c1c([H])c([H])c2c(c1[H])C([H])([H])C([H])([H])C([H])([H])C2([H])N([H])C(=O)C1([H])N(C(=O)C([H])(N([H])C(=O)C([H])(N([H])C([H])([H])[H])C([H])([H])[H])C(C([H])([H])[H])(C([H])([H])[H])C([H])([H])[H])C([H])([H])c2c([H])c(OC([H])(c3c([H])c([H])c(OC4([H])C([H])([H])C([H])([H])N(C(=O)N5C([H])([H])C([H])([H])C([H])([H])C([H])(n6nc(-c7c([H])c([H])c(Oc8c([H])c([H])c(F)c([H])c8F)c([H])c7[H])c(C(=O)N([H])[H])c6N([H])[H])C5([H])[H])C([H])([H])C4([H])[H])c(C([H])([H])[H])c3[H])C([H])([H])[H])c([H])c([H])c2C1([H])[H]

$$$$
66:0:0
     RDKit          3D

 94104  0  0  1  0  0  0  0  0999 V2000
  -29.7820  -22.1340   17.7930 C   0  0  0  0  0  3  0  0  0  0  0  0
  -29.6080  -21.1460   18.7780 C   0  0  0  0  0  3  0  0  0  0  0  0
  -28.7170  -22.8570   20.3020 C   0  0  0  0  0  3  0  0  0  0  0  0
  -29.4140  -23.4640   18.0600 C   0  0  0  0  0  0  0  0  0  0  0  0
  -28.9040  -23.8820   19.2960 C   0  0  0  0  0  0  0  0  0  0  0  0
  -29.0510  -21.4570   20.0390 C   0  0  0  0  0  0  0  0  0  0  0  0
  -29.5940  -24.5860   17.0660 C   0  0  0  0  0  2  0  0  0  0  0  0
  -28.8130  -25.4660   19.2220 C   0  0  0  0  0  3  0  0  0  0  0  0
  -29.0150  -25.8620   17.7260 C   0  0  0  0  0  3  0  0  0  0  0  0
  -27.7740  -26.3490   16.9550 C   0  0  0  0  0  1  0  0  0  0  0  0
  -28.3580  -26.4640   20.2210 O   0  0  0  0  0  0  0  0  0  0  0  0
  -24.6480  -31.8790   23.2100 C   0  0  0  0  0  0  0  0  0  0  0  0
  -27.2320  -27.2990   20.1240 C   0  0  0  0  0  0  0  0  0  0  0  0
  -23.4270  -30.4760   21.5880 C   0  0  0  0  0  3  0  0  0  0  0  0
  -24.8600  -28.9120   20.1460 C   0  0  0  0  0  0  0  0  0  0  0  0
  -25.9620  -30.7880   21.3700 C   0  0  0  0  0  2  0  0  0  0  0  0
  -26.0340  -29.4020   20.7320 C   0  0  0  0  0  0  0  0  0  0  0  0
  -27.2160  -28.6050   20.7160 C   0  0  0  0  0  3  0  0  0  0  0  0
  -26.0250  -26.8420   19.5590 C   0  0  0  0  0  3  0  0  0  0  0  0
  -24.8570  -27.6370   19.5530 C   0  0  0  0  0  3  0  0  0  0  0  0
  -23.6270  -29.7960   20.2060 C   0  0  0  0  0  2  0  0  0  0  0  0
  -24.7010  -31.0650   22.1150 N   0  0  0  0  0  0  0  0  0  0  0  0
  -23.5720  -32.1550   23.7580 O   0  0  0  0  0  0  0  0  0  0  0  0
  -22.7720  -29.4650   22.5580 C   0  0  0  0  0  0  0  0  0  0  0  0
  -21.4440  -29.2820   22.4460 N   0  0  0  0  0  0  0  0  0  0  0  0
  -23.4570  -28.8460   23.3750 O   0  0  0  0  0  0  0  0  0  0  0  0
  -20.9430  -29.8360   21.7670 H   0  0  0  0  0  0  0  0  0  0  0  0
  -18.0790  -28.0670   22.9680 C   0  0  0  0  0  0  0  0  0  0  0  0
  -20.6360  -28.3480   23.2320 C   0  0  0  0  0  3  0  0  0  0  0  0
  -20.7500  -26.9110   22.6730 C   0  0  0  0  0  2  0  0  0  0  0  0
  -19.6490  -26.5690   21.6640 C   0  0  0  0  0  2  0  0  0  0  0  0
  -18.2660  -26.7110   22.3070 C   0  0  0  0  0  2  0  0  0  0  0  0
  -19.1920  -28.8410   23.3880 C   0  0  0  0  0  0  0  0  0  0  0  0
  -18.9670  -30.1080   23.9680 C   0  0  0  0  0  3  0  0  0  0  0  0
  -17.6600  -30.6020   24.1350 C   0  0  0  0  0  3  0  0  0  0  0  0
  -16.5600  -29.8260   23.7320 C   0  0  0  0  0  3  0  0  0  0  0  0
  -16.7690  -28.5610   23.1520 C   0  0  0  0  0  3  0  0  0  0  0  0
  -25.9380  -32.5200   23.8140 C   0  0  0  0  0  3  0  0  0  0  0  0
  -25.6230  -33.9140   24.1610 N   0  0  0  0  0  0  0  0  0  0  0  0
  -25.9400  -34.9770   23.4090 C   0  0  0  0  0  0  0  0  0  0  0  0
  -26.5940  -34.8860   22.3640 O   0  0  0  0  0  0  0  0  0  0  0  0
  -25.0410  -34.0610   24.9730 H   0  0  0  0  0  0  0  0  0  0  0  0
  -24.2000  -36.7680   23.1030 C   0  0  0  0  0  1  0  0  0  0  0  0
  -25.4560  -36.3580   23.8880 C   0  0  0  0  0  3  0  0  0  0  0  0
  -27.6010  -37.2440   24.6890 C   0  0  0  0  0  1  0  0  0  0  0  0
  -26.4820  -37.4170   23.7670 N   0  0  0  0  0  0  0  0  0  0  0  0
  -26.0760  -38.3360   23.9260 H   0  0  0  0  0  0  0  0  0  0  0  0
  -26.4790  -31.7460   25.0790 C   0  0  1  0  0  0  0  0  0  0  0  0
  -25.4060  -31.4990   26.1660 C   0  0  0  0  0  1  0  0  0  0  0  0
  -27.0620  -30.3760   24.6680 C   0  0  0  0  0  1  0  0  0  0  0  0
  -27.6370  -32.5410   25.7240 C   0  0  0  0  0  1  0  0  0  0  0  0
  -28.8230  -20.4320   20.9850 O   0  0  0  0  0  0  0  0  0  0  0  0
  -30.6180  -14.7420   20.3310 C   0  0  0  0  0  0  0  0  0  0  0  0
  -30.3320  -12.4780   19.3280 C   0  0  0  0  0  2  0  0  0  0  0  0
  -29.3890  -12.5370   18.1090 C   0  0  0  0  0  2  0  0  0  0  0  0
  -27.9320  -12.3250   18.5590 C   0  0  0  0  0  2  0  0  0  0  0  0
  -27.5570  -13.2310   19.7590 C   0  0  0  0  0  3  0  0  0  0  0  0
  -28.6300  -13.2270   20.8740 C   0  0  0  0  0  2  0  0  0  0  0  0
  -29.9190  -13.5570   20.2540 N   0  0  0  0  0  0  0  0  0  0  0  0
  -31.8170  -14.7410   20.0350 O   0  0  0  0  0  0  0  0  0  0  0  0
  -30.5880  -18.5070   21.0820 C   0  0  0  0  0  2  0  0  0  0  0  0
  -28.5620  -18.0200   19.7980 C   0  0  0  0  0  2  0  0  0  0  0  0
  -30.7320  -16.9830   21.4750 C   0  0  0  0  0  2  0  0  0  0  0  0
  -28.7330  -16.4690   20.0770 C   0  0  0  0  0  2  0  0  0  0  0  0
  -29.1320  -18.9670   20.8920 C   0  0  0  0  0  3  0  0  0  0  0  0
  -30.0040  -15.9530   20.6680 N   0  0  0  0  0  0  0  0  0  0  0  0
  -25.1870  -13.8330   20.5100 C   0  0  0  0  0  0  0  0  0  0  0  0
  -24.1240  -13.0610   20.8920 C   0  0  0  0  0  0  0  0  0  0  0  0
  -24.5870  -11.7110   20.8620 C   0  0  0  0  0  0  0  0  0  0  0  0
  -26.2280  -12.9490   20.2720 N   0  0  0  0  0  0  0  0  0  0  0  0
  -25.8770  -11.6700   20.5520 N   0  0  0  0  0  0  0  0  0  0  0  0
  -23.8620  -10.4500   21.0560 C   0  0  0  0  0  0  0  0  0  0  0  0
  -24.3080   -9.4780   21.9790 C   0  0  0  0  0  3  0  0  0  0  0  0
  -23.5800   -8.2820   22.1570 C   0  0  0  0  0  3  0  0  0  0  0  0
  -22.3990   -8.0500   21.4160 C   0  0  0  0  0  0  0  0  0  0  0  0
  -21.9750   -9.0110   20.4810 C   0  0  0  0  0  3  0  0  0  0  0  0
  -22.7020  -10.1980   20.2980 C   0  0  0  0  0  3  0  0  0  0  0  0
  -21.6420   -6.9070   21.5080 O   0  0  0  0  0  0  0  0  0  0  0  0
  -21.6190   -6.1530   22.6550 C   0  0  0  0  0  0  0  0  0  0  0  0
  -21.2210   -6.6970   23.8950 C   0  0  0  0  0  3  0  0  0  0  0  0
  -21.1430   -5.8710   25.0330 C   0  0  0  0  0  3  0  0  0  0  0  0
  -21.4500   -4.5010   24.9340 C   0  0  0  0  0  0  0  0  0  0  0  0
  -21.8410   -3.9560   23.6980 C   0  0  0  0  0  3  0  0  0  0  0  0
  -21.9200   -4.7780   22.5610 C   0  0  0  0  0  0  0  0  0  0  0  0
  -22.2770   -4.2450   21.3660 F   0  0  0  0  0  0  0  0  0  0  0  0
  -21.3680   -3.7030   26.0250 F   0  0  0  0  0  0  0  0  0  0  0  0
  -22.7300  -13.5420   21.1650 C   0  0  0  0  0  0  0  0  0  0  0  0
  -22.0010  -12.8520   22.0350 N   0  0  0  0  0  0  0  0  0  0  0  0
  -22.2930  -14.5680   20.6420 O   0  0  0  0  0  0  0  0  0  0  0  0
  -22.3670  -12.0230   22.4820 H   0  0  0  0  0  0  0  0  0  0  0  0
  -21.0650  -13.1570   22.2590 H   0  0  0  0  0  0  0  0  0  0  0  0
  -25.3390  -15.2020   20.3240 N   0  0  0  0  0  0  0  0  0  0  0  0
  -24.5590  -15.8410   20.4220 H   0  0  0  0  0  0  0  0  0  0  0  0
  -26.1710  -15.6420   19.9600 H   0  0  0  0  0  0  0  0  0  0  0  0
  1  4  2  0
  1  2  1  0
  2  6  2  0
  4  5  1  0
  5  3  2  0
  6  3  1  0
  6 52  1  0
  7  9  1  0
  7  4  1  0
  8  5  1  0
  8 11  1  0
  9 10  1  0
  9  8  1  0
 12 23  2  0
 13 11  1  0
 13 18  1  0
 14 22  1  0
 14 24  1  0
 15 21  1  0
 15 17  1  0
 16 22  1  0
 17 16  1  0
 18 17  2  0
 19 13  2  0
 20 19  1  0
 20 15  2  0
 21 14  1  0
 22 12  1  0
 24 26  2  0
 25 24  1  0
 27 25  1  0
 28 37  2  0
 28 33  1  0
 29 25  1  0
 29 33  1  0
 30 29  1  0
 31 32  1  0
 31 30  1  0
 32 28  1  0
 33 34  2  0
 34 35  1  0
 36 35  2  0
 37 36  1  0
 38 12  1  0
 38 39  1  0
 38 48  1  0
 39 42  1  0
 40 44  1  0
 40 39  1  0
 41 40  2  0
 44 43  1  0
 46 44  1  0
 46 47  1  0
 46 45  1  0
 48 51  1  1
 48 49  1  0
 50 48  1  0
 53 66  1  0
 54 59  1  0
 55 56  1  0
 55 54  1  0
 57 56  1  0
 57 70  1  0
 57 58  1  0
 59 53  1  0
 59 58  1  0
 60 53  2  0
 61 63  1  0
 62 64  1  0
 62 65  1  0
 64 66  1  0
 65 52  1  0
 65 61  1  0
 66 63  1  0
 67 68  2  0
 68 87  1  0
 69 68  1  0
 69 72  1  0
 70 67  1  0
 70 71  1  0
 71 69  2  0
 72 73  1  0
 73 74  2  0
 75 78  1  0
 75 74  1  0
 76 75  2  0
 77 76  1  0
 77 72  2  0
 78 79  1  0
 79 80  1  0
 80 81  2  0
 82 81  1  0
 82 86  1  0
 83 82  2  0
 84 79  2  0
 84 83  1  0
 85 84  1  0
 87 88  1  0
 88 91  1  0
 88 90  1  0
 89 87  2  0
 92 93  1  0
 92 67  1  0
 94 92  1  0
M  ISO  4   8 101  11 101  53 100  66 100
M  END
>  <TORSDO>  (66) 
F 17

>  <SCORE>  (66) 
-15.249

>  <name>  (66) 
66

>  <ligand_id>  (66) 
66

>  <original_smiles>  (66) 
[H]c1c([H])c([H])c2c(c1[H])C([H])([H])C([H])([H])C([H])([H])C2([H])N([H])C(=O)C1([H])N(C(=O)C([H])(N([H])C(=O)C([H])(N([H])C([H])([H])[H])C([H])([H])[H])C(C([H])([H])[H])(C([H])([H])[H])C([H])([H])[H])C([H])([H])c2c([H])c(OC3([H])c4c([H])c(OC5([H])C([H])([H])C([H])([H])N(C(=O)N6C([H])([H])C([H])([H])C([H])([H])C([H])(n7nc(-c8c([H])c([H])c(Oc9c([H])c([H])c(F)c([H])c9F)c([H])c8[H])c(C(=O)N([H])[H])c7N([H])[H])C6([H])[H])C([H])([H])C5([H])[H])c([H])c([H])c4C([H])([H])C3([H])C([H])([H])[H])c([H])c([H])c2C1([H])[H]

>  <smiles>  (66) 
[H]c1c([H])c([H])c2c(c1[H])C([H])([H])C([H])([H])C([H])([H])C2([H])N([H])C(=O)C1([H])N(C(=O)C([H])(N([H])C(=O)C([H])(N([H])C([H])([H])[H])C([H])([H])[H])C(C([H])([H])[H])(C([H])([H])[H])C([H])([H])[H])C([H])([H])c2c([H])c(OC3([H])c4c([H])c(OC5([H])C([H])([H])C([H])([H])N(C(=O)N6C([H])([H])C([H])([H])C([H])([H])C([H])(n7nc(-c8c([H])c([H])c(Oc9c([H])c([H])c(F)c([H])c9F)c([H])c8[H])c(C(=O)N([H])[H])c7N([H])[H])C6([H])[H])C([H])([H])C5([H])[H])c([H])c([H])c4C([H])([H])C3([H])C([H])([H])[H])c([H])c([H])c2C1([H])[H]

$$$$
67:0:0
     RDKit          3D

 92101  0  0  1  0  0  0  0  0999 V2000
  -29.5760  -19.8870   20.4410 C   0  0  0  0  0  3  0  0  0  0  0  0
  -29.6220  -19.2640   17.7290 C   0  0  0  0  0  3  0  0  0  0  0  0
  -29.2480  -20.9470   19.5010 C   0  0  0  0  0  0  0  0  0  0  0  0
  -29.9210  -18.5230   20.0400 C   0  0  0  0  0  0  0  0  0  0  0  0
  -29.9560  -18.2560   18.6460 C   0  0  0  0  0  0  0  0  0  0  0  0
  -29.2680  -20.5590   18.1320 C   0  0  0  0  0  0  0  0  0  0  0  0
  -30.3670  -16.9150   18.0590 C   0  0  0  0  0  1  0  0  0  0  0  0
  -28.8170  -21.6440   16.8570 Cl  0  0  0  0  0  0  0  0  0  0  0  0
  -29.8170  -23.4280   19.2970 C   0  0  0  0  0  2  0  0  0  0  0  0
  -28.7360  -22.4340   19.7230 C   0  0  0  0  0  3  0  0  0  0  0  0
  -29.0330  -23.8110   20.4930 C   0  0  0  0  0  3  0  0  0  0  0  0
  -28.0310  -25.0350   20.3270 C   0  0  0  0  0  2  0  0  0  0  0  0
  -28.3300  -26.4960   20.4780 O   0  0  0  0  0  0  0  0  0  0  0  0
  -24.5500  -32.0170   23.3100 C   0  0  0  0  0  0  0  0  0  0  0  0
  -27.2300  -27.3840   20.3880 C   0  0  0  0  0  0  0  0  0  0  0  0
  -23.3870  -30.5850   21.6750 C   0  0  0  0  0  3  0  0  0  0  0  0
  -24.8700  -29.0230   20.3050 C   0  0  0  0  0  0  0  0  0  0  0  0
  -25.9330  -30.9010   21.5410 C   0  0  0  0  0  2  0  0  0  0  0  0
  -26.0310  -29.5100   20.9170 C   0  0  0  0  0  0  0  0  0  0  0  0
  -27.2150  -28.7050   20.9480 C   0  0  0  0  0  3  0  0  0  0  0  0
  -26.0370  -26.9690   19.7470 C   0  0  0  0  0  3  0  0  0  0  0  0
  -24.8780  -27.7580   19.7090 C   0  0  0  0  0  3  0  0  0  0  0  0
  -23.6310  -29.8940   20.3110 C   0  0  0  0  0  2  0  0  0  0  0  0
  -24.6420  -31.1860   22.2310 N   0  0  0  0  0  0  0  0  0  0  0  0
  -23.4540  -32.3000   23.8160 O   0  0  0  0  0  0  0  0  0  0  0  0
  -22.7080  -29.5800   22.6370 C   0  0  0  0  0  0  0  0  0  0  0  0
  -21.3850  -29.3960   22.4890 N   0  0  0  0  0  0  0  0  0  0  0  0
  -23.3720  -28.9680   23.4780 O   0  0  0  0  0  0  0  0  0  0  0  0
  -20.9070  -29.9410   21.7840 H   0  0  0  0  0  0  0  0  0  0  0  0
  -17.9930  -28.2330   22.9780 C   0  0  0  0  0  0  0  0  0  0  0  0
  -20.5530  -28.4720   23.2620 C   0  0  0  0  0  3  0  0  0  0  0  0
  -20.6450  -27.0350   22.6970 C   0  0  0  0  0  2  0  0  0  0  0  0
  -19.5470  -26.7150   21.6790 C   0  0  0  0  0  2  0  0  0  0  0  0
  -18.1620  -26.8760   22.3140 C   0  0  0  0  0  2  0  0  0  0  0  0
  -19.1160  -28.9880   23.4090 C   0  0  0  0  0  0  0  0  0  0  0  0
  -18.9050  -30.2570   23.9910 C   0  0  0  0  0  3  0  0  0  0  0  0
  -17.6020  -30.7700   24.1460 C   0  0  0  0  0  3  0  0  0  0  0  0
  -16.4940  -30.0120   23.7310 C   0  0  0  0  0  3  0  0  0  0  0  0
  -16.6910  -28.7450   23.1530 C   0  0  0  0  0  3  0  0  0  0  0  0
  -25.8160  -32.6670   23.9450 C   0  0  0  0  0  3  0  0  0  0  0  0
  -26.2970  -31.9360   25.2580 C   0  0  1  0  0  0  0  0  0  0  0  0
  -25.1710  -31.7170   26.2970 C   0  0  0  0  0  1  0  0  0  0  0  0
  -26.9020  -30.5520   24.9250 C   0  0  0  0  0  1  0  0  0  0  0  0
  -27.4190  -32.7570   25.9350 C   0  0  0  0  0  1  0  0  0  0  0  0
  -25.4980  -34.0760   24.2250 N   0  0  0  0  0  0  0  0  0  0  0  0
  -25.8610  -35.1070   23.4510 C   0  0  0  0  0  0  0  0  0  0  0  0
  -26.5680  -34.9740   22.4490 O   0  0  0  0  0  0  0  0  0  0  0  0
  -24.8740  -34.2530   24.9990 H   0  0  0  0  0  0  0  0  0  0  0  0
  -24.1770  -36.9100   22.9610 C   0  0  0  0  0  1  0  0  0  0  0  0
  -25.3620  -36.5080   23.8530 C   0  0  0  0  0  3  0  0  0  0  0  0
  -27.4450  -37.3940   24.8040 C   0  0  0  0  0  1  0  0  0  0  0  0
  -26.4110  -37.5490   23.7850 N   0  0  0  0  0  0  0  0  0  0  0  0
  -26.0060  -38.4760   23.8820 H   0  0  0  0  0  0  0  0  0  0  0  0
  -30.3410  -17.3910   21.0700 C   0  0  0  0  0  2  0  0  0  0  0  0
  -30.7190  -14.8270   20.6230 C   0  0  0  0  0  0  0  0  0  0  0  0
  -30.5100  -12.6240   19.4780 C   0  0  0  0  0  2  0  0  0  0  0  0
  -29.5870  -12.7760   18.2510 C   0  0  0  0  0  2  0  0  0  0  0  0
  -28.1090  -12.5960   18.6510 C   0  0  0  0  0  2  0  0  0  0  0  0
  -27.7250  -13.4230   19.9080 C   0  0  0  0  0  3  0  0  0  0  0  0
  -28.7680  -13.2600   21.0360 C   0  0  0  0  0  2  0  0  0  0  0  0
  -30.0790  -13.6210   20.4790 N   0  0  0  0  0  0  0  0  0  0  0  0
  -31.9100  -14.9460   20.3230 O   0  0  0  0  0  0  0  0  0  0  0  0
  -29.9460  -15.9320   20.8990 N   0  0  0  0  0  0  0  0  0  0  0  0
  -28.9710  -15.7330   21.0640 H   0  0  0  0  0  0  0  0  0  0  0  0
  -25.3090  -13.9820   20.5720 C   0  0  0  0  0  0  0  0  0  0  0  0
  -24.2460  -13.1930   20.9180 C   0  0  0  0  0  0  0  0  0  0  0  0
  -24.7300  -11.8490   20.9020 C   0  0  0  0  0  0  0  0  0  0  0  0
  -26.3730  -13.1180   20.3650 N   0  0  0  0  0  0  0  0  0  0  0  0
  -26.0290  -11.8300   20.6270 N   0  0  0  0  0  0  0  0  0  0  0  0
  -24.0180  -10.5770   21.0760 C   0  0  0  0  0  0  0  0  0  0  0  0
  -24.4350   -9.6200   22.0290 C   0  0  0  0  0  3  0  0  0  0  0  0
  -23.7230   -8.4130   22.1900 C   0  0  0  0  0  3  0  0  0  0  0  0
  -22.5780   -8.1520   21.3990 C   0  0  0  0  0  0  0  0  0  0  0  0
  -22.1800   -9.0960   20.4360 C   0  0  0  0  0  3  0  0  0  0  0  0
  -22.8940  -10.2950   20.2730 C   0  0  0  0  0  3  0  0  0  0  0  0
  -21.8390   -6.9960   21.4690 O   0  0  0  0  0  0  0  0  0  0  0  0
  -21.7570   -6.2630   22.6260 C   0  0  0  0  0  0  0  0  0  0  0  0
  -21.2250   -6.8060   23.8170 C   0  0  0  0  0  3  0  0  0  0  0  0
  -21.0960   -5.9960   24.9630 C   0  0  0  0  0  3  0  0  0  0  0  0
  -21.4870   -4.6450   24.9190 C   0  0  0  0  0  0  0  0  0  0  0  0
  -22.0110   -4.1010   23.7330 C   0  0  0  0  0  3  0  0  0  0  0  0
  -22.1430   -4.9070   22.5890 C   0  0  0  0  0  0  0  0  0  0  0  0
  -22.6280   -4.3730   21.4430 F   0  0  0  0  0  0  0  0  0  0  0  0
  -21.3550   -3.8650   26.0180 F   0  0  0  0  0  0  0  0  0  0  0  0
  -22.8360  -13.6490   21.1520 C   0  0  0  0  0  0  0  0  0  0  0  0
  -22.0950  -12.9430   21.9990 N   0  0  0  0  0  0  0  0  0  0  0  0
  -22.3960  -14.6680   20.6180 O   0  0  0  0  0  0  0  0  0  0  0  0
  -22.4620  -12.1190   22.4530 H   0  0  0  0  0  0  0  0  0  0  0  0
  -21.1470  -13.2310   22.1980 H   0  0  0  0  0  0  0  0  0  0  0  0
  -25.4550  -15.3540   20.3950 N   0  0  0  0  0  0  0  0  0  0  0  0
  -24.6700  -15.9910   20.4790 H   0  0  0  0  0  0  0  0  0  0  0  0
  -26.2950  -15.8080   20.0580 H   0  0  0  0  0  0  0  0  0  0  0  0
  2  6  2  0
  2  5  1  0
  3  1  2  0
  4  1  1  0
  4 54  1  0
  5  4  2  0
  6  3  1  0
  7  5  1  0
  8  6  1  0
  9 10  1  0
  9 11  1  0
 10  3  1  0
 10 11  1  0
 11 12  1  0
 12 13  1  0
 14 25  2  0
 15 13  1  0
 15 20  1  0
 16 24  1  0
 16 26  1  0
 17 23  1  0
 17 19  1  0
 18 24  1  0
 19 20  2  0
 19 18  1  0
 21 15  2  0
 22 21  1  0
 22 17  2  0
 23 16  1  0
 24 14  1  0
 26 28  2  0
 27 26  1  0
 29 27  1  0
 30 39  2  0
 30 35  1  0
 31 27  1  0
 31 35  1  0
 32 31  1  0
 33 34  1  0
 33 32  1  0
 34 30  1  0
 35 36  2  0
 36 37  1  0
 38 37  2  0
 39 38  1  0
 40 14  1  0
 40 45  1  0
 40 41  1  0
 41 44  1  1
 41 42  1  0
 43 41  1  0
 45 48  1  0
 46 50  1  0
 46 45  1  0
 47 46  2  0
 50 49  1  0
 52 50  1  0
 52 53  1  0
 52 51  1  0
 55 63  1  0
 56 61  1  0
 57 58  1  0
 57 56  1  0
 59 58  1  0
 59 68  1  0
 59 60  1  0
 61 55  1  0
 61 60  1  0
 62 55  2  0
 63 64  1  0
 63 54  1  0
 65 66  2  0
 66 85  1  0
 67 66  1  0
 67 70  1  0
 68 65  1  0
 68 69  1  0
 69 67  2  0
 70 71  1  0
 71 72  2  0
 73 76  1  0
 73 72  1  0
 74 73  2  0
 75 74  1  0
 75 70  2  0
 76 77  1  0
 77 78  1  0
 78 79  2  0
 80 79  1  0
 80 84  1  0
 81 80  2  0
 82 77  2  0
 82 81  1  0
 83 82  1  0
 85 86  1  0
 86 89  1  0
 86 88  1  0
 87 85  2  0
 90 91  1  0
 90 65  1  0
 92 90  1  0
M  ISO  4  12 101  13 101  55 100  63 100
M  END
>  <TORSDO>  (67) 
F 19

>  <SCORE>  (67) 
-13.850

>  <name>  (67) 
67

>  <ligand_id>  (67) 
67

>  <original_smiles>  (67) 
[H]c1c([H])c([H])c2c(c1[H])C([H])([H])C([H])([H])C([H])([H])C2([H])N([H])C(=O)C1([H])N(C(=O)C([H])(N([H])C(=O)C([H])(N([H])C([H])([H])[H])C([H])([H])[H])C(C([H])([H])[H])(C([H])([H])[H])C([H])([H])[H])C([H])([H])c2c([H])c(OC([H])([H])C3([H])C([H])([H])C3([H])c3c([H])c(C([H])([H])N([H])C(=O)N4C([H])([H])C([H])([H])C([H])([H])C([H])(n5nc(-c6c([H])c([H])c(Oc7c([H])c([H])c(F)c([H])c7F)c([H])c6[H])c(C(=O)N([H])[H])c5N([H])[H])C4([H])[H])c(C([H])([H])[H])c([H])c3Cl)c([H])c([H])c2C1([H])[H]

>  <smiles>  (67) 
[H]c1c([H])c([H])c2c(c1[H])C([H])([H])C([H])([H])C([H])([H])C2([H])N([H])C(=O)C1([H])N(C(=O)C([H])(N([H])C(=O)C([H])(N([H])C([H])([H])[H])C([H])([H])[H])C(C([H])([H])[H])(C([H])([H])[H])C([H])([H])[H])C([H])([H])c2c([H])c(OC([H])([H])C3([H])C([H])([H])C3([H])c3c([H])c(C([H])([H])N([H])C(=O)N4C([H])([H])C([H])([H])C([H])([H])C([H])(n5nc(-c6c([H])c([H])c(Oc7c([H])c([H])c(F)c([H])c7F)c([H])c6[H])c(C(=O)N([H])[H])c5N([H])[H])C4([H])[H])c(C([H])([H])[H])c([H])c3Cl)c([H])c([H])c2C1([H])[H]

$$$$
68:0:0
     RDKit          3D

 92101  0  0  1  0  0  0  0  0999 V2000
  -28.0660  -20.9940   20.3690 C   0  0  0  0  0  3  0  0  0  0  0  0
  -29.3840  -20.4750   20.1590 C   0  0  0  0  0  0  0  0  0  0  0  0
  -27.7470  -22.4100   20.3370 C   0  0  0  0  0  0  0  0  0  0  0  0
  -30.3130  -21.5650   20.0080 C   0  0  0  0  0  0  0  0  0  0  0  0
  -28.7330  -23.4270   20.0990 C   0  0  0  0  0  0  0  0  0  0  0  0
  -26.2880  -22.8140   20.4630 C   0  0  0  0  0  1  0  0  0  0  0  0
  -31.7860  -21.2750   19.7950 C   0  0  0  0  0  1  0  0  0  0  0  0
  -30.0050  -22.9240   19.9700 N   0  0  0  0  0  0  0  0  0  0  0  0
  -30.5720  -15.0260   20.2840 C   0  0  0  0  0  0  0  0  0  0  0  0
  -30.3990  -12.6840   19.3550 C   0  0  0  0  0  2  0  0  0  0  0  0
  -29.4490  -12.6430   18.1380 C   0  0  0  0  0  2  0  0  0  0  0  0
  -27.9920  -12.4330   18.5940 C   0  0  0  0  0  2  0  0  0  0  0  0
  -27.6000  -13.3560   19.7780 C   0  0  0  0  0  3  0  0  0  0  0  0
  -28.6770  -13.3970   20.8810 C   0  0  0  0  0  2  0  0  0  0  0  0
  -29.9360  -13.7890   20.2360 N   0  0  0  0  0  0  0  0  0  0  0  0
  -31.7960  -15.0370   20.1130 O   0  0  0  0  0  0  0  0  0  0  0  0
  -28.7830  -18.1370   18.9580 C   0  0  0  0  0  2  0  0  0  0  0  0
  -29.2740  -16.6570   18.9230 C   0  0  0  0  0  2  0  0  0  0  0  0
  -29.7480  -18.8850   19.8690 C   0  0  0  0  0  3  0  0  0  0  0  0
  -30.0050  -17.6490   20.9020 C   0  0  0  0  0  3  0  0  0  0  0  0
  -31.3290  -17.7980   21.6640 C   0  0  0  0  0  1  0  0  0  0  0  0
  -29.8280  -16.2480   20.2350 N   0  0  0  0  0  0  0  0  0  0  0  0
  -25.2360  -13.9500   20.5510 C   0  0  0  0  0  0  0  0  0  0  0  0
  -24.1700  -13.1770   20.9200 C   0  0  0  0  0  0  0  0  0  0  0  0
  -24.6280  -11.8250   20.8760 C   0  0  0  0  0  0  0  0  0  0  0  0
  -26.2710  -13.0660   20.2960 N   0  0  0  0  0  0  0  0  0  0  0  0
  -25.9160  -11.7830   20.5570 N   0  0  0  0  0  0  0  0  0  0  0  0
  -23.8990  -10.5650   21.0600 C   0  0  0  0  0  0  0  0  0  0  0  0
  -24.3290   -9.5920   21.9890 C   0  0  0  0  0  3  0  0  0  0  0  0
  -23.6000   -8.3960   22.1630 C   0  0  0  0  0  3  0  0  0  0  0  0
  -22.4270   -8.1660   21.4070 C   0  0  0  0  0  0  0  0  0  0  0  0
  -22.0160   -9.1270   20.4670 C   0  0  0  0  0  3  0  0  0  0  0  0
  -22.7450  -10.3140   20.2900 C   0  0  0  0  0  3  0  0  0  0  0  0
  -21.6680   -7.0240   21.4910 O   0  0  0  0  0  0  0  0  0  0  0  0
  -21.6140   -6.2790   22.6420 C   0  0  0  0  0  0  0  0  0  0  0  0
  -21.1640   -6.8280   23.8630 C   0  0  0  0  0  3  0  0  0  0  0  0
  -21.0580   -6.0090   25.0060 C   0  0  0  0  0  3  0  0  0  0  0  0
  -21.3910   -4.6430   24.9280 C   0  0  0  0  0  0  0  0  0  0  0  0
  -21.8350   -4.0950   23.7110 C   0  0  0  0  0  3  0  0  0  0  0  0
  -21.9420   -4.9110   22.5710 C   0  0  0  0  0  0  0  0  0  0  0  0
  -22.3490   -4.3730   21.3960 F   0  0  0  0  0  0  0  0  0  0  0  0
  -21.2830   -3.8550   26.0220 F   0  0  0  0  0  0  0  0  0  0  0  0
  -22.7770  -13.6590   21.2030 C   0  0  0  0  0  0  0  0  0  0  0  0
  -22.0500  -12.9590   22.0670 N   0  0  0  0  0  0  0  0  0  0  0  0
  -22.3420  -14.6920   20.6950 O   0  0  0  0  0  0  0  0  0  0  0  0
  -22.4160  -12.1230   22.4990 H   0  0  0  0  0  0  0  0  0  0  0  0
  -21.1160  -13.2620   22.2980 H   0  0  0  0  0  0  0  0  0  0  0  0
  -25.4070  -15.3220   20.3840 N   0  0  0  0  0  0  0  0  0  0  0  0
  -24.6480  -15.9820   20.5180 H   0  0  0  0  0  0  0  0  0  0  0  0
  -26.2680  -15.7630   20.0880 H   0  0  0  0  0  0  0  0  0  0  0  0
  -28.3890  -24.9510   19.5560 C   0  0  0  0  0  2  0  0  0  0  0  0
  -28.3180  -26.2960   20.3180 O   0  0  0  0  0  0  0  0  0  0  0  0
  -24.6160  -31.9260   23.2490 C   0  0  0  0  0  0  0  0  0  0  0  0
  -27.2460  -27.2540   20.2020 C   0  0  0  0  0  0  0  0  0  0  0  0
  -23.4340  -30.5270   21.6020 C   0  0  0  0  0  3  0  0  0  0  0  0
  -24.9000  -28.9760   20.1750 C   0  0  0  0  0  0  0  0  0  0  0  0
  -25.9870  -30.8130   21.4510 C   0  0  0  0  0  2  0  0  0  0  0  0
  -26.0720  -29.4270   20.7930 C   0  0  0  0  0  0  0  0  0  0  0  0
  -27.2400  -28.5790   20.7970 C   0  0  0  0  0  3  0  0  0  0  0  0
  -26.0390  -26.9030   19.5520 C   0  0  0  0  0  3  0  0  0  0  0  0
  -24.8950  -27.7260   19.5440 C   0  0  0  0  0  3  0  0  0  0  0  0
  -23.6650  -29.8600   20.2210 C   0  0  0  0  0  2  0  0  0  0  0  0
  -24.6990  -31.1100   22.1550 N   0  0  0  0  0  0  0  0  0  0  0  0
  -23.5260  -32.2010   23.7720 O   0  0  0  0  0  0  0  0  0  0  0  0
  -22.7600  -29.5100   22.5550 C   0  0  0  0  0  0  0  0  0  0  0  0
  -21.4350  -29.3250   22.4170 N   0  0  0  0  0  0  0  0  0  0  0  0
  -23.4310  -28.8900   23.3850 O   0  0  0  0  0  0  0  0  0  0  0  0
  -20.9490  -29.8760   21.7240 H   0  0  0  0  0  0  0  0  0  0  0  0
  -18.0590  -28.1010   22.8980 C   0  0  0  0  0  0  0  0  0  0  0  0
  -20.6150  -28.3810   23.1820 C   0  0  0  0  0  3  0  0  0  0  0  0
  -20.7310  -26.9490   22.6070 C   0  0  0  0  0  2  0  0  0  0  0  0
  -19.6370  -26.6200   21.5850 C   0  0  0  0  0  2  0  0  0  0  0  0
  -18.2510  -26.7530   22.2200 C   0  0  0  0  0  2  0  0  0  0  0  0
  -19.1700  -28.8710   23.3350 C   0  0  0  0  0  0  0  0  0  0  0  0
  -18.9360  -30.1300   23.9290 C   0  0  0  0  0  3  0  0  0  0  0  0
  -17.6260  -30.6190   24.0910 C   0  0  0  0  0  3  0  0  0  0  0  0
  -16.5300  -29.8450   23.6690 C   0  0  0  0  0  3  0  0  0  0  0  0
  -16.7480  -28.5880   23.0780 C   0  0  0  0  0  3  0  0  0  0  0  0
  -25.8880  -32.5680   23.8830 C   0  0  0  0  0  3  0  0  0  0  0  0
  -25.5690  -33.9700   24.1980 N   0  0  0  0  0  0  0  0  0  0  0  0
  -25.9030  -35.0200   23.4360 C   0  0  0  0  0  0  0  0  0  0  0  0
  -26.5770  -34.9100   22.4090 O   0  0  0  0  0  0  0  0  0  0  0  0
  -24.9700  -34.1280   24.9950 H   0  0  0  0  0  0  0  0  0  0  0  0
  -24.1760  -36.8130   23.0620 C   0  0  0  0  0  1  0  0  0  0  0  0
  -25.4120  -36.4110   23.8830 C   0  0  0  0  0  3  0  0  0  0  0  0
  -27.5370  -37.3080   24.7270 C   0  0  0  0  0  1  0  0  0  0  0  0
  -26.4440  -37.4650   23.7700 N   0  0  0  0  0  0  0  0  0  0  0  0
  -26.0360  -38.3860   23.9050 H   0  0  0  0  0  0  0  0  0  0  0  0
  -26.3840  -31.8130   25.1770 C   0  0  1  0  0  0  0  0  0  0  0  0
  -25.2740  -31.5860   26.2300 C   0  0  0  0  0  1  0  0  0  0  0  0
  -26.9760  -30.4310   24.8150 C   0  0  0  0  0  1  0  0  0  0  0  0
  -27.5230  -32.6170   25.8480 C   0  0  0  0  0  1  0  0  0  0  0  0
  2  1  2  0
  3  1  1  0
  3  6  1  0
  4  2  1  0
  5  3  2  0
  7  4  1  0
  8  4  2  0
  8  5  1  0
 10 15  1  0
 11 12  1  0
 11 10  1  0
 13 12  1  0
 13 26  1  0
 13 14  1  0
 15  9  1  0
 15 14  1  0
 16  9  2  0
 17 19  1  0
 18 17  1  0
 18 22  1  0
 19  2  1  0
 19 20  1  0
 20 21  1  0
 22  9  1  0
 22 20  1  0
 23 24  2  0
 24 43  1  0
 25 24  1  0
 25 28  1  0
 26 23  1  0
 26 27  1  0
 27 25  2  0
 28 29  1  0
 29 30  2  0
 31 34  1  0
 31 30  1  0
 32 31  2  0
 33 32  1  0
 33 28  2  0
 34 35  1  0
 35 36  1  0
 36 37  2  0
 38 37  1  0
 38 42  1  0
 39 38  2  0
 40 35  2  0
 40 39  1  0
 41 40  1  0
 43 44  1  0
 44 47  1  0
 44 46  1  0
 45 43  2  0
 48 49  1  0
 48 23  1  0
 50 48  1  0
 51  5  1  0
 51 52  1  0
 53 64  2  0
 54 52  1  0
 54 59  1  0
 55 63  1  0
 55 65  1  0
 56 62  1  0
 56 58  1  0
 57 63  1  0
 58 59  2  0
 58 57  1  0
 60 54  2  0
 61 60  1  0
 61 56  2  0
 62 55  1  0
 63 53  1  0
 65 67  2  0
 66 65  1  0
 68 66  1  0
 69 78  2  0
 69 74  1  0
 70 66  1  0
 70 74  1  0
 71 70  1  0
 72 73  1  0
 72 71  1  0
 73 69  1  0
 74 75  2  0
 75 76  1  0
 77 76  2  0
 78 77  1  0
 79 53  1  0
 79 80  1  0
 79 89  1  0
 80 83  1  0
 81 85  1  0
 81 80  1  0
 82 81  2  0
 85 84  1  0
 87 85  1  0
 87 88  1  0
 87 86  1  0
 89 92  1  1
 89 90  1  0
 91 89  1  0
M  ISO  4   9 100  22 100  51 101  52 101
M  END
>  <TORSDO>  (68) 
F 17

>  <SCORE>  (68) 
-15.178

>  <name>  (68) 
68

>  <ligand_id>  (68) 
68

>  <original_smiles>  (68) 
[H]c1c([H])c([H])c2c(c1[H])C([H])([H])C([H])([H])C([H])([H])C2([H])N([H])C(=O)C1([H])N(C(=O)C([H])(N([H])C(=O)C([H])(N([H])C([H])([H])[H])C([H])([H])[H])C(C([H])([H])[H])(C([H])([H])[H])C([H])([H])[H])C([H])([H])c2c([H])c(OC([H])([H])c3nc(C([H])([H])[H])c(C4([H])C([H])([H])C([H])([H])N(C(=O)N5C([H])([H])C([H])([H])C([H])([H])C([H])(n6nc(-c7c([H])c([H])c(Oc8c([H])c([H])c(F)c([H])c8F)c([H])c7[H])c(C(=O)N([H])[H])c6N([H])[H])C5([H])[H])C4([H])C([H])([H])[H])c([H])c3C([H])([H])[H])c([H])c([H])c2C1([H])[H]

>  <smiles>  (68) 
[H]c1c([H])c([H])c2c(c1[H])C([H])([H])C([H])([H])C([H])([H])C2([H])N([H])C(=O)C1([H])N(C(=O)C([H])(N([H])C(=O)C([H])(N([H])C([H])([H])[H])C([H])([H])[H])C(C([H])([H])[H])(C([H])([H])[H])C([H])([H])[H])C([H])([H])c2c([H])c(OC([H])([H])c3nc(C([H])([H])[H])c(C4([H])C([H])([H])C([H])([H])N(C(=O)N5C([H])([H])C([H])([H])C([H])([H])C([H])(n6nc(-c7c([H])c([H])c(Oc8c([H])c([H])c(F)c([H])c8F)c([H])c7[H])c(C(=O)N([H])[H])c6N([H])[H])C5([H])[H])C4([H])C([H])([H])[H])c([H])c3C([H])([H])[H])c([H])c([H])c2C1([H])[H]

$$$$
69:0:0
     RDKit          3D

 97106  0  0  1  0  0  0  0  0999 V2000
  -29.7450  -18.9820   19.3150 C   0  0  0  0  0  3  0  0  0  0  0  0
  -27.0890  -19.8620   19.6140 C   0  0  0  0  0  3  0  0  0  0  0  0
  -28.6920  -18.0110   19.4130 C   0  0  0  0  0  0  0  0  0  0  0  0
  -27.3840  -18.4880   19.6660 C   0  0  0  0  0  0  0  0  0  0  0  0
  -29.4660  -20.3940   19.3700 C   0  0  0  0  0  0  0  0  0  0  0  0
  -28.1100  -20.8090   19.4210 C   0  0  0  0  0  0  0  0  0  0  0  0
  -26.2860  -17.4980   20.0280 C   0  0  0  0  0  2  0  0  0  0  0  0
  -26.7940  -16.3730   20.9550 C   0  0  0  0  0  2  0  0  0  0  0  0
  -28.2220  -15.8700   20.6430 C   0  0  0  0  0  2  0  0  0  0  0  0
  -28.7820  -16.4510   19.3270 C   0  0  0  0  0  3  0  0  0  0  0  0
  -30.8090  -14.8150   19.4790 C   0  0  0  0  0  0  0  0  0  0  0  0
  -30.9440  -12.3590   19.7720 C   0  0  0  0  0  2  0  0  0  0  0  0
  -30.2010  -11.6360   18.6300 C   0  0  0  0  0  2  0  0  0  0  0  0
  -28.7110  -11.4620   18.9860 C   0  0  0  0  0  2  0  0  0  0  0  0
  -28.0660  -12.7750   19.5050 C   0  0  0  0  0  3  0  0  0  0  0  0
  -28.9490  -13.4360   20.5860 C   0  0  0  0  0  2  0  0  0  0  0  0
  -30.2720  -13.6580   19.9860 N   0  0  0  0  0  0  0  0  0  0  0  0
  -32.0050  -14.8730   19.1950 O   0  0  0  0  0  0  0  0  0  0  0  0
  -30.0270  -15.7780   18.9100 N   0  0  0  0  0  0  0  0  0  0  0  0
  -30.5710  -16.3470   18.2780 H   0  0  0  0  0  0  0  0  0  0  0  0
  -25.6770  -13.4760   20.1400 C   0  0  0  0  0  0  0  0  0  0  0  0
  -24.5840  -12.7530   20.5300 C   0  0  0  0  0  0  0  0  0  0  0  0
  -25.0080  -11.3900   20.5720 C   0  0  0  0  0  0  0  0  0  0  0  0
  -26.7020  -12.5570   19.9770 N   0  0  0  0  0  0  0  0  0  0  0  0
  -26.3030  -11.3000   20.2970 N   0  0  0  0  0  0  0  0  0  0  0  0
  -24.2420  -10.1590   20.8030 C   0  0  0  0  0  0  0  0  0  0  0  0
  -24.6150   -9.2340   21.8020 C   0  0  0  0  0  3  0  0  0  0  0  0
  -23.8520   -8.0650   22.0160 C   0  0  0  0  0  3  0  0  0  0  0  0
  -22.7020   -7.8150   21.2300 C   0  0  0  0  0  0  0  0  0  0  0  0
  -22.3510   -8.7260   20.2190 C   0  0  0  0  0  3  0  0  0  0  0  0
  -23.1140   -9.8860   20.0030 C   0  0  0  0  0  3  0  0  0  0  0  0
  -21.9180   -6.6940   21.3490 O   0  0  0  0  0  0  0  0  0  0  0  0
  -21.6750   -6.1100   22.5670 C   0  0  0  0  0  0  0  0  0  0  0  0
  -21.1670   -6.8490   23.6600 C   0  0  0  0  0  3  0  0  0  0  0  0
  -20.8680   -6.1970   24.8720 C   0  0  0  0  0  3  0  0  0  0  0  0
  -21.0660   -4.8090   24.9940 C   0  0  0  0  0  0  0  0  0  0  0  0
  -21.5650   -4.0700   23.9060 C   0  0  0  0  0  3  0  0  0  0  0  0
  -21.8670   -4.7190   22.6960 C   0  0  0  0  0  0  0  0  0  0  0  0
  -22.3260   -4.0000   21.6440 F   0  0  0  0  0  0  0  0  0  0  0  0
  -20.7730   -4.1800   26.1560 F   0  0  0  0  0  0  0  0  0  0  0  0
  -23.1960  -13.2800   20.7520 C   0  0  0  0  0  0  0  0  0  0  0  0
  -22.4510  -12.6730   21.6700 N   0  0  0  0  0  0  0  0  0  0  0  0
  -22.7820  -14.2670   20.1440 O   0  0  0  0  0  0  0  0  0  0  0  0
  -22.7980  -11.8740   22.1770 H   0  0  0  0  0  0  0  0  0  0  0  0
  -21.5200  -13.0110   21.8650 H   0  0  0  0  0  0  0  0  0  0  0  0
  -25.8810  -14.8270   19.8820 N   0  0  0  0  0  0  0  0  0  0  0  0
  -25.1240  -15.5000   19.9200 H   0  0  0  0  0  0  0  0  0  0  0  0
  -26.7340  -15.2140   19.5010 H   0  0  0  0  0  0  0  0  0  0  0  0
  -27.3140  -22.5310   18.0510 C   0  0  0  0  0  1  0  0  0  0  0  0
  -27.7880  -22.1400   19.3340 O   0  0  0  0  0  0  0  0  0  0  0  0
  -30.5750  -21.4930   19.3240 C   0  0  0  0  0  2  0  0  0  0  0  0
  -30.3610  -22.6300   20.2860 N   0  0  0  0  0  4  0  0  0  0  0  0
  -30.8280  -22.3890   21.1450 H   0  0  0  0  0  0  0  0  0  0  0  0
  -29.3670  -22.5970   20.4800 H   0  0  0  0  0  0  0  0  0  0  0  0
  -30.7260  -24.0390   19.8740 C   0  0  0  0  0  2  0  0  0  0  0  0
  -30.1060  -25.1500   20.8070 C   0  0  0  0  0  2  0  0  0  0  0  0
  -30.1190  -26.5400   20.3440 O   0  0  0  0  0  0  0  0  0  0  0  0
  -25.4320  -30.9810   23.5110 C   0  0  0  0  0  0  0  0  0  0  0  0
  -28.8920  -27.1930   20.3070 C   0  0  0  0  0  0  0  0  0  0  0  0
  -24.5750  -29.6430   21.6170 C   0  0  0  0  0  3  0  0  0  0  0  0
  -26.3410  -28.4450   20.2130 C   0  0  0  0  0  0  0  0  0  0  0  0
  -27.0510  -30.2990   21.7300 C   0  0  0  0  0  2  0  0  0  0  0  0
  -27.3700  -29.0230   20.9680 C   0  0  0  0  0  0  0  0  0  0  0  0
  -28.6530  -28.4090   21.0050 C   0  0  0  0  0  3  0  0  0  0  0  0
  -27.8430  -26.6490   19.5390 C   0  0  0  0  0  3  0  0  0  0  0  0
  -26.5750  -27.2600   19.4930 C   0  0  0  0  0  3  0  0  0  0  0  0
  -25.0010  -29.1480   20.2100 C   0  0  0  0  0  2  0  0  0  0  0  0
  -25.6970  -30.3190   22.3470 N   0  0  0  0  0  0  0  0  0  0  0  0
  -24.2780  -31.0630   23.9550 O   0  0  0  0  0  0  0  0  0  0  0  0
  -23.9670  -28.4540   22.4000 C   0  0  0  0  0  0  0  0  0  0  0  0
  -22.6980  -28.1250   22.1010 N   0  0  0  0  0  0  0  0  0  0  0  0
  -24.6350  -27.8360   23.2290 O   0  0  0  0  0  0  0  0  0  0  0  0
  -22.2160  -28.6820   21.4110 H   0  0  0  0  0  0  0  0  0  0  0  0
  -19.4900  -26.4600   22.0820 C   0  0  0  0  0  0  0  0  0  0  0  0
  -21.9410  -27.0180   22.6810 C   0  0  0  0  0  3  0  0  0  0  0  0
  -22.3040  -25.6760   22.0030 C   0  0  0  0  0  2  0  0  0  0  0  0
  -21.3750  -25.3190   20.8400 C   0  0  0  0  0  2  0  0  0  0  0  0
  -19.9250  -25.2190   21.3180 C   0  0  0  0  0  2  0  0  0  0  0  0
  -20.4370  -27.3110   22.7080 C   0  0  0  0  0  0  0  0  0  0  0  0
  -19.9800  -28.4700   23.3760 C   0  0  0  0  0  3  0  0  0  0  0  0
  -18.6090  -28.7780   23.4220 C   0  0  0  0  0  3  0  0  0  0  0  0
  -17.6730  -27.9230   22.8130 C   0  0  0  0  0  3  0  0  0  0  0  0
  -18.1150  -26.7650   22.1480 C   0  0  0  0  0  3  0  0  0  0  0  0
  -26.5600  -31.6850   24.3260 C   0  0  0  0  0  3  0  0  0  0  0  0
  -26.1040  -33.0500   24.6250 N   0  0  0  0  0  0  0  0  0  0  0  0
  -26.4770  -34.1430   23.9450 C   0  0  0  0  0  0  0  0  0  0  0  0
  -27.3060  -34.1120   23.0320 O   0  0  0  0  0  0  0  0  0  0  0  0
  -25.3780  -33.1420   25.3210 H   0  0  0  0  0  0  0  0  0  0  0  0
  -24.7060  -35.8250   23.3460 C   0  0  0  0  0  1  0  0  0  0  0  0
  -25.8270  -35.4830   24.3400 C   0  0  0  0  0  3  0  0  0  0  0  0
  -27.7420  -36.4780   25.5120 C   0  0  0  0  0  1  0  0  0  0  0  0
  -26.7890  -36.6040   24.4120 N   0  0  0  0  0  0  0  0  0  0  0  0
  -26.3030  -37.4910   24.5120 H   0  0  0  0  0  0  0  0  0  0  0  0
  -26.9380  -30.9200   25.6550 C   0  0  1  0  0  0  0  0  0  0  0  0
  -25.7220  -30.5850   26.5500 C   0  0  0  0  0  1  0  0  0  0  0  0
  -27.6660  -29.5940   25.3330 C   0  0  0  0  0  1  0  0  0  0  0  0
  -27.9250  -31.7740   26.4850 C   0  0  0  0  0  1  0  0  0  0  0  0
  1  5  2  0
  1  3  1  0
  2  4  1  0
  3  4  2  0
  4  7  1  0
  5  6  1  0
  6  2  2  0
  7  8  1  0
  9  8  1  0
 10 19  1  0
 10  3  1  0
 10  9  1  0
 11 17  1  0
 12 17  1  0
 13 14  1  0
 13 12  1  0
 15 14  1  0
 15 24  1  0
 15 16  1  0
 17 16  1  0
 18 11  2  0
 19 11  1  0
 20 19  1  0
 21 22  2  0
 22 23  1  0
 22 41  1  0
 23 26  1  0
 24 21  1  0
 24 25  1  0
 25 23  2  0
 26 27  1  0
 27 28  2  0
 29 32  1  0
 29 28  1  0
 30 29  2  0
 31 30  1  0
 31 26  2  0
 32 33  1  0
 33 38  2  0
 33 34  1  0
 34 35  2  0
 35 36  1  0
 36 40  1  0
 37 36  2  0
 38 37  1  0
 39 38  1  0
 41 42  1  0
 42 45  1  0
 42 44  1  0
 43 41  2  0
 46 47  1  0
 46 21  1  0
 48 46  1  0
 49 50  1  0
 50  6  1  0
 51  5  1  0
 51 52  1  0
 52 54  1  0
 52 53  1  0
 55 52  1  0
 55 56  1  0
 57 56  1  0
 58 69  2  0
 59 57  1  0
 59 64  1  0
 60 68  1  0
 60 70  1  0
 61 63  1  0
 62 68  1  0
 63 64  2  0
 63 62  1  0
 65 59  2  0
 66 65  1  0
 66 61  2  0
 67 61  1  0
 67 60  1  0
 68 58  1  0
 70 72  2  0
 71 70  1  0
 73 71  1  0
 74 83  2  0
 74 79  1  0
 75 71  1  0
 75 79  1  0
 76 75  1  0
 77 78  1  0
 77 76  1  0
 78 74  1  0
 79 80  2  0
 80 81  1  0
 82 81  2  0
 83 82  1  0
 84 58  1  0
 84 85  1  0
 84 94  1  0
 85 88  1  0
 86 90  1  0
 86 85  1  0
 87 86  2  0
 90 89  1  0
 90 92  1  0
 92 93  1  0
 92 91  1  0
 94 97  1  1
 94 95  1  0
 96 94  1  0
M  ISO  4  11 100  19 100  56 101  57 101
M  END
>  <TORSDO>  (69) 
F 21

>  <SCORE>  (69) 
-9.570

>  <name>  (69) 
69

>  <ligand_id>  (69) 
69

>  <original_smiles>  (69) 
[H]c1c([H])c([H])c2c(c1[H])C([H])([H])C([H])([H])C([H])([H])C2([H])N([H])C(=O)C1([H])N(C(=O)C([H])(N([H])C(=O)C([H])(N([H])C([H])([H])[H])C([H])([H])[H])C(C([H])([H])[H])(C([H])([H])[H])C([H])([H])[H])C([H])([H])c2c([H])c(OC([H])([H])C([H])([H])[N+]([H])([H])C([H])([H])c3c([H])c4c(c([H])c3OC([H])([H])[H])C([H])([H])C([H])([H])C([H])([H])C4([H])N([H])C(=O)N3C([H])([H])C([H])([H])C([H])([H])C([H])(n4nc(-c5c([H])c([H])c(Oc6c([H])c([H])c(F)c([H])c6F)c([H])c5[H])c(C(=O)N([H])[H])c4N([H])[H])C3([H])[H])c([H])c([H])c2C1([H])[H]

>  <smiles>  (69) 
[H]c1c([H])c([H])c2c(c1[H])C([H])([H])C([H])([H])C([H])([H])C2([H])N([H])C(=O)C1([H])N(C(=O)C([H])(N([H])C(=O)C([H])(N([H])C([H])([H])[H])C([H])([H])[H])C(C([H])([H])[H])(C([H])([H])[H])C([H])([H])[H])C([H])([H])c2c([H])c(OC([H])([H])C([H])([H])[N+]([H])([H])C([H])([H])c3c([H])c4c(c([H])c3OC([H])([H])[H])C([H])([H])C([H])([H])C([H])([H])C4([H])N([H])C(=O)N3C([H])([H])C([H])([H])C([H])([H])C([H])(n4nc(-c5c([H])c([H])c(Oc6c([H])c([H])c(F)c([H])c6F)c([H])c5[H])c(C(=O)N([H])[H])c4N([H])[H])C3([H])[H])c([H])c([H])c2C1([H])[H]

$$$$
70:0:0
     RDKit          3D

 95104  0  0  1  0  0  0  0  0999 V2000
  -29.7920  -20.8530   21.9770 C   0  0  0  0  0  3  0  0  0  0  0  0
  -29.7000  -20.9050   19.5740 C   0  0  0  0  0  3  0  0  0  0  0  0
  -29.5810  -23.0330   20.8260 C   0  0  0  0  0  0  0  0  0  0  0  0
  -29.6930  -22.2650   22.0250 C   0  0  0  0  0  0  0  0  0  0  0  0
  -29.8130  -20.1320   20.7610 C   0  0  0  0  0  0  0  0  0  0  0  0
  -29.5770  -22.3270   19.5910 C   0  0  0  0  0  0  0  0  0  0  0  0
  -29.7120  -22.9120   23.4050 C   0  0  0  0  0  1  0  0  0  0  0  0
  -30.7860  -14.6180   20.1300 C   0  0  0  0  0  0  0  0  0  0  0  0
  -30.3820  -12.4620   18.9890 C   0  0  0  0  0  2  0  0  0  0  0  0
  -29.3850  -12.6640   17.8310 C   0  0  0  0  0  2  0  0  0  0  0  0
  -27.9390  -12.4990   18.3390 C   0  0  0  0  0  2  0  0  0  0  0  0
  -27.6560  -13.3300   19.6180 C   0  0  0  0  0  3  0  0  0  0  0  0
  -28.7760  -13.1650   20.6710 C   0  0  0  0  0  2  0  0  0  0  0  0
  -30.0620  -13.4640   20.0220 N   0  0  0  0  0  0  0  0  0  0  0  0
  -31.9260  -14.7100   19.6670 O   0  0  0  0  0  0  0  0  0  0  0  0
  -30.3260  -17.9430   21.9330 C   0  0  0  0  0  2  0  0  0  0  0  0
  -29.6080  -17.9270   19.5480 C   0  0  0  0  0  2  0  0  0  0  0  0
  -30.9750  -16.5720   21.5970 C   0  0  0  0  0  2  0  0  0  0  0  0
  -29.1960  -16.4690   19.8840 C   0  0  0  0  0  2  0  0  0  0  0  0
  -29.9530  -18.7090   20.7370 N   0  0  0  0  0  0  0  0  0  0  0  0
  -30.1880  -15.7130   20.6820 N   0  0  0  0  0  0  0  0  0  0  0  0
  -25.3160  -13.9340   20.4880 C   0  0  0  0  0  0  0  0  0  0  0  0
  -24.2630  -13.1590   20.8890 C   0  0  0  0  0  0  0  0  0  0  0  0
  -24.7080  -11.8040   20.7890 C   0  0  0  0  0  0  0  0  0  0  0  0
  -26.3360  -13.0490   20.1690 N   0  0  0  0  0  0  0  0  0  0  0  0
  -25.9790  -11.7630   20.4100 N   0  0  0  0  0  0  0  0  0  0  0  0
  -23.9790  -10.5460   20.9790 C   0  0  0  0  0  0  0  0  0  0  0  0
  -24.4260   -9.5680   21.8950 C   0  0  0  0  0  3  0  0  0  0  0  0
  -23.7020   -8.3680   22.0700 C   0  0  0  0  0  3  0  0  0  0  0  0
  -22.5160   -8.1420   21.3300 C   0  0  0  0  0  0  0  0  0  0  0  0
  -22.0890   -9.1090   20.4030 C   0  0  0  0  0  3  0  0  0  0  0  0
  -22.8140  -10.2990   20.2260 C   0  0  0  0  0  3  0  0  0  0  0  0
  -21.7600   -6.9980   21.4170 O   0  0  0  0  0  0  0  0  0  0  0  0
  -21.6890   -6.2700   22.5760 C   0  0  0  0  0  0  0  0  0  0  0  0
  -21.1940   -6.8250   23.7770 C   0  0  0  0  0  3  0  0  0  0  0  0
  -21.0740   -6.0210   24.9270 C   0  0  0  0  0  3  0  0  0  0  0  0
  -21.4390   -4.6620   24.8780 C   0  0  0  0  0  0  0  0  0  0  0  0
  -21.9270   -4.1060   23.6820 C   0  0  0  0  0  3  0  0  0  0  0  0
  -22.0490   -4.9080   22.5340 C   0  0  0  0  0  0  0  0  0  0  0  0
  -22.5010   -4.3630   21.3790 F   0  0  0  0  0  0  0  0  0  0  0  0
  -21.3160   -3.8860   25.9820 F   0  0  0  0  0  0  0  0  0  0  0  0
  -22.8880  -13.6410   21.2510 C   0  0  0  0  0  0  0  0  0  0  0  0
  -22.1980  -12.9240   22.1310 N   0  0  0  0  0  0  0  0  0  0  0  0
  -22.4350  -14.6880   20.7890 O   0  0  0  0  0  0  0  0  0  0  0  0
  -22.5720  -12.0730   22.5260 H   0  0  0  0  0  0  0  0  0  0  0  0
  -21.2800  -13.2320   22.4160 H   0  0  0  0  0  0  0  0  0  0  0  0
  -25.4830  -15.3080   20.3450 N   0  0  0  0  0  0  0  0  0  0  0  0
  -24.7290  -15.9620   20.5140 H   0  0  0  0  0  0  0  0  0  0  0  0
  -26.3180  -15.7510   19.9870 H   0  0  0  0  0  0  0  0  0  0  0  0
  -29.5800  -24.5530   20.8640 C   0  0  0  0  0  0  0  0  0  0  0  0
  -30.4110  -25.1910   21.5230 O   0  0  0  0  0  0  0  0  0  0  0  0
  -28.4730  -25.3360   20.1090 C   0  0  0  0  0  2  0  0  0  0  0  0
  -28.5500  -26.7610   20.3630 O   0  0  0  0  0  0  0  0  0  0  0  0
  -24.6800  -31.9420   23.3500 C   0  0  0  0  0  0  0  0  0  0  0  0
  -27.3760  -27.4950   20.3030 C   0  0  0  0  0  0  0  0  0  0  0  0
  -23.5000  -30.5390   21.6930 C   0  0  0  0  0  3  0  0  0  0  0  0
  -24.9760  -29.0090   20.2800 C   0  0  0  0  0  0  0  0  0  0  0  0
  -26.0280  -30.9050   21.5240 C   0  0  0  0  0  2  0  0  0  0  0  0
  -26.1270  -29.5340   20.8810 C   0  0  0  0  0  0  0  0  0  0  0  0
  -27.3280  -28.7860   20.8850 C   0  0  0  0  0  3  0  0  0  0  0  0
  -26.2080  -26.9960   19.6820 C   0  0  0  0  0  3  0  0  0  0  0  0
  -25.0130  -27.7420   19.6750 C   0  0  0  0  0  3  0  0  0  0  0  0
  -23.7280  -29.8630   20.3140 C   0  0  0  0  0  2  0  0  0  0  0  0
  -24.7540  -31.1430   22.2470 N   0  0  0  0  0  0  0  0  0  0  0  0
  -23.5920  -32.2080   23.8770 O   0  0  0  0  0  0  0  0  0  0  0  0
  -22.8420  -29.5110   22.6430 C   0  0  0  0  0  0  0  0  0  0  0  0
  -21.5210  -29.3150   22.4930 N   0  0  0  0  0  0  0  0  0  0  0  0
  -23.5180  -28.8930   23.4700 O   0  0  0  0  0  0  0  0  0  0  0  0
  -21.0380  -29.8680   21.7990 H   0  0  0  0  0  0  0  0  0  0  0  0
  -18.1470  -28.1000   22.9410 C   0  0  0  0  0  0  0  0  0  0  0  0
  -20.7000  -28.3710   23.2510 C   0  0  0  0  0  3  0  0  0  0  0  0
  -20.8180  -26.9420   22.6710 C   0  0  0  0  0  2  0  0  0  0  0  0
  -19.7320  -26.6160   21.6400 C   0  0  0  0  0  2  0  0  0  0  0  0
  -18.3410  -26.7520   22.2650 C   0  0  0  0  0  2  0  0  0  0  0  0
  -19.2570  -28.8650   23.3890 C   0  0  0  0  0  0  0  0  0  0  0  0
  -19.0230  -30.1270   23.9780 C   0  0  0  0  0  3  0  0  0  0  0  0
  -17.7130  -30.6220   24.1250 C   0  0  0  0  0  3  0  0  0  0  0  0
  -16.6190  -29.8520   23.6970 C   0  0  0  0  0  3  0  0  0  0  0  0
  -16.8370  -28.5920   23.1100 C   0  0  0  0  0  3  0  0  0  0  0  0
  -25.9560  -32.5780   23.9860 C   0  0  0  0  0  3  0  0  0  0  0  0
  -26.4460  -31.8240   25.2830 C   0  0  1  0  0  0  0  0  0  0  0  0
  -25.3300  -31.5980   26.3300 C   0  0  0  0  0  1  0  0  0  0  0  0
  -27.0400  -30.4420   24.9180 C   0  0  0  0  0  1  0  0  0  0  0  0
  -27.5800  -32.6290   25.9610 C   0  0  0  0  0  1  0  0  0  0  0  0
  -25.6470  -33.9820   24.2880 N   0  0  0  0  0  0  0  0  0  0  0  0
  -25.9640  -35.0170   23.4990 C   0  0  0  0  0  0  0  0  0  0  0  0
  -26.6180  -34.8920   22.4600 O   0  0  0  0  0  0  0  0  0  0  0  0
  -25.0640  -34.1540   25.0950 H   0  0  0  0  0  0  0  0  0  0  0  0
  -24.2070  -36.7800   23.1460 C   0  0  0  0  0  1  0  0  0  0  0  0
  -25.4760  -36.4140   23.9300 C   0  0  0  0  0  3  0  0  0  0  0  0
  -27.6210  -37.3470   24.6740 C   0  0  0  0  0  1  0  0  0  0  0  0
  -26.4930  -37.4740   23.7550 N   0  0  0  0  0  0  0  0  0  0  0  0
  -26.0810  -38.3940   23.8850 H   0  0  0  0  0  0  0  0  0  0  0  0
  -29.1570  -22.4150   17.2180 C   0  0  0  0  0  1  0  0  0  0  0  0
  -29.4980  -23.0730   18.4310 O   0  0  0  0  0  0  0  0  0  0  0  0
  1  4  1  0
  2  6  2  0
  2  5  1  0
  3 50  1  0
  3  4  2  0
  4  7  1  0
  5  1  2  0
  6  3  1  0
  8 21  1  0
  9 14  1  0
 10 11  1  0
 10  9  1  0
 12 11  1  0
 12 25  1  0
 12 13  1  0
 14  8  1  0
 14 13  1  0
 15  8  2  0
 17 19  1  0
 17 20  1  0
 18 16  1  0
 19 21  1  0
 20  5  1  0
 20 16  1  0
 21 18  1  0
 22 23  2  0
 23 42  1  0
 24 23  1  0
 24 27  1  0
 25 26  1  0
 25 22  1  0
 26 24  2  0
 27 28  1  0
 28 29  2  0
 30 33  1  0
 30 29  1  0
 31 30  2  0
 32 31  1  0
 32 27  2  0
 33 34  1  0
 34 35  1  0
 35 36  2  0
 37 36  1  0
 37 41  1  0
 38 37  2  0
 39 34  2  0
 39 38  1  0
 40 39  1  0
 42 43  1  0
 43 46  1  0
 43 45  1  0
 44 42  2  0
 47 22  1  0
 47 48  1  0
 49 47  1  0
 50 51  2  0
 52 53  1  0
 52 50  1  0
 54 65  2  0
 55 53  1  0
 55 60  1  0
 56 64  1  0
 56 66  1  0
 57 63  1  0
 57 59  1  0
 58 64  1  0
 59 60  2  0
 59 58  1  0
 61 55  2  0
 62 61  1  0
 62 57  2  0
 63 56  1  0
 64 54  1  0
 66 68  2  0
 67 66  1  0
 69 67  1  0
 70 79  2  0
 70 75  1  0
 71 67  1  0
 71 75  1  0
 72 71  1  0
 73 74  1  0
 73 72  1  0
 74 70  1  0
 75 76  2  0
 76 77  1  0
 78 77  2  0
 79 78  1  0
 80 54  1  0
 80 85  1  0
 80 81  1  0
 81 84  1  1
 81 82  1  0
 83 81  1  0
 85 88  1  0
 86 90  1  0
 86 85  1  0
 87 86  2  0
 90 89  1  0
 92 93  1  0
 92 90  1  0
 92 91  1  0
 94 95  1  0
 95  6  1  0
M  ISO  4   8 100  21 100  52 101  53 101
M  END
>  <TORSDO>  (70) 
F 19

>  <SCORE>  (70) 
-14.476

>  <name>  (70) 
70

>  <ligand_id>  (70) 
70

>  <original_smiles>  (70) 
[H]c1c([H])c([H])c2c(c1[H])C([H])([H])C([H])([H])C([H])([H])C2([H])N([H])C(=O)C1([H])N(C(=O)C([H])(N([H])C(=O)C([H])(N([H])C([H])([H])[H])C([H])([H])[H])C(C([H])([H])[H])(C([H])([H])[H])C([H])([H])[H])C([H])([H])c2c([H])c(OC([H])([H])C(=O)c3c(OC([H])([H])[H])c([H])c(N4C([H])([H])C([H])([H])N(C(=O)N5C([H])([H])C([H])([H])C([H])([H])C([H])(n6nc(-c7c([H])c([H])c(Oc8c([H])c([H])c(F)c([H])c8F)c([H])c7[H])c(C(=O)N([H])[H])c6N([H])[H])C5([H])[H])C([H])([H])C4([H])[H])c([H])c3C([H])([H])[H])c([H])c([H])c2C1([H])[H]

>  <smiles>  (70) 
[H]c1c([H])c([H])c2c(c1[H])C([H])([H])C([H])([H])C([H])([H])C2([H])N([H])C(=O)C1([H])N(C(=O)C([H])(N([H])C(=O)C([H])(N([H])C([H])([H])[H])C([H])([H])[H])C(C([H])([H])[H])(C([H])([H])[H])C([H])([H])[H])C([H])([H])c2c([H])c(OC([H])([H])C(=O)c3c(OC([H])([H])[H])c([H])c(N4C([H])([H])C([H])([H])N(C(=O)N5C([H])([H])C([H])([H])C([H])([H])C([H])(n6nc(-c7c([H])c([H])c(Oc8c([H])c([H])c(F)c([H])c8F)c([H])c7[H])c(C(=O)N([H])[H])c6N([H])[H])C5([H])[H])C([H])([H])C4([H])[H])c([H])c3C([H])([H])[H])c([H])c([H])c2C1([H])[H]

$$$$
71:0:0
     RDKit          3D

 91100  0  0  1  0  0  0  0  0999 V2000
  -29.5000  -19.3890   21.3990 C   0  0  0  0  0  3  0  0  0  0  0  0
  -30.4920  -19.1160   19.2410 C   0  0  0  0  0  3  0  0  0  0  0  0
  -30.1830  -18.5370   20.4930 C   0  0  0  0  0  0  0  0  0  0  0  0
  -29.1850  -20.7330   21.0460 C   0  0  0  0  0  0  0  0  0  0  0  0
  -29.5690  -21.2290   19.7750 C   0  0  0  0  0  0  0  0  0  0  0  0
  -30.1970  -20.4010   18.8940 N   0  0  0  0  0  0  0  0  0  0  0  0
  -28.3460  -21.7370   22.1740 Cl  0  0  0  0  0  0  0  0  0  0  0  0
  -30.3880  -23.5950   18.9430 C   0  0  0  0  0  2  0  0  0  0  0  0
  -29.2490  -22.6370   19.2080 C   0  0  0  0  0  3  0  0  0  0  0  0
  -29.2890  -24.0590   19.8660 C   0  0  0  0  0  3  0  0  0  0  0  0
  -28.2900  -25.1660   19.4120 C   0  0  0  0  0  2  0  0  0  0  0  0
  -28.4790  -26.5910   19.7460 O   0  0  0  0  0  0  0  0  0  0  0  0
  -24.5470  -31.6420   23.0570 C   0  0  0  0  0  0  0  0  0  0  0  0
  -27.3270  -27.3940   19.7330 C   0  0  0  0  0  0  0  0  0  0  0  0
  -23.3920  -30.2880   21.3470 C   0  0  0  0  0  3  0  0  0  0  0  0
  -24.8960  -28.8940   19.8280 C   0  0  0  0  0  0  0  0  0  0  0  0
  -25.9140  -30.7270   21.1740 C   0  0  0  0  0  2  0  0  0  0  0  0
  -26.0470  -29.3950   20.4500 C   0  0  0  0  0  0  0  0  0  0  0  0
  -27.2650  -28.6560   20.3990 C   0  0  0  0  0  3  0  0  0  0  0  0
  -26.1500  -26.9540   19.0810 C   0  0  0  0  0  3  0  0  0  0  0  0
  -24.9490  -27.6780   19.1360 C   0  0  0  0  0  3  0  0  0  0  0  0
  -23.6250  -29.7080   19.9290 C   0  0  0  0  0  2  0  0  0  0  0  0
  -24.6360  -30.9000   21.9170 N   0  0  0  0  0  0  0  0  0  0  0  0
  -23.4560  -31.8440   23.6110 O   0  0  0  0  0  0  0  0  0  0  0  0
  -22.7820  -29.1900   22.2480 C   0  0  0  0  0  0  0  0  0  0  0  0
  -21.4600  -28.9740   22.1280 N   0  0  0  0  0  0  0  0  0  0  0  0
  -23.4940  -28.5370   23.0160 O   0  0  0  0  0  0  0  0  0  0  0  0
  -20.9450  -29.5560   21.4830 H   0  0  0  0  0  0  0  0  0  0  0  0
  -18.1230  -27.6730   22.6320 C   0  0  0  0  0  0  0  0  0  0  0  0
  -20.6830  -27.9650   22.8490 C   0  0  0  0  0  3  0  0  0  0  0  0
  -20.7970  -26.5820   22.1660 C   0  0  0  0  0  2  0  0  0  0  0  0
  -19.6720  -26.3120   21.1630 C   0  0  0  0  0  2  0  0  0  0  0  0
  -18.3060  -26.3790   21.8550 C   0  0  0  0  0  2  0  0  0  0  0  0
  -19.2400  -28.4250   23.0840 C   0  0  0  0  0  0  0  0  0  0  0  0
  -19.0150  -29.6370   23.7730 C   0  0  0  0  0  3  0  0  0  0  0  0
  -17.7070  -30.0970   24.0120 C   0  0  0  0  0  3  0  0  0  0  0  0
  -16.6060  -29.3410   23.5750 C   0  0  0  0  0  3  0  0  0  0  0  0
  -16.8150  -28.1300   22.8910 C   0  0  0  0  0  3  0  0  0  0  0  0
  -25.8070  -32.2910   23.7080 C   0  0  0  0  0  3  0  0  0  0  0  0
  -26.3360  -31.4960   24.9640 C   0  0  1  0  0  0  0  0  0  0  0  0
  -25.2420  -31.2000   26.0170 C   0  0  0  0  0  1  0  0  0  0  0  0
  -26.9570  -30.1460   24.5370 C   0  0  0  0  0  1  0  0  0  0  0  0
  -27.4610  -32.3000   25.6570 C   0  0  0  0  0  1  0  0  0  0  0  0
  -25.4550  -33.6690   24.0780 N   0  0  0  0  0  0  0  0  0  0  0  0
  -25.7360  -34.7520   23.3410 C   0  0  0  0  0  0  0  0  0  0  0  0
  -26.3940  -34.6970   22.2980 O   0  0  0  0  0  0  0  0  0  0  0  0
  -24.8700  -33.7830   24.8930 H   0  0  0  0  0  0  0  0  0  0  0  0
  -23.9300  -36.4810   23.0710 C   0  0  0  0  0  1  0  0  0  0  0  0
  -25.2070  -36.1100   23.8410 C   0  0  0  0  0  3  0  0  0  0  0  0
  -27.3210  -37.0680   24.6440 C   0  0  0  0  0  1  0  0  0  0  0  0
  -26.1940  -37.2060   23.7240 N   0  0  0  0  0  0  0  0  0  0  0  0
  -25.7540  -38.1060   23.8930 H   0  0  0  0  0  0  0  0  0  0  0  0
  -30.7830  -17.1590   20.9340 C   0  0  0  0  0  2  0  0  0  0  0  0
  -30.7920  -14.7260   20.2020 C   0  0  0  0  0  0  0  0  0  0  0  0
  -30.4630  -12.5170   19.1230 C   0  0  0  0  0  2  0  0  0  0  0  0
  -29.4930  -12.6540   17.9320 C   0  0  0  0  0  2  0  0  0  0  0  0
  -28.0340  -12.5090   18.4040 C   0  0  0  0  0  2  0  0  0  0  0  0
  -27.7160  -13.3790   19.6500 C   0  0  0  0  0  3  0  0  0  0  0  0
  -28.8050  -13.2420   20.7380 C   0  0  0  0  0  2  0  0  0  0  0  0
  -30.0970  -13.5500   20.1120 N   0  0  0  0  0  0  0  0  0  0  0  0
  -31.9450  -14.8150   19.7760 O   0  0  0  0  0  0  0  0  0  0  0  0
  -30.1320  -15.8430   20.6300 N   0  0  0  0  0  0  0  0  0  0  0  0
  -29.1700  -15.7230   20.9090 H   0  0  0  0  0  0  0  0  0  0  0  0
  -25.3530  -13.9790   20.4590 C   0  0  0  0  0  0  0  0  0  0  0  0
  -24.2920  -13.2070   20.8450 C   0  0  0  0  0  0  0  0  0  0  0  0
  -24.7420  -11.8530   20.7720 C   0  0  0  0  0  0  0  0  0  0  0  0
  -26.3830  -13.0970   20.1740 N   0  0  0  0  0  0  0  0  0  0  0  0
  -26.0220  -11.8110   20.4240 N   0  0  0  0  0  0  0  0  0  0  0  0
  -24.0090  -10.5940   20.9580 C   0  0  0  0  0  0  0  0  0  0  0  0
  -24.4510   -9.6080   21.8680 C   0  0  0  0  0  3  0  0  0  0  0  0
  -23.7200   -8.4150   22.0420 C   0  0  0  0  0  3  0  0  0  0  0  0
  -22.5310   -8.1960   21.3060 C   0  0  0  0  0  0  0  0  0  0  0  0
  -22.1070   -9.1700   20.3840 C   0  0  0  0  0  3  0  0  0  0  0  0
  -22.8390  -10.3560   20.2070 C   0  0  0  0  0  3  0  0  0  0  0  0
  -21.7690   -7.0560   21.3920 O   0  0  0  0  0  0  0  0  0  0  0  0
  -21.7270   -6.3020   22.5370 C   0  0  0  0  0  0  0  0  0  0  0  0
  -21.2820   -6.8360   23.7650 C   0  0  0  0  0  3  0  0  0  0  0  0
  -21.1900   -6.0070   24.9010 C   0  0  0  0  0  3  0  0  0  0  0  0
  -21.5320   -4.6460   24.8100 C   0  0  0  0  0  0  0  0  0  0  0  0
  -21.9710   -4.1100   23.5860 C   0  0  0  0  0  3  0  0  0  0  0  0
  -22.0650   -4.9350   22.4520 C   0  0  0  0  0  0  0  0  0  0  0  0
  -22.4680   -4.4100   21.2700 F   0  0  0  0  0  0  0  0  0  0  0  0
  -21.4370   -3.8470   25.8980 F   0  0  0  0  0  0  0  0  0  0  0  0
  -22.9080  -13.6910   21.1690 C   0  0  0  0  0  0  0  0  0  0  0  0
  -22.2010  -12.9840   22.0430 N   0  0  0  0  0  0  0  0  0  0  0  0
  -22.4640  -14.7290   20.6810 O   0  0  0  0  0  0  0  0  0  0  0  0
  -22.5750  -12.1440   22.4590 H   0  0  0  0  0  0  0  0  0  0  0  0
  -21.2740  -13.2890   22.3030 H   0  0  0  0  0  0  0  0  0  0  0  0
  -25.5240  -15.3530   20.3050 N   0  0  0  0  0  0  0  0  0  0  0  0
  -24.7670  -16.0110   20.4530 H   0  0  0  0  0  0  0  0  0  0  0  0
  -26.3640  -15.7920   19.9490 H   0  0  0  0  0  0  0  0  0  0  0  0
  2  3  1  0
  3 53  1  0
  3  1  2  0
  4  1  1  0
  4  7  1  0
  5  4  2  0
  6  2  2  0
  6  5  1  0
  8  9  1  0
  8 10  1  0
  9  5  1  0
  9 10  1  0
 10 11  1  0
 11 12  1  0
 13 24  2  0
 14 12  1  0
 14 19  1  0
 15 23  1  0
 15 25  1  0
 16 22  1  0
 16 18  1  0
 17 23  1  0
 18 17  1  0
 19 18  2  0
 20 21  1  0
 20 14  2  0
 21 16  2  0
 22 15  1  0
 23 13  1  0
 25 27  2  0
 26 25  1  0
 28 26  1  0
 29 38  2  0
 29 34  1  0
 30 26  1  0
 30 34  1  0
 31 30  1  0
 32 33  1  0
 32 31  1  0
 33 29  1  0
 34 35  2  0
 35 36  1  0
 37 36  2  0
 38 37  1  0
 39 13  1  0
 39 44  1  0
 39 40  1  0
 40 43  1  1
 40 41  1  0
 42 40  1  0
 44 47  1  0
 45 49  1  0
 45 44  1  0
 46 45  2  0
 49 48  1  0
 51 49  1  0
 51 52  1  0
 51 50  1  0
 54 62  1  0
 55 60  1  0
 56 57  1  0
 56 55  1  0
 58 57  1  0
 58 67  1  0
 58 59  1  0
 60 54  1  0
 60 59  1  0
 61 54  2  0
 62 63  1  0
 62 53  1  0
 64 65  2  0
 65 84  1  0
 66 65  1  0
 66 69  1  0
 67 68  1  0
 67 64  1  0
 68 66  2  0
 69 70  1  0
 70 71  2  0
 72 75  1  0
 72 71  1  0
 73 72  2  0
 74 73  1  0
 74 69  2  0
 75 76  1  0
 76 77  1  0
 77 78  2  0
 79 78  1  0
 79 83  1  0
 80 79  2  0
 81 76  2  0
 81 80  1  0
 82 81  1  0
 84 85  1  0
 85 88  1  0
 85 87  1  0
 86 84  2  0
 89 90  1  0
 89 64  1  0
 91 89  1  0
M  ISO  4  11 101  12 101  54 100  62 100
M  END
>  <TORSDO>  (71) 
F 19

>  <SCORE>  (71) 
-13.352

>  <name>  (71) 
71

>  <ligand_id>  (71) 
71

>  <original_smiles>  (71) 
[H]c1nc(C2([H])C([H])([H])C2([H])C([H])([H])Oc2c([H])c([H])c3c(c2[H])C([H])([H])N(C(=O)C([H])(N([H])C(=O)C([H])(N([H])C([H])([H])[H])C([H])([H])[H])C(C([H])([H])[H])(C([H])([H])[H])C([H])([H])[H])C([H])(C(=O)N([H])C2([H])c4c([H])c([H])c([H])c([H])c4C([H])([H])C([H])([H])C2([H])[H])C3([H])[H])c(Cl)c([H])c1C([H])([H])N([H])C(=O)N1C([H])([H])C([H])([H])C([H])([H])C([H])(n2nc(-c3c([H])c([H])c(Oc4c([H])c([H])c(F)c([H])c4F)c([H])c3[H])c(C(=O)N([H])[H])c2N([H])[H])C1([H])[H]

>  <smiles>  (71) 
[H]c1nc(C2([H])C([H])([H])C2([H])C([H])([H])Oc2c([H])c([H])c3c(c2[H])C([H])([H])N(C(=O)C([H])(N([H])C(=O)C([H])(N([H])C([H])([H])[H])C([H])([H])[H])C(C([H])([H])[H])(C([H])([H])[H])C([H])([H])[H])C([H])(C(=O)N([H])C2([H])c4c([H])c([H])c([H])c([H])c4C([H])([H])C([H])([H])C2([H])[H])C3([H])[H])c(Cl)c([H])c1C([H])([H])N([H])C(=O)N1C([H])([H])C([H])([H])C([H])([H])C([H])(n2nc(-c3c([H])c([H])c(Oc4c([H])c([H])c(F)c([H])c4F)c([H])c3[H])c(C(=O)N([H])[H])c2N([H])[H])C1([H])[H]

$$$$
72:0:0
     RDKit          3D

 96105  0  0  1  0  0  0  0  0999 V2000
  -32.1830  -22.2990   20.1580 C   0  0  0  0  0  0  0  0  0  0  0  0
  -31.2080  -23.2990   19.9010 C   0  0  0  0  0  0  0  0  0  0  0  0
  -31.7630  -21.0430   20.6610 C   0  0  0  0  0  0  0  0  0  0  0  0
  -29.8320  -22.9920   20.0650 C   0  0  0  0  0  0  0  0  0  0  0  0
  -30.3820  -20.8020   20.8250 C   0  0  0  0  0  0  0  0  0  0  0  0
  -33.6660  -22.5590   19.8970 C   0  0  0  0  0  1  0  0  0  0  0  0
  -31.6480  -24.6900   19.4430 C   0  0  0  0  0  1  0  0  0  0  0  0
  -32.7920  -19.9700   21.0330 C   0  0  0  0  0  1  0  0  0  0  0  0
  -29.4500  -21.7590   20.5390 N   0  0  0  0  0  0  0  0  0  0  0  0
  -27.4960  -23.3040   19.0470 C   0  0  0  0  0  1  0  0  0  0  0  0
  -28.7300  -24.0280   19.6220 C   0  0  0  0  0  3  0  0  0  0  0  0
  -28.3450  -25.1910   20.6300 C   0  0  0  0  0  2  0  0  0  0  0  0
  -28.3970  -26.5770   20.1430 O   0  0  0  0  0  0  0  0  0  0  0  0
  -24.6240  -31.8720   23.2410 C   0  0  0  0  0  0  0  0  0  0  0  0
  -27.2390  -27.3530   20.1760 C   0  0  0  0  0  0  0  0  0  0  0  0
  -23.4100  -30.4670   21.6090 C   0  0  0  0  0  3  0  0  0  0  0  0
  -24.8560  -28.9140   20.1860 C   0  0  0  0  0  0  0  0  0  0  0  0
  -25.9430  -30.8030   21.4070 C   0  0  0  0  0  2  0  0  0  0  0  0
  -26.0220  -29.4240   20.7680 C   0  0  0  0  0  0  0  0  0  0  0  0
  -27.2180  -28.6550   20.7510 C   0  0  0  0  0  3  0  0  0  0  0  0
  -26.0520  -26.8780   19.5840 C   0  0  0  0  0  3  0  0  0  0  0  0
  -24.8690  -27.6440   19.5850 C   0  0  0  0  0  3  0  0  0  0  0  0
  -23.6150  -29.7810   20.2330 C   0  0  0  0  0  2  0  0  0  0  0  0
  -24.6770  -31.0640   22.1420 N   0  0  0  0  0  0  0  0  0  0  0  0
  -23.5450  -32.1480   23.7840 O   0  0  0  0  0  0  0  0  0  0  0  0
  -22.7560  -29.4540   22.5770 C   0  0  0  0  0  0  0  0  0  0  0  0
  -21.4300  -29.2730   22.4560 N   0  0  0  0  0  0  0  0  0  0  0  0
  -23.4400  -28.8310   23.3940 O   0  0  0  0  0  0  0  0  0  0  0  0
  -20.9380  -29.8250   21.7680 H   0  0  0  0  0  0  0  0  0  0  0  0
  -18.0570  -28.0790   22.9680 C   0  0  0  0  0  0  0  0  0  0  0  0
  -20.6150  -28.3390   23.2320 C   0  0  0  0  0  3  0  0  0  0  0  0
  -20.7170  -26.9060   22.6600 C   0  0  0  0  0  2  0  0  0  0  0  0
  -19.6130  -26.5810   21.6490 C   0  0  0  0  0  2  0  0  0  0  0  0
  -18.2330  -26.7270   22.2950 C   0  0  0  0  0  2  0  0  0  0  0  0
  -19.1760  -28.8430   23.3930 C   0  0  0  0  0  0  0  0  0  0  0  0
  -18.9590  -30.1080   23.9790 C   0  0  0  0  0  3  0  0  0  0  0  0
  -17.6540  -30.6120   24.1440 C   0  0  0  0  0  3  0  0  0  0  0  0
  -16.5500  -29.8450   23.7360 C   0  0  0  0  0  3  0  0  0  0  0  0
  -16.7510  -28.5800   23.1570 C   0  0  0  0  0  3  0  0  0  0  0  0
  -25.9110  -32.5040   23.8540 C   0  0  0  0  0  3  0  0  0  0  0  0
  -26.4390  -31.7300   25.1250 C   0  0  1  0  0  0  0  0  0  0  0  0
  -25.3530  -31.4920   26.2000 C   0  0  0  0  0  1  0  0  0  0  0  0
  -27.0180  -30.3530   24.7260 C   0  0  0  0  0  1  0  0  0  0  0  0
  -27.5950  -32.5210   25.7780 C   0  0  0  0  0  1  0  0  0  0  0  0
  -25.6050  -33.9010   24.1890 N   0  0  0  0  0  0  0  0  0  0  0  0
  -25.9340  -34.9550   23.4290 C   0  0  0  0  0  0  0  0  0  0  0  0
  -26.5980  -34.8530   22.3940 O   0  0  0  0  0  0  0  0  0  0  0  0
  -25.0150  -34.0530   24.9930 H   0  0  0  0  0  0  0  0  0  0  0  0
  -24.2030  -36.7470   23.0840 C   0  0  0  0  0  1  0  0  0  0  0  0
  -25.4480  -36.3430   23.8910 C   0  0  0  0  0  3  0  0  0  0  0  0
  -27.5870  -37.2240   24.7100 C   0  0  0  0  0  1  0  0  0  0  0  0
  -26.4800  -37.3960   23.7730 N   0  0  0  0  0  0  0  0  0  0  0  0
  -26.0750  -38.3160   23.9240 H   0  0  0  0  0  0  0  0  0  0  0  0
  -29.9460  -19.5790   21.3920 N   0  0  0  0  0  0  0  0  0  0  0  0
  -30.4710  -19.3900   22.2360 H   0  0  0  0  0  0  0  0  0  0  0  0
  -30.6640  -14.6540   20.3820 C   0  0  0  0  0  0  0  0  0  0  0  0
  -30.3730  -12.4320   19.2970 C   0  0  0  0  0  2  0  0  0  0  0  0
  -29.4260  -12.5290   18.0820 C   0  0  0  0  0  2  0  0  0  0  0  0
  -27.9610  -12.3350   18.5210 C   0  0  0  0  0  2  0  0  0  0  0  0
  -27.5930  -13.2130   19.7410 C   0  0  0  0  0  3  0  0  0  0  0  0
  -28.6660  -13.1190   20.8580 C   0  0  0  0  0  2  0  0  0  0  0  0
  -29.9610  -13.4770   20.2620 N   0  0  0  0  0  0  0  0  0  0  0  0
  -31.8580  -14.6850   20.0620 O   0  0  0  0  0  0  0  0  0  0  0  0
  -28.4860  -17.7320   20.6580 C   0  0  0  0  0  2  0  0  0  0  0  0
  -28.6780  -16.2410   20.3630 C   0  0  0  0  0  2  0  0  0  0  0  0
  -30.7520  -17.1200   21.0320 C   0  0  0  0  0  2  0  0  0  0  0  0
  -29.8720  -18.3410   20.5770 C   0  0  0  0  0  3  0  0  0  0  0  0
  -30.0380  -15.8390   20.7400 N   0  0  0  0  0  0  0  0  0  0  0  0
  -25.2050  -13.8400   20.4650 C   0  0  0  0  0  0  0  0  0  0  0  0
  -24.1380  -13.0740   20.8450 C   0  0  0  0  0  0  0  0  0  0  0  0
  -24.6020  -11.7230   20.8310 C   0  0  0  0  0  0  0  0  0  0  0  0
  -26.2490  -12.9520   20.2400 N   0  0  0  0  0  0  0  0  0  0  0  0
  -25.8910  -11.6770   20.5240 N   0  0  0  0  0  0  0  0  0  0  0  0
  -23.8770  -10.4640   21.0290 C   0  0  0  0  0  0  0  0  0  0  0  0
  -24.3220   -9.4980   21.9570 C   0  0  0  0  0  3  0  0  0  0  0  0
  -23.5970   -8.3010   22.1420 C   0  0  0  0  0  3  0  0  0  0  0  0
  -22.4170   -8.0640   21.3990 C   0  0  0  0  0  0  0  0  0  0  0  0
  -21.9930   -9.0200   20.4590 C   0  0  0  0  0  3  0  0  0  0  0  0
  -22.7180  -10.2080   20.2710 C   0  0  0  0  0  3  0  0  0  0  0  0
  -21.6630   -6.9200   21.4950 O   0  0  0  0  0  0  0  0  0  0  0  0
  -21.6400   -6.1690   22.6430 C   0  0  0  0  0  0  0  0  0  0  0  0
  -21.2540   -6.7180   23.8850 C   0  0  0  0  0  3  0  0  0  0  0  0
  -21.1780   -5.8930   25.0250 C   0  0  0  0  0  3  0  0  0  0  0  0
  -21.4780   -4.5220   24.9250 C   0  0  0  0  0  0  0  0  0  0  0  0
  -21.8580   -3.9730   23.6880 C   0  0  0  0  0  3  0  0  0  0  0  0
  -21.9360   -4.7940   22.5490 C   0  0  0  0  0  0  0  0  0  0  0  0
  -22.2830   -4.2560   21.3550 F   0  0  0  0  0  0  0  0  0  0  0  0
  -21.3960   -3.7280   26.0190 F   0  0  0  0  0  0  0  0  0  0  0  0
  -22.7400  -13.5570   21.1060 C   0  0  0  0  0  0  0  0  0  0  0  0
  -22.0080  -12.8730   21.9770 N   0  0  0  0  0  0  0  0  0  0  0  0
  -22.3060  -14.5770   20.5710 O   0  0  0  0  0  0  0  0  0  0  0  0
  -22.3730  -12.0530   22.4370 H   0  0  0  0  0  0  0  0  0  0  0  0
  -21.0680  -13.1770   22.1910 H   0  0  0  0  0  0  0  0  0  0  0  0
  -25.3540  -15.2090   20.2650 N   0  0  0  0  0  0  0  0  0  0  0  0
  -24.5740  -15.8480   20.3690 H   0  0  0  0  0  0  0  0  0  0  0  0
  -26.1870  -15.6550   19.9040 H   0  0  0  0  0  0  0  0  0  0  0  0
  1  3  1  0
  2  4  1  0
  2  1  2  0
  3  5  2  0
  3  8  1  0
  4  9  2  0
  5 54  1  0
  6  1  1  0
  7  2  1  0
  9  5  1  0
 11 10  1  0
 11  4  1  0
 11 12  1  0
 13 15  1  0
 13 12  1  0
 14 25  2  0
 15 20  1  0
 16 24  1  0
 16 26  1  0
 17 23  1  0
 17 19  1  0
 18 24  1  0
 19 18  1  0
 20 19  2  0
 21 22  1  0
 21 15  2  0
 22 17  2  0
 23 16  1  0
 24 14  1  0
 26 28  2  0
 27 26  1  0
 29 27  1  0
 30 39  2  0
 30 35  1  0
 31 27  1  0
 31 35  1  0
 32 31  1  0
 33 34  1  0
 33 32  1  0
 34 30  1  0
 35 36  2  0
 36 37  1  0
 38 37  2  0
 39 38  1  0
 40 14  1  0
 40 45  1  0
 40 41  1  0
 41 44  1  1
 41 42  1  0
 43 41  1  0
 45 48  1  0
 46 50  1  0
 46 45  1  0
 47 46  2  0
 50 49  1  0
 52 50  1  0
 52 53  1  0
 52 51  1  0
 54 55  1  0
 56 68  1  0
 57 62  1  0
 58 59  1  0
 58 57  1  0
 60 59  1  0
 60 72  1  0
 60 61  1  0
 62 56  1  0
 62 61  1  0
 63 56  2  0
 65 64  1  0
 65 68  1  0
 67 64  1  0
 67 66  1  0
 67 54  1  0
 68 66  1  0
 69 70  2  0
 70 89  1  0
 71 70  1  0
 71 74  1  0
 72 69  1  0
 72 73  1  0
 73 71  2  0
 74 75  1  0
 75 76  2  0
 77 80  1  0
 77 76  1  0
 78 77  2  0
 79 78  1  0
 79 74  2  0
 80 81  1  0
 81 82  1  0
 82 83  2  0
 84 83  1  0
 84 88  1  0
 85 84  2  0
 86 81  2  0
 86 85  1  0
 87 86  1  0
 89 90  1  0
 90 93  1  0
 90 92  1  0
 91 89  2  0
 94 95  1  0
 94 69  1  0
 96 94  1  0
M  ISO  4  12 101  13 101  56 100  68 100
M  END
>  <TORSDO>  (72) 
F 19

>  <SCORE>  (72) 
-14.684

>  <name>  (72) 
72

>  <ligand_id>  (72) 
72

>  <original_smiles>  (72) 
[H]c1c([H])c([H])c2c(c1[H])C([H])([H])C([H])([H])C([H])([H])C2([H])N([H])C(=O)C1([H])N(C(=O)C([H])(N([H])C(=O)C([H])(N([H])C([H])([H])[H])C([H])([H])[H])C(C([H])([H])[H])(C([H])([H])[H])C([H])([H])[H])C([H])([H])c2c([H])c(OC([H])([H])C([H])(c3nc(N([H])C4([H])C([H])([H])N(C(=O)N5C([H])([H])C([H])([H])C([H])([H])C([H])(n6nc(-c7c([H])c([H])c(Oc8c([H])c([H])c(F)c([H])c8F)c([H])c7[H])c(C(=O)N([H])[H])c6N([H])[H])C5([H])[H])C([H])([H])C4([H])[H])c(C([H])([H])[H])c(C([H])([H])[H])c3C([H])([H])[H])C([H])([H])[H])c([H])c([H])c2C1([H])[H]

>  <smiles>  (72) 
[H]c1c([H])c([H])c2c(c1[H])C([H])([H])C([H])([H])C([H])([H])C2([H])N([H])C(=O)C1([H])N(C(=O)C([H])(N([H])C(=O)C([H])(N([H])C([H])([H])[H])C([H])([H])[H])C(C([H])([H])[H])(C([H])([H])[H])C([H])([H])[H])C([H])([H])c2c([H])c(OC([H])([H])C([H])(c3nc(N([H])C4([H])C([H])([H])N(C(=O)N5C([H])([H])C([H])([H])C([H])([H])C([H])(n6nc(-c7c([H])c([H])c(Oc8c([H])c([H])c(F)c([H])c8F)c([H])c7[H])c(C(=O)N([H])[H])c6N([H])[H])C5([H])[H])C([H])([H])C4([H])[H])c(C([H])([H])[H])c(C([H])([H])[H])c3C([H])([H])[H])C([H])([H])[H])c([H])c([H])c2C1([H])[H]

$$$$
73:0:0
     RDKit          3D

 96106  0  0  1  0  0  0  0  0999 V2000
  -28.0840  -23.7390   18.4040 C   0  0  0  0  0  3  0  0  0  0  0  0
  -28.4540  -23.8660   19.7420 C   0  0  0  0  0  0  0  0  0  0  0  0
  -29.1050  -22.7750   20.3710 C   0  0  0  0  0  0  0  0  0  0  0  0
  -29.4370  -21.5430   19.6600 C   0  0  0  0  0  0  0  0  0  0  0  0
  -29.0370  -21.5880   18.2810 C   0  0  0  0  0  0  0  0  0  0  0  0
  -29.3650  -23.1960   21.8100 C   0  0  0  0  0  2  0  0  0  0  0  0
  -28.9890  -24.7090   21.8880 C   0  0  0  0  0  2  0  0  0  0  0  0
  -28.1110  -25.0560   20.6670 C   0  0  0  0  0  3  0  0  0  0  0  0
  -29.3510  -20.5120   17.2500 C   0  0  0  0  0  1  0  0  0  0  0  0
  -28.3710  -22.6230   17.7050 N   0  0  0  0  0  0  0  0  0  0  0  0
  -31.4420  -20.8950   21.1660 C   0  0  0  0  0  1  0  0  0  0  0  0
  -30.3720  -20.3440   20.1960 C   0  0  0  0  0  3  0  0  0  0  0  0
  -30.6040  -14.6650   20.4220 C   0  0  0  0  0  0  0  0  0  0  0  0
  -30.3460  -12.4150   19.3800 C   0  0  0  0  0  2  0  0  0  0  0  0
  -29.4030  -12.5090   18.1620 C   0  0  0  0  0  2  0  0  0  0  0  0
  -27.9340  -12.3480   18.5970 C   0  0  0  0  0  2  0  0  0  0  0  0
  -27.5720  -13.2310   19.8190 C   0  0  0  0  0  3  0  0  0  0  0  0
  -28.6370  -13.1390   20.9350 C   0  0  0  0  0  2  0  0  0  0  0  0
  -29.9360  -13.4690   20.3330 N   0  0  0  0  0  0  0  0  0  0  0  0
  -31.7890  -14.7490   20.0860 O   0  0  0  0  0  0  0  0  0  0  0  0
  -30.3300  -16.7000   21.8800 C   0  0  0  0  0  2  0  0  0  0  0  0
  -28.9920  -16.5570   19.8870 C   0  0  0  0  0  2  0  0  0  0  0  0
  -30.7880  -18.1400   21.4630 C   0  0  0  0  0  2  0  0  0  0  0  0
  -29.3770  -18.0470   19.5140 C   0  0  0  0  0  2  0  0  0  0  0  0
  -29.9070  -15.8070   20.7830 N   0  0  0  0  0  0  0  0  0  0  0  0
  -29.8270  -18.9480   20.6270 N   0  0  2  0  0  4  0  0  0  0  0  0
  -29.0260  -19.1240   21.2150 H   0  0  0  0  0  0  0  0  0  0  0  0
  -25.1950  -13.8410   20.5610 C   0  0  0  0  0  0  0  0  0  0  0  0
  -24.1250  -13.0730   20.9300 C   0  0  0  0  0  0  0  0  0  0  0  0
  -24.5780  -11.7190   20.8870 C   0  0  0  0  0  0  0  0  0  0  0  0
  -26.2310  -12.9540   20.3160 N   0  0  0  0  0  0  0  0  0  0  0  0
  -25.8670  -11.6730   20.5750 N   0  0  0  0  0  0  0  0  0  0  0  0
  -23.8430  -10.4610   21.0680 C   0  0  0  0  0  0  0  0  0  0  0  0
  -24.2690   -9.4850   21.9950 C   0  0  0  0  0  3  0  0  0  0  0  0
  -23.5360   -8.2930   22.1670 C   0  0  0  0  0  3  0  0  0  0  0  0
  -22.3620   -8.0670   21.4080 C   0  0  0  0  0  0  0  0  0  0  0  0
  -21.9560   -9.0310   20.4700 C   0  0  0  0  0  3  0  0  0  0  0  0
  -22.6900  -10.2160   20.2970 C   0  0  0  0  0  3  0  0  0  0  0  0
  -21.6000   -6.9270   21.4910 O   0  0  0  0  0  0  0  0  0  0  0  0
  -21.5410   -6.1820   22.6400 C   0  0  0  0  0  0  0  0  0  0  0  0
  -21.1010   -6.7320   23.8640 C   0  0  0  0  0  3  0  0  0  0  0  0
  -20.9890   -5.9130   25.0050 C   0  0  0  0  0  3  0  0  0  0  0  0
  -21.3060   -4.5430   24.9230 C   0  0  0  0  0  0  0  0  0  0  0  0
  -21.7380   -3.9930   23.7040 C   0  0  0  0  0  3  0  0  0  0  0  0
  -21.8510   -4.8100   22.5660 C   0  0  0  0  0  0  0  0  0  0  0  0
  -22.2480   -4.2680   21.3880 F   0  0  0  0  0  0  0  0  0  0  0  0
  -21.1910   -3.7530   26.0170 F   0  0  0  0  0  0  0  0  0  0  0  0
  -22.7320  -13.5590   21.2070 C   0  0  0  0  0  0  0  0  0  0  0  0
  -22.0020  -12.8620   22.0710 N   0  0  0  0  0  0  0  0  0  0  0  0
  -22.3000  -14.5910   20.6940 O   0  0  0  0  0  0  0  0  0  0  0  0
  -22.3640  -12.0280   22.5070 H   0  0  0  0  0  0  0  0  0  0  0  0
  -21.0660  -13.1680   22.2980 H   0  0  0  0  0  0  0  0  0  0  0  0
  -25.3670  -15.2110   20.3880 N   0  0  0  0  0  0  0  0  0  0  0  0
  -24.6050  -15.8710   20.5000 H   0  0  0  0  0  0  0  0  0  0  0  0
  -26.2110  -15.6400   20.0350 H   0  0  0  0  0  0  0  0  0  0  0  0
  -28.3140  -26.4530   20.2100 O   0  0  0  0  0  0  0  0  0  0  0  0
  -24.5760  -31.8500   23.2270 C   0  0  0  0  0  0  0  0  0  0  0  0
  -27.1970  -27.2970   20.1900 C   0  0  0  0  0  0  0  0  0  0  0  0
  -23.3750  -30.4490   21.5850 C   0  0  0  0  0  3  0  0  0  0  0  0
  -24.8300  -28.8950   20.1680 C   0  0  0  0  0  0  0  0  0  0  0  0
  -25.9130  -30.7730   21.4030 C   0  0  0  0  0  2  0  0  0  0  0  0
  -25.9960  -29.3940   20.7620 C   0  0  0  0  0  0  0  0  0  0  0  0
  -27.1870  -28.6070   20.7600 C   0  0  0  0  0  3  0  0  0  0  0  0
  -26.0100  -26.8470   19.5740 C   0  0  0  0  0  3  0  0  0  0  0  0
  -24.8380  -27.6270   19.5640 C   0  0  0  0  0  3  0  0  0  0  0  0
  -23.5920  -29.7670   20.2080 C   0  0  0  0  0  2  0  0  0  0  0  0
  -24.6400  -31.0420   22.1290 N   0  0  0  0  0  0  0  0  0  0  0  0
  -23.4920  -32.1290   23.7590 O   0  0  0  0  0  0  0  0  0  0  0  0
  -22.7110  -29.4360   22.5470 C   0  0  0  0  0  0  0  0  0  0  0  0
  -21.3830  -29.2670   22.4230 N   0  0  0  0  0  0  0  0  0  0  0  0
  -23.3870  -28.8040   23.3620 O   0  0  0  0  0  0  0  0  0  0  0  0
  -20.8960  -29.8280   21.7380 H   0  0  0  0  0  0  0  0  0  0  0  0
  -17.9980  -28.1020   22.9420 C   0  0  0  0  0  0  0  0  0  0  0  0
  -20.5610  -28.3320   23.1930 C   0  0  0  0  0  3  0  0  0  0  0  0
  -20.6420  -26.9030   22.6080 C   0  0  0  0  0  2  0  0  0  0  0  0
  -19.5290  -26.5990   21.6000 C   0  0  0  0  0  2  0  0  0  0  0  0
  -18.1540  -26.7550   22.2550 C   0  0  0  0  0  2  0  0  0  0  0  0
  -19.1280  -28.8490   23.3670 C   0  0  0  0  0  0  0  0  0  0  0  0
  -18.9260  -30.1110   23.9680 C   0  0  0  0  0  3  0  0  0  0  0  0
  -17.6280  -30.6240   24.1480 C   0  0  0  0  0  3  0  0  0  0  0  0
  -16.5130  -29.8740   23.7380 C   0  0  0  0  0  3  0  0  0  0  0  0
  -16.6980  -28.6150   23.1400 C   0  0  0  0  0  3  0  0  0  0  0  0
  -25.8580  -32.4830   23.8520 C   0  0  0  0  0  3  0  0  0  0  0  0
  -25.5490  -33.8820   24.1800 N   0  0  0  0  0  0  0  0  0  0  0  0
  -25.8810  -34.9340   23.4190 C   0  0  0  0  0  0  0  0  0  0  0  0
  -26.5510  -34.8290   22.3880 O   0  0  0  0  0  0  0  0  0  0  0  0
  -24.9570  -34.0390   24.9830 H   0  0  0  0  0  0  0  0  0  0  0  0
  -24.1560  -36.7290   23.0610 C   0  0  0  0  0  1  0  0  0  0  0  0
  -25.3960  -36.3240   23.8740 C   0  0  0  0  0  3  0  0  0  0  0  0
  -27.5300  -37.2090   24.7070 C   0  0  0  0  0  1  0  0  0  0  0  0
  -26.4300  -37.3760   23.7610 N   0  0  0  0  0  0  0  0  0  0  0  0
  -26.0240  -38.2970   23.9070 H   0  0  0  0  0  0  0  0  0  0  0  0
  -26.3700  -31.7140   25.1310 C   0  0  1  0  0  0  0  0  0  0  0  0
  -25.2750  -31.4760   26.1960 C   0  0  0  0  0  1  0  0  0  0  0  0
  -26.9550  -30.3360   24.7420 C   0  0  0  0  0  1  0  0  0  0  0  0
  -27.5190  -32.5090   25.7960 C   0  0  0  0  0  1  0  0  0  0  0  0
  1  2  1  0
  2  3  2  0
  2  8  1  0
  3  6  1  0
  4 12  1  0
  4  3  1  0
  5  4  2  0
  6  7  1  0
  8 56  1  0
  8  7  1  0
  9  5  1  0
 10  5  1  0
 10  1  2  0
 12 26  1  0
 12 11  1  0
 13 25  1  0
 14 19  1  0
 15 16  1  0
 15 14  1  0
 17 16  1  0
 17 31  1  0
 17 18  1  0
 19 13  1  0
 19 18  1  0
 20 13  2  0
 22 25  1  0
 23 21  1  0
 24 22  1  0
 24 26  1  0
 25 21  1  0
 26 27  1  1
 26 23  1  0
 28 29  2  0
 29 48  1  0
 30 29  1  0
 30 33  1  0
 31 28  1  0
 31 32  1  0
 32 30  2  0
 33 34  1  0
 34 35  2  0
 36 39  1  0
 36 35  1  0
 37 36  2  0
 38 37  1  0
 38 33  2  0
 39 40  1  0
 40 41  1  0
 41 42  2  0
 43 42  1  0
 43 47  1  0
 44 43  2  0
 45 40  2  0
 45 44  1  0
 46 45  1  0
 48 49  1  0
 49 52  1  0
 49 51  1  0
 50 48  2  0
 53 54  1  0
 53 28  1  0
 55 53  1  0
 57 68  2  0
 58 56  1  0
 58 63  1  0
 59 67  1  0
 59 69  1  0
 60 66  1  0
 60 62  1  0
 61 67  1  0
 62 61  1  0
 63 62  2  0
 64 58  2  0
 65 64  1  0
 65 60  2  0
 66 59  1  0
 67 57  1  0
 69 71  2  0
 70 69  1  0
 72 70  1  0
 73 82  2  0
 73 78  1  0
 74 70  1  0
 74 78  1  0
 75 74  1  0
 76 77  1  0
 76 75  1  0
 77 73  1  0
 78 79  2  0
 79 80  1  0
 81 80  2  0
 82 81  1  0
 83 57  1  0
 83 84  1  0
 83 93  1  0
 84 87  1  0
 85 89  1  0
 85 84  1  0
 86 85  2  0
 89 88  1  0
 91 89  1  0
 91 92  1  0
 91 90  1  0
 93 96  1  1
 93 94  1  0
 95 93  1  0
M  ISO  4   8 101  13 100  25 100  56 101
M  END
>  <TORSDO>  (73) 
F 17

>  <SCORE>  (73) 
-15.700

>  <name>  (73) 
73

>  <ligand_id>  (73) 
73

>  <original_smiles>  (73) 
[H]c1nc(C([H])([H])[H])c(C([H])(C([H])([H])[H])[N+]2([H])C([H])([H])C([H])([H])N(C(=O)N3C([H])([H])C([H])([H])C([H])([H])C([H])(n4nc(-c5c([H])c([H])c(Oc6c([H])c([H])c(F)c([H])c6F)c([H])c5[H])c(C(=O)N([H])[H])c4N([H])[H])C3([H])[H])C([H])([H])C2([H])[H])c2c1C([H])(Oc1c([H])c([H])c3c(c1[H])C([H])([H])N(C(=O)C([H])(N([H])C(=O)C([H])(N([H])C([H])([H])[H])C([H])([H])[H])C(C([H])([H])[H])(C([H])([H])[H])C([H])([H])[H])C([H])(C(=O)N([H])C1([H])c4c([H])c([H])c([H])c([H])c4C([H])([H])C([H])([H])C1([H])[H])C3([H])[H])C([H])([H])C2([H])[H]

>  <smiles>  (73) 
[H]c1nc(C([H])([H])[H])c(C([H])(C([H])([H])[H])[N+]2([H])C([H])([H])C([H])([H])N(C(=O)N3C([H])([H])C([H])([H])C([H])([H])C([H])(n4nc(-c5c([H])c([H])c(Oc6c([H])c([H])c(F)c([H])c6F)c([H])c5[H])c(C(=O)N([H])[H])c4N([H])[H])C3([H])[H])C([H])([H])C2([H])[H])c2c1C([H])(Oc1c([H])c([H])c3c(c1[H])C([H])([H])N(C(=O)C([H])(N([H])C(=O)C([H])(N([H])C([H])([H])[H])C([H])([H])[H])C(C([H])([H])[H])(C([H])([H])[H])C([H])([H])[H])C([H])(C(=O)N([H])C1([H])c4c([H])c([H])c([H])c([H])c4C([H])([H])C([H])([H])C1([H])[H])C3([H])[H])C([H])([H])C2([H])[H]

$$$$
74:0:0
     RDKit          3D

 98107  0  0  1  0  0  0  0  0999 V2000
  -27.7070  -22.9840   20.4560 C   0  0  0  0  0  0  0  0  0  0  0  0
  -28.7630  -23.9400   20.5820 C   0  0  0  0  0  0  0  0  0  0  0  0
  -27.9970  -21.5860   20.2300 C   0  0  0  0  0  0  0  0  0  0  0  0
  -30.0590  -23.4010   20.3560 C   0  0  0  0  0  0  0  0  0  0  0  0
  -29.3430  -21.1350   20.1180 C   0  0  0  0  0  0  0  0  0  0  0  0
  -26.2590  -23.4510   20.5580 C   0  0  0  0  0  1  0  0  0  0  0  0
  -26.8680  -20.5670   20.0620 C   0  0  0  0  0  1  0  0  0  0  0  0
  -31.2770  -24.3070   20.3500 C   0  0  0  0  0  1  0  0  0  0  0  0
  -30.3230  -22.0730   20.1390 N   0  0  0  0  0  0  0  0  0  0  0  0
  -29.3880  -18.5190   20.6560 C   0  0  0  0  0  2  0  0  0  0  0  0
  -30.9620  -19.4640   19.1420 C   0  0  0  0  0  2  0  0  0  0  0  0
  -30.4990  -17.4010   20.3990 C   0  0  0  0  0  3  0  0  0  0  0  0
  -31.0950  -17.9220   19.0770 C   0  0  0  0  0  3  0  0  0  0  0  0
  -29.7460  -19.7570   19.8950 N   0  0  0  0  0  0  0  0  0  0  0  0
  -30.8300  -14.8140   20.0680 C   0  0  0  0  0  0  0  0  0  0  0  0
  -30.5570  -12.5960   18.9780 C   0  0  0  0  0  2  0  0  0  0  0  0
  -29.5450  -12.7050   17.8180 C   0  0  0  0  0  2  0  0  0  0  0  0
  -28.1010  -12.5330   18.3260 C   0  0  0  0  0  2  0  0  0  0  0  0
  -27.8010  -13.3860   19.5880 C   0  0  0  0  0  3  0  0  0  0  0  0
  -28.9210  -13.2490   20.6440 C   0  0  0  0  0  2  0  0  0  0  0  0
  -30.1870  -13.6070   19.9910 N   0  0  0  0  0  0  0  0  0  0  0  0
  -31.9870  -14.9410   19.6590 O   0  0  0  0  0  0  0  0  0  0  0  0
  -30.0870  -15.9320   20.3830 N   0  0  0  0  0  0  0  0  0  0  0  0
  -29.1300  -15.7460   20.6390 H   0  0  0  0  0  0  0  0  0  0  0  0
  -25.4590  -13.9590   20.4670 C   0  0  0  0  0  0  0  0  0  0  0  0
  -24.4130  -13.1740   20.8720 C   0  0  0  0  0  0  0  0  0  0  0  0
  -24.8680  -11.8250   20.7690 C   0  0  0  0  0  0  0  0  0  0  0  0
  -26.4840  -13.0860   20.1430 N   0  0  0  0  0  0  0  0  0  0  0  0
  -26.1390  -11.7950   20.3870 N   0  0  0  0  0  0  0  0  0  0  0  0
  -24.1480  -10.5570   20.9540 C   0  0  0  0  0  0  0  0  0  0  0  0
  -24.5800   -9.5910   21.8890 C   0  0  0  0  0  3  0  0  0  0  0  0
  -23.8570   -8.3900   22.0620 C   0  0  0  0  0  3  0  0  0  0  0  0
  -22.6910   -8.1460   21.3000 C   0  0  0  0  0  0  0  0  0  0  0  0
  -22.2790   -9.1010   20.3550 C   0  0  0  0  0  3  0  0  0  0  0  0
  -23.0020  -10.2940   20.1790 C   0  0  0  0  0  3  0  0  0  0  0  0
  -21.9420   -6.9970   21.3820 O   0  0  0  0  0  0  0  0  0  0  0  0
  -21.8230   -6.3000   22.5560 C   0  0  0  0  0  0  0  0  0  0  0  0
  -21.2660   -6.8820   23.7170 C   0  0  0  0  0  3  0  0  0  0  0  0
  -21.0970   -6.1070   24.8820 C   0  0  0  0  0  3  0  0  0  0  0  0
  -21.4740   -4.7510   24.8870 C   0  0  0  0  0  0  0  0  0  0  0  0
  -22.0240   -4.1680   23.7320 C   0  0  0  0  0  3  0  0  0  0  0  0
  -22.1940   -4.9400   22.5680 C   0  0  0  0  0  0  0  0  0  0  0  0
  -22.7040   -4.3660   21.4530 F   0  0  0  0  0  0  0  0  0  0  0  0
  -21.3050   -4.0050   26.0050 F   0  0  0  0  0  0  0  0  0  0  0  0
  -23.0350  -13.6450   21.2360 C   0  0  0  0  0  0  0  0  0  0  0  0
  -22.3540  -12.9210   22.1180 N   0  0  0  0  0  0  0  0  0  0  0  0
  -22.5720  -14.6880   20.7760 O   0  0  0  0  0  0  0  0  0  0  0  0
  -22.7420  -12.0750   22.5090 H   0  0  0  0  0  0  0  0  0  0  0  0
  -21.4320  -13.2170   22.4050 H   0  0  0  0  0  0  0  0  0  0  0  0
  -25.6140  -15.3340   20.3220 N   0  0  0  0  0  0  0  0  0  0  0  0
  -24.8430  -15.9760   20.4810 H   0  0  0  0  0  0  0  0  0  0  0  0
  -26.4090  -15.7760   19.8800 H   0  0  0  0  0  0  0  0  0  0  0  0
  -32.4760  -17.4710   18.8420 N   0  0  0  0  0  4  0  0  0  0  0  0
  -33.1190  -17.8920   19.4880 H   0  0  0  0  0  0  0  0  0  0  0  0
  -32.7700  -17.6760   17.9040 H   0  0  0  0  0  0  0  0  0  0  0  0
  -32.5030  -16.4640   18.9880 H   0  0  0  0  0  0  0  0  0  0  0  0
  -28.5430  -25.4150   21.1490 C   0  0  0  0  0  2  0  0  0  0  0  0
  -28.6140  -26.6160   20.3010 O   0  0  0  0  0  0  0  0  0  0  0  0
  -24.6700  -31.9270   23.2640 C   0  0  0  0  0  0  0  0  0  0  0  0
  -27.4870  -27.4450   20.2930 C   0  0  0  0  0  0  0  0  0  0  0  0
  -23.5500  -30.5000   21.5890 C   0  0  0  0  0  3  0  0  0  0  0  0
  -25.0820  -28.9820   20.2120 C   0  0  0  0  0  0  0  0  0  0  0  0
  -26.0820  -30.8840   21.4810 C   0  0  0  0  0  2  0  0  0  0  0  0
  -26.2180  -29.5050   20.8440 C   0  0  0  0  0  0  0  0  0  0  0  0
  -27.4280  -28.7470   20.8790 C   0  0  0  0  0  3  0  0  0  0  0  0
  -26.3340  -26.9690   19.6400 C   0  0  0  0  0  3  0  0  0  0  0  0
  -25.1390  -27.7150   19.6060 C   0  0  0  0  0  3  0  0  0  0  0  0
  -23.8220  -29.8250   20.2190 C   0  0  0  0  0  2  0  0  0  0  0  0
  -24.7840  -31.1210   22.1690 N   0  0  0  0  0  0  0  0  0  0  0  0
  -23.5650  -32.1810   23.7650 O   0  0  0  0  0  0  0  0  0  0  0  0
  -22.8800  -29.4710   22.5290 C   0  0  0  0  0  0  0  0  0  0  0  0
  -21.5570  -29.2900   22.3830 N   0  0  0  0  0  0  0  0  0  0  0  0
  -23.5500  -28.8380   23.3500 O   0  0  0  0  0  0  0  0  0  0  0  0
  -21.0750  -29.8560   21.6970 H   0  0  0  0  0  0  0  0  0  0  0  0
  -18.1680  -28.1150   22.8580 C   0  0  0  0  0  0  0  0  0  0  0  0
  -20.7290  -28.3400   23.1290 C   0  0  0  0  0  3  0  0  0  0  0  0
  -20.8150  -26.9240   22.5130 C   0  0  0  0  0  2  0  0  0  0  0  0
  -19.7060  -26.6410   21.4950 C   0  0  0  0  0  2  0  0  0  0  0  0
  -18.3270  -26.7840   22.1460 C   0  0  0  0  0  2  0  0  0  0  0  0
  -19.2960  -28.8530   23.3050 C   0  0  0  0  0  0  0  0  0  0  0  0
  -19.0920  -30.1020   23.9310 C   0  0  0  0  0  3  0  0  0  0  0  0
  -17.7930  -30.6130   24.1150 C   0  0  0  0  0  3  0  0  0  0  0  0
  -16.6790  -29.8690   23.6860 C   0  0  0  0  0  3  0  0  0  0  0  0
  -16.8680  -28.6220   23.0620 C   0  0  0  0  0  3  0  0  0  0  0  0
  -25.9190  -32.5880   23.9280 C   0  0  0  0  0  3  0  0  0  0  0  0
  -26.3940  -31.8420   25.2350 C   0  0  1  0  0  0  0  0  0  0  0  0
  -25.2600  -31.5970   26.2580 C   0  0  0  0  0  1  0  0  0  0  0  0
  -27.0190  -30.4720   24.8840 C   0  0  0  0  0  1  0  0  0  0  0  0
  -27.5020  -32.6660   25.9330 C   0  0  0  0  0  1  0  0  0  0  0  0
  -25.5790  -33.9850   24.2260 N   0  0  0  0  0  0  0  0  0  0  0  0
  -25.9200  -35.0320   23.4630 C   0  0  0  0  0  0  0  0  0  0  0  0
  -26.6250  -34.9220   22.4560 O   0  0  0  0  0  0  0  0  0  0  0  0
  -24.9570  -34.1420   25.0060 H   0  0  0  0  0  0  0  0  0  0  0  0
  -24.1840  -36.7960   23.0200 C   0  0  0  0  0  1  0  0  0  0  0  0
  -25.3990  -36.4190   23.8830 C   0  0  0  0  0  3  0  0  0  0  0  0
  -27.4830  -37.3480   24.7910 C   0  0  0  0  0  1  0  0  0  0  0  0
  -26.4220  -37.4840   23.7960 N   0  0  0  0  0  0  0  0  0  0  0  0
  -25.9980  -38.4010   23.9110 H   0  0  0  0  0  0  0  0  0  0  0  0
  1  6  1  0
  1  2  1  0
  2 57  1  0
  3  1  2  0
  4  2  2  0
  5  9  2  0
  5  3  1  0
  7  3  1  0
  8  4  1  0
  9  4  1  0
 11 14  1  0
 12 23  1  0
 12 10  1  0
 13 53  1  0
 13 11  1  0
 13 12  1  0
 14  5  1  0
 14 10  1  0
 15 23  1  0
 16 21  1  0
 17 18  1  0
 17 16  1  0
 19 18  1  0
 19 28  1  0
 19 20  1  0
 21 15  1  0
 21 20  1  0
 22 15  2  0
 23 24  1  0
 25 26  2  0
 26 45  1  0
 27 26  1  0
 27 30  1  0
 28 29  1  0
 28 25  1  0
 29 27  2  0
 30 31  1  0
 31 32  2  0
 33 36  1  0
 33 32  1  0
 34 33  2  0
 35 34  1  0
 35 30  2  0
 36 37  1  0
 37 42  2  0
 37 38  1  0
 38 39  2  0
 39 40  1  0
 40 44  1  0
 41 40  2  0
 42 41  1  0
 43 42  1  0
 45 46  1  0
 46 49  1  0
 46 48  1  0
 47 45  2  0
 50 25  1  0
 50 51  1  0
 52 50  1  0
 53 56  1  0
 53 54  1  0
 55 53  1  0
 58 57  1  0
 59 70  2  0
 60 58  1  0
 60 65  1  0
 61 69  1  0
 61 71  1  0
 62 68  1  0
 62 64  1  0
 63 69  1  0
 64 65  2  0
 64 63  1  0
 66 60  2  0
 67 66  1  0
 67 62  2  0
 68 61  1  0
 69 59  1  0
 71 73  2  0
 72 71  1  0
 74 72  1  0
 75 84  2  0
 75 80  1  0
 76 72  1  0
 76 80  1  0
 77 76  1  0
 78 79  1  0
 78 77  1  0
 79 75  1  0
 80 81  2  0
 81 82  1  0
 83 82  2  0
 84 83  1  0
 85 59  1  0
 85 90  1  0
 85 86  1  0
 86 89  1  1
 86 87  1  0
 88 86  1  0
 90 93  1  0
 91 95  1  0
 91 90  1  0
 92 91  2  0
 95 94  1  0
 97 95  1  0
 97 98  1  0
 97 96  1  0
M  ISO  4  15 100  23 100  57 101  58 101
M  END
>  <TORSDO>  (74) 
F 19

>  <SCORE>  (74) 
-13.792

>  <name>  (74) 
74

>  <ligand_id>  (74) 
74

>  <original_smiles>  (74) 
[H]c1c([H])c([H])c2c(c1[H])C([H])([H])C([H])([H])C([H])([H])C2([H])N([H])C(=O)C1([H])N(C(=O)C([H])(N([H])C(=O)C([H])(N([H])C([H])([H])[H])C([H])([H])[H])C(C([H])([H])[H])(C([H])([H])[H])C([H])([H])[H])C([H])([H])c2c([H])c(OC([H])([H])c3c(C([H])([H])[H])nc(N4C([H])([H])C([H])(N([H])C(=O)N5C([H])([H])C([H])([H])C([H])([H])C([H])(n6nc(-c7c([H])c([H])c(Oc8c([H])c([H])c(F)c([H])c8F)c([H])c7[H])c(C(=O)N([H])[H])c6N([H])[H])C5([H])[H])C([H])([N+]([H])([H])[H])C4([H])[H])c(C([H])([H])[H])c3C([H])([H])[H])c([H])c([H])c2C1([H])[H]

>  <smiles>  (74) 
[H]c1c([H])c([H])c2c(c1[H])C([H])([H])C([H])([H])C([H])([H])C2([H])N([H])C(=O)C1([H])N(C(=O)C([H])(N([H])C(=O)C([H])(N([H])C([H])([H])[H])C([H])([H])[H])C(C([H])([H])[H])(C([H])([H])[H])C([H])([H])[H])C([H])([H])c2c([H])c(OC([H])([H])c3c(C([H])([H])[H])nc(N4C([H])([H])C([H])(N([H])C(=O)N5C([H])([H])C([H])([H])C([H])([H])C([H])(n6nc(-c7c([H])c([H])c(Oc8c([H])c([H])c(F)c([H])c8F)c([H])c7[H])c(C(=O)N([H])[H])c6N([H])[H])C5([H])[H])C([H])([N+]([H])([H])[H])C4([H])[H])c(C([H])([H])[H])c3C([H])([H])[H])c([H])c([H])c2C1([H])[H]

$$$$
75:0:0
     RDKit          3D

 98107  0  0  1  0  0  0  0  0999 V2000
  -29.7320  -21.9020   20.6500 C   0  0  0  0  0  3  0  0  0  0  0  0
  -29.5490  -23.3240   20.6080 C   0  0  0  0  0  0  0  0  0  0  0  0
  -28.5590  -23.9070   19.7600 C   0  0  0  0  0  0  0  0  0  0  0  0
  -27.7400  -22.9520   19.0870 C   0  0  0  0  0  0  0  0  0  0  0  0
  -28.9450  -21.0480   19.8430 C   0  0  0  0  0  0  0  0  0  0  0  0
  -30.4260  -18.5560   17.6820 C   0  0  0  0  0  2  0  0  0  0  0  0
  -29.2170  -19.3810   18.0980 C   0  0  0  0  0  2  0  0  0  0  0  0
  -29.2950  -18.4750   20.3970 C   0  0  0  0  0  2  0  0  0  0  0  0
  -30.2520  -17.2470   19.9500 C   0  0  0  0  0  3  0  0  0  0  0  0
  -30.4710  -17.1930   18.3940 C   0  0  0  0  0  3  0  0  0  0  0  0
  -30.4830  -24.2120   21.4110 C   0  0  0  0  0  1  0  0  0  0  0  0
  -26.6130  -23.3680   18.1560 C   0  0  0  0  0  1  0  0  0  0  0  0
  -27.9260  -21.6010   19.1410 N   0  0  0  0  0  0  0  0  0  0  0  0
  -29.3200  -19.6920   19.5170 N   0  0  0  0  0  0  0  0  0  0  0  0
  -30.5970  -14.7040   20.4200 C   0  0  0  0  0  0  0  0  0  0  0  0
  -30.3600  -12.4370   19.4540 C   0  0  0  0  0  2  0  0  0  0  0  0
  -29.4350  -12.5190   18.2180 C   0  0  0  0  0  2  0  0  0  0  0  0
  -27.9590  -12.3700   18.6380 C   0  0  0  0  0  2  0  0  0  0  0  0
  -27.5820  -13.2650   19.8500 C   0  0  0  0  0  3  0  0  0  0  0  0
  -28.6350  -13.1920   20.9780 C   0  0  0  0  0  2  0  0  0  0  0  0
  -29.9390  -13.5030   20.3850 N   0  0  0  0  0  0  0  0  0  0  0  0
  -31.7880  -14.7780   20.1130 O   0  0  0  0  0  0  0  0  0  0  0  0
  -29.8470  -15.8590   20.4410 N   0  0  0  0  0  0  0  0  0  0  0  0
  -28.8680  -15.7290   20.6450 H   0  0  0  0  0  0  0  0  0  0  0  0
  -25.1910  -13.8570   20.5750 C   0  0  0  0  0  0  0  0  0  0  0  0
  -24.1240  -13.0810   20.9380 C   0  0  0  0  0  0  0  0  0  0  0  0
  -24.5880  -11.7300   20.9030 C   0  0  0  0  0  0  0  0  0  0  0  0
  -26.2360  -12.9780   20.3380 N   0  0  0  0  0  0  0  0  0  0  0  0
  -25.8790  -11.6930   20.6000 N   0  0  0  0  0  0  0  0  0  0  0  0
  -23.8600  -10.4670   21.0850 C   0  0  0  0  0  0  0  0  0  0  0  0
  -24.2890   -9.4940   22.0140 C   0  0  0  0  0  3  0  0  0  0  0  0
  -23.5610   -8.2960   22.1850 C   0  0  0  0  0  3  0  0  0  0  0  0
  -22.3900   -8.0640   21.4260 C   0  0  0  0  0  0  0  0  0  0  0  0
  -21.9790   -9.0260   20.4860 C   0  0  0  0  0  3  0  0  0  0  0  0
  -22.7080  -10.2150   20.3130 C   0  0  0  0  0  3  0  0  0  0  0  0
  -21.6330   -6.9190   21.5050 O   0  0  0  0  0  0  0  0  0  0  0  0
  -21.5790   -6.1700   22.6530 C   0  0  0  0  0  0  0  0  0  0  0  0
  -21.1420   -6.7160   23.8800 C   0  0  0  0  0  3  0  0  0  0  0  0
  -21.0340   -5.8920   25.0190 C   0  0  0  0  0  3  0  0  0  0  0  0
  -21.3580   -4.5250   24.9330 C   0  0  0  0  0  0  0  0  0  0  0  0
  -21.7900   -3.9790   23.7120 C   0  0  0  0  0  3  0  0  0  0  0  0
  -21.8990   -4.7990   22.5750 C   0  0  0  0  0  0  0  0  0  0  0  0
  -22.2950   -4.2640   21.3950 F   0  0  0  0  0  0  0  0  0  0  0  0
  -21.2490   -3.7330   26.0240 F   0  0  0  0  0  0  0  0  0  0  0  0
  -22.7250  -13.5560   21.2070 C   0  0  0  0  0  0  0  0  0  0  0  0
  -21.9910  -12.8530   22.0610 N   0  0  0  0  0  0  0  0  0  0  0  0
  -22.2930  -14.5880   20.6930 O   0  0  0  0  0  0  0  0  0  0  0  0
  -22.3490  -12.0170   22.4980 H   0  0  0  0  0  0  0  0  0  0  0  0
  -21.0530  -13.1550   22.2800 H   0  0  0  0  0  0  0  0  0  0  0  0
  -25.3560  -15.2270   20.4000 N   0  0  0  0  0  0  0  0  0  0  0  0
  -24.5800  -15.8760   20.4980 H   0  0  0  0  0  0  0  0  0  0  0  0
  -26.1930  -15.6700   20.0460 H   0  0  0  0  0  0  0  0  0  0  0  0
  -31.7410  -16.5260   18.0470 N   0  0  0  0  0  4  0  0  0  0  0  0
  -32.5140  -17.1590   18.1500 H   0  0  0  0  0  0  0  0  0  0  0  0
  -31.7290  -16.1810   17.1030 H   0  0  0  0  0  0  0  0  0  0  0  0
  -31.8910  -15.7500   18.6890 H   0  0  0  0  0  0  0  0  0  0  0  0
  -28.5510  -25.4400   19.3470 C   0  0  0  0  0  2  0  0  0  0  0  0
  -28.3260  -26.5400   20.2990 O   0  0  0  0  0  0  0  0  0  0  0  0
  -24.5680  -31.9190   23.2660 C   0  0  0  0  0  0  0  0  0  0  0  0
  -27.1990  -27.3690   20.2160 C   0  0  0  0  0  0  0  0  0  0  0  0
  -23.3700  -30.5160   21.6230 C   0  0  0  0  0  3  0  0  0  0  0  0
  -24.8280  -28.9710   20.1960 C   0  0  0  0  0  0  0  0  0  0  0  0
  -25.9070  -30.8390   21.4480 C   0  0  0  0  0  2  0  0  0  0  0  0
  -25.9900  -29.4600   20.8060 C   0  0  0  0  0  0  0  0  0  0  0  0
  -27.1730  -28.6640   20.8190 C   0  0  0  0  0  3  0  0  0  0  0  0
  -26.0110  -26.9300   19.5910 C   0  0  0  0  0  3  0  0  0  0  0  0
  -24.8400  -27.7110   19.5830 C   0  0  0  0  0  3  0  0  0  0  0  0
  -23.5880  -29.8400   20.2420 C   0  0  0  0  0  2  0  0  0  0  0  0
  -24.6340  -31.1090   22.1690 N   0  0  0  0  0  0  0  0  0  0  0  0
  -23.4830  -32.1980   23.7950 O   0  0  0  0  0  0  0  0  0  0  0  0
  -22.7070  -29.5000   22.5810 C   0  0  0  0  0  0  0  0  0  0  0  0
  -21.3840  -29.3140   22.4420 N   0  0  0  0  0  0  0  0  0  0  0  0
  -23.3820  -28.8790   23.4080 O   0  0  0  0  0  0  0  0  0  0  0  0
  -20.9010  -29.8650   21.7470 H   0  0  0  0  0  0  0  0  0  0  0  0
  -18.0070  -28.1110   22.9090 C   0  0  0  0  0  0  0  0  0  0  0  0
  -20.5610  -28.3790   23.2080 C   0  0  0  0  0  3  0  0  0  0  0  0
  -20.6740  -26.9450   22.6400 C   0  0  0  0  0  2  0  0  0  0  0  0
  -19.5850  -26.6150   21.6150 C   0  0  0  0  0  2  0  0  0  0  0  0
  -18.1960  -26.7590   22.2420 C   0  0  0  0  0  2  0  0  0  0  0  0
  -19.1180  -28.8790   23.3480 C   0  0  0  0  0  0  0  0  0  0  0  0
  -18.8870  -30.1450   23.9290 C   0  0  0  0  0  3  0  0  0  0  0  0
  -17.5780  -30.6400   24.0790 C   0  0  0  0  0  3  0  0  0  0  0  0
  -16.4820  -29.8680   23.6580 C   0  0  0  0  0  3  0  0  0  0  0  0
  -16.6980  -28.6060   23.0760 C   0  0  0  0  0  3  0  0  0  0  0  0
  -25.8500  -32.5500   23.8910 C   0  0  0  0  0  3  0  0  0  0  0  0
  -26.3510  -31.7880   25.1790 C   0  0  1  0  0  0  0  0  0  0  0  0
  -25.2470  -31.5670   26.2390 C   0  0  0  0  0  1  0  0  0  0  0  0
  -26.9300  -30.4040   24.8050 C   0  0  0  0  0  1  0  0  0  0  0  0
  -27.4990  -32.5840   25.8460 C   0  0  0  0  0  1  0  0  0  0  0  0
  -25.5450  -33.9530   24.2060 N   0  0  0  0  0  0  0  0  0  0  0  0
  -25.8910  -34.9960   23.4390 C   0  0  0  0  0  0  0  0  0  0  0  0
  -26.5710  -34.8800   22.4160 O   0  0  0  0  0  0  0  0  0  0  0  0
  -24.9430  -34.1190   24.9990 H   0  0  0  0  0  0  0  0  0  0  0  0
  -24.1810  -36.7980   23.0440 C   0  0  0  0  0  1  0  0  0  0  0  0
  -25.4060  -36.3920   23.8780 C   0  0  0  0  0  3  0  0  0  0  0  0
  -27.5330  -37.2700   24.7350 C   0  0  0  0  0  1  0  0  0  0  0  0
  -26.4480  -37.4360   23.7720 N   0  0  0  0  0  0  0  0  0  0  0  0
  -26.0460  -38.3600   23.9070 H   0  0  0  0  0  0  0  0  0  0  0  0
  2  1  1  0
  2 11  1  0
  3  2  2  0
  4 13  2  0
  4  3  1  0
  5  1  2  0
  6  7  1  0
  6 10  1  0
  7 14  1  0
  9  8  1  0
  9 23  1  0
 10 53  1  0
 10  9  1  0
 12  4  1  0
 13  5  1  0
 14  5  1  0
 14  8  1  0
 15 23  1  0
 16 21  1  0
 17 18  1  0
 17 16  1  0
 19 18  1  0
 19 28  1  0
 19 20  1  0
 21 15  1  0
 21 20  1  0
 22 15  2  0
 23 24  1  0
 25 26  2  0
 26 45  1  0
 27 26  1  0
 27 30  1  0
 28 25  1  0
 28 29  1  0
 29 27  2  0
 30 31  1  0
 31 32  2  0
 33 36  1  0
 33 32  1  0
 34 33  2  0
 35 34  1  0
 35 30  2  0
 36 37  1  0
 37 38  1  0
 38 39  2  0
 40 39  1  0
 40 44  1  0
 41 40  2  0
 42 37  2  0
 42 41  1  0
 43 42  1  0
 45 46  1  0
 46 49  1  0
 46 48  1  0
 47 45  2  0
 50 51  1  0
 50 25  1  0
 52 50  1  0
 53 54  1  0
 53 56  1  0
 55 53  1  0
 57  3  1  0
 57 58  1  0
 59 70  2  0
 60 58  1  0
 60 65  1  0
 61 69  1  0
 61 71  1  0
 62 68  1  0
 62 64  1  0
 63 69  1  0
 64 65  2  0
 64 63  1  0
 66 60  2  0
 67 66  1  0
 67 62  2  0
 68 61  1  0
 69 59  1  0
 71 73  2  0
 72 71  1  0
 74 72  1  0
 75 84  2  0
 75 80  1  0
 76 72  1  0
 76 80  1  0
 77 76  1  0
 78 79  1  0
 78 77  1  0
 79 75  1  0
 80 81  2  0
 81 82  1  0
 83 82  2  0
 84 83  1  0
 85 59  1  0
 85 90  1  0
 85 86  1  0
 86 89  1  1
 86 87  1  0
 88 86  1  0
 90 93  1  0
 91 95  1  0
 91 90  1  0
 92 91  2  0
 95 94  1  0
 97 95  1  0
 97 98  1  0
 97 96  1  0
M  ISO  4  15 100  23 100  57 101  58 101
M  END
>  <TORSDO>  (75) 
F 18

>  <SCORE>  (75) 
-15.169

>  <name>  (75) 
75

>  <ligand_id>  (75) 
75

>  <original_smiles>  (75) 
[H]c1c([H])c([H])c2c(c1[H])C([H])([H])C([H])([H])C([H])([H])C2([H])N([H])C(=O)C1([H])N(C(=O)C([H])(N([H])C(=O)C([H])(N([H])C([H])([H])[H])C([H])([H])[H])C(C([H])([H])[H])(C([H])([H])[H])C([H])([H])[H])C([H])([H])c2c([H])c(OC([H])([H])c3c(C([H])([H])[H])nc(N4C([H])([H])C([H])([H])C([H])([N+]([H])([H])[H])C([H])(N([H])C(=O)N5C([H])([H])C([H])([H])C([H])([H])C([H])(n6nc(-c7c([H])c([H])c(Oc8c([H])c([H])c(F)c([H])c8F)c([H])c7[H])c(C(=O)N([H])[H])c6N([H])[H])C5([H])[H])C4([H])[H])c([H])c3C([H])([H])[H])c([H])c([H])c2C1([H])[H]

>  <smiles>  (75) 
[H]c1c([H])c([H])c2c(c1[H])C([H])([H])C([H])([H])C([H])([H])C2([H])N([H])C(=O)C1([H])N(C(=O)C([H])(N([H])C(=O)C([H])(N([H])C([H])([H])[H])C([H])([H])[H])C(C([H])([H])[H])(C([H])([H])[H])C([H])([H])[H])C([H])([H])c2c([H])c(OC([H])([H])c3c(C([H])([H])[H])nc(N4C([H])([H])C([H])([H])C([H])([N+]([H])([H])[H])C([H])(N([H])C(=O)N5C([H])([H])C([H])([H])C([H])([H])C([H])(n6nc(-c7c([H])c([H])c(Oc8c([H])c([H])c(F)c([H])c8F)c([H])c7[H])c(C(=O)N([H])[H])c6N([H])[H])C5([H])[H])C4([H])[H])c([H])c3C([H])([H])[H])c([H])c([H])c2C1([H])[H]

$$$$
76:0:0
     RDKit          3D

 99108  0  0  1  0  0  0  0  0999 V2000
  -28.5860  -22.3220   20.2000 C   0  0  0  0  0  2  0  0  0  0  0  0
  -30.7430  -22.5870   21.3000 C   0  0  0  0  0  2  0  0  0  0  0  0
  -28.1240  -21.2380   21.2060 C   0  0  0  0  0  3  0  0  0  0  0  0
  -30.4110  -21.5250   22.3850 C   0  0  0  0  0  3  0  0  0  0  0  0
  -29.2860  -20.5170   21.9590 C   0  0  0  0  0  3  0  0  0  0  0  0
  -27.0920  -20.2720   20.5880 C   0  0  0  0  0  1  0  0  0  0  0  0
  -29.5090  -23.2870   20.8530 N   0  0  1  0  0  4  0  0  0  0  0  0
  -29.0520  -23.5960   21.7010 H   0  0  0  0  0  0  0  0  0  0  0  0
  -30.6820  -17.8020   19.5220 C   0  0  0  0  0  2  0  0  0  0  0  0
  -31.2480  -17.2980   21.9640 C   0  0  0  0  0  2  0  0  0  0  0  0
  -30.5460  -19.2260   20.1120 C   0  0  0  0  0  2  0  0  0  0  0  0
  -29.9560  -18.0840   22.2740 C   0  0  0  0  0  2  0  0  0  0  0  0
  -31.3310  -16.7950   20.5060 C   0  0  0  0  0  3  0  0  0  0  0  0
  -29.6800  -19.2090   21.3240 N   0  0  1  0  0  4  0  0  0  0  0  0
  -28.7870  -18.9170   20.9480 H   0  0  0  0  0  0  0  0  0  0  0  0
  -31.2490  -14.4530   19.6240 C   0  0  0  0  0  0  0  0  0  0  0  0
  -30.7790  -12.2560   18.6060 C   0  0  0  0  0  2  0  0  0  0  0  0
  -29.7580  -12.4090   17.4620 C   0  0  0  0  0  2  0  0  0  0  0  0
  -28.3180  -12.3430   18.0040 C   0  0  0  0  0  2  0  0  0  0  0  0
  -28.0940  -13.2780   19.2210 C   0  0  0  0  0  3  0  0  0  0  0  0
  -29.2170  -13.0970   20.2680 C   0  0  0  0  0  2  0  0  0  0  0  0
  -30.5120  -13.3110   19.5960 N   0  0  0  0  0  0  0  0  0  0  0  0
  -32.2780  -14.6090   18.9610 O   0  0  0  0  0  0  0  0  0  0  0  0
  -30.7530  -15.4480   20.3780 N   0  0  0  0  0  0  0  0  0  0  0  0
  -29.9120  -15.2360   20.8930 H   0  0  0  0  0  0  0  0  0  0  0  0
  -25.8140  -14.0210   20.1610 C   0  0  0  0  0  0  0  0  0  0  0  0
  -24.7290  -13.3090   20.5980 C   0  0  0  0  0  0  0  0  0  0  0  0
  -25.0860  -11.9320   20.4760 C   0  0  0  0  0  0  0  0  0  0  0  0
  -26.7690  -13.0800   19.8070 N   0  0  0  0  0  0  0  0  0  0  0  0
  -26.3370  -11.8160   20.0510 N   0  0  0  0  0  0  0  0  0  0  0  0
  -24.2890  -10.7150   20.6850 C   0  0  0  0  0  0  0  0  0  0  0  0
  -24.6910   -9.7180   21.6010 C   0  0  0  0  0  3  0  0  0  0  0  0
  -23.9000   -8.5660   21.7980 C   0  0  0  0  0  3  0  0  0  0  0  0
  -22.6910   -8.4040   21.0800 C   0  0  0  0  0  0  0  0  0  0  0  0
  -22.3070   -9.3890   20.1540 C   0  0  0  0  0  3  0  0  0  0  0  0
  -23.0990  -10.5320   19.9540 C   0  0  0  0  0  3  0  0  0  0  0  0
  -21.8710   -7.3070   21.1880 O   0  0  0  0  0  0  0  0  0  0  0  0
  -21.7510   -6.6100   22.3640 C   0  0  0  0  0  0  0  0  0  0  0  0
  -21.3430   -7.2360   23.5620 C   0  0  0  0  0  3  0  0  0  0  0  0
  -21.1660   -6.4690   24.7310 C   0  0  0  0  0  3  0  0  0  0  0  0
  -21.3870   -5.0790   24.7040 C   0  0  0  0  0  0  0  0  0  0  0  0
  -21.7890   -4.4550   23.5100 C   0  0  0  0  0  3  0  0  0  0  0  0
  -21.9680   -5.2180   22.3420 C   0  0  0  0  0  0  0  0  0  0  0  0
  -22.3340   -4.6080   21.1900 F   0  0  0  0  0  0  0  0  0  0  0  0
  -21.2100   -4.3410   25.8240 F   0  0  0  0  0  0  0  0  0  0  0  0
  -23.4000  -13.8700   21.0140 C   0  0  0  0  0  0  0  0  0  0  0  0
  -22.7120  -13.1990   21.9310 N   0  0  0  0  0  0  0  0  0  0  0  0
  -22.9850  -14.9370   20.5610 O   0  0  0  0  0  0  0  0  0  0  0  0
  -23.0610  -12.3340   22.3180 H   0  0  0  0  0  0  0  0  0  0  0  0
  -21.8230  -13.5560   22.2520 H   0  0  0  0  0  0  0  0  0  0  0  0
  -26.0630  -15.3830   20.0160 N   0  0  0  0  0  0  0  0  0  0  0  0
  -25.3470  -16.0800   20.1870 H   0  0  0  0  0  0  0  0  0  0  0  0
  -26.8910  -15.7630   19.5780 H   0  0  0  0  0  0  0  0  0  0  0  0
  -31.6670  -20.9030   23.0430 C   0  0  0  0  0  2  0  0  0  0  0  0
  -32.4320  -21.8990   23.7020 O   0  0  0  0  0  0  0  0  0  0  0  0
  -33.1790  -21.4740   24.1180 H   0  0  0  0  0  0  0  0  0  0  0  0
  -29.7570  -24.5530   20.0940 C   0  0  0  0  0  2  0  0  0  0  0  0
  -28.4530  -25.3390   19.8140 C   0  0  0  0  0  2  0  0  0  0  0  0
  -28.6100  -26.7680   19.7610 O   0  0  0  0  0  0  0  0  0  0  0  0
  -24.7040  -31.7380   23.0350 C   0  0  0  0  0  0  0  0  0  0  0  0
  -27.4270  -27.4860   19.7570 C   0  0  0  0  0  0  0  0  0  0  0  0
  -23.5170  -30.3680   21.3540 C   0  0  0  0  0  3  0  0  0  0  0  0
  -24.9930  -28.9330   19.8530 C   0  0  0  0  0  0  0  0  0  0  0  0
  -26.0320  -30.8020   21.1440 C   0  0  0  0  0  2  0  0  0  0  0  0
  -26.1460  -29.4610   20.4480 C   0  0  0  0  0  0  0  0  0  0  0  0
  -27.3660  -28.7460   20.3960 C   0  0  0  0  0  3  0  0  0  0  0  0
  -26.2520  -26.9830   19.1450 C   0  0  0  0  0  3  0  0  0  0  0  0
  -25.0410  -27.6930   19.1980 C   0  0  0  0  0  3  0  0  0  0  0  0
  -23.7280  -29.7520   19.9460 C   0  0  0  0  0  2  0  0  0  0  0  0
  -24.7700  -30.9820   21.9030 N   0  0  0  0  0  0  0  0  0  0  0  0
  -23.6220  -31.9600   23.5950 O   0  0  0  0  0  0  0  0  0  0  0  0
  -22.9050  -29.2910   22.2780 C   0  0  0  0  0  0  0  0  0  0  0  0
  -21.5840  -29.0790   22.1590 N   0  0  0  0  0  0  0  0  0  0  0  0
  -23.6150  -28.6520   23.0600 O   0  0  0  0  0  0  0  0  0  0  0  0
  -21.0720  -29.6510   21.5010 H   0  0  0  0  0  0  0  0  0  0  0  0
  -18.2520  -27.7620   22.6210 C   0  0  0  0  0  0  0  0  0  0  0  0
  -20.8000  -28.0920   22.9010 C   0  0  0  0  0  3  0  0  0  0  0  0
  -20.9470  -26.6840   22.2810 C   0  0  0  0  0  2  0  0  0  0  0  0
  -19.8550  -26.3580   21.2570 C   0  0  0  0  0  2  0  0  0  0  0  0
  -18.4700  -26.4400   21.9060 C   0  0  0  0  0  2  0  0  0  0  0  0
  -19.3460  -28.5460   23.0740 C   0  0  0  0  0  0  0  0  0  0  0  0
  -19.0880  -29.7830   23.7020 C   0  0  0  0  0  3  0  0  0  0  0  0
  -17.7700  -30.2390   23.8820 C   0  0  0  0  0  3  0  0  0  0  0  0
  -16.6890  -29.4520   23.4470 C   0  0  0  0  0  3  0  0  0  0  0  0
  -16.9310  -28.2150   22.8220 C   0  0  0  0  0  3  0  0  0  0  0  0
  -25.9800  -32.3780   23.6640 C   0  0  0  0  0  3  0  0  0  0  0  0
  -25.6350  -33.7490   24.0620 N   0  0  0  0  0  0  0  0  0  0  0  0
  -25.9400  -34.8450   23.3550 C   0  0  0  0  0  0  0  0  0  0  0  0
  -26.6140  -34.8100   22.3210 O   0  0  0  0  0  0  0  0  0  0  0  0
  -25.0360  -33.8490   24.8690 H   0  0  0  0  0  0  0  0  0  0  0  0
  -24.1630  -36.6030   23.0830 C   0  0  0  0  0  1  0  0  0  0  0  0
  -25.4140  -36.1960   23.8770 C   0  0  0  0  0  3  0  0  0  0  0  0
  -27.5250  -37.0950   24.7530 C   0  0  0  0  0  1  0  0  0  0  0  0
  -26.4180  -37.2810   23.8180 N   0  0  0  0  0  0  0  0  0  0  0  0
  -25.9870  -38.1810   24.0110 H   0  0  0  0  0  0  0  0  0  0  0  0
  -26.5430  -31.5650   24.8930 C   0  0  1  0  0  0  0  0  0  0  0  0
  -25.4780  -31.2470   25.9680 C   0  0  0  0  0  1  0  0  0  0  0  0
  -27.1570  -30.2240   24.4250 C   0  0  0  0  0  1  0  0  0  0  0  0
  -27.6830  -32.3600   25.5700 C   0  0  0  0  0  1  0  0  0  0  0  0
  1  7  1  0
  1  3  1  0
  2  4  1  0
  3  6  1  0
  3  5  1  0
  4 54  1  0
  5  4  1  0
  7  2  1  0
  7  8  1  1
  9 11  1  0
  9 13  1  0
 10 12  1  0
 11 14  1  0
 13 10  1  0
 14  5  1  0
 14 12  1  0
 14 15  1  6
 16 24  1  0
 17 22  1  0
 18 19  1  0
 18 17  1  0
 19 20  1  0
 20 29  1  0
 20 21  1  0
 22 16  1  0
 22 21  1  0
 23 16  2  0
 24 13  1  0
 24 25  1  0
 26 27  2  0
 27 46  1  0
 28 27  1  0
 28 31  1  0
 29 30  1  0
 29 26  1  0
 30 28  2  0
 31 32  1  0
 32 33  2  0
 34 37  1  0
 34 33  1  0
 35 34  2  0
 36 35  1  0
 36 31  2  0
 37 38  1  0
 38 39  1  0
 39 40  2  0
 41 40  1  0
 41 45  1  0
 42 41  2  0
 43 38  2  0
 43 42  1  0
 44 43  1  0
 46 47  1  0
 47 50  1  0
 47 49  1  0
 48 46  2  0
 51 26  1  0
 51 52  1  0
 53 51  1  0
 54 55  1  0
 55 56  1  0
 57  7  1  0
 58 57  1  0
 59 58  1  0
 60 71  2  0
 60 86  1  0
 61 59  1  0
 61 66  1  0
 62 70  1  0
 62 72  1  0
 63 69  1  0
 63 65  1  0
 64 70  1  0
 65 64  1  0
 66 65  2  0
 67 68  1  0
 67 61  2  0
 68 63  2  0
 69 62  1  0
 70 60  1  0
 72 74  2  0
 73 72  1  0
 73 77  1  0
 75 73  1  0
 76 85  2  0
 76 81  1  0
 77 81  1  0
 78 77  1  0
 79 80  1  0
 79 78  1  0
 80 76  1  0
 81 82  2  0
 82 83  1  0
 84 83  2  0
 85 84  1  0
 86 87  1  0
 86 96  1  0
 87 90  1  0
 88 92  1  0
 88 87  1  0
 89 88  2  0
 91 92  1  0
 94 92  1  0
 94 95  1  0
 94 93  1  0
 96 99  1  1
 96 97  1  0
 98 96  1  0
M  ISO  4  16 100  24 100  58 101  59 101
M  END
>  <TORSDO>  (76) 
F 21

>  <SCORE>  (76) 
-10.761

>  <name>  (76) 
76

>  <ligand_id>  (76) 
76

>  <original_smiles>  (76) 
[H]OC([H])([H])C1([H])C([H])([H])[N+]([H])(C([H])([H])C([H])([H])Oc2c([H])c([H])c3c(c2[H])C([H])([H])N(C(=O)C([H])(N([H])C(=O)C([H])(N([H])C([H])([H])[H])C([H])([H])[H])C(C([H])([H])[H])(C([H])([H])[H])C([H])([H])[H])C([H])(C(=O)N([H])C2([H])c4c([H])c([H])c([H])c([H])c4C([H])([H])C([H])([H])C2([H])[H])C3([H])[H])C([H])([H])C([H])(C([H])([H])[H])C1([H])[N+]1([H])C([H])([H])C([H])([H])C([H])(N([H])C(=O)N2C([H])([H])C([H])([H])C([H])([H])C([H])(n3nc(-c4c([H])c([H])c(Oc5c([H])c([H])c(F)c([H])c5F)c([H])c4[H])c(C(=O)N([H])[H])c3N([H])[H])C2([H])[H])C([H])([H])C1([H])[H]

>  <smiles>  (76) 
[H]OC([H])([H])C1([H])C([H])([H])[N+]([H])(C([H])([H])C([H])([H])Oc2c([H])c([H])c3c(c2[H])C([H])([H])N(C(=O)C([H])(N([H])C(=O)C([H])(N([H])C([H])([H])[H])C([H])([H])[H])C(C([H])([H])[H])(C([H])([H])[H])C([H])([H])[H])C([H])(C(=O)N([H])C2([H])c4c([H])c([H])c([H])c([H])c4C([H])([H])C([H])([H])C2([H])[H])C3([H])[H])C([H])([H])C([H])(C([H])([H])[H])C1([H])[N+]1([H])C([H])([H])C([H])([H])C([H])(N([H])C(=O)N2C([H])([H])C([H])([H])C([H])([H])C([H])(n3nc(-c4c([H])c([H])c(Oc5c([H])c([H])c(F)c([H])c5F)c([H])c4[H])c(C(=O)N([H])[H])c3N([H])[H])C2([H])[H])C([H])([H])C1([H])[H]

$$$$
77:0:0
     RDKit          3D

 99109  0  0  1  0  0  0  0  0999 V2000
  -31.6580  -17.7840   20.3950 C   0  0  0  0  0  3  0  0  0  0  0  0
  -29.4110  -18.6200   20.3170 C   0  0  0  0  0  3  0  0  0  0  0  0
  -31.2520  -20.1740   19.8310 C   0  0  0  0  0  0  0  0  0  0  0  0
  -32.1320  -19.0760   20.1050 C   0  0  0  0  0  0  0  0  0  0  0  0
  -29.8330  -20.0080   20.0450 C   0  0  0  0  0  0  0  0  0  0  0  0
  -30.2930  -17.4550   20.4320 C   0  0  0  0  0  0  0  0  0  0  0  0
  -33.6560  -19.1940   20.0390 C   0  0  0  0  0  1  0  0  0  0  0  0
  -30.6120  -14.8110   20.4110 C   0  0  0  0  0  0  0  0  0  0  0  0
  -30.3950  -12.5070   19.4510 C   0  0  0  0  0  2  0  0  0  0  0  0
  -29.4860  -12.5530   18.2040 C   0  0  0  0  0  2  0  0  0  0  0  0
  -28.0100  -12.3880   18.6110 C   0  0  0  0  0  2  0  0  0  0  0  0
  -27.6130  -13.2940   19.8080 C   0  0  0  0  0  3  0  0  0  0  0  0
  -28.6550  -13.2500   20.9470 C   0  0  0  0  0  2  0  0  0  0  0  0
  -29.9540  -13.5950   20.3610 N   0  0  0  0  0  0  0  0  0  0  0  0
  -31.8070  -14.8220   20.1090 O   0  0  0  0  0  0  0  0  0  0  0  0
  -29.8890  -16.0060   20.5850 N   0  0  0  0  0  0  0  0  0  0  0  0
  -28.9090  -15.8530   20.7630 H   0  0  0  0  0  0  0  0  0  0  0  0
  -25.2180  -13.8840   20.5010 C   0  0  0  0  0  0  0  0  0  0  0  0
  -24.1470  -13.1130   20.8640 C   0  0  0  0  0  0  0  0  0  0  0  0
  -24.6120  -11.7610   20.8540 C   0  0  0  0  0  0  0  0  0  0  0  0
  -26.2650  -13.0040   20.2860 N   0  0  0  0  0  0  0  0  0  0  0  0
  -25.9080  -11.7220   20.5630 N   0  0  0  0  0  0  0  0  0  0  0  0
  -23.8810  -10.5010   21.0470 C   0  0  0  0  0  0  0  0  0  0  0  0
  -24.3100   -9.5320   21.9810 C   0  0  0  0  0  3  0  0  0  0  0  0
  -23.5760   -8.3380   22.1620 C   0  0  0  0  0  3  0  0  0  0  0  0
  -22.4010   -8.1050   21.4090 C   0  0  0  0  0  0  0  0  0  0  0  0
  -21.9920   -9.0620   20.4640 C   0  0  0  0  0  3  0  0  0  0  0  0
  -22.7250  -10.2460   20.2800 C   0  0  0  0  0  3  0  0  0  0  0  0
  -21.6420   -6.9620   21.4970 O   0  0  0  0  0  0  0  0  0  0  0  0
  -21.6060   -6.2100   22.6430 C   0  0  0  0  0  0  0  0  0  0  0  0
  -21.2140   -6.7600   23.8820 C   0  0  0  0  0  3  0  0  0  0  0  0
  -21.1210   -5.9360   25.0220 C   0  0  0  0  0  3  0  0  0  0  0  0
  -21.4130   -4.5620   24.9240 C   0  0  0  0  0  0  0  0  0  0  0  0
  -21.8000   -4.0120   23.6910 C   0  0  0  0  0  3  0  0  0  0  0  0
  -21.8930   -4.8330   22.5530 C   0  0  0  0  0  0  0  0  0  0  0  0
  -22.2450   -4.2940   21.3610 F   0  0  0  0  0  0  0  0  0  0  0  0
  -21.3180   -3.7690   26.0170 F   0  0  0  0  0  0  0  0  0  0  0  0
  -22.7460  -13.5930   21.1070 C   0  0  0  0  0  0  0  0  0  0  0  0
  -22.0040  -12.9080   21.9690 N   0  0  0  0  0  0  0  0  0  0  0  0
  -22.3180  -14.6120   20.5670 O   0  0  0  0  0  0  0  0  0  0  0  0
  -22.3620  -12.0860   22.4320 H   0  0  0  0  0  0  0  0  0  0  0  0
  -21.0640  -13.2150   22.1750 H   0  0  0  0  0  0  0  0  0  0  0  0
  -25.3820  -15.2520   20.3090 N   0  0  0  0  0  0  0  0  0  0  0  0
  -24.6080  -15.9040   20.3930 H   0  0  0  0  0  0  0  0  0  0  0  0
  -26.2230  -15.6830   19.9470 H   0  0  0  0  0  0  0  0  0  0  0  0
  -32.4280  -22.4890   20.2400 C   0  0  0  0  0  2  0  0  0  0  0  0
  -32.8730  -23.6280   19.3100 C   0  0  0  0  0  2  0  0  0  0  0  0
  -31.3460  -22.2290   18.0700 C   0  0  0  0  0  2  0  0  0  0  0  0
  -31.9320  -21.4430   19.2530 C   0  0  0  0  0  3  0  0  0  0  0  0
  -32.8470  -23.7790   16.8210 C   0  0  0  0  0  1  0  0  0  0  0  0
  -32.0780  -23.5190   18.0580 N   0  0  2  0  0  4  0  0  0  0  0  0
  -31.3760  -24.2420   18.1020 H   0  0  0  0  0  0  0  0  0  0  0  0
  -28.7480  -21.1860   19.7540 C   0  0  0  0  0  3  0  0  0  0  0  0
  -27.5570  -20.6100   19.9240 F   0  0  0  0  0  0  0  0  0  0  0  0
  -27.5240  -23.7360   19.8360 C   0  0  0  0  0  2  0  0  0  0  0  0
  -29.3950  -23.9640   20.6050 C   0  0  0  0  0  2  0  0  0  0  0  0
  -28.5050  -22.6590   20.4770 C   0  0  0  0  0  3  0  0  0  0  0  0
  -28.1460  -24.9200   20.6590 C   0  0  0  0  0  3  0  0  0  0  0  0
  -28.3050  -26.3570   20.2050 O   0  0  0  0  0  0  0  0  0  0  0  0
  -24.6130  -31.8730   23.2430 C   0  0  0  0  0  0  0  0  0  0  0  0
  -27.2060  -27.2480   20.2090 C   0  0  0  0  0  0  0  0  0  0  0  0
  -23.4120  -30.4730   21.6050 C   0  0  0  0  0  3  0  0  0  0  0  0
  -24.8600  -28.9110   20.1830 C   0  0  0  0  0  0  0  0  0  0  0  0
  -25.9580  -30.7730   21.4270 C   0  0  0  0  0  2  0  0  0  0  0  0
  -26.0340  -29.3890   20.7790 C   0  0  0  0  0  0  0  0  0  0  0  0
  -27.2150  -28.5740   20.7680 C   0  0  0  0  0  3  0  0  0  0  0  0
  -26.0080  -26.8360   19.5920 C   0  0  0  0  0  3  0  0  0  0  0  0
  -24.8530  -27.6440   19.5760 C   0  0  0  0  0  3  0  0  0  0  0  0
  -23.6290  -29.7960   20.2260 C   0  0  0  0  0  2  0  0  0  0  0  0
  -24.6800  -31.0590   22.1470 N   0  0  0  0  0  0  0  0  0  0  0  0
  -23.5280  -32.1520   23.7750 O   0  0  0  0  0  0  0  0  0  0  0  0
  -22.7450  -29.4600   22.5650 C   0  0  0  0  0  0  0  0  0  0  0  0
  -21.4180  -29.2850   22.4400 N   0  0  0  0  0  0  0  0  0  0  0  0
  -23.4210  -28.8320   23.3860 O   0  0  0  0  0  0  0  0  0  0  0  0
  -20.9310  -29.8420   21.7510 H   0  0  0  0  0  0  0  0  0  0  0  0
  -18.0400  -28.0880   22.9380 C   0  0  0  0  0  0  0  0  0  0  0  0
  -20.5990  -28.3500   23.2110 C   0  0  0  0  0  3  0  0  0  0  0  0
  -20.7010  -26.9160   22.6370 C   0  0  0  0  0  2  0  0  0  0  0  0
  -19.6010  -26.5920   21.6220 C   0  0  0  0  0  2  0  0  0  0  0  0
  -18.2180  -26.7380   22.2640 C   0  0  0  0  0  2  0  0  0  0  0  0
  -19.1580  -28.8520   23.3680 C   0  0  0  0  0  0  0  0  0  0  0  0
  -18.9380  -30.1150   23.9590 C   0  0  0  0  0  3  0  0  0  0  0  0
  -17.6320  -30.6140   24.1240 C   0  0  0  0  0  3  0  0  0  0  0  0
  -16.5280  -29.8490   23.7100 C   0  0  0  0  0  3  0  0  0  0  0  0
  -16.7340  -28.5880   23.1230 C   0  0  0  0  0  3  0  0  0  0  0  0
  -25.8920  -32.5090   23.8670 C   0  0  0  0  0  3  0  0  0  0  0  0
  -26.4060  -31.7390   25.1460 C   0  0  1  0  0  0  0  0  0  0  0  0
  -25.3120  -31.5040   26.2130 C   0  0  0  0  0  1  0  0  0  0  0  0
  -26.9890  -30.3610   24.7580 C   0  0  0  0  0  1  0  0  0  0  0  0
  -27.5570  -32.5340   25.8080 C   0  0  0  0  0  1  0  0  0  0  0  0
  -25.5790  -33.9060   24.2000 N   0  0  0  0  0  0  0  0  0  0  0  0
  -25.9090  -34.9630   23.4450 C   0  0  0  0  0  0  0  0  0  0  0  0
  -26.5780  -34.8630   22.4130 O   0  0  0  0  0  0  0  0  0  0  0  0
  -24.9830  -34.0570   25.0010 H   0  0  0  0  0  0  0  0  0  0  0  0
  -24.1750  -36.7530   23.1030 C   0  0  0  0  0  1  0  0  0  0  0  0
  -25.4210  -36.3500   23.9080 C   0  0  0  0  0  3  0  0  0  0  0  0
  -27.5580  -37.2370   24.7290 C   0  0  0  0  0  1  0  0  0  0  0  0
  -26.4510  -37.4050   23.7920 N   0  0  0  0  0  0  0  0  0  0  0  0
  -26.0430  -38.3240   23.9440 H   0  0  0  0  0  0  0  0  0  0  0  0
  1  6  1  0
  2  6  2  0
  3  5  2  0
  3  4  1  0
  4  1  2  0
  5  2  1  0
  6 16  1  0
  7  4  1  0
  8 16  1  0
  9 14  1  0
 10 11  1  0
 10  9  1  0
 12 11  1  0
 12 21  1  0
 12 13  1  0
 14  8  1  0
 14 13  1  0
 15  8  2  0
 16 17  1  0
 18 19  2  0
 19 38  1  0
 20 19  1  0
 20 23  1  0
 21 18  1  0
 21 22  1  0
 22 20  2  0
 23 24  1  0
 24 25  2  0
 26 29  1  0
 26 25  1  0
 27 26  2  0
 28 27  1  0
 28 23  2  0
 29 30  1  0
 30 31  1  0
 31 32  2  0
 33 32  1  0
 33 37  1  0
 34 33  2  0
 35 30  2  0
 35 34  1  0
 36 35  1  0
 38 39  1  0
 39 42  1  0
 39 41  1  0
 40 38  2  0
 43 44  1  0
 43 18  1  0
 45 43  1  0
 47 46  1  0
 48 49  1  0
 49  3  1  0
 49 46  1  0
 50 51  1  0
 51 48  1  0
 51 52  1  1
 51 47  1  0
 53 54  1  0
 53  5  1  0
 55 57  1  0
 55 58  1  0
 56 58  1  0
 57 53  1  0
 57 56  1  0
 58 59  1  0
 59 61  1  0
 60 71  2  0
 61 66  1  0
 62 70  1  0
 62 72  1  0
 63 69  1  0
 63 65  1  0
 64 70  1  0
 65 64  1  0
 66 65  2  0
 67 61  2  0
 68 67  1  0
 68 63  2  0
 69 62  1  0
 70 60  1  0
 72 74  2  0
 73 72  1  0
 75 73  1  0
 76 85  2  0
 76 81  1  0
 77 73  1  0
 77 81  1  0
 78 77  1  0
 79 80  1  0
 79 78  1  0
 80 76  1  0
 81 82  2  0
 82 83  1  0
 84 83  2  0
 85 84  1  0
 86 60  1  0
 86 91  1  0
 86 87  1  0
 87 90  1  1
 87 88  1  0
 89 87  1  0
 91 94  1  0
 92 96  1  0
 92 91  1  0
 93 92  2  0
 96 95  1  0
 98 96  1  0
 98 99  1  0
 98 97  1  0
M  ISO  4   8 100  16 100  58 101  59 101
M  END
>  <TORSDO>  (77) 
F 19

>  <SCORE>  (77) 
-14.486

>  <name>  (77) 
77

>  <ligand_id>  (77) 
77

>  <original_smiles>  (77) 
[H]c1c([H])c([H])c2c(c1[H])C([H])([H])C([H])([H])C([H])([H])C2([H])N([H])C(=O)C1([H])N(C(=O)C([H])(N([H])C(=O)C([H])(N([H])C([H])([H])[H])C([H])([H])[H])C(C([H])([H])[H])(C([H])([H])[H])C([H])([H])[H])C([H])([H])c2c([H])c(OC3([H])C([H])([H])C([H])(C([H])(F)c4c([H])c(N([H])C(=O)N5C([H])([H])C([H])([H])C([H])([H])C([H])(n6nc(-c7c([H])c([H])c(Oc8c([H])c([H])c(F)c([H])c8F)c([H])c7[H])c(C(=O)N([H])[H])c6N([H])[H])C5([H])[H])c([H])c(C([H])([H])[H])c4C4([H])C([H])([H])C([H])([H])[N+]([H])(C([H])([H])[H])C4([H])[H])C3([H])[H])c([H])c([H])c2C1([H])[H]

>  <smiles>  (77) 
[H]c1c([H])c([H])c2c(c1[H])C([H])([H])C([H])([H])C([H])([H])C2([H])N([H])C(=O)C1([H])N(C(=O)C([H])(N([H])C(=O)C([H])(N([H])C([H])([H])[H])C([H])([H])[H])C(C([H])([H])[H])(C([H])([H])[H])C([H])([H])[H])C([H])([H])c2c([H])c(OC3([H])C([H])([H])C([H])(C([H])(F)c4c([H])c(N([H])C(=O)N5C([H])([H])C([H])([H])C([H])([H])C([H])(n6nc(-c7c([H])c([H])c(Oc8c([H])c([H])c(F)c([H])c8F)c([H])c7[H])c(C(=O)N([H])[H])c6N([H])[H])C5([H])[H])c([H])c(C([H])([H])[H])c4C4([H])C([H])([H])C([H])([H])[N+]([H])(C([H])([H])[H])C4([H])[H])C3([H])[H])c([H])c([H])c2C1([H])[H]

$$$$
78:0:0
     RDKit          3D

 94103  0  0  1  0  0  0  0  0999 V2000
  -29.4090  -22.0040   19.5930 C   0  0  0  0  0  3  0  0  0  0  0  0
  -28.0560  -20.3530   18.4690 C   0  0  0  0  0  3  0  0  0  0  0  0
  -29.2290  -20.5600   19.2240 C   0  0  0  0  0  0  0  0  0  0  0  0
  -28.4530  -23.1340   19.3440 C   0  0  0  0  0  0  0  0  0  0  0  0
  -27.2320  -22.6790   18.7770 C   0  0  0  0  0  0  0  0  0  0  0  0
  -27.0580  -21.3490   18.2980 C   0  0  0  0  0  0  0  0  0  0  0  0
  -26.0700  -23.6320   18.6060 C   0  0  0  0  0  1  0  0  0  0  0  0
  -31.2070  -19.6190   20.6150 C   0  0  0  0  0  1  0  0  0  0  0  0
  -30.2030  -19.2190   19.5260 C   0  0  0  0  0  3  0  0  0  0  0  0
  -31.0010  -15.0790   19.6190 C   0  0  0  0  0  0  0  0  0  0  0  0
  -30.7390  -12.7010   18.7470 C   0  0  0  0  0  2  0  0  0  0  0  0
  -29.7090  -12.6520   17.5930 C   0  0  0  0  0  2  0  0  0  0  0  0
  -28.2790  -12.4860   18.1390 C   0  0  0  0  0  2  0  0  0  0  0  0
  -27.9940  -13.4310   19.3310 C   0  0  0  0  0  3  0  0  0  0  0  0
  -29.1370  -13.4430   20.3680 C   0  0  0  0  0  2  0  0  0  0  0  0
  -30.3670  -13.8280   19.6590 N   0  0  0  0  0  0  0  0  0  0  0  0
  -32.1040  -15.1080   19.0590 O   0  0  0  0  0  0  0  0  0  0  0  0
  -29.5320  -17.1610   22.2400 C   0  0  0  0  0  2  0  0  0  0  0  0
  -28.7210  -17.6610   21.0550 C   0  0  0  0  0  2  0  0  0  0  0  0
  -30.6630  -16.3220   21.6600 C   0  0  0  0  0  2  0  0  0  0  0  0
  -29.6540  -17.6090   19.8300 C   0  0  0  0  0  3  0  0  0  0  0  0
  -30.4670  -16.2730   20.2100 N   0  0  0  0  0  0  0  0  0  0  0  0
  -25.7110  -14.0690   20.2920 C   0  0  0  0  0  0  0  0  0  0  0  0
  -24.6550  -13.3200   20.7360 C   0  0  0  0  0  0  0  0  0  0  0  0
  -25.0610  -11.9570   20.6210 C   0  0  0  0  0  0  0  0  0  0  0  0
  -26.6950  -13.1630   19.9380 N   0  0  0  0  0  0  0  0  0  0  0  0
  -26.3190  -11.8840   20.1990 N   0  0  0  0  0  0  0  0  0  0  0  0
  -24.3010  -10.7160   20.8290 C   0  0  0  0  0  0  0  0  0  0  0  0
  -24.7220   -9.7350   21.7560 C   0  0  0  0  0  3  0  0  0  0  0  0
  -23.9610   -8.5640   21.9550 C   0  0  0  0  0  3  0  0  0  0  0  0
  -22.7620   -8.3650   21.2290 C   0  0  0  0  0  0  0  0  0  0  0  0
  -22.3600   -9.3300   20.2870 C   0  0  0  0  0  3  0  0  0  0  0  0
  -23.1230  -10.4930   20.0870 C   0  0  0  0  0  3  0  0  0  0  0  0
  -21.9700   -7.2460   21.3390 O   0  0  0  0  0  0  0  0  0  0  0  0
  -21.8560   -6.5590   22.5210 C   0  0  0  0  0  0  0  0  0  0  0  0
  -21.4110   -7.1850   23.7060 C   0  0  0  0  0  3  0  0  0  0  0  0
  -21.2420   -6.4270   24.8820 C   0  0  0  0  0  3  0  0  0  0  0  0
  -21.5070   -5.0430   24.8730 C   0  0  0  0  0  0  0  0  0  0  0  0
  -21.9450   -4.4190   23.6920 C   0  0  0  0  0  3  0  0  0  0  0  0
  -22.1150   -5.1750   22.5190 C   0  0  0  0  0  0  0  0  0  0  0  0
  -22.5170   -4.5640   21.3790 F   0  0  0  0  0  0  0  0  0  0  0  0
  -21.3380   -4.3120   26.0000 F   0  0  0  0  0  0  0  0  0  0  0  0
  -23.3080  -13.8410   21.1440 C   0  0  0  0  0  0  0  0  0  0  0  0
  -22.6510  -13.1650   22.0810 N   0  0  0  0  0  0  0  0  0  0  0  0
  -22.8520  -14.8810   20.6680 O   0  0  0  0  0  0  0  0  0  0  0  0
  -23.0340  -12.3220   22.4820 H   0  0  0  0  0  0  0  0  0  0  0  0
  -21.7520  -13.4930   22.4030 H   0  0  0  0  0  0  0  0  0  0  0  0
  -25.9090  -15.4360   20.1350 N   0  0  0  0  0  0  0  0  0  0  0  0
  -25.1790  -16.1170   20.3210 H   0  0  0  0  0  0  0  0  0  0  0  0
  -26.7400  -15.8410   19.7270 H   0  0  0  0  0  0  0  0  0  0  0  0
  -25.6200  -19.8080   17.0920 C   0  0  0  0  0  1  0  0  0  0  0  0
  -25.8740  -21.1020   17.6280 O   0  0  0  0  0  0  0  0  0  0  0  0
  -28.7570  -24.7880   19.3390 C   0  0  0  0  0  2  0  0  0  0  0  0
  -28.3090  -25.9670   20.2820 O   0  0  0  0  0  0  0  0  0  0  0  0
  -24.5110  -31.6280   23.1030 C   0  0  0  0  0  0  0  0  0  0  0  0
  -27.2720  -26.9630   20.0970 C   0  0  0  0  0  0  0  0  0  0  0  0
  -23.4020  -30.2280   21.4070 C   0  0  0  0  0  3  0  0  0  0  0  0
  -24.9290  -28.6980   20.0010 C   0  0  0  0  0  0  0  0  0  0  0  0
  -25.9550  -30.5230   21.3500 C   0  0  0  0  0  2  0  0  0  0  0  0
  -26.0700  -29.1370   20.6850 C   0  0  0  0  0  0  0  0  0  0  0  0
  -27.2300  -28.2730   20.7370 C   0  0  0  0  0  3  0  0  0  0  0  0
  -26.1280  -26.6610   19.3300 C   0  0  0  0  0  3  0  0  0  0  0  0
  -24.9740  -27.4770   19.3100 C   0  0  0  0  0  3  0  0  0  0  0  0
  -23.6850  -29.5760   20.0260 C   0  0  0  0  0  2  0  0  0  0  0  0
  -24.6410  -30.8160   22.0100 N   0  0  0  0  0  0  0  0  0  0  0  0
  -23.4000  -31.8890   23.5910 O   0  0  0  0  0  0  0  0  0  0  0  0
  -22.7070  -29.1980   22.3320 C   0  0  0  0  0  0  0  0  0  0  0  0
  -21.3780  -29.0390   22.1880 N   0  0  0  0  0  0  0  0  0  0  0  0
  -23.3650  -28.5450   23.1450 O   0  0  0  0  0  0  0  0  0  0  0  0
  -20.9020  -29.6120   21.5040 H   0  0  0  0  0  0  0  0  0  0  0  0
  -17.9790  -27.8870   22.6690 C   0  0  0  0  0  0  0  0  0  0  0  0
  -20.5460  -28.0840   22.9260 C   0  0  0  0  0  3  0  0  0  0  0  0
  -20.6120  -26.6760   22.2910 C   0  0  0  0  0  2  0  0  0  0  0  0
  -19.5000  -26.4250   21.2700 C   0  0  0  0  0  2  0  0  0  0  0  0
  -18.1220  -26.5710   21.9210 C   0  0  0  0  0  2  0  0  0  0  0  0
  -19.1170  -28.6060   23.1250 C   0  0  0  0  0  0  0  0  0  0  0  0
  -18.9280  -29.8410   23.7830 C   0  0  0  0  0  3  0  0  0  0  0  0
  -17.6360  -30.3600   23.9900 C   0  0  0  0  0  3  0  0  0  0  0  0
  -16.5130  -29.6380   23.5490 C   0  0  0  0  0  3  0  0  0  0  0  0
  -16.6860  -28.4030   22.8960 C   0  0  0  0  0  3  0  0  0  0  0  0
  -25.7500  -32.2850   23.7840 C   0  0  0  0  0  3  0  0  0  0  0  0
  -26.2080  -31.5340   25.0950 C   0  0  1  0  0  0  0  0  0  0  0  0
  -25.0650  -31.2920   26.1100 C   0  0  0  0  0  1  0  0  0  0  0  0
  -26.8290  -30.1600   24.7520 C   0  0  0  0  0  1  0  0  0  0  0  0
  -27.3150  -32.3480   25.8070 C   0  0  0  0  0  1  0  0  0  0  0  0
  -25.4070  -33.6830   24.0940 N   0  0  0  0  0  0  0  0  0  0  0  0
  -25.7540  -34.7390   23.3450 C   0  0  0  0  0  0  0  0  0  0  0  0
  -26.4620  -34.6380   22.3390 O   0  0  0  0  0  0  0  0  0  0  0  0
  -24.7800  -33.8360   24.8700 H   0  0  0  0  0  0  0  0  0  0  0  0
  -24.0140  -36.5100   22.9310 C   0  0  0  0  0  1  0  0  0  0  0  0
  -25.2360  -36.1250   23.7790 C   0  0  0  0  0  3  0  0  0  0  0  0
  -27.3350  -37.0420   24.6640 C   0  0  0  0  0  1  0  0  0  0  0  0
  -26.2580  -37.1910   23.6890 N   0  0  0  0  0  0  0  0  0  0  0  0
  -25.8360  -38.1050   23.8190 H   0  0  0  0  0  0  0  0  0  0  0  0
  2  3  1  0
  3  9  1  0
  3  1  2  0
  4  1  1  0
  5  4  2  0
  6  2  2  0
  6  5  1  0
  7  5  1  0
  9  8  1  0
 10 16  1  0
 10 22  1  0
 11 16  1  0
 12 13  1  0
 12 11  1  0
 14 13  1  0
 14 26  1  0
 14 15  1  0
 16 15  1  0
 17 10  2  0
 19 18  1  0
 20 18  1  0
 21  9  1  0
 21 22  1  0
 21 19  1  0
 22 20  1  0
 23 24  2  0
 24 43  1  0
 25 24  1  0
 25 28  1  0
 26 27  1  0
 26 23  1  0
 27 25  2  0
 28 29  1  0
 29 30  2  0
 31 34  1  0
 31 30  1  0
 32 31  2  0
 33 32  1  0
 33 28  2  0
 34 35  1  0
 35 36  1  0
 36 37  2  0
 38 37  1  0
 38 42  1  0
 39 38  2  0
 40 35  2  0
 40 39  1  0
 41 40  1  0
 43 44  1  0
 44 47  1  0
 44 46  1  0
 45 43  2  0
 48 23  1  0
 48 49  1  0
 50 48  1  0
 51 52  1  0
 52  6  1  0
 53  4  1  0
 53 54  1  0
 55 66  2  0
 56 54  1  0
 56 61  1  0
 57 65  1  0
 57 67  1  0
 58 64  1  0
 58 60  1  0
 59 65  1  0
 60 61  2  0
 60 59  1  0
 62 56  2  0
 63 62  1  0
 63 58  2  0
 64 57  1  0
 65 55  1  0
 67 69  2  0
 68 67  1  0
 70 68  1  0
 71 80  2  0
 71 76  1  0
 72 68  1  0
 72 76  1  0
 73 72  1  0
 74 75  1  0
 74 73  1  0
 75 71  1  0
 76 77  2  0
 77 78  1  0
 79 78  2  0
 80 79  1  0
 81 55  1  0
 81 86  1  0
 81 82  1  0
 82 85  1  1
 82 83  1  0
 84 82  1  0
 86 89  1  0
 87 91  1  0
 87 86  1  0
 88 87  2  0
 91 90  1  0
 93 91  1  0
 93 94  1  0
 93 92  1  0
M  ISO  4  10 100  22 100  53 101  54 101
M  END
>  <TORSDO>  (78) 
F 19

>  <SCORE>  (78) 
-12.788

>  <name>  (78) 
78

>  <ligand_id>  (78) 
78

>  <original_smiles>  (78) 
[H]c1c([H])c([H])c2c(c1[H])C([H])([H])C([H])([H])C([H])([H])C2([H])N([H])C(=O)C1([H])N(C(=O)C([H])(N([H])C(=O)C([H])(N([H])C([H])([H])[H])C([H])([H])[H])C(C([H])([H])[H])(C([H])([H])[H])C([H])([H])[H])C([H])([H])c2c([H])c(OC([H])([H])c3c([H])c(C([H])(C([H])([H])[H])C4([H])N(C(=O)N5C([H])([H])C([H])([H])C([H])([H])C([H])(n6nc(-c7c([H])c([H])c(Oc8c([H])c([H])c(F)c([H])c8F)c([H])c7[H])c(C(=O)N([H])[H])c6N([H])[H])C5([H])[H])C([H])([H])C([H])([H])C4([H])[H])c([H])c(OC([H])([H])[H])c3C([H])([H])[H])c([H])c([H])c2C1([H])[H]

>  <smiles>  (78) 
[H]c1c([H])c([H])c2c(c1[H])C([H])([H])C([H])([H])C([H])([H])C2([H])N([H])C(=O)C1([H])N(C(=O)C([H])(N([H])C(=O)C([H])(N([H])C([H])([H])[H])C([H])([H])[H])C(C([H])([H])[H])(C([H])([H])[H])C([H])([H])[H])C([H])([H])c2c([H])c(OC([H])([H])c3c([H])c(C([H])(C([H])([H])[H])C4([H])N(C(=O)N5C([H])([H])C([H])([H])C([H])([H])C([H])(n6nc(-c7c([H])c([H])c(Oc8c([H])c([H])c(F)c([H])c8F)c([H])c7[H])c(C(=O)N([H])[H])c6N([H])[H])C5([H])[H])C([H])([H])C([H])([H])C4([H])[H])c([H])c(OC([H])([H])[H])c3C([H])([H])[H])c([H])c([H])c2C1([H])[H]

$$$$
79:0:0
     RDKit          3D

100111  0  0  1  0  0  0  0  0999 V2000
  -29.6810  -21.7400   20.4650 C   0  0  0  0  0  3  0  0  0  0  0  0
  -29.3040  -23.0910   20.8940 C   0  0  0  0  0  0  0  0  0  0  0  0
  -30.0550  -20.7710   21.3360 C   0  0  0  0  0  0  0  0  0  0  0  0
  -29.3170  -23.3310   22.2320 C   0  0  0  0  0  0  0  0  0  0  0  0
  -30.1400  -21.0800   22.7710 C   0  0  0  0  0  0  0  0  0  0  0  0
  -29.8290  -22.3620   23.1620 N   0  0  0  0  0  0  0  0  0  0  0  0
  -30.5170  -20.2110   23.5670 O   0  0  0  0  0  0  0  0  0  0  0  0
  -27.4410  -25.1930   22.3290 C   0  0  0  0  0  2  0  0  0  0  0  0
  -27.5390  -24.6260   23.7160 C   0  0  0  0  0  2  0  0  0  0  0  0
  -28.7560  -24.6020   22.8120 C   0  0  0  0  0  3  0  0  0  0  0  0
  -30.0980  -24.8200   19.1520 C   0  0  0  0  0  2  0  0  0  0  0  0
  -28.9500  -24.1530   19.8620 C   0  0  0  0  0  3  0  0  0  0  0  0
  -29.1920  -25.6850   19.9990 C   0  0  0  0  0  3  0  0  0  0  0  0
  -28.6960  -26.6660   19.0690 O   0  0  0  0  0  0  0  0  0  0  0  0
  -25.1560  -31.4090   23.1410 C   0  0  0  0  0  0  0  0  0  0  0  0
  -27.5360  -27.3500   19.3710 C   0  0  0  0  0  0  0  0  0  0  0  0
  -23.8220  -30.2090   21.4390 C   0  0  0  0  0  3  0  0  0  0  0  0
  -25.1570  -28.8450   19.7430 C   0  0  0  0  0  0  0  0  0  0  0  0
  -26.3280  -30.5910   21.0940 C   0  0  0  0  0  2  0  0  0  0  0  0
  -26.3610  -29.2980   20.3000 C   0  0  0  0  0  0  0  0  0  0  0  0
  -27.5530  -28.5570   20.1130 C   0  0  0  0  0  3  0  0  0  0  0  0
  -26.3180  -26.9120   18.8160 C   0  0  0  0  0  3  0  0  0  0  0  0
  -25.1300  -27.6510   19.0000 C   0  0  0  0  0  3  0  0  0  0  0  0
  -23.9270  -29.6940   19.9780 C   0  0  0  0  0  2  0  0  0  0  0  0
  -25.1240  -30.7470   21.9500 N   0  0  0  0  0  0  0  0  0  0  0  0
  -24.1210  -31.6110   23.7920 O   0  0  0  0  0  0  0  0  0  0  0  0
  -23.2380  -29.0790   22.3190 C   0  0  0  0  0  0  0  0  0  0  0  0
  -21.9230  -28.8400   22.1950 N   0  0  0  0  0  0  0  0  0  0  0  0
  -23.9670  -28.4210   23.0660 O   0  0  0  0  0  0  0  0  0  0  0  0
  -21.3950  -29.4290   21.5660 H   0  0  0  0  0  0  0  0  0  0  0  0
  -18.6620  -27.3080   22.4910 C   0  0  0  0  0  0  0  0  0  0  0  0
  -21.1690  -27.7990   22.8910 C   0  0  0  0  0  3  0  0  0  0  0  0
  -21.4350  -26.4100   22.2660 C   0  0  0  0  0  2  0  0  0  0  0  0
  -20.4150  -26.0250   21.1900 C   0  0  0  0  0  2  0  0  0  0  0  0
  -18.9980  -26.0110   21.7740 C   0  0  0  0  0  2  0  0  0  0  0  0
  -19.6830  -28.1560   23.0000 C   0  0  0  0  0  0  0  0  0  0  0  0
  -19.3170  -29.3670   23.6270 C   0  0  0  0  0  3  0  0  0  0  0  0
  -17.9640  -29.7360   23.7460 C   0  0  0  0  0  3  0  0  0  0  0  0
  -16.9580  -28.8880   23.2540 C   0  0  0  0  0  3  0  0  0  0  0  0
  -17.3070  -27.6750   22.6340 C   0  0  0  0  0  3  0  0  0  0  0  0
  -26.4870  -31.9660   23.7340 C   0  0  0  0  0  3  0  0  0  0  0  0
  -26.2080  -33.3020   24.2780 N   0  0  0  0  0  0  0  0  0  0  0  0
  -26.5210  -34.4520   23.6650 C   0  0  0  0  0  0  0  0  0  0  0  0
  -27.1440  -34.4960   22.6010 O   0  0  0  0  0  0  0  0  0  0  0  0
  -25.6490  -33.3410   25.1180 H   0  0  0  0  0  0  0  0  0  0  0  0
  -24.8060  -36.2920   23.6340 C   0  0  0  0  0  1  0  0  0  0  0  0
  -26.0640  -35.7620   24.3390 C   0  0  0  0  0  3  0  0  0  0  0  0
  -28.2320  -36.4900   25.2290 C   0  0  0  0  0  1  0  0  0  0  0  0
  -27.1060  -36.8100   24.3550 N   0  0  0  0  0  0  0  0  0  0  0  0
  -26.7180  -37.7010   24.6540 H   0  0  0  0  0  0  0  0  0  0  0  0
  -27.1140  -31.0320   24.8410 C   0  0  1  0  0  0  0  0  0  0  0  0
  -26.1190  -30.6410   25.9590 C   0  0  0  0  0  1  0  0  0  0  0  0
  -27.6520  -29.7280   24.2100 C   0  0  0  0  0  1  0  0  0  0  0  0
  -28.3260  -31.7360   25.4970 C   0  0  0  0  0  1  0  0  0  0  0  0
  -31.6770  -22.6440   24.8980 C   0  0  0  0  0  1  0  0  0  0  0  0
  -29.2790  -22.1470   25.6390 C   0  0  0  0  0  1  0  0  0  0  0  0
  -30.1750  -22.7910   24.5600 C   0  0  0  0  0  3  0  0  0  0  0  0
  -30.5170  -19.4890   20.9860 N   0  0  0  0  0  0  0  0  0  0  0  0
  -31.1240  -19.1800   21.7430 H   0  0  0  0  0  0  0  0  0  0  0  0
  -29.4670  -18.0210   19.1600 C   0  0  0  0  0  2  0  0  0  0  0  0
  -29.7080  -18.3210   20.6120 C   0  0  0  0  0  3  0  0  0  0  0  0
  -30.3820  -17.1040   19.9480 C   0  0  0  0  0  3  0  0  0  0  0  0
  -30.6300  -14.6320   19.8150 C   0  0  0  0  0  0  0  0  0  0  0  0
  -30.2610  -12.4010   18.8240 C   0  0  0  0  0  2  0  0  0  0  0  0
  -29.2810  -12.5520   17.6410 C   0  0  0  0  0  2  0  0  0  0  0  0
  -27.8240  -12.4550   18.1340 C   0  0  0  0  0  2  0  0  0  0  0  0
  -27.5430  -13.3620   19.3620 C   0  0  0  0  0  3  0  0  0  0  0  0
  -28.6390  -13.2080   20.4400 C   0  0  0  0  0  2  0  0  0  0  0  0
  -29.9390  -13.4570   19.7990 N   0  0  0  0  0  0  0  0  0  0  0  0
  -31.7650  -14.7330   19.3410 O   0  0  0  0  0  0  0  0  0  0  0  0
  -29.9330  -15.7410   20.1640 N   0  0  0  0  0  0  0  0  0  0  0  0
  -29.0010  -15.6020   20.5260 H   0  0  0  0  0  0  0  0  0  0  0  0
  -25.1920  -14.0340   20.1570 C   0  0  0  0  0  0  0  0  0  0  0  0
  -24.1260  -13.2960   20.5930 C   0  0  0  0  0  0  0  0  0  0  0  0
  -24.5580  -11.9340   20.5820 C   0  0  0  0  0  0  0  0  0  0  0  0
  -26.2080  -13.1260   19.9060 N   0  0  0  0  0  0  0  0  0  0  0  0
  -25.8330  -11.8590   20.2210 N   0  0  0  0  0  0  0  0  0  0  0  0
  -23.8150  -10.6930   20.8390 C   0  0  0  0  0  0  0  0  0  0  0  0
  -24.2680   -9.7420   21.7800 C   0  0  0  0  0  3  0  0  0  0  0  0
  -23.5250   -8.5660   22.0230 C   0  0  0  0  0  3  0  0  0  0  0  0
  -22.3170   -8.3320   21.3240 C   0  0  0  0  0  0  0  0  0  0  0  0
  -21.8840   -9.2710   20.3710 C   0  0  0  0  0  3  0  0  0  0  0  0
  -22.6270  -10.4390   20.1260 C   0  0  0  0  0  3  0  0  0  0  0  0
  -21.5430   -7.2070   21.4740 O   0  0  0  0  0  0  0  0  0  0  0  0
  -21.5320   -6.4940   22.6460 C   0  0  0  0  0  0  0  0  0  0  0  0
  -21.1950   -7.0930   23.8810 C   0  0  0  0  0  3  0  0  0  0  0  0
  -21.1280   -6.3070   25.0490 C   0  0  0  0  0  3  0  0  0  0  0  0
  -21.3890   -4.9250   24.9870 C   0  0  0  0  0  0  0  0  0  0  0  0
  -21.7200   -4.3270   23.7570 C   0  0  0  0  0  3  0  0  0  0  0  0
  -21.7890   -5.1090   22.5910 C   0  0  0  0  0  0  0  0  0  0  0  0
  -22.0870   -4.5230   21.4050 F   0  0  0  0  0  0  0  0  0  0  0  0
  -21.3180   -4.1700   26.1060 F   0  0  0  0  0  0  0  0  0  0  0  0
  -22.7510  -13.8110   20.9110 C   0  0  0  0  0  0  0  0  0  0  0  0
  -22.0560  -13.1660   21.8420 N   0  0  0  0  0  0  0  0  0  0  0  0
  -22.3060  -14.8190   20.3670 O   0  0  0  0  0  0  0  0  0  0  0  0
  -22.4310  -12.3500   22.3020 H   0  0  0  0  0  0  0  0  0  0  0  0
  -21.1360  -13.4940   22.0970 H   0  0  0  0  0  0  0  0  0  0  0  0
  -25.3760  -15.3960   19.9300 N   0  0  0  0  0  0  0  0  0  0  0  0
  -24.6220  -16.0660   20.0390 H   0  0  0  0  0  0  0  0  0  0  0  0
  -26.2130  -15.8030   19.5320 H   0  0  0  0  0  0  0  0  0  0  0  0
  1  2  1  0
  1  3  2  0
  2  4  2  0
  3  5  1  0
  4 10  1  0
  4  6  1  0
  5  6  1  0
  5  7  2  0
  6 57  1  0
  8 10  1  0
  8  9  1  0
 10  9  1  0
 11 12  1  0
 11 13  1  0
 12 13  1  0
 12  2  1  0
 13 14  1  0
 14 16  1  0
 15 26  2  0
 16 21  1  0
 17 25  1  0
 17 27  1  0
 18 24  1  0
 18 20  1  0
 19 25  1  0
 20 19  1  0
 21 20  2  0
 22 23  1  0
 22 16  2  0
 23 18  2  0
 24 17  1  0
 25 15  1  0
 27 29  2  0
 28 27  1  0
 30 28  1  0
 31 40  2  0
 31 36  1  0
 32 28  1  0
 32 36  1  0
 33 32  1  0
 34 35  1  0
 34 33  1  0
 35 31  1  0
 36 37  2  0
 37 38  1  0
 39 38  2  0
 40 39  1  0
 41 15  1  0
 41 42  1  0
 41 51  1  0
 42 45  1  0
 43 42  1  0
 43 47  1  0
 44 43  2  0
 47 46  1  0
 47 49  1  0
 49 50  1  0
 49 48  1  0
 51 54  1  1
 51 52  1  0
 53 51  1  0
 57 55  1  0
 57 56  1  0
 58  3  1  0
 58 59  1  0
 60 62  1  0
 60 61  1  0
 61 58  1  0
 62 71  1  0
 62 61  1  0
 63 71  1  0
 64 69  1  0
 65 66  1  0
 65 64  1  0
 67 66  1  0
 67 76  1  0
 67 68  1  0
 69 63  1  0
 69 68  1  0
 70 63  2  0
 71 72  1  0
 73 74  2  0
 74 93  1  0
 75 74  1  0
 75 78  1  0
 76 73  1  0
 76 77  1  0
 77 75  2  0
 78 79  1  0
 79 80  2  0
 81 84  1  0
 81 80  1  0
 82 81  2  0
 83 82  1  0
 83 78  2  0
 84 85  1  0
 85 86  1  0
 86 87  2  0
 88 87  1  0
 88 92  1  0
 89 88  2  0
 90 85  2  0
 90 89  1  0
 91 90  1  0
 93 94  1  0
 94 97  1  0
 94 96  1  0
 95 93  2  0
 98 99  1  0
 98 73  1  0
100 98  1  0
M  ISO  4  13 101  14 101  63 100  71 100
M  END
>  <TORSDO>  (79) 
F 21

>  <SCORE>  (79) 
-6.829

>  <name>  (79) 
79

>  <ligand_id>  (79) 
79

>  <original_smiles>  (79) 
[H]c1c([H])c([H])c2c(c1[H])C([H])([H])C([H])([H])C([H])([H])C2([H])N([H])C(=O)C1([H])N(C(=O)C([H])(N([H])C(=O)C([H])(N([H])C([H])([H])[H])C([H])([H])[H])C(C([H])([H])[H])(C([H])([H])[H])C([H])([H])[H])C([H])([H])c2c([H])c(OC3([H])C([H])([H])C3([H])c3c([H])c(N([H])C4([H])C([H])([H])C4([H])N([H])C(=O)N4C([H])([H])C([H])([H])C([H])([H])C([H])(n5nc(-c6c([H])c([H])c(Oc7c([H])c([H])c(F)c([H])c7F)c([H])c6[H])c(C(=O)N([H])[H])c5N([H])[H])C4([H])[H])c(=O)n(C([H])(C([H])([H])[H])C([H])([H])[H])c3C3([H])C([H])([H])C3([H])[H])c([H])c([H])c2C1([H])[H]

>  <smiles>  (79) 
[H]c1c([H])c([H])c2c(c1[H])C([H])([H])C([H])([H])C([H])([H])C2([H])N([H])C(=O)C1([H])N(C(=O)C([H])(N([H])C(=O)C([H])(N([H])C([H])([H])[H])C([H])([H])[H])C(C([H])([H])[H])(C([H])([H])[H])C([H])([H])[H])C([H])([H])c2c([H])c(OC3([H])C([H])([H])C3([H])c3c([H])c(N([H])C4([H])C([H])([H])C4([H])N([H])C(=O)N4C([H])([H])C([H])([H])C([H])([H])C([H])(n5nc(-c6c([H])c([H])c(Oc7c([H])c([H])c(F)c([H])c7F)c([H])c6[H])c(C(=O)N([H])[H])c5N([H])[H])C4([H])[H])c(=O)n(C([H])(C([H])([H])[H])C([H])([H])[H])c3C3([H])C([H])([H])C3([H])[H])c([H])c([H])c2C1([H])[H]

$$$$
80:0:0
     RDKit          3D

 93102  0  0  1  0  0  0  0  0999 V2000
  -28.9970  -21.4300   21.4940 C   0  0  0  0  0  3  0  0  0  0  0  0
  -29.0600  -23.1780   19.3210 C   0  0  0  0  0  3  0  0  0  0  0  0
  -29.3990  -20.8540   20.2610 C   0  0  0  0  0  0  0  0  0  0  0  0
  -28.6360  -22.8100   21.6440 C   0  0  0  0  0  0  0  0  0  0  0  0
  -28.6700  -23.7540   20.5620 C   0  0  0  0  0  0  0  0  0  0  0  0
  -29.4070  -21.7770   19.1640 C   0  0  0  0  0  0  0  0  0  0  0  0
  -28.1780  -23.2550   23.0250 C   0  0  0  0  0  1  0  0  0  0  0  0
  -30.8530  -14.9130   19.9340 C   0  0  0  0  0  0  0  0  0  0  0  0
  -30.5590  -12.6450   18.9230 C   0  0  0  0  0  2  0  0  0  0  0  0
  -29.5530  -12.7030   17.7560 C   0  0  0  0  0  2  0  0  0  0  0  0
  -28.1130  -12.5280   18.2750 C   0  0  0  0  0  2  0  0  0  0  0  0
  -27.8090  -13.4190   19.5100 C   0  0  0  0  0  3  0  0  0  0  0  0
  -28.9340  -13.3620   20.5640 C   0  0  0  0  0  2  0  0  0  0  0  0
  -30.1840  -13.7090   19.8840 N   0  0  0  0  0  0  0  0  0  0  0  0
  -32.0230  -14.9640   19.5410 O   0  0  0  0  0  0  0  0  0  0  0  0
  -29.9960  -18.4500   21.4260 C   0  0  0  0  0  2  0  0  0  0  0  0
  -29.1410  -18.3540   19.1810 C   0  0  0  0  0  2  0  0  0  0  0  0
  -30.6750  -17.0240   21.2390 C   0  0  0  0  0  2  0  0  0  0  0  0
  -29.8410  -16.9460   18.9740 C   0  0  0  0  0  2  0  0  0  0  0  0
  -29.8960  -19.3240   20.1360 C   0  0  0  0  0  3  0  0  0  0  0  0
  -30.1590  -16.1060   20.1730 N   0  0  0  0  0  0  0  0  0  0  0  0
  -25.4840  -13.9930   20.4240 C   0  0  0  0  0  0  0  0  0  0  0  0
  -24.4400  -13.2120   20.8370 C   0  0  0  0  0  0  0  0  0  0  0  0
  -24.8900  -11.8590   20.7290 C   0  0  0  0  0  0  0  0  0  0  0  0
  -26.5020  -13.1180   20.0850 N   0  0  0  0  0  0  0  0  0  0  0  0
  -26.1560  -11.8260   20.3310 N   0  0  0  0  0  0  0  0  0  0  0  0
  -24.1670  -10.5940   20.9260 C   0  0  0  0  0  0  0  0  0  0  0  0
  -24.6110   -9.6250   21.8520 C   0  0  0  0  0  3  0  0  0  0  0  0
  -23.8880   -8.4270   22.0370 C   0  0  0  0  0  3  0  0  0  0  0  0
  -22.7060   -8.1900   21.2960 C   0  0  0  0  0  0  0  0  0  0  0  0
  -22.2810   -9.1460   20.3590 C   0  0  0  0  0  3  0  0  0  0  0  0
  -23.0040  -10.3370   20.1720 C   0  0  0  0  0  3  0  0  0  0  0  0
  -21.9550   -7.0420   21.3900 O   0  0  0  0  0  0  0  0  0  0  0  0
  -21.8720   -6.3300   22.5600 C   0  0  0  0  0  0  0  0  0  0  0  0
  -21.3610   -6.9010   23.7450 C   0  0  0  0  0  3  0  0  0  0  0  0
  -21.2300   -6.1130   24.9070 C   0  0  0  0  0  3  0  0  0  0  0  0
  -21.6000   -4.7560   24.8820 C   0  0  0  0  0  0  0  0  0  0  0  0
  -22.1030   -4.1830   23.7010 C   0  0  0  0  0  3  0  0  0  0  0  0
  -22.2360   -4.9680   22.5420 C   0  0  0  0  0  0  0  0  0  0  0  0
  -22.7020   -4.4080   21.4000 F   0  0  0  0  0  0  0  0  0  0  0  0
  -21.4660   -3.9950   25.9930 F   0  0  0  0  0  0  0  0  0  0  0  0
  -23.0680  -13.6860   21.2180 C   0  0  0  0  0  0  0  0  0  0  0  0
  -22.3920  -12.9640   22.1040 N   0  0  0  0  0  0  0  0  0  0  0  0
  -22.6060  -14.7320   20.7640 O   0  0  0  0  0  0  0  0  0  0  0  0
  -22.7790  -12.1160   22.4920 H   0  0  0  0  0  0  0  0  0  0  0  0
  -21.4750  -13.2620   22.4000 H   0  0  0  0  0  0  0  0  0  0  0  0
  -25.6470  -15.3680   20.2860 N   0  0  0  0  0  0  0  0  0  0  0  0
  -24.9000  -16.0260   20.4770 H   0  0  0  0  0  0  0  0  0  0  0  0
  -26.4940  -15.8130   19.9540 H   0  0  0  0  0  0  0  0  0  0  0  0
  -29.5000  -22.0030   16.7730 C   0  0  0  0  0  1  0  0  0  0  0  0
  -29.7690  -21.2470   17.9460 O   0  0  0  0  0  0  0  0  0  0  0  0
  -28.1320  -25.2540   20.7840 C   0  0  0  0  0  2  0  0  0  0  0  0
  -28.4300  -26.4730   19.9570 O   0  0  0  0  0  0  0  0  0  0  0  0
  -24.6990  -31.8500   23.1210 C   0  0  0  0  0  0  0  0  0  0  0  0
  -27.3730  -27.4100   19.9200 C   0  0  0  0  0  0  0  0  0  0  0  0
  -23.5210  -30.4870   21.4330 C   0  0  0  0  0  3  0  0  0  0  0  0
  -25.0000  -29.0190   19.9450 C   0  0  0  0  0  0  0  0  0  0  0  0
  -26.0580  -30.8520   21.2610 C   0  0  0  0  0  2  0  0  0  0  0  0
  -26.1630  -29.4950   20.5650 C   0  0  0  0  0  0  0  0  0  0  0  0
  -27.3570  -28.7040   20.5420 C   0  0  0  0  0  3  0  0  0  0  0  0
  -26.1970  -27.0120   19.2540 C   0  0  0  0  0  3  0  0  0  0  0  0
  -25.0220  -27.7870   19.2720 C   0  0  0  0  0  3  0  0  0  0  0  0
  -23.7470  -29.8700   20.0280 C   0  0  0  0  0  2  0  0  0  0  0  0
  -24.7790  -31.0790   21.9960 N   0  0  0  0  0  0  0  0  0  0  0  0
  -23.6110  -32.0880   23.6660 O   0  0  0  0  0  0  0  0  0  0  0  0
  -22.8770  -29.4260   22.3580 C   0  0  0  0  0  0  0  0  0  0  0  0
  -21.5500  -29.2410   22.2390 N   0  0  0  0  0  0  0  0  0  0  0  0
  -23.5680  -28.7750   23.1450 O   0  0  0  0  0  0  0  0  0  0  0  0
  -21.0490  -29.8180   21.5780 H   0  0  0  0  0  0  0  0  0  0  0  0
  -18.1860  -28.0050   22.7480 C   0  0  0  0  0  0  0  0  0  0  0  0
  -20.7480  -28.2640   22.9810 C   0  0  0  0  0  3  0  0  0  0  0  0
  -20.8450  -26.8610   22.3360 C   0  0  0  0  0  2  0  0  0  0  0  0
  -19.7240  -26.5820   21.3310 C   0  0  0  0  0  2  0  0  0  0  0  0
  -18.3550  -26.6900   22.0070 C   0  0  0  0  0  2  0  0  0  0  0  0
  -19.3100  -28.7510   23.1920 C   0  0  0  0  0  0  0  0  0  0  0  0
  -19.0970  -29.9830   23.8490 C   0  0  0  0  0  3  0  0  0  0  0  0
  -17.7930  -30.4680   24.0660 C   0  0  0  0  0  3  0  0  0  0  0  0
  -16.6850  -29.7170   23.6380 C   0  0  0  0  0  3  0  0  0  0  0  0
  -16.8820  -28.4880   22.9850 C   0  0  0  0  0  3  0  0  0  0  0  0
  -25.9690  -32.4860   23.7630 C   0  0  0  0  0  3  0  0  0  0  0  0
  -25.6440  -33.8780   24.1090 N   0  0  0  0  0  0  0  0  0  0  0  0
  -25.9650  -34.9440   23.3650 C   0  0  0  0  0  0  0  0  0  0  0  0
  -26.6360  -34.8610   22.3340 O   0  0  0  0  0  0  0  0  0  0  0  0
  -25.0480  -34.0150   24.9130 H   0  0  0  0  0  0  0  0  0  0  0  0
  -24.2220  -36.7270   23.0310 C   0  0  0  0  0  1  0  0  0  0  0  0
  -25.4620  -36.3220   23.8410 C   0  0  0  0  0  3  0  0  0  0  0  0
  -27.5800  -37.2210   24.7000 C   0  0  0  0  0  1  0  0  0  0  0  0
  -26.4860  -37.3870   23.7470 N   0  0  0  0  0  0  0  0  0  0  0  0
  -26.0690  -38.3010   23.9000 H   0  0  0  0  0  0  0  0  0  0  0  0
  -26.4770  -31.7040   25.0360 C   0  0  1  0  0  0  0  0  0  0  0  0
  -25.3740  -31.4390   26.0890 C   0  0  0  0  0  1  0  0  0  0  0  0
  -27.0810  -30.3380   24.6350 C   0  0  0  0  0  1  0  0  0  0  0  0
  -27.6120  -32.5020   25.7210 C   0  0  0  0  0  1  0  0  0  0  0  0
  1  4  1  0
  2  5  1  0
  3  1  2  0
  4  7  1  0
  5 52  1  0
  5  4  2  0
  6  2  2  0
  6  3  1  0
  8 21  1  0
  9 14  1  0
 10 11  1  0
 10  9  1  0
 12 11  1  0
 12 25  1  0
 12 13  1  0
 14  8  1  0
 14 13  1  0
 15  8  2  0
 17 20  1  0
 18 16  1  0
 19 17  1  0
 19 21  1  0
 20  3  1  0
 20 16  1  0
 21 18  1  0
 22 23  2  0
 23 42  1  0
 24 23  1  0
 24 27  1  0
 25 26  1  0
 25 22  1  0
 26 24  2  0
 27 28  1  0
 28 29  2  0
 30 33  1  0
 30 29  1  0
 31 30  2  0
 32 31  1  0
 32 27  2  0
 33 34  1  0
 34 35  1  0
 35 36  2  0
 37 36  1  0
 37 41  1  0
 38 37  2  0
 39 34  2  0
 39 38  1  0
 40 39  1  0
 42 43  1  0
 43 46  1  0
 43 45  1  0
 44 42  2  0
 47 22  1  0
 47 48  1  0
 49 47  1  0
 50 51  1  0
 51  6  1  0
 53 52  1  0
 54 65  2  0
 55 53  1  0
 55 60  1  0
 56 64  1  0
 56 66  1  0
 57 63  1  0
 57 59  1  0
 58 64  1  0
 59 58  1  0
 60 59  2  0
 61 62  1  0
 61 55  2  0
 62 57  2  0
 63 56  1  0
 64 54  1  0
 66 68  2  0
 67 66  1  0
 69 67  1  0
 70 79  2  0
 70 75  1  0
 71 67  1  0
 71 75  1  0
 72 71  1  0
 73 74  1  0
 73 72  1  0
 74 70  1  0
 75 76  2  0
 76 77  1  0
 78 77  2  0
 79 78  1  0
 80 54  1  0
 80 81  1  0
 80 90  1  0
 81 84  1  0
 82 86  1  0
 82 81  1  0
 83 82  2  0
 86 85  1  0
 88 86  1  0
 88 89  1  0
 88 87  1  0
 90 93  1  1
 90 91  1  0
 92 90  1  0
M  ISO  4   8 100  21 100  52 101  53 101
M  END
>  <TORSDO>  (80) 
F 18

>  <SCORE>  (80) 
-13.360

>  <name>  (80) 
80

>  <ligand_id>  (80) 
80

>  <original_smiles>  (80) 
[H]c1c([H])c([H])c2c(c1[H])C([H])([H])C([H])([H])C([H])([H])C2([H])N([H])C(=O)C1([H])N(C(=O)C([H])(N([H])C(=O)C([H])(N([H])C([H])([H])[H])C([H])([H])[H])C(C([H])([H])[H])(C([H])([H])[H])C([H])([H])[H])C([H])([H])c2c([H])c(OC([H])([H])c3c([H])c(OC([H])([H])[H])c(C4([H])C([H])([H])C([H])([H])N(C(=O)N5C([H])([H])C([H])([H])C([H])([H])C([H])(n6nc(-c7c([H])c([H])c(Oc8c([H])c([H])c(F)c([H])c8F)c([H])c7[H])c(C(=O)N([H])[H])c6N([H])[H])C5([H])[H])C([H])([H])C4([H])[H])c([H])c3C([H])([H])[H])c([H])c([H])c2C1([H])[H]

>  <smiles>  (80) 
[H]c1c([H])c([H])c2c(c1[H])C([H])([H])C([H])([H])C([H])([H])C2([H])N([H])C(=O)C1([H])N(C(=O)C([H])(N([H])C(=O)C([H])(N([H])C([H])([H])[H])C([H])([H])[H])C(C([H])([H])[H])(C([H])([H])[H])C([H])([H])[H])C([H])([H])c2c([H])c(OC([H])([H])c3c([H])c(OC([H])([H])[H])c(C4([H])C([H])([H])C([H])([H])N(C(=O)N5C([H])([H])C([H])([H])C([H])([H])C([H])(n6nc(-c7c([H])c([H])c(Oc8c([H])c([H])c(F)c([H])c8F)c([H])c7[H])c(C(=O)N([H])[H])c6N([H])[H])C5([H])[H])C([H])([H])C4([H])[H])c([H])c3C([H])([H])[H])c([H])c([H])c2C1([H])[H]

$$$$
81:0:0
     RDKit          3D

 93102  0  0  1  0  0  0  0  0999 V2000
  -29.0960  -22.1030   19.7000 C   0  0  0  0  0  3  0  0  0  0  0  0
  -29.9040  -21.9450   21.9480 C   0  0  0  0  0  0  0  0  0  0  0  0
  -29.5710  -23.3300   22.1050 C   0  0  0  0  0  0  0  0  0  0  0  0
  -29.6540  -21.2850   20.7200 C   0  0  0  0  0  0  0  0  0  0  0  0
  -29.0320  -24.0740   21.0060 C   0  0  0  0  0  0  0  0  0  0  0  0
  -30.5310  -21.1410   23.0840 C   0  0  0  0  0  1  0  0  0  0  0  0
  -29.7940  -24.0160   23.4560 C   0  0  0  0  0  1  0  0  0  0  0  0
  -28.8010  -23.4360   19.8270 N   0  0  0  0  0  0  0  0  0  0  0  0
  -28.6040  -25.5900   21.1900 C   0  0  0  0  0  2  0  0  0  0  0  0
  -28.6230  -26.5670   20.0920 O   0  0  0  0  0  0  0  0  0  0  0  0
  -24.6920  -31.7660   23.1670 C   0  0  0  0  0  0  0  0  0  0  0  0
  -27.5100  -27.4060   20.0590 C   0  0  0  0  0  0  0  0  0  0  0  0
  -23.5600  -30.3670   21.4750 C   0  0  0  0  0  3  0  0  0  0  0  0
  -25.0870  -28.9060   20.0330 C   0  0  0  0  0  0  0  0  0  0  0  0
  -26.0830  -30.7920   21.3300 C   0  0  0  0  0  2  0  0  0  0  0  0
  -26.2260  -29.4330   20.6590 C   0  0  0  0  0  0  0  0  0  0  0  0
  -27.4450  -28.6960   20.6650 C   0  0  0  0  0  3  0  0  0  0  0  0
  -26.3580  -26.9220   19.4090 C   0  0  0  0  0  3  0  0  0  0  0  0
  -25.1540  -27.6560   19.3960 C   0  0  0  0  0  3  0  0  0  0  0  0
  -23.8150  -29.7290   20.0830 C   0  0  0  0  0  2  0  0  0  0  0  0
  -24.7960  -30.9910   22.0490 N   0  0  0  0  0  0  0  0  0  0  0  0
  -23.5940  -31.9930   23.6930 O   0  0  0  0  0  0  0  0  0  0  0  0
  -22.9220  -29.3060   22.4020 C   0  0  0  0  0  0  0  0  0  0  0  0
  -21.6020  -29.0960   22.2630 N   0  0  0  0  0  0  0  0  0  0  0  0
  -23.6120  -28.6730   23.2060 O   0  0  0  0  0  0  0  0  0  0  0  0
  -21.1030  -29.6600   21.5880 H   0  0  0  0  0  0  0  0  0  0  0  0
  -18.2510  -27.8080   22.7090 C   0  0  0  0  0  0  0  0  0  0  0  0
  -20.8020  -28.1180   23.0010 C   0  0  0  0  0  3  0  0  0  0  0  0
  -20.9400  -26.7070   22.3830 C   0  0  0  0  0  2  0  0  0  0  0  0
  -19.8500  -26.3910   21.3530 C   0  0  0  0  0  2  0  0  0  0  0  0
  -18.4630  -26.4850   21.9930 C   0  0  0  0  0  2  0  0  0  0  0  0
  -19.3500  -28.5820   23.1690 C   0  0  0  0  0  0  0  0  0  0  0  0
  -19.0990  -29.8200   23.7970 C   0  0  0  0  0  3  0  0  0  0  0  0
  -17.7820  -30.2850   23.9720 C   0  0  0  0  0  3  0  0  0  0  0  0
  -16.6980  -29.5100   23.5290 C   0  0  0  0  0  3  0  0  0  0  0  0
  -16.9330  -28.2730   22.9020 C   0  0  0  0  0  3  0  0  0  0  0  0
  -25.9460  -32.4230   23.8230 C   0  0  0  0  0  3  0  0  0  0  0  0
  -25.5930  -33.8090   24.1610 N   0  0  0  0  0  0  0  0  0  0  0  0
  -25.9110  -34.8790   23.4200 C   0  0  0  0  0  0  0  0  0  0  0  0
  -26.6020  -34.8060   22.4000 O   0  0  0  0  0  0  0  0  0  0  0  0
  -24.9750  -33.9380   24.9480 H   0  0  0  0  0  0  0  0  0  0  0  0
  -24.1340  -36.6240   23.0600 C   0  0  0  0  0  1  0  0  0  0  0  0
  -25.3760  -36.2480   23.8840 C   0  0  0  0  0  3  0  0  0  0  0  0
  -27.4770  -37.1790   24.7500 C   0  0  0  0  0  1  0  0  0  0  0  0
  -26.3760  -37.3340   23.8040 N   0  0  0  0  0  0  0  0  0  0  0  0
  -25.9390  -38.2360   23.9740 H   0  0  0  0  0  0  0  0  0  0  0  0
  -26.4540  -31.6500   25.1020 C   0  0  1  0  0  0  0  0  0  0  0  0
  -25.3450  -31.3790   26.1450 C   0  0  0  0  0  1  0  0  0  0  0  0
  -27.0750  -30.2880   24.7090 C   0  0  0  0  0  1  0  0  0  0  0  0
  -27.5720  -32.4660   25.7960 C   0  0  0  0  0  1  0  0  0  0  0  0
  -30.0840  -19.9570   20.5140 O   0  0  0  0  0  0  0  0  0  0  0  0
  -30.8900  -14.7150   20.0570 C   0  0  0  0  0  0  0  0  0  0  0  0
  -30.5580  -12.4960   18.9950 C   0  0  0  0  0  2  0  0  0  0  0  0
  -29.5710  -12.6340   17.8170 C   0  0  0  0  0  2  0  0  0  0  0  0
  -28.1210  -12.4770   18.3130 C   0  0  0  0  0  2  0  0  0  0  0  0
  -27.8190  -13.3380   19.5690 C   0  0  0  0  0  3  0  0  0  0  0  0
  -28.9280  -13.2240   20.6390 C   0  0  0  0  0  2  0  0  0  0  0  0
  -30.2010  -13.5340   19.9840 N   0  0  0  0  0  0  0  0  0  0  0  0
  -32.0600  -14.7730   19.6670 O   0  0  0  0  0  0  0  0  0  0  0  0
  -29.3220  -18.0480   19.0470 C   0  0  0  0  0  2  0  0  0  0  0  0
  -29.1050  -17.8290   21.5180 C   0  0  0  0  0  2  0  0  0  0  0  0
  -30.3910  -16.9130   19.1160 C   0  0  0  0  0  2  0  0  0  0  0  0
  -30.1200  -16.6250   21.4610 C   0  0  0  0  0  2  0  0  0  0  0  0
  -29.1300  -18.8650   20.3530 C   0  0  0  0  0  3  0  0  0  0  0  0
  -30.1640  -15.8900   20.1720 N   0  0  0  0  0  0  0  0  0  0  0  0
  -25.4800  -13.9290   20.4330 C   0  0  0  0  0  0  0  0  0  0  0  0
  -24.4270  -13.1540   20.8320 C   0  0  0  0  0  0  0  0  0  0  0  0
  -24.8750  -11.8010   20.7450 C   0  0  0  0  0  0  0  0  0  0  0  0
  -26.5000  -13.0480   20.1210 N   0  0  0  0  0  0  0  0  0  0  0  0
  -26.1500  -11.7610   20.3730 N   0  0  0  0  0  0  0  0  0  0  0  0
  -24.1470  -10.5390   20.9410 C   0  0  0  0  0  0  0  0  0  0  0  0
  -24.5840   -9.5720   21.8730 C   0  0  0  0  0  3  0  0  0  0  0  0
  -23.8580   -8.3760   22.0560 C   0  0  0  0  0  3  0  0  0  0  0  0
  -22.6810   -8.1380   21.3070 C   0  0  0  0  0  0  0  0  0  0  0  0
  -22.2630   -9.0950   20.3650 C   0  0  0  0  0  3  0  0  0  0  0  0
  -22.9890  -10.2830   20.1800 C   0  0  0  0  0  3  0  0  0  0  0  0
  -21.9240   -6.9960   21.4020 O   0  0  0  0  0  0  0  0  0  0  0  0
  -21.8240   -6.2910   22.5740 C   0  0  0  0  0  0  0  0  0  0  0  0
  -21.3330   -6.8810   23.7600 C   0  0  0  0  0  3  0  0  0  0  0  0
  -21.1860   -6.1010   24.9240 C   0  0  0  0  0  3  0  0  0  0  0  0
  -21.5180   -4.7330   24.9020 C   0  0  0  0  0  0  0  0  0  0  0  0
  -22.0000   -4.1430   23.7210 C   0  0  0  0  0  3  0  0  0  0  0  0
  -22.1520   -4.9200   22.5600 C   0  0  0  0  0  0  0  0  0  0  0  0
  -22.5990   -4.3430   21.4190 F   0  0  0  0  0  0  0  0  0  0  0  0
  -21.3690   -3.9810   26.0180 F   0  0  0  0  0  0  0  0  0  0  0  0
  -23.0510  -13.6370   21.1860 C   0  0  0  0  0  0  0  0  0  0  0  0
  -22.3600  -12.9280   22.0720 N   0  0  0  0  0  0  0  0  0  0  0  0
  -22.5960  -14.6790   20.7130 O   0  0  0  0  0  0  0  0  0  0  0  0
  -22.7390  -12.0840   22.4740 H   0  0  0  0  0  0  0  0  0  0  0  0
  -21.4390  -13.2340   22.3510 H   0  0  0  0  0  0  0  0  0  0  0  0
  -25.6500  -15.3030   20.2880 N   0  0  0  0  0  0  0  0  0  0  0  0
  -24.9000  -15.9610   20.4690 H   0  0  0  0  0  0  0  0  0  0  0  0
  -26.5070  -15.7480   19.9860 H   0  0  0  0  0  0  0  0  0  0  0  0
  1  8  2  0
  1  4  1  0
  2  3  1  0
  2  6  1  0
  3  7  1  0
  4  2  2  0
  5  9  1  0
  5  3  2  0
  8  5  1  0
 10  9  1  0
 11 22  2  0
 12 10  1  0
 12 17  1  0
 13 21  1  0
 13 23  1  0
 14 20  1  0
 14 16  1  0
 15 21  1  0
 16 17  2  0
 16 15  1  0
 18 12  2  0
 19 18  1  0
 19 14  2  0
 20 13  1  0
 21 11  1  0
 23 25  2  0
 24 23  1  0
 26 24  1  0
 27 36  2  0
 27 32  1  0
 28 24  1  0
 28 32  1  0
 29 28  1  0
 30 31  1  0
 30 29  1  0
 31 27  1  0
 32 33  2  0
 33 34  1  0
 35 34  2  0
 36 35  1  0
 37 11  1  0
 37 38  1  0
 37 47  1  0
 38 41  1  0
 39 43  1  0
 39 38  1  0
 40 39  2  0
 43 42  1  0
 45 43  1  0
 45 46  1  0
 45 44  1  0
 47 50  1  1
 47 48  1  0
 49 47  1  0
 51  4  1  0
 52 65  1  0
 53 58  1  0
 54 55  1  0
 54 53  1  0
 56 55  1  0
 56 69  1  0
 56 57  1  0
 58 52  1  0
 58 57  1  0
 59 52  2  0
 60 62  1  0
 60 64  1  0
 62 65  1  0
 63 61  1  0
 64 51  1  0
 64 61  1  0
 65 63  1  0
 66 67  2  0
 67 86  1  0
 68 67  1  0
 68 71  1  0
 69 70  1  0
 69 66  1  0
 70 68  2  0
 71 72  1  0
 72 73  2  0
 74 77  1  0
 74 73  1  0
 75 74  2  0
 76 75  1  0
 76 71  2  0
 77 78  1  0
 78 79  1  0
 79 80  2  0
 81 80  1  0
 81 85  1  0
 82 81  2  0
 83 78  2  0
 83 82  1  0
 84 83  1  0
 86 87  1  0
 87 90  1  0
 87 89  1  0
 88 86  2  0
 91 66  1  0
 91 92  1  0
 93 91  1  0
M  ISO  4   9 101  10 101  52 100  65 100
M  END
>  <TORSDO>  (81) 
F 18

>  <SCORE>  (81) 
-14.006

>  <name>  (81) 
81

>  <ligand_id>  (81) 
81

>  <original_smiles>  (81) 
[H]c1nc(C([H])([H])Oc2c([H])c([H])c3c(c2[H])C([H])([H])N(C(=O)C([H])(N([H])C(=O)C([H])(N([H])C([H])([H])[H])C([H])([H])[H])C(C([H])([H])[H])(C([H])([H])[H])C([H])([H])[H])C([H])(C(=O)N([H])C2([H])c4c([H])c([H])c([H])c([H])c4C([H])([H])C([H])([H])C2([H])[H])C3([H])[H])c(C([H])([H])[H])c(C([H])([H])[H])c1OC1([H])C([H])([H])C([H])([H])N(C(=O)N2C([H])([H])C([H])([H])C([H])([H])C([H])(n3nc(-c4c([H])c([H])c(Oc5c([H])c([H])c(F)c([H])c5F)c([H])c4[H])c(C(=O)N([H])[H])c3N([H])[H])C2([H])[H])C([H])([H])C1([H])[H]

>  <smiles>  (81) 
[H]c1nc(C([H])([H])Oc2c([H])c([H])c3c(c2[H])C([H])([H])N(C(=O)C([H])(N([H])C(=O)C([H])(N([H])C([H])([H])[H])C([H])([H])[H])C(C([H])([H])[H])(C([H])([H])[H])C([H])([H])[H])C([H])(C(=O)N([H])C2([H])c4c([H])c([H])c([H])c([H])c4C([H])([H])C([H])([H])C2([H])[H])C3([H])[H])c(C([H])([H])[H])c(C([H])([H])[H])c1OC1([H])C([H])([H])C([H])([H])N(C(=O)N2C([H])([H])C([H])([H])C([H])([H])C([H])(n3nc(-c4c([H])c([H])c(Oc5c([H])c([H])c(F)c([H])c5F)c([H])c4[H])c(C(=O)N([H])[H])c3N([H])[H])C2([H])[H])C([H])([H])C1([H])[H]

$$$$
82:0:0
     RDKit          3D

 93102  0  0  1  0  0  0  0  0999 V2000
  -29.0910  -19.7190   19.2700 C   0  0  0  0  0  3  0  0  0  0  0  0
  -28.6870  -21.1140   19.2600 C   0  0  0  0  0  0  0  0  0  0  0  0
  -29.8200  -19.1020   20.3380 C   0  0  0  0  0  0  0  0  0  0  0  0
  -29.0150  -21.9930   20.3480 C   0  0  0  0  0  0  0  0  0  0  0  0
  -30.0520  -20.0430   21.3910 C   0  0  0  0  0  0  0  0  0  0  0  0
  -30.8370  -19.6270   22.6190 C   0  0  0  0  0  1  0  0  0  0  0  0
  -29.6770  -21.3750   21.3810 N   0  0  0  0  0  0  0  0  0  0  0  0
  -29.7670  -24.4970   19.8190 C   0  0  0  0  0  2  0  0  0  0  0  0
  -28.7950  -23.6070   20.5430 C   0  0  0  0  0  3  0  0  0  0  0  0
  -28.3230  -24.9270   19.6740 C   0  0  0  0  0  3  0  0  0  0  0  0
  -28.3840  -26.4190   20.0320 O   0  0  0  0  0  0  0  0  0  0  0  0
  -24.7090  -31.8700   23.1960 C   0  0  0  0  0  0  0  0  0  0  0  0
  -27.2830  -27.3210   19.9860 C   0  0  0  0  0  0  0  0  0  0  0  0
  -23.4960  -30.5230   21.5220 C   0  0  0  0  0  3  0  0  0  0  0  0
  -24.9340  -29.0040   20.0340 C   0  0  0  0  0  0  0  0  0  0  0  0
  -26.0390  -30.8230   21.3340 C   0  0  0  0  0  2  0  0  0  0  0  0
  -26.1110  -29.4550   20.6420 C   0  0  0  0  0  0  0  0  0  0  0  0
  -27.2850  -28.6270   20.6040 C   0  0  0  0  0  3  0  0  0  0  0  0
  -26.0810  -26.9480   19.3510 C   0  0  0  0  0  3  0  0  0  0  0  0
  -24.9270  -27.7630   19.3750 C   0  0  0  0  0  3  0  0  0  0  0  0
  -23.7030  -29.8890   20.1200 C   0  0  0  0  0  2  0  0  0  0  0  0
  -24.7680  -31.0900   22.0740 N   0  0  0  0  0  0  0  0  0  0  0  0
  -23.6290  -32.1330   23.7460 O   0  0  0  0  0  0  0  0  0  0  0  0
  -22.8330  -29.4830   22.4570 C   0  0  0  0  0  0  0  0  0  0  0  0
  -21.5110  -29.2850   22.3120 N   0  0  0  0  0  0  0  0  0  0  0  0
  -23.5090  -28.8560   23.2770 O   0  0  0  0  0  0  0  0  0  0  0  0
  -21.0210  -29.8450   21.6270 H   0  0  0  0  0  0  0  0  0  0  0  0
  -18.1590  -27.9760   22.7140 C   0  0  0  0  0  0  0  0  0  0  0  0
  -20.7010  -28.3180   23.0560 C   0  0  0  0  0  3  0  0  0  0  0  0
  -20.8640  -26.8930   22.4780 C   0  0  0  0  0  2  0  0  0  0  0  0
  -19.8020  -26.5400   21.4330 C   0  0  0  0  0  2  0  0  0  0  0  0
  -18.3990  -26.6360   22.0380 C   0  0  0  0  0  2  0  0  0  0  0  0
  -19.2410  -28.7720   23.1780 C   0  0  0  0  0  0  0  0  0  0  0  0
  -18.9650  -30.0220   23.7720 C   0  0  0  0  0  3  0  0  0  0  0  0
  -17.6400  -30.4790   23.9060 C   0  0  0  0  0  3  0  0  0  0  0  0
  -16.5720  -29.6800   23.4590 C   0  0  0  0  0  3  0  0  0  0  0  0
  -16.8330  -28.4310   22.8680 C   0  0  0  0  0  3  0  0  0  0  0  0
  -25.9920  -32.4880   23.8290 C   0  0  0  0  0  3  0  0  0  0  0  0
  -26.5090  -31.6900   25.0890 C   0  0  1  0  0  0  0  0  0  0  0  0
  -25.4170  -31.4320   26.1540 C   0  0  0  0  0  1  0  0  0  0  0  0
  -27.0870  -30.3190   24.6680 C   0  0  0  0  0  1  0  0  0  0  0  0
  -27.6640  -32.4650   25.7650 C   0  0  0  0  0  1  0  0  0  0  0  0
  -25.6860  -33.8810   24.1940 N   0  0  0  0  0  0  0  0  0  0  0  0
  -25.9720  -34.9490   23.4380 C   0  0  0  0  0  0  0  0  0  0  0  0
  -26.5910  -34.8660   22.3730 O   0  0  0  0  0  0  0  0  0  0  0  0
  -25.1340  -34.0160   25.0280 H   0  0  0  0  0  0  0  0  0  0  0  0
  -24.1980  -36.7200   23.2240 C   0  0  0  0  0  1  0  0  0  0  0  0
  -25.4990  -36.3270   23.9410 C   0  0  0  0  0  3  0  0  0  0  0  0
  -27.6680  -37.2470   24.6340 C   0  0  0  0  0  1  0  0  0  0  0  0
  -26.5050  -37.3980   23.7650 N   0  0  0  0  0  0  0  0  0  0  0  0
  -26.0930  -38.3100   23.9410 H   0  0  0  0  0  0  0  0  0  0  0  0
  -26.7460  -20.8000   17.6260 C   0  0  0  0  0  1  0  0  0  0  0  0
  -28.9230  -21.8540   16.8550 C   0  0  0  0  0  1  0  0  0  0  0  0
  -27.9570  -21.6570   18.0330 C   0  0  0  0  0  3  0  0  0  0  0  0
  -30.5920  -17.6630   20.1920 C   0  0  0  0  0  2  0  0  0  0  0  0
  -30.8560  -15.0290   20.2490 C   0  0  0  0  0  0  0  0  0  0  0  0
  -30.6890  -12.7250   19.2580 C   0  0  0  0  0  2  0  0  0  0  0  0
  -29.7250  -12.7370   18.0510 C   0  0  0  0  0  2  0  0  0  0  0  0
  -28.2740  -12.5160   18.5190 C   0  0  0  0  0  2  0  0  0  0  0  0
  -27.8990  -13.4080   19.7320 C   0  0  0  0  0  3  0  0  0  0  0  0
  -28.9830  -13.3850   20.8290 C   0  0  0  0  0  2  0  0  0  0  0  0
  -30.2440  -13.7880   20.1980 N   0  0  0  0  0  0  0  0  0  0  0  0
  -32.0450  -15.1010   19.9230 O   0  0  0  0  0  0  0  0  0  0  0  0
  -30.1060  -16.2070   20.4350 N   0  0  0  0  0  0  0  0  0  0  0  0
  -29.1310  -16.0820   20.6590 H   0  0  0  0  0  0  0  0  0  0  0  0
  -25.5350  -13.9430   20.5550 C   0  0  0  0  0  0  0  0  0  0  0  0
  -24.4890  -13.1460   20.9320 C   0  0  0  0  0  0  0  0  0  0  0  0
  -24.9660  -11.8030   20.8470 C   0  0  0  0  0  0  0  0  0  0  0  0
  -26.5780  -13.0840   20.2580 N   0  0  0  0  0  0  0  0  0  0  0  0
  -26.2470  -11.7890   20.5010 N   0  0  0  0  0  0  0  0  0  0  0  0
  -24.2580  -10.5270   21.0180 C   0  0  0  0  0  0  0  0  0  0  0  0
  -24.6830   -9.5650   21.9600 C   0  0  0  0  0  3  0  0  0  0  0  0
  -23.9720   -8.3550   22.1190 C   0  0  0  0  0  3  0  0  0  0  0  0
  -22.8240   -8.0990   21.3330 C   0  0  0  0  0  0  0  0  0  0  0  0
  -22.4190   -9.0500   20.3800 C   0  0  0  0  0  3  0  0  0  0  0  0
  -23.1300  -10.2500   20.2200 C   0  0  0  0  0  3  0  0  0  0  0  0
  -22.0860   -6.9410   21.4010 O   0  0  0  0  0  0  0  0  0  0  0  0
  -21.9420   -6.2480   22.5750 C   0  0  0  0  0  0  0  0  0  0  0  0
  -21.3550   -6.8320   23.7190 C   0  0  0  0  0  3  0  0  0  0  0  0
  -21.1630   -6.0610   24.8830 C   0  0  0  0  0  3  0  0  0  0  0  0
  -21.5470   -4.7080   24.9040 C   0  0  0  0  0  0  0  0  0  0  0  0
  -22.1270   -4.1220   23.7640 C   0  0  0  0  0  3  0  0  0  0  0  0
  -22.3210   -4.8890   22.6020 C   0  0  0  0  0  0  0  0  0  0  0  0
  -22.8600   -4.3150   21.5000 F   0  0  0  0  0  0  0  0  0  0  0  0
  -21.3560   -3.9640   26.0190 F   0  0  0  0  0  0  0  0  0  0  0  0
  -23.0950  -13.6000   21.2550 C   0  0  0  0  0  0  0  0  0  0  0  0
  -22.4030  -12.8780   22.1290 N   0  0  0  0  0  0  0  0  0  0  0  0
  -22.6310  -14.6310   20.7690 O   0  0  0  0  0  0  0  0  0  0  0  0
  -22.7920  -12.0430   22.5410 H   0  0  0  0  0  0  0  0  0  0  0  0
  -21.4700  -13.1630   22.3880 H   0  0  0  0  0  0  0  0  0  0  0  0
  -25.6780  -15.3210   20.4120 N   0  0  0  0  0  0  0  0  0  0  0  0
  -24.9040  -15.9600   20.5520 H   0  0  0  0  0  0  0  0  0  0  0  0
  -26.5000  -15.7750   20.0360 H   0  0  0  0  0  0  0  0  0  0  0  0
  1  3  1  0
  2  1  2  0
  2  4  1  0
  3  5  2  0
  4  7  2  0
  5  6  1  0
  7  5  1  0
  8  9  1  0
  9  4  1  0
 10  8  1  0
 10 11  1  0
 10  9  1  0
 12 23  2  0
 13 11  1  0
 13 18  1  0
 14 22  1  0
 14 24  1  0
 15 21  1  0
 15 17  1  0
 16 22  1  0
 17 16  1  0
 18 17  2  0
 19 20  1  0
 19 13  2  0
 20 15  2  0
 21 14  1  0
 22 12  1  0
 24 26  2  0
 25 24  1  0
 27 25  1  0
 28 37  2  0
 28 33  1  0
 29 25  1  0
 29 33  1  0
 30 29  1  0
 31 32  1  0
 31 30  1  0
 32 28  1  0
 33 34  2  0
 34 35  1  0
 36 35  2  0
 37 36  1  0
 38 12  1  0
 38 43  1  0
 38 39  1  0
 39 42  1  1
 39 40  1  0
 41 39  1  0
 43 46  1  0
 44 48  1  0
 44 43  1  0
 45 44  2  0
 48 47  1  0
 50 48  1  0
 50 51  1  0
 50 49  1  0
 52 54  1  0
 53 54  1  0
 54  2  1  0
 55  3  1  0
 55 64  1  0
 56 64  1  0
 57 62  1  0
 58 59  1  0
 58 57  1  0
 60 59  1  0
 60 69  1  0
 60 61  1  0
 62 56  1  0
 62 61  1  0
 63 56  2  0
 64 65  1  0
 66 67  2  0
 67 86  1  0
 68 67  1  0
 68 71  1  0
 69 70  1  0
 69 66  1  0
 70 68  2  0
 71 72  1  0
 72 73  2  0
 74 77  1  0
 74 73  1  0
 75 74  2  0
 76 75  1  0
 76 71  2  0
 77 78  1  0
 78 83  2  0
 78 79  1  0
 79 80  2  0
 80 81  1  0
 81 85  1  0
 82 81  2  0
 83 82  1  0
 84 83  1  0
 86 87  1  0
 87 90  1  0
 87 89  1  0
 88 86  2  0
 91 92  1  0
 91 66  1  0
 93 91  1  0
M  ISO  4  10 101  11 101  56 100  64 100
M  END
>  <TORSDO>  (82) 
F 19

>  <SCORE>  (82) 
-13.766

>  <name>  (82) 
82

>  <ligand_id>  (82) 
82

>  <original_smiles>  (82) 
[H]c1c([H])c([H])c2c(c1[H])C([H])([H])C([H])([H])C([H])([H])C2([H])N([H])C(=O)C1([H])N(C(=O)C([H])(N([H])C(=O)C([H])(N([H])C([H])([H])[H])C([H])([H])[H])C(C([H])([H])[H])(C([H])([H])[H])C([H])([H])[H])C([H])([H])c2c([H])c(OC3([H])C([H])([H])C3([H])c3nc(C([H])([H])[H])c(C([H])([H])N([H])C(=O)N4C([H])([H])C([H])([H])C([H])([H])C([H])(n5nc(-c6c([H])c([H])c(Oc7c([H])c([H])c(F)c([H])c7F)c([H])c6[H])c(C(=O)N([H])[H])c5N([H])[H])C4([H])[H])c([H])c3C([H])(C([H])([H])[H])C([H])([H])[H])c([H])c([H])c2C1([H])[H]

>  <smiles>  (82) 
[H]c1c([H])c([H])c2c(c1[H])C([H])([H])C([H])([H])C([H])([H])C2([H])N([H])C(=O)C1([H])N(C(=O)C([H])(N([H])C(=O)C([H])(N([H])C([H])([H])[H])C([H])([H])[H])C(C([H])([H])[H])(C([H])([H])[H])C([H])([H])[H])C([H])([H])c2c([H])c(OC3([H])C([H])([H])C3([H])c3nc(C([H])([H])[H])c(C([H])([H])N([H])C(=O)N4C([H])([H])C([H])([H])C([H])([H])C([H])(n5nc(-c6c([H])c([H])c(Oc7c([H])c([H])c(F)c([H])c7F)c([H])c6[H])c(C(=O)N([H])[H])c5N([H])[H])C4([H])[H])c([H])c3C([H])(C([H])([H])[H])C([H])([H])[H])c([H])c([H])c2C1([H])[H]

$$$$
83:0:0
     RDKit          3D

 96105  0  0  1  0  0  0  0  0999 V2000
  -27.3740  -19.9540   18.8570 C   0  0  0  0  0  3  0  0  0  0  0  0
  -27.7530  -22.2050   19.7740 C   0  0  0  0  0  0  0  0  0  0  0  0
  -26.3670  -22.3920   19.4570 C   0  0  0  0  0  0  0  0  0  0  0  0
  -28.1660  -20.7610   19.7220 C   0  0  0  0  0  0  0  0  0  0  0  0
  -25.7160  -21.5000   18.5800 C   0  0  0  0  0  0  0  0  0  0  0  0
  -25.4900  -23.4330   20.1460 C   0  0  0  0  0  1  0  0  0  0  0  0
  -24.3480  -21.7860   17.9740 C   0  0  0  0  0  1  0  0  0  0  0  0
  -26.2550  -20.3330   18.2250 N   0  0  0  0  0  0  0  0  0  0  0  0
  -28.6130  -23.5790   20.0220 C   0  0  0  0  0  3  0  0  0  0  0  0
  -29.2680  -23.4810   21.3340 N   0  0  0  0  0  4  0  0  0  0  0  0
  -29.7920  -22.6230   21.3650 H   0  0  0  0  0  0  0  0  0  0  0  0
  -28.5970  -23.4610   22.0790 H   0  0  0  0  0  0  0  0  0  0  0  0
  -29.9030  -24.2420   21.4860 H   0  0  0  0  0  0  0  0  0  0  0  0
  -27.8630  -25.0730   19.8220 C   0  0  0  0  0  2  0  0  0  0  0  0
  -28.3220  -26.5500   19.8610 O   0  0  0  0  0  0  0  0  0  0  0  0
  -24.7130  -31.9300   23.3240 C   0  0  0  0  0  0  0  0  0  0  0  0
  -27.2950  -27.5540   19.8710 C   0  0  0  0  0  0  0  0  0  0  0  0
  -23.5220  -30.6910   21.5640 C   0  0  0  0  0  3  0  0  0  0  0  0
  -24.9740  -29.2820   19.9990 C   0  0  0  0  0  0  0  0  0  0  0  0
  -26.0770  -30.9840   21.4290 C   0  0  0  0  0  2  0  0  0  0  0  0
  -26.1520  -29.6670   20.6500 C   0  0  0  0  0  0  0  0  0  0  0  0
  -27.3170  -28.8200   20.5730 C   0  0  0  0  0  3  0  0  0  0  0  0
  -26.0880  -27.2800   19.1840 C   0  0  0  0  0  3  0  0  0  0  0  0
  -24.9520  -28.0990   19.2560 C   0  0  0  0  0  3  0  0  0  0  0  0
  -23.7470  -30.1620   20.1260 C   0  0  0  0  0  2  0  0  0  0  0  0
  -24.7910  -31.2170   22.1610 N   0  0  0  0  0  0  0  0  0  0  0  0
  -23.6240  -32.1590   23.8750 O   0  0  0  0  0  0  0  0  0  0  0  0
  -22.8510  -29.5860   22.4180 C   0  0  0  0  0  0  0  0  0  0  0  0
  -21.5230  -29.4210   22.2730 N   0  0  0  0  0  0  0  0  0  0  0  0
  -23.5250  -28.8860   23.1780 O   0  0  0  0  0  0  0  0  0  0  0  0
  -21.0360  -30.0400   21.6400 H   0  0  0  0  0  0  0  0  0  0  0  0
  -18.1420  -28.1870   22.6770 C   0  0  0  0  0  0  0  0  0  0  0  0
  -20.7040  -28.4140   22.9530 C   0  0  0  0  0  3  0  0  0  0  0  0
  -20.7960  -27.0440   22.2400 C   0  0  0  0  0  2  0  0  0  0  0  0
  -19.6870  -26.8250   21.2070 C   0  0  0  0  0  2  0  0  0  0  0  0
  -18.3080  -26.9100   21.8700 C   0  0  0  0  0  2  0  0  0  0  0  0
  -19.2650  -28.9010   23.1720 C   0  0  0  0  0  0  0  0  0  0  0  0
  -19.0530  -30.0990   23.8890 C   0  0  0  0  0  3  0  0  0  0  0  0
  -17.7510  -30.5830   24.1140 C   0  0  0  0  0  3  0  0  0  0  0  0
  -16.6410  -29.8660   23.6320 C   0  0  0  0  0  3  0  0  0  0  0  0
  -16.8380  -28.6690   22.9200 C   0  0  0  0  0  3  0  0  0  0  0  0
  -25.9870  -32.5100   24.0090 C   0  0  0  0  0  3  0  0  0  0  0  0
  -26.4560  -31.6650   25.2580 C   0  0  1  0  0  0  0  0  0  0  0  0
  -25.3320  -31.3920   26.2850 C   0  0  0  0  0  1  0  0  0  0  0  0
  -27.0280  -30.2990   24.8150 C   0  0  0  0  0  1  0  0  0  0  0  0
  -27.6010  -32.4050   25.9860 C   0  0  0  0  0  1  0  0  0  0  0  0
  -25.6870  -33.8930   24.4090 N   0  0  0  0  0  0  0  0  0  0  0  0
  -26.0340  -34.9820   23.7080 C   0  0  0  0  0  0  0  0  0  0  0  0
  -26.7080  -34.9250   22.6760 O   0  0  0  0  0  0  0  0  0  0  0  0
  -25.0890  -34.0120   25.2140 H   0  0  0  0  0  0  0  0  0  0  0  0
  -24.3210  -36.8080   23.4470 C   0  0  0  0  0  1  0  0  0  0  0  0
  -25.5600  -36.3510   24.2350 C   0  0  0  0  0  3  0  0  0  0  0  0
  -27.7020  -37.1770   25.1100 C   0  0  0  0  0  1  0  0  0  0  0  0
  -26.6050  -37.3980   24.1720 N   0  0  0  0  0  0  0  0  0  0  0  0
  -26.2070  -38.3150   24.3590 H   0  0  0  0  0  0  0  0  0  0  0  0
  -29.1580  -20.0200   20.4600 O   0  0  0  0  0  0  0  0  0  0  0  0
  -30.7490  -15.2860   20.9060 C   0  0  0  0  0  0  0  0  0  0  0  0
  -30.6810  -12.9150   20.0890 C   0  0  0  0  0  2  0  0  0  0  0  0
  -29.8940  -12.7940   18.7680 C   0  0  0  0  0  2  0  0  0  0  0  0
  -28.3980  -12.5830   19.0620 C   0  0  0  0  0  2  0  0  0  0  0  0
  -27.8530  -13.5610   20.1350 C   0  0  0  0  0  3  0  0  0  0  0  0
  -28.7860  -13.6900   21.3560 C   0  0  0  0  0  2  0  0  0  0  0  0
  -30.1040  -14.0630   20.8370 N   0  0  0  0  0  0  0  0  0  0  0  0
  -31.9790  -15.2810   20.8040 O   0  0  0  0  0  0  0  0  0  0  0  0
  -30.7440  -17.9130   20.8890 C   0  0  0  0  0  2  0  0  0  0  0  0
  -28.7870  -17.2420   20.7660 C   0  0  0  0  0  2  0  0  0  0  0  0
  -29.5000  -18.5400   20.1830 C   0  0  0  0  0  3  0  0  0  0  0  0
  -30.1160  -16.5510   20.8670 N   0  0  0  0  0  0  0  0  0  0  0  0
  -25.4000  -14.0970   20.6280 C   0  0  0  0  0  0  0  0  0  0  0  0
  -24.3260  -13.3060   20.9180 C   0  0  0  0  0  0  0  0  0  0  0  0
  -24.8220  -11.9670   20.9730 C   0  0  0  0  0  0  0  0  0  0  0  0
  -26.4830  -13.2420   20.5160 N   0  0  0  0  0  0  0  0  0  0  0  0
  -26.1390  -11.9570   20.7930 N   0  0  0  0  0  0  0  0  0  0  0  0
  -24.1100  -10.6930   21.1270 C   0  0  0  0  0  0  0  0  0  0  0  0
  -24.4700   -9.7610   22.1250 C   0  0  0  0  0  3  0  0  0  0  0  0
  -23.7570   -8.5520   22.2650 C   0  0  0  0  0  3  0  0  0  0  0  0
  -22.6690   -8.2660   21.4080 C   0  0  0  0  0  0  0  0  0  0  0  0
  -22.3300   -9.1870   20.4010 C   0  0  0  0  0  3  0  0  0  0  0  0
  -23.0440  -10.3880   20.2590 C   0  0  0  0  0  3  0  0  0  0  0  0
  -21.9330   -7.1060   21.4550 O   0  0  0  0  0  0  0  0  0  0  0  0
  -21.7890   -6.3910   22.6170 C   0  0  0  0  0  0  0  0  0  0  0  0
  -21.2160   -6.9590   23.7750 C   0  0  0  0  0  3  0  0  0  0  0  0
  -21.0250   -6.1690   24.9250 C   0  0  0  0  0  3  0  0  0  0  0  0
  -21.3980   -4.8110   24.9190 C   0  0  0  0  0  0  0  0  0  0  0  0
  -21.9640   -4.2430   23.7640 C   0  0  0  0  0  3  0  0  0  0  0  0
  -22.1580   -5.0310   22.6160 C   0  0  0  0  0  0  0  0  0  0  0  0
  -22.6850   -4.4720   21.5000 F   0  0  0  0  0  0  0  0  0  0  0  0
  -21.2080   -4.0480   26.0210 F   0  0  0  0  0  0  0  0  0  0  0  0
  -22.8980  -13.7550   21.0330 C   0  0  0  0  0  0  0  0  0  0  0  0
  -22.1050  -13.0710   21.8480 N   0  0  0  0  0  0  0  0  0  0  0  0
  -22.4930  -14.7510   20.4350 O   0  0  0  0  0  0  0  0  0  0  0  0
  -22.4420  -12.2670   22.3570 H   0  0  0  0  0  0  0  0  0  0  0  0
  -21.1430  -13.3570   21.9650 H   0  0  0  0  0  0  0  0  0  0  0  0
  -25.5450  -15.4650   20.4220 N   0  0  0  0  0  0  0  0  0  0  0  0
  -24.7500  -16.0940   20.4240 H   0  0  0  0  0  0  0  0  0  0  0  0
  -26.4000  -15.9090   20.1180 H   0  0  0  0  0  0  0  0  0  0  0  0
  1  4  1  0
  2  9  1  0
  3  2  1  0
  3  6  1  0
  4  2  2  0
  4 56  1  0
  5  3  2  0
  7  5  1  0
  8  5  1  0
  8  1  2  0
  9 14  1  0
  9 10  1  0
 10 11  1  0
 10 13  1  0
 10 12  1  0
 14 15  1  0
 15 17  1  0
 16 27  2  0
 17 22  1  0
 18 26  1  0
 18 28  1  0
 19 25  1  0
 19 21  1  0
 20 26  1  0
 21 20  1  0
 22 21  2  0
 23 24  1  0
 23 17  2  0
 24 19  2  0
 25 18  1  0
 26 16  1  0
 28 30  2  0
 29 28  1  0
 31 29  1  0
 32 41  2  0
 32 37  1  0
 33 29  1  0
 33 37  1  0
 34 33  1  0
 35 36  1  0
 35 34  1  0
 36 32  1  0
 37 38  2  0
 38 39  1  0
 40 39  2  0
 41 40  1  0
 42 16  1  0
 42 47  1  0
 42 43  1  0
 43 46  1  1
 43 44  1  0
 45 43  1  0
 47 50  1  0
 48 52  1  0
 48 47  1  0
 49 48  2  0
 52 51  1  0
 54 52  1  0
 54 55  1  0
 54 53  1  0
 58 63  1  0
 59 60  1  0
 59 58  1  0
 61 60  1  0
 61 72  1  0
 61 62  1  0
 63 57  1  0
 63 62  1  0
 64 57  2  0
 66 68  1  0
 67 56  1  0
 67 66  1  0
 67 65  1  0
 68 65  1  0
 68 57  1  0
 69 70  2  0
 70 71  1  0
 70 89  1  0
 71 74  1  0
 72 69  1  0
 72 73  1  0
 73 71  2  0
 74 75  1  0
 75 76  2  0
 77 80  1  0
 77 76  1  0
 78 77  2  0
 79 78  1  0
 79 74  2  0
 80 81  1  0
 81 82  1  0
 82 83  2  0
 84 83  1  0
 84 88  1  0
 85 84  2  0
 86 81  2  0
 86 85  1  0
 87 86  1  0
 89 90  1  0
 90 93  1  0
 90 92  1  0
 91 89  2  0
 94 95  1  0
 94 69  1  0
 96 94  1  0
M  ISO  4  14 101  15 101  57 100  68 100
M  END
>  <TORSDO>  (83) 
F 20

>  <SCORE>  (83) 
-13.741

>  <name>  (83) 
83

>  <ligand_id>  (83) 
83

>  <original_smiles>  (83) 
[H]c1nc(C([H])([H])[H])c(C([H])([H])[H])c(C([H])(C([H])([H])Oc2c([H])c([H])c3c(c2[H])C([H])([H])N(C(=O)C([H])(N([H])C(=O)C([H])(N([H])C([H])([H])[H])C([H])([H])[H])C(C([H])([H])[H])(C([H])([H])[H])C([H])([H])[H])C([H])(C(=O)N([H])C2([H])c4c([H])c([H])c([H])c([H])c4C([H])([H])C([H])([H])C2([H])[H])C3([H])[H])[N+]([H])([H])[H])c1OC1([H])C([H])([H])N(C(=O)N2C([H])([H])C([H])([H])C([H])([H])C([H])(n3nc(-c4c([H])c([H])c(Oc5c([H])c([H])c(F)c([H])c5F)c([H])c4[H])c(C(=O)N([H])[H])c3N([H])[H])C2([H])[H])C1([H])[H]

>  <smiles>  (83) 
[H]c1nc(C([H])([H])[H])c(C([H])([H])[H])c(C([H])(C([H])([H])Oc2c([H])c([H])c3c(c2[H])C([H])([H])N(C(=O)C([H])(N([H])C(=O)C([H])(N([H])C([H])([H])[H])C([H])([H])[H])C(C([H])([H])[H])(C([H])([H])[H])C([H])([H])[H])C([H])(C(=O)N([H])C2([H])c4c([H])c([H])c([H])c([H])c4C([H])([H])C([H])([H])C2([H])[H])C3([H])[H])[N+]([H])([H])[H])c1OC1([H])C([H])([H])N(C(=O)N2C([H])([H])C([H])([H])C([H])([H])C([H])(n3nc(-c4c([H])c([H])c(Oc5c([H])c([H])c(F)c([H])c5F)c([H])c4[H])c(C(=O)N([H])[H])c3N([H])[H])C2([H])[H])C1([H])[H]

$$$$
84:0:0
     RDKit          3D

 96107  0  0  1  0  0  0  0  0999 V2000
  -30.2580  -19.7080   16.7190 C   0  0  0  0  0  3  0  0  0  0  0  0
  -29.7210  -20.8860   16.1310 C   0  0  0  0  0  3  0  0  0  0  0  0
  -29.9480  -20.5010   19.0780 C   0  0  0  0  0  3  0  0  0  0  0  0
  -30.3310  -19.4970   18.1420 C   0  0  0  0  0  0  0  0  0  0  0  0
  -29.4700  -21.6490   18.4640 C   0  0  0  0  0  0  0  0  0  0  0  0
  -29.3050  -21.8380   17.0610 C   0  0  0  0  0  0  0  0  0  0  0  0
  -27.6200  -23.2840   19.5550 C   0  0  0  0  0  3  0  0  0  0  0  0
  -28.2990  -24.6570   19.4960 C   0  0  0  0  0  3  0  0  0  0  0  0
  -28.8000  -22.9410   18.6590 C   0  0  2  0  0  0  0  0  0  0  0  0
  -26.1820  -23.0670   19.0920 C   0  0  0  0  0  1  0  0  0  0  0  0
  -28.6470  -23.0470   17.1690 O   0  0  0  0  0  0  0  0  0  0  0  0
  -29.5740  -24.0220   19.2100 O   0  0  0  0  0  0  0  0  0  0  0  0
  -30.7350  -14.5830   20.6120 C   0  0  0  0  0  0  0  0  0  0  0  0
  -30.5000  -12.3430   19.7010 C   0  0  0  0  0  2  0  0  0  0  0  0
  -29.6050  -12.3940   18.4460 C   0  0  0  0  0  2  0  0  0  0  0  0
  -28.1040  -12.3540   18.8110 C   0  0  0  0  0  2  0  0  0  0  0  0
  -27.6940  -13.2540   20.0130 C   0  0  0  0  0  3  0  0  0  0  0  0
  -28.7190  -13.1870   21.1670 C   0  0  0  0  0  2  0  0  0  0  0  0
  -30.0570  -13.4110   20.5970 N   0  0  0  0  0  0  0  0  0  0  0  0
  -31.9620  -14.6640   20.5800 O   0  0  0  0  0  0  0  0  0  0  0  0
  -31.1310  -17.9090   20.0730 C   0  0  0  0  0  2  0  0  0  0  0  0
  -29.4970  -17.1820   18.2700 C   0  0  0  0  0  2  0  0  0  0  0  0
  -30.2200  -16.9560   20.8950 C   0  0  0  0  0  2  0  0  0  0  0  0
  -29.7840  -15.7680   18.7550 C   0  0  0  0  0  2  0  0  0  0  0  0
  -30.6870  -18.0930   18.5950 C   0  0  0  0  0  3  0  0  0  0  0  0
  -30.0090  -15.6570   20.2190 N   0  0  0  0  0  0  0  0  0  0  0  0
  -25.2780  -13.8700   20.6330 C   0  0  0  0  0  0  0  0  0  0  0  0
  -24.1970  -13.0970   20.9530 C   0  0  0  0  0  0  0  0  0  0  0  0
  -24.6640  -11.7450   20.9490 C   0  0  0  0  0  0  0  0  0  0  0  0
  -26.3310  -12.9850   20.4510 N   0  0  0  0  0  0  0  0  0  0  0  0
  -25.9660  -11.7060   20.7080 N   0  0  0  0  0  0  0  0  0  0  0  0
  -23.9390  -10.4820   21.1060 C   0  0  0  0  0  0  0  0  0  0  0  0
  -24.3210   -9.5250   22.0750 C   0  0  0  0  0  3  0  0  0  0  0  0
  -23.5950   -8.3240   22.2180 C   0  0  0  0  0  3  0  0  0  0  0  0
  -22.4740   -8.0710   21.3890 C   0  0  0  0  0  0  0  0  0  0  0  0
  -22.1150   -9.0120   20.4100 C   0  0  0  0  0  3  0  0  0  0  0  0
  -22.8430  -10.2070   20.2660 C   0  0  0  0  0  3  0  0  0  0  0  0
  -21.7240   -6.9210   21.4410 O   0  0  0  0  0  0  0  0  0  0  0  0
  -21.5880   -6.2040   22.6000 C   0  0  0  0  0  0  0  0  0  0  0  0
  -21.0070   -6.7640   23.7570 C   0  0  0  0  0  3  0  0  0  0  0  0
  -20.8260   -5.9710   24.9090 C   0  0  0  0  0  3  0  0  0  0  0  0
  -21.2130   -4.6170   24.9030 C   0  0  0  0  0  0  0  0  0  0  0  0
  -21.7850   -4.0560   23.7480 C   0  0  0  0  0  3  0  0  0  0  0  0
  -21.9690   -4.8470   22.6000 C   0  0  0  0  0  0  0  0  0  0  0  0
  -22.5020   -4.2950   21.4830 F   0  0  0  0  0  0  0  0  0  0  0  0
  -21.0360   -3.8540   26.0080 F   0  0  0  0  0  0  0  0  0  0  0  0
  -22.7890  -13.5640   21.1690 C   0  0  0  0  0  0  0  0  0  0  0  0
  -22.0270  -12.8540   21.9890 N   0  0  0  0  0  0  0  0  0  0  0  0
  -22.3660  -14.5930   20.6400 O   0  0  0  0  0  0  0  0  0  0  0  0
  -22.3740  -12.0130   22.4280 H   0  0  0  0  0  0  0  0  0  0  0  0
  -21.0840  -13.1580   22.1800 H   0  0  0  0  0  0  0  0  0  0  0  0
  -25.4580  -15.2440   20.4710 N   0  0  0  0  0  0  0  0  0  0  0  0
  -24.7130  -15.9240   20.5740 H   0  0  0  0  0  0  0  0  0  0  0  0
  -26.3390  -15.6690   20.2110 H   0  0  0  0  0  0  0  0  0  0  0  0
  -28.3710  -25.5610   20.7120 C   0  0  0  0  0  2  0  0  0  0  0  0
  -28.4530  -26.9060   20.2660 O   0  0  0  0  0  0  0  0  0  0  0  0
  -24.5430  -31.9370   23.2880 C   0  0  0  0  0  0  0  0  0  0  0  0
  -27.2600  -27.5810   20.2130 C   0  0  0  0  0  0  0  0  0  0  0  0
  -23.3620  -30.5260   21.6350 C   0  0  0  0  0  3  0  0  0  0  0  0
  -24.8370  -29.0250   20.2080 C   0  0  0  0  0  0  0  0  0  0  0  0
  -25.8800  -30.9360   21.4430 C   0  0  0  0  0  2  0  0  0  0  0  0
  -25.9840  -29.5750   20.7960 C   0  0  0  0  0  0  0  0  0  0  0  0
  -27.1990  -28.8630   20.7880 C   0  0  0  0  0  3  0  0  0  0  0  0
  -26.0930  -27.0340   19.6220 C   0  0  0  0  0  3  0  0  0  0  0  0
  -24.8880  -27.7530   19.6120 C   0  0  0  0  0  3  0  0  0  0  0  0
  -23.5790  -29.8570   20.2540 C   0  0  0  0  0  2  0  0  0  0  0  0
  -24.6140  -31.1460   22.1820 N   0  0  0  0  0  0  0  0  0  0  0  0
  -23.4560  -32.1910   23.8250 O   0  0  0  0  0  0  0  0  0  0  0  0
  -22.7270  -29.4890   22.5900 C   0  0  0  0  0  0  0  0  0  0  0  0
  -21.4060  -29.2940   22.4570 N   0  0  0  0  0  0  0  0  0  0  0  0
  -23.4190  -28.8660   23.3970 O   0  0  0  0  0  0  0  0  0  0  0  0
  -20.9110  -29.8480   21.7740 H   0  0  0  0  0  0  0  0  0  0  0  0
  -18.0390  -28.0800   22.9380 C   0  0  0  0  0  0  0  0  0  0  0  0
  -20.5940  -28.3430   23.2180 C   0  0  0  0  0  3  0  0  0  0  0  0
  -20.7060  -26.9210   22.6230 C   0  0  0  0  0  2  0  0  0  0  0  0
  -19.6050  -26.6040   21.6070 C   0  0  0  0  0  2  0  0  0  0  0  0
  -18.2220  -26.7380   22.2510 C   0  0  0  0  0  2  0  0  0  0  0  0
  -19.1540  -28.8420   23.3770 C   0  0  0  0  0  0  0  0  0  0  0  0
  -18.9280  -30.1010   23.9750 C   0  0  0  0  0  3  0  0  0  0  0  0
  -17.6200  -30.5940   24.1440 C   0  0  0  0  0  3  0  0  0  0  0  0
  -16.5200  -29.8270   23.7230 C   0  0  0  0  0  3  0  0  0  0  0  0
  -16.7310  -28.5730   23.1250 C   0  0  0  0  0  3  0  0  0  0  0  0
  -25.8200  -32.5790   23.9160 C   0  0  0  0  0  3  0  0  0  0  0  0
  -25.5110  -33.9850   24.2050 N   0  0  0  0  0  0  0  0  0  0  0  0
  -25.8710  -35.0170   23.4300 C   0  0  0  0  0  0  0  0  0  0  0  0
  -26.5720  -34.8860   22.4220 O   0  0  0  0  0  0  0  0  0  0  0  0
  -24.8890  -34.1610   24.9800 H   0  0  0  0  0  0  0  0  0  0  0  0
  -24.1790  -36.8160   22.9640 C   0  0  0  0  0  1  0  0  0  0  0  0
  -25.3770  -36.4170   23.8390 C   0  0  0  0  0  3  0  0  0  0  0  0
  -27.4770  -37.2990   24.7560 C   0  0  0  0  0  1  0  0  0  0  0  0
  -26.4260  -37.4570   23.7540 N   0  0  0  0  0  0  0  0  0  0  0  0
  -26.0240  -38.3850   23.8590 H   0  0  0  0  0  0  0  0  0  0  0  0
  -26.3150  -31.8370   25.2170 C   0  0  1  0  0  0  0  0  0  0  0  0
  -25.2030  -31.6080   26.2650 C   0  0  0  0  0  1  0  0  0  0  0  0
  -26.9160  -30.4580   24.8590 C   0  0  0  0  0  1  0  0  0  0  0  0
  -27.4470  -32.6500   25.8880 C   0  0  0  0  0  1  0  0  0  0  0  0
  1  4  1  0
  2  1  2  0
  2  6  1  0
  4  3  2  0
  5  9  1  0
  5  3  1  0
  6 11  1  0
  6  5  2  0
  7 10  1  0
  8  7  1  0
  8 55  1  0
  9 11  1  6
  9 12  1  0
  9  7  1  0
 12  8  1  0
 14 19  1  0
 15 16  1  0
 15 14  1  0
 17 16  1  0
 17 30  1  0
 17 18  1  0
 19 13  1  0
 19 18  1  0
 20 13  2  0
 21 23  1  0
 22 25  1  0
 22 24  1  0
 24 26  1  0
 25  4  1  0
 25 21  1  0
 26 13  1  0
 26 23  1  0
 27 28  2  0
 28 47  1  0
 29 28  1  0
 29 32  1  0
 30 27  1  0
 30 31  1  0
 31 29  2  0
 32 33  1  0
 33 34  2  0
 35 38  1  0
 35 34  1  0
 36 35  2  0
 37 36  1  0
 37 32  2  0
 38 39  1  0
 39 40  1  0
 40 41  2  0
 42 41  1  0
 42 46  1  0
 43 42  2  0
 44 39  2  0
 44 43  1  0
 45 44  1  0
 47 48  1  0
 48 51  1  0
 48 50  1  0
 49 47  2  0
 52 53  1  0
 52 27  1  0
 54 52  1  0
 56 55  1  0
 57 68  2  0
 58 56  1  0
 58 63  1  0
 59 67  1  0
 59 69  1  0
 60 66  1  0
 60 62  1  0
 61 67  1  0
 62 61  1  0
 63 62  2  0
 64 58  2  0
 65 64  1  0
 65 60  2  0
 66 59  1  0
 67 57  1  0
 69 71  2  0
 70 69  1  0
 72 70  1  0
 73 82  2  0
 73 78  1  0
 74 70  1  0
 74 78  1  0
 75 74  1  0
 76 77  1  0
 76 75  1  0
 77 73  1  0
 78 79  2  0
 79 80  1  0
 81 80  2  0
 82 81  1  0
 83 57  1  0
 83 84  1  0
 83 93  1  0
 84 87  1  0
 85 89  1  0
 85 84  1  0
 86 85  2  0
 89 88  1  0
 91 89  1  0
 91 92  1  0
 91 90  1  0
 93 96  1  1
 93 94  1  0
 95 93  1  0
M  ISO  4  13 100  26 100  55 101  56 101
M  END
>  <TORSDO>  (84) 
F 17

>  <SCORE>  (84) 
-14.724

>  <name>  (84) 
84

>  <ligand_id>  (84) 
84

>  <original_smiles>  (84) 
[H]c1c([H])c([H])c2c(c1[H])C([H])([H])C([H])([H])C([H])([H])C2([H])N([H])C(=O)C1([H])N(C(=O)C([H])(N([H])C(=O)C([H])(N([H])C([H])([H])[H])C([H])([H])[H])C(C([H])([H])[H])(C([H])([H])[H])C([H])([H])[H])C([H])([H])c2c([H])c(OC([H])([H])C3([H])OC4(Oc5c([H])c([H])c(C6([H])C([H])([H])C([H])([H])N(C(=O)N7C([H])([H])C([H])([H])C([H])([H])C([H])(n8nc(-c9c([H])c([H])c(Oc%10c([H])c([H])c(F)c([H])c%10F)c([H])c9[H])c(C(=O)N([H])[H])c8N([H])[H])C7([H])[H])C([H])([H])C6([H])[H])c([H])c54)C3([H])C([H])([H])[H])c([H])c([H])c2C1([H])[H]

>  <smiles>  (84) 
[H]c1c([H])c([H])c2c(c1[H])C([H])([H])C([H])([H])C([H])([H])C2([H])N([H])C(=O)C1([H])N(C(=O)C([H])(N([H])C(=O)C([H])(N([H])C([H])([H])[H])C([H])([H])[H])C(C([H])([H])[H])(C([H])([H])[H])C([H])([H])[H])C([H])([H])c2c([H])c(OC([H])([H])C3([H])OC4(Oc5c([H])c([H])c(C6([H])C([H])([H])C([H])([H])N(C(=O)N7C([H])([H])C([H])([H])C([H])([H])C([H])(n8nc(-c9c([H])c([H])c(Oc%10c([H])c([H])c(F)c([H])c%10F)c([H])c9[H])c(C(=O)N([H])[H])c8N([H])[H])C7([H])[H])C([H])([H])C6([H])[H])c([H])c54)C3([H])C([H])([H])[H])c([H])c([H])c2C1([H])[H]

$$$$
85:0:0
     RDKit          3D

 99109  0  0  1  0  0  0  0  0999 V2000
  -29.7620  -23.2890   19.3100 C   0  0  0  0  0  3  0  0  0  0  0  0
  -29.5740  -24.7080   19.1870 C   0  0  0  0  0  3  0  0  0  0  0  0
  -28.7260  -22.4060   19.7220 C   0  0  0  0  0  0  0  0  0  0  0  0
  -27.5330  -23.1230   20.0910 C   0  0  0  0  0  3  0  0  0  0  0  0
  -28.3370  -25.3210   19.5370 C   0  0  0  0  0  0  0  0  0  0  0  0
  -26.2860  -22.3920   20.5510 C   0  0  0  0  0  1  0  0  0  0  0  0
  -27.3580  -24.4980   20.0210 N   0  0  0  0  0  0  0  0  0  0  0  0
  -31.8950  -25.1900   18.3280 C   0  0  0  0  0  0  0  0  0  0  0  0
  -32.9650  -25.9690   17.7650 C   0  0  0  0  0  0  0  0  0  0  0  0
  -30.6440  -25.5650   18.6530 C   0  0  0  0  0  3  0  0  0  0  0  0
  -33.8930  -24.7460   17.8330 C   0  0  0  0  0  2  0  0  0  0  0  0
  -32.7260  -23.9110   18.4650 C   0  0  0  0  0  3  0  0  0  0  0  0
  -32.8290  -23.4480   19.9180 C   0  0  0  0  0  1  0  0  0  0  0  0
  -33.0270  -27.1460   17.4000 O   0  0  0  0  0  0  0  0  0  0  0  0
  -28.1580  -26.7410   19.3240 O   0  0  0  0  0  0  0  0  0  0  0  0
  -24.8780  -31.6690   23.5510 C   0  0  0  0  0  0  0  0  0  0  0  0
  -27.0450  -27.5880   19.5560 C   0  0  0  0  0  0  0  0  0  0  0  0
  -23.5000  -30.6300   21.7860 C   0  0  0  0  0  3  0  0  0  0  0  0
  -24.7720  -29.2990   20.0020 C   0  0  0  0  0  0  0  0  0  0  0  0
  -26.0340  -30.8760   21.4680 C   0  0  0  0  0  2  0  0  0  0  0  0
  -26.0000  -29.6230   20.5890 C   0  0  0  0  0  0  0  0  0  0  0  0
  -27.1330  -28.7810   20.3580 C   0  0  0  0  0  3  0  0  0  0  0  0
  -25.7970  -27.3400   18.9480 C   0  0  0  0  0  3  0  0  0  0  0  0
  -24.6750  -28.1670   19.1740 C   0  0  0  0  0  3  0  0  0  0  0  0
  -23.5870  -30.2010   20.2950 C   0  0  0  0  0  2  0  0  0  0  0  0
  -24.8280  -31.0680   22.3260 N   0  0  0  0  0  0  0  0  0  0  0  0
  -23.8500  -31.8800   24.2110 O   0  0  0  0  0  0  0  0  0  0  0  0
  -22.8580  -29.4830   22.6030 C   0  0  0  0  0  0  0  0  0  0  0  0
  -21.5400  -29.2800   22.4350 N   0  0  0  0  0  0  0  0  0  0  0  0
  -23.5490  -28.7800   23.3460 O   0  0  0  0  0  0  0  0  0  0  0  0
  -21.0420  -29.9060   21.8160 H   0  0  0  0  0  0  0  0  0  0  0  0
  -18.2450  -27.7880   22.5670 C   0  0  0  0  0  0  0  0  0  0  0  0
  -20.7430  -28.2270   23.0680 C   0  0  0  0  0  3  0  0  0  0  0  0
  -21.0110  -26.8540   22.4070 C   0  0  0  0  0  2  0  0  0  0  0  0
  -20.0230  -26.5230   21.2850 C   0  0  0  0  0  2  0  0  0  0  0  0
  -18.5870  -26.5110   21.8180 C   0  0  0  0  0  2  0  0  0  0  0  0
  -19.2580  -28.6020   23.1400 C   0  0  0  0  0  0  0  0  0  0  0  0
  -18.8880  -29.7950   23.7980 C   0  0  0  0  0  3  0  0  0  0  0  0
  -17.5360  -30.1780   23.8880 C   0  0  0  0  0  3  0  0  0  0  0  0
  -16.5360  -29.3610   23.3330 C   0  0  0  0  0  3  0  0  0  0  0  0
  -16.8910  -28.1680   22.6770 C   0  0  0  0  0  3  0  0  0  0  0  0
  -26.2280  -32.1400   24.1740 C   0  0  0  0  0  3  0  0  0  0  0  0
  -26.0110  -33.4750   24.7520 N   0  0  0  0  0  0  0  0  0  0  0  0
  -26.4900  -34.6160   24.2380 C   0  0  0  0  0  0  0  0  0  0  0  0
  -27.2280  -34.6460   23.2500 O   0  0  0  0  0  0  0  0  0  0  0  0
  -25.3710  -33.5290   25.5300 H   0  0  0  0  0  0  0  0  0  0  0  0
  -24.9930  -36.6350   24.1120 C   0  0  0  0  0  1  0  0  0  0  0  0
  -26.0890  -35.9340   24.9310 C   0  0  0  0  0  3  0  0  0  0  0  0
  -28.1900  -36.3790   26.1220 C   0  0  0  0  0  1  0  0  0  0  0  0
  -27.2230  -36.8600   25.1400 N   0  0  0  0  0  0  0  0  0  0  0  0
  -26.8930  -37.7730   25.4430 H   0  0  0  0  0  0  0  0  0  0  0  0
  -26.7840  -31.1500   25.2710 C   0  0  1  0  0  0  0  0  0  0  0  0
  -25.7530  -30.7880   26.3660 C   0  0  0  0  0  1  0  0  0  0  0  0
  -27.2640  -29.8310   24.6250 C   0  0  0  0  0  1  0  0  0  0  0  0
  -28.0160  -31.7750   25.9650 C   0  0  0  0  0  1  0  0  0  0  0  0
  -28.8350  -20.8170   19.4050 C   0  0  0  0  0  2  0  0  0  0  0  0
  -30.4690  -15.3460   20.9420 C   0  0  0  0  0  0  0  0  0  0  0  0
  -30.5290  -12.9350   20.2420 C   0  0  0  0  0  2  0  0  0  0  0  0
  -29.7500  -12.7270   18.9250 C   0  0  0  0  0  2  0  0  0  0  0  0
  -28.2580  -12.4730   19.2150 C   0  0  0  0  0  2  0  0  0  0  0  0
  -27.6700  -13.4850   20.2310 C   0  0  0  0  0  3  0  0  0  0  0  0
  -28.5860  -13.6950   21.4560 C   0  0  0  0  0  2  0  0  0  0  0  0
  -29.9080  -14.0810   20.9510 N   0  0  0  0  0  0  0  0  0  0  0  0
  -31.6930  -15.4420   20.7940 O   0  0  0  0  0  0  0  0  0  0  0  0
  -30.0190  -17.7190   21.7670 C   0  0  0  0  0  2  0  0  0  0  0  0
  -29.0630  -17.0450   19.6850 C   0  0  0  0  0  2  0  0  0  0  0  0
  -30.0210  -19.1730   21.0770 C   0  0  0  0  0  2  0  0  0  0  0  0
  -28.1380  -18.3420   19.8100 C   0  0  0  0  0  2  0  0  0  0  0  0
  -29.6720  -16.5090   20.9410 N   0  0  0  0  0  0  0  0  0  0  0  0
  -28.7510  -19.6020   20.3830 N   0  0  2  0  0  4  0  0  0  0  0  0
  -28.1100  -19.8880   21.1090 H   0  0  0  0  0  0  0  0  0  0  0  0
  -25.2280  -14.0120   20.7870 C   0  0  0  0  0  0  0  0  0  0  0  0
  -24.1530  -13.2070   21.0490 C   0  0  0  0  0  0  0  0  0  0  0  0
  -24.6480  -11.8680   21.0250 C   0  0  0  0  0  0  0  0  0  0  0  0
  -26.3050  -13.1580   20.6130 N   0  0  0  0  0  0  0  0  0  0  0  0
  -25.9590  -11.8620   20.8230 N   0  0  0  0  0  0  0  0  0  0  0  0
  -23.9390  -10.5870   21.1220 C   0  0  0  0  0  0  0  0  0  0  0  0
  -24.2970   -9.6160   22.0810 C   0  0  0  0  0  3  0  0  0  0  0  0
  -23.5880   -8.4010   22.1690 C   0  0  0  0  0  3  0  0  0  0  0  0
  -22.5040   -8.1470   21.2940 C   0  0  0  0  0  0  0  0  0  0  0  0
  -22.1660   -9.1070   20.3250 C   0  0  0  0  0  3  0  0  0  0  0  0
  -22.8770  -10.3150   20.2350 C   0  0  0  0  0  3  0  0  0  0  0  0
  -21.7720   -6.9840   21.2920 O   0  0  0  0  0  0  0  0  0  0  0  0
  -21.6090   -6.2340   22.4290 C   0  0  0  0  0  0  0  0  0  0  0  0
  -21.0070   -6.7630   23.5920 C   0  0  0  0  0  3  0  0  0  0  0  0
  -20.7950   -5.9370   24.7120 C   0  0  0  0  0  3  0  0  0  0  0  0
  -21.1720   -4.5820   24.6720 C   0  0  0  0  0  0  0  0  0  0  0  0
  -21.7650   -4.0510   23.5120 C   0  0  0  0  0  3  0  0  0  0  0  0
  -21.9810   -4.8750   22.3930 C   0  0  0  0  0  0  0  0  0  0  0  0
  -22.5330   -4.3520   21.2720 F   0  0  0  0  0  0  0  0  0  0  0  0
  -20.9610   -3.7860   25.7460 F   0  0  0  0  0  0  0  0  0  0  0  0
  -22.7290  -13.6490   21.2120 C   0  0  0  0  0  0  0  0  0  0  0  0
  -21.9510  -12.9330   22.0150 N   0  0  0  0  0  0  0  0  0  0  0  0
  -22.3090  -14.6660   20.6600 O   0  0  0  0  0  0  0  0  0  0  0  0
  -22.2980  -12.1100   22.4850 H   0  0  0  0  0  0  0  0  0  0  0  0
  -20.9930  -13.2140   22.1650 H   0  0  0  0  0  0  0  0  0  0  0  0
  -25.3780  -15.3890   20.6560 N   0  0  0  0  0  0  0  0  0  0  0  0
  -24.5910  -16.0270   20.7130 H   0  0  0  0  0  0  0  0  0  0  0  0
  -26.2450  -15.8460   20.4100 H   0  0  0  0  0  0  0  0  0  0  0  0
  1  3  2  0
  2 10  1  0
  2  1  1  0
  2  5  1  0
  3  4  1  0
  4  6  1  0
  5  7  2  0
  7  4  1  0
  8 12  1  0
  8 10  2  0
  9 11  1  0
  9  8  1  0
 11 12  1  0
 12 13  1  0
 14  9  2  0
 15  5  1  0
 15 17  1  0
 16 27  2  0
 17 22  1  0
 18 26  1  0
 18 28  1  0
 19 25  1  0
 19 21  1  0
 20 26  1  0
 21 20  1  0
 22 21  2  0
 23 24  1  0
 23 17  2  0
 24 19  2  0
 25 18  1  0
 26 16  1  0
 28 30  2  0
 29 28  1  0
 31 29  1  0
 32 41  2  0
 32 37  1  0
 33 29  1  0
 33 37  1  0
 34 33  1  0
 35 36  1  0
 35 34  1  0
 36 32  1  0
 37 38  2  0
 38 39  1  0
 40 39  2  0
 41 40  1  0
 42 16  1  0
 42 43  1  0
 42 52  1  0
 43 46  1  0
 44 43  1  0
 44 48  1  0
 45 44  2  0
 48 47  1  0
 48 50  1  0
 50 51  1  0
 50 49  1  0
 52 55  1  1
 52 53  1  0
 54 52  1  0
 56  3  1  0
 56 70  1  0
 57 63  1  0
 58 63  1  0
 59 60  1  0
 59 58  1  0
 61 60  1  0
 61 75  1  0
 61 62  1  0
 63 62  1  0
 64 57  2  0
 66 68  1  0
 66 69  1  0
 67 65  1  0
 68 70  1  0
 69 57  1  0
 69 65  1  0
 70 67  1  0
 70 71  1  1
 72 73  2  0
 73 92  1  0
 74 73  1  0
 74 77  1  0
 75 72  1  0
 75 76  1  0
 76 74  2  0
 77 78  1  0
 78 79  2  0
 80 79  1  0
 81 80  2  0
 82 81  1  0
 82 77  2  0
 83 80  1  0
 83 84  1  0
 84 85  1  0
 85 86  2  0
 87 86  1  0
 87 91  1  0
 88 87  2  0
 89 84  2  0
 89 88  1  0
 90 89  1  0
 92 93  1  0
 93 96  1  0
 93 95  1  0
 94 92  2  0
 97 98  1  0
 97 72  1  0
 99 97  1  0
M  ISO  4   5 101  15 101  57 100  69 100
M  END
>  <TORSDO>  (85) 
F 18

>  <SCORE>  (85) 
-12.873

>  <name>  (85) 
85

>  <ligand_id>  (85) 
85

>  <original_smiles>  (85) 
[H]C(=C1C(=O)C([H])([H])C1([H])C([H])([H])[H])c1c(Oc2c([H])c([H])c3c(c2[H])C([H])([H])N(C(=O)C([H])(N([H])C(=O)C([H])(N([H])C([H])([H])[H])C([H])([H])[H])C(C([H])([H])[H])(C([H])([H])[H])C([H])([H])[H])C([H])(C(=O)N([H])C2([H])c4c([H])c([H])c([H])c([H])c4C([H])([H])C([H])([H])C2([H])[H])C3([H])[H])nc(C([H])([H])[H])c(C([H])([H])[N+]2([H])C([H])([H])C([H])([H])N(C(=O)N3C([H])([H])C([H])([H])C([H])([H])C([H])(n4nc(-c5c([H])c([H])c(Oc6c([H])c([H])c(F)c([H])c6F)c([H])c5[H])c(C(=O)N([H])[H])c4N([H])[H])C3([H])[H])C([H])([H])C2([H])[H])c1[H]

>  <smiles>  (85) 
[H]C(=C1C(=O)C([H])([H])C1([H])C([H])([H])[H])c1c(Oc2c([H])c([H])c3c(c2[H])C([H])([H])N(C(=O)C([H])(N([H])C(=O)C([H])(N([H])C([H])([H])[H])C([H])([H])[H])C(C([H])([H])[H])(C([H])([H])[H])C([H])([H])[H])C([H])(C(=O)N([H])C2([H])c4c([H])c([H])c([H])c([H])c4C([H])([H])C([H])([H])C2([H])[H])C3([H])[H])nc(C([H])([H])[H])c(C([H])([H])[N+]2([H])C([H])([H])C([H])([H])N(C(=O)N3C([H])([H])C([H])([H])C([H])([H])C([H])(n4nc(-c5c([H])c([H])c(Oc6c([H])c([H])c(F)c([H])c6F)c([H])c5[H])c(C(=O)N([H])[H])c4N([H])[H])C3([H])[H])C([H])([H])C2([H])[H])c1[H]

$$$$
86:0:0
     RDKit          3D

 97108  0  0  1  0  0  0  0  0999 V2000
  -27.8200  -19.9210   20.4710 C   0  0  0  0  0  3  0  0  0  0  0  0
  -29.4190  -20.4390   18.2910 C   0  0  0  0  0  3  0  0  0  0  0  0
  -27.8530  -21.2370   19.9760 C   0  0  0  0  0  0  0  0  0  0  0  0
  -28.6240  -21.5740   18.8160 C   0  0  0  0  0  0  0  0  0  0  0  0
  -28.6100  -18.8720   19.9850 C   0  0  0  0  0  0  0  0  0  0  0  0
  -29.4510  -19.0650   18.8580 C   0  0  0  0  0  0  0  0  0  0  0  0
  -28.5510  -17.5870   20.7970 C   0  0  0  0  0  1  0  0  0  0  0  0
  -28.8760  -23.9350   17.0230 C   0  0  0  0  0  2  0  0  0  0  0  0
  -28.6160  -23.1580   18.3780 C   0  0  0  0  0  3  0  0  0  0  0  0
  -27.4480  -24.2690   18.4810 C   0  0  1  0  0  0  0  0  0  0  0  0
  -28.3770  -25.3000   17.6880 C   0  0  1  0  0  0  0  0  0  0  0  0
  -26.1510  -23.7770   17.7970 C   0  0  0  0  0  1  0  0  0  0  0  0
  -27.0160  -24.8500   19.8410 C   0  0  0  0  0  2  0  0  0  0  0  0
  -29.4870  -26.0720   18.4330 C   0  0  0  0  0  1  0  0  0  0  0  0
  -27.7850  -26.4480   16.8760 O   0  0  0  0  0  0  0  0  0  0  0  0
  -24.9750  -30.7530   22.1210 C   0  0  0  0  0  0  0  0  0  0  0  0
  -26.7770  -27.3180   17.3820 C   0  0  0  0  0  0  0  0  0  0  0  0
  -23.4520  -29.9840   20.3370 C   0  0  0  0  0  3  0  0  0  0  0  0
  -24.5730  -28.9400   18.2800 C   0  0  0  0  0  0  0  0  0  0  0  0
  -25.9620  -30.2680   19.8600 C   0  0  0  0  0  2  0  0  0  0  0  0
  -25.8530  -29.1640   18.8080 C   0  0  0  0  0  0  0  0  0  0  0  0
  -26.9580  -28.3630   18.3570 C   0  0  0  0  0  3  0  0  0  0  0  0
  -25.4870  -27.2170   16.8250 C   0  0  0  0  0  3  0  0  0  0  0  0
  -24.3950  -27.9740   17.2820 C   0  0  0  0  0  3  0  0  0  0  0  0
  -23.4250  -29.7860   18.7990 C   0  0  0  0  0  2  0  0  0  0  0  0
  -24.8240  -30.3360   20.8280 N   0  0  0  0  0  0  0  0  0  0  0  0
  -24.0020  -30.8630   22.8820 O   0  0  0  0  0  0  0  0  0  0  0  0
  -22.8640  -28.7250   21.0220 C   0  0  0  0  0  0  0  0  0  0  0  0
  -21.5250  -28.6200   21.0620 N   0  0  0  0  0  0  0  0  0  0  0  0
  -23.6080  -27.8550   21.4830 O   0  0  0  0  0  0  0  0  0  0  0  0
  -20.9790  -29.3780   20.6790 H   0  0  0  0  0  0  0  0  0  0  0  0
  -18.1840  -27.3990   21.7420 C   0  0  0  0  0  0  0  0  0  0  0  0
  -20.7680  -27.4980   21.6240 C   0  0  0  0  0  3  0  0  0  0  0  0
  -20.6600  -26.3330   20.6150 C   0  0  0  0  0  2  0  0  0  0  0  0
  -19.3900  -26.3920   19.7610 C   0  0  0  0  0  2  0  0  0  0  0  0
  -18.1460  -26.3450   20.6500 C   0  0  0  0  0  2  0  0  0  0  0  0
  -19.4150  -27.9530   22.1890 C   0  0  0  0  0  0  0  0  0  0  0  0
  -19.3890  -28.9530   23.1830 C   0  0  0  0  0  3  0  0  0  0  0  0
  -18.1670  -29.4030   23.7240 C   0  0  0  0  0  3  0  0  0  0  0  0
  -16.9550  -28.8410   23.2870 C   0  0  0  0  0  3  0  0  0  0  0  0
  -16.9680  -27.8360   22.3030 C   0  0  0  0  0  3  0  0  0  0  0  0
  -26.3770  -31.1270   22.6960 C   0  0  0  0  0  3  0  0  0  0  0  0
  -27.1120  -29.9100   23.3830 C   0  0  1  0  0  0  0  0  0  0  0  0
  -26.2480  -29.1670   24.4300 C   0  0  0  0  0  1  0  0  0  0  0  0
  -27.5600  -28.8730   22.3280 C   0  0  0  0  0  1  0  0  0  0  0  0
  -28.3980  -30.4020   24.0870 C   0  0  0  0  0  1  0  0  0  0  0  0
  -26.1810  -32.2200   23.6590 N   0  0  0  0  0  0  0  0  0  0  0  0
  -26.4660  -33.5070   23.4200 C   0  0  0  0  0  0  0  0  0  0  0  0
  -26.9900  -33.8880   22.3700 O   0  0  0  0  0  0  0  0  0  0  0  0
  -25.6960  -31.9860   24.5130 H   0  0  0  0  0  0  0  0  0  0  0  0
  -24.8410  -35.2920   24.1300 C   0  0  0  0  0  1  0  0  0  0  0  0
  -26.1190  -34.5320   24.5190 C   0  0  0  0  0  3  0  0  0  0  0  0
  -28.3690  -34.8890   25.4340 C   0  0  0  0  0  1  0  0  0  0  0  0
  -27.2080  -35.4950   24.7920 N   0  0  0  0  0  0  0  0  0  0  0  0
  -26.8790  -36.2520   25.3860 H   0  0  0  0  0  0  0  0  0  0  0  0
  -27.5380  -23.6050   21.1700 C   0  0  0  0  0  3  0  0  0  0  0  0
  -27.6010  -22.5490   22.2330 C   0  0  0  0  0  2  0  0  0  0  0  0
  -27.0710  -22.1990   20.8450 C   0  0  0  0  0  3  0  0  0  0  0  0
  -30.3860  -17.8310   18.3480 C   0  0  0  0  0  2  0  0  0  0  0  0
  -31.0920  -15.2420   18.8210 C   0  0  0  0  0  0  0  0  0  0  0  0
  -30.9760  -12.7640   18.4250 C   0  0  0  0  0  2  0  0  0  0  0  0
  -29.9110  -12.4390   17.3550 C   0  0  0  0  0  2  0  0  0  0  0  0
  -28.5180  -12.3000   17.9960 C   0  0  0  0  0  2  0  0  0  0  0  0
  -28.1940  -13.4570   18.9770 C   0  0  0  0  0  3  0  0  0  0  0  0
  -29.3670  -13.7270   19.9470 C   0  0  0  0  0  2  0  0  0  0  0  0
  -30.5550  -14.0020   19.1250 N   0  0  0  0  0  0  0  0  0  0  0  0
  -32.2270  -15.3090   18.3490 O   0  0  0  0  0  0  0  0  0  0  0  0
  -30.2570  -16.3640   18.8530 N   0  0  0  0  0  0  0  0  0  0  0  0
  -29.3410  -16.1540   19.2130 H   0  0  0  0  0  0  0  0  0  0  0  0
  -26.0340  -14.1680   20.1660 C   0  0  0  0  0  0  0  0  0  0  0  0
  -24.9820  -13.4550   20.6690 C   0  0  0  0  0  0  0  0  0  0  0  0
  -25.2960  -12.0790   20.4450 C   0  0  0  0  0  0  0  0  0  0  0  0
  -26.9340  -13.2330   19.6810 N   0  0  0  0  0  0  0  0  0  0  0  0
  -26.5060  -11.9630   19.9050 N   0  0  0  0  0  0  0  0  0  0  0  0
  -24.4860  -10.8710   20.6530 C   0  0  0  0  0  0  0  0  0  0  0  0
  -24.8700   -9.8750   21.5780 C   0  0  0  0  0  3  0  0  0  0  0  0
  -24.0620   -8.7350   21.7770 C   0  0  0  0  0  3  0  0  0  0  0  0
  -22.8560   -8.5850   21.0500 C   0  0  0  0  0  0  0  0  0  0  0  0
  -22.4910   -9.5680   20.1140 C   0  0  0  0  0  3  0  0  0  0  0  0
  -23.2990  -10.6990   19.9130 C   0  0  0  0  0  3  0  0  0  0  0  0
  -22.0210   -7.4990   21.1590 O   0  0  0  0  0  0  0  0  0  0  0  0
  -21.7820   -6.8950   22.3670 C   0  0  0  0  0  0  0  0  0  0  0  0
  -21.2120   -7.5940   23.4520 C   0  0  0  0  0  3  0  0  0  0  0  0
  -20.9190   -6.9160   24.6510 C   0  0  0  0  0  3  0  0  0  0  0  0
  -21.1860   -5.5390   24.7660 C   0  0  0  0  0  0  0  0  0  0  0  0
  -21.7510   -4.8390   23.6850 C   0  0  0  0  0  3  0  0  0  0  0  0
  -22.0430   -5.5150   22.4870 C   0  0  0  0  0  0  0  0  0  0  0  0
  -22.5670   -4.8300   21.4420 F   0  0  0  0  0  0  0  0  0  0  0  0
  -20.8980   -4.8870   25.9150 F   0  0  0  0  0  0  0  0  0  0  0  0
  -23.7090  -14.0200   21.2280 C   0  0  0  0  0  0  0  0  0  0  0  0
  -23.0910  -13.3170   22.1690 N   0  0  0  0  0  0  0  0  0  0  0  0
  -23.2830  -15.1160   20.8660 O   0  0  0  0  0  0  0  0  0  0  0  0
  -23.4550  -12.4290   22.4760 H   0  0  0  0  0  0  0  0  0  0  0  0
  -22.2440  -13.6750   22.5880 H   0  0  0  0  0  0  0  0  0  0  0  0
  -26.2760  -15.5310   20.0490 N   0  0  0  0  0  0  0  0  0  0  0  0
  -25.5760  -16.2140   20.3130 H   0  0  0  0  0  0  0  0  0  0  0  0
  -27.0300  -15.9320   19.5080 H   0  0  0  0  0  0  0  0  0  0  0  0
  2  4  2  0
  2  6  1  0
  3  1  2  0
  3 58  1  0
  4  3  1  0
  5  1  1  0
  5  7  1  0
  6  5  2  0
  8 11  1  0
  9  8  1  0
  9 10  1  0
  9  4  1  0
 10 12  1  6
 10 13  1  0
 11 14  1  1
 11 10  1  0
 15 17  1  0
 15 11  1  0
 16 27  2  0
 17 22  1  0
 18 26  1  0
 18 28  1  0
 19 25  1  0
 19 21  1  0
 20 26  1  0
 21 20  1  0
 22 21  2  0
 23 24  1  0
 23 17  2  0
 24 19  2  0
 25 18  1  0
 26 16  1  0
 28 29  1  0
 28 30  2  0
 31 29  1  0
 32 37  2  0
 32 41  1  0
 33 29  1  0
 33 37  1  0
 34 33  1  0
 35 34  1  0
 35 36  1  0
 36 32  1  0
 37 38  1  0
 38 39  2  0
 40 39  1  0
 41 40  2  0
 42 16  1  0
 42 43  1  0
 42 47  1  0
 43 46  1  1
 43 44  1  0
 45 43  1  0
 47 50  1  0
 48 47  1  0
 48 52  1  0
 49 48  2  0
 52 51  1  0
 52 54  1  0
 54 55  1  0
 54 53  1  0
 56 13  1  0
 56 57  1  0
 58 56  1  0
 58 57  1  0
 59 68  1  0
 59  6  1  0
 60 68  1  0
 60 66  1  0
 61 66  1  0
 62 63  1  0
 62 61  1  0
 64 63  1  0
 64 73  1  0
 64 65  1  0
 66 65  1  0
 67 60  2  0
 68 69  1  0
 70 71  2  0
 71 90  1  0
 72 75  1  0
 72 71  1  0
 73 74  1  0
 73 70  1  0
 74 72  2  0
 75 76  1  0
 76 77  2  0
 78 81  1  0
 78 77  1  0
 79 78  2  0
 80 79  1  0
 80 75  2  0
 81 82  1  0
 82 87  2  0
 82 83  1  0
 83 84  2  0
 84 85  1  0
 85 89  1  0
 86 85  2  0
 87 86  1  0
 88 87  1  0
 90 91  1  0
 91 93  1  0
 91 94  1  0
 92 90  2  0
 95 70  1  0
 95 96  1  0
 97 95  1  0
M  ISO  4  11 101  15 101  60 100  68 100
M  END
>  <TORSDO>  (86) 
F 19

>  <SCORE>  (86) 
-8.327

>  <name>  (86) 
86

>  <ligand_id>  (86) 
86

>  <original_smiles>  (86) 
[H]c1c([H])c([H])c2c(c1[H])C([H])([H])C([H])([H])C([H])([H])C2([H])N([H])C(=O)C1([H])N(C(=O)C([H])(N([H])C(=O)C([H])(N([H])C([H])([H])[H])C([H])([H])[H])C(C([H])([H])[H])(C([H])([H])[H])C([H])([H])[H])C([H])([H])c2c([H])c(OC3(C([H])([H])[H])C([H])([H])C([H])(c4c([H])c(C([H])([H])N([H])C(=O)N5C([H])([H])C([H])([H])C([H])([H])C([H])(n6nc(-c7c([H])c([H])c(Oc8c([H])c([H])c(F)c([H])c8F)c([H])c7[H])c(C(=O)N([H])[H])c6N([H])[H])C5([H])[H])c(C([H])([H])[H])c([H])c4C4([H])C([H])([H])C4([H])[H])C3(C([H])([H])[H])C([H])([H])[H])c([H])c([H])c2C1([H])[H]

>  <smiles>  (86) 
[H]c1c([H])c([H])c2c(c1[H])C([H])([H])C([H])([H])C([H])([H])C2([H])N([H])C(=O)C1([H])N(C(=O)C([H])(N([H])C(=O)C([H])(N([H])C([H])([H])[H])C([H])([H])[H])C(C([H])([H])[H])(C([H])([H])[H])C([H])([H])[H])C([H])([H])c2c([H])c(OC3(C([H])([H])[H])C([H])([H])C([H])(c4c([H])c(C([H])([H])N([H])C(=O)N5C([H])([H])C([H])([H])C([H])([H])C([H])(n6nc(-c7c([H])c([H])c(Oc8c([H])c([H])c(F)c([H])c8F)c([H])c7[H])c(C(=O)N([H])[H])c6N([H])[H])C5([H])[H])c(C([H])([H])[H])c([H])c4C4([H])C([H])([H])C4([H])[H])C3(C([H])([H])[H])C([H])([H])[H])c([H])c([H])c2C1([H])[H]

$$$$
87:0:0
     RDKit          3D

101111  0  0  1  0  0  0  0  0999 V2000
  -30.4030  -20.7190   20.8410 C   0  0  0  0  0  3  0  0  0  0  0  0
  -28.6770  -22.1790   19.2400 C   0  0  0  0  0  3  0  0  0  0  0  0
  -29.3910  -20.0320   20.1360 C   0  0  0  0  0  0  0  0  0  0  0  0
  -30.5690  -22.1210   20.7480 C   0  0  0  0  0  0  0  0  0  0  0  0
  -29.7240  -22.8770   19.8910 C   0  0  0  0  0  0  0  0  0  0  0  0
  -28.4680  -20.7740   19.3370 C   0  0  0  0  0  0  0  0  0  0  0  0
  -31.6780  -22.7560   21.5740 C   0  0  0  0  0  1  0  0  0  0  0  0
  -30.9760  -14.5160   20.1980 C   0  0  0  0  0  0  0  0  0  0  0  0
  -30.7140  -12.2620   19.2250 C   0  0  0  0  0  2  0  0  0  0  0  0
  -29.7430  -12.3640   18.0320 C   0  0  0  0  0  2  0  0  0  0  0  0
  -28.2800  -12.2330   18.4990 C   0  0  0  0  0  2  0  0  0  0  0  0
  -27.9520  -13.1400   19.7150 C   0  0  0  0  0  3  0  0  0  0  0  0
  -29.0360  -13.0210   20.8080 C   0  0  0  0  0  2  0  0  0  0  0  0
  -30.3350  -13.3130   20.1840 N   0  0  0  0  0  0  0  0  0  0  0  0
  -32.1310  -14.6450   19.7740 O   0  0  0  0  0  0  0  0  0  0  0  0
  -30.0910  -17.8370   19.0140 C   0  0  0  0  0  2  0  0  0  0  0  0
  -29.9210  -17.8220   21.4720 C   0  0  0  0  0  2  0  0  0  0  0  0
  -29.8490  -16.3140   18.9650 C   0  0  0  0  0  2  0  0  0  0  0  0
  -29.7220  -16.2750   21.4700 C   0  0  0  0  0  2  0  0  0  0  0  0
  -29.3540  -18.4810   20.1950 C   0  0  0  0  0  3  0  0  0  0  0  0
  -30.1560  -15.6020   20.2250 N   0  0  0  0  0  0  0  0  0  0  0  0
  -25.6000  -13.7820   20.5340 C   0  0  0  0  0  0  0  0  0  0  0  0
  -24.5280  -13.0230   20.9190 C   0  0  0  0  0  0  0  0  0  0  0  0
  -24.9570  -11.6630   20.8320 C   0  0  0  0  0  0  0  0  0  0  0  0
  -26.6140  -12.8840   20.2400 N   0  0  0  0  0  0  0  0  0  0  0  0
  -26.2330  -11.6040   20.4750 N   0  0  0  0  0  0  0  0  0  0  0  0
  -24.2110  -10.4120   21.0090 C   0  0  0  0  0  0  0  0  0  0  0  0
  -24.6400   -9.4200   21.9190 C   0  0  0  0  0  3  0  0  0  0  0  0
  -23.8970   -8.2330   22.0880 C   0  0  0  0  0  3  0  0  0  0  0  0
  -22.7090   -8.0290   21.3460 C   0  0  0  0  0  0  0  0  0  0  0  0
  -22.2990   -9.0070   20.4240 C   0  0  0  0  0  3  0  0  0  0  0  0
  -23.0430  -10.1870   20.2530 C   0  0  0  0  0  3  0  0  0  0  0  0
  -21.9370   -6.8950   21.4240 O   0  0  0  0  0  0  0  0  0  0  0  0
  -21.8420   -6.1670   22.5830 C   0  0  0  0  0  0  0  0  0  0  0  0
  -21.4050   -6.7470   23.7940 C   0  0  0  0  0  3  0  0  0  0  0  0
  -21.2560   -5.9460   24.9430 C   0  0  0  0  0  3  0  0  0  0  0  0
  -21.5330   -4.5670   24.8830 C   0  0  0  0  0  0  0  0  0  0  0  0
  -21.9640   -3.9880   23.6770 C   0  0  0  0  0  3  0  0  0  0  0  0
  -22.1140   -4.7850   22.5290 C   0  0  0  0  0  0  0  0  0  0  0  0
  -22.5060   -4.2180   21.3620 F   0  0  0  0  0  0  0  0  0  0  0  0
  -21.3840   -3.7960   25.9850 F   0  0  0  0  0  0  0  0  0  0  0  0
  -23.1530  -13.5220   21.2560 C   0  0  0  0  0  0  0  0  0  0  0  0
  -22.4470  -12.8250   22.1420 N   0  0  0  0  0  0  0  0  0  0  0  0
  -22.7120  -14.5620   20.7710 O   0  0  0  0  0  0  0  0  0  0  0  0
  -22.8170  -11.9840   22.5610 H   0  0  0  0  0  0  0  0  0  0  0  0
  -21.5250  -13.1400   22.4050 H   0  0  0  0  0  0  0  0  0  0  0  0
  -25.7900  -15.1540   20.3900 N   0  0  0  0  0  0  0  0  0  0  0  0
  -25.0470  -15.8230   20.5500 H   0  0  0  0  0  0  0  0  0  0  0  0
  -26.6480  -15.5840   20.0670 H   0  0  0  0  0  0  0  0  0  0  0  0
  -26.0730  -20.3860   19.2300 C   0  0  0  0  0  2  0  0  0  0  0  0
  -27.0230  -20.4530   17.2990 C   0  0  0  0  0  2  0  0  0  0  0  0
  -25.5840  -20.6630   17.8000 C   0  0  0  0  0  3  0  0  0  0  0  0
  -27.3910  -20.1070   18.6730 N   0  0  0  0  0  0  0  0  0  0  0  0
  -25.0750  -22.0380   17.6050 N   0  0  0  0  0  4  0  0  0  0  0  0
  -25.7350  -22.7300   17.9050 H   0  0  0  0  0  0  0  0  0  0  0  0
  -24.2250  -22.1720   18.1230 H   0  0  0  0  0  0  0  0  0  0  0  0
  -24.8620  -22.1990   16.6360 H   0  0  0  0  0  0  0  0  0  0  0  0
  -30.9620  -24.6090   18.4960 C   0  0  0  0  0  1  0  0  0  0  0  0
  -29.9500  -24.3980   19.6400 C   0  0  0  0  0  3  0  0  0  0  0  0
  -28.6700  -25.2220   19.3130 C   0  0  0  0  0  2  0  0  0  0  0  0
  -28.8110  -26.6510   19.4770 O   0  0  0  0  0  0  0  0  0  0  0  0
  -24.9700  -31.3990   23.1590 C   0  0  0  0  0  0  0  0  0  0  0  0
  -27.6370  -27.3880   19.5420 C   0  0  0  0  0  0  0  0  0  0  0  0
  -23.7770  -30.2310   21.3350 C   0  0  0  0  0  3  0  0  0  0  0  0
  -25.2420  -28.8970   19.7330 C   0  0  0  0  0  0  0  0  0  0  0  0
  -26.3050  -30.6110   21.2050 C   0  0  0  0  0  2  0  0  0  0  0  0
  -26.3980  -29.3350   20.3910 C   0  0  0  0  0  0  0  0  0  0  0  0
  -27.5980  -28.5910   20.2900 C   0  0  0  0  0  3  0  0  0  0  0  0
  -26.4560  -26.9740   18.8800 C   0  0  0  0  0  3  0  0  0  0  0  0
  -25.2660  -27.7150   18.9780 C   0  0  0  0  0  3  0  0  0  0  0  0
  -24.0010  -29.7450   19.8790 C   0  0  0  0  0  2  0  0  0  0  0  0
  -25.0360  -30.7530   21.9600 N   0  0  0  0  0  0  0  0  0  0  0  0
  -23.8840  -31.5970   23.7220 O   0  0  0  0  0  0  0  0  0  0  0  0
  -23.1190  -29.0900   22.1450 C   0  0  0  0  0  0  0  0  0  0  0  0
  -21.7860  -28.9670   22.0350 N   0  0  0  0  0  0  0  0  0  0  0  0
  -23.8040  -28.3260   22.8310 O   0  0  0  0  0  0  0  0  0  0  0  0
  -21.2940  -29.6390   21.4640 H   0  0  0  0  0  0  0  0  0  0  0  0
  -18.3840  -27.8430   22.5100 C   0  0  0  0  0  0  0  0  0  0  0  0
  -20.9620  -27.9430   22.6770 C   0  0  0  0  0  3  0  0  0  0  0  0
  -20.9630  -26.6310   21.8590 C   0  0  0  0  0  2  0  0  0  0  0  0
  -19.8000  -26.5360   20.8670 C   0  0  0  0  0  2  0  0  0  0  0  0
  -18.4590  -26.6260   21.6010 C   0  0  0  0  0  2  0  0  0  0  0  0
  -19.5600  -28.4700   23.0020 C   0  0  0  0  0  0  0  0  0  0  0  0
  -19.4340  -29.6170   23.8150 C   0  0  0  0  0  3  0  0  0  0  0  0
  -18.1660  -30.1370   24.1360 C   0  0  0  0  0  3  0  0  0  0  0  0
  -17.0050  -29.5040   23.6570 C   0  0  0  0  0  3  0  0  0  0  0  0
  -17.1160  -28.3560   22.8520 C   0  0  0  0  0  3  0  0  0  0  0  0
  -26.2510  -31.9400   23.8680 C   0  0  0  0  0  3  0  0  0  0  0  0
  -26.7270  -31.0380   25.0710 C   0  0  1  0  0  0  0  0  0  0  0  0
  -25.6120  -30.7230   26.0950 C   0  0  0  0  0  1  0  0  0  0  0  0
  -27.2850  -29.6910   24.5530 C   0  0  0  0  0  1  0  0  0  0  0  0
  -27.8880  -31.7340   25.8220 C   0  0  0  0  0  1  0  0  0  0  0  0
  -25.9610  -33.3060   24.3250 N   0  0  0  0  0  0  0  0  0  0  0  0
  -26.3310  -34.4180   23.6750 C   0  0  0  0  0  0  0  0  0  0  0  0
  -27.0220  -34.3990   22.6530 O   0  0  0  0  0  0  0  0  0  0  0  0
  -25.3550  -33.3970   25.1260 H   0  0  0  0  0  0  0  0  0  0  0  0
  -24.6510  -36.2750   23.4420 C   0  0  0  0  0  1  0  0  0  0  0  0
  -25.8560  -35.7670   24.2500 C   0  0  0  0  0  3  0  0  0  0  0  0
  -27.9810  -36.5170   25.2230 C   0  0  0  0  0  1  0  0  0  0  0  0
  -26.9120  -36.8020   24.2700 N   0  0  0  0  0  0  0  0  0  0  0  0
  -26.5200  -37.7120   24.4960 H   0  0  0  0  0  0  0  0  0  0  0  0
  2  6  2  0
  2  5  1  0
  3  1  2  0
  4  1  1  0
  4  7  1  0
  5  4  2  0
  6  3  1  0
  8 21  1  0
  9 14  1  0
 10 11  1  0
 10  9  1  0
 12 11  1  0
 12 25  1  0
 12 13  1  0
 14  8  1  0
 14 13  1  0
 15  8  2  0
 16 20  1  0
 18 16  1  0
 18 21  1  0
 19 17  1  0
 20  3  1  0
 20 17  1  0
 21 19  1  0
 22 23  2  0
 23 42  1  0
 24 23  1  0
 24 27  1  0
 25 26  1  0
 25 22  1  0
 26 24  2  0
 27 28  1  0
 28 29  2  0
 30 33  1  0
 30 29  1  0
 31 30  2  0
 32 31  1  0
 32 27  2  0
 33 34  1  0
 34 35  1  0
 35 36  2  0
 37 36  1  0
 37 41  1  0
 38 37  2  0
 39 34  2  0
 39 38  1  0
 40 39  1  0
 42 43  1  0
 43 46  1  0
 43 45  1  0
 44 42  2  0
 47 22  1  0
 47 48  1  0
 49 47  1  0
 51 52  1  0
 51 53  1  0
 52 54  1  0
 52 50  1  0
 53 50  1  0
 53  6  1  0
 54 55  1  0
 54 56  1  0
 57 54  1  0
 59 58  1  0
 59  5  1  0
 60 61  1  0
 60 59  1  0
 61 63  1  0
 62 73  2  0
 63 68  1  0
 64 72  1  0
 64 74  1  0
 65 71  1  0
 65 67  1  0
 66 72  1  0
 67 66  1  0
 68 67  2  0
 69 70  1  0
 69 63  2  0
 70 65  2  0
 71 64  1  0
 72 62  1  0
 74 76  2  0
 75 74  1  0
 77 75  1  0
 78 87  2  0
 78 83  1  0
 79 75  1  0
 79 83  1  0
 80 79  1  0
 81 82  1  0
 81 80  1  0
 82 78  1  0
 83 84  2  0
 84 85  1  0
 86 85  2  0
 87 86  1  0
 88 62  1  0
 88 93  1  0
 88 89  1  0
 89 92  1  1
 89 90  1  0
 91 89  1  0
 93 96  1  0
 94 98  1  0
 94 93  1  0
 95 94  2  0
 98 97  1  0
 98100  1  0
100101  1  0
100 99  1  0
M  ISO  4   8 100  21 100  60 101  61 101
M  END
>  <TORSDO>  (87) 
F 20

>  <SCORE>  (87) 
-11.859

>  <name>  (87) 
87

>  <ligand_id>  (87) 
87

>  <original_smiles>  (87) 
[H]c1c([H])c([H])c2c(c1[H])C([H])([H])C([H])([H])C([H])([H])C2([H])N([H])C(=O)C1([H])N(C(=O)C([H])(N([H])C(=O)C([H])(N([H])C([H])([H])[H])C([H])([H])[H])C(C([H])([H])[H])(C([H])([H])[H])C([H])([H])[H])C([H])([H])c2c([H])c(OC([H])([H])C([H])(c3c([H])c(N4C([H])([H])C([H])([N+]([H])([H])[H])C4([H])[H])c(C4([H])C([H])([H])C([H])([H])N(C(=O)N5C([H])([H])C([H])([H])C([H])([H])C([H])(n6nc(-c7c([H])c([H])c(Oc8c([H])c([H])c(F)c([H])c8F)c([H])c7[H])c(C(=O)N([H])[H])c6N([H])[H])C5([H])[H])C([H])([H])C4([H])[H])c([H])c3C([H])([H])[H])C([H])([H])[H])c([H])c([H])c2C1([H])[H]

>  <smiles>  (87) 
[H]c1c([H])c([H])c2c(c1[H])C([H])([H])C([H])([H])C([H])([H])C2([H])N([H])C(=O)C1([H])N(C(=O)C([H])(N([H])C(=O)C([H])(N([H])C([H])([H])[H])C([H])([H])[H])C(C([H])([H])[H])(C([H])([H])[H])C([H])([H])[H])C([H])([H])c2c([H])c(OC([H])([H])C([H])(c3c([H])c(N4C([H])([H])C([H])([N+]([H])([H])[H])C4([H])[H])c(C4([H])C([H])([H])C([H])([H])N(C(=O)N5C([H])([H])C([H])([H])C([H])([H])C([H])(n6nc(-c7c([H])c([H])c(Oc8c([H])c([H])c(F)c([H])c8F)c([H])c7[H])c(C(=O)N([H])[H])c6N([H])[H])C5([H])[H])C([H])([H])C4([H])[H])c([H])c3C([H])([H])[H])C([H])([H])[H])c([H])c([H])c2C1([H])[H]

$$$$
88:0:0
     RDKit          3D

100109  0  0  1  0  0  0  0  0999 V2000
  -27.9540  -18.5300   19.7400 C   0  0  0  0  0  3  0  0  0  0  0  0
  -29.1420  -19.3050   19.7470 C   0  0  0  0  0  0  0  0  0  0  0  0
  -29.0020  -20.7590   19.4110 C   0  0  0  0  0  0  0  0  0  0  0  0
  -27.7820  -21.1080   18.7310 C   0  0  0  0  0  0  0  0  0  0  0  0
  -26.6370  -20.2730   18.7470 C   0  0  0  0  0  0  0  0  0  0  0  0
  -26.7010  -19.0000   19.3230 C   0  0  0  0  0  0  0  0  0  0  0  0
  -27.6590  -22.3560   17.8570 C   0  0  0  0  0  1  0  0  0  0  0  0
  -25.3170  -20.7390   18.1320 C   0  0  0  0  0  1  0  0  0  0  0  0
  -31.4240  -14.6460   20.8350 C   0  0  0  0  0  0  0  0  0  0  0  0
  -31.2600  -12.1950   20.3480 C   0  0  0  0  0  2  0  0  0  0  0  0
  -30.5110  -11.9590   19.0200 C   0  0  0  0  0  2  0  0  0  0  0  0
  -28.9950  -11.8750   19.2730 C   0  0  0  0  0  2  0  0  0  0  0  0
  -28.4760  -13.0290   20.1720 C   0  0  0  0  0  3  0  0  0  0  0  0
  -29.3650  -13.2460   21.4170 C   0  0  0  0  0  2  0  0  0  0  0  0
  -30.7400  -13.4520   20.9460 N   0  0  0  0  0  0  0  0  0  0  0  0
  -32.6330  -14.6160   20.5820 O   0  0  0  0  0  0  0  0  0  0  0  0
  -30.2140  -16.7430   19.8500 C   0  0  0  0  0  2  0  0  0  0  0  0
  -31.4100  -16.8880   21.8380 C   0  0  0  0  0  2  0  0  0  0  0  0
  -30.3770  -18.3380   20.1050 C   0  0  0  0  0  3  0  0  0  0  0  0
  -30.7160  -18.2550   21.6080 C   0  0  0  0  0  3  0  0  0  0  0  0
  -30.7780  -15.8790   20.9670 N   0  0  0  0  0  0  0  0  0  0  0  0
  -26.0740  -13.7990   20.6180 C   0  0  0  0  0  0  0  0  0  0  0  0
  -24.9250  -13.1130   20.9010 C   0  0  0  0  0  0  0  0  0  0  0  0
  -25.2930  -11.7340   20.9650 C   0  0  0  0  0  0  0  0  0  0  0  0
  -27.0730  -12.8450   20.5270 N   0  0  0  0  0  0  0  0  0  0  0  0
  -26.6040  -11.6000   20.7990 N   0  0  0  0  0  0  0  0  0  0  0  0
  -24.4640  -10.5310   21.1160 C   0  0  0  0  0  0  0  0  0  0  0  0
  -24.7790   -9.5300   22.0610 C   0  0  0  0  0  3  0  0  0  0  0  0
  -23.9550   -8.3920   22.2010 C   0  0  0  0  0  3  0  0  0  0  0  0
  -22.8000   -8.2480   21.3940 C   0  0  0  0  0  0  0  0  0  0  0  0
  -22.5050   -9.2360   20.4390 C   0  0  0  0  0  3  0  0  0  0  0  0
  -23.3290  -10.3650   20.2970 C   0  0  0  0  0  3  0  0  0  0  0  0
  -21.9550   -7.1660   21.4440 O   0  0  0  0  0  0  0  0  0  0  0  0
  -21.8050   -6.4210   22.5860 C   0  0  0  0  0  0  0  0  0  0  0  0
  -21.3970   -7.0030   23.8060 C   0  0  0  0  0  3  0  0  0  0  0  0
  -21.1880   -6.1890   24.9390 C   0  0  0  0  0  3  0  0  0  0  0  0
  -21.3770   -4.7980   24.8500 C   0  0  0  0  0  0  0  0  0  0  0  0
  -21.7770   -4.2160   23.6350 C   0  0  0  0  0  3  0  0  0  0  0  0
  -21.9870   -5.0250   22.5050 C   0  0  0  0  0  0  0  0  0  0  0  0
  -22.3520   -4.4580   21.3300 F   0  0  0  0  0  0  0  0  0  0  0  0
  -21.1680   -4.0150   25.9360 F   0  0  0  0  0  0  0  0  0  0  0  0
  -23.5440  -13.6920   21.0050 C   0  0  0  0  0  0  0  0  0  0  0  0
  -22.6990  -13.1130   21.8480 N   0  0  0  0  0  0  0  0  0  0  0  0
  -23.2240  -14.6960   20.3700 O   0  0  0  0  0  0  0  0  0  0  0  0
  -22.9680  -12.3010   22.3830 H   0  0  0  0  0  0  0  0  0  0  0  0
  -21.7670  -13.4860   21.9610 H   0  0  0  0  0  0  0  0  0  0  0  0
  -26.3510  -15.1450   20.4010 N   0  0  0  0  0  0  0  0  0  0  0  0
  -25.6190  -15.8460   20.3820 H   0  0  0  0  0  0  0  0  0  0  0  0
  -27.2480  -15.4990   20.1020 H   0  0  0  0  0  0  0  0  0  0  0  0
  -31.4630  -19.4090   22.1380 N   0  0  0  0  0  4  0  0  0  0  0  0
  -32.3470  -19.5210   21.6760 H   0  0  0  0  0  0  0  0  0  0  0  0
  -31.6340  -19.2940   23.1210 H   0  0  0  0  0  0  0  0  0  0  0  0
  -30.9250  -20.2510   22.0200 H   0  0  0  0  0  0  0  0  0  0  0  0
  -31.3550  -21.5610   20.2040 C   0  0  0  0  0  1  0  0  0  0  0  0
  -29.9990  -22.0080   19.6370 C   0  0  0  0  0  3  0  0  0  0  0  0
  -29.5080  -23.3700   20.4560 C   0  0  0  0  0  2  0  0  0  0  0  0
  -28.8190  -24.6950   19.7950 C   0  0  0  0  0  2  0  0  0  0  0  0
  -28.9310  -26.1100   20.3270 O   0  0  0  0  0  0  0  0  0  0  0  0
  -24.9510  -31.4570   23.2430 C   0  0  0  0  0  0  0  0  0  0  0  0
  -27.8370  -27.0100   20.1970 C   0  0  0  0  0  0  0  0  0  0  0  0
  -23.8860  -30.0960   21.4840 C   0  0  0  0  0  3  0  0  0  0  0  0
  -25.4570  -28.6310   20.0890 C   0  0  0  0  0  0  0  0  0  0  0  0
  -26.4300  -30.4530   21.4810 C   0  0  0  0  0  2  0  0  0  0  0  0
  -26.5780  -29.0970   20.7870 C   0  0  0  0  0  0  0  0  0  0  0  0
  -27.7680  -28.2980   20.8350 C   0  0  0  0  0  3  0  0  0  0  0  0
  -26.7000  -26.6360   19.4420 C   0  0  0  0  0  3  0  0  0  0  0  0
  -25.5250  -27.4110   19.4050 C   0  0  0  0  0  3  0  0  0  0  0  0
  -24.2020  -29.4830   20.0950 C   0  0  0  0  0  2  0  0  0  0  0  0
  -25.1040  -30.6860   22.1260 N   0  0  0  0  0  0  0  0  0  0  0  0
  -23.8300  -31.6950   23.7160 O   0  0  0  0  0  0  0  0  0  0  0  0
  -23.1860  -29.0310   22.3630 C   0  0  0  0  0  0  0  0  0  0  0  0
  -21.8630  -28.8710   22.1860 N   0  0  0  0  0  0  0  0  0  0  0  0
  -23.8350  -28.3550   23.1660 O   0  0  0  0  0  0  0  0  0  0  0  0
  -21.3990  -29.4690   21.5160 H   0  0  0  0  0  0  0  0  0  0  0  0
  -18.4520  -27.7270   22.5830 C   0  0  0  0  0  0  0  0  0  0  0  0
  -21.0150  -27.8970   22.8780 C   0  0  0  0  0  3  0  0  0  0  0  0
  -21.0830  -26.5140   22.1910 C   0  0  0  0  0  2  0  0  0  0  0  0
  -19.9770  -26.3030   21.1510 C   0  0  0  0  0  2  0  0  0  0  0  0
  -18.5960  -26.4330   21.8010 C   0  0  0  0  0  2  0  0  0  0  0  0
  -19.5880  -28.4230   23.0750 C   0  0  0  0  0  0  0  0  0  0  0  0
  -19.3990  -29.6390   23.7660 C   0  0  0  0  0  3  0  0  0  0  0  0
  -18.1070  -30.1590   23.9690 C   0  0  0  0  0  3  0  0  0  0  0  0
  -16.9850  -29.4590   23.4930 C   0  0  0  0  0  3  0  0  0  0  0  0
  -17.1580  -28.2430   22.8060 C   0  0  0  0  0  3  0  0  0  0  0  0
  -26.1770  -32.0940   23.9660 C   0  0  0  0  0  3  0  0  0  0  0  0
  -25.8260  -33.4840   24.2940 N   0  0  0  0  0  0  0  0  0  0  0  0
  -26.2130  -34.5550   23.5870 C   0  0  0  0  0  0  0  0  0  0  0  0
  -26.9680  -34.4770   22.6150 O   0  0  0  0  0  0  0  0  0  0  0  0
  -25.1620  -33.6180   25.0420 H   0  0  0  0  0  0  0  0  0  0  0  0
  -24.5070  -36.3450   23.1220 C   0  0  0  0  0  1  0  0  0  0  0  0
  -25.6770  -35.9310   24.0280 C   0  0  0  0  0  3  0  0  0  0  0  0
  -27.7220  -36.8150   25.0610 C   0  0  0  0  0  1  0  0  0  0  0  0
  -26.7070  -36.9930   24.0260 N   0  0  0  0  0  0  0  0  0  0  0  0
  -26.2830  -37.9070   24.1520 H   0  0  0  0  0  0  0  0  0  0  0  0
  -26.6050  -31.3100   25.2680 C   0  0  1  0  0  0  0  0  0  0  0  0
  -25.4400  -31.0590   26.2530 C   0  0  0  0  0  1  0  0  0  0  0  0
  -27.2190  -29.9380   24.9070 C   0  0  0  0  0  1  0  0  0  0  0  0
  -27.7050  -32.1020   26.0160 C   0  0  0  0  0  1  0  0  0  0  0  0
  -25.6250  -16.9710   20.0320 C   0  0  0  0  0  1  0  0  0  0  0  0
  -25.5580  -18.2300   19.3720 O   0  0  0  0  0  0  0  0  0  0  0  0
  1  2  1  0
  3 55  1  0
  3  2  2  0
  4  5  2  0
  4  3  1  0
  5  6  1  0
  6100  1  0
  6  1  2  0
  7  4  1  0
  8  5  1  0
  9 15  1  0
  9 21  1  0
 10 15  1  0
 11 12  1  0
 11 10  1  0
 13 12  1  0
 13 25  1  0
 13 14  1  0
 15 14  1  0
 16  9  2  0
 17 19  1  0
 17 21  1  0
 19  2  1  0
 19 20  1  0
 20 18  1  0
 20 50  1  0
 21 18  1  0
 22 23  2  0
 23 24  1  0
 23 42  1  0
 24 27  1  0
 25 22  1  0
 25 26  1  0
 26 24  2  0
 27 28  1  0
 28 29  2  0
 30 33  1  0
 30 29  1  0
 31 30  2  0
 32 31  1  0
 32 27  2  0
 33 34  1  0
 34 35  1  0
 35 36  2  0
 37 36  1  0
 37 41  1  0
 38 37  2  0
 39 34  2  0
 39 38  1  0
 40 39  1  0
 42 43  1  0
 43 46  1  0
 43 45  1  0
 44 42  2  0
 47 22  1  0
 48 47  1  0
 49 47  1  0
 50 52  1  0
 51 50  1  0
 53 50  1  0
 55 54  1  0
 55 56  1  0
 57 58  1  0
 57 56  1  0
 59 70  2  0
 60 58  1  0
 60 65  1  0
 61 69  1  0
 61 71  1  0
 62 68  1  0
 62 64  1  0
 63 69  1  0
 64 65  2  0
 64 63  1  0
 66 60  2  0
 67 66  1  0
 67 62  2  0
 68 61  1  0
 69 59  1  0
 71 73  2  0
 72 71  1  0
 74 72  1  0
 75 84  2  0
 75 80  1  0
 76 72  1  0
 76 80  1  0
 77 76  1  0
 78 79  1  0
 78 77  1  0
 79 75  1  0
 80 81  2  0
 81 82  1  0
 83 82  2  0
 84 83  1  0
 85 59  1  0
 85 86  1  0
 85 95  1  0
 86 89  1  0
 87 91  1  0
 87 86  1  0
 88 87  2  0
 91 90  1  0
 93 91  1  0
 93 94  1  0
 93 92  1  0
 95 98  1  1
 95 96  1  0
 97 95  1  0
100 99  1  0
M  ISO  4   9 100  21 100  57 101  58 101
M  END
>  <TORSDO>  (88) 
F 21

>  <SCORE>  (88) 
-11.934

>  <name>  (88) 
88

>  <ligand_id>  (88) 
88

>  <original_smiles>  (88) 
[H]c1c([H])c([H])c2c(c1[H])C([H])([H])C([H])([H])C([H])([H])C2([H])N([H])C(=O)C1([H])N(C(=O)C([H])(N([H])C(=O)C([H])(N([H])C([H])([H])[H])C([H])([H])[H])C(C([H])([H])[H])(C([H])([H])[H])C([H])([H])[H])C([H])([H])c2c([H])c(OC([H])([H])C([H])([H])C([H])(c3c(C([H])([H])[H])c(C([H])([H])[H])c(OC([H])([H])[H])c([H])c3C3([H])C([H])([H])N(C(=O)N4C([H])([H])C([H])([H])C([H])([H])C([H])(n5nc(-c6c([H])c([H])c(Oc7c([H])c([H])c(F)c([H])c7F)c([H])c6[H])c(C(=O)N([H])[H])c5N([H])[H])C4([H])[H])C([H])([H])C3([H])[N+]([H])([H])[H])C([H])([H])[H])c([H])c([H])c2C1([H])[H]

>  <smiles>  (88) 
[H]c1c([H])c([H])c2c(c1[H])C([H])([H])C([H])([H])C([H])([H])C2([H])N([H])C(=O)C1([H])N(C(=O)C([H])(N([H])C(=O)C([H])(N([H])C([H])([H])[H])C([H])([H])[H])C(C([H])([H])[H])(C([H])([H])[H])C([H])([H])[H])C([H])([H])c2c([H])c(OC([H])([H])C([H])([H])C([H])(c3c(C([H])([H])[H])c(C([H])([H])[H])c(OC([H])([H])[H])c([H])c3C3([H])C([H])([H])N(C(=O)N4C([H])([H])C([H])([H])C([H])([H])C([H])(n5nc(-c6c([H])c([H])c(Oc7c([H])c([H])c(F)c([H])c7F)c([H])c6[H])c(C(=O)N([H])[H])c5N([H])[H])C4([H])[H])C([H])([H])C3([H])[N+]([H])([H])[H])C([H])([H])[H])c([H])c([H])c2C1([H])[H]

$$$$
89:0:0
     RDKit          3D

 97107  0  0  1  0  0  0  0  0999 V2000
  -29.4660  -22.5980   19.5430 C   0  0  0  0  0  0  0  0  0  0  0  0
  -29.7100  -23.2720   18.3100 C   0  0  0  0  0  0  0  0  0  0  0  0
  -30.8710  -23.0040   17.5460 C   0  0  0  0  0  0  0  0  0  0  0  0
  -31.7710  -22.0040   17.9710 C   0  0  0  0  0  0  0  0  0  0  0  0
  -31.4360  -21.1800   19.0740 C   0  0  0  0  0  0  0  0  0  0  0  0
  -30.1870  -21.3140   19.7540 C   0  0  0  0  0  0  0  0  0  0  0  0
  -28.6960  -24.2810   17.7690 C   0  0  0  0  0  1  0  0  0  0  0  0
  -31.2220  -23.8370   16.3100 C   0  0  0  0  0  1  0  0  0  0  0  0
  -33.0710  -21.7940   17.1840 C   0  0  0  0  0  1  0  0  0  0  0  0
  -32.5010  -20.2150   19.5940 C   0  0  0  0  0  1  0  0  0  0  0  0
  -29.0410  -24.3820   21.4990 C   0  0  0  0  0  2  0  0  0  0  0  0
  -28.5000  -23.3620   20.5370 C   0  0  0  0  0  3  0  0  0  0  0  0
  -27.8780  -24.8830   20.6600 C   0  0  0  0  0  3  0  0  0  0  0  0
  -28.2560  -26.3140   20.3200 O   0  0  0  0  0  0  0  0  0  0  0  0
  -24.5390  -31.8700   23.2610 C   0  0  0  0  0  0  0  0  0  0  0  0
  -27.1900  -27.2510   20.2530 C   0  0  0  0  0  0  0  0  0  0  0  0
  -23.3670  -30.4760   21.5980 C   0  0  0  0  0  3  0  0  0  0  0  0
  -24.8410  -28.9200   20.1950 C   0  0  0  0  0  0  0  0  0  0  0  0
  -25.9150  -30.7740   21.4650 C   0  0  0  0  0  2  0  0  0  0  0  0
  -26.0070  -29.3920   20.8140 C   0  0  0  0  0  0  0  0  0  0  0  0
  -27.1880  -28.5740   20.8240 C   0  0  0  0  0  3  0  0  0  0  0  0
  -26.0020  -26.8540   19.6010 C   0  0  0  0  0  3  0  0  0  0  0  0
  -24.8460  -27.6610   19.5760 C   0  0  0  0  0  3  0  0  0  0  0  0
  -23.6060  -29.8020   20.2220 C   0  0  0  0  0  2  0  0  0  0  0  0
  -24.6250  -31.0610   22.1640 N   0  0  0  0  0  0  0  0  0  0  0  0
  -23.4450  -32.1530   23.7730 O   0  0  0  0  0  0  0  0  0  0  0  0
  -22.6770  -29.4640   22.5470 C   0  0  0  0  0  0  0  0  0  0  0  0
  -21.3500  -29.2990   22.4040 N   0  0  0  0  0  0  0  0  0  0  0  0
  -23.3380  -28.8280   23.3710 O   0  0  0  0  0  0  0  0  0  0  0  0
  -20.8760  -29.8690   21.7160 H   0  0  0  0  0  0  0  0  0  0  0  0
  -17.9540  -28.1380   22.8810 C   0  0  0  0  0  0  0  0  0  0  0  0
  -20.5150  -28.3640   23.1590 C   0  0  0  0  0  3  0  0  0  0  0  0
  -20.6000  -26.9370   22.5680 C   0  0  0  0  0  2  0  0  0  0  0  0
  -19.4980  -26.6400   21.5460 C   0  0  0  0  0  2  0  0  0  0  0  0
  -18.1160  -26.7940   22.1880 C   0  0  0  0  0  2  0  0  0  0  0  0
  -19.0810  -28.8810   23.3220 C   0  0  0  0  0  0  0  0  0  0  0  0
  -18.8760  -30.1370   23.9330 C   0  0  0  0  0  3  0  0  0  0  0  0
  -17.5770  -30.6510   24.1040 C   0  0  0  0  0  3  0  0  0  0  0  0
  -16.4650  -29.9050   23.6770 C   0  0  0  0  0  3  0  0  0  0  0  0
  -16.6550  -28.6500   23.0720 C   0  0  0  0  0  3  0  0  0  0  0  0
  -25.8080  -32.5030   23.9100 C   0  0  0  0  0  3  0  0  0  0  0  0
  -25.5000  -33.9120   24.2050 N   0  0  0  0  0  0  0  0  0  0  0  0
  -25.8670  -34.9500   23.4400 C   0  0  0  0  0  0  0  0  0  0  0  0
  -26.5620  -34.8210   22.4290 O   0  0  0  0  0  0  0  0  0  0  0  0
  -24.8880  -34.0870   24.9880 H   0  0  0  0  0  0  0  0  0  0  0  0
  -24.1760  -36.7650   23.0070 C   0  0  0  0  0  1  0  0  0  0  0  0
  -25.3840  -36.3520   23.8630 C   0  0  0  0  0  3  0  0  0  0  0  0
  -27.4980  -37.2230   24.7560 C   0  0  0  0  0  1  0  0  0  0  0  0
  -26.4340  -37.3890   23.7700 N   0  0  0  0  0  0  0  0  0  0  0  0
  -26.0350  -38.3170   23.8860 H   0  0  0  0  0  0  0  0  0  0  0  0
  -26.2770  -31.7550   25.2200 C   0  0  1  0  0  0  0  0  0  0  0  0
  -25.1480  -31.5460   26.2590 C   0  0  0  0  0  1  0  0  0  0  0  0
  -26.8600  -30.3640   24.8750 C   0  0  0  0  0  1  0  0  0  0  0  0
  -27.4160  -32.5520   25.8990 C   0  0  0  0  0  1  0  0  0  0  0  0
  -29.7940  -20.1710   20.5720 N   0  0  0  0  0  0  0  0  0  0  0  0
  -29.0120  -20.3680   21.1860 H   0  0  0  0  0  0  0  0  0  0  0  0
  -30.7330  -14.9110   20.4160 C   0  0  0  0  0  0  0  0  0  0  0  0
  -30.5050  -12.6080   19.4300 C   0  0  0  0  0  2  0  0  0  0  0  0
  -29.5650  -12.5940   18.2050 C   0  0  0  0  0  2  0  0  0  0  0  0
  -28.1060  -12.3760   18.6500 C   0  0  0  0  0  2  0  0  0  0  0  0
  -27.7070  -13.2950   19.8300 C   0  0  0  0  0  3  0  0  0  0  0  0
  -28.7780  -13.3100   20.9500 C   0  0  0  0  0  2  0  0  0  0  0  0
  -30.0520  -13.7030   20.3280 N   0  0  0  0  0  0  0  0  0  0  0  0
  -31.9490  -14.8960   20.2090 O   0  0  0  0  0  0  0  0  0  0  0  0
  -28.4630  -18.0180   20.2480 C   0  0  0  0  0  2  0  0  0  0  0  0
  -28.7090  -16.4860   20.1590 C   0  0  0  0  0  2  0  0  0  0  0  0
  -30.7210  -17.5440   20.7050 C   0  0  0  0  0  2  0  0  0  0  0  0
  -29.8090  -18.7120   20.0680 C   0  0  0  0  0  3  0  0  0  0  0  0
  -30.0840  -16.1630   20.5540 N   0  0  0  0  0  0  0  0  0  0  0  0
  -25.3270  -13.8950   20.5690 C   0  0  0  0  0  0  0  0  0  0  0  0
  -24.2610  -13.1220   20.9340 C   0  0  0  0  0  0  0  0  0  0  0  0
  -24.7240  -11.7710   20.8990 C   0  0  0  0  0  0  0  0  0  0  0  0
  -26.3710  -13.0130   20.3350 N   0  0  0  0  0  0  0  0  0  0  0  0
  -26.0160  -11.7310   20.5980 N   0  0  0  0  0  0  0  0  0  0  0  0
  -23.9960  -10.5100   21.0730 C   0  0  0  0  0  0  0  0  0  0  0  0
  -24.4090   -9.5460   22.0190 C   0  0  0  0  0  3  0  0  0  0  0  0
  -23.6810   -8.3490   22.1830 C   0  0  0  0  0  3  0  0  0  0  0  0
  -22.5280   -8.1080   21.3970 C   0  0  0  0  0  0  0  0  0  0  0  0
  -22.1350   -9.0610   20.4410 C   0  0  0  0  0  3  0  0  0  0  0  0
  -22.8640  -10.2510   20.2770 C   0  0  0  0  0  3  0  0  0  0  0  0
  -21.7730   -6.9630   21.4720 O   0  0  0  0  0  0  0  0  0  0  0  0
  -21.6860   -6.2320   22.6290 C   0  0  0  0  0  0  0  0  0  0  0  0
  -21.1810   -6.7880   23.8250 C   0  0  0  0  0  3  0  0  0  0  0  0
  -21.0440   -5.9830   24.9730 C   0  0  0  0  0  3  0  0  0  0  0  0
  -21.4010   -4.6220   24.9260 C   0  0  0  0  0  0  0  0  0  0  0  0
  -21.8980   -4.0650   23.7340 C   0  0  0  0  0  3  0  0  0  0  0  0
  -22.0370   -4.8680   22.5880 C   0  0  0  0  0  0  0  0  0  0  0  0
  -22.4980   -4.3220   21.4370 F   0  0  0  0  0  0  0  0  0  0  0  0
  -21.2620   -3.8450   26.0260 F   0  0  0  0  0  0  0  0  0  0  0  0
  -22.8650  -13.6020   21.2030 C   0  0  0  0  0  0  0  0  0  0  0  0
  -22.1290  -12.8940   22.0530 N   0  0  0  0  0  0  0  0  0  0  0  0
  -22.4350  -14.6380   20.6980 O   0  0  0  0  0  0  0  0  0  0  0  0
  -22.4900  -12.0550   22.4830 H   0  0  0  0  0  0  0  0  0  0  0  0
  -21.1920  -13.1950   22.2780 H   0  0  0  0  0  0  0  0  0  0  0  0
  -25.4770  -15.2650   20.3830 N   0  0  0  0  0  0  0  0  0  0  0  0
  -24.6900  -15.9010   20.4670 H   0  0  0  0  0  0  0  0  0  0  0  0
  -26.3040  -15.7100   20.0120 H   0  0  0  0  0  0  0  0  0  0  0  0
  1  6  1  0
  2  1  2  0
  3  4  2  0
  3  2  1  0
  4  5  1  0
  5 10  1  0
  5  6  2  0
  6 55  1  0
  7  2  1  0
  8  3  1  0
  9  4  1  0
 12  1  1  0
 12 13  1  0
 12 11  1  0
 13 14  1  0
 13 11  1  0
 15 26  2  0
 16 14  1  0
 16 21  1  0
 17 25  1  0
 17 27  1  0
 18 24  1  0
 18 20  1  0
 19 25  1  0
 20 21  2  0
 20 19  1  0
 22 16  2  0
 23 22  1  0
 23 18  2  0
 24 17  1  0
 25 15  1  0
 27 29  2  0
 28 27  1  0
 30 28  1  0
 31 40  2  0
 31 36  1  0
 32 28  1  0
 32 36  1  0
 33 32  1  0
 34 35  1  0
 34 33  1  0
 35 31  1  0
 36 37  2  0
 37 38  1  0
 39 38  2  0
 40 39  1  0
 41 15  1  0
 41 42  1  0
 41 51  1  0
 42 45  1  0
 43 47  1  0
 43 42  1  0
 44 43  2  0
 47 46  1  0
 49 47  1  0
 49 50  1  0
 49 48  1  0
 51 54  1  1
 51 52  1  0
 53 51  1  0
 55 56  1  0
 57 69  1  0
 58 63  1  0
 59 60  1  0
 59 58  1  0
 61 60  1  0
 61 73  1  0
 61 62  1  0
 63 57  1  0
 63 62  1  0
 64 57  2  0
 66 65  1  0
 66 69  1  0
 68 65  1  0
 68 55  1  0
 68 67  1  0
 69 67  1  0
 70 71  2  0
 71 90  1  0
 72 71  1  0
 72 75  1  0
 73 70  1  0
 73 74  1  0
 74 72  2  0
 75 76  1  0
 76 77  2  0
 78 81  1  0
 78 77  1  0
 79 78  2  0
 80 79  1  0
 80 75  2  0
 81 82  1  0
 82 83  1  0
 83 84  2  0
 85 84  1  0
 85 89  1  0
 86 85  2  0
 87 82  2  0
 87 86  1  0
 88 87  1  0
 90 91  1  0
 91 94  1  0
 91 93  1  0
 92 90  2  0
 95 96  1  0
 95 70  1  0
 97 95  1  0
M  ISO  4  13 101  14 101  57 100  69 100
M  END
>  <TORSDO>  (89) 
F 18

>  <SCORE>  (89) 
-14.902

>  <name>  (89) 
89

>  <ligand_id>  (89) 
89

>  <original_smiles>  (89) 
[H]c1c([H])c([H])c2c(c1[H])C([H])([H])C([H])([H])C([H])([H])C2([H])N([H])C(=O)C1([H])N(C(=O)C([H])(N([H])C(=O)C([H])(N([H])C([H])([H])[H])C([H])([H])[H])C(C([H])([H])[H])(C([H])([H])[H])C([H])([H])[H])C([H])([H])c2c([H])c(OC3([H])C([H])([H])C3([H])c3c(N([H])C4([H])C([H])([H])N(C(=O)N5C([H])([H])C([H])([H])C([H])([H])C([H])(n6nc(-c7c([H])c([H])c(Oc8c([H])c([H])c(F)c([H])c8F)c([H])c7[H])c(C(=O)N([H])[H])c6N([H])[H])C5([H])[H])C([H])([H])C4([H])[H])c(C([H])([H])[H])c(C([H])([H])[H])c(C([H])([H])[H])c3C([H])([H])[H])c([H])c([H])c2C1([H])[H]

>  <smiles>  (89) 
[H]c1c([H])c([H])c2c(c1[H])C([H])([H])C([H])([H])C([H])([H])C2([H])N([H])C(=O)C1([H])N(C(=O)C([H])(N([H])C(=O)C([H])(N([H])C([H])([H])[H])C([H])([H])[H])C(C([H])([H])[H])(C([H])([H])[H])C([H])([H])[H])C([H])([H])c2c([H])c(OC3([H])C([H])([H])C3([H])c3c(N([H])C4([H])C([H])([H])N(C(=O)N5C([H])([H])C([H])([H])C([H])([H])C([H])(n6nc(-c7c([H])c([H])c(Oc8c([H])c([H])c(F)c([H])c8F)c([H])c7[H])c(C(=O)N([H])[H])c6N([H])[H])C5([H])[H])C([H])([H])C4([H])[H])c(C([H])([H])[H])c(C([H])([H])[H])c(C([H])([H])[H])c3C([H])([H])[H])c([H])c([H])c2C1([H])[H]

$$$$
90:0:0
     RDKit          3D

 97107  0  0  1  0  0  0  0  0999 V2000
  -27.0220  -20.4490   20.3910 C   0  0  0  0  0  1  0  0  0  0  0  0
  -28.5400  -20.6180   20.5820 C   0  0  0  0  0  3  0  0  0  0  0  0
  -31.1560  -17.8840   20.3280 C   0  0  0  0  0  0  0  0  0  0  0  0
  -29.0220  -18.1860   19.3060 C   0  0  0  0  0  2  0  0  0  0  0  0
  -30.2320  -17.1850   19.3220 C   0  0  0  0  0  3  0  0  0  0  0  0
  -29.2070  -19.1620   20.4980 C   0  0  0  0  0  3  0  0  0  0  0  0
  -30.6010  -18.9810   20.8930 N   0  0  0  0  0  0  0  0  0  0  0  0
  -32.2950  -17.4610   20.5470 O   0  0  0  0  0  0  0  0  0  0  0  0
  -30.7550  -14.7010   19.6350 C   0  0  0  0  0  0  0  0  0  0  0  0
  -30.6150  -12.3180   18.9720 C   0  0  0  0  0  2  0  0  0  0  0  0
  -29.6080  -12.1940   17.8110 C   0  0  0  0  0  2  0  0  0  0  0  0
  -28.1750  -12.0250   18.3510 C   0  0  0  0  0  2  0  0  0  0  0  0
  -27.8230  -13.0610   19.4520 C   0  0  0  0  0  3  0  0  0  0  0  0
  -28.9460  -13.1650   20.5090 C   0  0  0  0  0  2  0  0  0  0  0  0
  -30.1960  -13.4650   19.7990 N   0  0  0  0  0  0  0  0  0  0  0  0
  -31.8980  -14.8340   19.1870 O   0  0  0  0  0  0  0  0  0  0  0  0
  -29.9180  -15.7740   19.7320 N   0  0  0  0  0  0  0  0  0  0  0  0
  -28.9890  -15.5940   20.0770 H   0  0  0  0  0  0  0  0  0  0  0  0
  -25.5320  -13.6680   20.4420 C   0  0  0  0  0  0  0  0  0  0  0  0
  -24.4920  -12.8960   20.8860 C   0  0  0  0  0  0  0  0  0  0  0  0
  -24.9190  -11.5410   20.7460 C   0  0  0  0  0  0  0  0  0  0  0  0
  -26.5270  -12.7810   20.0610 N   0  0  0  0  0  0  0  0  0  0  0  0
  -26.1700  -11.4950   20.3030 N   0  0  0  0  0  0  0  0  0  0  0  0
  -24.1890  -10.2820   20.9490 C   0  0  0  0  0  0  0  0  0  0  0  0
  -24.6220   -9.3210   21.8880 C   0  0  0  0  0  3  0  0  0  0  0  0
  -23.8920   -8.1280   22.0800 C   0  0  0  0  0  3  0  0  0  0  0  0
  -22.7140   -7.8880   21.3320 C   0  0  0  0  0  0  0  0  0  0  0  0
  -22.3000   -8.8380   20.3820 C   0  0  0  0  0  3  0  0  0  0  0  0
  -23.0300  -10.0230   20.1890 C   0  0  0  0  0  3  0  0  0  0  0  0
  -21.9550   -6.7460   21.4320 O   0  0  0  0  0  0  0  0  0  0  0  0
  -21.8110   -6.0810   22.6220 C   0  0  0  0  0  0  0  0  0  0  0  0
  -21.2740   -6.7090   23.7680 C   0  0  0  0  0  3  0  0  0  0  0  0
  -21.0810   -5.9680   24.9510 C   0  0  0  0  0  3  0  0  0  0  0  0
  -21.4140   -4.6010   24.9890 C   0  0  0  0  0  0  0  0  0  0  0  0
  -21.9450   -3.9730   23.8490 C   0  0  0  0  0  3  0  0  0  0  0  0
  -22.1400   -4.7120   22.6680 C   0  0  0  0  0  0  0  0  0  0  0  0
  -22.6320   -4.0970   21.5650 F   0  0  0  0  0  0  0  0  0  0  0  0
  -21.2220   -3.8860   26.1230 F   0  0  0  0  0  0  0  0  0  0  0  0
  -23.1400  -13.3830   21.3210 C   0  0  0  0  0  0  0  0  0  0  0  0
  -22.4960  -12.6630   22.2330 N   0  0  0  0  0  0  0  0  0  0  0  0
  -22.6710  -14.4340   20.8910 O   0  0  0  0  0  0  0  0  0  0  0  0
  -22.8920  -11.8110   22.6020 H   0  0  0  0  0  0  0  0  0  0  0  0
  -21.5940  -12.9690   22.5690 H   0  0  0  0  0  0  0  0  0  0  0  0
  -25.7060  -15.0420   20.3060 N   0  0  0  0  0  0  0  0  0  0  0  0
  -24.9580  -15.6970   20.5070 H   0  0  0  0  0  0  0  0  0  0  0  0
  -26.4990  -15.4770   19.8540 H   0  0  0  0  0  0  0  0  0  0  0  0
  -30.7930  -19.9460   23.2410 C   0  0  0  0  0  2  0  0  0  0  0  0
  -32.1510  -19.3920   22.8980 C   0  0  0  0  0  2  0  0  0  0  0  0
  -31.2420  -19.9010   21.7930 C   0  0  0  0  0  3  0  0  0  0  0  0
  -28.8050  -23.0710   19.9410 C   0  0  0  0  0  0  0  0  0  0  0  0
  -28.9690  -21.7320   19.6810 N   0  0  0  0  0  0  0  0  0  0  0  0
  -28.5400  -23.4800   21.0720 O   0  0  0  0  0  0  0  0  0  0  0  0
  -29.2180  -21.4810   18.7330 H   0  0  0  0  0  0  0  0  0  0  0  0
  -29.7520  -25.2550   18.8350 C   0  0  0  0  0  2  0  0  0  0  0  0
  -28.9230  -24.0270   18.7600 C   0  0  0  0  0  3  0  0  0  0  0  0
  -28.2430  -25.4570   18.6850 C   0  0  0  0  0  3  0  0  0  0  0  0
  -28.2260  -26.6530   19.5240 O   0  0  0  0  0  0  0  0  0  0  0  0
  -24.5610  -31.6940   23.0700 C   0  0  0  0  0  0  0  0  0  0  0  0
  -27.0730  -27.4350   19.5710 C   0  0  0  0  0  0  0  0  0  0  0  0
  -23.2910  -30.4010   21.3920 C   0  0  0  0  0  3  0  0  0  0  0  0
  -24.6850  -28.9770   19.7910 C   0  0  0  0  0  0  0  0  0  0  0  0
  -25.8100  -30.7740   21.1090 C   0  0  0  0  0  2  0  0  0  0  0  0
  -25.8720  -29.4460   20.3680 C   0  0  0  0  0  0  0  0  0  0  0  0
  -27.0650  -28.6820   20.2590 C   0  0  0  0  0  3  0  0  0  0  0  0
  -25.8640  -27.0020   18.9830 C   0  0  0  0  0  3  0  0  0  0  0  0
  -24.6820  -27.7580   19.0910 C   0  0  0  0  0  3  0  0  0  0  0  0
  -23.4430  -29.8250   19.9580 C   0  0  0  0  0  2  0  0  0  0  0  0
  -24.5760  -30.9660   21.9150 N   0  0  0  0  0  0  0  0  0  0  0  0
  -23.5020  -31.9200   23.6740 O   0  0  0  0  0  0  0  0  0  0  0  0
  -22.6840  -29.3110   22.3060 C   0  0  0  0  0  0  0  0  0  0  0  0
  -21.3600  -29.1080   22.2040 N   0  0  0  0  0  0  0  0  0  0  0  0
  -23.4010  -28.6510   23.0640 O   0  0  0  0  0  0  0  0  0  0  0  0
  -20.8410  -29.6980   21.5690 H   0  0  0  0  0  0  0  0  0  0  0  0
  -18.0330  -27.7700   22.6770 C   0  0  0  0  0  0  0  0  0  0  0  0
  -20.5820  -28.1090   22.9370 C   0  0  0  0  0  3  0  0  0  0  0  0
  -20.7310  -26.7080   22.3010 C   0  0  0  0  0  2  0  0  0  0  0  0
  -19.6310  -26.3890   21.2820 C   0  0  0  0  0  2  0  0  0  0  0  0
  -18.2520  -26.4570   21.9420 C   0  0  0  0  0  2  0  0  0  0  0  0
  -19.1290  -28.5520   23.1310 C   0  0  0  0  0  0  0  0  0  0  0  0
  -18.8710  -29.7790   23.7810 C   0  0  0  0  0  3  0  0  0  0  0  0
  -17.5520  -30.2270   23.9750 C   0  0  0  0  0  3  0  0  0  0  0  0
  -16.4720  -29.4400   23.5400 C   0  0  0  0  0  3  0  0  0  0  0  0
  -16.7130  -28.2130   22.8970 C   0  0  0  0  0  3  0  0  0  0  0  0
  -25.8690  -32.2950   23.6710 C   0  0  0  0  0  3  0  0  0  0  0  0
  -26.4530  -31.4400   24.8610 C   0  0  1  0  0  0  0  0  0  0  0  0
  -25.4180  -31.1230   25.9650 C   0  0  0  0  0  1  0  0  0  0  0  0
  -27.0160  -30.0940   24.3450 C   0  0  0  0  0  1  0  0  0  0  0  0
  -27.6340  -32.1920   25.5200 C   0  0  0  0  0  1  0  0  0  0  0  0
  -25.5620  -33.6610   24.1170 N   0  0  0  0  0  0  0  0  0  0  0  0
  -25.8480  -34.7720   23.4250 C   0  0  0  0  0  0  0  0  0  0  0  0
  -26.4710  -34.7540   22.3600 O   0  0  0  0  0  0  0  0  0  0  0  0
  -24.9950  -33.7450   24.9500 H   0  0  0  0  0  0  0  0  0  0  0  0
  -24.0820  -36.5600   23.3040 C   0  0  0  0  0  1  0  0  0  0  0  0
  -25.3730  -36.1170   24.0090 C   0  0  0  0  0  3  0  0  0  0  0  0
  -27.5430  -36.9790   24.7720 C   0  0  0  0  0  1  0  0  0  0  0  0
  -26.3850  -37.1910   23.9090 N   0  0  0  0  0  0  0  0  0  0  0  0
  -25.9760  -38.0910   24.1450 H   0  0  0  0  0  0  0  0  0  0  0  0
  2  1  1  0
  3  8  2  0
  3  7  1  0
  4  5  1  0
  4  6  1  0
  5 17  1  0
  5  3  1  0
  6  2  1  0
  6  7  1  0
  7 49  1  0
  9 17  1  0
  9 15  1  0
 10 15  1  0
 11 12  1  0
 11 10  1  0
 13 12  1  0
 13 22  1  0
 13 14  1  0
 15 14  1  0
 16  9  2  0
 17 18  1  0
 19 20  2  0
 20 39  1  0
 21 20  1  0
 21 24  1  0
 22 23  1  0
 22 19  1  0
 23 21  2  0
 24 25  1  0
 25 26  2  0
 27 30  1  0
 27 26  1  0
 28 27  2  0
 29 28  1  0
 29 24  2  0
 30 31  1  0
 31 36  2  0
 31 32  1  0
 32 33  2  0
 33 34  1  0
 34 38  1  0
 35 34  2  0
 36 35  1  0
 37 36  1  0
 39 40  1  0
 40 43  1  0
 40 42  1  0
 41 39  2  0
 44 19  1  0
 44 45  1  0
 46 44  1  0
 48 47  1  0
 49 48  1  0
 49 47  1  0
 50 52  2  0
 51 50  1  0
 51  2  1  0
 53 51  1  0
 55 54  1  0
 55 50  1  0
 56 55  1  0
 56 54  1  0
 56 57  1  0
 57 59  1  0
 58 69  2  0
 59 64  1  0
 60 68  1  0
 60 70  1  0
 61 67  1  0
 61 63  1  0
 62 68  1  0
 63 62  1  0
 64 63  2  0
 65 66  1  0
 65 59  2  0
 66 61  2  0
 67 60  1  0
 68 58  1  0
 70 72  2  0
 71 70  1  0
 73 71  1  0
 74 83  2  0
 74 79  1  0
 75 71  1  0
 75 79  1  0
 76 75  1  0
 77 78  1  0
 77 76  1  0
 78 74  1  0
 79 80  2  0
 80 81  1  0
 82 81  2  0
 83 82  1  0
 84 58  1  0
 84 89  1  0
 84 85  1  0
 85 88  1  1
 85 86  1  0
 87 85  1  0
 89 92  1  0
 90 94  1  0
 90 89  1  0
 91 90  2  0
 94 93  1  0
 96 94  1  0
 96 97  1  0
 96 95  1  0
M  ISO  4   9 100  17 100  56 101  57 101
M  END
>  <TORSDO>  (90) 
F 20

>  <SCORE>  (90) 
-12.317

>  <name>  (90) 
90

>  <ligand_id>  (90) 
90

>  <original_smiles>  (90) 
[H]c1c([H])c([H])c2c(c1[H])C([H])([H])C([H])([H])C([H])([H])C2([H])N([H])C(=O)C1([H])N(C(=O)C([H])(N([H])C(=O)C([H])(N([H])C([H])([H])[H])C([H])([H])[H])C(C([H])([H])[H])(C([H])([H])[H])C([H])([H])[H])C([H])([H])c2c([H])c(OC3([H])C([H])([H])C3([H])C(=O)N([H])C([H])(C([H])([H])[H])C3([H])N(C4([H])C([H])([H])C4([H])[H])C(=O)C([H])(N([H])C(=O)N4C([H])([H])C([H])([H])C([H])([H])C([H])(n5nc(-c6c([H])c([H])c(Oc7c([H])c([H])c(F)c([H])c7F)c([H])c6[H])c(C(=O)N([H])[H])c5N([H])[H])C4([H])[H])C3([H])[H])c([H])c([H])c2C1([H])[H]

>  <smiles>  (90) 
[H]c1c([H])c([H])c2c(c1[H])C([H])([H])C([H])([H])C([H])([H])C2([H])N([H])C(=O)C1([H])N(C(=O)C([H])(N([H])C(=O)C([H])(N([H])C([H])([H])[H])C([H])([H])[H])C(C([H])([H])[H])(C([H])([H])[H])C([H])([H])[H])C([H])([H])c2c([H])c(OC3([H])C([H])([H])C3([H])C(=O)N([H])C([H])(C([H])([H])[H])C3([H])N(C4([H])C([H])([H])C4([H])[H])C(=O)C([H])(N([H])C(=O)N4C([H])([H])C([H])([H])C([H])([H])C([H])(n5nc(-c6c([H])c([H])c(Oc7c([H])c([H])c(F)c([H])c7F)c([H])c6[H])c(C(=O)N([H])[H])c5N([H])[H])C4([H])[H])C3([H])[H])c([H])c([H])c2C1([H])[H]

$$$$
