0:0:0
     RDKit          3D

 95105  0  0  1  0  0  0  0  0999 V2000
  -29.1510  -19.1120   20.6640 C   0  0  0  0  0  3  0  0  0  0  0  0
  -30.4360  -18.8480   20.1160 C   0  0  0  0  0  0  0  0  0  0  0  0
  -28.6750  -20.4540   20.6710 C   0  0  0  0  0  0  0  0  0  0  0  0
  -31.1020  -20.0060   19.5810 C   0  0  0  0  0  0  0  0  0  0  0  0
  -29.4190  -21.5250   20.1850 C   0  0  0  0  0  0  0  0  0  0  0  0
  -27.3580  -20.9540   21.1730 C   0  0  0  0  0  2  0  0  0  0  0  0
  -27.4050  -22.4450   20.7540 C   0  0  0  0  0  2  0  0  0  0  0  0
  -32.4570  -19.8960   18.8990 C   0  0  0  0  0  1  0  0  0  0  0  0
  -30.6180  -21.2910   19.6200 N   0  0  0  0  0  0  0  0  0  0  0  0
  -28.7850  -22.8040   20.3750 N   0  0  0  0  0  0  0  0  0  0  0  0
  -30.9440  -14.9440   19.7680 C   0  0  0  0  0  0  0  0  0  0  0  0
  -30.5110  -12.7230   18.7140 C   0  0  0  0  0  2  0  0  0  0  0  0
  -29.4740  -12.8320   17.5780 C   0  0  0  0  0  2  0  0  0  0  0  0
  -28.0500  -12.6680   18.1360 C   0  0  0  0  0  2  0  0  0  0  0  0
  -27.8040  -13.5340   19.4000 C   0  0  0  0  0  3  0  0  0  0  0  0
  -28.9610  -13.4280   20.4150 C   0  0  0  0  0  2  0  0  0  0  0  0
  -30.2120  -13.7730   19.7220 N   0  0  0  0  0  0  0  0  0  0  0  0
  -31.9880  -15.0040   19.1100 O   0  0  0  0  0  0  0  0  0  0  0  0
  -31.3870  -16.9410   22.4840 C   0  0  0  0  0  2  0  0  0  0  0  0
  -32.1940  -17.4380   21.2960 C   0  0  0  0  0  2  0  0  0  0  0  0
  -30.3080  -16.0400   21.8650 C   0  0  0  0  0  2  0  0  0  0  0  0
  -31.1680  -17.4310   20.1500 C   0  0  0  0  0  3  0  0  0  0  0  0
  -30.4760  -16.0950   20.3990 N   0  0  0  0  0  0  0  0  0  0  0  0
  -25.5210  -14.1050   20.4230 C   0  0  0  0  0  0  0  0  0  0  0  0
  -24.4880  -13.3220   20.8600 C   0  0  0  0  0  0  0  0  0  0  0  0
  -24.9170  -11.9690   20.6930 C   0  0  0  0  0  0  0  0  0  0  0  0
  -26.5150  -13.2310   20.0160 N   0  0  0  0  0  0  0  0  0  0  0  0
  -26.1640  -11.9370   20.2390 N   0  0  0  0  0  0  0  0  0  0  0  0
  -24.1890  -10.7080   20.8850 C   0  0  0  0  0  0  0  0  0  0  0  0
  -24.6330   -9.7320   21.8040 C   0  0  0  0  0  3  0  0  0  0  0  0
  -23.9060   -8.5360   21.9860 C   0  0  0  0  0  3  0  0  0  0  0  0
  -22.7190   -8.3070   21.2500 C   0  0  0  0  0  0  0  0  0  0  0  0
  -22.2930   -9.2720   20.3190 C   0  0  0  0  0  3  0  0  0  0  0  0
  -23.0220  -10.4600   20.1360 C   0  0  0  0  0  3  0  0  0  0  0  0
  -21.9620   -7.1650   21.3420 O   0  0  0  0  0  0  0  0  0  0  0  0
  -21.8360   -6.4760   22.5220 C   0  0  0  0  0  0  0  0  0  0  0  0
  -21.2940   -7.0760   23.6790 C   0  0  0  0  0  3  0  0  0  0  0  0
  -21.1190   -6.3130   24.8510 C   0  0  0  0  0  3  0  0  0  0  0  0
  -21.4740   -4.9520   24.8660 C   0  0  0  0  0  0  0  0  0  0  0  0
  -22.0060   -4.3500   23.7120 C   0  0  0  0  0  3  0  0  0  0  0  0
  -22.1850   -5.1100   22.5420 C   0  0  0  0  0  0  0  0  0  0  0  0
  -22.6790   -4.5210   21.4270 F   0  0  0  0  0  0  0  0  0  0  0  0
  -21.2980   -4.2160   25.9880 F   0  0  0  0  0  0  0  0  0  0  0  0
  -23.1380  -13.7990   21.3160 C   0  0  0  0  0  0  0  0  0  0  0  0
  -22.5020  -13.0640   22.2210 N   0  0  0  0  0  0  0  0  0  0  0  0
  -22.6630  -14.8570   20.9060 O   0  0  0  0  0  0  0  0  0  0  0  0
  -22.9020  -12.2070   22.5740 H   0  0  0  0  0  0  0  0  0  0  0  0
  -21.6010  -13.3610   22.5670 H   0  0  0  0  0  0  0  0  0  0  0  0
  -25.6910  -15.4830   20.3150 N   0  0  0  0  0  0  0  0  0  0  0  0
  -24.9540  -16.1370   20.5520 H   0  0  0  0  0  0  0  0  0  0  0  0
  -26.5110  -15.9330   19.9270 H   0  0  0  0  0  0  0  0  0  0  0  0
  -30.5330  -24.5400   19.8330 C   0  0  0  0  0  1  0  0  0  0  0  0
  -29.0630  -24.1190   19.6840 C   0  0  0  0  0  3  0  0  0  0  0  0
  -28.1510  -25.3570   20.1480 C   0  0  0  0  0  2  0  0  0  0  0  0
  -28.3440  -26.7210   19.5770 O   0  0  0  0  0  0  0  0  0  0  0  0
  -24.6760  -31.8470   23.0910 C   0  0  0  0  0  0  0  0  0  0  0  0
  -27.2400  -27.5830   19.6240 C   0  0  0  0  0  0  0  0  0  0  0  0
  -23.4390  -30.5790   21.3670 C   0  0  0  0  0  3  0  0  0  0  0  0
  -24.8690  -29.1720   19.7780 C   0  0  0  0  0  0  0  0  0  0  0  0
  -25.9700  -30.9400   21.1490 C   0  0  0  0  0  2  0  0  0  0  0  0
  -26.0460  -29.6200   20.3920 C   0  0  0  0  0  0  0  0  0  0  0  0
  -27.2380  -28.8380   20.3030 C   0  0  0  0  0  3  0  0  0  0  0  0
  -26.0480  -27.2020   18.9690 C   0  0  0  0  0  3  0  0  0  0  0  0
  -24.8710  -27.9690   19.0560 C   0  0  0  0  0  3  0  0  0  0  0  0
  -23.6220  -30.0220   19.9310 C   0  0  0  0  0  2  0  0  0  0  0  0
  -24.7140  -31.1360   21.9260 N   0  0  0  0  0  0  0  0  0  0  0  0
  -23.6060  -32.0670   23.6760 O   0  0  0  0  0  0  0  0  0  0  0  0
  -22.8130  -29.4770   22.2570 C   0  0  0  0  0  0  0  0  0  0  0  0
  -21.4830  -29.3130   22.1650 N   0  0  0  0  0  0  0  0  0  0  0  0
  -23.5230  -28.7780   22.9850 O   0  0  0  0  0  0  0  0  0  0  0  0
  -20.9730  -29.9340   21.5540 H   0  0  0  0  0  0  0  0  0  0  0  0
  -18.1190  -28.0940   22.6990 C   0  0  0  0  0  0  0  0  0  0  0  0
  -20.6900  -28.3080   22.8750 C   0  0  0  0  0  3  0  0  0  0  0  0
  -20.7510  -26.9390   22.1550 C   0  0  0  0  0  2  0  0  0  0  0  0
  -19.6000  -26.7270   21.1660 C   0  0  0  0  0  2  0  0  0  0  0  0
  -18.2500  -26.8170   21.8850 C   0  0  0  0  0  2  0  0  0  0  0  0
  -19.2660  -28.8030   23.1490 C   0  0  0  0  0  0  0  0  0  0  0  0
  -19.0890  -30.0030   23.8690 C   0  0  0  0  0  3  0  0  0  0  0  0
  -17.8000  -30.4930   24.1490 C   0  0  0  0  0  3  0  0  0  0  0  0
  -16.6690  -29.7780   23.7160 C   0  0  0  0  0  3  0  0  0  0  0  0
  -16.8300  -28.5820   22.9930 C   0  0  0  0  0  3  0  0  0  0  0  0
  -25.9710  -32.4360   23.7310 C   0  0  0  0  0  3  0  0  0  0  0  0
  -25.6720  -33.8140   24.1450 N   0  0  0  0  0  0  0  0  0  0  0  0
  -25.9950  -34.9090   23.4430 C   0  0  0  0  0  0  0  0  0  0  0  0
  -26.6470  -34.8640   22.3950 O   0  0  0  0  0  0  0  0  0  0  0  0
  -25.0990  -33.9220   24.9680 H   0  0  0  0  0  0  0  0  0  0  0  0
  -24.2690  -36.7260   23.2230 C   0  0  0  0  0  1  0  0  0  0  0  0
  -25.5210  -36.2690   23.9890 C   0  0  0  0  0  3  0  0  0  0  0  0
  -27.6660  -37.1050   24.8380 C   0  0  0  0  0  1  0  0  0  0  0  0
  -26.5530  -37.3240   23.9210 N   0  0  0  0  0  0  0  0  0  0  0  0
  -26.1500  -38.2360   24.1260 H   0  0  0  0  0  0  0  0  0  0  0  0
  -26.4990  -31.5900   24.9560 C   0  0  1  0  0  0  0  0  0  0  0  0
  -25.4170  -31.2970   26.0220 C   0  0  0  0  0  1  0  0  0  0  0  0
  -27.0720  -30.2360   24.4800 C   0  0  0  0  0  1  0  0  0  0  0  0
  -27.6610  -32.3430   25.6470 C   0  0  0  0  0  1  0  0  0  0  0  0
  1  3  1  0
  2  1  2  0
  3  6  1  0
  4  9  2  0
  4  2  1  0
  5 10  1  0
  5  3  2  0
  7  6  1  0
  8  4  1  0
  9  5  1  0
 10  7  1  0
 11 23  1  0
 12 17  1  0
 13 14  1  0
 13 12  1  0
 15 14  1  0
 15 27  1  0
 15 16  1  0
 17 11  1  0
 17 16  1  0
 18 11  2  0
 20 19  1  0
 21 19  1  0
 22  2  1  0
 22 23  1  0
 22 20  1  0
 23 21  1  0
 24 25  2  0
 25 44  1  0
 26 25  1  0
 26 29  1  0
 27 28  1  0
 27 24  1  0
 28 26  2  0
 29 30  1  0
 30 31  2  0
 32 35  1  0
 32 31  1  0
 33 32  2  0
 34 33  1  0
 34 29  2  0
 35 36  1  0
 36 41  2  0
 36 37  1  0
 37 38  2  0
 38 39  1  0
 39 43  1  0
 40 39  2  0
 41 40  1  0
 42 41  1  0
 44 45  1  0
 45 48  1  0
 45 47  1  0
 46 44  2  0
 49 24  1  0
 49 50  1  0
 51 49  1  0
 53 52  1  0
 53 54  1  0
 53 10  1  0
 55 57  1  0
 55 54  1  0
 56 67  2  0
 57 62  1  0
 58 66  1  0
 58 68  1  0
 59 65  1  0
 59 61  1  0
 60 66  1  0
 61 60  1  0
 62 61  2  0
 63 64  1  0
 63 57  2  0
 64 59  2  0
 65 58  1  0
 66 56  1  0
 68 70  2  0
 69 68  1  0
 71 69  1  0
 72 81  2  0
 72 77  1  0
 73 69  1  0
 73 77  1  0
 74 73  1  0
 75 76  1  0
 75 74  1  0
 76 72  1  0
 77 78  2  0
 78 79  1  0
 80 79  2  0
 81 80  1  0
 82 56  1  0
 82 83  1  0
 82 92  1  0
 83 86  1  0
 84 88  1  0
 84 83  1  0
 85 84  2  0
 88 87  1  0
 90 88  1  0
 90 91  1  0
 90 89  1  0
 92 95  1  1
 92 93  1  0
 94 92  1  0
M  ISO  4  11 100  23 100  54 101  55 101
M  END
>  <TORSDO>  (1) 
F 18

>  <SCORE>  (1) 
-11.915

>  <name>  (1) 
0

>  <ligand_id>  (1) 
0

>  <original_smiles>  (1) 
[H]c1c([H])c([H])c2c(c1[H])C([H])([H])C([H])([H])C([H])([H])C2([H])N([H])C(=O)C1([H])N(C(=O)C([H])(N([H])C(=O)C([H])(N([H])C([H])([H])[H])C([H])([H])[H])C(C([H])([H])[H])(C([H])([H])[H])C([H])([H])[H])C([H])([H])c2c([H])c(OC([H])([H])C([H])(N3c4nc(C([H])([H])[H])c(C5([H])N(C(=O)N6C([H])([H])C([H])([H])C([H])([H])C([H])(n7nc(-c8c([H])c([H])c(Oc9c([H])c([H])c(F)c([H])c9F)c([H])c8[H])c(C(=O)N([H])[H])c7N([H])[H])C6([H])[H])C([H])([H])C([H])([H])C5([H])[H])c([H])c4C([H])([H])C3([H])[H])C([H])([H])[H])c([H])c([H])c2C1([H])[H]

>  <smiles>  (1) 
[H]c1c([H])c([H])c2c(c1[H])C([H])([H])C([H])([H])C([H])([H])C2([H])N([H])C(=O)C1([H])N(C(=O)C([H])(N([H])C(=O)C([H])(N([H])C([H])([H])[H])C([H])([H])[H])C(C([H])([H])[H])(C([H])([H])[H])C([H])([H])[H])C([H])([H])c2c([H])c(OC([H])([H])C([H])(N3c4nc(C([H])([H])[H])c(C5([H])N(C(=O)N6C([H])([H])C([H])([H])C([H])([H])C([H])(n7nc(-c8c([H])c([H])c(Oc9c([H])c([H])c(F)c([H])c9F)c([H])c8[H])c(C(=O)N([H])[H])c7N([H])[H])C6([H])[H])C([H])([H])C([H])([H])C5([H])[H])c([H])c4C([H])([H])C3([H])[H])C([H])([H])[H])c([H])c([H])c2C1([H])[H]

$$$$
1:0:0
     RDKit          3D

101113  0  0  1  0  0  0  0  0999 V2000
  -28.6960  -19.5440   20.8510 C   0  0  0  0  0  3  0  0  0  0  0  0
  -28.8060  -18.6560   19.7640 C   0  0  0  0  0  0  0  0  0  0  0  0
  -28.2590  -19.0280   18.5000 C   0  0  0  0  0  0  0  0  0  0  0  0
  -27.4510  -20.2020   18.4000 C   0  0  0  0  0  0  0  0  0  0  0  0
  -27.3390  -21.0750   19.5170 C   0  0  0  0  0  0  0  0  0  0  0  0
  -28.0120  -20.7660   20.7240 C   0  0  0  0  0  0  0  0  0  0  0  0
  -26.5580  -22.3870   19.3970 C   0  0  0  0  0  1  0  0  0  0  0  0
  -31.1340  -14.7060   20.2830 C   0  0  0  0  0  0  0  0  0  0  0  0
  -30.7290  -12.5950   19.0820 C   0  0  0  0  0  2  0  0  0  0  0  0
  -29.7770  -12.8510   17.8950 C   0  0  0  0  0  2  0  0  0  0  0  0
  -28.3100  -12.7110   18.3420 C   0  0  0  0  0  2  0  0  0  0  0  0
  -28.0110  -13.5310   19.6210 C   0  0  0  0  0  3  0  0  0  0  0  0
  -29.0770  -13.2580   20.7150 C   0  0  0  0  0  2  0  0  0  0  0  0
  -30.3920  -13.5680   20.1400 N   0  0  0  0  0  0  0  0  0  0  0  0
  -32.2600  -14.8000   19.7860 O   0  0  0  0  0  0  0  0  0  0  0  0
  -30.9870  -17.1860   20.4350 C   0  0  0  0  0  2  0  0  0  0  0  0
  -29.2610  -16.3730   21.1560 C   0  0  0  0  0  2  0  0  0  0  0  0
  -29.5270  -17.3190   19.9830 C   0  0  0  0  0  3  0  0  0  0  0  0
  -30.6010  -15.8220   20.8570 N   0  0  0  0  0  0  0  0  0  0  0  0
  -25.6310  -14.1990   20.3420 C   0  0  0  0  0  0  0  0  0  0  0  0
  -24.5530  -13.4500   20.7330 C   0  0  0  0  0  0  0  0  0  0  0  0
  -24.9890  -12.0890   20.7080 C   0  0  0  0  0  0  0  0  0  0  0  0
  -26.6570  -13.2950   20.1120 N   0  0  0  0  0  0  0  0  0  0  0  0
  -26.2750  -12.0220   20.3890 N   0  0  0  0  0  0  0  0  0  0  0  0
  -24.2410  -10.8420   20.9080 C   0  0  0  0  0  0  0  0  0  0  0  0
  -24.6380   -9.8910   21.8720 C   0  0  0  0  0  3  0  0  0  0  0  0
  -23.8940   -8.7080   22.0590 C   0  0  0  0  0  3  0  0  0  0  0  0
  -22.7370   -8.4660   21.2800 C   0  0  0  0  0  0  0  0  0  0  0  0
  -22.3590   -9.4060   20.3050 C   0  0  0  0  0  3  0  0  0  0  0  0
  -23.1040  -10.5810   20.1170 C   0  0  0  0  0  3  0  0  0  0  0  0
  -21.9670   -7.3320   21.3750 O   0  0  0  0  0  0  0  0  0  0  0  0
  -21.8490   -6.6400   22.5540 C   0  0  0  0  0  0  0  0  0  0  0  0
  -21.3770   -7.2510   23.7340 C   0  0  0  0  0  3  0  0  0  0  0  0
  -21.2060   -6.4860   24.9050 C   0  0  0  0  0  3  0  0  0  0  0  0
  -21.4970   -5.1090   24.8940 C   0  0  0  0  0  0  0  0  0  0  0  0
  -21.9640   -4.4960   23.7180 C   0  0  0  0  0  3  0  0  0  0  0  0
  -22.1370   -5.2600   22.5500 C   0  0  0  0  0  0  0  0  0  0  0  0
  -22.5660   -4.6600   21.4130 F   0  0  0  0  0  0  0  0  0  0  0  0
  -21.3250   -4.3710   26.0170 F   0  0  0  0  0  0  0  0  0  0  0  0
  -23.1680  -13.9550   21.0140 C   0  0  0  0  0  0  0  0  0  0  0  0
  -22.4400  -13.2850   21.9000 N   0  0  0  0  0  0  0  0  0  0  0  0
  -22.7390  -14.9790   20.4840 O   0  0  0  0  0  0  0  0  0  0  0  0
  -22.7980  -12.4550   22.3510 H   0  0  0  0  0  0  0  0  0  0  0  0
  -21.5120  -13.6070   22.1330 H   0  0  0  0  0  0  0  0  0  0  0  0
  -25.8100  -15.5630   20.1400 N   0  0  0  0  0  0  0  0  0  0  0  0
  -25.0390  -16.2160   20.2270 H   0  0  0  0  0  0  0  0  0  0  0  0
  -26.6430  -15.9940   19.7640 H   0  0  0  0  0  0  0  0  0  0  0  0
  -29.9730  -17.9350   16.8010 C   0  0  0  0  0  2  0  0  0  0  0  0
  -29.0970  -18.8460   15.9900 C   0  0  0  0  0  2  0  0  0  0  0  0
  -28.5520  -18.2080   17.2580 C   0  0  0  0  0  3  0  0  0  0  0  0
  -25.2720  -20.8100   17.0100 C   0  0  0  0  0  2  0  0  0  0  0  0
  -25.8670  -19.6160   16.3250 C   0  0  0  0  0  2  0  0  0  0  0  0
  -26.7690  -20.5690   17.0940 C   0  0  0  0  0  3  0  0  0  0  0  0
  -28.0610  -21.6800   21.7830 N   0  0  0  0  0  0  0  0  0  0  0  0
  -27.2570  -22.2990   21.7900 H   0  0  0  0  0  0  0  0  0  0  0  0
  -29.2910  -22.4670   21.7390 C   0  0  0  0  0  2  0  0  0  0  0  0
  -27.8800  -24.7170   21.6090 C   0  0  0  0  0  2  0  0  0  0  0  0
  -29.9650  -25.0210   21.6230 C   0  0  0  0  0  2  0  0  0  0  0  0
  -29.0560  -23.9110   22.1850 C   0  0  0  0  0  3  0  0  0  0  0  0
  -28.7630  -25.9710   21.6350 C   0  0  0  0  0  3  0  0  0  0  0  0
  -28.6720  -26.7790   20.4610 O   0  0  0  0  0  0  0  0  0  0  0  0
  -24.6840  -31.9370   23.2870 C   0  0  0  0  0  0  0  0  0  0  0  0
  -27.5060  -27.4960   20.4060 C   0  0  0  0  0  0  0  0  0  0  0  0
  -23.5540  -30.4660   21.6480 C   0  0  0  0  0  3  0  0  0  0  0  0
  -25.0810  -28.9270   20.3060 C   0  0  0  0  0  0  0  0  0  0  0  0
  -26.0720  -30.8820   21.5110 C   0  0  0  0  0  2  0  0  0  0  0  0
  -26.2050  -29.4970   20.9160 C   0  0  0  0  0  0  0  0  0  0  0  0
  -27.4220  -28.7850   20.9710 C   0  0  0  0  0  3  0  0  0  0  0  0
  -26.3760  -26.9360   19.7780 C   0  0  0  0  0  3  0  0  0  0  0  0
  -25.1580  -27.6430   19.7360 C   0  0  0  0  0  3  0  0  0  0  0  0
  -23.8150  -29.7530   20.2940 C   0  0  0  0  0  2  0  0  0  0  0  0
  -24.7860  -31.1110   22.2070 N   0  0  0  0  0  0  0  0  0  0  0  0
  -23.5840  -32.2020   23.7900 O   0  0  0  0  0  0  0  0  0  0  0  0
  -22.8980  -29.4580   22.6160 C   0  0  0  0  0  0  0  0  0  0  0  0
  -21.5790  -29.2540   22.4600 N   0  0  0  0  0  0  0  0  0  0  0  0
  -23.5700  -28.8610   23.4610 O   0  0  0  0  0  0  0  0  0  0  0  0
  -21.0990  -29.7890   21.7520 H   0  0  0  0  0  0  0  0  0  0  0  0
  -18.1980  -28.0810   22.9520 C   0  0  0  0  0  0  0  0  0  0  0  0
  -20.7570  -28.3210   23.2300 C   0  0  0  0  0  3  0  0  0  0  0  0
  -20.8520  -26.8890   22.6530 C   0  0  0  0  0  2  0  0  0  0  0  0
  -19.7490  -26.5720   21.6390 C   0  0  0  0  0  2  0  0  0  0  0  0
  -18.3670  -26.7300   22.2810 C   0  0  0  0  0  2  0  0  0  0  0  0
  -19.3220  -28.8360   23.3840 C   0  0  0  0  0  0  0  0  0  0  0  0
  -19.1110  -30.1030   23.9720 C   0  0  0  0  0  3  0  0  0  0  0  0
  -17.8110  -30.6140   24.1330 C   0  0  0  0  0  3  0  0  0  0  0  0
  -16.7020  -29.8570   23.7190 C   0  0  0  0  0  3  0  0  0  0  0  0
  -16.8970  -28.5930   23.1350 C   0  0  0  0  0  3  0  0  0  0  0  0
  -25.9410  -32.6080   23.9260 C   0  0  0  0  0  3  0  0  0  0  0  0
  -25.5910  -34.0010   24.2330 N   0  0  0  0  0  0  0  0  0  0  0  0
  -25.9140  -35.0520   23.4660 C   0  0  0  0  0  0  0  0  0  0  0  0
  -26.6070  -34.9530   22.4510 O   0  0  0  0  0  0  0  0  0  0  0  0
  -24.9800  -34.1500   25.0210 H   0  0  0  0  0  0  0  0  0  0  0  0
  -24.1420  -36.7870   23.0520 C   0  0  0  0  0  1  0  0  0  0  0  0
  -25.3780  -36.4320   23.8920 C   0  0  0  0  0  3  0  0  0  0  0  0
  -27.4740  -37.3860   24.7440 C   0  0  0  0  0  1  0  0  0  0  0  0
  -26.3830  -37.5110   23.7810 N   0  0  0  0  0  0  0  0  0  0  0  0
  -25.9500  -38.4220   23.9090 H   0  0  0  0  0  0  0  0  0  0  0  0
  -26.4540  -31.8630   25.2200 C   0  0  1  0  0  0  0  0  0  0  0  0
  -25.3360  -31.5540   26.2420 C   0  0  0  0  0  1  0  0  0  0  0  0
  -27.1370  -30.5270   24.8420 C   0  0  0  0  0  1  0  0  0  0  0  0
  -27.5250  -32.7220   25.9310 C   0  0  0  0  0  1  0  0  0  0  0  0
  2  1  2  0
  3  2  1  0
  4  3  2  0
  4  5  1  0
  5  6  2  0
  6  1  1  0
  6 54  1  0
  7  5  1  0
  8 19  1  0
  9 14  1  0
 10 11  1  0
 10  9  1  0
 12 11  1  0
 12 23  1  0
 12 13  1  0
 14  8  1  0
 14 13  1  0
 15  8  2  0
 16 19  1  0
 18  2  1  0
 18 16  1  0
 18 17  1  0
 19 17  1  0
 20 21  2  0
 21 40  1  0
 22 21  1  0
 22 25  1  0
 23 20  1  0
 23 24  1  0
 24 22  2  0
 25 26  1  0
 26 27  2  0
 28 31  1  0
 28 27  1  0
 29 28  2  0
 30 29  1  0
 30 25  2  0
 31 32  1  0
 32 33  1  0
 33 34  2  0
 35 34  1  0
 35 39  1  0
 36 35  2  0
 37 32  2  0
 37 36  1  0
 38 37  1  0
 40 41  1  0
 41 44  1  0
 41 43  1  0
 42 40  2  0
 45 46  1  0
 45 20  1  0
 47 45  1  0
 48 50  1  0
 49 48  1  0
 49 50  1  0
 50  3  1  0
 51 53  1  0
 52 51  1  0
 52 53  1  0
 53  4  1  0
 54 55  1  0
 56 54  1  0
 57 60  1  0
 57 59  1  0
 58 60  1  0
 58 59  1  0
 59 56  1  0
 60 61  1  0
 62 73  2  0
 63 61  1  0
 63 68  1  0
 64 72  1  0
 64 74  1  0
 65 67  1  0
 66 72  1  0
 67 68  2  0
 67 66  1  0
 69 63  2  0
 70 69  1  0
 70 65  2  0
 71 65  1  0
 71 64  1  0
 72 62  1  0
 74 76  2  0
 75 74  1  0
 77 75  1  0
 78 87  2  0
 78 83  1  0
 79 75  1  0
 79 83  1  0
 80 79  1  0
 81 82  1  0
 81 80  1  0
 82 78  1  0
 83 84  2  0
 84 85  1  0
 86 85  2  0
 87 86  1  0
 88 62  1  0
 88 89  1  0
 88 98  1  0
 89 92  1  0
 90 94  1  0
 90 89  1  0
 91 90  2  0
 94 93  1  0
 96 94  1  0
 96 97  1  0
 96 95  1  0
 98101  1  1
 98 99  1  0
100 98  1  0
M  ISO  4   8 100  19 100  60 101  61 101
M  END
>  <TORSDO>  (2) 
F 21

>  <SCORE>  (2) 
-12.362

>  <name>  (2) 
1

>  <ligand_id>  (2) 
1

>  <original_smiles>  (2) 
[H]c1c([H])c([H])c2c(c1[H])C([H])([H])C([H])([H])C([H])([H])C2([H])N([H])C(=O)C1([H])N(C(=O)C([H])(N([H])C(=O)C([H])(N([H])C([H])([H])[H])C([H])([H])[H])C(C([H])([H])[H])(C([H])([H])[H])C([H])([H])[H])C([H])([H])c2c([H])c(OC3([H])C([H])([H])C([H])(C([H])([H])N([H])c4c([H])c(C5([H])C([H])([H])N(C(=O)N6C([H])([H])C([H])([H])C([H])([H])C([H])(n7nc(-c8c([H])c([H])c(Oc9c([H])c([H])c(F)c([H])c9F)c([H])c8[H])c(C(=O)N([H])[H])c7N([H])[H])C6([H])[H])C5([H])[H])c(C5([H])C([H])([H])C5([H])[H])c(C5([H])C([H])([H])C5([H])[H])c4C([H])([H])[H])C3([H])[H])c([H])c([H])c2C1([H])[H]

>  <smiles>  (2) 
[H]c1c([H])c([H])c2c(c1[H])C([H])([H])C([H])([H])C([H])([H])C2([H])N([H])C(=O)C1([H])N(C(=O)C([H])(N([H])C(=O)C([H])(N([H])C([H])([H])[H])C([H])([H])[H])C(C([H])([H])[H])(C([H])([H])[H])C([H])([H])[H])C([H])([H])c2c([H])c(OC3([H])C([H])([H])C([H])(C([H])([H])N([H])c4c([H])c(C5([H])C([H])([H])N(C(=O)N6C([H])([H])C([H])([H])C([H])([H])C([H])(n7nc(-c8c([H])c([H])c(Oc9c([H])c([H])c(F)c([H])c9F)c([H])c8[H])c(C(=O)N([H])[H])c7N([H])[H])C6([H])[H])C5([H])[H])c(C5([H])C([H])([H])C5([H])[H])c(C5([H])C([H])([H])C5([H])[H])c4C([H])([H])[H])C3([H])[H])c([H])c([H])c2C1([H])[H]

$$$$
2:0:0
     RDKit          3D

 96107  0  0  1  0  0  0  0  0999 V2000
  -28.8050  -19.1790   19.9230 C   0  0  0  0  0  2  0  0  0  0  0  0
  -31.2580  -17.5480   21.5680 C   0  0  0  0  0  2  0  0  0  0  0  0
  -29.4410  -20.4220   20.6280 C   0  0  0  0  0  3  0  0  0  0  0  0
  -29.8160  -18.0180   19.9920 C   0  0  0  0  0  3  0  0  0  0  0  0
  -29.8710  -17.0070   21.1870 C   0  0  0  0  0  3  0  0  0  0  0  0
  -31.1370  -18.6310   20.4630 C   0  0  0  0  0  3  0  0  0  0  0  0
  -30.8790  -20.0670   20.8350 N   0  0  2  0  0  4  0  0  0  0  0  0
  -31.3640  -20.6040   20.1320 H   0  0  0  0  0  0  0  0  0  0  0  0
  -30.5380  -14.5380   20.4140 C   0  0  0  0  0  0  0  0  0  0  0  0
  -30.3050  -12.3460   19.2620 C   0  0  0  0  0  2  0  0  0  0  0  0
  -29.3400  -12.5170   18.0680 C   0  0  0  0  0  2  0  0  0  0  0  0
  -27.8710  -12.3620   18.5130 C   0  0  0  0  0  2  0  0  0  0  0  0
  -27.5390  -13.1960   19.7780 C   0  0  0  0  0  3  0  0  0  0  0  0
  -28.6080  -12.9760   20.8720 C   0  0  0  0  0  2  0  0  0  0  0  0
  -29.9160  -13.3260   20.2920 N   0  0  0  0  0  0  0  0  0  0  0  0
  -31.6770  -14.7330   19.9800 O   0  0  0  0  0  0  0  0  0  0  0  0
  -29.7470  -15.5360   20.9010 N   0  0  0  0  0  0  0  0  0  0  0  0
  -28.8440  -15.1700   21.1650 H   0  0  0  0  0  0  0  0  0  0  0  0
  -25.1510  -13.8070   20.5130 C   0  0  0  0  0  0  0  0  0  0  0  0
  -24.0840  -13.0370   20.8910 C   0  0  0  0  0  0  0  0  0  0  0  0
  -24.5410  -11.6830   20.8530 C   0  0  0  0  0  0  0  0  0  0  0  0
  -26.1910  -12.9220   20.2700 N   0  0  0  0  0  0  0  0  0  0  0  0
  -25.8290  -11.6410   20.5320 N   0  0  0  0  0  0  0  0  0  0  0  0
  -23.8120  -10.4230   21.0470 C   0  0  0  0  0  0  0  0  0  0  0  0
  -24.2520   -9.4500   21.9720 C   0  0  0  0  0  3  0  0  0  0  0  0
  -23.5250   -8.2550   22.1530 C   0  0  0  0  0  3  0  0  0  0  0  0
  -22.3440   -8.0220   21.4090 C   0  0  0  0  0  0  0  0  0  0  0  0
  -21.9230   -8.9840   20.4720 C   0  0  0  0  0  3  0  0  0  0  0  0
  -22.6510  -10.1710   20.2900 C   0  0  0  0  0  3  0  0  0  0  0  0
  -21.5880   -6.8790   21.5000 O   0  0  0  0  0  0  0  0  0  0  0  0
  -21.5550   -6.1270   22.6460 C   0  0  0  0  0  0  0  0  0  0  0  0
  -21.1500   -6.6720   23.8850 C   0  0  0  0  0  3  0  0  0  0  0  0
  -21.0650   -5.8480   25.0230 C   0  0  0  0  0  3  0  0  0  0  0  0
  -21.3740   -4.4770   24.9250 C   0  0  0  0  0  0  0  0  0  0  0  0
  -21.7710   -3.9310   23.6920 C   0  0  0  0  0  3  0  0  0  0  0  0
  -21.8590   -4.7540   22.5560 C   0  0  0  0  0  0  0  0  0  0  0  0
  -22.2210   -4.2180   21.3660 F   0  0  0  0  0  0  0  0  0  0  0  0
  -21.2850   -3.6820   26.0180 F   0  0  0  0  0  0  0  0  0  0  0  0
  -22.6900  -13.5170   21.1770 C   0  0  0  0  0  0  0  0  0  0  0  0
  -21.9670  -12.8190   22.0460 N   0  0  0  0  0  0  0  0  0  0  0  0
  -22.2520  -14.5460   20.6660 O   0  0  0  0  0  0  0  0  0  0  0  0
  -22.3350  -11.9860   22.4820 H   0  0  0  0  0  0  0  0  0  0  0  0
  -21.0320  -13.1210   22.2780 H   0  0  0  0  0  0  0  0  0  0  0  0
  -25.3190  -15.1770   20.3380 N   0  0  0  0  0  0  0  0  0  0  0  0
  -24.5530  -15.8320   20.4480 H   0  0  0  0  0  0  0  0  0  0  0  0
  -26.1600  -15.6110   19.9800 H   0  0  0  0  0  0  0  0  0  0  0  0
  -32.9320  -20.7080   22.1510 C   0  0  0  0  0  2  0  0  0  0  0  0
  -32.0050  -21.9040   22.1370 C   0  0  0  0  0  2  0  0  0  0  0  0
  -31.4320  -20.5050   22.1420 C   0  0  0  0  0  3  0  0  0  0  0  0
  -29.6650  -21.9230   18.6090 C   0  0  0  0  0  2  0  0  0  0  0  0
  -29.2740  -21.7980   19.8910 C   0  0  0  0  0  0  0  0  0  0  0  0
  -29.5000  -24.2870   20.8830 C   0  0  0  0  0  2  0  0  0  0  0  0
  -27.7180  -23.9970   19.8520 C   0  0  0  0  0  2  0  0  0  0  0  0
  -28.6370  -23.0130   20.6450 C   0  0  0  0  0  3  0  0  0  0  0  0
  -28.2120  -25.1520   20.7650 C   0  0  0  0  0  3  0  0  0  0  0  0
  -28.3690  -26.5130   20.2440 O   0  0  0  0  0  0  0  0  0  0  0  0
  -24.5960  -31.8490   23.2400 C   0  0  0  0  0  0  0  0  0  0  0  0
  -27.2320  -27.3150   20.2240 C   0  0  0  0  0  0  0  0  0  0  0  0
  -23.3970  -30.4440   21.5990 C   0  0  0  0  0  3  0  0  0  0  0  0
  -24.8550  -28.8850   20.1940 C   0  0  0  0  0  0  0  0  0  0  0  0
  -25.9330  -30.7740   21.4220 C   0  0  0  0  0  2  0  0  0  0  0  0
  -26.0180  -29.3940   20.7870 C   0  0  0  0  0  0  0  0  0  0  0  0
  -27.2110  -28.6200   20.7900 C   0  0  0  0  0  3  0  0  0  0  0  0
  -26.0490  -26.8420   19.6150 C   0  0  0  0  0  3  0  0  0  0  0  0
  -24.8700  -27.6120   19.6000 C   0  0  0  0  0  3  0  0  0  0  0  0
  -23.6170  -29.7560   20.2260 C   0  0  0  0  0  2  0  0  0  0  0  0
  -24.6600  -31.0390   22.1450 N   0  0  0  0  0  0  0  0  0  0  0  0
  -23.5110  -32.1300   23.7710 O   0  0  0  0  0  0  0  0  0  0  0  0
  -22.7320  -29.4320   22.5620 C   0  0  0  0  0  0  0  0  0  0  0  0
  -21.4050  -29.2670   22.4380 N   0  0  0  0  0  0  0  0  0  0  0  0
  -23.4080  -28.8000   23.3780 O   0  0  0  0  0  0  0  0  0  0  0  0
  -20.9200  -29.8280   21.7510 H   0  0  0  0  0  0  0  0  0  0  0  0
  -18.0160  -28.1160   22.9490 C   0  0  0  0  0  0  0  0  0  0  0  0
  -20.5780  -28.3380   23.2080 C   0  0  0  0  0  3  0  0  0  0  0  0
  -20.6580  -26.9070   22.6280 C   0  0  0  0  0  2  0  0  0  0  0  0
  -19.5470  -26.6030   21.6180 C   0  0  0  0  0  2  0  0  0  0  0  0
  -18.1700  -26.7660   22.2680 C   0  0  0  0  0  2  0  0  0  0  0  0
  -19.1470  -28.8610   23.3760 C   0  0  0  0  0  0  0  0  0  0  0  0
  -18.9490  -30.1250   23.9720 C   0  0  0  0  0  3  0  0  0  0  0  0
  -17.6520  -30.6440   24.1460 C   0  0  0  0  0  3  0  0  0  0  0  0
  -16.5350  -29.8960   23.7360 C   0  0  0  0  0  3  0  0  0  0  0  0
  -16.7180  -28.6340   23.1430 C   0  0  0  0  0  3  0  0  0  0  0  0
  -25.8780  -32.4820   23.8660 C   0  0  0  0  0  3  0  0  0  0  0  0
  -25.5680  -33.8790   24.1950 N   0  0  0  0  0  0  0  0  0  0  0  0
  -25.8980  -34.9320   23.4340 C   0  0  0  0  0  0  0  0  0  0  0  0
  -26.5650  -34.8280   22.4010 O   0  0  0  0  0  0  0  0  0  0  0  0
  -24.9760  -34.0340   24.9970 H   0  0  0  0  0  0  0  0  0  0  0  0
  -24.1650  -36.7210   23.0850 C   0  0  0  0  0  1  0  0  0  0  0  0
  -25.4110  -36.3200   23.8920 C   0  0  0  0  0  3  0  0  0  0  0  0
  -27.5450  -37.2110   24.7140 C   0  0  0  0  0  1  0  0  0  0  0  0
  -26.4410  -37.3750   23.7720 N   0  0  0  0  0  0  0  0  0  0  0  0
  -26.0330  -38.2940   23.9190 H   0  0  0  0  0  0  0  0  0  0  0  0
  -26.3910  -31.7100   25.1440 C   0  0  1  0  0  0  0  0  0  0  0  0
  -25.2950  -31.4720   26.2080 C   0  0  0  0  0  1  0  0  0  0  0  0
  -26.9760  -30.3330   24.7520 C   0  0  0  0  0  1  0  0  0  0  0  0
  -27.5400  -32.5040   25.8100 C   0  0  0  0  0  1  0  0  0  0  0  0
  1  3  1  0
  3 51  1  0
  3  7  1  0
  4  1  1  0
  4  6  1  0
  4  5  1  0
  5 17  1  0
  5  2  1  0
  6  7  1  0
  6  2  1  0
  7  8  1  6
  7 49  1  0
  9 17  1  0
 10 15  1  0
 11 12  1  0
 11 10  1  0
 13 12  1  0
 13 22  1  0
 13 14  1  0
 15  9  1  0
 15 14  1  0
 16  9  2  0
 17 18  1  0
 19 20  2  0
 20 39  1  0
 21 20  1  0
 21 24  1  0
 22 19  1  0
 22 23  1  0
 23 21  2  0
 24 25  1  0
 25 26  2  0
 27 30  1  0
 27 26  1  0
 28 27  2  0
 29 28  1  0
 29 24  2  0
 30 31  1  0
 31 32  1  0
 32 33  2  0
 34 33  1  0
 34 38  1  0
 35 34  2  0
 36 31  2  0
 36 35  1  0
 37 36  1  0
 39 40  1  0
 40 43  1  0
 40 42  1  0
 41 39  2  0
 44 45  1  0
 44 19  1  0
 46 44  1  0
 48 49  1  0
 48 47  1  0
 49 47  1  0
 50 51  2  0
 53 54  1  0
 53 55  1  0
 54 51  1  0
 54 52  1  0
 55 56  1  0
 55 52  1  0
 57 68  2  0
 58 56  1  0
 58 63  1  0
 59 67  1  0
 59 69  1  0
 60 66  1  0
 60 62  1  0
 61 67  1  0
 62 63  2  0
 62 61  1  0
 64 58  2  0
 65 64  1  0
 65 60  2  0
 66 59  1  0
 67 57  1  0
 69 71  2  0
 70 69  1  0
 72 70  1  0
 73 82  2  0
 73 78  1  0
 74 70  1  0
 74 78  1  0
 75 74  1  0
 76 77  1  0
 76 75  1  0
 77 73  1  0
 78 79  2  0
 79 80  1  0
 81 80  2  0
 82 81  1  0
 83 57  1  0
 83 84  1  0
 83 93  1  0
 84 87  1  0
 85 89  1  0
 85 84  1  0
 86 85  2  0
 89 88  1  0
 91 89  1  0
 91 92  1  0
 91 90  1  0
 93 96  1  1
 93 94  1  0
 95 93  1  0
M  ISO  4   9 100  17 100  55 101  56 101
M  END
>  <TORSDO>  (3) 
F 19

>  <SCORE>  (3) 
-14.453

>  <name>  (3) 
2

>  <ligand_id>  (3) 
2

>  <original_smiles>  (3) 
[H]C([H])=C(C1([H])C([H])([H])C([H])(Oc2c([H])c([H])c3c(c2[H])C([H])([H])N(C(=O)C([H])(N([H])C(=O)C([H])(N([H])C([H])([H])[H])C([H])([H])[H])C(C([H])([H])[H])(C([H])([H])[H])C([H])([H])[H])C([H])(C(=O)N([H])C2([H])c4c([H])c([H])c([H])c([H])c4C([H])([H])C([H])([H])C2([H])[H])C3([H])[H])C1([H])[H])C1([H])C([H])([H])C2([H])C([H])(N([H])C(=O)N3C([H])([H])C([H])([H])C([H])([H])C([H])(n4nc(-c5c([H])c([H])c(Oc6c([H])c([H])c(F)c([H])c6F)c([H])c5[H])c(C(=O)N([H])[H])c4N([H])[H])C3([H])[H])C([H])([H])C2([H])[N+]1([H])C1([H])C([H])([H])C1([H])[H]

>  <smiles>  (3) 
[H]C([H])=C(C1([H])C([H])([H])C([H])(Oc2c([H])c([H])c3c(c2[H])C([H])([H])N(C(=O)C([H])(N([H])C(=O)C([H])(N([H])C([H])([H])[H])C([H])([H])[H])C(C([H])([H])[H])(C([H])([H])[H])C([H])([H])[H])C([H])(C(=O)N([H])C2([H])c4c([H])c([H])c([H])c([H])c4C([H])([H])C([H])([H])C2([H])[H])C3([H])[H])C1([H])[H])C1([H])C([H])([H])C2([H])C([H])(N([H])C(=O)N3C([H])([H])C([H])([H])C([H])([H])C([H])(n4nc(-c5c([H])c([H])c(Oc6c([H])c([H])c(F)c([H])c6F)c([H])c5[H])c(C(=O)N([H])[H])c4N([H])[H])C3([H])[H])C([H])([H])C2([H])[N+]1([H])C1([H])C([H])([H])C1([H])[H]

$$$$
3:0:0
     RDKit          3D

 95104  0  0  1  0  0  0  0  0999 V2000
  -29.4580  -22.3520   19.2080 C   0  0  0  0  0  3  0  0  0  0  0  0
  -28.9240  -23.6790   19.1920 C   0  0  0  0  0  0  0  0  0  0  0  0
  -29.9930  -22.0730   20.4350 C   0  0  0  0  0  0  0  0  0  0  0  0
  -29.1460  -24.2380   20.4260 C   0  0  0  0  0  0  0  0  0  0  0  0
  -28.2250  -24.3090   18.0150 C   0  0  0  0  0  1  0  0  0  0  0  0
  -29.8160  -23.2520   21.1850 N   0  0  0  0  0  0  0  0  0  0  0  0
  -29.0930  -23.1300   23.5440 C   0  0  0  0  0  1  0  0  0  0  0  0
  -30.2360  -23.4320   22.5710 C   0  0  0  0  0  2  0  0  0  0  0  0
  -30.7160  -20.7940   20.9350 C   0  0  0  0  0  2  0  0  0  0  0  0
  -28.6950  -17.6440   20.4930 C   0  0  0  0  0  2  0  0  0  0  0  0
  -28.8380  -19.1840   20.4260 C   0  0  0  0  0  2  0  0  0  0  0  0
  -30.9780  -18.2310   20.7900 C   0  0  0  0  0  2  0  0  0  0  0  0
  -30.0970  -17.0660   20.2380 C   0  0  0  0  0  3  0  0  0  0  0  0
  -30.2840  -19.4830   20.3320 N   0  0  2  0  0  4  0  0  0  0  0  0
  -30.4900  -19.5630   19.3490 H   0  0  0  0  0  0  0  0  0  0  0  0
  -30.9670  -14.6420   20.2740 C   0  0  0  0  0  0  0  0  0  0  0  0
  -30.6970  -12.4190   19.2100 C   0  0  0  0  0  2  0  0  0  0  0  0
  -29.7370  -12.5570   18.0060 C   0  0  0  0  0  2  0  0  0  0  0  0
  -28.2700  -12.4300   18.4530 C   0  0  0  0  0  2  0  0  0  0  0  0
  -27.9390  -13.3080   19.6860 C   0  0  0  0  0  3  0  0  0  0  0  0
  -29.0030  -13.1330   20.7950 C   0  0  0  0  0  2  0  0  0  0  0  0
  -30.3260  -13.4360   20.2130 N   0  0  0  0  0  0  0  0  0  0  0  0
  -32.0660  -14.8330   19.7470 O   0  0  0  0  0  0  0  0  0  0  0  0
  -30.2310  -15.6720   20.7720 N   0  0  0  0  0  0  0  0  0  0  0  0
  -29.4240  -15.3540   21.2870 H   0  0  0  0  0  0  0  0  0  0  0  0
  -25.5680  -13.9530   20.4470 C   0  0  0  0  0  0  0  0  0  0  0  0
  -24.4890  -13.2010   20.8230 C   0  0  0  0  0  0  0  0  0  0  0  0
  -24.9190  -11.8400   20.7620 C   0  0  0  0  0  0  0  0  0  0  0  0
  -26.5880  -13.0540   20.1800 N   0  0  0  0  0  0  0  0  0  0  0  0
  -26.2010  -11.7750   20.4230 N   0  0  0  0  0  0  0  0  0  0  0  0
  -24.1670  -10.5920   20.9420 C   0  0  0  0  0  0  0  0  0  0  0  0
  -24.5840   -9.6060   21.8630 C   0  0  0  0  0  3  0  0  0  0  0  0
  -23.8350   -8.4190   22.0280 C   0  0  0  0  0  3  0  0  0  0  0  0
  -22.6520   -8.2150   21.2750 C   0  0  0  0  0  0  0  0  0  0  0  0
  -22.2530   -9.1930   20.3460 C   0  0  0  0  0  3  0  0  0  0  0  0
  -23.0030  -10.3690   20.1790 C   0  0  0  0  0  3  0  0  0  0  0  0
  -21.8760   -7.0830   21.3550 O   0  0  0  0  0  0  0  0  0  0  0  0
  -21.8060   -6.3390   22.5080 C   0  0  0  0  0  0  0  0  0  0  0  0
  -21.3720   -6.8940   23.7300 C   0  0  0  0  0  3  0  0  0  0  0  0
  -21.2500   -6.0760   24.8710 C   0  0  0  0  0  3  0  0  0  0  0  0
  -21.5480   -4.7020   24.7890 C   0  0  0  0  0  0  0  0  0  0  0  0
  -21.9760   -4.1460   23.5710 C   0  0  0  0  0  3  0  0  0  0  0  0
  -22.1020   -4.9630   22.4330 C   0  0  0  0  0  0  0  0  0  0  0  0
  -22.4940   -4.4170   21.2560 F   0  0  0  0  0  0  0  0  0  0  0  0
  -21.4220   -3.9150   25.8830 F   0  0  0  0  0  0  0  0  0  0  0  0
  -23.1070  -13.7050   21.1270 C   0  0  0  0  0  0  0  0  0  0  0  0
  -22.3810  -13.0150   21.9980 N   0  0  0  0  0  0  0  0  0  0  0  0
  -22.6780  -14.7420   20.6260 O   0  0  0  0  0  0  0  0  0  0  0  0
  -22.7370  -12.1740   22.4300 H   0  0  0  0  0  0  0  0  0  0  0  0
  -21.4580  -13.3380   22.2470 H   0  0  0  0  0  0  0  0  0  0  0  0
  -25.7660  -15.3210   20.2860 N   0  0  0  0  0  0  0  0  0  0  0  0
  -25.0180  -15.9920   20.4230 H   0  0  0  0  0  0  0  0  0  0  0  0
  -26.5880  -15.7200   19.8550 H   0  0  0  0  0  0  0  0  0  0  0  0
  -28.7030  -25.5950   21.0200 C   0  0  0  0  0  2  0  0  0  0  0  0
  -28.6960  -26.6800   20.0550 O   0  0  0  0  0  0  0  0  0  0  0  0
  -24.6810  -31.7460   23.1560 C   0  0  0  0  0  0  0  0  0  0  0  0
  -27.5330  -27.4330   20.0530 C   0  0  0  0  0  0  0  0  0  0  0  0
  -23.5530  -30.3360   21.4670 C   0  0  0  0  0  3  0  0  0  0  0  0
  -25.0900  -28.8780   20.0420 C   0  0  0  0  0  0  0  0  0  0  0  0
  -26.0740  -30.7830   21.3250 C   0  0  0  0  0  2  0  0  0  0  0  0
  -26.2220  -29.4280   20.6550 C   0  0  0  0  0  0  0  0  0  0  0  0
  -27.4510  -28.7170   20.6510 C   0  0  0  0  0  3  0  0  0  0  0  0
  -26.3780  -26.9000   19.4410 C   0  0  0  0  0  3  0  0  0  0  0  0
  -25.1630  -27.6130   19.4320 C   0  0  0  0  0  3  0  0  0  0  0  0
  -23.8140  -29.6940   20.0790 C   0  0  0  0  0  2  0  0  0  0  0  0
  -24.7860  -30.9690   22.0410 N   0  0  0  0  0  0  0  0  0  0  0  0
  -23.5810  -31.9670   23.6820 O   0  0  0  0  0  0  0  0  0  0  0  0
  -22.9250  -29.2700   22.3950 C   0  0  0  0  0  0  0  0  0  0  0  0
  -21.6070  -29.0540   22.2500 N   0  0  0  0  0  0  0  0  0  0  0  0
  -23.6190  -28.6420   23.1980 O   0  0  0  0  0  0  0  0  0  0  0  0
  -21.1120  -29.6100   21.5680 H   0  0  0  0  0  0  0  0  0  0  0  0
  -18.2650  -27.7500   22.7010 C   0  0  0  0  0  0  0  0  0  0  0  0
  -20.8120  -28.0750   22.9940 C   0  0  0  0  0  3  0  0  0  0  0  0
  -20.9620  -26.6630   22.3860 C   0  0  0  0  0  2  0  0  0  0  0  0
  -19.8780  -26.3360   21.3540 C   0  0  0  0  0  2  0  0  0  0  0  0
  -18.4880  -26.4230   21.9930 C   0  0  0  0  0  2  0  0  0  0  0  0
  -19.3590  -28.5330   23.1580 C   0  0  0  0  0  0  0  0  0  0  0  0
  -19.1040  -29.7740   23.7790 C   0  0  0  0  0  3  0  0  0  0  0  0
  -17.7840  -30.2350   23.9460 C   0  0  0  0  0  3  0  0  0  0  0  0
  -16.7030  -29.4490   23.5090 C   0  0  0  0  0  3  0  0  0  0  0  0
  -16.9460  -28.2070   22.8910 C   0  0  0  0  0  3  0  0  0  0  0  0
  -25.9320  -32.4120   23.8100 C   0  0  0  0  0  3  0  0  0  0  0  0
  -26.4560  -31.6420   25.0840 C   0  0  1  0  0  0  0  0  0  0  0  0
  -25.3530  -31.3580   26.1280 C   0  0  0  0  0  1  0  0  0  0  0  0
  -27.0910  -30.2880   24.6870 C   0  0  0  0  0  1  0  0  0  0  0  0
  -27.5680  -32.4650   25.7760 C   0  0  0  0  0  1  0  0  0  0  0  0
  -25.5720  -33.7940   24.1510 N   0  0  0  0  0  0  0  0  0  0  0  0
  -25.8740  -34.8660   23.4060 C   0  0  0  0  0  0  0  0  0  0  0  0
  -26.5570  -34.7990   22.3800 O   0  0  0  0  0  0  0  0  0  0  0  0
  -24.9630  -33.9210   24.9460 H   0  0  0  0  0  0  0  0  0  0  0  0
  -24.0810  -36.5920   23.0580 C   0  0  0  0  0  1  0  0  0  0  0  0
  -25.3320  -36.2290   23.8740 C   0  0  0  0  0  3  0  0  0  0  0  0
  -27.4230  -37.1860   24.7320 C   0  0  0  0  0  1  0  0  0  0  0  0
  -26.3240  -37.3210   23.7780 N   0  0  0  0  0  0  0  0  0  0  0  0
  -25.8820  -38.2230   23.9300 H   0  0  0  0  0  0  0  0  0  0  0  0
  1  3  2  0
  2  1  1  0
  2  4  2  0
  3  9  1  0
  3  6  1  0
  4 54  1  0
  4  6  1  0
  5  2  1  0
  6  8  1  0
  8  7  1  0
 11 10  1  0
 13 10  1  0
 13 24  1  0
 13 12  1  0
 14 11  1  0
 14 12  1  0
 14  9  1  0
 14 15  1  6
 16 24  1  0
 17 22  1  0
 18 19  1  0
 18 17  1  0
 20 19  1  0
 20 29  1  0
 20 21  1  0
 22 16  1  0
 22 21  1  0
 23 16  2  0
 24 25  1  0
 26 27  2  0
 27 46  1  0
 28 27  1  0
 28 31  1  0
 29 30  1  0
 29 26  1  0
 30 28  2  0
 31 32  1  0
 32 33  2  0
 34 37  1  0
 34 33  1  0
 35 34  2  0
 36 35  1  0
 36 31  2  0
 37 38  1  0
 38 39  1  0
 39 40  2  0
 41 40  1  0
 41 45  1  0
 42 41  2  0
 43 38  2  0
 43 42  1  0
 44 43  1  0
 46 47  1  0
 47 50  1  0
 47 49  1  0
 48 46  2  0
 51 52  1  0
 51 26  1  0
 53 51  1  0
 55 54  1  0
 56 67  2  0
 57 55  1  0
 57 62  1  0
 58 66  1  0
 58 68  1  0
 59 65  1  0
 59 61  1  0
 60 66  1  0
 61 60  1  0
 62 61  2  0
 63 57  2  0
 64 63  1  0
 64 59  2  0
 65 58  1  0
 66 56  1  0
 68 70  2  0
 69 68  1  0
 71 69  1  0
 72 81  2  0
 72 77  1  0
 73 69  1  0
 73 77  1  0
 74 73  1  0
 75 76  1  0
 75 74  1  0
 76 72  1  0
 77 78  2  0
 78 79  1  0
 80 79  2  0
 81 80  1  0
 82 56  1  0
 82 87  1  0
 82 83  1  0
 83 86  1  1
 83 84  1  0
 85 83  1  0
 87 90  1  0
 88 92  1  0
 88 87  1  0
 89 88  2  0
 92 91  1  0
 94 92  1  0
 94 95  1  0
 94 93  1  0
M  ISO  4  16 100  24 100  54 101  55 101
M  END
>  <TORSDO>  (4) 
F 20

>  <SCORE>  (4) 
-13.239

>  <name>  (4) 
3

>  <ligand_id>  (4) 
3

>  <original_smiles>  (4) 
[H]c1c([H])c([H])c2c(c1[H])C([H])([H])C([H])([H])C([H])([H])C2([H])N([H])C(=O)C1([H])N(C(=O)C([H])(N([H])C(=O)C([H])(N([H])C([H])([H])[H])C([H])([H])[H])C(C([H])([H])[H])(C([H])([H])[H])C([H])([H])[H])C([H])([H])c2c([H])c(OC([H])([H])c3c(C([H])([H])[H])c([H])c(C([H])([H])[N+]4([H])C([H])([H])C([H])([H])C([H])(N([H])C(=O)N5C([H])([H])C([H])([H])C([H])([H])C([H])(n6nc(-c7c([H])c([H])c(Oc8c([H])c([H])c(F)c([H])c8F)c([H])c7[H])c(C(=O)N([H])[H])c6N([H])[H])C5([H])[H])C4([H])[H])n3C([H])([H])C([H])([H])[H])c([H])c([H])c2C1([H])[H]

>  <smiles>  (4) 
[H]c1c([H])c([H])c2c(c1[H])C([H])([H])C([H])([H])C([H])([H])C2([H])N([H])C(=O)C1([H])N(C(=O)C([H])(N([H])C(=O)C([H])(N([H])C([H])([H])[H])C([H])([H])[H])C(C([H])([H])[H])(C([H])([H])[H])C([H])([H])[H])C([H])([H])c2c([H])c(OC([H])([H])c3c(C([H])([H])[H])c([H])c(C([H])([H])[N+]4([H])C([H])([H])C([H])([H])C([H])(N([H])C(=O)N5C([H])([H])C([H])([H])C([H])([H])C([H])(n6nc(-c7c([H])c([H])c(Oc8c([H])c([H])c(F)c([H])c8F)c([H])c7[H])c(C(=O)N([H])[H])c6N([H])[H])C5([H])[H])C4([H])[H])n3C([H])([H])C([H])([H])[H])c([H])c([H])c2C1([H])[H]

$$$$
4:0:0
     RDKit          3D

100110  0  0  1  0  0  0  0  0999 V2000
  -31.0800  -22.3440   18.3680 C   0  0  0  0  0  3  0  0  0  0  0  0
  -28.6150  -23.6830   18.1680 C   0  0  0  0  0  3  0  0  0  0  0  0
  -31.3420  -25.8790   19.2060 C   0  0  0  0  0  3  0  0  0  0  0  0
  -31.0350  -23.7210   18.6780 C   0  0  0  0  0  0  0  0  0  0  0  0
  -29.9260  -21.6450   17.9530 C   0  0  0  0  0  0  0  0  0  0  0  0
  -32.0060  -24.6840   19.1090 C   0  0  0  0  0  0  0  0  0  0  0  0
  -29.7790  -24.3780   18.5490 C   0  0  0  0  0  0  0  0  0  0  0  0
  -28.6780  -22.3020   17.8700 C   0  0  0  0  0  0  0  0  0  0  0  0
  -33.4560  -24.4410   19.3890 C   0  0  0  0  0  1  0  0  0  0  0  0
  -30.0080  -25.7110   18.8580 N   0  0  0  0  0  0  0  0  0  0  0  0
  -26.3040  -22.1650   17.5180 C   0  0  0  0  0  1  0  0  0  0  0  0
  -27.5870  -21.5500   17.4940 O   0  0  0  0  0  0  0  0  0  0  0  0
  -30.0510  -20.1850   17.5400 C   0  0  0  0  0  2  0  0  0  0  0  0
  -29.1420  -16.7610   18.9620 C   0  0  0  0  0  2  0  0  0  0  0  0
  -29.7660  -18.2150   20.8640 C   0  0  0  0  0  2  0  0  0  0  0  0
  -29.5600  -17.8470   17.9610 C   0  0  0  0  0  2  0  0  0  0  0  0
  -30.1850  -19.3290   19.8730 C   0  0  0  0  0  2  0  0  0  0  0  0
  -30.0170  -16.8480   20.2180 C   0  0  0  0  0  3  0  0  0  0  0  0
  -29.5220  -19.2200   18.5370 N   0  0  1  0  0  4  0  0  0  0  0  0
  -28.5500  -19.4590   18.6660 H   0  0  0  0  0  0  0  0  0  0  0  0
  -30.6170  -14.6430   21.1070 C   0  0  0  0  0  0  0  0  0  0  0  0
  -30.4930  -12.3990   20.1540 C   0  0  0  0  0  2  0  0  0  0  0  0
  -29.6770  -12.4980   18.8490 C   0  0  0  0  0  2  0  0  0  0  0  0
  -28.1700  -12.3470   19.1370 C   0  0  0  0  0  2  0  0  0  0  0  0
  -27.6800  -13.2500   20.3020 C   0  0  0  0  0  3  0  0  0  0  0  0
  -28.6280  -13.1600   21.5210 C   0  0  0  0  0  2  0  0  0  0  0  0
  -29.9970  -13.4390   21.0630 N   0  0  0  0  0  0  0  0  0  0  0  0
  -31.8110  -14.7980   20.8390 O   0  0  0  0  0  0  0  0  0  0  0  0
  -29.7800  -15.6920   21.0940 N   0  0  0  0  0  0  0  0  0  0  0  0
  -28.8250  -15.4960   21.3570 H   0  0  0  0  0  0  0  0  0  0  0  0
  -25.2160  -13.8060   20.7960 C   0  0  0  0  0  0  0  0  0  0  0  0
  -24.1390  -13.0090   21.0820 C   0  0  0  0  0  0  0  0  0  0  0  0
  -24.6350  -11.6700   21.1080 C   0  0  0  0  0  0  0  0  0  0  0  0
  -26.2980  -12.9480   20.6670 N   0  0  0  0  0  0  0  0  0  0  0  0
  -25.9470  -11.6600   20.9130 N   0  0  0  0  0  0  0  0  0  0  0  0
  -23.9280  -10.3910   21.2490 C   0  0  0  0  0  0  0  0  0  0  0  0
  -24.3250   -9.4290   22.2040 C   0  0  0  0  0  3  0  0  0  0  0  0
  -23.6180   -8.2150   22.3350 C   0  0  0  0  0  3  0  0  0  0  0  0
  -22.5000   -7.9530   21.5070 C   0  0  0  0  0  0  0  0  0  0  0  0
  -22.1240   -8.9030   20.5420 C   0  0  0  0  0  3  0  0  0  0  0  0
  -22.8320  -10.1090   20.4110 C   0  0  0  0  0  3  0  0  0  0  0  0
  -21.7680   -6.7900   21.5450 O   0  0  0  0  0  0  0  0  0  0  0  0
  -21.6920   -6.0240   22.6810 C   0  0  0  0  0  0  0  0  0  0  0  0
  -21.2040   -6.5460   23.8990 C   0  0  0  0  0  3  0  0  0  0  0  0
  -21.0770   -5.7060   25.0230 C   0  0  0  0  0  3  0  0  0  0  0  0
  -21.4270   -4.3460   24.9300 C   0  0  0  0  0  0  0  0  0  0  0  0
  -21.9070   -3.8240   23.7160 C   0  0  0  0  0  3  0  0  0  0  0  0
  -22.0360   -4.6610   22.5940 C   0  0  0  0  0  0  0  0  0  0  0  0
  -22.4800   -4.1480   21.4210 F   0  0  0  0  0  0  0  0  0  0  0  0
  -21.2960   -3.5360   26.0070 F   0  0  0  0  0  0  0  0  0  0  0  0
  -22.7110  -13.4520   21.2280 C   0  0  0  0  0  0  0  0  0  0  0  0
  -21.9300  -12.7470   22.0390 N   0  0  0  0  0  0  0  0  0  0  0  0
  -22.2930  -14.4600   20.6590 O   0  0  0  0  0  0  0  0  0  0  0  0
  -22.2810  -11.9330   22.5210 H   0  0  0  0  0  0  0  0  0  0  0  0
  -20.9700  -13.0260   22.1800 H   0  0  0  0  0  0  0  0  0  0  0  0
  -25.3600  -15.1790   20.6150 N   0  0  0  0  0  0  0  0  0  0  0  0
  -24.5680  -15.8110   20.6460 H   0  0  0  0  0  0  0  0  0  0  0  0
  -26.2210  -15.6350   20.3450 H   0  0  0  0  0  0  0  0  0  0  0  0
  -29.0200  -26.7700   18.8240 C   0  0  0  0  0  2  0  0  0  0  0  0
  -28.4450  -26.8410   20.0870 O   0  0  0  0  0  0  0  0  0  0  0  0
  -24.6620  -31.9090   23.3130 C   0  0  0  0  0  0  0  0  0  0  0  0
  -27.2710  -27.5430   20.1340 C   0  0  0  0  0  0  0  0  0  0  0  0
  -23.4320  -30.5270   21.6690 C   0  0  0  0  0  3  0  0  0  0  0  0
  -24.8670  -29.0070   20.2080 C   0  0  0  0  0  0  0  0  0  0  0  0
  -25.9500  -30.8980   21.4390 C   0  0  0  0  0  2  0  0  0  0  0  0
  -26.0270  -29.5350   20.7900 C   0  0  0  0  0  0  0  0  0  0  0  0
  -27.2310  -28.8020   20.7640 C   0  0  0  0  0  3  0  0  0  0  0  0
  -26.0970  -27.0110   19.5620 C   0  0  0  0  0  3  0  0  0  0  0  0
  -24.8930  -27.7400   19.5970 C   0  0  0  0  0  3  0  0  0  0  0  0
  -23.6210  -29.8610   20.2790 C   0  0  0  0  0  2  0  0  0  0  0  0
  -24.7000  -31.1250   22.2000 N   0  0  0  0  0  0  0  0  0  0  0  0
  -23.5890  -32.1750   23.8720 O   0  0  0  0  0  0  0  0  0  0  0  0
  -22.7950  -29.4940   22.6260 C   0  0  0  0  0  0  0  0  0  0  0  0
  -21.4740  -29.2960   22.4960 N   0  0  0  0  0  0  0  0  0  0  0  0
  -23.4870  -28.8740   23.4380 O   0  0  0  0  0  0  0  0  0  0  0  0
  -20.9780  -29.8500   21.8130 H   0  0  0  0  0  0  0  0  0  0  0  0
  -18.1200  -28.0350   22.9530 C   0  0  0  0  0  0  0  0  0  0  0  0
  -20.6670  -28.3470   23.2620 C   0  0  0  0  0  3  0  0  0  0  0  0
  -20.8090  -26.9140   22.6950 C   0  0  0  0  0  2  0  0  0  0  0  0
  -19.7290  -26.5620   21.6680 C   0  0  0  0  0  2  0  0  0  0  0  0
  -18.3350  -26.6840   22.2910 C   0  0  0  0  0  2  0  0  0  0  0  0
  -19.2160  -28.8230   23.3930 C   0  0  0  0  0  0  0  0  0  0  0  0
  -18.9640  -30.0860   23.9700 C   0  0  0  0  0  3  0  0  0  0  0  0
  -17.6480  -30.5630   24.1120 C   0  0  0  0  0  3  0  0  0  0  0  0
  -16.5650  -29.7720   23.6870 C   0  0  0  0  0  3  0  0  0  0  0  0
  -16.8030  -28.5100   23.1140 C   0  0  0  0  0  3  0  0  0  0  0  0
  -25.9590  -32.5300   23.9230 C   0  0  0  0  0  3  0  0  0  0  0  0
  -26.4950  -31.7420   25.1800 C   0  0  1  0  0  0  0  0  0  0  0  0
  -25.4180  -31.4930   26.2620 C   0  0  0  0  0  1  0  0  0  0  0  0
  -27.0680  -30.3690   24.7590 C   0  0  0  0  0  1  0  0  0  0  0  0
  -27.6570  -32.5250   25.8340 C   0  0  0  0  0  1  0  0  0  0  0  0
  -25.6600  -33.9250   24.2700 N   0  0  0  0  0  0  0  0  0  0  0  0
  -25.9820  -34.9820   23.5120 C   0  0  0  0  0  0  0  0  0  0  0  0
  -26.6350  -34.8850   22.4690 O   0  0  0  0  0  0  0  0  0  0  0  0
  -25.0790  -34.0750   25.0820 H   0  0  0  0  0  0  0  0  0  0  0  0
  -24.2500  -36.7770   23.2000 C   0  0  0  0  0  1  0  0  0  0  0  0
  -25.5040  -36.3670   23.9870 C   0  0  0  0  0  3  0  0  0  0  0  0
  -27.6540  -37.2440   24.7870 C   0  0  0  0  0  1  0  0  0  0  0  0
  -26.5360  -37.4190   23.8630 N   0  0  0  0  0  0  0  0  0  0  0  0
  -26.1340  -38.3390   24.0240 H   0  0  0  0  0  0  0  0  0  0  0  0
  1  4  1  0
  2  7  1  0
  4  6  1  0
  5  1  2  0
  6  3  2  0
  6  9  1  0
  7  4  2  0
  7 10  1  0
  8  5  1  0
  8  2  2  0
 10  3  1  0
 12 11  1  0
 12  8  1  0
 13  5  1  0
 13 19  1  0
 14 18  1  0
 16 19  1  0
 16 14  1  0
 17 15  1  0
 18 15  1  0
 18 29  1  0
 19 20  1  1
 19 17  1  0
 22 27  1  0
 23 24  1  0
 23 22  1  0
 25 24  1  0
 25 34  1  0
 25 26  1  0
 27 21  1  0
 27 26  1  0
 28 21  2  0
 29 21  1  0
 29 30  1  0
 31 32  2  0
 32 33  1  0
 32 51  1  0
 33 36  1  0
 34 31  1  0
 34 35  1  0
 35 33  2  0
 36 37  1  0
 37 38  2  0
 39 42  1  0
 39 38  1  0
 40 39  2  0
 41 40  1  0
 41 36  2  0
 42 43  1  0
 43 44  1  0
 44 45  2  0
 46 45  1  0
 46 50  1  0
 47 46  2  0
 48 43  2  0
 48 47  1  0
 49 48  1  0
 51 52  1  0
 52 55  1  0
 52 54  1  0
 53 51  2  0
 56 57  1  0
 56 31  1  0
 58 56  1  0
 59 10  1  0
 59 60  1  0
 60 62  1  0
 61 72  2  0
 62 67  1  0
 63 71  1  0
 63 73  1  0
 64 70  1  0
 64 66  1  0
 65 71  1  0
 66 65  1  0
 67 66  2  0
 68 69  1  0
 68 62  2  0
 69 64  2  0
 70 63  1  0
 71 61  1  0
 73 75  2  0
 74 73  1  0
 76 74  1  0
 77 86  2  0
 77 82  1  0
 78 74  1  0
 78 82  1  0
 79 78  1  0
 80 81  1  0
 80 79  1  0
 81 77  1  0
 82 83  2  0
 83 84  1  0
 85 84  2  0
 86 85  1  0
 87 61  1  0
 87 92  1  0
 87 88  1  0
 88 91  1  1
 88 89  1  0
 90 88  1  0
 92 95  1  0
 93 97  1  0
 93 92  1  0
 94 93  2  0
 97 96  1  0
 99 97  1  0
 99100  1  0
 99 98  1  0
M  ISO  4  21 100  29 100  59 101  60 101
M  END
>  <TORSDO>  (5) 
F 20

>  <SCORE>  (5) 
-13.425

>  <name>  (5) 
4

>  <ligand_id>  (5) 
4

>  <original_smiles>  (5) 
[H]c1c([H])c([H])c2c(c1[H])C([H])([H])C([H])([H])C([H])([H])C2([H])N([H])C(=O)C1([H])N(C(=O)C([H])(N([H])C(=O)C([H])(N([H])C([H])([H])[H])C([H])([H])[H])C(C([H])([H])[H])(C([H])([H])[H])C([H])([H])[H])C([H])([H])c2c([H])c(OC([H])([H])n3c([H])c(C([H])([H])[H])c4c([H])c(C([H])([H])[N+]5([H])C([H])([H])C([H])([H])C([H])(N([H])C(=O)N6C([H])([H])C([H])([H])C([H])([H])C([H])(n7nc(-c8c([H])c([H])c(Oc9c([H])c([H])c(F)c([H])c9F)c([H])c8[H])c(C(=O)N([H])[H])c7N([H])[H])C6([H])[H])C([H])([H])C5([H])[H])c(OC([H])([H])[H])c([H])c43)c([H])c([H])c2C1([H])[H]

>  <smiles>  (5) 
[H]c1c([H])c([H])c2c(c1[H])C([H])([H])C([H])([H])C([H])([H])C2([H])N([H])C(=O)C1([H])N(C(=O)C([H])(N([H])C(=O)C([H])(N([H])C([H])([H])[H])C([H])([H])[H])C(C([H])([H])[H])(C([H])([H])[H])C([H])([H])[H])C([H])([H])c2c([H])c(OC([H])([H])n3c([H])c(C([H])([H])[H])c4c([H])c(C([H])([H])[N+]5([H])C([H])([H])C([H])([H])C([H])(N([H])C(=O)N6C([H])([H])C([H])([H])C([H])([H])C([H])(n7nc(-c8c([H])c([H])c(Oc9c([H])c([H])c(F)c([H])c9F)c([H])c8[H])c(C(=O)N([H])[H])c7N([H])[H])C6([H])[H])C([H])([H])C5([H])[H])c(OC([H])([H])[H])c([H])c43)c([H])c([H])c2C1([H])[H]

$$$$
5:0:0
     RDKit          3D

 98107  0  0  1  0  0  0  0  0999 V2000
  -30.0780  -19.6290   19.7170 C   0  0  0  0  0  3  0  0  0  0  0  0
  -30.0800  -18.1980   19.6200 C   0  0  0  0  0  0  0  0  0  0  0  0
  -30.3610  -20.3400   20.9170 C   0  0  0  0  0  0  0  0  0  0  0  0
  -30.6570  -19.5110   22.0490 C   0  0  0  0  0  0  0  0  0  0  0  0
  -30.7200  -18.0720   21.9500 C   0  0  0  0  0  0  0  0  0  0  0  0
  -30.4400  -17.3760   20.7330 C   0  0  0  0  0  0  0  0  0  0  0  0
  -30.9370  -20.1860   23.3950 C   0  0  0  0  0  1  0  0  0  0  0  0
  -31.1110  -17.2570   23.1860 C   0  0  0  0  0  1  0  0  0  0  0  0
  -31.1280  -14.8610   20.3030 C   0  0  0  0  0  0  0  0  0  0  0  0
  -30.9130  -12.5910   19.2740 C   0  0  0  0  0  2  0  0  0  0  0  0
  -29.9700  -12.6890   18.0520 C   0  0  0  0  0  2  0  0  0  0  0  0
  -28.4900  -12.5860   18.4740 C   0  0  0  0  0  2  0  0  0  0  0  0
  -28.1470  -13.4820   19.6950 C   0  0  0  0  0  3  0  0  0  0  0  0
  -29.1950  -13.3100   20.8160 C   0  0  0  0  0  2  0  0  0  0  0  0
  -30.5110  -13.6350   20.2430 N   0  0  0  0  0  0  0  0  0  0  0  0
  -32.2800  -15.0140   19.8800 O   0  0  0  0  0  0  0  0  0  0  0  0
  -30.3360  -15.9010   20.7360 N   0  0  0  0  0  0  0  0  0  0  0  0
  -29.4870  -15.5630   21.1600 H   0  0  0  0  0  0  0  0  0  0  0  0
  -25.7870  -14.1730   20.4420 C   0  0  0  0  0  0  0  0  0  0  0  0
  -24.6880  -13.4390   20.7990 C   0  0  0  0  0  0  0  0  0  0  0  0
  -25.0880  -12.0700   20.7320 C   0  0  0  0  0  0  0  0  0  0  0  0
  -26.7890  -13.2510   20.1780 N   0  0  0  0  0  0  0  0  0  0  0  0
  -26.3730  -11.9800   20.4120 N   0  0  0  0  0  0  0  0  0  0  0  0
  -24.3060  -10.8360   20.8970 C   0  0  0  0  0  0  0  0  0  0  0  0
  -24.6840   -9.8410   21.8230 C   0  0  0  0  0  3  0  0  0  0  0  0
  -23.9070   -8.6730   21.9760 C   0  0  0  0  0  3  0  0  0  0  0  0
  -22.7370   -8.4920   21.2010 C   0  0  0  0  0  0  0  0  0  0  0  0
  -22.3770   -9.4770   20.2630 C   0  0  0  0  0  3  0  0  0  0  0  0
  -23.1540  -10.6370   20.1080 C   0  0  0  0  0  3  0  0  0  0  0  0
  -21.9350   -7.3790   21.2620 O   0  0  0  0  0  0  0  0  0  0  0  0
  -21.7980   -6.6540   22.4180 C   0  0  0  0  0  0  0  0  0  0  0  0
  -21.3420   -7.2430   23.6180 C   0  0  0  0  0  3  0  0  0  0  0  0
  -21.1490   -6.4470   24.7640 C   0  0  0  0  0  3  0  0  0  0  0  0
  -21.4020   -5.0630   24.7120 C   0  0  0  0  0  0  0  0  0  0  0  0
  -21.8500   -4.4740   23.5170 C   0  0  0  0  0  3  0  0  0  0  0  0
  -22.0440   -5.2660   22.3730 C   0  0  0  0  0  0  0  0  0  0  0  0
  -22.4560   -4.6900   21.2180 F   0  0  0  0  0  0  0  0  0  0  0  0
  -21.2070   -4.2970   25.8110 F   0  0  0  0  0  0  0  0  0  0  0  0
  -23.3150  -13.9720   21.0940 C   0  0  0  0  0  0  0  0  0  0  0  0
  -22.5640  -13.2920   21.9540 N   0  0  0  0  0  0  0  0  0  0  0  0
  -22.9180  -15.0260   20.5990 O   0  0  0  0  0  0  0  0  0  0  0  0
  -22.8970  -12.4380   22.3760 H   0  0  0  0  0  0  0  0  0  0  0  0
  -21.6420  -13.6300   22.1910 H   0  0  0  0  0  0  0  0  0  0  0  0
  -26.0100  -15.5390   20.3000 N   0  0  0  0  0  0  0  0  0  0  0  0
  -25.2690  -16.2180   20.4340 H   0  0  0  0  0  0  0  0  0  0  0  0
  -26.8740  -15.9560   19.9760 H   0  0  0  0  0  0  0  0  0  0  0  0
  -28.5510  -18.1620   17.4780 C   0  0  0  0  0  2  0  0  0  0  0  0
  -28.3430  -16.8490   18.1880 C   0  0  0  0  0  2  0  0  0  0  0  0
  -29.6640  -17.5730   18.3190 C   0  0  0  0  0  3  0  0  0  0  0  0
  -31.8910  -22.3110   20.3730 C   0  0  0  0  0  1  0  0  0  0  0  0
  -30.5170  -21.9350   20.9500 C   0  0  0  0  0  3  0  0  0  0  0  0
  -29.4490  -22.8340   20.3450 N   0  0  0  0  0  4  0  0  0  0  0  0
  -28.7060  -22.1930   20.1220 H   0  0  0  0  0  0  0  0  0  0  0  0
  -29.7730  -23.1940   19.4610 H   0  0  0  0  0  0  0  0  0  0  0  0
  -27.2590  -23.8870   20.9660 C   0  0  0  0  0  1  0  0  0  0  0  0
  -28.7800  -23.9540   21.1640 C   0  0  0  0  0  3  0  0  0  0  0  0
  -29.3760  -25.4640   21.2190 C   0  0  0  0  0  2  0  0  0  0  0  0
  -29.1010  -26.6090   20.3020 O   0  0  0  0  0  0  0  0  0  0  0  0
  -24.7820  -31.6860   23.2600 C   0  0  0  0  0  0  0  0  0  0  0  0
  -27.9100  -27.3540   20.3490 C   0  0  0  0  0  0  0  0  0  0  0  0
  -23.7830  -30.2020   21.5600 C   0  0  0  0  0  3  0  0  0  0  0  0
  -25.4280  -28.7760   20.2160 C   0  0  0  0  0  0  0  0  0  0  0  0
  -26.2960  -30.7220   21.5100 C   0  0  0  0  0  2  0  0  0  0  0  0
  -26.5210  -29.3530   20.8790 C   0  0  0  0  0  0  0  0  0  0  0  0
  -27.7670  -28.6520   20.9400 C   0  0  0  0  0  3  0  0  0  0  0  0
  -26.8020  -26.8510   19.6420 C   0  0  0  0  0  3  0  0  0  0  0  0
  -25.5700  -27.5290   19.5920 C   0  0  0  0  0  3  0  0  0  0  0  0
  -24.1260  -29.5510   20.1950 C   0  0  0  0  0  2  0  0  0  0  0  0
  -24.9690  -30.8890   22.1680 N   0  0  0  0  0  0  0  0  0  0  0  0
  -23.6530  -31.8700   23.7380 O   0  0  0  0  0  0  0  0  0  0  0  0
  -23.1570  -29.1300   22.4840 C   0  0  0  0  0  0  0  0  0  0  0  0
  -21.8650  -28.8260   22.2730 N   0  0  0  0  0  0  0  0  0  0  0  0
  -23.8370  -28.5730   23.3520 O   0  0  0  0  0  0  0  0  0  0  0  0
  -21.3720  -29.3340   21.5510 H   0  0  0  0  0  0  0  0  0  0  0  0
  -18.6020  -27.2890   22.5370 C   0  0  0  0  0  0  0  0  0  0  0  0
  -21.0910  -27.8160   22.9980 C   0  0  0  0  0  3  0  0  0  0  0  0
  -21.3860  -26.3950   22.4590 C   0  0  0  0  0  2  0  0  0  0  0  0
  -20.4060  -25.9480   21.3720 C   0  0  0  0  0  2  0  0  0  0  0  0
  -18.9700  -25.9580   21.9040 C   0  0  0  0  0  2  0  0  0  0  0  0
  -19.5990  -28.1670   23.0390 C   0  0  0  0  0  0  0  0  0  0  0  0
  -19.2050  -29.4060   23.5880 C   0  0  0  0  0  3  0  0  0  0  0  0
  -17.8470  -29.7680   23.6460 C   0  0  0  0  0  3  0  0  0  0  0  0
  -16.8630  -28.8860   23.1640 C   0  0  0  0  0  3  0  0  0  0  0  0
  -17.2410  -27.6500   22.6120 C   0  0  0  0  0  3  0  0  0  0  0  0
  -25.9740  -32.4200   23.9460 C   0  0  0  0  0  3  0  0  0  0  0  0
  -25.5490  -33.8000   24.2200 N   0  0  0  0  0  0  0  0  0  0  0  0
  -25.8490  -34.8550   23.4510 C   0  0  0  0  0  0  0  0  0  0  0  0
  -26.5780  -34.7740   22.4590 O   0  0  0  0  0  0  0  0  0  0  0  0
  -24.9090  -33.9330   24.9880 H   0  0  0  0  0  0  0  0  0  0  0  0
  -24.0170  -36.5060   22.9670 C   0  0  0  0  0  1  0  0  0  0  0  0
  -25.2430  -36.2150   23.8450 C   0  0  0  0  0  3  0  0  0  0  0  0
  -27.2670  -37.2780   24.7400 C   0  0  0  0  0  1  0  0  0  0  0  0
  -26.2010  -37.3370   23.7450 N   0  0  0  0  0  0  0  0  0  0  0  0
  -25.7220  -38.2280   23.8470 H   0  0  0  0  0  0  0  0  0  0  0  0
  -26.4520  -31.7150   25.2750 C   0  0  1  0  0  0  0  0  0  0  0  0
  -25.3070  -31.4330   26.2740 C   0  0  0  0  0  1  0  0  0  0  0  0
  -27.1470  -30.3700   24.9590 C   0  0  0  0  0  1  0  0  0  0  0  0
  -27.5010  -32.6000   25.9880 C   0  0  0  0  0  1  0  0  0  0  0  0
  1  3  1  0
  2  1  2  0
  2  6  1  0
  3 51  1  0
  3  4  2  0
  4  7  1  0
  5  4  1  0
  5  8  1  0
  6 17  1  0
  6  5  2  0
  9 17  1  0
 10 15  1  0
 11 12  1  0
 11 10  1  0
 13 12  1  0
 13 22  1  0
 13 14  1  0
 15  9  1  0
 15 14  1  0
 16  9  2  0
 17 18  1  0
 19 20  2  0
 20 39  1  0
 21 20  1  0
 21 24  1  0
 22 23  1  0
 22 19  1  0
 23 21  2  0
 24 25  1  0
 25 26  2  0
 27 30  1  0
 27 26  1  0
 28 27  2  0
 29 28  1  0
 29 24  2  0
 30 31  1  0
 31 32  1  0
 32 33  2  0
 34 33  1  0
 34 38  1  0
 35 34  2  0
 36 31  2  0
 36 35  1  0
 37 36  1  0
 39 40  1  0
 40 43  1  0
 40 42  1  0
 41 39  2  0
 44 45  1  0
 44 19  1  0
 46 44  1  0
 47 48  1  0
 47 49  1  0
 48 49  1  0
 49  2  1  0
 51 50  1  0
 52 51  1  0
 52 56  1  0
 53 52  1  0
 54 52  1  0
 56 55  1  0
 56 57  1  0
 58 60  1  0
 58 57  1  0
 59 70  2  0
 60 65  1  0
 61 69  1  0
 61 71  1  0
 62 64  1  0
 63 69  1  0
 64 65  2  0
 64 63  1  0
 66 60  2  0
 67 66  1  0
 67 62  2  0
 68 62  1  0
 68 61  1  0
 69 59  1  0
 71 73  2  0
 72 71  1  0
 74 72  1  0
 75 84  2  0
 75 80  1  0
 76 72  1  0
 76 80  1  0
 77 76  1  0
 78 79  1  0
 78 77  1  0
 79 75  1  0
 80 81  2  0
 81 82  1  0
 83 82  2  0
 84 83  1  0
 85 59  1  0
 85 86  1  0
 85 95  1  0
 86 89  1  0
 87 91  1  0
 87 86  1  0
 88 87  2  0
 91 90  1  0
 93 91  1  0
 93 94  1  0
 93 92  1  0
 95 98  1  1
 95 96  1  0
 97 95  1  0
M  ISO  4   9 100  17 100  57 101  58 101
M  END
>  <TORSDO>  (6) 
F 21

>  <SCORE>  (6) 
-11.876

>  <name>  (6) 
5

>  <ligand_id>  (6) 
5

>  <original_smiles>  (6) 
[H]c1c([H])c([H])c2c(c1[H])C([H])([H])C([H])([H])C([H])([H])C2([H])N([H])C(=O)C1([H])N(C(=O)C([H])(N([H])C(=O)C([H])(N([H])C([H])([H])[H])C([H])([H])[H])C(C([H])([H])[H])(C([H])([H])[H])C([H])([H])[H])C([H])([H])c2c([H])c(OC([H])([H])C([H])(C([H])([H])[H])[N+]([H])([H])C([H])(c3c([H])c(C4([H])C([H])([H])C4([H])[H])c(N([H])C(=O)N4C([H])([H])C([H])([H])C([H])([H])C([H])(n5nc(-c6c([H])c([H])c(Oc7c([H])c([H])c(F)c([H])c7F)c([H])c6[H])c(C(=O)N([H])[H])c5N([H])[H])C4([H])[H])c(C([H])([H])[H])c3C([H])([H])[H])C([H])([H])[H])c([H])c([H])c2C1([H])[H]

>  <smiles>  (6) 
[H]c1c([H])c([H])c2c(c1[H])C([H])([H])C([H])([H])C([H])([H])C2([H])N([H])C(=O)C1([H])N(C(=O)C([H])(N([H])C(=O)C([H])(N([H])C([H])([H])[H])C([H])([H])[H])C(C([H])([H])[H])(C([H])([H])[H])C([H])([H])[H])C([H])([H])c2c([H])c(OC([H])([H])C([H])(C([H])([H])[H])[N+]([H])([H])C([H])(c3c([H])c(C4([H])C([H])([H])C4([H])[H])c(N([H])C(=O)N4C([H])([H])C([H])([H])C([H])([H])C([H])(n5nc(-c6c([H])c([H])c(Oc7c([H])c([H])c(F)c([H])c7F)c([H])c6[H])c(C(=O)N([H])[H])c5N([H])[H])C4([H])[H])c(C([H])([H])[H])c3C([H])([H])[H])C([H])([H])[H])c([H])c([H])c2C1([H])[H]

$$$$
6:0:0
     RDKit          3D

 95104  0  0  1  0  0  0  0  0999 V2000
  -31.2370  -22.6100   18.2920 C   0  0  0  0  0  2  0  0  0  0  0  0
  -31.0260  -22.0970   19.6820 C   0  0  0  0  0  3  0  0  0  0  0  0
  -30.7590  -23.6050   19.3440 C   0  0  1  0  0  0  0  0  0  0  0  0
  -31.7840  -24.6010   19.8810 C   0  0  0  0  0  1  0  0  0  0  0  0
  -30.7010  -19.5800   19.5700 C   0  0  0  0  0  3  0  0  0  0  0  0
  -28.1780  -19.6630   20.7040 C   0  0  0  0  0  3  0  0  0  0  0  0
  -30.1440  -20.8570   19.8680 C   0  0  0  0  0  0  0  0  0  0  0  0
  -30.0500  -18.3400   19.8440 C   0  0  0  0  0  0  0  0  0  0  0  0
  -28.8630  -20.8780   20.4680 C   0  0  0  0  0  0  0  0  0  0  0  0
  -28.7510  -18.3990   20.4150 C   0  0  0  0  0  0  0  0  0  0  0  0
  -28.2200  -22.1750   20.9280 C   0  0  0  0  0  1  0  0  0  0  0  0
  -27.9500  -17.1570   20.7700 C   0  0  0  0  0  1  0  0  0  0  0  0
  -30.8570  -17.0440   19.5320 C   0  0  0  0  0  2  0  0  0  0  0  0
  -31.0830  -14.5580   19.5540 C   0  0  0  0  0  0  0  0  0  0  0  0
  -30.6910  -12.3280   18.5710 C   0  0  0  0  0  2  0  0  0  0  0  0
  -29.6520  -12.4480   17.4370 C   0  0  0  0  0  2  0  0  0  0  0  0
  -28.2200  -12.3420   17.9950 C   0  0  0  0  0  2  0  0  0  0  0  0
  -27.9870  -13.2480   19.2330 C   0  0  0  0  0  3  0  0  0  0  0  0
  -29.1320  -13.1110   20.2620 C   0  0  0  0  0  2  0  0  0  0  0  0
  -30.3970  -13.3800   19.5650 N   0  0  0  0  0  0  0  0  0  0  0  0
  -32.1950  -14.6550   19.0280 O   0  0  0  0  0  0  0  0  0  0  0  0
  -30.4180  -15.6780   19.9390 N   0  0  0  0  0  0  0  0  0  0  0  0
  -29.5050  -15.5730   20.3490 H   0  0  0  0  0  0  0  0  0  0  0  0
  -25.6810  -13.9040   20.1640 C   0  0  0  0  0  0  0  0  0  0  0  0
  -24.6330  -13.1560   20.6270 C   0  0  0  0  0  0  0  0  0  0  0  0
  -25.0570  -11.7930   20.5510 C   0  0  0  0  0  0  0  0  0  0  0  0
  -26.6780  -12.9990   19.8360 N   0  0  0  0  0  0  0  0  0  0  0  0
  -26.3120  -11.7240   20.1280 N   0  0  0  0  0  0  0  0  0  0  0  0
  -24.3190  -10.5480   20.8010 C   0  0  0  0  0  0  0  0  0  0  0  0
  -24.7090   -9.6480   21.8180 C   0  0  0  0  0  3  0  0  0  0  0  0
  -23.9720   -8.4680   22.0520 C   0  0  0  0  0  3  0  0  0  0  0  0
  -22.8300   -8.1770   21.2680 C   0  0  0  0  0  0  0  0  0  0  0  0
  -22.4590   -9.0650   20.2430 C   0  0  0  0  0  3  0  0  0  0  0  0
  -23.1960  -10.2360   20.0080 C   0  0  0  0  0  3  0  0  0  0  0  0
  -22.0680   -7.0420   21.4060 O   0  0  0  0  0  0  0  0  0  0  0  0
  -21.8290   -6.4820   22.6360 C   0  0  0  0  0  0  0  0  0  0  0  0
  -21.2220   -7.2110   23.6810 C   0  0  0  0  0  3  0  0  0  0  0  0
  -20.9300   -6.5760   24.9050 C   0  0  0  0  0  3  0  0  0  0  0  0
  -21.2340   -5.2140   25.0830 C   0  0  0  0  0  0  0  0  0  0  0  0
  -21.8340   -4.4840   24.0410 C   0  0  0  0  0  3  0  0  0  0  0  0
  -22.1260   -5.1160   22.8200 C   0  0  0  0  0  0  0  0  0  0  0  0
  -22.6830   -4.4030   21.8120 F   0  0  0  0  0  0  0  0  0  0  0  0
  -20.9470   -4.6010   26.2550 F   0  0  0  0  0  0  0  0  0  0  0  0
  -23.2790  -13.6650   21.0250 C   0  0  0  0  0  0  0  0  0  0  0  0
  -22.6310  -13.0090   21.9810 N   0  0  0  0  0  0  0  0  0  0  0  0
  -22.8040  -14.6820   20.5180 O   0  0  0  0  0  0  0  0  0  0  0  0
  -23.0290  -12.1890   22.4140 H   0  0  0  0  0  0  0  0  0  0  0  0
  -21.7250  -13.3350   22.2870 H   0  0  0  0  0  0  0  0  0  0  0  0
  -25.8630  -15.2710   19.9710 N   0  0  0  0  0  0  0  0  0  0  0  0
  -25.1230  -15.9420   20.1390 H   0  0  0  0  0  0  0  0  0  0  0  0
  -26.6700  -15.6800   19.5160 H   0  0  0  0  0  0  0  0  0  0  0  0
  -29.3980  -24.9970   17.6590 C   0  0  0  0  0  1  0  0  0  0  0  0
  -29.4140  -24.3350   19.0540 C   0  0  0  0  0  3  0  0  0  0  0  0
  -28.9090  -25.3570   20.1430 C   0  0  0  0  0  2  0  0  0  0  0  0
  -28.9920  -26.7830   19.8270 O   0  0  0  0  0  0  0  0  0  0  0  0
  -24.7440  -31.5400   23.0930 C   0  0  0  0  0  0  0  0  0  0  0  0
  -27.7980  -27.4920   19.8150 C   0  0  0  0  0  0  0  0  0  0  0  0
  -23.7030  -30.1870   21.3060 C   0  0  0  0  0  3  0  0  0  0  0  0
  -25.3120  -28.8680   19.8300 C   0  0  0  0  0  0  0  0  0  0  0  0
  -26.2060  -30.7220   21.2420 C   0  0  0  0  0  2  0  0  0  0  0  0
  -26.4160  -29.4140   20.4980 C   0  0  0  0  0  0  0  0  0  0  0  0
  -27.6650  -28.7390   20.4790 C   0  0  0  0  0  3  0  0  0  0  0  0
  -26.6740  -26.9770   19.1330 C   0  0  0  0  0  3  0  0  0  0  0  0
  -25.4380  -27.6500   19.1420 C   0  0  0  0  0  3  0  0  0  0  0  0
  -24.0100  -29.6380   19.8890 C   0  0  0  0  0  2  0  0  0  0  0  0
  -24.9000  -30.8280   21.9400 N   0  0  0  0  0  0  0  0  0  0  0  0
  -23.6250  -31.6980   23.6040 O   0  0  0  0  0  0  0  0  0  0  0  0
  -23.0920  -29.0520   22.1610 C   0  0  0  0  0  0  0  0  0  0  0  0
  -21.7820  -28.8100   21.9890 N   0  0  0  0  0  0  0  0  0  0  0  0
  -23.7940  -28.3970   22.9360 O   0  0  0  0  0  0  0  0  0  0  0  0
  -21.2740  -29.3960   21.3440 H   0  0  0  0  0  0  0  0  0  0  0  0
  -18.4610  -27.4280   22.3500 C   0  0  0  0  0  0  0  0  0  0  0  0
  -21.0060  -27.7660   22.6580 C   0  0  0  0  0  3  0  0  0  0  0  0
  -21.1690  -26.4050   21.9420 C   0  0  0  0  0  2  0  0  0  0  0  0
  -20.0830  -26.1390   20.8950 C   0  0  0  0  0  2  0  0  0  0  0  0
  -18.6950  -26.1600   21.5440 C   0  0  0  0  0  2  0  0  0  0  0  0
  -19.5470  -28.1900   22.8580 C   0  0  0  0  0  0  0  0  0  0  0  0
  -19.2750  -29.3790   23.5690 C   0  0  0  0  0  3  0  0  0  0  0  0
  -17.9500  -29.8070   23.7770 C   0  0  0  0  0  3  0  0  0  0  0  0
  -16.8790  -29.0410   23.2850 C   0  0  0  0  0  3  0  0  0  0  0  0
  -17.1340  -27.8540   22.5760 C   0  0  0  0  0  3  0  0  0  0  0  0
  -25.9590  -32.2080   23.8090 C   0  0  0  0  0  3  0  0  0  0  0  0
  -26.4540  -31.4070   25.0760 C   0  0  1  0  0  0  0  0  0  0  0  0
  -25.3230  -31.0620   26.0710 C   0  0  0  0  0  1  0  0  0  0  0  0
  -27.1350  -30.0830   24.6530 C   0  0  0  0  0  1  0  0  0  0  0  0
  -27.5220  -32.2320   25.8320 C   0  0  0  0  0  1  0  0  0  0  0  0
  -25.5550  -33.5700   24.1840 N   0  0  0  0  0  0  0  0  0  0  0  0
  -25.8570  -34.6720   23.4840 C   0  0  0  0  0  0  0  0  0  0  0  0
  -26.5720  -34.6520   22.4790 O   0  0  0  0  0  0  0  0  0  0  0  0
  -24.9150  -33.6570   24.9600 H   0  0  0  0  0  0  0  0  0  0  0  0
  -24.0270  -36.3650   23.1490 C   0  0  0  0  0  1  0  0  0  0  0  0
  -25.2710  -36.0080   23.9790 C   0  0  0  0  0  3  0  0  0  0  0  0
  -27.3180  -36.9930   24.9100 C   0  0  0  0  0  1  0  0  0  0  0  0
  -26.2380  -37.1260   23.9360 N   0  0  0  0  0  0  0  0  0  0  0  0
  -25.7700  -38.0130   24.1010 H   0  0  0  0  0  0  0  0  0  0  0  0
  1  3  1  0
  1  2  1  0
  2  7  1  0
  3  2  1  0
  3  4  1  1
  5  8  2  0
  5  7  1  0
  7  9  2  0
  8 10  1  0
  9  6  1  0
  9 11  1  0
 10  6  2  0
 10 12  1  0
 13  8  1  0
 13 22  1  0
 14 20  1  0
 14 22  1  0
 15 20  1  0
 16 17  1  0
 16 15  1  0
 18 17  1  0
 18 27  1  0
 18 19  1  0
 20 19  1  0
 21 14  2  0
 22 23  1  0
 24 25  2  0
 25 44  1  0
 26 25  1  0
 26 29  1  0
 27 28  1  0
 27 24  1  0
 28 26  2  0
 29 30  1  0
 30 31  2  0
 32 35  1  0
 32 31  1  0
 33 32  2  0
 34 33  1  0
 34 29  2  0
 35 36  1  0
 36 41  2  0
 36 37  1  0
 37 38  2  0
 38 39  1  0
 39 43  1  0
 40 39  2  0
 41 40  1  0
 42 41  1  0
 44 45  1  0
 45 48  1  0
 45 47  1  0
 46 44  2  0
 49 50  1  0
 49 24  1  0
 51 49  1  0
 53 52  1  0
 53  3  1  0
 53 54  1  0
 55 54  1  0
 56 67  2  0
 57 55  1  0
 57 62  1  0
 58 66  1  0
 58 68  1  0
 59 65  1  0
 59 61  1  0
 60 66  1  0
 61 60  1  0
 62 61  2  0
 63 64  1  0
 63 57  2  0
 64 59  2  0
 65 58  1  0
 66 56  1  0
 68 70  2  0
 69 68  1  0
 71 69  1  0
 72 81  2  0
 72 77  1  0
 73 69  1  0
 73 77  1  0
 74 73  1  0
 75 76  1  0
 75 74  1  0
 76 72  1  0
 77 78  2  0
 78 79  1  0
 80 79  2  0
 81 80  1  0
 82 56  1  0
 82 87  1  0
 82 83  1  0
 83 86  1  1
 83 84  1  0
 85 83  1  0
 87 90  1  0
 88 92  1  0
 88 87  1  0
 89 88  2  0
 92 91  1  0
 94 92  1  0
 94 95  1  0
 94 93  1  0
M  ISO  4  14 100  22 100  54 101  55 101
M  END
>  <TORSDO>  (7) 
F 20

>  <SCORE>  (7) 
-11.573

>  <name>  (7) 
6

>  <ligand_id>  (7) 
6

>  <original_smiles>  (7) 
[H]c1c([H])c([H])c2c(c1[H])C([H])([H])C([H])([H])C([H])([H])C2([H])N([H])C(=O)C1([H])N(C(=O)C([H])(N([H])C(=O)C([H])(N([H])C([H])([H])[H])C([H])([H])[H])C(C([H])([H])[H])(C([H])([H])[H])C([H])([H])[H])C([H])([H])c2c([H])c(OC([H])([H])C([H])(C([H])([H])[H])C3(C([H])([H])[H])C([H])([H])C3([H])c3c([H])c(C([H])([H])N([H])C(=O)N4C([H])([H])C([H])([H])C([H])([H])C([H])(n5nc(-c6c([H])c([H])c(Oc7c([H])c([H])c(F)c([H])c7F)c([H])c6[H])c(C(=O)N([H])[H])c5N([H])[H])C4([H])[H])c(C([H])([H])[H])c([H])c3C([H])([H])[H])c([H])c([H])c2C1([H])[H]

>  <smiles>  (7) 
[H]c1c([H])c([H])c2c(c1[H])C([H])([H])C([H])([H])C([H])([H])C2([H])N([H])C(=O)C1([H])N(C(=O)C([H])(N([H])C(=O)C([H])(N([H])C([H])([H])[H])C([H])([H])[H])C(C([H])([H])[H])(C([H])([H])[H])C([H])([H])[H])C([H])([H])c2c([H])c(OC([H])([H])C([H])(C([H])([H])[H])C3(C([H])([H])[H])C([H])([H])C3([H])c3c([H])c(C([H])([H])N([H])C(=O)N4C([H])([H])C([H])([H])C([H])([H])C([H])(n5nc(-c6c([H])c([H])c(Oc7c([H])c([H])c(F)c([H])c7F)c([H])c6[H])c(C(=O)N([H])[H])c5N([H])[H])C4([H])[H])c(C([H])([H])[H])c([H])c3C([H])([H])[H])c([H])c([H])c2C1([H])[H]

$$$$
7:0:0
     RDKit          3D

 97107  0  0  1  0  0  0  0  0999 V2000
  -29.7320  -21.4420   21.2900 C   0  0  0  0  0  3  0  0  0  0  0  0
  -29.8060  -20.0390   19.3380 C   0  0  0  0  0  3  0  0  0  0  0  0
  -29.5110  -21.3320   19.9120 C   0  0  0  0  0  0  0  0  0  0  0  0
  -30.6130  -19.1220   21.4760 C   0  0  0  0  0  0  0  0  0  0  0  0
  -30.2460  -20.3800   22.0630 C   0  0  0  0  0  0  0  0  0  0  0  0
  -30.3450  -18.9160   20.0850 C   0  0  0  0  0  0  0  0  0  0  0  0
  -30.3650  -20.6800   23.5450 C   0  0  0  0  0  1  0  0  0  0  0  0
  -27.3920  -22.7280   19.4930 C   0  0  0  0  0  2  0  0  0  0  0  0
  -27.0290  -24.2100   19.3020 C   0  0  0  0  0  2  0  0  0  0  0  0
  -28.8700  -22.5670   19.1430 C   0  0  0  0  0  3  0  0  0  0  0  0
  -29.4060  -24.0810   19.3070 C   0  0  0  0  0  3  0  0  0  0  0  0
  -28.2340  -25.0770   19.7680 C   0  0  2  0  0  0  0  0  0  0  0  0
  -30.0090  -24.5880   17.9880 C   0  0  0  0  0  1  0  0  0  0  0  0
  -28.3160  -25.1480   21.3160 C   0  0  0  0  0  1  0  0  0  0  0  0
  -28.2570  -26.5120   19.2540 O   0  0  0  0  0  0  0  0  0  0  0  0
  -24.5170  -31.5330   22.9460 C   0  0  0  0  0  0  0  0  0  0  0  0
  -27.1170  -27.3540   19.3400 C   0  0  0  0  0  0  0  0  0  0  0  0
  -23.2650  -30.1590   21.3290 C   0  0  0  0  0  3  0  0  0  0  0  0
  -24.6720  -28.8320   19.6670 C   0  0  0  0  0  0  0  0  0  0  0  0
  -25.7550  -30.6650   20.9500 C   0  0  0  0  0  2  0  0  0  0  0  0
  -25.8640  -29.3440   20.1950 C   0  0  0  0  0  0  0  0  0  0  0  0
  -27.0900  -28.6170   20.0280 C   0  0  0  0  0  3  0  0  0  0  0  0
  -25.8960  -26.9490   18.7600 C   0  0  0  0  0  3  0  0  0  0  0  0
  -24.6910  -27.6400   18.9400 C   0  0  0  0  0  3  0  0  0  0  0  0
  -23.3940  -29.6110   19.8870 C   0  0  0  0  0  2  0  0  0  0  0  0
  -24.5350  -30.8030   21.7960 N   0  0  0  0  0  0  0  0  0  0  0  0
  -23.4730  -31.6920   23.5950 O   0  0  0  0  0  0  0  0  0  0  0  0
  -22.7710  -29.0270   22.2630 C   0  0  0  0  0  0  0  0  0  0  0  0
  -21.4900  -28.6400   22.1240 N   0  0  0  0  0  0  0  0  0  0  0  0
  -23.5360  -28.5050   23.0780 O   0  0  0  0  0  0  0  0  0  0  0  0
  -20.9230  -29.1230   21.4410 H   0  0  0  0  0  0  0  0  0  0  0  0
  -18.4210  -26.7520   22.4340 C   0  0  0  0  0  0  0  0  0  0  0  0
  -20.8320  -27.5730   22.8770 C   0  0  0  0  0  3  0  0  0  0  0  0
  -21.2840  -26.1790   22.3860 C   0  0  0  0  0  2  0  0  0  0  0  0
  -20.3680  -25.5910   21.3080 C   0  0  0  0  0  2  0  0  0  0  0  0
  -18.9380  -25.4520   21.8390 C   0  0  0  0  0  2  0  0  0  0  0  0
  -19.3090  -27.7530   22.9050 C   0  0  0  0  0  0  0  0  0  0  0  0
  -18.7760  -28.9570   23.4170 C   0  0  0  0  0  3  0  0  0  0  0  0
  -17.3840  -29.1650   23.4590 C   0  0  0  0  0  3  0  0  0  0  0  0
  -16.5090  -28.1660   23.0040 C   0  0  0  0  0  3  0  0  0  0  0  0
  -17.0280  -26.9590   22.4980 C   0  0  0  0  0  3  0  0  0  0  0  0
  -25.8060  -32.2250   23.4900 C   0  0  0  0  0  3  0  0  0  0  0  0
  -26.4970  -31.4140   24.6550 C   0  0  1  0  0  0  0  0  0  0  0  0
  -25.5300  -31.0130   25.7930 C   0  0  0  0  0  1  0  0  0  0  0  0
  -27.1480  -30.1190   24.1150 C   0  0  0  0  0  1  0  0  0  0  0  0
  -27.6380  -32.2550   25.2730 C   0  0  0  0  0  1  0  0  0  0  0  0
  -25.4280  -33.5680   23.9520 N   0  0  0  0  0  0  0  0  0  0  0  0
  -25.7050  -34.7040   23.2960 C   0  0  0  0  0  0  0  0  0  0  0  0
  -26.3780  -34.7310   22.2620 O   0  0  0  0  0  0  0  0  0  0  0  0
  -24.8320  -33.6160   24.7640 H   0  0  0  0  0  0  0  0  0  0  0  0
  -23.9100  -36.4530   23.0810 C   0  0  0  0  0  1  0  0  0  0  0  0
  -25.1480  -36.0170   23.8810 C   0  0  0  0  0  3  0  0  0  0  0  0
  -27.2270  -36.8910   24.8520 C   0  0  0  0  0  1  0  0  0  0  0  0
  -26.1380  -37.1160   23.9060 N   0  0  0  0  0  0  0  0  0  0  0  0
  -25.6920  -37.9980   24.1420 H   0  0  0  0  0  0  0  0  0  0  0  0
  -30.5500  -17.0470   23.1040 C   0  0  0  0  0  2  0  0  0  0  0  0
  -31.6620  -17.8670   23.7100 C   0  0  0  0  0  2  0  0  0  0  0  0
  -31.3300  -18.0060   22.2320 C   0  0  0  0  0  3  0  0  0  0  0  0
  -30.7410  -17.5670   19.3210 C   0  0  0  0  0  2  0  0  0  0  0  0
  -31.0610  -15.0060   19.5270 C   0  0  0  0  0  0  0  0  0  0  0  0
  -30.7870  -12.6530   18.7410 C   0  0  0  0  0  2  0  0  0  0  0  0
  -29.7570  -12.6040   17.5920 C   0  0  0  0  0  2  0  0  0  0  0  0
  -28.3260  -12.4780   18.1470 C   0  0  0  0  0  2  0  0  0  0  0  0
  -28.0410  -13.4860   19.2920 C   0  0  0  0  0  3  0  0  0  0  0  0
  -29.1780  -13.5000   20.3360 C   0  0  0  0  0  2  0  0  0  0  0  0
  -30.4290  -13.7890   19.6240 N   0  0  0  0  0  0  0  0  0  0  0  0
  -32.2040  -15.0700   19.0620 O   0  0  0  0  0  0  0  0  0  0  0  0
  -30.3350  -16.1600   19.7430 N   0  0  0  0  0  0  0  0  0  0  0  0
  -29.3980  -16.0470   20.0980 H   0  0  0  0  0  0  0  0  0  0  0  0
  -25.7810  -14.1700   20.2950 C   0  0  0  0  0  0  0  0  0  0  0  0
  -24.7110  -13.4360   20.7320 C   0  0  0  0  0  0  0  0  0  0  0  0
  -25.0850  -12.0650   20.5870 C   0  0  0  0  0  0  0  0  0  0  0  0
  -26.7390  -13.2460   19.9070 N   0  0  0  0  0  0  0  0  0  0  0  0
  -26.3330  -11.9730   20.1440 N   0  0  0  0  0  0  0  0  0  0  0  0
  -24.3100  -10.8350   20.7910 C   0  0  0  0  0  0  0  0  0  0  0  0
  -24.7040   -9.8610   21.7360 C   0  0  0  0  0  3  0  0  0  0  0  0
  -23.9330   -8.6950   21.9260 C   0  0  0  0  0  3  0  0  0  0  0  0
  -22.7530   -8.4930   21.1720 C   0  0  0  0  0  0  0  0  0  0  0  0
  -22.3790   -9.4520   20.2140 C   0  0  0  0  0  3  0  0  0  0  0  0
  -23.1510  -10.6110   20.0220 C   0  0  0  0  0  3  0  0  0  0  0  0
  -21.9530   -7.3800   21.2710 O   0  0  0  0  0  0  0  0  0  0  0  0
  -21.7410   -6.7500   22.4700 C   0  0  0  0  0  0  0  0  0  0  0  0
  -21.1950   -7.4280   23.5820 C   0  0  0  0  0  3  0  0  0  0  0  0
  -20.9350   -6.7250   24.7760 C   0  0  0  0  0  3  0  0  0  0  0  0
  -21.2080   -5.3460   24.8530 C   0  0  0  0  0  0  0  0  0  0  0  0
  -21.7440   -4.6680   23.7440 C   0  0  0  0  0  3  0  0  0  0  0  0
  -22.0090   -5.3700   22.5550 C   0  0  0  0  0  0  0  0  0  0  0  0
  -22.5090   -4.7090   21.4820 F   0  0  0  0  0  0  0  0  0  0  0  0
  -20.9510   -4.6660   25.9960 F   0  0  0  0  0  0  0  0  0  0  0  0
  -23.3820  -13.9730   21.1750 C   0  0  0  0  0  0  0  0  0  0  0  0
  -22.7190  -13.2830   22.0990 N   0  0  0  0  0  0  0  0  0  0  0  0
  -22.9430  -15.0360   20.7360 O   0  0  0  0  0  0  0  0  0  0  0  0
  -23.0880  -12.4200   22.4710 H   0  0  0  0  0  0  0  0  0  0  0  0
  -21.8270  -13.6160   22.4360 H   0  0  0  0  0  0  0  0  0  0  0  0
  -26.0140  -15.5360   20.1700 N   0  0  0  0  0  0  0  0  0  0  0  0
  -25.2990  -16.2250   20.3710 H   0  0  0  0  0  0  0  0  0  0  0  0
  -26.8440  -15.9400   19.7550 H   0  0  0  0  0  0  0  0  0  0  0  0
  1  5  1  0
  2  3  1  0
  2  6  2  0
  3  1  2  0
  4  5  2  0
  4 58  1  0
  5  7  1  0
  6  4  1  0
  9  8  1  0
  9 12  1  0
 10 11  1  0
 10  8  1  0
 10  3  1  0
 11 13  1  0
 11 12  1  0
 12 14  1  1
 15 17  1  0
 15 12  1  0
 16 27  2  0
 17 22  1  0
 18 26  1  0
 18 28  1  0
 19 25  1  0
 19 21  1  0
 20 26  1  0
 21 20  1  0
 22 21  2  0
 23 24  1  0
 23 17  2  0
 24 19  2  0
 25 18  1  0
 26 16  1  0
 28 30  2  0
 29 28  1  0
 31 29  1  0
 32 41  2  0
 32 37  1  0
 33 29  1  0
 33 37  1  0
 34 33  1  0
 35 36  1  0
 35 34  1  0
 36 32  1  0
 37 38  2  0
 38 39  1  0
 40 39  2  0
 41 40  1  0
 42 16  1  0
 42 47  1  0
 42 43  1  0
 43 46  1  1
 43 44  1  0
 45 43  1  0
 47 50  1  0
 48 52  1  0
 48 47  1  0
 49 48  2  0
 52 51  1  0
 52 54  1  0
 54 55  1  0
 54 53  1  0
 56 57  1  0
 58 56  1  0
 58 57  1  0
 59 68  1  0
 59  6  1  0
 60 66  1  0
 60 68  1  0
 61 66  1  0
 62 63  1  0
 62 61  1  0
 64 63  1  0
 64 73  1  0
 64 65  1  0
 66 65  1  0
 67 60  2  0
 68 69  1  0
 70 71  2  0
 71 90  1  0
 72 71  1  0
 72 75  1  0
 73 74  1  0
 73 70  1  0
 74 72  2  0
 75 76  1  0
 76 77  2  0
 78 81  1  0
 78 77  1  0
 79 78  2  0
 80 79  1  0
 80 75  2  0
 81 82  1  0
 82 87  2  0
 82 83  1  0
 83 84  2  0
 84 85  1  0
 85 89  1  0
 86 85  2  0
 87 86  1  0
 88 87  1  0
 90 91  1  0
 91 94  1  0
 91 93  1  0
 92 90  2  0
 95 70  1  0
 95 96  1  0
 97 95  1  0
M  ISO  4  12 101  15 101  60 100  68 100
M  END
>  <TORSDO>  (8) 
F 19

>  <SCORE>  (8) 
-10.433

>  <name>  (8) 
7

>  <ligand_id>  (8) 
7

>  <original_smiles>  (8) 
[H]c1c([H])c([H])c2c(c1[H])C([H])([H])C([H])([H])C([H])([H])C2([H])N([H])C(=O)C1([H])N(C(=O)C([H])(N([H])C(=O)C([H])(N([H])C([H])([H])[H])C([H])([H])[H])C(C([H])([H])[H])(C([H])([H])[H])C([H])([H])[H])C([H])([H])c2c([H])c(OC3(C([H])([H])[H])C([H])([H])C([H])([H])C([H])(c4c([H])c(C([H])([H])[H])c(C5([H])C([H])([H])C5([H])[H])c(C([H])([H])N([H])C(=O)N5C([H])([H])C([H])([H])C([H])([H])C([H])(n6nc(-c7c([H])c([H])c(Oc8c([H])c([H])c(F)c([H])c8F)c([H])c7[H])c(C(=O)N([H])[H])c6N([H])[H])C5([H])[H])c4[H])C3([H])C([H])([H])[H])c([H])c([H])c2C1([H])[H]

>  <smiles>  (8) 
[H]c1c([H])c([H])c2c(c1[H])C([H])([H])C([H])([H])C([H])([H])C2([H])N([H])C(=O)C1([H])N(C(=O)C([H])(N([H])C(=O)C([H])(N([H])C([H])([H])[H])C([H])([H])[H])C(C([H])([H])[H])(C([H])([H])[H])C([H])([H])[H])C([H])([H])c2c([H])c(OC3(C([H])([H])[H])C([H])([H])C([H])([H])C([H])(c4c([H])c(C([H])([H])[H])c(C5([H])C([H])([H])C5([H])[H])c(C([H])([H])N([H])C(=O)N5C([H])([H])C([H])([H])C([H])([H])C([H])(n6nc(-c7c([H])c([H])c(Oc8c([H])c([H])c(F)c([H])c8F)c([H])c7[H])c(C(=O)N([H])[H])c6N([H])[H])C5([H])[H])c4[H])C3([H])C([H])([H])[H])c([H])c([H])c2C1([H])[H]

$$$$
8:0:0
     RDKit          3D

 95105  0  0  1  0  0  0  0  0999 V2000
  -29.7030  -21.7240   19.7410 C   0  0  0  0  0  0  0  0  0  0  0  0
  -29.3140  -23.2540   19.9540 C   0  0  0  0  0  0  0  0  0  0  0  0
  -30.7070  -21.8910   18.7890 C   0  0  0  0  0  0  0  0  0  0  0  0
  -30.5200  -23.8920   19.7450 C   0  0  0  0  0  0  0  0  0  0  0  0
  -30.9740  -25.2760   20.1260 C   0  0  0  0  0  1  0  0  0  0  0  0
  -31.3260  -23.1100   18.9550 N   0  0  0  0  0  0  0  0  0  0  0  0
  -30.4950  -15.1890   20.1110 C   0  0  0  0  0  0  0  0  0  0  0  0
  -30.3380  -12.8040   19.1680 C   0  0  0  0  0  2  0  0  0  0  0  0
  -29.3670  -12.6840   17.9710 C   0  0  0  0  0  2  0  0  0  0  0  0
  -27.9330  -12.4330   18.4660 C   0  0  0  0  0  2  0  0  0  0  0  0
  -27.5490  -13.3620   19.6470 C   0  0  0  0  0  3  0  0  0  0  0  0
  -28.6480  -13.4570   20.7250 C   0  0  0  0  0  2  0  0  0  0  0  0
  -29.8600  -13.9280   20.0440 N   0  0  0  0  0  0  0  0  0  0  0  0
  -31.7080  -15.1380   19.8590 O   0  0  0  0  0  0  0  0  0  0  0  0
  -29.9740  -19.1570   21.3390 C   0  0  0  0  0  3  0  0  0  0  0  0
  -28.5950  -18.8840   19.4020 C   0  0  0  0  0  3  0  0  0  0  0  0
  -30.5550  -17.6180   21.1160 C   0  0  0  0  0  2  0  0  0  0  0  0
  -29.1520  -17.3210   19.2280 C   0  0  0  0  0  3  0  0  0  0  0  0
  -29.5130  -20.0050   20.0760 C   0  0  0  0  0  0  0  0  0  0  0  0
  -29.8540  -16.5010   20.3240 N   0  0  0  0  0  0  0  0  0  0  0  0
  -25.2160  -13.9120   20.5140 C   0  0  0  0  0  0  0  0  0  0  0  0
  -24.1670  -13.1280   20.9070 C   0  0  0  0  0  0  0  0  0  0  0  0
  -24.6280  -11.7780   20.8260 C   0  0  0  0  0  0  0  0  0  0  0  0
  -26.2430  -13.0390   20.2070 N   0  0  0  0  0  0  0  0  0  0  0  0
  -25.9060  -11.7480   20.4610 N   0  0  0  0  0  0  0  0  0  0  0  0
  -23.9070  -10.5120   21.0170 C   0  0  0  0  0  0  0  0  0  0  0  0
  -24.3470   -9.5400   21.9410 C   0  0  0  0  0  3  0  0  0  0  0  0
  -23.6230   -8.3420   22.1210 C   0  0  0  0  0  3  0  0  0  0  0  0
  -22.4430   -8.1080   21.3760 C   0  0  0  0  0  0  0  0  0  0  0  0
  -22.0200   -9.0680   20.4400 C   0  0  0  0  0  3  0  0  0  0  0  0
  -22.7450  -10.2570   20.2590 C   0  0  0  0  0  3  0  0  0  0  0  0
  -21.6890   -6.9620   21.4660 O   0  0  0  0  0  0  0  0  0  0  0  0
  -21.6210   -6.2330   22.6250 C   0  0  0  0  0  0  0  0  0  0  0  0
  -21.1330   -6.7900   23.8280 C   0  0  0  0  0  3  0  0  0  0  0  0
  -21.0160   -5.9860   24.9790 C   0  0  0  0  0  3  0  0  0  0  0  0
  -21.3760   -4.6260   24.9290 C   0  0  0  0  0  0  0  0  0  0  0  0
  -21.8560   -4.0680   23.7310 C   0  0  0  0  0  3  0  0  0  0  0  0
  -21.9750   -4.8690   22.5830 C   0  0  0  0  0  0  0  0  0  0  0  0
  -22.4180   -4.3220   21.4260 F   0  0  0  0  0  0  0  0  0  0  0  0
  -21.2570   -3.8520   26.0330 F   0  0  0  0  0  0  0  0  0  0  0  0
  -22.7830  -13.6010   21.2420 C   0  0  0  0  0  0  0  0  0  0  0  0
  -22.0840  -12.8840   22.1130 N   0  0  0  0  0  0  0  0  0  0  0  0
  -22.3330  -14.6430   20.7670 O   0  0  0  0  0  0  0  0  0  0  0  0
  -22.4630  -12.0400   22.5190 H   0  0  0  0  0  0  0  0  0  0  0  0
  -21.1550  -13.1820   22.3770 H   0  0  0  0  0  0  0  0  0  0  0  0
  -25.3770  -15.2860   20.3640 N   0  0  0  0  0  0  0  0  0  0  0  0
  -24.6240  -15.9440   20.5340 H   0  0  0  0  0  0  0  0  0  0  0  0
  -26.2290  -15.7320   20.0470 H   0  0  0  0  0  0  0  0  0  0  0  0
  -31.3410  -21.2560   16.3030 C   0  0  0  0  0  2  0  0  0  0  0  0
  -30.4480  -20.1580   16.8090 C   0  0  0  0  0  2  0  0  0  0  0  0
  -31.3090  -20.9340   17.7820 C   0  0  0  0  0  3  0  0  0  0  0  0
  -32.5120  -24.5070   17.2280 C   0  0  0  0  0  1  0  0  0  0  0  0
  -32.6270  -23.5020   18.3860 C   0  0  0  0  0  2  0  0  0  0  0  0
  -28.1020  -24.4080   20.3440 C   0  0  0  0  0  2  0  0  0  0  0  0
  -28.2620  -26.0230   20.2470 O   0  0  0  0  0  0  0  0  0  0  0  0
  -24.5890  -31.8650   23.1840 C   0  0  0  0  0  0  0  0  0  0  0  0
  -27.2020  -27.0460   20.2150 C   0  0  0  0  0  0  0  0  0  0  0  0
  -23.4120  -30.4530   21.5450 C   0  0  0  0  0  3  0  0  0  0  0  0
  -24.8790  -28.8550   20.1460 C   0  0  0  0  0  0  0  0  0  0  0  0
  -25.9730  -30.6990   21.4080 C   0  0  0  0  0  2  0  0  0  0  0  0
  -26.0570  -29.2910   20.7640 C   0  0  0  0  0  0  0  0  0  0  0  0
  -27.2170  -28.4070   20.7710 C   0  0  0  0  0  3  0  0  0  0  0  0
  -25.9910  -26.7370   19.5590 C   0  0  0  0  0  3  0  0  0  0  0  0
  -24.8660  -27.5960   19.5250 C   0  0  0  0  0  3  0  0  0  0  0  0
  -23.6520  -29.7610   20.1750 C   0  0  0  0  0  2  0  0  0  0  0  0
  -24.6790  -31.0310   22.1000 N   0  0  0  0  0  0  0  0  0  0  0  0
  -23.4950  -32.1490   23.6980 O   0  0  0  0  0  0  0  0  0  0  0  0
  -22.7220  -29.4550   22.5110 C   0  0  0  0  0  0  0  0  0  0  0  0
  -21.3940  -29.2840   22.3780 N   0  0  0  0  0  0  0  0  0  0  0  0
  -23.3860  -28.8360   23.3460 O   0  0  0  0  0  0  0  0  0  0  0  0
  -20.9120  -29.8340   21.6810 H   0  0  0  0  0  0  0  0  0  0  0  0
  -18.0080  -28.0940   22.8930 C   0  0  0  0  0  0  0  0  0  0  0  0
  -20.5690  -28.3470   23.1480 C   0  0  0  0  0  3  0  0  0  0  0  0
  -20.6620  -26.9160   22.5680 C   0  0  0  0  0  2  0  0  0  0  0  0
  -19.5550  -26.6020   21.5560 C   0  0  0  0  0  2  0  0  0  0  0  0
  -18.1760  -26.7480   22.2070 C   0  0  0  0  0  2  0  0  0  0  0  0
  -19.1300  -28.8510   23.3200 C   0  0  0  0  0  0  0  0  0  0  0  0
  -18.9160  -30.1090   23.9240 C   0  0  0  0  0  3  0  0  0  0  0  0
  -17.6130  -30.6100   24.1030 C   0  0  0  0  0  3  0  0  0  0  0  0
  -16.5050  -29.8500   23.6900 C   0  0  0  0  0  3  0  0  0  0  0  0
  -16.7030  -28.5940   23.0910 C   0  0  0  0  0  3  0  0  0  0  0  0
  -25.8530  -32.5150   23.8220 C   0  0  0  0  0  3  0  0  0  0  0  0
  -26.3520  -31.7610   25.1160 C   0  0  1  0  0  0  0  0  0  0  0  0
  -25.2420  -31.5300   26.1700 C   0  0  0  0  0  1  0  0  0  0  0  0
  -26.9480  -30.3800   24.7560 C   0  0  0  0  0  1  0  0  0  0  0  0
  -27.4880  -32.5670   25.7890 C   0  0  0  0  0  1  0  0  0  0  0  0
  -25.5280  -33.9150   24.1440 N   0  0  0  0  0  0  0  0  0  0  0  0
  -25.8670  -34.9740   23.3960 C   0  0  0  0  0  0  0  0  0  0  0  0
  -26.5500  -34.8740   22.3730 O   0  0  0  0  0  0  0  0  0  0  0  0
  -24.9200  -34.0650   24.9360 H   0  0  0  0  0  0  0  0  0  0  0  0
  -24.1490  -36.7750   23.0170 C   0  0  0  0  0  1  0  0  0  0  0  0
  -25.3730  -36.3620   23.8500 C   0  0  0  0  0  3  0  0  0  0  0  0
  -27.4870  -37.2480   24.7330 C   0  0  0  0  0  1  0  0  0  0  0  0
  -26.4090  -37.4150   23.7630 N   0  0  0  0  0  0  0  0  0  0  0  0
  -25.9990  -38.3360   23.9000 H   0  0  0  0  0  0  0  0  0  0  0  0
  1  2  1  0
  1 19  1  0
  2 54  1  0
  3  6  1  0
  3  1  2  0
  4  2  2  0
  4  5  1  0
  6  4  1  0
  7 20  1  0
  8 13  1  0
  9 10  1  0
  9  8  1  0
 11 10  1  0
 11 24  1  0
 11 12  1  0
 13  7  1  0
 13 12  1  0
 14  7  2  0
 16 19  1  0
 17 15  1  0
 18 16  2  0
 18 20  1  0
 19 15  2  0
 20 17  1  0
 21 22  2  0
 22 41  1  0
 23 22  1  0
 23 26  1  0
 24 25  1  0
 24 21  1  0
 25 23  2  0
 26 27  1  0
 27 28  2  0
 29 32  1  0
 29 28  1  0
 30 29  2  0
 31 30  1  0
 31 26  2  0
 32 33  1  0
 33 34  1  0
 34 35  2  0
 36 35  1  0
 36 40  1  0
 37 36  2  0
 38 33  2  0
 38 37  1  0
 39 38  1  0
 41 42  1  0
 42 45  1  0
 42 44  1  0
 43 41  2  0
 46 21  1  0
 46 47  1  0
 48 46  1  0
 49 50  1  0
 49 51  1  0
 50 51  1  0
 51  3  1  0
 52 53  1  0
 53  6  1  0
 55 54  1  0
 56 67  2  0
 57 55  1  0
 57 62  1  0
 58 66  1  0
 58 68  1  0
 59 65  1  0
 59 61  1  0
 60 66  1  0
 61 62  2  0
 61 60  1  0
 63 57  2  0
 64 63  1  0
 64 59  2  0
 65 58  1  0
 66 56  1  0
 68 70  2  0
 69 68  1  0
 71 69  1  0
 72 81  2  0
 72 77  1  0
 73 69  1  0
 73 77  1  0
 74 73  1  0
 75 76  1  0
 75 74  1  0
 76 72  1  0
 77 78  2  0
 78 79  1  0
 80 79  2  0
 81 80  1  0
 82 56  1  0
 82 87  1  0
 82 83  1  0
 83 86  1  1
 83 84  1  0
 85 83  1  0
 87 90  1  0
 88 92  1  0
 88 87  1  0
 89 88  2  0
 92 91  1  0
 94 92  1  0
 94 95  1  0
 94 93  1  0
M  ISO  4   7 100  20 100  54 101  55 101
M  END
>  <TORSDO>  (9) 
F 19

>  <SCORE>  (9) 
-15.336

>  <name>  (9) 
8

>  <ligand_id>  (9) 
8

>  <original_smiles>  (9) 
[H]c1c([H])c([H])c2c(c1[H])C([H])([H])C([H])([H])C([H])([H])C2([H])N([H])C(=O)C1([H])N(C(=O)C([H])(N([H])C(=O)C([H])(N([H])C([H])([H])[H])C([H])([H])[H])C(C([H])([H])[H])(C([H])([H])[H])C([H])([H])[H])C([H])([H])c2c([H])c(OC([H])([H])c3c(C4([H])C([H])([H])C([H])([H])N(C(=O)N5C([H])([H])C([H])([H])C([H])([H])C([H])(n6nc(-c7c([H])c([H])c(Oc8c([H])c([H])c(F)c([H])c8F)c([H])c7[H])c(C(=O)N([H])[H])c6N([H])[H])C5([H])[H])C([H])([H])C4([H])[H])c(C4([H])C([H])([H])C4([H])[H])n(C([H])([H])C([H])([H])[H])c3C([H])([H])[H])c([H])c([H])c2C1([H])[H]

>  <smiles>  (9) 
[H]c1c([H])c([H])c2c(c1[H])C([H])([H])C([H])([H])C([H])([H])C2([H])N([H])C(=O)C1([H])N(C(=O)C([H])(N([H])C(=O)C([H])(N([H])C([H])([H])[H])C([H])([H])[H])C(C([H])([H])[H])(C([H])([H])[H])C([H])([H])[H])C([H])([H])c2c([H])c(OC([H])([H])c3c(C4([H])C([H])([H])C([H])([H])N(C(=O)N5C([H])([H])C([H])([H])C([H])([H])C([H])(n6nc(-c7c([H])c([H])c(Oc8c([H])c([H])c(F)c([H])c8F)c([H])c7[H])c(C(=O)N([H])[H])c6N([H])[H])C5([H])[H])C([H])([H])C4([H])[H])c(C4([H])C([H])([H])C4([H])[H])n(C([H])([H])C([H])([H])[H])c3C([H])([H])[H])c([H])c([H])c2C1([H])[H]

$$$$
9:0:0
     RDKit          3D

 98108  0  0  1  0  0  0  0  0999 V2000
  -29.2040  -23.3740   19.6980 C   0  0  0  0  0  3  0  0  0  0  0  0
  -29.7780  -23.2800   22.0310 C   0  0  0  0  0  3  0  0  0  0  0  0
  -29.6920  -22.0430   19.5200 C   0  0  0  0  0  0  0  0  0  0  0  0
  -29.2610  -24.0280   20.9500 C   0  0  0  0  0  0  0  0  0  0  0  0
  -30.2610  -21.9510   21.8930 C   0  0  0  0  0  0  0  0  0  0  0  0
  -30.2310  -21.3070   20.6210 C   0  0  0  0  0  0  0  0  0  0  0  0
  -30.8990  -21.2980   17.3070 C   0  0  0  0  0  2  0  0  0  0  0  0
  -29.8210  -22.2690   16.8890 C   0  0  0  0  0  2  0  0  0  0  0  0
  -29.6460  -21.4360   18.1440 C   0  0  0  0  0  3  0  0  0  0  0  0
  -29.6880  -21.1640   24.2310 C   0  0  0  0  0  1  0  0  0  0  0  0
  -32.0580  -21.9080   23.7080 C   0  0  0  0  0  1  0  0  0  0  0  0
  -30.7830  -21.2500   23.1550 C   0  0  0  0  0  3  0  0  0  0  0  0
  -30.8520  -20.0360   20.4460 N   0  0  0  0  0  0  0  0  0  0  0  0
  -31.6200  -19.9040   21.0960 H   0  0  0  0  0  0  0  0  0  0  0  0
  -30.9820  -14.5660   19.9320 C   0  0  0  0  0  0  0  0  0  0  0  0
  -30.6120  -12.3630   18.8730 C   0  0  0  0  0  2  0  0  0  0  0  0
  -29.6070  -12.5490   17.7170 C   0  0  0  0  0  2  0  0  0  0  0  0
  -28.1590  -12.4260   18.2310 C   0  0  0  0  0  2  0  0  0  0  0  0
  -27.8970  -13.2790   19.5010 C   0  0  0  0  0  3  0  0  0  0  0  0
  -29.0180  -13.0870   20.5480 C   0  0  0  0  0  2  0  0  0  0  0  0
  -30.2950  -13.3830   19.8870 N   0  0  0  0  0  0  0  0  0  0  0  0
  -32.1360  -14.6490   19.5000 O   0  0  0  0  0  0  0  0  0  0  0  0
  -30.2580  -17.7920   21.4270 C   0  0  0  0  0  2  0  0  0  0  0  0
  -30.7100  -18.0010   19.0030 C   0  0  0  0  0  2  0  0  0  0  0  0
  -29.7000  -16.3470   21.1940 C   0  0  0  0  0  2  0  0  0  0  0  0
  -30.0910  -16.5910   18.7980 C   0  0  0  0  0  2  0  0  0  0  0  0
  -30.1290  -18.7620   20.2170 C   0  0  0  0  0  3  0  0  0  0  0  0
  -30.2130  -15.7010   19.9710 N   0  0  0  0  0  0  0  0  0  0  0  0
  -25.5680  -13.9150   20.3820 C   0  0  0  0  0  0  0  0  0  0  0  0
  -24.5080  -13.1580   20.7990 C   0  0  0  0  0  0  0  0  0  0  0  0
  -24.9330  -11.7980   20.7060 C   0  0  0  0  0  0  0  0  0  0  0  0
  -26.5740  -13.0170   20.0630 N   0  0  0  0  0  0  0  0  0  0  0  0
  -26.2000  -11.7370   20.3160 N   0  0  0  0  0  0  0  0  0  0  0  0
  -24.1880  -10.5480   20.9100 C   0  0  0  0  0  0  0  0  0  0  0  0
  -24.6110   -9.5830   21.8490 C   0  0  0  0  0  3  0  0  0  0  0  0
  -23.8680   -8.3980   22.0420 C   0  0  0  0  0  3  0  0  0  0  0  0
  -22.6880   -8.1700   21.2940 C   0  0  0  0  0  0  0  0  0  0  0  0
  -22.2850   -9.1250   20.3430 C   0  0  0  0  0  3  0  0  0  0  0  0
  -23.0280  -10.3010   20.1500 C   0  0  0  0  0  3  0  0  0  0  0  0
  -21.9180   -7.0370   21.3950 O   0  0  0  0  0  0  0  0  0  0  0  0
  -21.7970   -6.3520   22.5780 C   0  0  0  0  0  0  0  0  0  0  0  0
  -21.2910   -6.9640   23.7450 C   0  0  0  0  0  3  0  0  0  0  0  0
  -21.1180   -6.2050   24.9190 C   0  0  0  0  0  3  0  0  0  0  0  0
  -21.4410   -4.8340   24.9260 C   0  0  0  0  0  0  0  0  0  0  0  0
  -21.9390   -4.2220   23.7630 C   0  0  0  0  0  3  0  0  0  0  0  0
  -22.1140   -4.9790   22.5910 C   0  0  0  0  0  0  0  0  0  0  0  0
  -22.5740   -4.3790   21.4670 F   0  0  0  0  0  0  0  0  0  0  0  0
  -21.2690   -4.1030   26.0520 F   0  0  0  0  0  0  0  0  0  0  0  0
  -23.1430  -13.6610   21.1690 C   0  0  0  0  0  0  0  0  0  0  0  0
  -22.4610  -12.9730   22.0770 N   0  0  0  0  0  0  0  0  0  0  0  0
  -22.6900  -14.6990   20.6860 O   0  0  0  0  0  0  0  0  0  0  0  0
  -22.8410  -12.1320   22.4890 H   0  0  0  0  0  0  0  0  0  0  0  0
  -21.5480  -13.2910   22.3670 H   0  0  0  0  0  0  0  0  0  0  0  0
  -25.7570  -15.2850   20.2280 N   0  0  0  0  0  0  0  0  0  0  0  0
  -25.0160  -15.9560   20.4020 H   0  0  0  0  0  0  0  0  0  0  0  0
  -26.6010  -15.7120   19.8690 H   0  0  0  0  0  0  0  0  0  0  0  0
  -28.6560  -25.4290   21.2550 C   0  0  0  0  0  2  0  0  0  0  0  0
  -28.9320  -26.5830   20.4030 O   0  0  0  0  0  0  0  0  0  0  0  0
  -24.8230  -31.6830   23.3320 C   0  0  0  0  0  0  0  0  0  0  0  0
  -27.8200  -27.4090   20.2920 C   0  0  0  0  0  0  0  0  0  0  0  0
  -23.7840  -30.3000   21.5660 C   0  0  0  0  0  3  0  0  0  0  0  0
  -25.3890  -28.8740   20.1800 C   0  0  0  0  0  0  0  0  0  0  0  0
  -26.3080  -30.7460   21.5540 C   0  0  0  0  0  2  0  0  0  0  0  0
  -26.4910  -29.4030   20.8680 C   0  0  0  0  0  0  0  0  0  0  0  0
  -27.7140  -28.6790   20.9200 C   0  0  0  0  0  3  0  0  0  0  0  0
  -26.7070  -26.9200   19.5770 C   0  0  0  0  0  3  0  0  0  0  0  0
  -25.4970  -27.6350   19.5260 C   0  0  0  0  0  3  0  0  0  0  0  0
  -24.1120  -29.6850   20.1790 C   0  0  0  0  0  2  0  0  0  0  0  0
  -24.9850  -30.9240   22.2100 N   0  0  0  0  0  0  0  0  0  0  0  0
  -23.6980  -31.8960   23.8070 O   0  0  0  0  0  0  0  0  0  0  0  0
  -23.1090  -29.2220   22.4450 C   0  0  0  0  0  0  0  0  0  0  0  0
  -21.7970  -29.0120   22.2390 N   0  0  0  0  0  0  0  0  0  0  0  0
  -23.7640  -28.5790   23.2700 O   0  0  0  0  0  0  0  0  0  0  0  0
  -21.3290  -29.5860   21.5520 H   0  0  0  0  0  0  0  0  0  0  0  0
  -18.4320  -27.7190   22.5170 C   0  0  0  0  0  0  0  0  0  0  0  0
  -20.9680  -28.0200   22.9230 C   0  0  0  0  0  3  0  0  0  0  0  0
  -21.1310  -26.6210   22.2850 C   0  0  0  0  0  2  0  0  0  0  0  0
  -20.0870  -26.3250   21.2040 C   0  0  0  0  0  2  0  0  0  0  0  0
  -18.6730  -26.4080   21.7870 C   0  0  0  0  0  2  0  0  0  0  0  0
  -19.5100  -28.4830   23.0370 C   0  0  0  0  0  0  0  0  0  0  0  0
  -19.2340  -29.7110   23.6770 C   0  0  0  0  0  3  0  0  0  0  0  0
  -17.9110  -30.1740   23.8020 C   0  0  0  0  0  3  0  0  0  0  0  0
  -16.8460  -29.4060   23.3010 C   0  0  0  0  0  3  0  0  0  0  0  0
  -17.1070  -28.1800   22.6630 C   0  0  0  0  0  3  0  0  0  0  0  0
  -26.0390  -32.3390   24.0580 C   0  0  0  0  0  3  0  0  0  0  0  0
  -26.4440  -31.5950   25.3890 C   0  0  1  0  0  0  0  0  0  0  0  0
  -25.2600  -31.3620   26.3550 C   0  0  0  0  0  1  0  0  0  0  0  0
  -27.0740  -30.2180   25.0750 C   0  0  0  0  0  1  0  0  0  0  0  0
  -27.5220  -32.4120   26.1390 C   0  0  0  0  0  1  0  0  0  0  0  0
  -25.6880  -33.7390   24.3320 N   0  0  0  0  0  0  0  0  0  0  0  0
  -26.0770  -34.7820   23.5870 C   0  0  0  0  0  0  0  0  0  0  0  0
  -26.8370  -34.6680   22.6200 O   0  0  0  0  0  0  0  0  0  0  0  0
  -25.0240  -33.9010   25.0750 H   0  0  0  0  0  0  0  0  0  0  0  0
  -24.3640  -36.5440   23.0530 C   0  0  0  0  0  1  0  0  0  0  0  0
  -25.5370  -36.1730   23.9730 C   0  0  0  0  0  3  0  0  0  0  0  0
  -27.5800  -37.1050   24.9650 C   0  0  0  0  0  1  0  0  0  0  0  0
  -26.5630  -37.2370   23.9250 N   0  0  0  0  0  0  0  0  0  0  0  0
  -26.1360  -38.1540   24.0140 H   0  0  0  0  0  0  0  0  0  0  0  0
  1  4  1  0
  3  1  2  0
  3  6  1  0
  4 57  1  0
  4  2  2  0
  5  2  1  0
  5 12  1  0
  6  5  2  0
  7  9  1  0
  8  7  1  0
  8  9  1  0
  9  3  1  0
 12 11  1  0
 12 10  1  0
 13  6  1  0
 13 14  1  0
 15 28  1  0
 16 21  1  0
 17 18  1  0
 17 16  1  0
 19 18  1  0
 19 32  1  0
 19 20  1  0
 21 15  1  0
 21 20  1  0
 22 15  2  0
 24 27  1  0
 25 23  1  0
 26 24  1  0
 26 28  1  0
 27 13  1  0
 27 23  1  0
 28 25  1  0
 29 30  2  0
 30 49  1  0
 31 30  1  0
 31 34  1  0
 32 33  1  0
 32 29  1  0
 33 31  2  0
 34 35  1  0
 35 36  2  0
 37 40  1  0
 37 36  1  0
 38 37  2  0
 39 38  1  0
 39 34  2  0
 40 41  1  0
 41 46  2  0
 41 42  1  0
 42 43  2  0
 43 44  1  0
 44 48  1  0
 45 44  2  0
 46 45  1  0
 47 46  1  0
 49 50  1  0
 50 53  1  0
 50 52  1  0
 51 49  2  0
 54 29  1  0
 54 55  1  0
 56 54  1  0
 58 57  1  0
 59 70  2  0
 60 58  1  0
 60 65  1  0
 61 69  1  0
 61 71  1  0
 62 64  1  0
 63 69  1  0
 64 65  2  0
 64 63  1  0
 66 60  2  0
 67 66  1  0
 67 62  2  0
 68 62  1  0
 68 61  1  0
 69 59  1  0
 71 73  2  0
 72 71  1  0
 74 72  1  0
 75 84  2  0
 75 80  1  0
 76 72  1  0
 76 80  1  0
 77 76  1  0
 78 79  1  0
 78 77  1  0
 79 75  1  0
 80 81  2  0
 81 82  1  0
 83 82  2  0
 84 83  1  0
 85 59  1  0
 85 90  1  0
 85 86  1  0
 86 89  1  1
 86 87  1  0
 88 86  1  0
 90 93  1  0
 91 95  1  0
 91 90  1  0
 92 91  2  0
 95 94  1  0
 97 95  1  0
 97 98  1  0
 97 96  1  0
M  ISO  4  15 100  28 100  57 101  58 101
M  END
>  <TORSDO>  (10) 
F 20

>  <SCORE>  (10) 
-12.733

>  <name>  (10) 
9

>  <ligand_id>  (10) 
9

>  <original_smiles>  (10) 
[H]c1c([H])c([H])c2c(c1[H])C([H])([H])C([H])([H])C([H])([H])C2([H])N([H])C(=O)C1([H])N(C(=O)C([H])(N([H])C(=O)C([H])(N([H])C([H])([H])[H])C([H])([H])[H])C(C([H])([H])[H])(C([H])([H])[H])C([H])([H])[H])C([H])([H])c2c([H])c(OC([H])([H])c3c([H])c(C([H])(C([H])([H])[H])C([H])([H])[H])c(N([H])C4([H])C([H])([H])C([H])([H])N(C(=O)N5C([H])([H])C([H])([H])C([H])([H])C([H])(n6nc(-c7c([H])c([H])c(Oc8c([H])c([H])c(F)c([H])c8F)c([H])c7[H])c(C(=O)N([H])[H])c6N([H])[H])C5([H])[H])C([H])([H])C4([H])[H])c(C4([H])C([H])([H])C4([H])[H])c3[H])c([H])c([H])c2C1([H])[H]

>  <smiles>  (10) 
[H]c1c([H])c([H])c2c(c1[H])C([H])([H])C([H])([H])C([H])([H])C2([H])N([H])C(=O)C1([H])N(C(=O)C([H])(N([H])C(=O)C([H])(N([H])C([H])([H])[H])C([H])([H])[H])C(C([H])([H])[H])(C([H])([H])[H])C([H])([H])[H])C([H])([H])c2c([H])c(OC([H])([H])c3c([H])c(C([H])(C([H])([H])[H])C([H])([H])[H])c(N([H])C4([H])C([H])([H])C([H])([H])N(C(=O)N5C([H])([H])C([H])([H])C([H])([H])C([H])(n6nc(-c7c([H])c([H])c(Oc8c([H])c([H])c(F)c([H])c8F)c([H])c7[H])c(C(=O)N([H])[H])c6N([H])[H])C5([H])[H])C([H])([H])C4([H])[H])c(C4([H])C([H])([H])C4([H])[H])c3[H])c([H])c([H])c2C1([H])[H]

$$$$
10:0:0
     RDKit          3D

 96105  0  0  1  0  0  0  0  0999 V2000
  -29.9940  -22.5270   21.5180 C   0  0  0  0  0  3  0  0  0  0  0  0
  -29.6740  -23.8530   21.1240 C   0  0  0  0  0  0  0  0  0  0  0  0
  -28.8930  -24.0680   19.9570 C   0  0  0  0  0  0  0  0  0  0  0  0
  -29.5560  -21.4210   20.7630 C   0  0  0  0  0  0  0  0  0  0  0  0
  -28.4850  -22.8830   19.2640 C   0  0  0  0  0  0  0  0  0  0  0  0
  -30.2190  -25.0080   21.9450 C   0  0  0  0  0  1  0  0  0  0  0  0
  -28.7950  -21.6150   19.6670 N   0  0  0  0  0  0  0  0  0  0  0  0
  -29.9570  -20.1180   21.1600 N   0  0  0  0  0  0  0  0  0  0  0  0
  -30.5420  -20.0790   21.9870 H   0  0  0  0  0  0  0  0  0  0  0  0
  -30.7530  -14.6610   20.0670 C   0  0  0  0  0  0  0  0  0  0  0  0
  -30.4460  -12.4750   18.9430 C   0  0  0  0  0  2  0  0  0  0  0  0
  -29.4370  -12.6510   17.7880 C   0  0  0  0  0  2  0  0  0  0  0  0
  -27.9910  -12.4770   18.2950 C   0  0  0  0  0  2  0  0  0  0  0  0
  -27.7060  -13.2890   19.5870 C   0  0  0  0  0  3  0  0  0  0  0  0
  -28.8270  -13.0930   20.6280 C   0  0  0  0  0  2  0  0  0  0  0  0
  -30.0950  -13.4620   19.9830 N   0  0  0  0  0  0  0  0  0  0  0  0
  -31.9050  -14.7730   19.6330 O   0  0  0  0  0  0  0  0  0  0  0  0
  -29.5920  -17.7250   21.7790 C   0  0  0  0  0  2  0  0  0  0  0  0
  -30.3490  -18.2510   19.4920 C   0  0  0  0  0  2  0  0  0  0  0  0
  -29.2520  -16.2610   21.3520 C   0  0  0  0  0  2  0  0  0  0  0  0
  -29.9500  -16.8050   19.0640 C   0  0  0  0  0  2  0  0  0  0  0  0
  -29.4970  -18.7980   20.6580 C   0  0  0  0  0  3  0  0  0  0  0  0
  -29.9720  -15.7930   20.1500 N   0  0  0  0  0  0  0  0  0  0  0  0
  -25.3540  -13.8460   20.4620 C   0  0  0  0  0  0  0  0  0  0  0  0
  -24.3160  -13.0530   20.8680 C   0  0  0  0  0  0  0  0  0  0  0  0
  -24.7840  -11.7070   20.7650 C   0  0  0  0  0  0  0  0  0  0  0  0
  -26.3890  -12.9820   20.1390 N   0  0  0  0  0  0  0  0  0  0  0  0
  -26.0550  -11.6890   20.3800 N   0  0  0  0  0  0  0  0  0  0  0  0
  -24.0790  -10.4330   20.9550 C   0  0  0  0  0  0  0  0  0  0  0  0
  -24.5290   -9.4700   21.8840 C   0  0  0  0  0  3  0  0  0  0  0  0
  -23.8220   -8.2610   22.0620 C   0  0  0  0  0  3  0  0  0  0  0  0
  -22.6520   -8.0060   21.3080 C   0  0  0  0  0  0  0  0  0  0  0  0
  -22.2200   -8.9580   20.3680 C   0  0  0  0  0  3  0  0  0  0  0  0
  -22.9280  -10.1580   20.1880 C   0  0  0  0  0  3  0  0  0  0  0  0
  -21.9170   -6.8480   21.3960 O   0  0  0  0  0  0  0  0  0  0  0  0
  -21.8140   -6.1480   22.5700 C   0  0  0  0  0  0  0  0  0  0  0  0
  -21.2900   -6.7340   23.7440 C   0  0  0  0  0  3  0  0  0  0  0  0
  -21.1360   -5.9580   24.9100 C   0  0  0  0  0  3  0  0  0  0  0  0
  -21.4930   -4.5970   24.9030 C   0  0  0  0  0  0  0  0  0  0  0  0
  -22.0100   -4.0100   23.7350 C   0  0  0  0  0  3  0  0  0  0  0  0
  -22.1650   -4.7830   22.5710 C   0  0  0  0  0  0  0  0  0  0  0  0
  -22.6430   -4.2070   21.4420 F   0  0  0  0  0  0  0  0  0  0  0  0
  -21.3390   -3.8490   26.0210 F   0  0  0  0  0  0  0  0  0  0  0  0
  -22.9330  -13.5080   21.2350 C   0  0  0  0  0  0  0  0  0  0  0  0
  -22.2630  -12.7820   22.1220 N   0  0  0  0  0  0  0  0  0  0  0  0
  -22.4580  -14.5450   20.7720 O   0  0  0  0  0  0  0  0  0  0  0  0
  -22.6610  -11.9440   22.5200 H   0  0  0  0  0  0  0  0  0  0  0  0
  -21.3380  -13.0690   22.4110 H   0  0  0  0  0  0  0  0  0  0  0  0
  -25.4970  -15.2230   20.3200 N   0  0  0  0  0  0  0  0  0  0  0  0
  -24.7340  -15.8660   20.4930 H   0  0  0  0  0  0  0  0  0  0  0  0
  -26.3230  -15.6780   19.9500 H   0  0  0  0  0  0  0  0  0  0  0  0
  -27.6890  -21.8280   17.1700 C   0  0  0  0  0  1  0  0  0  0  0  0
  -27.7440  -22.9690   18.0770 N   0  0  0  0  0  0  0  0  0  0  0  0
  -27.5500  -23.8830   17.6840 H   0  0  0  0  0  0  0  0  0  0  0  0
  -28.6540  -25.5010   19.3580 C   0  0  0  0  0  2  0  0  0  0  0  0
  -28.4090  -26.6370   20.2440 O   0  0  0  0  0  0  0  0  0  0  0  0
  -24.5420  -31.8950   23.2080 C   0  0  0  0  0  0  0  0  0  0  0  0
  -27.2400  -27.3950   20.1750 C   0  0  0  0  0  0  0  0  0  0  0  0
  -23.3700  -30.4930   21.5450 C   0  0  0  0  0  3  0  0  0  0  0  0
  -24.8500  -28.9540   20.1440 C   0  0  0  0  0  0  0  0  0  0  0  0
  -25.9060  -30.8360   21.4000 C   0  0  0  0  0  2  0  0  0  0  0  0
  -26.0010  -29.4610   20.7570 C   0  0  0  0  0  0  0  0  0  0  0  0
  -27.1940  -28.6890   20.7690 C   0  0  0  0  0  3  0  0  0  0  0  0
  -26.0530  -26.9140   19.5730 C   0  0  0  0  0  3  0  0  0  0  0  0
  -24.8750  -27.6820   19.5520 C   0  0  0  0  0  3  0  0  0  0  0  0
  -23.6080  -29.8180   20.1690 C   0  0  0  0  0  2  0  0  0  0  0  0
  -24.6240  -31.0920   22.1090 N   0  0  0  0  0  0  0  0  0  0  0  0
  -23.4500  -32.1680   23.7260 O   0  0  0  0  0  0  0  0  0  0  0  0
  -22.7000  -29.4710   22.4930 C   0  0  0  0  0  0  0  0  0  0  0  0
  -21.3780  -29.2820   22.3360 N   0  0  0  0  0  0  0  0  0  0  0  0
  -23.3660  -28.8530   23.3270 O   0  0  0  0  0  0  0  0  0  0  0  0
  -20.9010  -29.8350   21.6370 H   0  0  0  0  0  0  0  0  0  0  0  0
  -18.0030  -28.0560   22.7480 C   0  0  0  0  0  0  0  0  0  0  0  0
  -20.5490  -28.3410   23.0890 C   0  0  0  0  0  3  0  0  0  0  0  0
  -20.6820  -26.9070   22.5260 C   0  0  0  0  0  2  0  0  0  0  0  0
  -19.6110  -26.5670   21.4830 C   0  0  0  0  0  2  0  0  0  0  0  0
  -18.2110  -26.7030   22.0870 C   0  0  0  0  0  2  0  0  0  0  0  0
  -19.1010  -28.8310   23.2040 C   0  0  0  0  0  0  0  0  0  0  0  0
  -18.8540  -30.0970   23.7800 C   0  0  0  0  0  3  0  0  0  0  0  0
  -17.5400  -30.5860   23.9060 C   0  0  0  0  0  3  0  0  0  0  0  0
  -16.4560  -29.8080   23.4670 C   0  0  0  0  0  3  0  0  0  0  0  0
  -16.6880  -28.5440   22.8940 C   0  0  0  0  0  3  0  0  0  0  0  0
  -25.8130  -32.5310   23.8520 C   0  0  0  0  0  3  0  0  0  0  0  0
  -25.4940  -33.9290   24.1750 N   0  0  0  0  0  0  0  0  0  0  0  0
  -25.8350  -34.9810   23.4200 C   0  0  0  0  0  0  0  0  0  0  0  0
  -26.5210  -34.8780   22.3980 O   0  0  0  0  0  0  0  0  0  0  0  0
  -24.8870  -34.0810   24.9660 H   0  0  0  0  0  0  0  0  0  0  0  0
  -24.1080  -36.7680   23.0370 C   0  0  0  0  0  1  0  0  0  0  0  0
  -25.3370  -36.3690   23.8680 C   0  0  0  0  0  3  0  0  0  0  0  0
  -27.4520  -37.2640   24.7360 C   0  0  0  0  0  1  0  0  0  0  0  0
  -26.3670  -37.4240   23.7700 N   0  0  0  0  0  0  0  0  0  0  0  0
  -25.9550  -38.3430   23.9060 H   0  0  0  0  0  0  0  0  0  0  0  0
  -26.3080  -31.7610   25.1380 C   0  0  1  0  0  0  0  0  0  0  0  0
  -25.1960  -31.5170   26.1840 C   0  0  0  0  0  1  0  0  0  0  0  0
  -26.9060  -30.3870   24.7560 C   0  0  0  0  0  1  0  0  0  0  0  0
  -27.4410  -32.5610   25.8240 C   0  0  0  0  0  1  0  0  0  0  0  0
  2  1  1  0
  2  6  1  0
  3  2  2  0
  4  8  1  0
  4  1  2  0
  5  7  2  0
  5  3  1  0
  7  4  1  0
  8  9  1  0
 10 23  1  0
 11 16  1  0
 12 13  1  0
 12 11  1  0
 14 13  1  0
 14 27  1  0
 14 15  1  0
 16 10  1  0
 16 15  1  0
 17 10  2  0
 19 22  1  0
 20 18  1  0
 21 19  1  0
 21 23  1  0
 22  8  1  0
 22 18  1  0
 23 20  1  0
 24 25  2  0
 25 44  1  0
 26 25  1  0
 26 29  1  0
 27 28  1  0
 27 24  1  0
 28 26  2  0
 29 30  1  0
 30 31  2  0
 32 35  1  0
 32 31  1  0
 33 32  2  0
 34 33  1  0
 34 29  2  0
 35 36  1  0
 36 41  2  0
 36 37  1  0
 37 38  2  0
 39 38  1  0
 39 43  1  0
 40 39  2  0
 41 40  1  0
 42 41  1  0
 44 45  1  0
 45 48  1  0
 45 47  1  0
 46 44  2  0
 49 24  1  0
 49 50  1  0
 51 49  1  0
 52 53  1  0
 53  5  1  0
 54 53  1  0
 55  3  1  0
 55 56  1  0
 57 68  2  0
 58 56  1  0
 58 63  1  0
 59 67  1  0
 59 69  1  0
 60 66  1  0
 60 62  1  0
 61 67  1  0
 62 63  2  0
 62 61  1  0
 64 58  2  0
 65 64  1  0
 65 60  2  0
 66 59  1  0
 67 57  1  0
 69 71  2  0
 70 69  1  0
 72 70  1  0
 73 82  2  0
 73 78  1  0
 74 70  1  0
 74 78  1  0
 75 74  1  0
 76 77  1  0
 76 75  1  0
 77 73  1  0
 78 79  2  0
 79 80  1  0
 81 80  2  0
 82 81  1  0
 83 57  1  0
 83 84  1  0
 83 93  1  0
 84 87  1  0
 85 89  1  0
 85 84  1  0
 86 85  2  0
 89 88  1  0
 91 89  1  0
 91 92  1  0
 91 90  1  0
 93 96  1  1
 93 94  1  0
 95 93  1  0
M  ISO  4  10 100  23 100  55 101  56 101
M  END
>  <TORSDO>  (11) 
F 18

>  <SCORE>  (11) 
-13.821

>  <name>  (11) 
10

>  <ligand_id>  (11) 
10

>  <original_smiles>  (11) 
[H]c1c([H])c([H])c2c(c1[H])C([H])([H])C([H])([H])C([H])([H])C2([H])N([H])C(=O)C1([H])N(C(=O)C([H])(N([H])C(=O)C([H])(N([H])C([H])([H])[H])C([H])([H])[H])C(C([H])([H])[H])(C([H])([H])[H])C([H])([H])[H])C([H])([H])c2c([H])c(OC([H])([H])c3c(N([H])C([H])([H])[H])nc(N([H])C4([H])C([H])([H])C([H])([H])N(C(=O)N5C([H])([H])C([H])([H])C([H])([H])C([H])(n6nc(-c7c([H])c([H])c(Oc8c([H])c([H])c(F)c([H])c8F)c([H])c7[H])c(C(=O)N([H])[H])c6N([H])[H])C5([H])[H])C([H])([H])C4([H])[H])c([H])c3C([H])([H])[H])c([H])c([H])c2C1([H])[H]

>  <smiles>  (11) 
[H]c1c([H])c([H])c2c(c1[H])C([H])([H])C([H])([H])C([H])([H])C2([H])N([H])C(=O)C1([H])N(C(=O)C([H])(N([H])C(=O)C([H])(N([H])C([H])([H])[H])C([H])([H])[H])C(C([H])([H])[H])(C([H])([H])[H])C([H])([H])[H])C([H])([H])c2c([H])c(OC([H])([H])c3c(N([H])C([H])([H])[H])nc(N([H])C4([H])C([H])([H])C([H])([H])N(C(=O)N5C([H])([H])C([H])([H])C([H])([H])C([H])(n6nc(-c7c([H])c([H])c(Oc8c([H])c([H])c(F)c([H])c8F)c([H])c7[H])c(C(=O)N([H])[H])c6N([H])[H])C5([H])[H])C([H])([H])C4([H])[H])c([H])c3C([H])([H])[H])c([H])c([H])c2C1([H])[H]

$$$$
11:0:0
     RDKit          3D

 94104  0  0  1  0  0  0  0  0999 V2000
  -30.8810  -15.4960   20.7490 C   0  0  0  0  0  0  0  0  0  0  0  0
  -30.8920  -12.9970   20.0910 C   0  0  0  0  0  2  0  0  0  0  0  0
  -30.1180  -12.5100   18.8390 C   0  0  0  0  0  2  0  0  0  0  0  0
  -28.5800  -12.5970   18.9730 C   0  0  0  0  0  2  0  0  0  0  0  0
  -28.0450  -13.6240   20.0100 C   0  0  0  0  0  3  0  0  0  0  0  0
  -28.9630  -13.8070   21.2270 C   0  0  0  0  0  2  0  0  0  0  0  0
  -30.2560  -14.2270   20.6680 N   0  0  0  0  0  0  0  0  0  0  0  0
  -32.1030  -15.4190   20.9450 O   0  0  0  0  0  0  0  0  0  0  0  0
  -27.6690  -19.0900   19.1310 C   0  0  0  0  0  3  0  0  0  0  0  0
  -28.6320  -18.0970   19.3110 C   0  0  0  0  0  0  0  0  0  0  0  0
  -28.9680  -20.7450   20.4420 C   0  0  0  0  0  0  0  0  0  0  0  0
  -27.7720  -20.3320   19.7740 C   0  0  0  0  0  0  0  0  0  0  0  0
  -29.8570  -19.5270   20.7650 C   0  0  0  0  0  0  0  0  0  0  0  0
  -29.6080  -18.0890   20.3070 C   0  0  0  0  0  0  0  0  0  0  0  0
  -28.9540  -17.1440   18.2130 C   0  0  0  0  0  2  0  0  0  0  0  0
  -30.3960  -16.7140   18.5660 C   0  0  1  0  0  0  0  0  0  0  0  0
  -26.5270  -21.1910   19.6610 C   0  0  0  0  0  1  0  0  0  0  0  0
  -31.1320  -19.7700   21.5380 C   0  0  0  0  0  1  0  0  0  0  0  0
  -30.6940  -15.4330   17.7900 C   0  0  0  0  0  1  0  0  0  0  0  0
  -31.4390  -17.7550   18.0690 C   0  0  0  0  0  1  0  0  0  0  0  0
  -30.3640  -16.7090   20.0670 N   0  0  0  0  0  0  0  0  0  0  0  0
  -25.6060  -14.2790   20.4170 C   0  0  0  0  0  0  0  0  0  0  0  0
  -24.4870  -13.5410   20.6910 C   0  0  0  0  0  0  0  0  0  0  0  0
  -24.9260  -12.1870   20.8160 C   0  0  0  0  0  0  0  0  0  0  0  0
  -26.6540  -13.3760   20.3740 N   0  0  0  0  0  0  0  0  0  0  0  0
  -26.2460  -12.1200   20.6940 N   0  0  0  0  0  0  0  0  0  0  0  0
  -24.1570  -10.9450   20.9820 C   0  0  0  0  0  0  0  0  0  0  0  0
  -24.4600  -10.0280   22.0110 C   0  0  0  0  0  3  0  0  0  0  0  0
  -23.6980   -8.8490   22.1660 C   0  0  0  0  0  3  0  0  0  0  0  0
  -22.6160   -8.5840   21.2930 C   0  0  0  0  0  0  0  0  0  0  0  0
  -22.3340   -9.4900   20.2550 C   0  0  0  0  0  3  0  0  0  0  0  0
  -23.0970  -10.6590   20.0990 C   0  0  0  0  0  3  0  0  0  0  0  0
  -21.8360   -7.4540   21.3570 O   0  0  0  0  0  0  0  0  0  0  0  0
  -21.6570   -6.7630   22.5300 C   0  0  0  0  0  0  0  0  0  0  0  0
  -21.1190   -7.3760   23.6830 C   0  0  0  0  0  3  0  0  0  0  0  0
  -20.8850   -6.6080   24.8420 C   0  0  0  0  0  3  0  0  0  0  0  0
  -21.1860   -5.2340   24.8520 C   0  0  0  0  0  0  0  0  0  0  0  0
  -21.7210   -4.6220   23.7030 C   0  0  0  0  0  3  0  0  0  0  0  0
  -21.9510   -5.3850   22.5450 C   0  0  0  0  0  0  0  0  0  0  0  0
  -22.4420   -4.7860   21.4330 F   0  0  0  0  0  0  0  0  0  0  0  0
  -20.9580   -4.4950   25.9630 F   0  0  0  0  0  0  0  0  0  0  0  0
  -23.0750  -14.0450   20.7270 C   0  0  0  0  0  0  0  0  0  0  0  0
  -22.2260  -13.4320   21.5460 N   0  0  0  0  0  0  0  0  0  0  0  0
  -22.7260  -15.0190   20.0630 O   0  0  0  0  0  0  0  0  0  0  0  0
  -22.5220  -12.6520   22.1130 H   0  0  0  0  0  0  0  0  0  0  0  0
  -21.2680  -13.7500   21.6080 H   0  0  0  0  0  0  0  0  0  0  0  0
  -25.8190  -15.6310   20.1680 N   0  0  0  0  0  0  0  0  0  0  0  0
  -25.0650  -16.3070   20.1750 H   0  0  0  0  0  0  0  0  0  0  0  0
  -26.7140  -16.0320   19.9200 H   0  0  0  0  0  0  0  0  0  0  0  0
  -29.9100  -23.7410   20.4320 C   0  0  0  0  0  2  0  0  0  0  0  0
  -27.9200  -23.6040   20.3340 C   0  0  0  0  0  2  0  0  0  0  0  0
  -29.0010  -22.4400   20.7780 C   0  0  0  0  0  3  0  0  0  0  0  0
  -28.7770  -24.8660   20.7840 C   0  0  0  0  0  3  0  0  0  0  0  0
  -28.7370  -26.3920   20.3020 O   0  0  0  0  0  0  0  0  0  0  0  0
  -24.5690  -31.8720   23.2060 C   0  0  0  0  0  0  0  0  0  0  0  0
  -27.5990  -27.3080   20.2860 C   0  0  0  0  0  0  0  0  0  0  0  0
  -23.5490  -30.4140   21.4990 C   0  0  0  0  0  3  0  0  0  0  0  0
  -25.1670  -28.9370   20.1410 C   0  0  0  0  0  0  0  0  0  0  0  0
  -26.0890  -30.8350   21.4610 C   0  0  0  0  0  2  0  0  0  0  0  0
  -26.2880  -29.4480   20.8070 C   0  0  0  0  0  0  0  0  0  0  0  0
  -27.5060  -28.6570   20.8470 C   0  0  0  0  0  3  0  0  0  0  0  0
  -26.4400  -26.9060   19.5870 C   0  0  0  0  0  3  0  0  0  0  0  0
  -25.2600  -27.6850   19.5110 C   0  0  0  0  0  3  0  0  0  0  0  0
  -23.8850  -29.7600   20.1300 C   0  0  0  0  0  2  0  0  0  0  0  0
  -24.7530  -31.0650   22.1120 N   0  0  0  0  0  0  0  0  0  0  0  0
  -23.4390  -32.0740   23.6820 O   0  0  0  0  0  0  0  0  0  0  0  0
  -22.8900  -29.3580   22.4230 C   0  0  0  0  0  0  0  0  0  0  0  0
  -21.5790  -29.1110   22.2430 N   0  0  0  0  0  0  0  0  0  0  0  0
  -23.5630  -28.7610   23.2670 O   0  0  0  0  0  0  0  0  0  0  0  0
  -21.0850  -29.6550   21.5480 H   0  0  0  0  0  0  0  0  0  0  0  0
  -18.2480  -27.7410   22.6500 C   0  0  0  0  0  0  0  0  0  0  0  0
  -20.7890  -28.1070   22.9640 C   0  0  0  0  0  3  0  0  0  0  0  0
  -20.9600  -26.7020   22.3410 C   0  0  0  0  0  2  0  0  0  0  0  0
  -19.8890  -26.3670   21.2980 C   0  0  0  0  0  2  0  0  0  0  0  0
  -18.4940  -26.4270   21.9270 C   0  0  0  0  0  2  0  0  0  0  0  0
  -19.3250  -28.5380   23.1230 C   0  0  0  0  0  0  0  0  0  0  0  0
  -19.0400  -29.7640   23.7620 C   0  0  0  0  0  3  0  0  0  0  0  0
  -17.7110  -30.1980   23.9270 C   0  0  0  0  0  3  0  0  0  0  0  0
  -16.6490  -29.4000   23.4700 C   0  0  0  0  0  3  0  0  0  0  0  0
  -16.9180  -28.1710   22.8390 C   0  0  0  0  0  3  0  0  0  0  0  0
  -25.7630  -32.5910   23.9030 C   0  0  0  0  0  3  0  0  0  0  0  0
  -26.2320  -31.8720   25.2290 C   0  0  1  0  0  0  0  0  0  0  0  0
  -25.0850  -31.5880   26.2270 C   0  0  0  0  0  1  0  0  0  0  0  0
  -26.9150  -30.5240   24.9100 C   0  0  0  0  0  1  0  0  0  0  0  0
  -27.2880  -32.7410   25.9500 C   0  0  0  0  0  1  0  0  0  0  0  0
  -25.3510  -33.9750   24.1940 N   0  0  0  0  0  0  0  0  0  0  0  0
  -25.6530  -35.0400   23.4400 C   0  0  0  0  0  0  0  0  0  0  0  0
  -26.3710  -34.9650   22.4400 O   0  0  0  0  0  0  0  0  0  0  0  0
  -24.7130  -34.1010   24.9670 H   0  0  0  0  0  0  0  0  0  0  0  0
  -23.8280  -36.7200   23.0070 C   0  0  0  0  0  1  0  0  0  0  0  0
  -25.0680  -36.4060   23.8600 C   0  0  0  0  0  3  0  0  0  0  0  0
  -27.1130  -37.4440   24.7400 C   0  0  0  0  0  1  0  0  0  0  0  0
  -26.0390  -37.5190   23.7550 N   0  0  0  0  0  0  0  0  0  0  0  0
  -25.5720  -38.4160   23.8640 H   0  0  0  0  0  0  0  0  0  0  0  0
  1  8  2  0
  2  7  1  0
  3  4  1  0
  3  2  1  0
  5  4  1  0
  5 25  1  0
  5  6  1  0
  7  1  1  0
  7  6  1  0
  9 10  2  0
  9 12  1  0
 10 14  1  0
 11 13  1  0
 12 11  2  0
 13 18  1  0
 14 13  2  0
 15 16  1  0
 15 10  1  0
 16 21  1  0
 17 12  1  0
 16 19  1  6
 20 16  1  0
 21 14  1  0
 21  1  1  0
 22 23  2  0
 23 42  1  0
 23 24  1  0
 24 27  1  0
 25 22  1  0
 25 26  1  0
 26 24  2  0
 27 28  1  0
 28 29  2  0
 30 33  1  0
 30 29  1  0
 31 30  2  0
 32 31  1  0
 32 27  2  0
 33 34  1  0
 34 39  2  0
 34 35  1  0
 35 36  2  0
 36 37  1  0
 37 41  1  0
 38 37  2  0
 39 38  1  0
 40 39  1  0
 42 43  1  0
 43 46  1  0
 43 45  1  0
 44 42  2  0
 47 48  1  0
 47 22  1  0
 49 47  1  0
 50 52  1  0
 50 53  1  0
 51 52  1  0
 51 53  1  0
 52 11  1  0
 53 54  1  0
 55 66  2  0
 56 54  1  0
 56 61  1  0
 57 65  1  0
 57 67  1  0
 58 60  1  0
 59 65  1  0
 60 61  2  0
 60 59  1  0
 62 56  2  0
 63 62  1  0
 63 58  2  0
 64 58  1  0
 64 57  1  0
 65 55  1  0
 67 69  2  0
 68 67  1  0
 70 68  1  0
 71 80  2  0
 71 76  1  0
 72 68  1  0
 72 76  1  0
 73 72  1  0
 74 75  1  0
 74 73  1  0
 75 71  1  0
 76 77  2  0
 77 78  1  0
 79 78  2  0
 80 79  1  0
 81 55  1  0
 81 86  1  0
 81 82  1  0
 82 85  1  1
 82 83  1  0
 84 82  1  0
 86 89  1  0
 87 91  1  0
 87 86  1  0
 88 87  2  0
 91 90  1  0
 93 91  1  0
 93 94  1  0
 93 92  1  0
M  ISO  4   1 100  21 100  53 101  54 101
M  END
>  <TORSDO>  (12) 
F 16

>  <SCORE>  (12) 
-13.399

>  <name>  (12) 
11

>  <ligand_id>  (12) 
11

>  <original_smiles>  (12) 
[H]c1c([H])c([H])c2c(c1[H])C([H])([H])C([H])([H])C([H])([H])C2([H])N([H])C(=O)C1([H])N(C(=O)C([H])(N([H])C(=O)C([H])(N([H])C([H])([H])[H])C([H])([H])[H])C(C([H])([H])[H])(C([H])([H])[H])C([H])([H])[H])C([H])([H])c2c([H])c(OC3([H])C([H])([H])C([H])(c4c(C([H])([H])[H])c([H])c5c(c4C([H])([H])[H])N(C(=O)N4C([H])([H])C([H])([H])C([H])([H])C([H])(n6nc(-c7c([H])c([H])c(Oc8c([H])c([H])c(F)c([H])c8F)c([H])c7[H])c(C(=O)N([H])[H])c6N([H])[H])C4([H])[H])C(C([H])([H])[H])(C([H])([H])[H])C5([H])[H])C3([H])[H])c([H])c([H])c2C1([H])[H]

>  <smiles>  (12) 
[H]c1c([H])c([H])c2c(c1[H])C([H])([H])C([H])([H])C([H])([H])C2([H])N([H])C(=O)C1([H])N(C(=O)C([H])(N([H])C(=O)C([H])(N([H])C([H])([H])[H])C([H])([H])[H])C(C([H])([H])[H])(C([H])([H])[H])C([H])([H])[H])C([H])([H])c2c([H])c(OC3([H])C([H])([H])C([H])(c4c(C([H])([H])[H])c([H])c5c(c4C([H])([H])[H])N(C(=O)N4C([H])([H])C([H])([H])C([H])([H])C([H])(n6nc(-c7c([H])c([H])c(Oc8c([H])c([H])c(F)c([H])c8F)c([H])c7[H])c(C(=O)N([H])[H])c6N([H])[H])C4([H])[H])C(C([H])([H])[H])(C([H])([H])[H])C5([H])[H])C3([H])[H])c([H])c([H])c2C1([H])[H]

$$$$
12:0:0
     RDKit          3D

 99110  0  0  1  0  0  0  0  0999 V2000
  -31.2830  -15.2650   19.0200 C   0  0  0  0  0  0  0  0  0  0  0  0
  -31.1580  -12.7380   18.6860 C   0  0  0  0  0  2  0  0  0  0  0  0
  -30.1330  -12.3700   17.5860 C   0  0  0  0  0  2  0  0  0  0  0  0
  -28.7170  -12.2500   18.1790 C   0  0  0  0  0  2  0  0  0  0  0  0
  -28.3760  -13.4330   19.1230 C   0  0  0  0  0  3  0  0  0  0  0  0
  -29.5140  -13.7380   20.1240 C   0  0  0  0  0  2  0  0  0  0  0  0
  -30.7200  -14.0190   19.3300 N   0  0  0  0  0  0  0  0  0  0  0  0
  -32.4330  -15.2560   18.5670 O   0  0  0  0  0  0  0  0  0  0  0  0
  -29.6970  -21.7340   17.4880 C   0  0  0  0  0  3  0  0  0  0  0  0
  -29.0870  -20.4670   17.7760 C   0  0  0  0  0  3  0  0  0  0  0  0
  -31.1820  -21.8170   17.7660 C   0  0  0  0  0  0  0  0  0  0  0  0
  -31.9800  -20.5330   17.7790 C   0  0  0  0  0  3  0  0  0  0  0  0
  -30.6460  -17.9710   18.5460 C   0  0  0  0  0  3  0  0  0  0  0  0
  -33.0640  -20.2710   18.7580 C   0  0  0  0  0  2  0  0  0  0  0  0
  -33.4810  -17.9950   20.0070 C   0  0  0  0  0  2  0  0  0  0  0  0
  -34.2520  -17.9360   18.7050 C   0  0  0  0  0  2  0  0  0  0  0  0
  -29.5160  -19.1670   18.7690 C   0  0  0  0  0  3  0  0  0  0  0  0
  -32.9990  -18.7750   18.8040 C   0  0  2  0  0  0  0  0  0  0  0  0
  -27.7160  -20.1710   17.1770 C   0  0  0  0  0  1  0  0  0  0  0  0
  -31.6080  -19.4980   17.0920 N   0  0  0  0  0  2  0  0  0  0  0  0
  -31.8100  -18.4380   17.9810 N   0  0  0  0  0  0  0  0  0  0  0  0
  -30.4610  -16.6060   19.0290 N   0  0  0  0  0  0  0  0  0  0  0  0
  -31.7500  -22.8910   17.9910 O   0  0  0  0  0  0  0  0  0  0  0  0
  -29.5350  -16.5410   19.4170 H   0  0  0  0  0  0  0  0  0  0  0  0
  -26.2410  -14.2380   20.2730 C   0  0  0  0  0  0  0  0  0  0  0  0
  -25.1370  -13.5800   20.7380 C   0  0  0  0  0  0  0  0  0  0  0  0
  -25.3840  -12.1900   20.5140 C   0  0  0  0  0  0  0  0  0  0  0  0
  -27.0930  -13.2610   19.7920 N   0  0  0  0  0  0  0  0  0  0  0  0
  -26.5970  -12.0130   20.0010 N   0  0  0  0  0  0  0  0  0  0  0  0
  -24.5090  -11.0240   20.6980 C   0  0  0  0  0  0  0  0  0  0  0  0
  -24.8970   -9.9260   21.4980 C   0  0  0  0  0  3  0  0  0  0  0  0
  -24.0290   -8.8280   21.6760 C   0  0  0  0  0  3  0  0  0  0  0  0
  -22.7580   -8.8200   21.0540 C   0  0  0  0  0  0  0  0  0  0  0  0
  -22.3860   -9.9040   20.2380 C   0  0  0  0  0  3  0  0  0  0  0  0
  -23.2530  -10.9940   20.0590 C   0  0  0  0  0  3  0  0  0  0  0  0
  -21.8590   -7.7850   21.1500 O   0  0  0  0  0  0  0  0  0  0  0  0
  -21.8120   -6.9720   22.2530 C   0  0  0  0  0  0  0  0  0  0  0  0
  -21.5490   -7.4810   23.5430 C   0  0  0  0  0  3  0  0  0  0  0  0
  -21.4400   -6.6020   24.6400 C   0  0  0  0  0  3  0  0  0  0  0  0
  -21.5880   -5.2140   24.4460 C   0  0  0  0  0  0  0  0  0  0  0  0
  -21.8430   -4.7050   23.1600 C   0  0  0  0  0  3  0  0  0  0  0  0
  -21.9550   -5.5820   22.0680 C   0  0  0  0  0  0  0  0  0  0  0  0
  -22.1810   -5.0850   20.8290 F   0  0  0  0  0  0  0  0  0  0  0  0
  -21.4760   -4.3670   25.4960 F   0  0  0  0  0  0  0  0  0  0  0  0
  -23.8790  -14.2110   21.2610 C   0  0  0  0  0  0  0  0  0  0  0  0
  -23.2090  -13.5580   22.2010 N   0  0  0  0  0  0  0  0  0  0  0  0
  -23.5100  -15.3150   20.8630 O   0  0  0  0  0  0  0  0  0  0  0  0
  -23.5260  -12.6650   22.5470 H   0  0  0  0  0  0  0  0  0  0  0  0
  -22.3690  -13.9610   22.5890 H   0  0  0  0  0  0  0  0  0  0  0  0
  -26.5790  -15.5870   20.1880 N   0  0  0  0  0  0  0  0  0  0  0  0
  -25.8760  -16.2880   20.4000 H   0  0  0  0  0  0  0  0  0  0  0  0
  -27.2950  -15.9320   19.5650 H   0  0  0  0  0  0  0  0  0  0  0  0
  -28.6830  -20.0750   21.1460 C   0  0  0  0  0  2  0  0  0  0  0  0
  -29.5560  -18.8770   21.4180 C   0  0  0  0  0  2  0  0  0  0  0  0
  -29.7900  -19.7110   20.1780 C   0  0  0  0  0  3  0  0  0  0  0  0
  -30.0300  -23.3840   15.4710 C   0  0  0  0  0  1  0  0  0  0  0  0
  -29.0920  -23.0710   16.6510 C   0  0  0  0  0  3  0  0  0  0  0  0
  -28.5380  -24.5540   17.2960 C   0  0  0  0  0  2  0  0  0  0  0  0
  -27.7970  -25.7650   16.6140 O   0  0  0  0  0  0  0  0  0  0  0  0
  -24.6900  -29.9710   21.8990 C   0  0  0  0  0  0  0  0  0  0  0  0
  -26.7010  -26.5300   17.1660 C   0  0  0  0  0  0  0  0  0  0  0  0
  -23.2030  -28.9150   20.2380 C   0  0  0  0  0  3  0  0  0  0  0  0
  -24.3410  -27.9330   18.1480 C   0  0  0  0  0  0  0  0  0  0  0  0
  -25.6200  -29.5140   19.5920 C   0  0  0  0  0  2  0  0  0  0  0  0
  -25.6090  -28.3520   18.5760 C   0  0  0  0  0  0  0  0  0  0  0  0
  -26.7820  -27.6740   18.0660 C   0  0  0  0  0  3  0  0  0  0  0  0
  -25.3930  -26.2040   16.7550 C   0  0  0  0  0  3  0  0  0  0  0  0
  -24.2410  -26.8790   17.2230 C   0  0  0  0  0  3  0  0  0  0  0  0
  -23.1210  -28.6430   18.7100 C   0  0  0  0  0  2  0  0  0  0  0  0
  -24.5360  -29.4760   20.6290 N   0  0  0  0  0  0  0  0  0  0  0  0
  -23.7530  -29.9720   22.7130 O   0  0  0  0  0  0  0  0  0  0  0  0
  -22.8390  -27.6190   21.0070 C   0  0  0  0  0  0  0  0  0  0  0  0
  -21.5380  -27.2790   21.0620 N   0  0  0  0  0  0  0  0  0  0  0  0
  -23.7240  -26.9290   21.5220 O   0  0  0  0  0  0  0  0  0  0  0  0
  -20.8700  -27.8940   20.6170 H   0  0  0  0  0  0  0  0  0  0  0  0
  -18.4840  -25.4200   21.6540 C   0  0  0  0  0  0  0  0  0  0  0  0
  -20.9880  -26.0710   21.6830 C   0  0  0  0  0  3  0  0  0  0  0  0
  -21.2120  -24.8300   20.7850 C   0  0  0  0  0  2  0  0  0  0  0  0
  -20.0280  -24.5350   19.8590 C   0  0  0  0  0  2  0  0  0  0  0  0
  -18.7540  -24.2950   20.6720 C   0  0  0  0  0  2  0  0  0  0  0  0
  -19.5300  -26.2630   22.1190 C   0  0  0  0  0  0  0  0  0  0  0  0
  -19.2150  -27.3140   23.0070 C   0  0  0  0  0  3  0  0  0  0  0  0
  -17.8880  -27.5260   23.4310 C   0  0  0  0  0  3  0  0  0  0  0  0
  -16.8620  -26.6770   22.9810 C   0  0  0  0  0  3  0  0  0  0  0  0
  -17.1610  -25.6260   22.0970 C   0  0  0  0  0  3  0  0  0  0  0  0
  -26.0440  -30.5730   22.3820 C   0  0  0  0  0  3  0  0  0  0  0  0
  -25.7400  -31.6960   23.2860 N   0  0  0  0  0  0  0  0  0  0  0  0
  -25.9710  -32.9850   23.0040 C   0  0  0  0  0  0  0  0  0  0  0  0
  -26.5230  -33.3520   21.9640 O   0  0  0  0  0  0  0  0  0  0  0  0
  -25.2400  -31.4730   24.1320 H   0  0  0  0  0  0  0  0  0  0  0  0
  -24.2470  -34.7400   23.5280 C   0  0  0  0  0  1  0  0  0  0  0  0
  -25.5130  -34.0320   24.0370 C   0  0  0  0  0  3  0  0  0  0  0  0
  -27.6800  -34.4900   25.1010 C   0  0  0  0  0  1  0  0  0  0  0  0
  -26.5490  -35.0390   24.3560 N   0  0  0  0  0  0  0  0  0  0  0  0
  -26.1520  -35.8060   24.8930 H   0  0  0  0  0  0  0  0  0  0  0  0
  -26.9650  -29.5190   23.1110 C   0  0  1  0  0  0  0  0  0  0  0  0
  -26.2510  -28.7510   24.2490 C   0  0  0  0  0  1  0  0  0  0  0  0
  -27.5030  -28.4720   22.1080 C   0  0  0  0  0  1  0  0  0  0  0  0
  -28.2000  -30.2290   23.7110 C   0  0  0  0  0  1  0  0  0  0  0  0
  1 22  1  0
  1  7  1  0
  2  7  1  0
  3  4  1  0
  3  2  1  0
  5  4  1  0
  5 28  1  0
  5  6  1  0
  7  6  1  0
  8  1  2  0
  9 57  1  0
  9 11  1  0
  9 10  1  0
 10 19  1  0
 10 17  1  0
 11 12  1  0
 11 23  2  0
 12 14  1  0
 13 17  1  0
 13 22  1  0
 18 14  1  1
 16 18  1  0
 16 15  1  0
 17 55  1  0
 18 15  1  0
 20 12  1  0
 21 20  1  0
 21 13  1  0
 21 18  1  0
 22 24  1  0
 25 26  2  0
 26 45  1  0
 27 30  1  0
 27 26  1  0
 28 29  1  0
 28 25  1  0
 29 27  2  0
 30 31  1  0
 31 32  2  0
 33 36  1  0
 33 32  1  0
 34 33  2  0
 35 34  1  0
 35 30  2  0
 36 37  1  0
 37 38  1  0
 38 39  2  0
 40 39  1  0
 40 44  1  0
 41 40  2  0
 42 37  2  0
 42 41  1  0
 43 42  1  0
 45 46  1  0
 46 48  1  0
 46 49  1  0
 47 45  2  0
 50 25  1  0
 50 51  1  0
 52 50  1  0
 53 54  1  0
 55 53  1  0
 55 54  1  0
 57 56  1  0
 57 58  1  0
 59 61  1  0
 59 58  1  0
 60 71  2  0
 61 66  1  0
 62 70  1  0
 62 72  1  0
 63 65  1  0
 63 69  1  0
 64 70  1  0
 65 64  1  0
 66 65  2  0
 67 61  2  0
 67 68  1  0
 68 63  2  0
 69 62  1  0
 70 60  1  0
 72 73  1  0
 72 74  2  0
 75 73  1  0
 76 85  2  0
 76 81  1  0
 77 73  1  0
 77 81  1  0
 78 77  1  0
 79 80  1  0
 79 78  1  0
 80 76  1  0
 81 82  2  0
 82 83  1  0
 84 83  2  0
 85 84  1  0
 86 60  1  0
 86 96  1  0
 86 87  1  0
 87 90  1  0
 88 87  1  0
 88 92  1  0
 89 88  2  0
 92 91  1  0
 92 94  1  0
 94 95  1  0
 94 93  1  0
 96 99  1  1
 96 97  1  0
 98 96  1  0
M  ISO  4   1 100  22 100  58 101  59 101
M  END
>  <TORSDO>  (13) 
F 18

>  <SCORE>  (13) 
-9.417

>  <name>  (13) 
12

>  <ligand_id>  (13) 
12

>  <original_smiles>  (13) 
[H]c1c([H])c([H])c2c(c1[H])C([H])([H])C([H])([H])C([H])([H])C2([H])N([H])C(=O)C1([H])N(C(=O)C([H])(N([H])C(=O)C([H])(N([H])C([H])([H])[H])C([H])([H])[H])C(C([H])([H])[H])(C([H])([H])[H])C([H])([H])[H])C([H])([H])c2c([H])c(OC([H])([H])C([H])(C3=C(C([H])([H])[H])C([H])(C4([H])C([H])([H])C4([H])[H])C(=[N+]([H])C(=O)N4C([H])([H])C([H])([H])C([H])([H])C([H])(n5nc(-c6c([H])c([H])c(Oc7c([H])c([H])c(F)c([H])c7F)c([H])c6[H])c(C(=O)N([H])[H])c5N([H])[H])C4([H])[H])N4N=C(C3=O)C([H])([H])C43C([H])([H])C3([H])[H])C([H])([H])[H])c([H])c([H])c2C1([H])[H]

>  <smiles>  (13) 
[H]c1c([H])c([H])c2c(c1[H])C([H])([H])C([H])([H])C([H])([H])C2([H])N([H])C(=O)C1([H])N(C(=O)C([H])(N([H])C(=O)C([H])(N([H])C([H])([H])[H])C([H])([H])[H])C(C([H])([H])[H])(C([H])([H])[H])C([H])([H])[H])C([H])([H])c2c([H])c(OC([H])([H])C([H])(C3=C(C([H])([H])[H])C([H])(C4([H])C([H])([H])C4([H])[H])C(=[N+]([H])C(=O)N4C([H])([H])C([H])([H])C([H])([H])C([H])(n5nc(-c6c([H])c([H])c(Oc7c([H])c([H])c(F)c([H])c7F)c([H])c6[H])c(C(=O)N([H])[H])c5N([H])[H])C4([H])[H])N4N=C(C3=O)C([H])([H])C43C([H])([H])C3([H])[H])C([H])([H])[H])c([H])c([H])c2C1([H])[H]

$$$$
13:0:0
     RDKit          3D

 92102  0  0  1  0  0  0  0  0999 V2000
  -30.3620  -21.5530   20.7340 C   0  0  0  0  0  3  0  0  0  0  0  0
  -30.1070  -22.9780   20.5860 C   0  0  0  0  0  3  0  0  0  0  0  0
  -29.4340  -20.7680   20.0840 C   0  0  0  0  0  0  0  0  0  0  0  0
  -28.9890  -23.2340   19.8250 C   0  0  0  0  0  0  0  0  0  0  0  0
  -28.5840  -21.8420   19.5340 N   0  0  0  0  0  0  0  0  0  0  0  0
  -30.7410  -15.1820   19.8840 C   0  0  0  0  0  0  0  0  0  0  0  0
  -30.5580  -12.8070   18.9490 C   0  0  0  0  0  2  0  0  0  0  0  0
  -29.5590  -12.7140   17.7720 C   0  0  0  0  0  2  0  0  0  0  0  0
  -28.1270  -12.4860   18.2910 C   0  0  0  0  0  2  0  0  0  0  0  0
  -27.7810  -13.4090   19.4870 C   0  0  0  0  0  3  0  0  0  0  0  0
  -28.9050  -13.4530   20.5440 C   0  0  0  0  0  2  0  0  0  0  0  0
  -30.1150  -13.9200   19.8520 N   0  0  0  0  0  0  0  0  0  0  0  0
  -31.9190  -15.1770   19.5030 O   0  0  0  0  0  0  0  0  0  0  0  0
  -28.8480  -18.3190   21.2450 C   0  0  0  0  0  2  0  0  0  0  0  0
  -28.9870  -16.7610   21.0050 C   0  0  0  0  0  2  0  0  0  0  0  0
  -29.2740  -19.0900   19.9780 C   0  0  0  0  0  3  0  0  0  0  0  0
  -30.4060  -17.9310   19.5870 C   0  0  0  0  0  3  0  0  0  0  0  0
  -30.7490  -17.9910   18.0910 C   0  0  0  0  0  1  0  0  0  0  0  0
  -30.0460  -16.4580   20.0260 N   0  0  0  0  0  0  0  0  0  0  0  0
  -25.4620  -13.9660   20.4070 C   0  0  0  0  0  0  0  0  0  0  0  0
  -24.4230  -13.1840   20.8260 C   0  0  0  0  0  0  0  0  0  0  0  0
  -24.8760  -11.8330   20.7200 C   0  0  0  0  0  0  0  0  0  0  0  0
  -26.4810  -13.0940   20.0690 N   0  0  0  0  0  0  0  0  0  0  0  0
  -26.1430  -11.8020   20.3220 N   0  0  0  0  0  0  0  0  0  0  0  0
  -24.1530  -10.5700   20.9160 C   0  0  0  0  0  0  0  0  0  0  0  0
  -24.5970   -9.5990   21.8410 C   0  0  0  0  0  3  0  0  0  0  0  0
  -23.8720   -8.4020   22.0260 C   0  0  0  0  0  3  0  0  0  0  0  0
  -22.6880   -8.1680   21.2880 C   0  0  0  0  0  0  0  0  0  0  0  0
  -22.2620   -9.1280   20.3530 C   0  0  0  0  0  3  0  0  0  0  0  0
  -22.9880  -10.3150   20.1650 C   0  0  0  0  0  3  0  0  0  0  0  0
  -21.9330   -7.0240   21.3840 O   0  0  0  0  0  0  0  0  0  0  0  0
  -21.8360   -6.3220   22.5590 C   0  0  0  0  0  0  0  0  0  0  0  0
  -21.3540   -6.9170   23.7450 C   0  0  0  0  0  3  0  0  0  0  0  0
  -21.2050   -6.1400   24.9110 C   0  0  0  0  0  3  0  0  0  0  0  0
  -21.5300   -4.7700   24.8930 C   0  0  0  0  0  0  0  0  0  0  0  0
  -22.0050   -4.1760   23.7110 C   0  0  0  0  0  3  0  0  0  0  0  0
  -22.1550   -4.9480   22.5470 C   0  0  0  0  0  0  0  0  0  0  0  0
  -22.5920   -4.3660   21.4040 F   0  0  0  0  0  0  0  0  0  0  0  0
  -21.3800   -4.0220   26.0110 F   0  0  0  0  0  0  0  0  0  0  0  0
  -23.0500  -13.6610   21.2050 C   0  0  0  0  0  0  0  0  0  0  0  0
  -22.3870  -12.9580   22.1150 N   0  0  0  0  0  0  0  0  0  0  0  0
  -22.5790  -14.6940   20.7300 O   0  0  0  0  0  0  0  0  0  0  0  0
  -22.7820  -12.1230   22.5210 H   0  0  0  0  0  0  0  0  0  0  0  0
  -21.4700  -13.2600   22.4120 H   0  0  0  0  0  0  0  0  0  0  0  0
  -25.6110  -15.3410   20.2570 N   0  0  0  0  0  0  0  0  0  0  0  0
  -24.8500  -15.9840   20.4380 H   0  0  0  0  0  0  0  0  0  0  0  0
  -26.4190  -15.7860   19.8420 H   0  0  0  0  0  0  0  0  0  0  0  0
  -26.1180  -22.1230   19.0690 C   0  0  0  0  0  2  0  0  0  0  0  0
  -26.3880  -20.6530   19.2480 C   0  0  0  0  0  2  0  0  0  0  0  0
  -27.4570  -21.5450   18.6550 C   0  0  0  0  0  3  0  0  0  0  0  0
  -28.2320  -24.6410   19.3070 C   0  0  0  0  0  2  0  0  0  0  0  0
  -28.5320  -26.1440   19.7180 O   0  0  0  0  0  0  0  0  0  0  0  0
  -24.6170  -31.5700   22.9830 C   0  0  0  0  0  0  0  0  0  0  0  0
  -27.4660  -27.1470   19.6890 C   0  0  0  0  0  0  0  0  0  0  0  0
  -23.5130  -30.2220   21.2440 C   0  0  0  0  0  3  0  0  0  0  0  0
  -25.0600  -28.8210   19.7360 C   0  0  0  0  0  0  0  0  0  0  0  0
  -26.0580  -30.6130   21.1370 C   0  0  0  0  0  2  0  0  0  0  0  0
  -26.2120  -29.2680   20.3950 C   0  0  0  0  0  0  0  0  0  0  0  0
  -27.4140  -28.4490   20.3560 C   0  0  0  0  0  3  0  0  0  0  0  0
  -26.2790  -26.8340   18.9850 C   0  0  0  0  0  3  0  0  0  0  0  0
  -25.1100  -27.6220   19.0160 C   0  0  0  0  0  3  0  0  0  0  0  0
  -23.7870  -29.6530   19.8260 C   0  0  0  0  0  2  0  0  0  0  0  0
  -24.7480  -30.8230   21.8440 N   0  0  0  0  0  0  0  0  0  0  0  0
  -23.5110  -31.7630   23.5110 O   0  0  0  0  0  0  0  0  0  0  0  0
  -22.8760  -29.1210   22.1300 C   0  0  0  0  0  0  0  0  0  0  0  0
  -21.5470  -28.9350   22.0230 N   0  0  0  0  0  0  0  0  0  0  0  0
  -23.5800  -28.4400   22.8790 O   0  0  0  0  0  0  0  0  0  0  0  0
  -21.0330  -29.5400   21.3980 H   0  0  0  0  0  0  0  0  0  0  0  0
  -18.1930  -27.6750   22.5750 C   0  0  0  0  0  0  0  0  0  0  0  0
  -20.7640  -27.9180   22.7300 C   0  0  0  0  0  3  0  0  0  0  0  0
  -20.8320  -26.5560   21.9990 C   0  0  0  0  0  2  0  0  0  0  0  0
  -19.6760  -26.3430   21.0160 C   0  0  0  0  0  2  0  0  0  0  0  0
  -18.3310  -26.4100   21.7440 C   0  0  0  0  0  2  0  0  0  0  0  0
  -19.3350  -28.3920   23.0230 C   0  0  0  0  0  0  0  0  0  0  0  0
  -19.1490  -29.5780   23.7650 C   0  0  0  0  0  3  0  0  0  0  0  0
  -17.8550  -30.0500   24.0580 C   0  0  0  0  0  3  0  0  0  0  0  0
  -16.7290  -29.3300   23.6220 C   0  0  0  0  0  3  0  0  0  0  0  0
  -16.9000  -28.1440   22.8860 C   0  0  0  0  0  3  0  0  0  0  0  0
  -25.8500  -32.2330   23.6680 C   0  0  0  0  0  3  0  0  0  0  0  0
  -25.4710  -33.6060   24.0410 N   0  0  0  0  0  0  0  0  0  0  0  0
  -25.7570  -34.7020   23.3250 C   0  0  0  0  0  0  0  0  0  0  0  0
  -26.4320  -34.6650   22.2920 O   0  0  0  0  0  0  0  0  0  0  0  0
  -24.8700  -33.7050   24.8450 H   0  0  0  0  0  0  0  0  0  0  0  0
  -23.9390  -36.4220   23.0500 C   0  0  0  0  0  1  0  0  0  0  0  0
  -25.2090  -36.0510   23.8330 C   0  0  0  0  0  3  0  0  0  0  0  0
  -27.3050  -37.0190   24.6710 C   0  0  0  0  0  1  0  0  0  0  0  0
  -26.1870  -37.1570   23.7410 N   0  0  0  0  0  0  0  0  0  0  0  0
  -25.7380  -38.0510   23.9160 H   0  0  0  0  0  0  0  0  0  0  0  0
  -26.3550  -31.4400   24.9370 C   0  0  1  0  0  0  0  0  0  0  0  0
  -25.2410  -31.1390   25.9660 C   0  0  0  0  0  1  0  0  0  0  0  0
  -26.9910  -30.0920   24.5270 C   0  0  0  0  0  1  0  0  0  0  0  0
  -27.4620  -32.2490   25.6520 C   0  0  0  0  0  1  0  0  0  0  0  0
  2  1  1  0
  3  1  2  0
  4  2  2  0
  5  4  1  0
  5  3  1  0
  6 19  1  0
  7 12  1  0
  8  9  1  0
  8  7  1  0
 10  9  1  0
 10 23  1  0
 10 11  1  0
 12  6  1  0
 12 11  1  0
 13  6  2  0
 15 14  1  0
 16  3  1  0
 16 14  1  0
 17 18  1  0
 17 16  1  0
 17 19  1  0
 19 15  1  0
 20 21  2  0
 21 40  1  0
 22 21  1  0
 22 25  1  0
 23 24  1  0
 23 20  1  0
 24 22  2  0
 25 26  1  0
 26 27  2  0
 28 31  1  0
 28 27  1  0
 29 28  2  0
 30 29  1  0
 30 25  2  0
 31 32  1  0
 32 33  1  0
 33 34  2  0
 35 34  1  0
 35 39  1  0
 36 35  2  0
 37 32  2  0
 37 36  1  0
 38 37  1  0
 40 41  1  0
 41 44  1  0
 41 43  1  0
 42 40  2  0
 45 20  1  0
 45 46  1  0
 47 45  1  0
 48 49  1  0
 50 48  1  0
 50 49  1  0
 50  5  1  0
 51 52  1  0
 51  4  1  0
 53 64  2  0
 54 52  1  0
 54 59  1  0
 55 63  1  0
 55 65  1  0
 56 62  1  0
 56 58  1  0
 57 63  1  0
 58 57  1  0
 59 58  2  0
 60 61  1  0
 60 54  2  0
 61 56  2  0
 62 55  1  0
 63 53  1  0
 65 67  2  0
 66 65  1  0
 68 66  1  0
 69 78  2  0
 69 74  1  0
 70 66  1  0
 70 74  1  0
 71 70  1  0
 72 73  1  0
 72 71  1  0
 73 69  1  0
 74 75  2  0
 75 76  1  0
 77 76  2  0
 78 77  1  0
 79 53  1  0
 79 80  1  0
 79 89  1  0
 80 83  1  0
 81 85  1  0
 81 80  1  0
 82 81  2  0
 85 84  1  0
 87 85  1  0
 87 88  1  0
 87 86  1  0
 89 92  1  1
 89 90  1  0
 91 89  1  0
M  ISO  4   6 100  19 100  51 101  52 101
M  END
>  <TORSDO>  (14) 
F 18

>  <SCORE>  (14) 
-12.913

>  <name>  (14) 
13

>  <ligand_id>  (14) 
13

>  <original_smiles>  (14) 
[H]c1c([H])c([H])c2c(c1[H])C([H])([H])C([H])([H])C([H])([H])C2([H])N([H])C(=O)C1([H])N(C(=O)C([H])(N([H])C(=O)C([H])(N([H])C([H])([H])[H])C([H])([H])[H])C(C([H])([H])[H])(C([H])([H])[H])C([H])([H])[H])C([H])([H])c2c([H])c(OC([H])([H])c3c([H])c([H])c(C4([H])C([H])([H])C([H])([H])N(C(=O)N5C([H])([H])C([H])([H])C([H])([H])C([H])(n6nc(-c7c([H])c([H])c(Oc8c([H])c([H])c(F)c([H])c8F)c([H])c7[H])c(C(=O)N([H])[H])c6N([H])[H])C5([H])[H])C4([H])C([H])([H])[H])n3C3([H])C([H])([H])C3([H])[H])c([H])c([H])c2C1([H])[H]

>  <smiles>  (14) 
[H]c1c([H])c([H])c2c(c1[H])C([H])([H])C([H])([H])C([H])([H])C2([H])N([H])C(=O)C1([H])N(C(=O)C([H])(N([H])C(=O)C([H])(N([H])C([H])([H])[H])C([H])([H])[H])C(C([H])([H])[H])(C([H])([H])[H])C([H])([H])[H])C([H])([H])c2c([H])c(OC([H])([H])c3c([H])c([H])c(C4([H])C([H])([H])C([H])([H])N(C(=O)N5C([H])([H])C([H])([H])C([H])([H])C([H])(n6nc(-c7c([H])c([H])c(Oc8c([H])c([H])c(F)c([H])c8F)c([H])c7[H])c(C(=O)N([H])[H])c6N([H])[H])C5([H])[H])C4([H])C([H])([H])[H])n3C3([H])C([H])([H])C3([H])[H])c([H])c([H])c2C1([H])[H]

$$$$
14:0:0
     RDKit          3D

 96107  0  0  1  0  0  0  0  0999 V2000
  -27.5370  -22.0880   19.1900 C   0  0  0  0  0  3  0  0  0  0  0  0
  -28.0550  -19.7550   18.7240 C   0  0  0  0  0  0  0  0  0  0  0  0
  -27.3160  -20.9290   18.4470 C   0  0  0  0  0  0  0  0  0  0  0  0
  -28.8980  -19.7010   19.8820 C   0  0  0  0  0  0  0  0  0  0  0  0
  -28.4670  -22.1330   20.2360 C   0  0  0  0  0  0  0  0  0  0  0  0
  -26.2730  -21.0110   17.3380 C   0  0  0  0  0  1  0  0  0  0  0  0
  -29.1040  -20.9140   20.5960 N   0  0  0  0  0  0  0  0  0  0  0  0
  -30.8120  -15.0230   20.5740 C   0  0  0  0  0  0  0  0  0  0  0  0
  -30.6720  -12.6920   19.6260 C   0  0  0  0  0  2  0  0  0  0  0  0
  -29.7540  -12.6730   18.3830 C   0  0  0  0  0  2  0  0  0  0  0  0
  -28.2840  -12.4750   18.7890 C   0  0  0  0  0  2  0  0  0  0  0  0
  -27.8650  -13.3890   19.9740 C   0  0  0  0  0  3  0  0  0  0  0  0
  -28.9060  -13.4060   21.1130 C   0  0  0  0  0  2  0  0  0  0  0  0
  -30.1930  -13.7840   20.5150 N   0  0  0  0  0  0  0  0  0  0  0  0
  -32.0130  -15.0830   20.2960 O   0  0  0  0  0  0  0  0  0  0  0  0
  -30.5080  -17.6030   21.2740 C   0  0  0  0  0  2  0  0  0  0  0  0
  -28.9350  -16.8400   20.1920 C   0  0  0  0  0  2  0  0  0  0  0  0
  -29.6490  -18.2550   20.1370 C   0  0  0  0  0  3  0  0  0  0  0  0
  -30.0950  -16.2010   20.8690 N   0  0  0  0  0  0  0  0  0  0  0  0
  -25.4720  -13.9630   20.6830 C   0  0  0  0  0  0  0  0  0  0  0  0
  -24.4070  -13.1830   21.0440 C   0  0  0  0  0  0  0  0  0  0  0  0
  -24.8710  -11.8350   20.9910 C   0  0  0  0  0  0  0  0  0  0  0  0
  -26.5210  -13.0880   20.4520 N   0  0  0  0  0  0  0  0  0  0  0  0
  -26.1640  -11.8000   20.6940 N   0  0  0  0  0  0  0  0  0  0  0  0
  -24.1410  -10.5710   21.1490 C   0  0  0  0  0  0  0  0  0  0  0  0
  -24.5730   -9.5790   22.0560 C   0  0  0  0  0  3  0  0  0  0  0  0
  -23.8400   -8.3820   22.2080 C   0  0  0  0  0  3  0  0  0  0  0  0
  -22.6630   -8.1690   21.4540 C   0  0  0  0  0  0  0  0  0  0  0  0
  -22.2530   -9.1510   20.5340 C   0  0  0  0  0  3  0  0  0  0  0  0
  -22.9830  -10.3400   20.3800 C   0  0  0  0  0  3  0  0  0  0  0  0
  -21.9030   -7.0270   21.5140 O   0  0  0  0  0  0  0  0  0  0  0  0
  -21.8360   -6.2690   22.6550 C   0  0  0  0  0  0  0  0  0  0  0  0
  -21.3380   -6.7910   23.8690 C   0  0  0  0  0  3  0  0  0  0  0  0
  -21.2230   -5.9520   24.9980 C   0  0  0  0  0  3  0  0  0  0  0  0
  -21.5960   -4.5980   24.9120 C   0  0  0  0  0  0  0  0  0  0  0  0
  -22.0880   -4.0790   23.7020 C   0  0  0  0  0  3  0  0  0  0  0  0
  -22.2060   -4.9120   22.5770 C   0  0  0  0  0  0  0  0  0  0  0  0
  -22.6580   -4.4000   21.4060 F   0  0  0  0  0  0  0  0  0  0  0  0
  -21.4800   -3.7930   25.9950 F   0  0  0  0  0  0  0  0  0  0  0  0
  -23.0080  -13.6580   21.2980 C   0  0  0  0  0  0  0  0  0  0  0  0
  -22.2650  -12.9560   22.1450 N   0  0  0  0  0  0  0  0  0  0  0  0
  -22.5810  -14.6870   20.7780 O   0  0  0  0  0  0  0  0  0  0  0  0
  -22.6240  -12.1230   22.5860 H   0  0  0  0  0  0  0  0  0  0  0  0
  -21.3150  -13.2410   22.3370 H   0  0  0  0  0  0  0  0  0  0  0  0
  -25.6220  -15.3320   20.5080 N   0  0  0  0  0  0  0  0  0  0  0  0
  -24.8190  -15.9490   20.5480 H   0  0  0  0  0  0  0  0  0  0  0  0
  -26.4290  -15.7590   20.0730 H   0  0  0  0  0  0  0  0  0  0  0  0
  -29.1300  -18.1020   16.9520 C   0  0  0  0  0  2  0  0  0  0  0  0
  -28.0100  -18.8050   16.2530 C   0  0  0  0  0  2  0  0  0  0  0  0
  -27.9380  -18.5970   17.7560 C   0  0  0  0  0  3  0  0  0  0  0  0
  -28.5410  -23.5810   20.9970 C   0  0  0  0  0  3  0  0  0  0  0  0
  -29.7740  -24.6210   23.1340 C   0  0  0  0  0  2  0  0  0  0  0  0
  -29.5770  -23.1520   23.4050 C   0  0  0  0  0  2  0  0  0  0  0  0
  -29.7190  -23.6430   21.9700 C   0  0  0  0  0  3  0  0  0  0  0  0
  -28.4420  -24.9810   20.1010 C   0  0  0  0  0  2  0  0  0  0  0  0
  -28.4090  -26.4310   20.5950 O   0  0  0  0  0  0  0  0  0  0  0  0
  -24.6860  -31.9710   23.4660 C   0  0  0  0  0  0  0  0  0  0  0  0
  -27.3090  -27.3360   20.4570 C   0  0  0  0  0  0  0  0  0  0  0  0
  -23.5020  -30.5960   21.7930 C   0  0  0  0  0  3  0  0  0  0  0  0
  -24.9670  -29.0410   20.3790 C   0  0  0  0  0  0  0  0  0  0  0  0
  -26.0460  -30.8820   21.6600 C   0  0  0  0  0  2  0  0  0  0  0  0
  -26.1310  -29.4960   21.0080 C   0  0  0  0  0  0  0  0  0  0  0  0
  -27.3000  -28.6600   21.0300 C   0  0  0  0  0  3  0  0  0  0  0  0
  -26.1170  -26.9680   19.7800 C   0  0  0  0  0  3  0  0  0  0  0  0
  -24.9710  -27.7880   19.7500 C   0  0  0  0  0  3  0  0  0  0  0  0
  -23.7400  -29.9360   20.4080 C   0  0  0  0  0  2  0  0  0  0  0  0
  -24.7620  -31.1680   22.3630 N   0  0  0  0  0  0  0  0  0  0  0  0
  -23.5950  -32.2500   23.9890 O   0  0  0  0  0  0  0  0  0  0  0  0
  -22.8130  -29.5780   22.7350 C   0  0  0  0  0  0  0  0  0  0  0  0
  -21.4970  -29.3690   22.5530 N   0  0  0  0  0  0  0  0  0  0  0  0
  -23.4640  -28.9870   23.5980 O   0  0  0  0  0  0  0  0  0  0  0  0
  -21.0250  -29.9060   21.8380 H   0  0  0  0  0  0  0  0  0  0  0  0
  -18.1280  -28.1010   22.9320 C   0  0  0  0  0  0  0  0  0  0  0  0
  -20.6660  -28.4270   23.3050 C   0  0  0  0  0  3  0  0  0  0  0  0
  -20.8210  -26.9890   22.7620 C   0  0  0  0  0  2  0  0  0  0  0  0
  -19.7710  -26.6240   21.7050 C   0  0  0  0  0  2  0  0  0  0  0  0
  -18.3610  -26.7450   22.2850 C   0  0  0  0  0  2  0  0  0  0  0  0
  -19.2090  -28.8940   23.3980 C   0  0  0  0  0  0  0  0  0  0  0  0
  -18.9350  -30.1590   23.9600 C   0  0  0  0  0  3  0  0  0  0  0  0
  -17.6140  -30.6350   24.0560 C   0  0  0  0  0  3  0  0  0  0  0  0
  -16.5470  -29.8400   23.6050 C   0  0  0  0  0  3  0  0  0  0  0  0
  -16.8040  -28.5730   23.0500 C   0  0  0  0  0  3  0  0  0  0  0  0
  -25.9650  -32.5970   24.1080 C   0  0  0  0  0  3  0  0  0  0  0  0
  -26.4320  -31.8420   25.4120 C   0  0  1  0  0  0  0  0  0  0  0  0
  -25.2940  -31.5650   26.4180 C   0  0  0  0  0  1  0  0  0  0  0  0
  -27.0800  -30.4850   25.0570 C   0  0  0  0  0  1  0  0  0  0  0  0
  -27.5110  -32.6740   26.1410 C   0  0  0  0  0  1  0  0  0  0  0  0
  -25.6750  -34.0080   24.4010 N   0  0  0  0  0  0  0  0  0  0  0  0
  -25.9860  -35.0350   23.5980 C   0  0  0  0  0  0  0  0  0  0  0  0
  -26.6260  -34.8970   22.5510 O   0  0  0  0  0  0  0  0  0  0  0  0
  -25.1190  -34.1920   25.2230 H   0  0  0  0  0  0  0  0  0  0  0  0
  -24.2210  -36.7940   23.2830 C   0  0  0  0  0  1  0  0  0  0  0  0
  -25.5170  -36.4370   24.0280 C   0  0  0  0  0  3  0  0  0  0  0  0
  -27.6890  -37.3790   24.6800 C   0  0  0  0  0  1  0  0  0  0  0  0
  -26.5270  -37.4970   23.8020 N   0  0  0  0  0  0  0  0  0  0  0  0
  -26.1170  -38.4180   23.9400 H   0  0  0  0  0  0  0  0  0  0  0  0
  1  5  1  0
  2  4  2  0
  3  2  1  0
  3  1  2  0
  4  7  1  0
  5  7  2  0
  5 51  1  0
  6  3  1  0
  8 19  1  0
  9 14  1  0
 10 11  1  0
 10  9  1  0
 12 11  1  0
 12 23  1  0
 12 13  1  0
 14  8  1  0
 14 13  1  0
 15  8  2  0
 17 19  1  0
 18  4  1  0
 18 17  1  0
 18 16  1  0
 19 16  1  0
 20 21  2  0
 21 40  1  0
 22 21  1  0
 22 25  1  0
 23 20  1  0
 23 24  1  0
 24 22  2  0
 25 26  1  0
 26 27  2  0
 28 31  1  0
 28 27  1  0
 29 28  2  0
 30 29  1  0
 30 25  2  0
 31 32  1  0
 32 33  1  0
 33 34  2  0
 35 34  1  0
 35 39  1  0
 36 35  2  0
 37 32  2  0
 37 36  1  0
 38 37  1  0
 40 41  1  0
 41 44  1  0
 41 43  1  0
 42 40  2  0
 45 46  1  0
 45 20  1  0
 47 45  1  0
 48 50  1  0
 49 48  1  0
 49 50  1  0
 50  2  1  0
 51 55  1  0
 51 54  1  0
 52 53  1  0
 54 52  1  0
 54 53  1  0
 55 56  1  0
 57 68  2  0
 58 56  1  0
 58 63  1  0
 59 67  1  0
 59 69  1  0
 60 66  1  0
 60 62  1  0
 61 67  1  0
 62 63  2  0
 62 61  1  0
 64 58  2  0
 65 64  1  0
 65 60  2  0
 66 59  1  0
 67 57  1  0
 69 71  2  0
 70 69  1  0
 72 70  1  0
 73 82  2  0
 73 78  1  0
 74 70  1  0
 74 78  1  0
 75 74  1  0
 76 77  1  0
 76 75  1  0
 77 73  1  0
 78 79  2  0
 79 80  1  0
 81 80  2  0
 82 81  1  0
 83 57  1  0
 83 88  1  0
 83 84  1  0
 84 87  1  1
 84 85  1  0
 86 84  1  0
 88 91  1  0
 89 93  1  0
 89 88  1  0
 90 89  2  0
 93 92  1  0
 95 96  1  0
 95 93  1  0
 95 94  1  0
M  ISO  4   8 100  19 100  55 101  56 101
M  END
>  <TORSDO>  (15) 
F 20

>  <SCORE>  (15) 
-13.811

>  <name>  (15) 
14

>  <ligand_id>  (15) 
14

>  <original_smiles>  (15) 
[H]c1c([H])c([H])c2c(c1[H])C([H])([H])C([H])([H])C([H])([H])C2([H])N([H])C(=O)C1([H])N(C(=O)C([H])(N([H])C(=O)C([H])(N([H])C([H])([H])[H])C([H])([H])[H])C(C([H])([H])[H])(C([H])([H])[H])C([H])([H])[H])C([H])([H])c2c([H])c(OC([H])([H])C([H])(c3nc(C4([H])C([H])([H])N(C(=O)N5C([H])([H])C([H])([H])C([H])([H])C([H])(n6nc(-c7c([H])c([H])c(Oc8c([H])c([H])c(F)c([H])c8F)c([H])c7[H])c(C(=O)N([H])[H])c6N([H])[H])C5([H])[H])C4([H])[H])c(C4([H])C([H])([H])C4([H])[H])c(C([H])([H])[H])c3[H])C3([H])C([H])([H])C3([H])[H])c([H])c([H])c2C1([H])[H]

>  <smiles>  (15) 
[H]c1c([H])c([H])c2c(c1[H])C([H])([H])C([H])([H])C([H])([H])C2([H])N([H])C(=O)C1([H])N(C(=O)C([H])(N([H])C(=O)C([H])(N([H])C([H])([H])[H])C([H])([H])[H])C(C([H])([H])[H])(C([H])([H])[H])C([H])([H])[H])C([H])([H])c2c([H])c(OC([H])([H])C([H])(c3nc(C4([H])C([H])([H])N(C(=O)N5C([H])([H])C([H])([H])C([H])([H])C([H])(n6nc(-c7c([H])c([H])c(Oc8c([H])c([H])c(F)c([H])c8F)c([H])c7[H])c(C(=O)N([H])[H])c6N([H])[H])C5([H])[H])C4([H])[H])c(C4([H])C([H])([H])C4([H])[H])c(C([H])([H])[H])c3[H])C3([H])C([H])([H])C3([H])[H])c([H])c([H])c2C1([H])[H]

$$$$
15:0:0
     RDKit          3D

 92101  0  0  1  0  0  0  0  0999 V2000
  -28.2950  -20.2550   17.8730 C   0  0  0  0  0  3  0  0  0  0  0  0
  -28.5990  -19.0900   18.5960 C   0  0  0  0  0  3  0  0  0  0  0  0
  -28.2930  -21.4940   18.5410 C   0  0  0  0  0  3  0  0  0  0  0  0
  -28.8960  -19.1890   19.9690 C   0  0  0  0  0  0  0  0  0  0  0  0
  -28.5800  -21.5350   19.9200 C   0  0  0  0  0  0  0  0  0  0  0  0
  -28.8680  -20.3980   20.6100 N   0  0  0  0  0  0  0  0  0  0  0  0
  -30.7070  -14.5320   20.2950 C   0  0  0  0  0  0  0  0  0  0  0  0
  -30.3660  -12.3610   19.1520 C   0  0  0  0  0  2  0  0  0  0  0  0
  -29.3750  -12.4970   17.9790 C   0  0  0  0  0  2  0  0  0  0  0  0
  -27.9240  -12.3500   18.4730 C   0  0  0  0  0  2  0  0  0  0  0  0
  -27.6200  -13.2180   19.7210 C   0  0  0  0  0  3  0  0  0  0  0  0
  -28.7160  -13.0500   20.7980 C   0  0  0  0  0  2  0  0  0  0  0  0
  -30.0080  -13.3650   20.1740 N   0  0  0  0  0  0  0  0  0  0  0  0
  -31.8380  -14.6500   19.8160 O   0  0  0  0  0  0  0  0  0  0  0  0
  -30.6680  -17.9290   21.3530 C   0  0  0  0  0  2  0  0  0  0  0  0
  -30.8880  -16.4710   21.7930 C   0  0  0  0  0  2  0  0  0  0  0  0
  -29.2130  -16.5230   20.1430 C   0  0  0  0  0  2  0  0  0  0  0  0
  -29.2550  -17.9320   20.8120 C   0  0  0  0  0  3  0  0  0  0  0  0
  -30.0980  -15.5980   20.9050 N   0  0  0  0  0  0  0  0  0  0  0  0
  -25.2630  -13.8460   20.5360 C   0  0  0  0  0  0  0  0  0  0  0  0
  -24.1990  -13.0820   20.9260 C   0  0  0  0  0  0  0  0  0  0  0  0
  -24.6410  -11.7250   20.8580 C   0  0  0  0  0  0  0  0  0  0  0  0
  -26.2860  -12.9560   20.2520 N   0  0  0  0  0  0  0  0  0  0  0  0
  -25.9200  -11.6740   20.5100 N   0  0  0  0  0  0  0  0  0  0  0  0
  -23.9060  -10.4700   21.0490 C   0  0  0  0  0  0  0  0  0  0  0  0
  -24.3490   -9.4900   21.9640 C   0  0  0  0  0  3  0  0  0  0  0  0
  -23.6160   -8.2970   22.1430 C   0  0  0  0  0  3  0  0  0  0  0  0
  -22.4290   -8.0750   21.4070 C   0  0  0  0  0  0  0  0  0  0  0  0
  -22.0060   -9.0450   20.4800 C   0  0  0  0  0  3  0  0  0  0  0  0
  -22.7380  -10.2290   20.3000 C   0  0  0  0  0  3  0  0  0  0  0  0
  -21.6660   -6.9370   21.4960 O   0  0  0  0  0  0  0  0  0  0  0  0
  -21.6200   -6.1880   22.6440 C   0  0  0  0  0  0  0  0  0  0  0  0
  -21.1780   -6.7330   23.8700 C   0  0  0  0  0  3  0  0  0  0  0  0
  -21.0800   -5.9140   25.0120 C   0  0  0  0  0  3  0  0  0  0  0  0
  -21.4160   -4.5490   24.9300 C   0  0  0  0  0  0  0  0  0  0  0  0
  -21.8530   -4.0040   23.7100 C   0  0  0  0  0  3  0  0  0  0  0  0
  -21.9520   -4.8210   22.5710 C   0  0  0  0  0  0  0  0  0  0  0  0
  -22.3510   -4.2860   21.3920 F   0  0  0  0  0  0  0  0  0  0  0  0
  -21.3160   -3.7580   26.0240 F   0  0  0  0  0  0  0  0  0  0  0  0
  -22.8160  -13.5710   21.2490 C   0  0  0  0  0  0  0  0  0  0  0  0
  -22.1040  -12.8640   22.1170 N   0  0  0  0  0  0  0  0  0  0  0  0
  -22.3760  -14.6140   20.7670 O   0  0  0  0  0  0  0  0  0  0  0  0
  -22.4770  -12.0210   22.5320 H   0  0  0  0  0  0  0  0  0  0  0  0
  -21.1780  -13.1700   22.3770 H   0  0  0  0  0  0  0  0  0  0  0  0
  -25.4330  -15.2200   20.3770 N   0  0  0  0  0  0  0  0  0  0  0  0
  -24.6760  -15.8760   20.5400 H   0  0  0  0  0  0  0  0  0  0  0  0
  -26.2750  -15.6610   20.0290 H   0  0  0  0  0  0  0  0  0  0  0  0
  -28.5900  -22.7530   20.6420 N   0  0  0  0  0  0  0  0  0  0  0  0
  -28.9120  -22.7370   21.6040 H   0  0  0  0  0  0  0  0  0  0  0  0
  -28.3960  -24.0660   19.9840 C   0  0  0  0  0  3  0  0  0  0  0  0
  -28.3190  -25.3120   20.9360 C   0  0  0  0  0  3  0  0  0  0  0  0
  -28.4150  -26.6100   20.2840 O   0  0  0  0  0  0  0  0  0  0  0  0
  -24.5890  -31.8680   23.2300 C   0  0  0  0  0  0  0  0  0  0  0  0
  -27.2630  -27.3790   20.2430 C   0  0  0  0  0  0  0  0  0  0  0  0
  -23.4020  -30.4570   21.5820 C   0  0  0  0  0  3  0  0  0  0  0  0
  -24.8760  -28.9070   20.1830 C   0  0  0  0  0  0  0  0  0  0  0  0
  -25.9310  -30.8170   21.4040 C   0  0  0  0  0  2  0  0  0  0  0  0
  -26.0300  -29.4390   20.7750 C   0  0  0  0  0  0  0  0  0  0  0  0
  -27.2310  -28.6860   20.7890 C   0  0  0  0  0  3  0  0  0  0  0  0
  -26.0940  -26.8710   19.6400 C   0  0  0  0  0  3  0  0  0  0  0  0
  -24.9040  -27.6250   19.6060 C   0  0  0  0  0  3  0  0  0  0  0  0
  -23.6300  -29.7680   20.2060 C   0  0  0  0  0  2  0  0  0  0  0  0
  -24.6590  -31.0610   22.1330 N   0  0  0  0  0  0  0  0  0  0  0  0
  -23.5000  -32.1460   23.7500 O   0  0  0  0  0  0  0  0  0  0  0  0
  -22.7340  -29.4440   22.5440 C   0  0  0  0  0  0  0  0  0  0  0  0
  -21.4070  -29.2790   22.4150 N   0  0  0  0  0  0  0  0  0  0  0  0
  -23.4080  -28.8100   23.3590 O   0  0  0  0  0  0  0  0  0  0  0  0
  -20.9230  -29.8470   21.7330 H   0  0  0  0  0  0  0  0  0  0  0  0
  -18.0150  -28.1350   22.9290 C   0  0  0  0  0  0  0  0  0  0  0  0
  -20.5790  -28.3490   23.1800 C   0  0  0  0  0  3  0  0  0  0  0  0
  -20.6520  -26.9210   22.5920 C   0  0  0  0  0  2  0  0  0  0  0  0
  -19.5380  -26.6270   21.5830 C   0  0  0  0  0  2  0  0  0  0  0  0
  -18.1620  -26.7890   22.2380 C   0  0  0  0  0  2  0  0  0  0  0  0
  -19.1510  -28.8740   23.3540 C   0  0  0  0  0  0  0  0  0  0  0  0
  -18.9620  -30.1340   23.9610 C   0  0  0  0  0  3  0  0  0  0  0  0
  -17.6690  -30.6570   24.1470 C   0  0  0  0  0  3  0  0  0  0  0  0
  -16.5470  -29.9170   23.7370 C   0  0  0  0  0  3  0  0  0  0  0  0
  -16.7210  -28.6580   23.1350 C   0  0  0  0  0  3  0  0  0  0  0  0
  -25.8650  -32.5060   23.8610 C   0  0  0  0  0  3  0  0  0  0  0  0
  -26.3790  -31.7430   25.1450 C   0  0  1  0  0  0  0  0  0  0  0  0
  -25.2770  -31.4950   26.2010 C   0  0  0  0  0  1  0  0  0  0  0  0
  -26.9810  -30.3690   24.7640 C   0  0  0  0  0  1  0  0  0  0  0  0
  -27.5100  -32.5560   25.8220 C   0  0  0  0  0  1  0  0  0  0  0  0
  -25.5450  -33.9040   24.1800 N   0  0  0  0  0  0  0  0  0  0  0  0
  -25.8760  -34.9560   23.4190 C   0  0  0  0  0  0  0  0  0  0  0  0
  -26.5550  -34.8540   22.3930 O   0  0  0  0  0  0  0  0  0  0  0  0
  -24.9410  -34.0570   24.9720 H   0  0  0  0  0  0  0  0  0  0  0  0
  -24.1440  -36.7510   23.0520 C   0  0  0  0  0  1  0  0  0  0  0  0
  -25.3770  -36.3410   23.8730 C   0  0  0  0  0  3  0  0  0  0  0  0
  -27.4920  -37.2420   24.7350 C   0  0  0  0  0  1  0  0  0  0  0  0
  -26.4030  -37.4020   23.7760 N   0  0  0  0  0  0  0  0  0  0  0  0
  -25.9850  -38.3160   23.9240 H   0  0  0  0  0  0  0  0  0  0  0  0
  1  3  2  0
  1  2  1  0
  2  4  2  0
  3  5  1  0
  4  6  1  0
  5  6  2  0
  5 48  1  0
  7 19  1  0
  8 13  1  0
  9 10  1  0
  9  8  1  0
 11 10  1  0
 11 23  1  0
 11 12  1  0
 13  7  1  0
 13 12  1  0
 14  7  2  0
 15 16  1  0
 17 18  1  0
 17 19  1  0
 18  4  1  0
 18 15  1  0
 19 16  1  0
 20 21  2  0
 21 40  1  0
 22 21  1  0
 22 25  1  0
 23 24  1  0
 23 20  1  0
 24 22  2  0
 25 26  1  0
 26 27  2  0
 28 31  1  0
 28 27  1  0
 29 28  2  0
 30 29  1  0
 30 25  2  0
 31 32  1  0
 32 33  1  0
 33 34  2  0
 35 34  1  0
 35 39  1  0
 36 35  2  0
 37 32  2  0
 37 36  1  0
 38 37  1  0
 40 41  1  0
 41 44  1  0
 41 43  1  0
 42 40  2  0
 45 20  1  0
 45 46  1  0
 47 45  1  0
 48 49  1  0
 50 48  1  0
 50 51  2  0
 52 51  1  0
 53 64  2  0
 54 52  1  0
 54 59  1  0
 55 63  1  0
 55 65  1  0
 56 62  1  0
 56 58  1  0
 57 63  1  0
 58 59  2  0
 58 57  1  0
 60 54  2  0
 61 60  1  0
 61 56  2  0
 62 55  1  0
 63 53  1  0
 65 67  2  0
 66 65  1  0
 68 66  1  0
 69 78  2  0
 69 74  1  0
 70 66  1  0
 70 74  1  0
 71 70  1  0
 72 73  1  0
 72 71  1  0
 73 69  1  0
 74 75  2  0
 75 76  1  0
 77 76  2  0
 78 77  1  0
 79 53  1  0
 79 84  1  0
 79 80  1  0
 80 83  1  1
 80 81  1  0
 82 80  1  0
 84 87  1  0
 85 89  1  0
 85 84  1  0
 86 85  2  0
 89 88  1  0
 91 89  1  0
 91 92  1  0
 91 90  1  0
M  ISO  4   7 100  19 100  51 101  52 101
M  END
>  <TORSDO>  (16) 
F 19

>  <SCORE>  (16) 
-14.678

>  <name>  (16) 
15

>  <ligand_id>  (16) 
15

>  <original_smiles>  (16) 
[H]c1c(N([H])C([H])([H])C([H])([H])Oc2c([H])c([H])c3c(c2[H])C([H])([H])N(C(=O)C([H])(N([H])C(=O)C([H])(N([H])C([H])([H])[H])C([H])([H])[H])C(C([H])([H])[H])(C([H])([H])[H])C([H])([H])[H])C([H])(C(=O)N([H])C2([H])c4c([H])c([H])c([H])c([H])c4C([H])([H])C([H])([H])C2([H])[H])C3([H])[H])nc(C2([H])C([H])([H])N(C(=O)N3C([H])([H])C([H])([H])C([H])([H])C([H])(n4nc(-c5c([H])c([H])c(Oc6c([H])c([H])c(F)c([H])c6F)c([H])c5[H])c(C(=O)N([H])[H])c4N([H])[H])C3([H])[H])C([H])([H])C2([H])[H])c([H])c1[H]

>  <smiles>  (16) 
[H]c1c(N([H])C([H])([H])C([H])([H])Oc2c([H])c([H])c3c(c2[H])C([H])([H])N(C(=O)C([H])(N([H])C(=O)C([H])(N([H])C([H])([H])[H])C([H])([H])[H])C(C([H])([H])[H])(C([H])([H])[H])C([H])([H])[H])C([H])(C(=O)N([H])C2([H])c4c([H])c([H])c([H])c([H])c4C([H])([H])C([H])([H])C2([H])[H])C3([H])[H])nc(C2([H])C([H])([H])N(C(=O)N3C([H])([H])C([H])([H])C([H])([H])C([H])(n4nc(-c5c([H])c([H])c(Oc6c([H])c([H])c(F)c([H])c6F)c([H])c5[H])c(C(=O)N([H])[H])c4N([H])[H])C3([H])[H])C([H])([H])C2([H])[H])c([H])c1[H]

$$$$
16:0:0
     RDKit          3D

 95106  0  0  1  0  0  0  0  0999 V2000
  -28.7470  -18.3800   19.3200 C   0  0  0  0  0  3  0  0  0  0  0  0
  -29.3010  -20.6500   20.3460 C   0  0  0  0  0  3  0  0  0  0  0  0
  -29.5680  -18.9840   20.3160 C   0  0  0  0  0  0  0  0  0  0  0  0
  -28.9850  -21.0260   19.0240 C   0  0  0  0  0  3  0  0  0  0  0  0
  -27.9050  -19.1100   18.4620 C   0  0  0  0  0  0  0  0  0  0  0  0
  -28.0110  -20.4310   18.3240 N   0  0  0  0  0  0  0  0  0  0  0  0
  -30.8070  -16.1220   20.7370 C   0  0  0  0  0  0  0  0  0  0  0  0
  -30.8200  -13.6130   19.8090 C   0  0  0  0  0  2  0  0  0  0  0  0
  -30.0190  -13.2530   18.5290 C   0  0  0  0  0  2  0  0  0  0  0  0
  -28.5580  -12.9320   18.8750 C   0  0  0  0  0  2  0  0  0  0  0  0
  -28.0040  -13.9150   19.9300 C   0  0  0  0  0  3  0  0  0  0  0  0
  -28.9590  -14.1980   21.1130 C   0  0  0  0  0  2  0  0  0  0  0  0
  -30.1790  -14.8110   20.5360 N   0  0  0  0  0  0  0  0  0  0  0  0
  -32.0340  -15.9240   20.6450 O   0  0  0  0  0  0  0  0  0  0  0  0
  -30.3110  -17.6000   20.9820 N   0  0  0  0  0  0  0  0  0  0  0  0
  -31.0120  -17.9550   21.6160 H   0  0  0  0  0  0  0  0  0  0  0  0
  -25.6110  -14.4810   20.5350 C   0  0  0  0  0  0  0  0  0  0  0  0
  -24.5100  -13.7170   20.7950 C   0  0  0  0  0  0  0  0  0  0  0  0
  -24.9570  -12.3590   20.7730 C   0  0  0  0  0  0  0  0  0  0  0  0
  -26.6510  -13.5930   20.3490 N   0  0  0  0  0  0  0  0  0  0  0  0
  -26.2690  -12.3060   20.5610 N   0  0  0  0  0  0  0  0  0  0  0  0
  -24.1920  -11.1090   20.8770 C   0  0  0  0  0  0  0  0  0  0  0  0
  -24.5400  -10.1030   21.8040 C   0  0  0  0  0  3  0  0  0  0  0  0
  -23.7700   -8.9240   21.9030 C   0  0  0  0  0  3  0  0  0  0  0  0
  -22.6400   -8.7420   21.0720 C   0  0  0  0  0  0  0  0  0  0  0  0
  -22.3110   -9.7360   20.1330 C   0  0  0  0  0  3  0  0  0  0  0  0
  -23.0820  -10.9070   20.0330 C   0  0  0  0  0  3  0  0  0  0  0  0
  -21.8490   -7.6180   21.0780 O   0  0  0  0  0  0  0  0  0  0  0  0
  -21.7250   -6.8300   22.1950 C   0  0  0  0  0  0  0  0  0  0  0  0
  -21.2590   -7.3480   23.4240 C   0  0  0  0  0  3  0  0  0  0  0  0
  -21.0810   -6.4900   24.5280 C   0  0  0  0  0  3  0  0  0  0  0  0
  -21.3590   -5.1140   24.4050 C   0  0  0  0  0  0  0  0  0  0  0  0
  -21.8150   -4.5960   23.1800 C   0  0  0  0  0  3  0  0  0  0  0  0
  -21.9950   -5.4510   22.0790 C   0  0  0  0  0  0  0  0  0  0  0  0
  -22.4160   -4.9410   20.8960 F   0  0  0  0  0  0  0  0  0  0  0  0
  -21.1810   -4.2900   25.4630 F   0  0  0  0  0  0  0  0  0  0  0  0
  -23.1070  -14.2190   20.9630 C   0  0  0  0  0  0  0  0  0  0  0  0
  -22.3080  -13.5420   21.7790 N   0  0  0  0  0  0  0  0  0  0  0  0
  -22.7290  -15.2480   20.4050 O   0  0  0  0  0  0  0  0  0  0  0  0
  -22.6280  -12.7060   22.2460 H   0  0  0  0  0  0  0  0  0  0  0  0
  -21.3620  -13.8590   21.9370 H   0  0  0  0  0  0  0  0  0  0  0  0
  -25.8140  -15.8520   20.4120 N   0  0  0  0  0  0  0  0  0  0  0  0
  -25.0570  -16.5180   20.5170 H   0  0  0  0  0  0  0  0  0  0  0  0
  -26.7170  -16.2930   20.3100 H   0  0  0  0  0  0  0  0  0  0  0  0
  -30.0860  -21.4740   16.6150 C   0  0  0  0  0  2  0  0  0  0  0  0
  -30.8880  -20.3940   17.3090 C   0  0  0  0  0  2  0  0  0  0  0  0
  -30.1440  -21.4270   18.1280 C   0  0  0  0  0  3  0  0  0  0  0  0
  -29.8750  -23.6470   20.7700 C   0  0  0  0  0  2  0  0  0  0  0  0
  -29.1510  -22.3630   21.1680 C   0  0  0  0  0  3  0  0  0  0  0  0
  -28.4380  -24.1500   20.8650 C   0  0  0  0  0  3  0  0  0  0  0  0
  -28.4790  -25.8760   21.3030 O   0  0  0  0  0  0  0  0  0  0  0  0
  -24.9990  -32.4230   23.7110 C   0  0  0  0  0  0  0  0  0  0  0  0
  -27.5370  -27.1100   21.1240 C   0  0  0  0  0  0  0  0  0  0  0  0
  -23.8490  -30.9470   22.1200 C   0  0  0  0  0  3  0  0  0  0  0  0
  -25.3150  -29.1910   20.8610 C   0  0  0  0  0  0  0  0  0  0  0  0
  -26.4330  -31.0330   22.0890 C   0  0  0  0  0  2  0  0  0  0  0  0
  -26.4940  -29.5600   21.5210 C   0  0  0  0  0  0  0  0  0  0  0  0
  -27.5880  -28.5460   21.6180 C   0  0  0  0  0  3  0  0  0  0  0  0
  -26.3320  -26.9570   20.3910 C   0  0  0  0  0  3  0  0  0  0  0  0
  -25.2770  -27.9140   20.2720 C   0  0  0  0  0  3  0  0  0  0  0  0
  -24.1240  -30.1630   20.8030 C   0  0  0  0  0  2  0  0  0  0  0  0
  -25.1170  -31.5050   22.6910 N   0  0  0  0  0  0  0  0  0  0  0  0
  -23.8930  -32.7710   24.1610 O   0  0  0  0  0  0  0  0  0  0  0  0
  -23.0790  -30.0430   23.1210 C   0  0  0  0  0  0  0  0  0  0  0  0
  -21.8020  -29.7240   22.8350 N   0  0  0  0  0  0  0  0  0  0  0  0
  -23.6490  -29.6230   24.1300 O   0  0  0  0  0  0  0  0  0  0  0  0
  -21.3900  -30.1140   21.9990 H   0  0  0  0  0  0  0  0  0  0  0  0
  -18.5210  -28.1720   23.0140 C   0  0  0  0  0  0  0  0  0  0  0  0
  -20.9520  -28.8200   23.6200 C   0  0  0  0  0  3  0  0  0  0  0  0
  -21.3020  -27.3410   23.3320 C   0  0  0  0  0  2  0  0  0  0  0  0
  -20.4390  -26.7200   22.2300 C   0  0  0  0  0  2  0  0  0  0  0  0
  -18.9570  -26.7720   22.6160 C   0  0  0  0  0  2  0  0  0  0  0  0
  -19.4580  -29.1370   23.4700 C   0  0  0  0  0  0  0  0  0  0  0  0
  -19.0000  -30.4310   23.8010 C   0  0  0  0  0  3  0  0  0  0  0  0
  -17.6380  -30.7660   23.6820 C   0  0  0  0  0  3  0  0  0  0  0  0
  -16.7130  -29.8030   23.2410 C   0  0  0  0  0  3  0  0  0  0  0  0
  -17.1530  -28.5080   22.9140 C   0  0  0  0  0  3  0  0  0  0  0  0
  -26.2470  -33.0950   24.3590 C   0  0  0  0  0  3  0  0  0  0  0  0
  -26.6930  -32.4000   25.7060 C   0  0  1  0  0  0  0  0  0  0  0  0
  -25.5270  -32.1330   26.6880 C   0  0  0  0  0  1  0  0  0  0  0  0
  -27.3840  -31.0480   25.4290 C   0  0  0  0  0  1  0  0  0  0  0  0
  -27.7360  -33.2840   26.4300 C   0  0  0  0  0  1  0  0  0  0  0  0
  -25.9270  -34.5140   24.6150 N   0  0  0  0  0  0  0  0  0  0  0  0
  -26.2570  -35.5380   23.8160 C   0  0  0  0  0  0  0  0  0  0  0  0
  -26.9190  -35.3870   22.7860 O   0  0  0  0  0  0  0  0  0  0  0  0
  -25.3270  -34.7040   25.4040 H   0  0  0  0  0  0  0  0  0  0  0  0
  -24.5170  -37.3230   23.4300 C   0  0  0  0  0  1  0  0  0  0  0  0
  -25.7840  -36.9530   24.2180 C   0  0  0  0  0  3  0  0  0  0  0  0
  -27.9450  -37.8810   24.9260 C   0  0  0  0  0  1  0  0  0  0  0  0
  -26.8100  -38.0000   24.0160 N   0  0  0  0  0  0  0  0  0  0  0  0
  -26.4070  -38.9260   24.1300 H   0  0  0  0  0  0  0  0  0  0  0  0
  -26.9540  -18.5650   17.6340 O   0  0  0  0  0  0  0  0  0  0  0  0
  -26.4540  -18.6260   15.2630 C   0  0  0  0  0  2  0  0  0  0  0  0
  -27.8100  -19.2700   15.4560 C   0  0  0  0  0  2  0  0  0  0  0  0
  -27.3770  -18.1340   16.3490 C   0  0  0  0  0  3  0  0  0  0  0  0
  1  3  2  0
  2  3  1  0
  2 49  1  0
  3 15  1  0
  4 47  1  0
  4  2  1  0
  5  1  1  0
  6  5  2  0
  6  4  1  0
  7 15  1  0
  8 13  1  0
  9 10  1  0
  9  8  1  0
 11 10  1  0
 11 20  1  0
 11 12  1  0
 13  7  1  0
 13 12  1  0
 14  7  2  0
 15 16  1  0
 17 18  2  0
 18 37  1  0
 19 18  1  0
 19 22  1  0
 20 17  1  0
 20 21  1  0
 21 19  2  0
 22 23  1  0
 23 24  2  0
 25 28  1  0
 25 24  1  0
 26 25  2  0
 27 26  1  0
 27 22  2  0
 28 29  1  0
 29 30  1  0
 30 31  2  0
 32 31  1  0
 32 36  1  0
 33 32  2  0
 34 29  2  0
 34 33  1  0
 35 34  1  0
 37 38  1  0
 38 41  1  0
 38 40  1  0
 39 37  2  0
 42 43  1  0
 42 17  1  0
 44 42  1  0
 45 46  1  0
 45 47  1  0
 46 47  1  0
 48 50  1  0
 49 48  1  0
 50 49  1  0
 50 51  1  0
 52 63  2  0
 53 51  1  0
 53 58  1  0
 54 62  1  0
 54 64  1  0
 55 57  1  0
 56 62  1  0
 57 58  2  0
 57 56  1  0
 59 53  2  0
 60 59  1  0
 60 55  2  0
 61 55  1  0
 61 54  1  0
 62 52  1  0
 64 66  2  0
 65 64  1  0
 67 65  1  0
 68 73  1  0
 69 65  1  0
 70 69  1  0
 71 72  1  0
 71 70  1  0
 72 68  1  0
 73 69  1  0
 73 74  2  0
 75 74  1  0
 76 75  2  0
 77 68  2  0
 77 76  1  0
 78 52  1  0
 78 83  1  0
 78 79  1  0
 79 82  1  1
 79 80  1  0
 81 79  1  0
 83 86  1  0
 84 88  1  0
 84 83  1  0
 85 84  2  0
 88 87  1  0
 90 91  1  0
 90 88  1  0
 90 89  1  0
 92  5  1  0
 93 94  1  0
 93 95  1  0
 94 95  1  0
 95 92  1  0
M  ISO  4   7 100  15 100  50 101  51 101
M  END
>  <TORSDO>  (17) 
F 20

>  <SCORE>  (17) 
-9.672

>  <name>  (17) 
16

>  <ligand_id>  (17) 
16

>  <original_smiles>  (17) 
[H]c1c([H])c([H])c2c(c1[H])C([H])([H])C([H])([H])C([H])([H])C2([H])N([H])C(=O)C1([H])N(C(=O)C([H])(N([H])C(=O)C([H])(N([H])C([H])([H])[H])C([H])([H])[H])C(C([H])([H])[H])(C([H])([H])[H])C([H])([H])[H])C([H])([H])c2c([H])c(OC3([H])C([H])([H])C3([H])c3c(C4([H])C([H])([H])C4([H])[H])nc(OC4([H])C([H])([H])C4([H])[H])c([H])c3N([H])C(=O)N3C([H])([H])C([H])([H])C([H])([H])C([H])(n4nc(-c5c([H])c([H])c(Oc6c([H])c([H])c(F)c([H])c6F)c([H])c5[H])c(C(=O)N([H])[H])c4N([H])[H])C3([H])[H])c([H])c([H])c2C1([H])[H]

>  <smiles>  (17) 
[H]c1c([H])c([H])c2c(c1[H])C([H])([H])C([H])([H])C([H])([H])C2([H])N([H])C(=O)C1([H])N(C(=O)C([H])(N([H])C(=O)C([H])(N([H])C([H])([H])[H])C([H])([H])[H])C(C([H])([H])[H])(C([H])([H])[H])C([H])([H])[H])C([H])([H])c2c([H])c(OC3([H])C([H])([H])C3([H])c3c(C4([H])C([H])([H])C4([H])[H])nc(OC4([H])C([H])([H])C4([H])[H])c([H])c3N([H])C(=O)N3C([H])([H])C([H])([H])C([H])([H])C([H])(n4nc(-c5c([H])c([H])c(Oc6c([H])c([H])c(F)c([H])c6F)c([H])c5[H])c(C(=O)N([H])[H])c4N([H])[H])C3([H])[H])c([H])c([H])c2C1([H])[H]

$$$$
17:0:0
     RDKit          3D

 92101  0  0  1  0  0  0  0  0999 V2000
  -30.6830  -15.0160   20.2830 C   0  0  0  0  0  0  0  0  0  0  0  0
  -30.5420  -12.6640   19.3420 C   0  0  0  0  0  2  0  0  0  0  0  0
  -29.6110  -12.6490   18.1060 C   0  0  0  0  0  2  0  0  0  0  0  0
  -28.1380  -12.4800   18.5280 C   0  0  0  0  0  2  0  0  0  0  0  0
  -27.7490  -13.4120   19.7050 C   0  0  0  0  0  3  0  0  0  0  0  0
  -28.7970  -13.3760   20.8380 C   0  0  0  0  0  2  0  0  0  0  0  0
  -30.0860  -13.7570   20.2440 N   0  0  0  0  0  0  0  0  0  0  0  0
  -31.8880  -15.0820   20.0040 O   0  0  0  0  0  0  0  0  0  0  0  0
  -29.5100  -19.9480   19.3080 C   0  0  0  0  0  3  0  0  0  0  0  0
  -29.7070  -18.5010   19.2670 C   0  0  0  0  0  3  0  0  0  0  0  0
  -29.5200  -20.7060   20.5260 C   0  0  0  0  0  0  0  0  0  0  0  0
  -29.8160  -19.8190   21.6210 C   0  0  0  0  0  0  0  0  0  0  0  0
  -29.9600  -17.6850   20.4250 C   0  0  0  0  0  0  0  0  0  0  0  0
  -30.0030  -18.4370   21.5720 N   0  0  0  0  0  0  0  0  0  0  0  0
  -29.8520  -16.1590   20.4240 N   0  0  0  0  0  0  0  0  0  0  0  0
  -28.9080  -15.8620   20.6030 H   0  0  0  0  0  0  0  0  0  0  0  0
  -25.3680  -14.0550   20.3950 C   0  0  0  0  0  0  0  0  0  0  0  0
  -24.2860  -13.3080   20.7730 C   0  0  0  0  0  0  0  0  0  0  0  0
  -24.7270  -11.9490   20.7830 C   0  0  0  0  0  0  0  0  0  0  0  0
  -26.3980  -13.1510   20.1910 N   0  0  0  0  0  0  0  0  0  0  0  0
  -26.0210  -11.8820   20.4910 N   0  0  0  0  0  0  0  0  0  0  0  0
  -23.9750  -10.7060   20.9960 C   0  0  0  0  0  0  0  0  0  0  0  0
  -24.3800   -9.7510   21.9540 C   0  0  0  0  0  3  0  0  0  0  0  0
  -23.6280   -8.5730   22.1540 C   0  0  0  0  0  3  0  0  0  0  0  0
  -22.4570   -8.3410   21.3940 C   0  0  0  0  0  0  0  0  0  0  0  0
  -22.0710   -9.2830   20.4240 C   0  0  0  0  0  3  0  0  0  0  0  0
  -22.8240  -10.4520   20.2240 C   0  0  0  0  0  3  0  0  0  0  0  0
  -21.6800   -7.2130   21.5010 O   0  0  0  0  0  0  0  0  0  0  0  0
  -21.6170   -6.4910   22.6650 C   0  0  0  0  0  0  0  0  0  0  0  0
  -21.2050   -7.0750   23.8830 C   0  0  0  0  0  3  0  0  0  0  0  0
  -21.0880   -6.2790   25.0400 C   0  0  0  0  0  3  0  0  0  0  0  0
  -21.3720   -4.9010   24.9810 C   0  0  0  0  0  0  0  0  0  0  0  0
  -21.7760   -4.3180   23.7680 C   0  0  0  0  0  3  0  0  0  0  0  0
  -21.8950   -5.1090   22.6130 C   0  0  0  0  0  0  0  0  0  0  0  0
  -22.2640   -4.5370   21.4420 F   0  0  0  0  0  0  0  0  0  0  0  0
  -21.2510   -4.1360   26.0900 F   0  0  0  0  0  0  0  0  0  0  0  0
  -22.8940  -13.8170   21.0110 C   0  0  0  0  0  0  0  0  0  0  0  0
  -22.1470  -13.1690   21.8980 N   0  0  0  0  0  0  0  0  0  0  0  0
  -22.4780  -14.8260   20.4440 O   0  0  0  0  0  0  0  0  0  0  0  0
  -22.4970  -12.3530   22.3780 H   0  0  0  0  0  0  0  0  0  0  0  0
  -21.2130  -13.4940   22.1000 H   0  0  0  0  0  0  0  0  0  0  0  0
  -25.5540  -15.4180   20.1820 N   0  0  0  0  0  0  0  0  0  0  0  0
  -24.7840  -16.0740   20.2550 H   0  0  0  0  0  0  0  0  0  0  0  0
  -26.3850  -15.8330   19.7820 H   0  0  0  0  0  0  0  0  0  0  0  0
  -30.8680  -21.5050   23.3260 C   0  0  0  0  0  2  0  0  0  0  0  0
  -31.1310  -20.1260   23.8710 C   0  0  0  0  0  2  0  0  0  0  0  0
  -29.9110  -20.3750   23.0100 C   0  0  0  0  0  3  0  0  0  0  0  0
  -29.1950  -22.1190   20.7810 O   0  0  0  0  0  0  0  0  0  0  0  0
  -30.6540  -23.7280   19.6860 C   0  0  0  0  0  1  0  0  0  0  0  0
  -29.1770  -23.3840   19.9060 C   0  0  0  0  0  3  0  0  0  0  0  0
  -28.3560  -24.7780   20.4080 C   0  0  0  0  0  2  0  0  0  0  0  0
  -28.5320  -26.2690   19.9900 O   0  0  0  0  0  0  0  0  0  0  0  0
  -24.6960  -31.7830   23.0620 C   0  0  0  0  0  0  0  0  0  0  0  0
  -27.4320  -27.1990   19.9870 C   0  0  0  0  0  0  0  0  0  0  0  0
  -23.5430  -30.3680   21.4030 C   0  0  0  0  0  3  0  0  0  0  0  0
  -25.0450  -28.8550   19.9690 C   0  0  0  0  0  0  0  0  0  0  0  0
  -26.0870  -30.7210   21.2470 C   0  0  0  0  0  2  0  0  0  0  0  0
  -26.2080  -29.3390   20.5810 C   0  0  0  0  0  0  0  0  0  0  0  0
  -27.4040  -28.5290   20.5700 C   0  0  0  0  0  3  0  0  0  0  0  0
  -26.2400  -26.8120   19.3370 C   0  0  0  0  0  3  0  0  0  0  0  0
  -25.0720  -27.6050   19.3310 C   0  0  0  0  0  3  0  0  0  0  0  0
  -23.7890  -29.7110   20.0190 C   0  0  0  0  0  2  0  0  0  0  0  0
  -24.7950  -30.9790   21.9590 N   0  0  0  0  0  0  0  0  0  0  0  0
  -23.5990  -32.0280   23.5900 O   0  0  0  0  0  0  0  0  0  0  0  0
  -22.8960  -29.3290   22.3540 C   0  0  0  0  0  0  0  0  0  0  0  0
  -21.5670  -29.1530   22.2540 N   0  0  0  0  0  0  0  0  0  0  0  0
  -23.5920  -28.6850   23.1430 O   0  0  0  0  0  0  0  0  0  0  0  0
  -21.0610  -29.7250   21.5920 H   0  0  0  0  0  0  0  0  0  0  0  0
  -18.1990  -27.9570   22.8460 C   0  0  0  0  0  0  0  0  0  0  0  0
  -20.7690  -28.1900   23.0180 C   0  0  0  0  0  3  0  0  0  0  0  0
  -20.8340  -26.7830   22.3800 C   0  0  0  0  0  2  0  0  0  0  0  0
  -19.6880  -26.5110   21.3980 C   0  0  0  0  0  2  0  0  0  0  0  0
  -18.3360  -26.6380   22.1050 C   0  0  0  0  0  2  0  0  0  0  0  0
  -19.3400  -28.6940   23.2600 C   0  0  0  0  0  0  0  0  0  0  0  0
  -19.1560  -29.9300   23.9180 C   0  0  0  0  0  3  0  0  0  0  0  0
  -17.8620  -30.4290   24.1610 C   0  0  0  0  0  3  0  0  0  0  0  0
  -16.7370  -29.6900   23.7600 C   0  0  0  0  0  3  0  0  0  0  0  0
  -16.9050  -28.4560   23.1080 C   0  0  0  0  0  3  0  0  0  0  0  0
  -25.9520  -32.4510   23.6990 C   0  0  0  0  0  3  0  0  0  0  0  0
  -26.4960  -31.6720   24.9590 C   0  0  1  0  0  0  0  0  0  0  0  0
  -25.4140  -31.3780   26.0240 C   0  0  0  0  0  1  0  0  0  0  0  0
  -27.1230  -30.3210   24.5420 C   0  0  0  0  0  1  0  0  0  0  0  0
  -27.6220  -32.4900   25.6350 C   0  0  0  0  0  1  0  0  0  0  0  0
  -25.5880  -33.8280   24.0670 N   0  0  0  0  0  0  0  0  0  0  0  0
  -25.8800  -34.9160   23.3410 C   0  0  0  0  0  0  0  0  0  0  0  0
  -26.5500  -34.8680   22.3060 O   0  0  0  0  0  0  0  0  0  0  0  0
  -24.9900  -33.9370   24.8730 H   0  0  0  0  0  0  0  0  0  0  0  0
  -24.0890  -36.6600   23.0450 C   0  0  0  0  0  1  0  0  0  0  0  0
  -25.3460  -36.2730   23.8410 C   0  0  0  0  0  3  0  0  0  0  0  0
  -27.4500  -37.2080   24.6950 C   0  0  0  0  0  1  0  0  0  0  0  0
  -26.3410  -37.3650   23.7580 N   0  0  0  0  0  0  0  0  0  0  0  0
  -25.9030  -38.2650   23.9330 H   0  0  0  0  0  0  0  0  0  0  0  0
  1 15  1  0
  2  7  1  0
  3  4  1  0
  3  2  1  0
  5  4  1  0
  5 20  1  0
  5  6  1  0
  7  1  1  0
  7  6  1  0
  8  1  2  0
  9 11  1  0
 10  9  2  0
 10 13  1  0
 11 48  1  0
 11 12  2  0
 12 47  1  0
 13 14  2  0
 14 12  1  0
 15 13  1  0
 15 16  1  0
 17 18  2  0
 18 19  1  0
 18 37  1  0
 19 22  1  0
 20 17  1  0
 20 21  1  0
 21 19  2  0
 22 23  1  0
 23 24  2  0
 25 28  1  0
 25 24  1  0
 26 25  2  0
 27 26  1  0
 27 22  2  0
 28 29  1  0
 29 30  1  0
 30 31  2  0
 32 31  1  0
 32 36  1  0
 33 32  2  0
 34 29  2  0
 34 33  1  0
 35 34  1  0
 37 38  1  0
 38 41  1  0
 38 40  1  0
 39 37  2  0
 42 43  1  0
 42 17  1  0
 44 42  1  0
 45 46  1  0
 47 45  1  0
 47 46  1  0
 50 49  1  0
 50 51  1  0
 50 48  1  0
 52 51  1  0
 53 64  2  0
 54 52  1  0
 54 59  1  0
 55 63  1  0
 55 65  1  0
 56 62  1  0
 56 58  1  0
 57 63  1  0
 58 57  1  0
 59 58  2  0
 60 54  2  0
 61 60  1  0
 61 56  2  0
 62 55  1  0
 63 53  1  0
 65 67  2  0
 66 65  1  0
 68 66  1  0
 69 78  2  0
 69 74  1  0
 70 66  1  0
 70 74  1  0
 71 70  1  0
 72 73  1  0
 72 71  1  0
 73 69  1  0
 74 75  2  0
 75 76  1  0
 77 76  2  0
 78 77  1  0
 79 53  1  0
 79 84  1  0
 79 80  1  0
 80 83  1  1
 80 81  1  0
 82 80  1  0
 84 87  1  0
 85 89  1  0
 85 84  1  0
 86 85  2  0
 89 88  1  0
 91 89  1  0
 91 92  1  0
 91 90  1  0
M  ISO  4   1 100  15 100  51 101  52 101
M  END
>  <TORSDO>  (18) 
F 19

>  <SCORE>  (18) 
-13.270

>  <name>  (18) 
17

>  <ligand_id>  (18) 
17

>  <original_smiles>  (18) 
[H]c1c(N([H])C(=O)N2C([H])([H])C([H])([H])C([H])([H])C([H])(n3nc(-c4c([H])c([H])c(Oc5c([H])c([H])c(F)c([H])c5F)c([H])c4[H])c(C(=O)N([H])[H])c3N([H])[H])C2([H])[H])nc(C2([H])C([H])([H])C2([H])[H])c(OC([H])(C([H])([H])[H])C([H])([H])Oc2c([H])c([H])c3c(c2[H])C([H])([H])N(C(=O)C([H])(N([H])C(=O)C([H])(N([H])C([H])([H])[H])C([H])([H])[H])C(C([H])([H])[H])(C([H])([H])[H])C([H])([H])[H])C([H])(C(=O)N([H])C2([H])c4c([H])c([H])c([H])c([H])c4C([H])([H])C([H])([H])C2([H])[H])C3([H])[H])c1[H]

>  <smiles>  (18) 
[H]c1c(N([H])C(=O)N2C([H])([H])C([H])([H])C([H])([H])C([H])(n3nc(-c4c([H])c([H])c(Oc5c([H])c([H])c(F)c([H])c5F)c([H])c4[H])c(C(=O)N([H])[H])c3N([H])[H])C2([H])[H])nc(C2([H])C([H])([H])C2([H])[H])c(OC([H])(C([H])([H])[H])C([H])([H])Oc2c([H])c([H])c3c(c2[H])C([H])([H])N(C(=O)C([H])(N([H])C(=O)C([H])(N([H])C([H])([H])[H])C([H])([H])[H])C(C([H])([H])[H])(C([H])([H])[H])C([H])([H])[H])C([H])(C(=O)N([H])C2([H])c4c([H])c([H])c([H])c([H])c4C([H])([H])C([H])([H])C2([H])[H])C3([H])[H])c1[H]

$$$$
18:0:0
     RDKit          3D

 91100  0  0  1  0  0  0  0  0999 V2000
  -30.3760  -15.3840   20.3710 C   0  0  0  0  0  0  0  0  0  0  0  0
  -30.3780  -12.9230   19.4850 C   0  0  0  0  0  2  0  0  0  0  0  0
  -29.4750  -12.6800   18.2480 C   0  0  0  0  0  2  0  0  0  0  0  0
  -28.0260  -12.3930   18.6790 C   0  0  0  0  0  2  0  0  0  0  0  0
  -27.5520  -13.3660   19.7860 C   0  0  0  0  0  3  0  0  0  0  0  0
  -28.5850  -13.5420   20.9180 C   0  0  0  0  0  2  0  0  0  0  0  0
  -29.8080  -14.0710   20.2870 N   0  0  0  0  0  0  0  0  0  0  0  0
  -31.6080  -15.3440   20.2070 O   0  0  0  0  0  0  0  0  0  0  0  0
  -28.9790  -19.5460   20.2560 C   0  0  0  0  0  3  0  0  0  0  0  0
  -29.3470  -21.0430   20.4520 C   0  0  0  0  0  0  0  0  0  0  0  0
  -30.6800  -21.0890   20.8750 C   0  0  0  0  0  0  0  0  0  0  0  0
  -31.4670  -19.9370   21.1600 C   0  0  0  0  0  0  0  0  0  0  0  0
  -29.8520  -18.2840   20.5340 C   0  0  0  0  0  0  0  0  0  0  0  0
  -31.2330  -22.4910   20.7650 C   0  0  0  0  0  2  0  0  0  0  0  0
  -30.3390  -23.1850   19.7200 C   0  0  0  0  0  2  0  0  0  0  0  0
  -28.8890  -22.6850   19.9390 C   0  0  1  0  0  0  0  0  0  0  0  0
  -32.9130  -20.0900   21.5960 C   0  0  0  0  0  1  0  0  0  0  0  0
  -28.1400  -22.5140   18.6090 C   0  0  0  0  0  1  0  0  0  0  0  0
  -31.0650  -18.6440   21.0160 N   0  0  0  0  0  0  0  0  0  0  0  0
  -29.6060  -16.6750   20.3890 N   0  0  0  0  0  0  0  0  0  0  0  0
  -28.6220  -16.4700   20.3150 H   0  0  0  0  0  0  0  0  0  0  0  0
  -25.1760  -13.9230   20.5110 C   0  0  0  0  0  0  0  0  0  0  0  0
  -24.1110  -13.1490   20.8720 C   0  0  0  0  0  0  0  0  0  0  0  0
  -24.5800  -11.7980   20.8540 C   0  0  0  0  0  0  0  0  0  0  0  0
  -26.2220  -13.0490   20.2840 N   0  0  0  0  0  0  0  0  0  0  0  0
  -25.8760  -11.7640   20.5590 N   0  0  0  0  0  0  0  0  0  0  0  0
  -23.8500  -10.5370   21.0370 C   0  0  0  0  0  0  0  0  0  0  0  0
  -24.2670   -9.5720   21.9790 C   0  0  0  0  0  3  0  0  0  0  0  0
  -23.5360   -8.3780   22.1530 C   0  0  0  0  0  3  0  0  0  0  0  0
  -22.3740   -8.1380   21.3830 C   0  0  0  0  0  0  0  0  0  0  0  0
  -21.9760   -9.0910   20.4290 C   0  0  0  0  0  3  0  0  0  0  0  0
  -22.7070  -10.2770   20.2540 C   0  0  0  0  0  3  0  0  0  0  0  0
  -21.6140   -6.9970   21.4660 O   0  0  0  0  0  0  0  0  0  0  0  0
  -21.5440   -6.2610   22.6230 C   0  0  0  0  0  0  0  0  0  0  0  0
  -21.0960   -6.8260   23.8370 C   0  0  0  0  0  3  0  0  0  0  0  0
  -20.9730   -6.0180   24.9850 C   0  0  0  0  0  3  0  0  0  0  0  0
  -21.2850   -4.6460   24.9190 C   0  0  0  0  0  0  0  0  0  0  0  0
  -21.7240   -4.0820   23.7090 C   0  0  0  0  0  3  0  0  0  0  0  0
  -21.8500   -4.8870   22.5630 C   0  0  0  0  0  0  0  0  0  0  0  0
  -22.2530   -4.3330   21.3940 F   0  0  0  0  0  0  0  0  0  0  0  0
  -21.1580   -3.8680   26.0190 F   0  0  0  0  0  0  0  0  0  0  0  0
  -22.7100  -13.6260   21.1150 C   0  0  0  0  0  0  0  0  0  0  0  0
  -21.9670  -12.9380   21.9760 N   0  0  0  0  0  0  0  0  0  0  0  0
  -22.2820  -14.6450   20.5760 O   0  0  0  0  0  0  0  0  0  0  0  0
  -22.3270  -12.1140   22.4340 H   0  0  0  0  0  0  0  0  0  0  0  0
  -21.0260  -13.2400   22.1800 H   0  0  0  0  0  0  0  0  0  0  0  0
  -25.3370  -15.2940   20.3240 N   0  0  0  0  0  0  0  0  0  0  0  0
  -24.5570  -15.9390   20.4050 H   0  0  0  0  0  0  0  0  0  0  0  0
  -26.1660  -15.7260   19.9370 H   0  0  0  0  0  0  0  0  0  0  0  0
  -28.1730  -24.2070   20.6600 C   0  0  0  0  0  2  0  0  0  0  0  0
  -28.2880  -25.8510   20.3400 O   0  0  0  0  0  0  0  0  0  0  0  0
  -24.6340  -31.8710   23.2300 C   0  0  0  0  0  0  0  0  0  0  0  0
  -27.2490  -26.9370   20.3250 C   0  0  0  0  0  0  0  0  0  0  0  0
  -23.4680  -30.4420   21.6010 C   0  0  0  0  0  3  0  0  0  0  0  0
  -24.9410  -28.8200   20.2210 C   0  0  0  0  0  0  0  0  0  0  0  0
  -26.0360  -30.6640   21.4760 C   0  0  0  0  0  2  0  0  0  0  0  0
  -26.1230  -29.2400   20.8460 C   0  0  0  0  0  0  0  0  0  0  0  0
  -27.2720  -28.3230   20.8630 C   0  0  0  0  0  3  0  0  0  0  0  0
  -26.0340  -26.6720   19.6550 C   0  0  0  0  0  3  0  0  0  0  0  0
  -24.9240  -27.5580   19.6040 C   0  0  0  0  0  3  0  0  0  0  0  0
  -23.7180  -29.7380   20.2390 C   0  0  0  0  0  2  0  0  0  0  0  0
  -24.7340  -31.0220   22.1550 N   0  0  0  0  0  0  0  0  0  0  0  0
  -23.5380  -32.1580   23.7360 O   0  0  0  0  0  0  0  0  0  0  0  0
  -22.7700  -29.4580   22.5750 C   0  0  0  0  0  0  0  0  0  0  0  0
  -21.4400  -29.2870   22.4450 N   0  0  0  0  0  0  0  0  0  0  0  0
  -23.4330  -28.8450   23.4160 O   0  0  0  0  0  0  0  0  0  0  0  0
  -20.9590  -29.8310   21.7420 H   0  0  0  0  0  0  0  0  0  0  0  0
  -18.0600  -28.0710   22.9540 C   0  0  0  0  0  0  0  0  0  0  0  0
  -20.6170  -28.3550   23.2230 C   0  0  0  0  0  3  0  0  0  0  0  0
  -20.7280  -26.9160   22.6630 C   0  0  0  0  0  2  0  0  0  0  0  0
  -19.6310  -26.5790   21.6480 C   0  0  0  0  0  2  0  0  0  0  0  0
  -18.2470  -26.7190   22.2880 C   0  0  0  0  0  2  0  0  0  0  0  0
  -19.1720  -28.8460   23.3800 C   0  0  0  0  0  0  0  0  0  0  0  0
  -18.9410  -30.1100   23.9660 C   0  0  0  0  0  3  0  0  0  0  0  0
  -17.6310  -30.5970   24.1310 C   0  0  0  0  0  3  0  0  0  0  0  0
  -16.5330  -29.8210   23.7200 C   0  0  0  0  0  3  0  0  0  0  0  0
  -16.7490  -28.5590   23.1360 C   0  0  0  0  0  3  0  0  0  0  0  0
  -25.8920  -32.5360   23.8670 C   0  0  0  0  0  3  0  0  0  0  0  0
  -25.5570  -33.9360   24.1810 N   0  0  0  0  0  0  0  0  0  0  0  0
  -25.8880  -34.9940   23.4280 C   0  0  0  0  0  0  0  0  0  0  0  0
  -26.5700  -34.8940   22.4040 O   0  0  0  0  0  0  0  0  0  0  0  0
  -24.9520  -34.0840   24.9750 H   0  0  0  0  0  0  0  0  0  0  0  0
  -24.1510  -36.7820   23.0590 C   0  0  0  0  0  1  0  0  0  0  0  0
  -25.3900  -36.3830   23.8790 C   0  0  0  0  0  3  0  0  0  0  0  0
  -27.5100  -37.2900   24.7250 C   0  0  0  0  0  1  0  0  0  0  0  0
  -26.4160  -37.4440   23.7710 N   0  0  0  0  0  0  0  0  0  0  0  0
  -26.0010  -38.3620   23.9090 H   0  0  0  0  0  0  0  0  0  0  0  0
  -26.3890  -31.7940   25.1700 C   0  0  1  0  0  0  0  0  0  0  0  0
  -25.2800  -31.5720   26.2250 C   0  0  0  0  0  1  0  0  0  0  0  0
  -26.9880  -30.4120   24.8250 C   0  0  0  0  0  1  0  0  0  0  0  0
  -27.5240  -32.6100   25.8350 C   0  0  0  0  0  1  0  0  0  0  0  0
  1 20  1  0
  2  7  1  0
  3  4  1  0
  3  2  1  0
  5  4  1  0
  5 25  1  0
  5  6  1  0
  7  1  1  0
  7  6  1  0
  8  1  2  0
  9 10  2  0
  9 13  1  0
 10 11  1  0
 11 12  2  0
 12 17  1  0
 13 19  2  0
 14 11  1  0
 15 16  1  0
 15 14  1  0
 16 18  1  6
 16 10  1  0
 16 50  1  0
 19 12  1  0
 20 13  1  0
 21 20  1  0
 22 23  2  0
 23 42  1  0
 24 23  1  0
 24 27  1  0
 25 22  1  0
 25 26  1  0
 26 24  2  0
 27 28  1  0
 28 29  2  0
 30 33  1  0
 30 29  1  0
 31 30  2  0
 32 31  1  0
 32 27  2  0
 33 34  1  0
 34 35  1  0
 35 36  2  0
 37 36  1  0
 37 41  1  0
 38 37  2  0
 39 34  2  0
 39 38  1  0
 40 39  1  0
 42 43  1  0
 43 46  1  0
 43 45  1  0
 44 42  2  0
 47 48  1  0
 47 22  1  0
 49 47  1  0
 51 50  1  0
 52 63  2  0
 53 51  1  0
 53 58  1  0
 54 62  1  0
 54 64  1  0
 55 61  1  0
 55 57  1  0
 56 62  1  0
 57 58  2  0
 57 56  1  0
 59 53  2  0
 60 59  1  0
 60 55  2  0
 61 54  1  0
 62 52  1  0
 64 66  2  0
 65 64  1  0
 67 65  1  0
 68 77  2  0
 68 73  1  0
 69 65  1  0
 69 73  1  0
 70 69  1  0
 71 72  1  0
 71 70  1  0
 72 68  1  0
 73 74  2  0
 74 75  1  0
 76 75  2  0
 77 76  1  0
 78 52  1  0
 78 79  1  0
 78 88  1  0
 79 82  1  0
 80 84  1  0
 80 79  1  0
 81 80  2  0
 84 83  1  0
 86 84  1  0
 86 87  1  0
 86 85  1  0
 88 91  1  1
 88 89  1  0
 90 88  1  0
M  ISO  4   1 100  20 100  50 101  51 101
M  END
>  <TORSDO>  (19) 
F 16

>  <SCORE>  (19) 
-17.000

>  <name>  (19) 
18

>  <ligand_id>  (19) 
18

>  <original_smiles>  (19) 
[H]c1c([H])c([H])c2c(c1[H])C([H])([H])C([H])([H])C([H])([H])C2([H])N([H])C(=O)C1([H])N(C(=O)C([H])(N([H])C(=O)C([H])(N([H])C([H])([H])[H])C([H])([H])[H])C(C([H])([H])[H])(C([H])([H])[H])C([H])([H])[H])C([H])([H])c2c([H])c(OC([H])([H])C3(C([H])([H])[H])c4c([H])c(N([H])C(=O)N5C([H])([H])C([H])([H])C([H])([H])C([H])(n6nc(-c7c([H])c([H])c(Oc8c([H])c([H])c(F)c([H])c8F)c([H])c7[H])c(C(=O)N([H])[H])c6N([H])[H])C5([H])[H])nc(C([H])([H])[H])c4C([H])([H])C3([H])[H])c([H])c([H])c2C1([H])[H]

>  <smiles>  (19) 
[H]c1c([H])c([H])c2c(c1[H])C([H])([H])C([H])([H])C([H])([H])C2([H])N([H])C(=O)C1([H])N(C(=O)C([H])(N([H])C(=O)C([H])(N([H])C([H])([H])[H])C([H])([H])[H])C(C([H])([H])[H])(C([H])([H])[H])C([H])([H])[H])C([H])([H])c2c([H])c(OC([H])([H])C3(C([H])([H])[H])c4c([H])c(N([H])C(=O)N5C([H])([H])C([H])([H])C([H])([H])C([H])(n6nc(-c7c([H])c([H])c(Oc8c([H])c([H])c(F)c([H])c8F)c([H])c7[H])c(C(=O)N([H])[H])c6N([H])[H])C5([H])[H])nc(C([H])([H])[H])c4C([H])([H])C3([H])[H])c([H])c([H])c2C1([H])[H]

$$$$
19:0:0
     RDKit          3D

 95106  0  0  1  0  0  0  0  0999 V2000
  -29.2370  -20.8460   20.4980 C   0  0  0  0  0  3  0  0  0  0  0  0
  -27.0840  -20.5240   18.7810 C   0  0  0  0  0  3  0  0  0  0  0  0
  -28.4060  -22.0040   20.1860 C   0  0  0  0  0  0  0  0  0  0  0  0
  -29.0050  -19.5250   19.9410 C   0  0  0  0  0  0  0  0  0  0  0  0
  -27.2120  -21.7440   19.4570 C   0  0  0  0  0  0  0  0  0  0  0  0
  -28.0030  -19.4760   18.9330 C   0  0  0  0  0  0  0  0  0  0  0  0
  -27.8640  -18.3550   17.9160 C   0  0  0  0  0  1  0  0  0  0  0  0
  -31.0530  -15.1430   21.1740 C   0  0  0  0  0  0  0  0  0  0  0  0
  -30.9080  -12.7480   20.4800 C   0  0  0  0  0  2  0  0  0  0  0  0
  -30.2290  -12.6030   19.1040 C   0  0  0  0  0  2  0  0  0  0  0  0
  -28.7050  -12.4740   19.2740 C   0  0  0  0  0  2  0  0  0  0  0  0
  -28.1310  -13.5690   20.2030 C   0  0  0  0  0  3  0  0  0  0  0  0
  -28.9510  -13.7210   21.5070 C   0  0  0  0  0  2  0  0  0  0  0  0
  -30.3500  -13.9580   21.1330 N   0  0  0  0  0  0  0  0  0  0  0  0
  -32.2810  -15.1210   21.0600 O   0  0  0  0  0  0  0  0  0  0  0  0
  -30.9420  -17.7850   21.2180 C   0  0  0  0  0  2  0  0  0  0  0  0
  -29.0910  -16.9340   20.9050 C   0  0  0  0  0  2  0  0  0  0  0  0
  -29.7870  -18.1680   20.2490 C   0  0  0  0  0  3  0  0  0  0  0  0
  -30.4190  -16.3800   21.2270 N   0  0  0  0  0  0  0  0  0  0  0  0
  -25.7060  -14.3350   20.5530 C   0  0  0  0  0  0  0  0  0  0  0  0
  -24.5460  -13.6410   20.7460 C   0  0  0  0  0  0  0  0  0  0  0  0
  -24.9170  -12.2630   20.7730 C   0  0  0  0  0  0  0  0  0  0  0  0
  -26.7120  -13.3850   20.4730 N   0  0  0  0  0  0  0  0  0  0  0  0
  -26.2330  -12.1330   20.6730 N   0  0  0  0  0  0  0  0  0  0  0  0
  -24.0870  -11.0560   20.8220 C   0  0  0  0  0  0  0  0  0  0  0  0
  -24.3720  -10.0030   21.7160 C   0  0  0  0  0  3  0  0  0  0  0  0
  -23.5480   -8.8580   21.7550 C   0  0  0  0  0  3  0  0  0  0  0  0
  -22.4240   -8.7650   20.8990 C   0  0  0  0  0  0  0  0  0  0  0  0
  -22.1610   -9.8080   19.9940 C   0  0  0  0  0  3  0  0  0  0  0  0
  -22.9850  -10.9430   19.9530 C   0  0  0  0  0  3  0  0  0  0  0  0
  -21.5800   -7.6840   20.8520 O   0  0  0  0  0  0  0  0  0  0  0  0
  -21.4870   -6.8000   21.8950 C   0  0  0  0  0  0  0  0  0  0  0  0
  -21.1670   -7.2220   23.2030 C   0  0  0  0  0  3  0  0  0  0  0  0
  -21.0130   -6.2720   24.2310 C   0  0  0  0  0  3  0  0  0  0  0  0
  -21.1680   -4.9010   23.9520 C   0  0  0  0  0  0  0  0  0  0  0  0
  -21.4820   -4.4780   22.6490 C   0  0  0  0  0  3  0  0  0  0  0  0
  -21.6370   -5.4250   21.6220 C   0  0  0  0  0  0  0  0  0  0  0  0
  -21.9180   -5.0120   20.3630 F   0  0  0  0  0  0  0  0  0  0  0  0
  -21.0110   -3.9860   24.9380 F   0  0  0  0  0  0  0  0  0  0  0  0
  -23.1620  -14.2170   20.7900 C   0  0  0  0  0  0  0  0  0  0  0  0
  -22.2620  -13.5930   21.5400 N   0  0  0  0  0  0  0  0  0  0  0  0
  -22.8810  -15.2580   20.1970 O   0  0  0  0  0  0  0  0  0  0  0  0
  -22.4930  -12.7520   22.0460 H   0  0  0  0  0  0  0  0  0  0  0  0
  -21.3250  -13.9620   21.6080 H   0  0  0  0  0  0  0  0  0  0  0  0
  -25.9750  -15.6870   20.4110 N   0  0  0  0  0  0  0  0  0  0  0  0
  -25.2180  -16.3590   20.3480 H   0  0  0  0  0  0  0  0  0  0  0  0
  -26.8610  -16.0580   20.1030 H   0  0  0  0  0  0  0  0  0  0  0  0
  -29.3490  -24.5540   19.6320 C   0  0  0  0  0  2  0  0  0  0  0  0
  -27.7630  -24.6760   20.9410 C   0  0  0  0  0  2  0  0  0  0  0  0
  -28.7600  -23.4940   20.6150 C   0  0  0  0  0  3  0  0  0  0  0  0
  -28.8170  -25.7200   20.5230 C   0  0  0  0  0  3  0  0  0  0  0  0
  -28.5310  -27.0070   19.8530 O   0  0  0  0  0  0  0  0  0  0  0  0
  -24.6180  -31.9500   23.3880 C   0  0  0  0  0  0  0  0  0  0  0  0
  -27.3490  -27.7310   20.0140 C   0  0  0  0  0  0  0  0  0  0  0  0
  -23.4450  -30.6630   21.6320 C   0  0  0  0  0  3  0  0  0  0  0  0
  -24.9350  -29.2530   20.1050 C   0  0  0  0  0  0  0  0  0  0  0  0
  -25.9690  -31.0630   21.4790 C   0  0  0  0  0  2  0  0  0  0  0  0
  -26.0850  -29.7360   20.7430 C   0  0  0  0  0  0  0  0  0  0  0  0
  -27.2950  -28.9890   20.6840 C   0  0  0  0  0  3  0  0  0  0  0  0
  -26.1810  -27.2920   19.3570 C   0  0  0  0  0  3  0  0  0  0  0  0
  -24.9830  -28.0360   19.4040 C   0  0  0  0  0  3  0  0  0  0  0  0
  -23.6790  -30.0940   20.2060 C   0  0  0  0  0  2  0  0  0  0  0  0
  -24.6950  -31.2410   22.2260 N   0  0  0  0  0  0  0  0  0  0  0  0
  -23.5280  -32.1580   23.9440 O   0  0  0  0  0  0  0  0  0  0  0  0
  -22.8070  -29.5600   22.5100 C   0  0  0  0  0  0  0  0  0  0  0  0
  -21.4870  -29.3560   22.3570 N   0  0  0  0  0  0  0  0  0  0  0  0
  -23.4990  -28.8920   23.2830 O   0  0  0  0  0  0  0  0  0  0  0  0
  -20.9870  -29.9560   21.7150 H   0  0  0  0  0  0  0  0  0  0  0  0
  -18.1440  -28.0270   22.7220 C   0  0  0  0  0  0  0  0  0  0  0  0
  -20.6900  -28.3360   23.0410 C   0  0  0  0  0  3  0  0  0  0  0  0
  -20.8400  -26.9590   22.3550 C   0  0  0  0  0  2  0  0  0  0  0  0
  -19.7560  -26.6830   21.3080 C   0  0  0  0  0  2  0  0  0  0  0  0
  -18.3650  -26.7390   21.9470 C   0  0  0  0  0  2  0  0  0  0  0  0
  -19.2350  -28.7850   23.2230 C   0  0  0  0  0  0  0  0  0  0  0  0
  -18.9740  -29.9900   23.9070 C   0  0  0  0  0  3  0  0  0  0  0  0
  -17.6540  -30.4400   24.0970 C   0  0  0  0  0  3  0  0  0  0  0  0
  -16.5770  -29.6810   23.6090 C   0  0  0  0  0  3  0  0  0  0  0  0
  -16.8230  -28.4750   22.9290 C   0  0  0  0  0  3  0  0  0  0  0  0
  -25.8870  -32.5550   24.0640 C   0  0  0  0  0  3  0  0  0  0  0  0
  -26.3620  -31.7440   25.3320 C   0  0  1  0  0  0  0  0  0  0  0  0
  -25.2390  -31.4880   26.3640 C   0  0  0  0  0  1  0  0  0  0  0  0
  -26.9420  -30.3720   24.9160 C   0  0  0  0  0  1  0  0  0  0  0  0
  -27.5010  -32.5090   26.0470 C   0  0  0  0  0  1  0  0  0  0  0  0
  -25.5790  -33.9470   24.4250 N   0  0  0  0  0  0  0  0  0  0  0  0
  -25.9530  -35.0180   23.7150 C   0  0  0  0  0  0  0  0  0  0  0  0
  -26.6660  -34.9390   22.7080 O   0  0  0  0  0  0  0  0  0  0  0  0
  -24.9550  -34.0820   25.2080 H   0  0  0  0  0  0  0  0  0  0  0  0
  -24.2570  -36.8390   23.3490 C   0  0  0  0  0  1  0  0  0  0  0  0
  -25.4630  -36.3980   24.1950 C   0  0  0  0  0  3  0  0  0  0  0  0
  -27.5760  -37.2350   25.1250 C   0  0  0  0  0  1  0  0  0  0  0  0
  -26.5090  -37.4440   24.1500 N   0  0  0  0  0  0  0  0  0  0  0  0
  -26.1050  -38.3630   24.3110 H   0  0  0  0  0  0  0  0  0  0  0  0
  -25.3140  -23.2050   20.5570 C   0  0  0  0  0  2  0  0  0  0  0  0
  -24.6360  -22.1980   19.6710 C   0  0  0  0  0  2  0  0  0  0  0  0
  -26.0370  -22.6780   19.3310 C   0  0  0  0  0  3  0  0  0  0  0  0
  2  6  2  0
  2  5  1  0
  3  1  1  0
  4  1  2  0
  5  3  2  0
  6  4  1  0
  7  6  1  0
  8 19  1  0
  9 14  1  0
 10 11  1  0
 10  9  1  0
 12 11  1  0
 12 23  1  0
 12 13  1  0
 14  8  1  0
 14 13  1  0
 15  8  2  0
 16 19  1  0
 17 19  1  0
 18  4  1  0
 18 17  1  0
 18 16  1  0
 20 21  2  0
 21 22  1  0
 21 40  1  0
 22 25  1  0
 23 20  1  0
 23 24  1  0
 24 22  2  0
 25 26  1  0
 26 27  2  0
 28 27  1  0
 29 28  2  0
 30 29  1  0
 30 25  2  0
 31 28  1  0
 31 32  1  0
 32 33  1  0
 33 34  2  0
 35 34  1  0
 35 39  1  0
 36 35  2  0
 37 32  2  0
 37 36  1  0
 38 37  1  0
 40 41  1  0
 41 44  1  0
 41 43  1  0
 42 40  2  0
 45 20  1  0
 46 45  1  0
 47 45  1  0
 48 51  1  0
 48 50  1  0
 50  3  1  0
 50 49  1  0
 51 52  1  0
 51 49  1  0
 52 54  1  0
 53 64  2  0
 54 59  1  0
 55 63  1  0
 55 65  1  0
 56 62  1  0
 56 58  1  0
 57 63  1  0
 58 57  1  0
 59 58  2  0
 60 61  1  0
 60 54  2  0
 61 56  2  0
 62 55  1  0
 63 53  1  0
 65 67  2  0
 66 65  1  0
 68 66  1  0
 69 78  2  0
 69 74  1  0
 70 66  1  0
 70 74  1  0
 71 70  1  0
 72 73  1  0
 72 71  1  0
 73 69  1  0
 74 75  2  0
 75 76  1  0
 77 76  2  0
 78 77  1  0
 79 53  1  0
 79 84  1  0
 79 80  1  0
 80 83  1  1
 80 81  1  0
 82 80  1  0
 84 87  1  0
 85 89  1  0
 85 84  1  0
 86 85  2  0
 89 88  1  0
 91 89  1  0
 91 92  1  0
 91 90  1  0
 94 93  1  0
 95  5  1  0
 95 94  1  0
 95 93  1  0
M  ISO  4   8 100  19 100  51 101  52 101
M  END
>  <TORSDO>  (20) 
F 18

>  <SCORE>  (20) 
-13.013

>  <name>  (20) 
19

>  <ligand_id>  (20) 
19

>  <original_smiles>  (20) 
[H]c1c([H])c([H])c2c(c1[H])C([H])([H])C([H])([H])C([H])([H])C2([H])N([H])C(=O)C1([H])N(C(=O)C([H])(N([H])C(=O)C([H])(N([H])C([H])([H])[H])C([H])([H])[H])C(C([H])([H])[H])(C([H])([H])[H])C([H])([H])[H])C([H])([H])c2c([H])c(OC3([H])C([H])([H])C([H])(c4c([H])c(C5([H])C([H])([H])N(C(=O)N6C([H])([H])C([H])([H])C([H])([H])C([H])(n7nc(-c8c([H])c([H])c(Oc9c([H])c([H])c(F)c([H])c9F)c([H])c8[H])c(C(=O)N([H])[H])c7N([H])[H])C6([H])[H])C5([H])[H])c(C([H])([H])[H])c([H])c4C4([H])C([H])([H])C4([H])[H])C3([H])[H])c([H])c([H])c2C1([H])[H]

>  <smiles>  (20) 
[H]c1c([H])c([H])c2c(c1[H])C([H])([H])C([H])([H])C([H])([H])C2([H])N([H])C(=O)C1([H])N(C(=O)C([H])(N([H])C(=O)C([H])(N([H])C([H])([H])[H])C([H])([H])[H])C(C([H])([H])[H])(C([H])([H])[H])C([H])([H])[H])C([H])([H])c2c([H])c(OC3([H])C([H])([H])C([H])(c4c([H])c(C5([H])C([H])([H])N(C(=O)N6C([H])([H])C([H])([H])C([H])([H])C([H])(n7nc(-c8c([H])c([H])c(Oc9c([H])c([H])c(F)c([H])c9F)c([H])c8[H])c(C(=O)N([H])[H])c7N([H])[H])C6([H])[H])C5([H])[H])c(C([H])([H])[H])c([H])c4C4([H])C([H])([H])C4([H])[H])C3([H])[H])c([H])c([H])c2C1([H])[H]

$$$$
20:0:0
     RDKit          3D

 93102  0  0  1  0  0  0  0  0999 V2000
  -28.4000  -22.1680   21.0110 C   0  0  0  0  0  2  0  0  0  0  0  0
  -28.9670  -21.4220   19.7580 C   0  0  0  0  0  3  0  0  0  0  0  0
  -28.9110  -23.6110   20.5640 C   0  0  0  0  0  3  0  0  0  0  0  0
  -29.7930  -22.7650   19.5740 C   0  0  0  0  0  3  0  0  0  0  0  0
  -31.2940  -22.7220   19.8610 C   0  0  0  0  0  1  0  0  0  0  0  0
  -30.6170  -14.8870   20.3040 C   0  0  0  0  0  0  0  0  0  0  0  0
  -30.4200  -12.5740   19.3650 C   0  0  0  0  0  2  0  0  0  0  0  0
  -29.4810  -12.6110   18.1390 C   0  0  0  0  0  2  0  0  0  0  0  0
  -28.0180  -12.4220   18.5810 C   0  0  0  0  0  2  0  0  0  0  0  0
  -27.6370  -13.3230   19.7870 C   0  0  0  0  0  3  0  0  0  0  0  0
  -28.7050  -13.2890   20.9030 C   0  0  0  0  0  2  0  0  0  0  0  0
  -29.9890  -13.6520   20.2930 N   0  0  0  0  0  0  0  0  0  0  0  0
  -31.8140  -14.9220   19.9960 O   0  0  0  0  0  0  0  0  0  0  0  0
  -29.4740  -18.6920   20.2780 C   0  0  0  0  0  3  0  0  0  0  0  0
  -29.5400  -19.9200   19.4690 C   0  0  0  0  0  0  0  0  0  0  0  0
  -30.1110  -19.7090   18.1780 C   0  0  0  0  0  0  0  0  0  0  0  0
  -30.6860  -18.4610   17.8460 C   0  0  0  0  0  0  0  0  0  0  0  0
  -30.0170  -17.3950   19.8330 C   0  0  0  0  0  0  0  0  0  0  0  0
  -30.0760  -20.7880   17.0900 C   0  0  0  0  0  1  0  0  0  0  0  0
  -31.3920  -18.2160   16.5210 C   0  0  0  0  0  1  0  0  0  0  0  0
  -30.6370  -17.3810   18.6390 N   0  0  0  0  0  0  0  0  0  0  0  0
  -29.8860  -16.0680   20.5150 N   0  0  0  0  0  0  0  0  0  0  0  0
  -29.0190  -15.9400   21.0130 H   0  0  0  0  0  0  0  0  0  0  0  0
  -25.2580  -13.8850   20.5530 C   0  0  0  0  0  0  0  0  0  0  0  0
  -24.2010  -13.1010   20.9270 C   0  0  0  0  0  0  0  0  0  0  0  0
  -24.6730  -11.7530   20.8800 C   0  0  0  0  0  0  0  0  0  0  0  0
  -26.3040  -13.0160   20.2950 N   0  0  0  0  0  0  0  0  0  0  0  0
  -25.9620  -11.7270   20.5570 N   0  0  0  0  0  0  0  0  0  0  0  0
  -23.9550  -10.4850   21.0670 C   0  0  0  0  0  0  0  0  0  0  0  0
  -24.3990   -9.5130   21.9900 C   0  0  0  0  0  3  0  0  0  0  0  0
  -23.6800   -8.3110   22.1660 C   0  0  0  0  0  3  0  0  0  0  0  0
  -22.5030   -8.0710   21.4170 C   0  0  0  0  0  0  0  0  0  0  0  0
  -22.0780   -9.0320   20.4830 C   0  0  0  0  0  3  0  0  0  0  0  0
  -22.7980  -10.2250   20.3040 C   0  0  0  0  0  3  0  0  0  0  0  0
  -21.7550   -6.9220   21.5030 O   0  0  0  0  0  0  0  0  0  0  0  0
  -21.7110   -6.1770   22.6540 C   0  0  0  0  0  0  0  0  0  0  0  0
  -21.2630   -6.7200   23.8770 C   0  0  0  0  0  3  0  0  0  0  0  0
  -21.1670   -5.8990   25.0190 C   0  0  0  0  0  3  0  0  0  0  0  0
  -21.5090   -4.5350   24.9380 C   0  0  0  0  0  0  0  0  0  0  0  0
  -21.9510   -3.9920   23.7180 C   0  0  0  0  0  3  0  0  0  0  0  0
  -22.0480   -4.8100   22.5790 C   0  0  0  0  0  0  0  0  0  0  0  0
  -22.4530   -4.2760   21.4020 F   0  0  0  0  0  0  0  0  0  0  0  0
  -21.4100   -3.7440   26.0330 F   0  0  0  0  0  0  0  0  0  0  0  0
  -22.8040  -13.5680   21.2160 C   0  0  0  0  0  0  0  0  0  0  0  0
  -22.0900  -12.8630   22.0850 N   0  0  0  0  0  0  0  0  0  0  0  0
  -22.3560  -14.5930   20.7050 O   0  0  0  0  0  0  0  0  0  0  0  0
  -22.4670  -12.0340   22.5210 H   0  0  0  0  0  0  0  0  0  0  0  0
  -21.1530  -13.1580   22.3210 H   0  0  0  0  0  0  0  0  0  0  0  0
  -25.4110  -15.2590   20.3850 N   0  0  0  0  0  0  0  0  0  0  0  0
  -24.6360  -15.9040   20.4990 H   0  0  0  0  0  0  0  0  0  0  0  0
  -26.2420  -15.7040   20.0190 H   0  0  0  0  0  0  0  0  0  0  0  0
  -27.9580  -24.8630   20.1150 C   0  0  0  0  0  2  0  0  0  0  0  0
  -28.2570  -26.3440   20.3280 O   0  0  0  0  0  0  0  0  0  0  0  0
  -24.6340  -31.9610   23.2690 C   0  0  0  0  0  0  0  0  0  0  0  0
  -27.1940  -27.2910   20.2450 C   0  0  0  0  0  0  0  0  0  0  0  0
  -23.4270  -30.5710   21.6290 C   0  0  0  0  0  3  0  0  0  0  0  0
  -24.8670  -28.9990   20.2080 C   0  0  0  0  0  0  0  0  0  0  0  0
  -25.9770  -30.8400   21.4650 C   0  0  0  0  0  2  0  0  0  0  0  0
  -26.0450  -29.4530   20.8160 C   0  0  0  0  0  0  0  0  0  0  0  0
  -27.2110  -28.6130   20.8220 C   0  0  0  0  0  3  0  0  0  0  0  0
  -25.9940  -26.9240   19.5940 C   0  0  0  0  0  3  0  0  0  0  0  0
  -24.8500  -27.7450   19.5840 C   0  0  0  0  0  3  0  0  0  0  0  0
  -23.6420  -29.8940   20.2510 C   0  0  0  0  0  2  0  0  0  0  0  0
  -24.6980  -31.1440   22.1770 N   0  0  0  0  0  0  0  0  0  0  0  0
  -23.5490  -32.2530   23.7950 O   0  0  0  0  0  0  0  0  0  0  0  0
  -22.7450  -29.5650   22.5890 C   0  0  0  0  0  0  0  0  0  0  0  0
  -21.4160  -29.4020   22.4580 N   0  0  0  0  0  0  0  0  0  0  0  0
  -23.4110  -28.9360   23.4140 O   0  0  0  0  0  0  0  0  0  0  0  0
  -20.9370  -29.9620   21.7670 H   0  0  0  0  0  0  0  0  0  0  0  0
  -18.0240  -28.2410   22.9570 C   0  0  0  0  0  0  0  0  0  0  0  0
  -20.5850  -28.4730   23.2280 C   0  0  0  0  0  3  0  0  0  0  0  0
  -20.6710  -27.0410   22.6540 C   0  0  0  0  0  2  0  0  0  0  0  0
  -19.5670  -26.7290   21.6400 C   0  0  0  0  0  2  0  0  0  0  0  0
  -18.1860  -26.8900   22.2810 C   0  0  0  0  0  2  0  0  0  0  0  0
  -19.1500  -28.9920   23.3870 C   0  0  0  0  0  0  0  0  0  0  0  0
  -18.9430  -30.2570   23.9790 C   0  0  0  0  0  3  0  0  0  0  0  0
  -17.6440  -30.7710   24.1450 C   0  0  0  0  0  3  0  0  0  0  0  0
  -16.5320  -30.0180   23.7300 C   0  0  0  0  0  3  0  0  0  0  0  0
  -16.7230  -28.7550   23.1420 C   0  0  0  0  0  3  0  0  0  0  0  0
  -25.9170  -32.5860   23.8950 C   0  0  0  0  0  3  0  0  0  0  0  0
  -25.6170  -33.9880   24.2240 N   0  0  0  0  0  0  0  0  0  0  0  0
  -25.9400  -35.0370   23.4570 C   0  0  0  0  0  0  0  0  0  0  0  0
  -26.5920  -34.9270   22.4140 O   0  0  0  0  0  0  0  0  0  0  0  0
  -25.0350  -34.1470   25.0340 H   0  0  0  0  0  0  0  0  0  0  0  0
  -24.2060  -36.8320   23.1350 C   0  0  0  0  0  1  0  0  0  0  0  0
  -25.4660  -36.4300   23.9170 C   0  0  0  0  0  3  0  0  0  0  0  0
  -27.6200  -37.3210   24.6930 C   0  0  0  0  0  1  0  0  0  0  0  0
  -26.4980  -37.4800   23.7720 N   0  0  0  0  0  0  0  0  0  0  0  0
  -26.0970  -38.4020   23.9180 H   0  0  0  0  0  0  0  0  0  0  0  0
  -26.4190  -31.8150   25.1780 C   0  0  1  0  0  0  0  0  0  0  0  0
  -25.3170  -31.5880   26.2400 C   0  0  0  0  0  1  0  0  0  0  0  0
  -26.9950  -30.4320   24.7960 C   0  0  0  0  0  1  0  0  0  0  0  0
  -27.5720  -32.6020   25.8450 C   0  0  0  0  0  1  0  0  0  0  0  0
  2 15  1  0
  2  1  1  0
  3 52  1  0
  3  1  1  0
  4  2  1  0
  4  5  1  0
  4  3  1  0
  6 22  1  0
  7 12  1  0
  8  9  1  0
  8  7  1  0
 10  9  1  0
 10 27  1  0
 10 11  1  0
 12  6  1  0
 12 11  1  0
 13  6  2  0
 15 14  2  0
 16 15  1  0
 17 16  2  0
 17 21  1  0
 18 14  1  0
 18 22  1  0
 19 16  1  0
 20 17  1  0
 21 18  2  0
 22 23  1  0
 24 25  2  0
 25 44  1  0
 26 25  1  0
 26 29  1  0
 27 24  1  0
 27 28  1  0
 28 26  2  0
 29 30  1  0
 30 31  2  0
 32 35  1  0
 32 31  1  0
 33 32  2  0
 34 33  1  0
 34 29  2  0
 35 36  1  0
 36 37  1  0
 37 38  2  0
 39 38  1  0
 39 43  1  0
 40 39  2  0
 41 36  2  0
 41 40  1  0
 42 41  1  0
 44 45  1  0
 45 48  1  0
 45 47  1  0
 46 44  2  0
 49 50  1  0
 49 24  1  0
 51 49  1  0
 52 53  1  0
 54 65  2  0
 55 53  1  0
 55 60  1  0
 56 64  1  0
 56 66  1  0
 57 63  1  0
 57 59  1  0
 58 64  1  0
 59 60  2  0
 59 58  1  0
 61 55  2  0
 62 61  1  0
 62 57  2  0
 63 56  1  0
 64 54  1  0
 66 68  2  0
 67 66  1  0
 69 67  1  0
 70 79  2  0
 70 75  1  0
 71 67  1  0
 71 75  1  0
 72 71  1  0
 73 74  1  0
 73 72  1  0
 74 70  1  0
 75 76  2  0
 76 77  1  0
 78 77  2  0
 79 78  1  0
 80 54  1  0
 80 81  1  0
 80 90  1  0
 81 84  1  0
 82 86  1  0
 82 81  1  0
 83 82  2  0
 86 85  1  0
 88 86  1  0
 88 89  1  0
 88 87  1  0
 90 93  1  1
 90 91  1  0
 92 90  1  0
M  ISO  4   6 100  22 100  52 101  53 101
M  END
>  <TORSDO>  (21) 
F 17

>  <SCORE>  (21) 
-15.278

>  <name>  (21) 
20

>  <ligand_id>  (21) 
20

>  <original_smiles>  (21) 
[H]c1c([H])c([H])c2c(c1[H])C([H])([H])C([H])([H])C([H])([H])C2([H])N([H])C(=O)C1([H])N(C(=O)C([H])(N([H])C(=O)C([H])(N([H])C([H])([H])[H])C([H])([H])[H])C(C([H])([H])[H])(C([H])([H])[H])C([H])([H])[H])C([H])([H])c2c([H])c(OC([H])([H])C3([H])C([H])([H])C([H])(c4c([H])c(N([H])C(=O)N5C([H])([H])C([H])([H])C([H])([H])C([H])(n6nc(-c7c([H])c([H])c(Oc8c([H])c([H])c(F)c([H])c8F)c([H])c7[H])c(C(=O)N([H])[H])c6N([H])[H])C5([H])[H])nc(C([H])([H])[H])c4C([H])([H])[H])C3([H])C([H])([H])[H])c([H])c([H])c2C1([H])[H]

>  <smiles>  (21) 
[H]c1c([H])c([H])c2c(c1[H])C([H])([H])C([H])([H])C([H])([H])C2([H])N([H])C(=O)C1([H])N(C(=O)C([H])(N([H])C(=O)C([H])(N([H])C([H])([H])[H])C([H])([H])[H])C(C([H])([H])[H])(C([H])([H])[H])C([H])([H])[H])C([H])([H])c2c([H])c(OC([H])([H])C3([H])C([H])([H])C([H])(c4c([H])c(N([H])C(=O)N5C([H])([H])C([H])([H])C([H])([H])C([H])(n6nc(-c7c([H])c([H])c(Oc8c([H])c([H])c(F)c([H])c8F)c([H])c7[H])c(C(=O)N([H])[H])c6N([H])[H])C5([H])[H])nc(C([H])([H])[H])c4C([H])([H])[H])C3([H])C([H])([H])[H])c([H])c([H])c2C1([H])[H]

$$$$
21:0:0
     RDKit          3D

 97107  0  0  1  0  0  0  0  0999 V2000
  -30.0270  -22.2520   18.5680 C   0  0  0  0  0  2  0  0  0  0  0  0
  -29.8920  -20.7130   18.6390 C   0  0  0  0  0  2  0  0  0  0  0  0
  -29.1300  -22.7960   19.6820 C   0  0  0  0  0  3  0  0  0  0  0  0
  -29.2260  -21.6510   20.7290 C   0  0  0  0  0  3  0  0  0  0  0  0
  -28.0780  -21.7130   21.7570 C   0  0  0  0  0  1  0  0  0  0  0  0
  -29.2310  -20.3950   19.9310 N   0  0  2  0  0  4  0  0  0  0  0  0
  -28.2600  -20.2780   19.6810 H   0  0  0  0  0  0  0  0  0  0  0  0
  -30.9080  -15.1170   20.2620 C   0  0  0  0  0  0  0  0  0  0  0  0
  -30.7210  -12.8160   19.3460 C   0  0  0  0  0  2  0  0  0  0  0  0
  -29.7970  -12.7820   18.1120 C   0  0  0  0  0  2  0  0  0  0  0  0
  -28.3270  -12.5920   18.5360 C   0  0  0  0  0  2  0  0  0  0  0  0
  -27.9160  -13.5660   19.6660 C   0  0  0  0  0  3  0  0  0  0  0  0
  -28.9600  -13.5350   20.8140 C   0  0  0  0  0  2  0  0  0  0  0  0
  -30.2610  -13.9040   20.2390 N   0  0  0  0  0  0  0  0  0  0  0  0
  -32.0200  -15.2250   19.7300 O   0  0  0  0  0  0  0  0  0  0  0  0
  -31.0620  -18.6320   20.5690 C   0  0  0  0  0  2  0  0  0  0  0  0
  -28.6980  -17.9420   20.1890 C   0  0  0  0  0  2  0  0  0  0  0  0
  -31.2600  -17.3160   21.3810 C   0  0  0  0  0  2  0  0  0  0  0  0
  -28.9740  -16.6620   21.0150 C   0  0  0  0  0  2  0  0  0  0  0  0
  -29.5890  -19.1110   20.6390 C   0  0  0  0  0  3  0  0  0  0  0  0
  -30.3810  -16.2110   20.9170 N   0  0  0  0  0  0  0  0  0  0  0  0
  -25.5230  -14.1890   20.3870 C   0  0  0  0  0  0  0  0  0  0  0  0
  -24.4550  -13.4180   20.7610 C   0  0  0  0  0  0  0  0  0  0  0  0
  -24.9140  -12.0670   20.7250 C   0  0  0  0  0  0  0  0  0  0  0  0
  -26.5650  -13.3030   20.1500 N   0  0  0  0  0  0  0  0  0  0  0  0
  -26.2020  -12.0230   20.4110 N   0  0  0  0  0  0  0  0  0  0  0  0
  -24.1870  -10.8060   20.9120 C   0  0  0  0  0  0  0  0  0  0  0  0
  -24.6000   -9.8510   21.8680 C   0  0  0  0  0  3  0  0  0  0  0  0
  -23.8760   -8.6520   22.0400 C   0  0  0  0  0  3  0  0  0  0  0  0
  -22.7240   -8.4000   21.2560 C   0  0  0  0  0  0  0  0  0  0  0  0
  -22.3330   -9.3430   20.2890 C   0  0  0  0  0  3  0  0  0  0  0  0
  -23.0570  -10.5330   20.1150 C   0  0  0  0  0  3  0  0  0  0  0  0
  -21.9730   -7.2530   21.3370 O   0  0  0  0  0  0  0  0  0  0  0  0
  -21.8140   -6.5800   22.5220 C   0  0  0  0  0  0  0  0  0  0  0  0
  -21.2400   -7.1940   23.6560 C   0  0  0  0  0  3  0  0  0  0  0  0
  -21.0320   -6.4470   24.8320 C   0  0  0  0  0  3  0  0  0  0  0  0
  -21.3870   -5.0850   24.8730 C   0  0  0  0  0  0  0  0  0  0  0  0
  -21.9540   -4.4700   23.7430 C   0  0  0  0  0  3  0  0  0  0  0  0
  -22.1640   -5.2150   22.5700 C   0  0  0  0  0  0  0  0  0  0  0  0
  -22.6920   -4.6140   21.4760 F   0  0  0  0  0  0  0  0  0  0  0  0
  -21.1790   -4.3640   26.0000 F   0  0  0  0  0  0  0  0  0  0  0  0
  -23.0590  -13.8980   21.0400 C   0  0  0  0  0  0  0  0  0  0  0  0
  -22.3420  -13.2160   21.9260 N   0  0  0  0  0  0  0  0  0  0  0  0
  -22.6120  -14.9120   20.5060 O   0  0  0  0  0  0  0  0  0  0  0  0
  -22.7150  -12.3960   22.3820 H   0  0  0  0  0  0  0  0  0  0  0  0
  -21.4050  -13.5190   22.1530 H   0  0  0  0  0  0  0  0  0  0  0  0
  -25.6840  -15.5590   20.2050 N   0  0  0  0  0  0  0  0  0  0  0  0
  -24.9100  -16.2060   20.3080 H   0  0  0  0  0  0  0  0  0  0  0  0
  -26.5180  -15.9940   19.8320 H   0  0  0  0  0  0  0  0  0  0  0  0
  -30.5180  -24.5110   21.0440 C   0  0  0  0  0  3  0  0  0  0  0  0
  -29.4450  -26.4050   20.5790 C   0  0  0  0  0  3  0  0  0  0  0  0
  -30.4820  -25.9060   21.3110 C   0  0  0  0  0  0  0  0  0  0  0  0
  -29.4950  -24.1810   20.1930 C   0  0  0  0  0  0  0  0  0  0  0  0
  -31.3940  -26.6830   22.2220 C   0  0  0  0  0  1  0  0  0  0  0  0
  -28.8350  -25.3820   19.8690 N   0  0  0  0  0  0  0  0  0  0  0  0
  -27.6740  -25.5970   18.9870 C   0  0  0  0  0  2  0  0  0  0  0  0
  -27.6480  -26.9550   18.5790 O   0  0  0  0  0  0  0  0  0  0  0  0
  -24.6250  -31.5480   23.1050 C   0  0  0  0  0  0  0  0  0  0  0  0
  -26.5230  -27.7000   18.8830 C   0  0  0  0  0  0  0  0  0  0  0  0
  -23.1110  -30.5340   21.4330 C   0  0  0  0  0  3  0  0  0  0  0  0
  -24.2470  -29.2550   19.5380 C   0  0  0  0  0  0  0  0  0  0  0  0
  -25.5980  -30.8450   20.9180 C   0  0  0  0  0  2  0  0  0  0  0  0
  -25.5080  -29.6220   20.0250 C   0  0  0  0  0  0  0  0  0  0  0  0
  -26.6480  -28.8570   19.6870 C   0  0  0  0  0  3  0  0  0  0  0  0
  -25.2440  -27.3480   18.3950 C   0  0  0  0  0  3  0  0  0  0  0  0
  -24.1110  -28.1190   18.7200 C   0  0  0  0  0  3  0  0  0  0  0  0
  -23.0760  -30.1270   19.9350 C   0  0  0  0  0  2  0  0  0  0  0  0
  -24.4720  -30.9790   21.8760 N   0  0  0  0  0  0  0  0  0  0  0  0
  -23.6540  -31.7440   23.8480 O   0  0  0  0  0  0  0  0  0  0  0  0
  -22.5440  -29.3680   22.2750 C   0  0  0  0  0  0  0  0  0  0  0  0
  -21.2170  -29.1710   22.2130 N   0  0  0  0  0  0  0  0  0  0  0  0
  -23.2930  -28.6480   22.9410 O   0  0  0  0  0  0  0  0  0  0  0  0
  -20.6690  -29.8110   21.6550 H   0  0  0  0  0  0  0  0  0  0  0  0
  -17.9400  -27.6950   22.5810 C   0  0  0  0  0  0  0  0  0  0  0  0
  -20.4730  -28.1070   22.8880 C   0  0  0  0  0  3  0  0  0  0  0  0
  -20.6750  -26.7480   22.1790 C   0  0  0  0  0  2  0  0  0  0  0  0
  -19.5980  -26.4460   21.1330 C   0  0  0  0  0  2  0  0  0  0  0  0
  -18.2110  -26.4320   21.7820 C   0  0  0  0  0  2  0  0  0  0  0  0
  -19.0020  -28.4910   23.0870 C   0  0  0  0  0  0  0  0  0  0  0  0
  -18.6950  -29.6750   23.7910 C   0  0  0  0  0  3  0  0  0  0  0  0
  -17.3580  -30.0650   23.9960 C   0  0  0  0  0  3  0  0  0  0  0  0
  -16.3110  -29.2660   23.5060 C   0  0  0  0  0  3  0  0  0  0  0  0
  -16.6030  -28.0820   22.8050 C   0  0  0  0  0  3  0  0  0  0  0  0
  -26.0250  -32.0040   23.6270 C   0  0  0  0  0  3  0  0  0  0  0  0
  -25.8570  -33.3290   24.2390 N   0  0  0  0  0  0  0  0  0  0  0  0
  -26.2740  -34.4780   23.6890 C   0  0  0  0  0  0  0  0  0  0  0  0
  -26.9100  -34.5240   22.6320 O   0  0  0  0  0  0  0  0  0  0  0  0
  -25.2950  -33.3740   25.0750 H   0  0  0  0  0  0  0  0  0  0  0  0
  -24.7580  -36.4830   23.7260 C   0  0  0  0  0  1  0  0  0  0  0  0
  -25.9320  -35.7840   24.4300 C   0  0  0  0  0  3  0  0  0  0  0  0
  -28.1320  -36.2360   25.4230 C   0  0  0  0  0  1  0  0  0  0  0  0
  -27.0750  -36.7170   24.5360 N   0  0  0  0  0  0  0  0  0  0  0  0
  -26.7670  -37.6250   24.8750 H   0  0  0  0  0  0  0  0  0  0  0  0
  -26.6660  -30.9930   24.6540 C   0  0  1  0  0  0  0  0  0  0  0  0
  -25.7280  -30.6160   25.8230 C   0  0  0  0  0  1  0  0  0  0  0  0
  -27.0860  -29.6860   23.9430 C   0  0  0  0  0  1  0  0  0  0  0  0
  -27.9550  -31.6020   25.2550 C   0  0  0  0  0  1  0  0  0  0  0  0
  1  2  1  0
  1  3  1  0
  2  6  1  0
  3 53  1  0
  3  4  1  0
  4  5  1  0
  6  7  1  6
  6 20  1  0
  6  4  1  0
  8 21  1  0
  9 14  1  0
 10 11  1  0
 10  9  1  0
 12 11  1  0
 12 25  1  0
 12 13  1  0
 14  8  1  0
 14 13  1  0
 15  8  2  0
 16 20  1  0
 16 18  1  0
 17 19  1  0
 20 17  1  0
 21 19  1  0
 21 18  1  0
 22 23  2  0
 23 42  1  0
 24 23  1  0
 24 27  1  0
 25 22  1  0
 25 26  1  0
 26 24  2  0
 27 28  1  0
 28 29  2  0
 30 33  1  0
 30 29  1  0
 31 30  2  0
 32 31  1  0
 32 27  2  0
 33 34  1  0
 34 39  2  0
 34 35  1  0
 35 36  2  0
 36 37  1  0
 37 41  1  0
 38 37  2  0
 39 38  1  0
 40 39  1  0
 42 43  1  0
 43 46  1  0
 43 45  1  0
 44 42  2  0
 47 48  1  0
 47 22  1  0
 49 47  1  0
 50 52  1  0
 51 52  2  0
 52 54  1  0
 53 50  2  0
 55 53  1  0
 55 51  1  0
 56 55  1  0
 57 59  1  0
 57 56  1  0
 58 69  2  0
 59 64  1  0
 60 68  1  0
 60 70  1  0
 61 67  1  0
 61 63  1  0
 62 68  1  0
 63 62  1  0
 64 63  2  0
 65 66  1  0
 65 59  2  0
 66 61  2  0
 67 60  1  0
 68 58  1  0
 70 72  2  0
 71 70  1  0
 73 71  1  0
 74 83  2  0
 74 79  1  0
 75 71  1  0
 75 79  1  0
 76 75  1  0
 77 78  1  0
 77 76  1  0
 78 74  1  0
 79 80  2  0
 80 81  1  0
 82 81  2  0
 83 82  1  0
 84 58  1  0
 84 85  1  0
 84 94  1  0
 85 88  1  0
 86 85  1  0
 86 90  1  0
 87 86  2  0
 90 89  1  0
 90 92  1  0
 92 93  1  0
 92 91  1  0
 94 97  1  1
 94 95  1  0
 96 94  1  0
M  ISO  4   8 100  21 100  56 101  57 101
M  END
>  <TORSDO>  (22) 
F 18

>  <SCORE>  (22) 
-13.209

>  <name>  (22) 
21

>  <ligand_id>  (22) 
21

>  <original_smiles>  (22) 
[H]c1c([H])c([H])c2c(c1[H])C([H])([H])C([H])([H])C([H])([H])C2([H])N([H])C(=O)C1([H])N(C(=O)C([H])(N([H])C(=O)C([H])(N([H])C([H])([H])[H])C([H])([H])[H])C(C([H])([H])[H])(C([H])([H])[H])C([H])([H])[H])C([H])([H])c2c([H])c(OC([H])([H])n3c([H])c(C([H])([H])[H])c([H])c3C3([H])C([H])([H])C([H])([H])[N+]([H])(C4([H])C([H])([H])C([H])([H])N(C(=O)N5C([H])([H])C([H])([H])C([H])([H])C([H])(n6nc(-c7c([H])c([H])c(Oc8c([H])c([H])c(F)c([H])c8F)c([H])c7[H])c(C(=O)N([H])[H])c6N([H])[H])C5([H])[H])C([H])([H])C4([H])[H])C3([H])C([H])([H])[H])c([H])c([H])c2C1([H])[H]

>  <smiles>  (22) 
[H]c1c([H])c([H])c2c(c1[H])C([H])([H])C([H])([H])C([H])([H])C2([H])N([H])C(=O)C1([H])N(C(=O)C([H])(N([H])C(=O)C([H])(N([H])C([H])([H])[H])C([H])([H])[H])C(C([H])([H])[H])(C([H])([H])[H])C([H])([H])[H])C([H])([H])c2c([H])c(OC([H])([H])n3c([H])c(C([H])([H])[H])c([H])c3C3([H])C([H])([H])C([H])([H])[N+]([H])(C4([H])C([H])([H])C([H])([H])N(C(=O)N5C([H])([H])C([H])([H])C([H])([H])C([H])(n6nc(-c7c([H])c([H])c(Oc8c([H])c([H])c(F)c([H])c8F)c([H])c7[H])c(C(=O)N([H])[H])c6N([H])[H])C5([H])[H])C([H])([H])C4([H])[H])C3([H])C([H])([H])[H])c([H])c([H])c2C1([H])[H]

$$$$
22:0:0
     RDKit          3D

 92101  0  0  1  0  0  0  0  0999 V2000
  -31.3700  -23.1730   19.8540 C   0  0  0  0  0  3  0  0  0  0  0  0
  -30.4390  -24.2310   19.9200 C   0  0  0  0  0  3  0  0  0  0  0  0
  -30.9530  -21.8540   20.1380 C   0  0  0  0  0  3  0  0  0  0  0  0
  -29.1100  -23.9430   20.2720 C   0  0  0  0  0  0  0  0  0  0  0  0
  -29.6150  -21.6200   20.4990 C   0  0  0  0  0  0  0  0  0  0  0  0
  -28.7260  -22.6550   20.5610 N   0  0  0  0  0  0  0  0  0  0  0  0
  -29.1180  -20.3290   20.8220 N   0  0  0  0  0  0  0  0  0  0  0  0
  -28.1710  -20.3090   21.1780 H   0  0  0  0  0  0  0  0  0  0  0  0
  -30.6910  -14.6650   20.3410 C   0  0  0  0  0  0  0  0  0  0  0  0
  -30.3430  -12.4260   19.3060 C   0  0  0  0  0  2  0  0  0  0  0  0
  -29.3900  -12.5080   18.0980 C   0  0  0  0  0  2  0  0  0  0  0  0
  -27.9430  -12.2950   18.5720 C   0  0  0  0  0  2  0  0  0  0  0  0
  -27.5820  -13.2140   19.7620 C   0  0  0  0  0  3  0  0  0  0  0  0
  -28.6630  -13.1980   20.8700 C   0  0  0  0  0  2  0  0  0  0  0  0
  -29.9560  -13.5050   20.2470 N   0  0  0  0  0  0  0  0  0  0  0  0
  -31.8770  -14.6490   20.0050 O   0  0  0  0  0  0  0  0  0  0  0  0
  -28.5960  -17.9750   20.1460 C   0  0  0  0  0  2  0  0  0  0  0  0
  -30.4590  -18.3260   21.6250 C   0  0  0  0  0  2  0  0  0  0  0  0
  -29.0230  -16.4870   19.8930 C   0  0  0  0  0  2  0  0  0  0  0  0
  -31.0320  -16.9110   21.2820 C   0  0  0  0  0  2  0  0  0  0  0  0
  -29.7020  -19.0010   20.4680 C   0  0  0  0  0  3  0  0  0  0  0  0
  -30.1140  -15.8790   20.7090 N   0  0  0  0  0  0  0  0  0  0  0  0
  -25.2250  -13.8290   20.5670 C   0  0  0  0  0  0  0  0  0  0  0  0
  -24.1630  -13.0580   20.9490 C   0  0  0  0  0  0  0  0  0  0  0  0
  -24.6190  -11.7050   20.8970 C   0  0  0  0  0  0  0  0  0  0  0  0
  -26.2540  -12.9420   20.2920 N   0  0  0  0  0  0  0  0  0  0  0  0
  -25.9010  -11.6620   20.5620 N   0  0  0  0  0  0  0  0  0  0  0  0
  -23.8960  -10.4430   21.0830 C   0  0  0  0  0  0  0  0  0  0  0  0
  -24.3440   -9.4670   21.9990 C   0  0  0  0  0  3  0  0  0  0  0  0
  -23.6250   -8.2670   22.1740 C   0  0  0  0  0  3  0  0  0  0  0  0
  -22.4430   -8.0350   21.4320 C   0  0  0  0  0  0  0  0  0  0  0  0
  -22.0130   -9.0000   20.5040 C   0  0  0  0  0  3  0  0  0  0  0  0
  -22.7350  -10.1930   20.3260 C   0  0  0  0  0  3  0  0  0  0  0  0
  -21.6920   -6.8880   21.5170 O   0  0  0  0  0  0  0  0  0  0  0  0
  -21.6560   -6.1370   22.6640 C   0  0  0  0  0  0  0  0  0  0  0  0
  -21.2370   -6.6800   23.8980 C   0  0  0  0  0  3  0  0  0  0  0  0
  -21.1480   -5.8550   25.0360 C   0  0  0  0  0  3  0  0  0  0  0  0
  -21.4690   -4.4870   24.9420 C   0  0  0  0  0  0  0  0  0  0  0  0
  -21.8820   -3.9430   23.7140 C   0  0  0  0  0  3  0  0  0  0  0  0
  -21.9730   -4.7650   22.5770 C   0  0  0  0  0  0  0  0  0  0  0  0
  -22.3520   -4.2350   21.3890 F   0  0  0  0  0  0  0  0  0  0  0  0
  -21.3780   -3.6910   26.0330 F   0  0  0  0  0  0  0  0  0  0  0  0
  -22.7720  -13.5400   21.2440 C   0  0  0  0  0  0  0  0  0  0  0  0
  -22.0510  -12.8400   22.1130 N   0  0  0  0  0  0  0  0  0  0  0  0
  -22.3320  -14.5710   20.7380 O   0  0  0  0  0  0  0  0  0  0  0  0
  -22.4180  -12.0080   22.5510 H   0  0  0  0  0  0  0  0  0  0  0  0
  -21.1160  -13.1450   22.3450 H   0  0  0  0  0  0  0  0  0  0  0  0
  -25.3920  -15.2020   20.4040 N   0  0  0  0  0  0  0  0  0  0  0  0
  -24.6450  -15.8640   20.5780 H   0  0  0  0  0  0  0  0  0  0  0  0
  -26.2410  -15.6420   20.0740 H   0  0  0  0  0  0  0  0  0  0  0  0
  -27.9900  -25.0240   20.1910 C   0  0  0  0  0  2  0  0  0  0  0  0
  -28.2970  -26.4700   20.2120 O   0  0  0  0  0  0  0  0  0  0  0  0
  -24.5720  -31.8660   23.2220 C   0  0  0  0  0  0  0  0  0  0  0  0
  -27.1800  -27.3210   20.1600 C   0  0  0  0  0  0  0  0  0  0  0  0
  -23.3640  -30.4610   21.5940 C   0  0  0  0  0  3  0  0  0  0  0  0
  -24.8090  -28.9180   20.1720 C   0  0  0  0  0  0  0  0  0  0  0  0
  -25.9010  -30.7930   21.3900 C   0  0  0  0  0  2  0  0  0  0  0  0
  -25.9840  -29.4130   20.7530 C   0  0  0  0  0  0  0  0  0  0  0  0
  -27.1740  -28.6290   20.7350 C   0  0  0  0  0  3  0  0  0  0  0  0
  -25.9770  -26.8900   19.5430 C   0  0  0  0  0  3  0  0  0  0  0  0
  -24.8060  -27.6640   19.5570 C   0  0  0  0  0  3  0  0  0  0  0  0
  -23.5720  -29.7860   20.2160 C   0  0  0  0  0  2  0  0  0  0  0  0
  -24.6330  -31.0570   22.1260 N   0  0  0  0  0  0  0  0  0  0  0  0
  -23.4890  -32.1420   23.7600 O   0  0  0  0  0  0  0  0  0  0  0  0
  -22.7080  -29.4430   22.5600 C   0  0  0  0  0  0  0  0  0  0  0  0
  -21.3810  -29.2680   22.4400 N   0  0  0  0  0  0  0  0  0  0  0  0
  -23.3920  -28.8150   23.3730 O   0  0  0  0  0  0  0  0  0  0  0  0
  -20.8910  -29.8310   21.7590 H   0  0  0  0  0  0  0  0  0  0  0  0
  -18.0020  -28.0860   22.9600 C   0  0  0  0  0  0  0  0  0  0  0  0
  -20.5620  -28.3330   23.2140 C   0  0  0  0  0  3  0  0  0  0  0  0
  -20.6550  -26.9000   22.6400 C   0  0  0  0  0  2  0  0  0  0  0  0
  -19.5450  -26.5800   21.6330 C   0  0  0  0  0  2  0  0  0  0  0  0
  -18.1680  -26.7340   22.2860 C   0  0  0  0  0  2  0  0  0  0  0  0
  -19.1260  -28.8440   23.3800 C   0  0  0  0  0  0  0  0  0  0  0  0
  -18.9160  -30.1100   23.9680 C   0  0  0  0  0  3  0  0  0  0  0  0
  -17.6140  -30.6180   24.1390 C   0  0  0  0  0  3  0  0  0  0  0  0
  -16.5040  -29.8580   23.7330 C   0  0  0  0  0  3  0  0  0  0  0  0
  -16.6980  -28.5920   23.1500 C   0  0  0  0  0  3  0  0  0  0  0  0
  -25.8540  -32.5040   23.8370 C   0  0  0  0  0  3  0  0  0  0  0  0
  -25.5390  -33.9000   24.1690 N   0  0  0  0  0  0  0  0  0  0  0  0
  -25.8520  -34.9550   23.4040 C   0  0  0  0  0  0  0  0  0  0  0  0
  -26.5060  -34.8550   22.3620 O   0  0  0  0  0  0  0  0  0  0  0  0
  -24.9520  -34.0520   24.9780 H   0  0  0  0  0  0  0  0  0  0  0  0
  -24.1020  -36.7360   23.0830 C   0  0  0  0  0  1  0  0  0  0  0  0
  -25.3640  -36.3420   23.8680 C   0  0  0  0  0  3  0  0  0  0  0  0
  -27.5100  -37.2450   24.6470 C   0  0  0  0  0  1  0  0  0  0  0  0
  -26.3850  -37.4030   23.7290 N   0  0  0  0  0  0  0  0  0  0  0  0
  -25.9730  -38.3180   23.8880 H   0  0  0  0  0  0  0  0  0  0  0  0
  -26.3820  -31.7310   25.1090 C   0  0  1  0  0  0  0  0  0  0  0  0
  -25.2980  -31.4870   26.1850 C   0  0  0  0  0  1  0  0  0  0  0  0
  -26.9620  -30.3580   24.7030 C   0  0  0  0  0  1  0  0  0  0  0  0
  -27.5340  -32.5280   25.7660 C   0  0  0  0  0  1  0  0  0  0  0  0
  1  2  2  0
  1  3  1  0
  2  4  1  0
  3  5  2  0
  4  6  2  0
  5  6  1  0
  5  7  1  0
  7  8  1  0
  9 22  1  0
 10 15  1  0
 11 12  1  0
 11 10  1  0
 13 12  1  0
 13 26  1  0
 13 14  1  0
 15  9  1  0
 15 14  1  0
 16  9  2  0
 17 21  1  0
 19 17  1  0
 19 22  1  0
 20 18  1  0
 21  7  1  0
 21 18  1  0
 22 20  1  0
 23 24  2  0
 24 43  1  0
 25 24  1  0
 25 28  1  0
 26 27  1  0
 26 23  1  0
 27 25  2  0
 28 29  1  0
 29 30  2  0
 31 34  1  0
 31 30  1  0
 32 31  2  0
 33 32  1  0
 33 28  2  0
 34 35  1  0
 35 36  1  0
 36 37  2  0
 38 37  1  0
 38 42  1  0
 39 38  2  0
 40 35  2  0
 40 39  1  0
 41 40  1  0
 43 44  1  0
 44 47  1  0
 44 46  1  0
 45 43  2  0
 48 23  1  0
 48 49  1  0
 50 48  1  0
 51 52  1  0
 51  4  1  0
 53 64  2  0
 54 52  1  0
 54 59  1  0
 55 63  1  0
 55 65  1  0
 56 62  1  0
 56 58  1  0
 57 63  1  0
 58 57  1  0
 59 58  2  0
 60 61  1  0
 60 54  2  0
 61 56  2  0
 62 55  1  0
 63 53  1  0
 65 67  2  0
 66 65  1  0
 68 66  1  0
 69 78  2  0
 69 74  1  0
 70 66  1  0
 70 74  1  0
 71 70  1  0
 72 73  1  0
 72 71  1  0
 73 69  1  0
 74 75  2  0
 75 76  1  0
 77 76  2  0
 78 77  1  0
 79 53  1  0
 79 80  1  0
 79 89  1  0
 80 83  1  0
 81 85  1  0
 81 80  1  0
 82 81  2  0
 85 84  1  0
 87 85  1  0
 87 88  1  0
 87 86  1  0
 89 92  1  1
 89 90  1  0
 91 89  1  0
M  ISO  4   9 100  22 100  51 101  52 101
M  END
>  <TORSDO>  (23) 
F 18

>  <SCORE>  (23) 
-14.905

>  <name>  (23) 
22

>  <ligand_id>  (23) 
22

>  <original_smiles>  (23) 
[H]c1c(N([H])C2([H])C([H])([H])C([H])([H])N(C(=O)N3C([H])([H])C([H])([H])C([H])([H])C([H])(n4nc(-c5c([H])c([H])c(Oc6c([H])c([H])c(F)c([H])c6F)c([H])c5[H])c(C(=O)N([H])[H])c4N([H])[H])C3([H])[H])C([H])([H])C2([H])[H])nc(C([H])([H])Oc2c([H])c([H])c3c(c2[H])C([H])([H])N(C(=O)C([H])(N([H])C(=O)C([H])(N([H])C([H])([H])[H])C([H])([H])[H])C(C([H])([H])[H])(C([H])([H])[H])C([H])([H])[H])C([H])(C(=O)N([H])C2([H])c4c([H])c([H])c([H])c([H])c4C([H])([H])C([H])([H])C2([H])[H])C3([H])[H])c([H])c1[H]

>  <smiles>  (23) 
[H]c1c(N([H])C2([H])C([H])([H])C([H])([H])N(C(=O)N3C([H])([H])C([H])([H])C([H])([H])C([H])(n4nc(-c5c([H])c([H])c(Oc6c([H])c([H])c(F)c([H])c6F)c([H])c5[H])c(C(=O)N([H])[H])c4N([H])[H])C3([H])[H])C([H])([H])C2([H])[H])nc(C([H])([H])Oc2c([H])c([H])c3c(c2[H])C([H])([H])N(C(=O)C([H])(N([H])C(=O)C([H])(N([H])C([H])([H])[H])C([H])([H])[H])C(C([H])([H])[H])(C([H])([H])[H])C([H])([H])[H])C([H])(C(=O)N([H])C2([H])c4c([H])c([H])c([H])c([H])c4C([H])([H])C([H])([H])C2([H])[H])C3([H])[H])c([H])c1[H]

$$$$
23:0:0
     RDKit          3D

 94104  0  0  1  0  0  0  0  0999 V2000
  -28.4350  -21.5040   21.7320 C   0  0  0  0  0  3  0  0  0  0  0  0
  -29.6100  -21.1520   19.6020 C   0  0  0  0  0  0  0  0  0  0  0  0
  -29.5640  -21.0540   21.0270 C   0  0  0  0  0  0  0  0  0  0  0  0
  -28.7040  -22.2240   19.0930 C   0  0  0  0  0  0  0  0  0  0  0  0
  -27.4140  -22.1440   21.0440 C   0  0  0  0  0  0  0  0  0  0  0  0
  -30.6820  -20.5530   21.9220 C   0  0  0  0  0  1  0  0  0  0  0  0
  -26.1300  -22.5900   21.7110 C   0  0  0  0  0  1  0  0  0  0  0  0
  -27.5890  -22.5430   19.7800 N   0  0  0  0  0  0  0  0  0  0  0  0
  -29.1280  -24.9700   18.6630 C   0  0  0  0  0  2  0  0  0  0  0  0
  -27.7380  -24.2240   17.3300 C   0  0  0  0  0  2  0  0  0  0  0  0
  -28.9210  -23.4900   18.1300 C   0  0  0  0  0  3  0  0  0  0  0  0
  -28.4510  -25.6160   17.3940 C   0  0  0  0  0  3  0  0  0  0  0  0
  -27.9470  -27.0620   17.3740 O   0  0  0  0  0  0  0  0  0  0  0  0
  -24.5830  -30.8270   22.5840 C   0  0  0  0  0  0  0  0  0  0  0  0
  -26.7420  -27.6860   17.7970 C   0  0  0  0  0  0  0  0  0  0  0  0
  -23.1300  -29.8340   20.8460 C   0  0  0  0  0  3  0  0  0  0  0  0
  -24.3210  -28.9540   18.7500 C   0  0  0  0  0  0  0  0  0  0  0  0
  -25.5430  -30.4970   20.2870 C   0  0  0  0  0  2  0  0  0  0  0  0
  -25.5600  -29.3860   19.2310 C   0  0  0  0  0  0  0  0  0  0  0  0
  -26.7600  -28.7710   18.7410 C   0  0  0  0  0  3  0  0  0  0  0  0
  -25.4670  -27.3110   17.3170 C   0  0  0  0  0  3  0  0  0  0  0  0
  -24.2810  -27.9240   17.7850 C   0  0  0  0  0  3  0  0  0  0  0  0
  -23.0730  -29.6220   19.3080 C   0  0  0  0  0  2  0  0  0  0  0  0
  -24.4470  -30.3920   21.2950 N   0  0  0  0  0  0  0  0  0  0  0  0
  -23.6320  -30.7950   23.3800 O   0  0  0  0  0  0  0  0  0  0  0  0
  -22.7630  -28.5080   21.5520 C   0  0  0  0  0  0  0  0  0  0  0  0
  -21.4910  -28.0820   21.4320 N   0  0  0  0  0  0  0  0  0  0  0  0
  -23.6160  -27.8690   22.1730 O   0  0  0  0  0  0  0  0  0  0  0  0
  -20.8440  -28.6630   20.9170 H   0  0  0  0  0  0  0  0  0  0  0  0
  -18.5270  -26.0160   21.5820 C   0  0  0  0  0  0  0  0  0  0  0  0
  -20.9460  -26.8350   21.9750 C   0  0  0  0  0  3  0  0  0  0  0  0
  -21.3870  -25.6200   21.1250 C   0  0  0  0  0  2  0  0  0  0  0  0
  -20.3760  -25.2530   20.0340 C   0  0  0  0  0  2  0  0  0  0  0  0
  -19.0150  -24.9220   20.6510 C   0  0  0  0  0  2  0  0  0  0  0  0
  -19.4310  -26.9260   22.1920 C   0  0  0  0  0  0  0  0  0  0  0  0
  -18.9150  -27.9500   23.0170 C   0  0  0  0  0  3  0  0  0  0  0  0
  -17.5300  -28.0660   23.2410 C   0  0  0  0  0  3  0  0  0  0  0  0
  -16.6420  -27.1520   22.6470 C   0  0  0  0  0  3  0  0  0  0  0  0
  -17.1420  -26.1300   21.8190 C   0  0  0  0  0  3  0  0  0  0  0  0
  -25.9330  -31.4050   23.1160 C   0  0  0  0  0  3  0  0  0  0  0  0
  -26.7220  -30.3960   24.0380 C   0  0  1  0  0  0  0  0  0  0  0  0
  -25.8710  -29.8000   25.1840 C   0  0  0  0  0  1  0  0  0  0  0  0
  -27.2880  -29.2200   23.2110 C   0  0  0  0  0  1  0  0  0  0  0  0
  -27.9400  -31.1100   24.6730 C   0  0  0  0  0  1  0  0  0  0  0  0
  -25.6300  -32.6400   23.8520 N   0  0  0  0  0  0  0  0  0  0  0  0
  -25.7610  -33.8780   23.3550 C   0  0  0  0  0  0  0  0  0  0  0  0
  -26.2250  -34.1000   22.2320 O   0  0  0  0  0  0  0  0  0  0  0  0
  -25.1980  -32.5320   24.7580 H   0  0  0  0  0  0  0  0  0  0  0  0
  -23.9230  -35.5390   23.7920 C   0  0  0  0  0  1  0  0  0  0  0  0
  -25.3090  -35.0520   24.2430 C   0  0  0  0  0  3  0  0  0  0  0  0
  -27.5120  -35.8900   24.9260 C   0  0  0  0  0  1  0  0  0  0  0  0
  -26.2560  -36.1880   24.2450 N   0  0  0  0  0  0  0  0  0  0  0  0
  -25.8390  -36.9990   24.6890 H   0  0  0  0  0  0  0  0  0  0  0  0
  -31.7300  -19.7760   18.4870 C   0  0  0  0  0  2  0  0  0  0  0  0
  -30.2600  -19.8800   18.8390 C   0  0  0  0  0  3  0  0  0  0  0  0
  -31.2240  -18.6830   19.4110 C   0  0  0  0  0  3  0  0  0  0  0  0
  -32.1470  -16.1760   19.4090 C   0  0  0  0  0  0  0  0  0  0  0  0
  -32.1790  -13.6810   19.0570 C   0  0  0  0  0  2  0  0  0  0  0  0
  -31.2290  -13.3000   17.8990 C   0  0  0  0  0  2  0  0  0  0  0  0
  -29.7760  -13.1410   18.3990 C   0  0  0  0  0  2  0  0  0  0  0  0
  -29.3270  -14.3050   19.3220 C   0  0  0  0  0  3  0  0  0  0  0  0
  -30.3960  -14.6320   20.3860 C   0  0  0  0  0  2  0  0  0  0  0  0
  -31.6440  -14.9150   19.6770 N   0  0  0  0  0  0  0  0  0  0  0  0
  -33.3600  -16.3200   19.2520 O   0  0  0  0  0  0  0  0  0  0  0  0
  -31.2280  -17.2000   19.1170 N   0  0  0  0  0  0  0  0  0  0  0  0
  -30.2960  -16.8290   19.0240 H   0  0  0  0  0  0  0  0  0  0  0  0
  -27.0580  -14.9810   20.2970 C   0  0  0  0  0  0  0  0  0  0  0  0
  -25.9740  -14.2510   20.6930 C   0  0  0  0  0  0  0  0  0  0  0  0
  -26.3440  -12.8810   20.5490 C   0  0  0  0  0  0  0  0  0  0  0  0
  -28.0170  -14.0600   19.9150 N   0  0  0  0  0  0  0  0  0  0  0  0
  -27.6030  -12.7860   20.1360 N   0  0  0  0  0  0  0  0  0  0  0  0
  -25.5510  -11.6570   20.7130 C   0  0  0  0  0  0  0  0  0  0  0  0
  -25.8050  -10.7480   21.7650 C   0  0  0  0  0  3  0  0  0  0  0  0
  -25.0170   -9.5860   21.9130 C   0  0  0  0  0  3  0  0  0  0  0  0
  -23.9600   -9.3230   21.0090 C   0  0  0  0  0  0  0  0  0  0  0  0
  -23.7260  -10.2210   19.9510 C   0  0  0  0  0  3  0  0  0  0  0  0
  -24.5140  -11.3740   19.8000 C   0  0  0  0  0  3  0  0  0  0  0  0
  -23.1570   -8.2090   21.0590 O   0  0  0  0  0  0  0  0  0  0  0  0
  -22.6050   -7.7780   22.2360 C   0  0  0  0  0  0  0  0  0  0  0  0
  -21.7710   -8.6090   23.0190 C   0  0  0  0  0  3  0  0  0  0  0  0
  -21.1660   -8.1000   24.1870 C   0  0  0  0  0  3  0  0  0  0  0  0
  -21.3860   -6.7630   24.5690 C   0  0  0  0  0  0  0  0  0  0  0  0
  -22.2090   -5.9330   23.7890 C   0  0  0  0  0  3  0  0  0  0  0  0
  -22.8150   -6.4400   22.6250 C   0  0  0  0  0  0  0  0  0  0  0  0
  -23.5900   -5.6300   21.8660 F   0  0  0  0  0  0  0  0  0  0  0  0
  -20.7980   -6.2730   25.6880 F   0  0  0  0  0  0  0  0  0  0  0  0
  -24.6300  -14.7970   21.0830 C   0  0  0  0  0  0  0  0  0  0  0  0
  -23.9280  -14.1220   21.9850 N   0  0  0  0  0  0  0  0  0  0  0  0
  -24.2140  -15.8580   20.6180 O   0  0  0  0  0  0  0  0  0  0  0  0
  -24.2760  -13.2650   22.3940 H   0  0  0  0  0  0  0  0  0  0  0  0
  -23.0260  -14.4720   22.2780 H   0  0  0  0  0  0  0  0  0  0  0  0
  -27.2940  -16.3500   20.2040 N   0  0  0  0  0  0  0  0  0  0  0  0
  -26.5760  -17.0280   20.4340 H   0  0  0  0  0  0  0  0  0  0  0  0
  -28.1470  -16.7780   19.8730 H   0  0  0  0  0  0  0  0  0  0  0  0
  2  3  1  0
  3  1  2  0
  3  6  1  0
  4  2  2  0
  4  8  1  0
  5  7  1  0
  5  1  1  0
  8  5  2  0
 10 12  1  0
 10 11  1  0
 11  9  1  0
 11  4  1  0
 12 13  1  0
 12  9  1  0
 13 15  1  0
 14 25  2  0
 15 20  1  0
 16 24  1  0
 16 26  1  0
 17 19  1  0
 17 23  1  0
 18 24  1  0
 19 18  1  0
 20 19  2  0
 21 22  1  0
 21 15  2  0
 22 17  2  0
 23 16  1  0
 24 14  1  0
 26 28  2  0
 27 26  1  0
 29 27  1  0
 30 39  2  0
 30 35  1  0
 31 27  1  0
 31 35  1  0
 32 31  1  0
 33 34  1  0
 33 32  1  0
 34 30  1  0
 35 36  2  0
 36 37  1  0
 38 37  2  0
 39 38  1  0
 40 14  1  0
 40 45  1  0
 40 41  1  0
 41 44  1  1
 41 42  1  0
 43 41  1  0
 45 48  1  0
 46 45  1  0
 46 50  1  0
 47 46  2  0
 50 49  1  0
 50 52  1  0
 52 53  1  0
 52 51  1  0
 54 55  1  0
 54 56  1  0
 55 56  1  0
 55  2  1  0
 56 65  1  0
 57 63  1  0
 58 63  1  0
 59 60  1  0
 59 58  1  0
 61 60  1  0
 61 70  1  0
 61 62  1  0
 63 62  1  0
 64 57  2  0
 65 57  1  0
 66 65  1  0
 67 68  2  0
 68 87  1  0
 69 68  1  0
 69 72  1  0
 70 71  1  0
 70 67  1  0
 71 69  2  0
 72 73  1  0
 73 74  2  0
 75 78  1  0
 75 74  1  0
 76 75  2  0
 77 76  1  0
 77 72  2  0
 78 79  1  0
 79 84  2  0
 79 80  1  0
 80 81  2  0
 81 82  1  0
 82 86  1  0
 83 82  2  0
 84 83  1  0
 85 84  1  0
 87 88  1  0
 88 91  1  0
 88 90  1  0
 89 87  2  0
 92 67  1  0
 92 93  1  0
 94 92  1  0
M  ISO  4  12 101  13 101  57 100  65 100
M  END
>  <TORSDO>  (24) 
F 18

>  <SCORE>  (24) 
-6.530

>  <name>  (24) 
23

>  <ligand_id>  (24) 
23

>  <original_smiles>  (24) 
[H]c1c([H])c([H])c2c(c1[H])C([H])([H])C([H])([H])C([H])([H])C2([H])N([H])C(=O)C1([H])N(C(=O)C([H])(N([H])C(=O)C([H])(N([H])C([H])([H])[H])C([H])([H])[H])C(C([H])([H])[H])(C([H])([H])[H])C([H])([H])[H])C([H])([H])c2c([H])c(OC3([H])C([H])([H])C([H])(c4nc(C([H])([H])[H])c([H])c(C([H])([H])[H])c4C4([H])C([H])([H])C4([H])N([H])C(=O)N4C([H])([H])C([H])([H])C([H])([H])C([H])(n5nc(-c6c([H])c([H])c(Oc7c([H])c([H])c(F)c([H])c7F)c([H])c6[H])c(C(=O)N([H])[H])c5N([H])[H])C4([H])[H])C3([H])[H])c([H])c([H])c2C1([H])[H]

>  <smiles>  (24) 
[H]c1c([H])c([H])c2c(c1[H])C([H])([H])C([H])([H])C([H])([H])C2([H])N([H])C(=O)C1([H])N(C(=O)C([H])(N([H])C(=O)C([H])(N([H])C([H])([H])[H])C([H])([H])[H])C(C([H])([H])[H])(C([H])([H])[H])C([H])([H])[H])C([H])([H])c2c([H])c(OC3([H])C([H])([H])C([H])(c4nc(C([H])([H])[H])c([H])c(C([H])([H])[H])c4C4([H])C([H])([H])C4([H])N([H])C(=O)N4C([H])([H])C([H])([H])C([H])([H])C([H])(n5nc(-c6c([H])c([H])c(Oc7c([H])c([H])c(F)c([H])c7F)c([H])c6[H])c(C(=O)N([H])[H])c5N([H])[H])C4([H])[H])C3([H])[H])c([H])c([H])c2C1([H])[H]

$$$$
24:0:0
     RDKit          3D

102114  0  0  1  0  0  0  0  0999 V2000
  -26.9300  -19.4750   19.1220 C   0  0  0  0  0  3  0  0  0  0  0  0
  -29.2900  -19.6690   20.5310 C   0  0  0  0  0  3  0  0  0  0  0  0
  -27.6340  -20.6890   19.0970 C   0  0  0  0  0  0  0  0  0  0  0  0
  -27.4050  -18.3410   19.7980 C   0  0  0  0  0  0  0  0  0  0  0  0
  -28.6690  -20.8850   20.0560 C   0  0  0  0  0  0  0  0  0  0  0  0
  -28.7450  -18.3560   20.2740 C   0  0  0  0  0  0  0  0  0  0  0  0
  -30.6050  -13.7860   19.6950 C   0  0  0  0  0  0  0  0  0  0  0  0
  -30.1510  -11.5570   18.6770 C   0  0  0  0  0  2  0  0  0  0  0  0
  -29.1360  -11.7060   17.5200 C   0  0  0  0  0  2  0  0  0  0  0  0
  -27.6970  -11.6280   18.0590 C   0  0  0  0  0  2  0  0  0  0  0  0
  -27.4770  -12.5440   19.2920 C   0  0  0  0  0  3  0  0  0  0  0  0
  -28.5980  -12.3610   20.3360 C   0  0  0  0  0  2  0  0  0  0  0  0
  -29.8700  -12.6250   19.6610 N   0  0  0  0  0  0  0  0  0  0  0  0
  -31.7330  -13.8140   19.1970 O   0  0  0  0  0  0  0  0  0  0  0  0
  -28.9960  -15.5950   20.8210 C   0  0  0  0  0  2  0  0  0  0  0  0
  -30.2180  -16.3160   19.2670 C   0  0  0  0  0  2  0  0  0  0  0  0
  -29.5600  -17.0180   20.4780 C   0  0  0  0  0  3  0  0  0  0  0  0
  -29.9470  -14.9890   19.8660 N   0  0  0  0  0  0  0  0  0  0  0  0
  -25.2080  -13.2920   20.2140 C   0  0  0  0  0  0  0  0  0  0  0  0
  -24.1250  -12.5960   20.6750 C   0  0  0  0  0  0  0  0  0  0  0  0
  -24.4740  -11.2190   20.5660 C   0  0  0  0  0  0  0  0  0  0  0  0
  -26.1580  -12.3450   19.8800 N   0  0  0  0  0  0  0  0  0  0  0  0
  -25.7280  -11.0880   20.1530 N   0  0  0  0  0  0  0  0  0  0  0  0
  -23.6650  -10.0140   20.7860 C   0  0  0  0  0  0  0  0  0  0  0  0
  -23.9100   -9.1490   21.8740 C   0  0  0  0  0  3  0  0  0  0  0  0
  -23.1040   -8.0050   22.0720 C   0  0  0  0  0  3  0  0  0  0  0  0
  -22.0460   -7.7180   21.1770 C   0  0  0  0  0  0  0  0  0  0  0  0
  -21.8210   -8.5740   20.0840 C   0  0  0  0  0  3  0  0  0  0  0  0
  -22.6260   -9.7100   19.8850 C   0  0  0  0  0  3  0  0  0  0  0  0
  -21.2330   -6.6130   21.2740 O   0  0  0  0  0  0  0  0  0  0  0  0
  -20.8060   -6.1430   22.4890 C   0  0  0  0  0  0  0  0  0  0  0  0
  -20.0190   -6.9310   23.3580 C   0  0  0  0  0  3  0  0  0  0  0  0
  -19.5410   -6.3830   24.5650 C   0  0  0  0  0  3  0  0  0  0  0  0
  -19.8390   -5.0480   24.9020 C   0  0  0  0  0  0  0  0  0  0  0  0
  -20.6200   -4.2630   24.0360 C   0  0  0  0  0  3  0  0  0  0  0  0
  -21.0990   -4.8060   22.8320 C   0  0  0  0  0  0  0  0  0  0  0  0
  -21.8330   -4.0390   21.9890 F   0  0  0  0  0  0  0  0  0  0  0  0
  -19.3750   -4.5200   26.0570 F   0  0  0  0  0  0  0  0  0  0  0  0
  -22.8030  -13.1770   21.0820 C   0  0  0  0  0  0  0  0  0  0  0  0
  -22.1120  -12.5320   22.0140 N   0  0  0  0  0  0  0  0  0  0  0  0
  -22.3990  -14.2380   20.6130 O   0  0  0  0  0  0  0  0  0  0  0  0
  -22.4570  -11.6730   22.4130 H   0  0  0  0  0  0  0  0  0  0  0  0
  -21.2280  -12.9070   22.3330 H   0  0  0  0  0  0  0  0  0  0  0  0
  -25.4390  -14.6420   20.0160 N   0  0  0  0  0  0  0  0  0  0  0  0
  -24.6730  -15.3020   20.1020 H   0  0  0  0  0  0  0  0  0  0  0  0
  -26.2220  -14.9940   19.4810 H   0  0  0  0  0  0  0  0  0  0  0  0
  -29.5020  -23.3610   19.4400 C   0  0  0  0  0  2  0  0  0  0  0  0
  -29.5750  -24.7600   20.0720 C   0  0  0  0  0  2  0  0  0  0  0  0
  -29.1320  -22.3250   20.5280 C   0  0  0  0  0  3  0  0  0  0  0  0
  -28.2030  -23.1930   21.4650 C   0  0  0  0  0  3  0  0  0  0  0  0
  -28.8300  -24.6330   21.3960 C   0  0  0  0  0  3  0  0  0  0  0  0
  -26.7770  -23.1870   21.0740 N   0  0  0  0  0  4  0  0  0  0  0  0
  -26.2730  -23.9110   21.5640 H   0  0  0  0  0  0  0  0  0  0  0  0
  -26.3670  -22.3130   21.3530 H   0  0  0  0  0  0  0  0  0  0  0  0
  -26.6500  -23.2970   20.0850 H   0  0  0  0  0  0  0  0  0  0  0  0
  -28.2230  -25.8370   21.9430 O   0  0  0  0  0  0  0  0  0  0  0  0
  -24.1530  -31.4550   23.3420 C   0  0  0  0  0  0  0  0  0  0  0  0
  -27.0770  -26.5020   21.5210 C   0  0  0  0  0  0  0  0  0  0  0  0
  -23.1740  -29.8350   21.7410 C   0  0  0  0  0  3  0  0  0  0  0  0
  -24.7740  -28.0440   20.8500 C   0  0  0  0  0  0  0  0  0  0  0  0
  -25.7110  -30.1020   21.9260 C   0  0  0  0  0  2  0  0  0  0  0  0
  -25.8360  -28.6360   21.5390 C   0  0  0  0  0  0  0  0  0  0  0  0
  -26.9800  -27.8730   21.8660 C   0  0  0  0  0  3  0  0  0  0  0  0
  -26.0090  -25.9260   20.7930 C   0  0  0  0  0  3  0  0  0  0  0  0
  -24.8610  -26.6880   20.4670 C   0  0  0  0  0  3  0  0  0  0  0  0
  -23.5750  -28.9250   20.5470 C   0  0  0  0  0  2  0  0  0  0  0  0
  -24.3560  -30.4950   22.3910 N   0  0  0  0  0  0  0  0  0  0  0  0
  -23.0110  -31.8240   23.6490 O   0  0  0  0  0  0  0  0  0  0  0  0
  -22.3160  -29.0000   22.7170 C   0  0  0  0  0  0  0  0  0  0  0  0
  -20.9960  -28.9600   22.4750 N   0  0  0  0  0  0  0  0  0  0  0  0
  -22.8420  -28.3820   23.6500 O   0  0  0  0  0  0  0  0  0  0  0  0
  -20.6480  -29.5290   21.7160 H   0  0  0  0  0  0  0  0  0  0  0  0
  -17.4470  -28.4100   22.9300 C   0  0  0  0  0  0  0  0  0  0  0  0
  -20.0070  -28.1870   23.2290 C   0  0  0  0  0  3  0  0  0  0  0  0
  -19.8580  -26.7610   22.6450 C   0  0  0  0  0  2  0  0  0  0  0  0
  -18.7100  -26.6270   21.6370 C   0  0  0  0  0  2  0  0  0  0  0  0
  -17.3760  -27.0520   22.2570 C   0  0  0  0  0  2  0  0  0  0  0  0
  -18.6830  -28.9500   23.3700 C   0  0  0  0  0  0  0  0  0  0  0  0
  -18.6990  -30.2350   23.9520 C   0  0  0  0  0  3  0  0  0  0  0  0
  -17.5080  -30.9720   24.1110 C   0  0  0  0  0  3  0  0  0  0  0  0
  -16.2870  -30.4290   23.6830 C   0  0  0  0  0  3  0  0  0  0  0  0
  -16.2570  -29.1510   23.0990 C   0  0  0  0  0  3  0  0  0  0  0  0
  -25.3420  -32.1470   24.0790 C   0  0  0  0  0  3  0  0  0  0  0  0
  -25.6210  -31.5580   25.5170 C   0  0  1  0  0  0  0  0  0  0  0  0
  -24.3630  -31.4580   26.4100 C   0  0  0  0  0  1  0  0  0  0  0  0
  -26.2460  -30.1490   25.4080 C   0  0  0  0  0  1  0  0  0  0  0  0
  -26.6550  -32.4400   26.2550 C   0  0  0  0  0  1  0  0  0  0  0  0
  -25.0390  -33.5810   24.1660 N   0  0  0  0  0  0  0  0  0  0  0  0
  -25.5350  -34.5150   23.3430 C   0  0  0  0  0  0  0  0  0  0  0  0
  -26.3650  -34.2600   22.4630 O   0  0  0  0  0  0  0  0  0  0  0  0
  -24.3310  -33.8550   24.8300 H   0  0  0  0  0  0  0  0  0  0  0  0
  -23.9930  -36.2750   22.4290 C   0  0  0  0  0  1  0  0  0  0  0  0
  -25.0320  -35.9620   23.5160 C   0  0  0  0  0  3  0  0  0  0  0  0
  -26.9950  -36.9090   24.6440 C   0  0  0  0  0  1  0  0  0  0  0  0
  -26.1160  -36.9680   23.4800 N   0  0  0  0  0  0  0  0  0  0  0  0
  -25.7380  -37.9090   23.4180 H   0  0  0  0  0  0  0  0  0  0  0  0
  -27.0550  -21.0530   16.6000 C   0  0  0  0  0  2  0  0  0  0  0  0
  -28.1640  -22.0270   16.8410 C   0  0  0  0  0  2  0  0  0  0  0  0
  -27.2380  -21.6320   17.9910 C   0  0  0  0  0  3  0  0  0  0  0  0
  -25.7670  -16.8630   21.2480 C   0  0  0  0  0  2  0  0  0  0  0  0
  -24.9680  -17.4730   20.1300 C   0  0  0  0  0  2  0  0  0  0  0  0
  -26.4480  -17.1950   19.9350 C   0  0  0  0  0  3  0  0  0  0  0  0
  1  4  1  0
  3  1  2  0
  3  5  1  0
  4102  1  0
  4  6  2  0
  5  2  2  0
  6  2  1  0
  7 18  1  0
  8 13  1  0
  9 10  1  0
  9  8  1  0
 11 10  1  0
 11 22  1  0
 11 12  1  0
 13  7  1  0
 13 12  1  0
 14  7  2  0
 16 18  1  0
 16 17  1  0
 17  6  1  0
 17 15  1  0
 18 15  1  0
 19 20  2  0
 20 39  1  0
 21 20  1  0
 21 24  1  0
 22 23  1  0
 22 19  1  0
 23 21  2  0
 24 25  1  0
 25 26  2  0
 27 30  1  0
 27 26  1  0
 28 27  2  0
 29 28  1  0
 29 24  2  0
 30 31  1  0
 31 36  2  0
 31 32  1  0
 32 33  2  0
 33 34  1  0
 34 38  1  0
 35 34  2  0
 36 35  1  0
 37 36  1  0
 39 40  1  0
 40 43  1  0
 40 42  1  0
 41 39  2  0
 44 45  1  0
 44 19  1  0
 46 44  1  0
 47 48  1  0
 47 49  1  0
 48 51  1  0
 49  5  1  0
 49 50  1  0
 50 52  1  0
 51 50  1  0
 51 56  1  0
 52 54  1  0
 52 53  1  0
 55 52  1  0
 57 68  2  0
 58 63  1  0
 58 56  1  0
 59 67  1  0
 59 69  1  0
 60 62  1  0
 61 67  1  0
 62 63  2  0
 62 61  1  0
 64 58  2  0
 65 64  1  0
 65 60  2  0
 66 60  1  0
 66 59  1  0
 67 57  1  0
 69 71  2  0
 70 69  1  0
 72 70  1  0
 73 82  2  0
 73 78  1  0
 74 70  1  0
 74 78  1  0
 75 74  1  0
 76 77  1  0
 76 75  1  0
 77 73  1  0
 78 79  2  0
 79 80  1  0
 81 80  2  0
 82 81  1  0
 83 57  1  0
 83 88  1  0
 83 84  1  0
 84 87  1  1
 84 85  1  0
 86 84  1  0
 88 91  1  0
 89 93  1  0
 89 88  1  0
 90 89  2  0
 93 92  1  0
 95 93  1  0
 95 94  1  0
 96 95  1  0
 97 98  1  0
 97 99  1  0
 98 99  1  0
 99  3  1  0
101100  1  0
102101  1  0
102100  1  0
M  ISO  4   7 100  18 100  51 101  56 101
M  END
>  <TORSDO>  (25) 
F 20

>  <SCORE>  (25) 
-7.507

>  <name>  (25) 
24

>  <ligand_id>  (25) 
24

>  <original_smiles>  (25) 
[H]c1c([H])c([H])c2c(c1[H])C([H])([H])C([H])([H])C([H])([H])C2([H])N([H])C(=O)C1([H])N(C(=O)C([H])(N([H])C(=O)C([H])(N([H])C([H])([H])[H])C([H])([H])[H])C(C([H])([H])[H])(C([H])([H])[H])C([H])([H])[H])C([H])([H])c2c([H])c(OC3([H])C([H])([H])C([H])([H])C([H])(c4c([H])c(C5([H])C([H])([H])N(C(=O)N6C([H])([H])C([H])([H])C([H])([H])C([H])(n7nc(-c8c([H])c([H])c(Oc9c([H])c([H])c(F)c([H])c9F)c([H])c8[H])c(C(=O)N([H])[H])c7N([H])[H])C6([H])[H])C5([H])[H])c(C5([H])C([H])([H])C5([H])[H])c([H])c4C4([H])C([H])([H])C4([H])[H])C3([H])[N+]([H])([H])[H])c([H])c([H])c2C1([H])[H]

>  <smiles>  (25) 
[H]c1c([H])c([H])c2c(c1[H])C([H])([H])C([H])([H])C([H])([H])C2([H])N([H])C(=O)C1([H])N(C(=O)C([H])(N([H])C(=O)C([H])(N([H])C([H])([H])[H])C([H])([H])[H])C(C([H])([H])[H])(C([H])([H])[H])C([H])([H])[H])C([H])([H])c2c([H])c(OC3([H])C([H])([H])C([H])([H])C([H])(c4c([H])c(C5([H])C([H])([H])N(C(=O)N6C([H])([H])C([H])([H])C([H])([H])C([H])(n7nc(-c8c([H])c([H])c(Oc9c([H])c([H])c(F)c([H])c9F)c([H])c8[H])c(C(=O)N([H])[H])c7N([H])[H])C6([H])[H])C5([H])[H])c(C5([H])C([H])([H])C5([H])[H])c([H])c4C4([H])C([H])([H])C4([H])[H])C3([H])[N+]([H])([H])[H])c([H])c([H])c2C1([H])[H]

$$$$
25:0:0
     RDKit          3D

 97106  0  0  1  0  0  0  0  0999 V2000
  -29.9170  -23.7040   21.5690 C   0  0  0  0  0  0  0  0  0  0  0  0
  -28.8770  -23.9950   20.6490 C   0  0  0  0  0  0  0  0  0  0  0  0
  -30.4610  -22.3840   21.6250 C   0  0  0  0  0  0  0  0  0  0  0  0
  -28.5250  -22.9430   19.7500 C   0  0  0  0  0  0  0  0  0  0  0  0
  -29.9830  -21.3850   20.7380 C   0  0  0  0  0  0  0  0  0  0  0  0
  -30.4110  -24.7850   22.5250 C   0  0  0  0  0  1  0  0  0  0  0  0
  -31.5280  -22.0450   22.6680 C   0  0  0  0  0  1  0  0  0  0  0  0
  -29.0500  -21.6830   19.8160 N   0  0  0  0  0  0  0  0  0  0  0  0
  -26.1550  -22.4220   19.0140 C   0  0  0  0  0  1  0  0  0  0  0  0
  -27.9980  -22.7020   17.2720 C   0  0  0  0  0  1  0  0  0  0  0  0
  -27.4740  -23.1230   18.6550 C   0  0  0  0  0  3  0  0  0  0  0  0
  -30.5220  -20.0720   20.7860 N   0  0  0  0  0  0  0  0  0  0  0  0
  -31.3680  -19.9870   21.3340 H   0  0  0  0  0  0  0  0  0  0  0  0
  -30.7360  -14.6250   20.0270 C   0  0  0  0  0  0  0  0  0  0  0  0
  -30.4130  -12.4260   18.9370 C   0  0  0  0  0  2  0  0  0  0  0  0
  -29.4020  -12.5950   17.7830 C   0  0  0  0  0  2  0  0  0  0  0  0
  -27.9590  -12.4320   18.2980 C   0  0  0  0  0  2  0  0  0  0  0  0
  -27.6780  -13.2680   19.5760 C   0  0  0  0  0  3  0  0  0  0  0  0
  -28.8030  -13.0950   20.6210 C   0  0  0  0  0  2  0  0  0  0  0  0
  -30.0740  -13.4290   19.9640 N   0  0  0  0  0  0  0  0  0  0  0  0
  -31.8780  -14.7470   19.5720 O   0  0  0  0  0  0  0  0  0  0  0  0
  -30.0630  -17.7730   21.6820 C   0  0  0  0  0  2  0  0  0  0  0  0
  -30.3570  -18.0970   19.2470 C   0  0  0  0  0  2  0  0  0  0  0  0
  -29.5100  -16.3330   21.4290 C   0  0  0  0  0  2  0  0  0  0  0  0
  -29.7570  -16.6800   19.0190 C   0  0  0  0  0  2  0  0  0  0  0  0
  -29.8300  -18.7870   20.5240 C   0  0  0  0  0  3  0  0  0  0  0  0
  -29.9510  -15.7430   20.1490 N   0  0  0  0  0  0  0  0  0  0  0  0
  -25.3360  -13.8400   20.4640 C   0  0  0  0  0  0  0  0  0  0  0  0
  -24.2940  -13.0520   20.8740 C   0  0  0  0  0  0  0  0  0  0  0  0
  -24.7520  -11.7030   20.7650 C   0  0  0  0  0  0  0  0  0  0  0  0
  -26.3630  -12.9690   20.1360 N   0  0  0  0  0  0  0  0  0  0  0  0
  -26.0200  -11.6770   20.3750 N   0  0  0  0  0  0  0  0  0  0  0  0
  -24.0370  -10.4340   20.9560 C   0  0  0  0  0  0  0  0  0  0  0  0
  -24.4740   -9.4740   21.8940 C   0  0  0  0  0  3  0  0  0  0  0  0
  -23.7600   -8.2690   22.0710 C   0  0  0  0  0  3  0  0  0  0  0  0
  -22.5940   -8.0170   21.3090 C   0  0  0  0  0  0  0  0  0  0  0  0
  -22.1770   -8.9670   20.3600 C   0  0  0  0  0  3  0  0  0  0  0  0
  -22.8920  -10.1630   20.1810 C   0  0  0  0  0  3  0  0  0  0  0  0
  -21.8490   -6.8660   21.3970 O   0  0  0  0  0  0  0  0  0  0  0  0
  -21.7310   -6.1740   22.5760 C   0  0  0  0  0  0  0  0  0  0  0  0
  -21.1970   -6.7690   23.7390 C   0  0  0  0  0  3  0  0  0  0  0  0
  -21.0290   -6.0010   24.9090 C   0  0  0  0  0  3  0  0  0  0  0  0
  -21.3820   -4.6380   24.9150 C   0  0  0  0  0  0  0  0  0  0  0  0
  -21.9090   -4.0430   23.7550 C   0  0  0  0  0  3  0  0  0  0  0  0
  -22.0790   -4.8090   22.5880 C   0  0  0  0  0  0  0  0  0  0  0  0
  -22.5660   -4.2240   21.4660 F   0  0  0  0  0  0  0  0  0  0  0  0
  -21.2140   -3.8990   26.0350 F   0  0  0  0  0  0  0  0  0  0  0  0
  -22.9180  -13.5180   21.2520 C   0  0  0  0  0  0  0  0  0  0  0  0
  -22.2450  -12.7890   22.1350 N   0  0  0  0  0  0  0  0  0  0  0  0
  -22.4500  -14.5620   20.8010 O   0  0  0  0  0  0  0  0  0  0  0  0
  -22.6380  -11.9420   22.5200 H   0  0  0  0  0  0  0  0  0  0  0  0
  -21.3240  -13.0790   22.4300 H   0  0  0  0  0  0  0  0  0  0  0  0
  -25.4910  -15.2160   20.3250 N   0  0  0  0  0  0  0  0  0  0  0  0
  -24.7350  -15.8670   20.5040 H   0  0  0  0  0  0  0  0  0  0  0  0
  -26.3250  -15.6630   19.9690 H   0  0  0  0  0  0  0  0  0  0  0  0
  -27.9960  -25.2790   20.8190 C   0  0  0  0  0  2  0  0  0  0  0  0
  -28.3420  -26.5400   20.1550 O   0  0  0  0  0  0  0  0  0  0  0  0
  -24.6280  -31.8710   23.2220 C   0  0  0  0  0  0  0  0  0  0  0  0
  -27.2540  -27.4100   20.0960 C   0  0  0  0  0  0  0  0  0  0  0  0
  -23.4230  -30.4860   21.5690 C   0  0  0  0  0  3  0  0  0  0  0  0
  -24.8780  -28.9740   20.1130 C   0  0  0  0  0  0  0  0  0  0  0  0
  -25.9560  -30.8350   21.3770 C   0  0  0  0  0  2  0  0  0  0  0  0
  -26.0440  -29.4700   20.7140 C   0  0  0  0  0  0  0  0  0  0  0  0
  -27.2390  -28.6970   20.7020 C   0  0  0  0  0  3  0  0  0  0  0  0
  -26.0770  -26.9690   19.4540 C   0  0  0  0  0  3  0  0  0  0  0  0
  -24.8940  -27.7250   19.4740 C   0  0  0  0  0  3  0  0  0  0  0  0
  -23.6330  -29.8310   20.1790 C   0  0  0  0  0  2  0  0  0  0  0  0
  -24.6870  -31.0790   22.1130 N   0  0  0  0  0  0  0  0  0  0  0  0
  -23.5460  -32.1360   23.7650 O   0  0  0  0  0  0  0  0  0  0  0  0
  -22.7730  -29.4520   22.5180 C   0  0  0  0  0  0  0  0  0  0  0  0
  -21.4470  -29.2750   22.3990 N   0  0  0  0  0  0  0  0  0  0  0  0
  -23.4600  -28.8140   23.3200 O   0  0  0  0  0  0  0  0  0  0  0  0
  -20.9520  -29.8410   21.7230 H   0  0  0  0  0  0  0  0  0  0  0  0
  -18.0720  -28.0780   22.9080 C   0  0  0  0  0  0  0  0  0  0  0  0
  -20.6330  -28.3270   23.1610 C   0  0  0  0  0  3  0  0  0  0  0  0
  -20.7270  -26.9040   22.5630 C   0  0  0  0  0  2  0  0  0  0  0  0
  -19.6160  -26.5980   21.5540 C   0  0  0  0  0  2  0  0  0  0  0  0
  -18.2390  -26.7380   22.2110 C   0  0  0  0  0  2  0  0  0  0  0  0
  -19.1960  -28.8310   23.3400 C   0  0  0  0  0  0  0  0  0  0  0  0
  -18.9850  -30.0860   23.9520 C   0  0  0  0  0  3  0  0  0  0  0  0
  -17.6830  -30.5880   24.1350 C   0  0  0  0  0  3  0  0  0  0  0  0
  -16.5740  -29.8320   23.7190 C   0  0  0  0  0  3  0  0  0  0  0  0
  -16.7690  -28.5780   23.1130 C   0  0  0  0  0  3  0  0  0  0  0  0
  -25.9110  -32.5010   23.8450 C   0  0  0  0  0  3  0  0  0  0  0  0
  -26.4230  -31.7310   25.1240 C   0  0  1  0  0  0  0  0  0  0  0  0
  -25.3260  -31.4930   26.1880 C   0  0  0  0  0  1  0  0  0  0  0  0
  -27.0070  -30.3520   24.7340 C   0  0  0  0  0  1  0  0  0  0  0  0
  -27.5710  -32.5240   25.7890 C   0  0  0  0  0  1  0  0  0  0  0  0
  -25.6050  -33.9000   24.1700 N   0  0  0  0  0  0  0  0  0  0  0  0
  -25.9510  -34.9500   23.4150 C   0  0  0  0  0  0  0  0  0  0  0  0
  -26.6330  -34.8430   22.3920 O   0  0  0  0  0  0  0  0  0  0  0  0
  -25.0020  -34.0580   24.9650 H   0  0  0  0  0  0  0  0  0  0  0  0
  -24.2460  -36.7580   23.0270 C   0  0  0  0  0  1  0  0  0  0  0  0
  -25.4650  -36.3420   23.8650 C   0  0  0  0  0  3  0  0  0  0  0  0
  -27.5840  -37.2080   24.7510 C   0  0  0  0  0  1  0  0  0  0  0  0
  -26.5080  -37.3870   23.7800 N   0  0  0  0  0  0  0  0  0  0  0  0
  -26.1060  -38.3090   23.9190 H   0  0  0  0  0  0  0  0  0  0  0  0
  1  3  1  0
  1  6  1  0
  2 56  1  0
  2  1  2  0
  3  7  1  0
  4  8  2  0
  4  2  1  0
  5 12  1  0
  5  3  2  0
  8  5  1  0
 10 11  1  0
 11  9  1  0
 11  4  1  0
 12 13  1  0
 14 27  1  0
 15 20  1  0
 16 17  1  0
 16 15  1  0
 18 17  1  0
 18 31  1  0
 18 19  1  0
 20 14  1  0
 20 19  1  0
 21 14  2  0
 23 26  1  0
 24 22  1  0
 25 23  1  0
 25 27  1  0
 26 12  1  0
 26 22  1  0
 27 24  1  0
 28 29  2  0
 29 48  1  0
 30 29  1  0
 30 33  1  0
 31 32  1  0
 31 28  1  0
 32 30  2  0
 33 34  1  0
 34 35  2  0
 36 39  1  0
 36 35  1  0
 37 36  2  0
 38 37  1  0
 38 33  2  0
 39 40  1  0
 40 45  2  0
 40 41  1  0
 41 42  2  0
 42 43  1  0
 43 47  1  0
 44 43  2  0
 45 44  1  0
 46 45  1  0
 48 49  1  0
 49 52  1  0
 49 51  1  0
 50 48  2  0
 53 28  1  0
 53 54  1  0
 55 53  1  0
 57 56  1  0
 58 69  2  0
 59 57  1  0
 59 64  1  0
 60 68  1  0
 60 70  1  0
 61 67  1  0
 61 63  1  0
 62 68  1  0
 63 62  1  0
 64 63  2  0
 65 66  1  0
 65 59  2  0
 66 61  2  0
 67 60  1  0
 68 58  1  0
 70 72  2  0
 71 70  1  0
 73 71  1  0
 74 83  2  0
 74 79  1  0
 75 71  1  0
 75 79  1  0
 76 75  1  0
 77 78  1  0
 77 76  1  0
 78 74  1  0
 79 80  2  0
 80 81  1  0
 82 81  2  0
 83 82  1  0
 84 58  1  0
 84 89  1  0
 84 85  1  0
 85 88  1  1
 85 86  1  0
 87 85  1  0
 89 92  1  0
 90 94  1  0
 90 89  1  0
 91 90  2  0
 94 93  1  0
 96 94  1  0
 96 97  1  0
 96 95  1  0
M  ISO  4  14 100  27 100  56 101  57 101
M  END
>  <TORSDO>  (26) 
F 19

>  <SCORE>  (26) 
-13.337

>  <name>  (26) 
25

>  <ligand_id>  (26) 
25

>  <original_smiles>  (26) 
[H]c1c([H])c([H])c2c(c1[H])C([H])([H])C([H])([H])C([H])([H])C2([H])N([H])C(=O)C1([H])N(C(=O)C([H])(N([H])C(=O)C([H])(N([H])C([H])([H])[H])C([H])([H])[H])C(C([H])([H])[H])(C([H])([H])[H])C([H])([H])[H])C([H])([H])c2c([H])c(OC([H])([H])c3c(C([H])(C([H])([H])[H])C([H])([H])[H])nc(N([H])C4([H])C([H])([H])C([H])([H])N(C(=O)N5C([H])([H])C([H])([H])C([H])([H])C([H])(n6nc(-c7c([H])c([H])c(Oc8c([H])c([H])c(F)c([H])c8F)c([H])c7[H])c(C(=O)N([H])[H])c6N([H])[H])C5([H])[H])C([H])([H])C4([H])[H])c(C([H])([H])[H])c3C([H])([H])[H])c([H])c([H])c2C1([H])[H]

>  <smiles>  (26) 
[H]c1c([H])c([H])c2c(c1[H])C([H])([H])C([H])([H])C([H])([H])C2([H])N([H])C(=O)C1([H])N(C(=O)C([H])(N([H])C(=O)C([H])(N([H])C([H])([H])[H])C([H])([H])[H])C(C([H])([H])[H])(C([H])([H])[H])C([H])([H])[H])C([H])([H])c2c([H])c(OC([H])([H])c3c(C([H])(C([H])([H])[H])C([H])([H])[H])nc(N([H])C4([H])C([H])([H])C([H])([H])N(C(=O)N5C([H])([H])C([H])([H])C([H])([H])C([H])(n6nc(-c7c([H])c([H])c(Oc8c([H])c([H])c(F)c([H])c8F)c([H])c7[H])c(C(=O)N([H])[H])c6N([H])[H])C5([H])[H])C([H])([H])C4([H])[H])c(C([H])([H])[H])c3C([H])([H])[H])c([H])c([H])c2C1([H])[H]

$$$$
26:0:0
     RDKit          3D

100110  0  0  1  0  0  0  0  0999 V2000
  -28.0600  -21.0200   19.6230 C   0  0  0  0  0  3  0  0  0  0  0  0
  -25.9650  -20.0650   18.0510 C   0  0  0  0  0  3  0  0  0  0  0  0
  -28.0140  -19.6360   19.3190 C   0  0  0  0  0  0  0  0  0  0  0  0
  -27.0700  -21.9290   19.1740 C   0  0  0  0  0  0  0  0  0  0  0  0
  -26.9380  -19.1600   18.5170 C   0  0  0  0  0  0  0  0  0  0  0  0
  -26.0120  -21.4350   18.3670 C   0  0  0  0  0  0  0  0  0  0  0  0
  -26.7570  -17.7110   18.0920 C   0  0  0  0  0  1  0  0  0  0  0  0
  -24.8950  -22.3230   17.8390 C   0  0  0  0  0  1  0  0  0  0  0  0
  -31.1680  -15.0110   20.5590 C   0  0  0  0  0  0  0  0  0  0  0  0
  -30.8590  -12.8240   19.4840 C   0  0  0  0  0  2  0  0  0  0  0  0
  -29.9650  -12.9950   18.2400 C   0  0  0  0  0  2  0  0  0  0  0  0
  -28.4750  -12.8750   18.6190 C   0  0  0  0  0  2  0  0  0  0  0  0
  -28.0900  -13.7320   19.8570 C   0  0  0  0  0  3  0  0  0  0  0  0
  -29.1180  -13.5680   20.9970 C   0  0  0  0  0  2  0  0  0  0  0  0
  -30.4470  -13.8610   20.4420 N   0  0  0  0  0  0  0  0  0  0  0  0
  -32.3800  -15.0340   20.3300 O   0  0  0  0  0  0  0  0  0  0  0  0
  -28.6790  -17.7800   20.9970 C   0  0  0  0  0  2  0  0  0  0  0  0
  -29.9870  -18.0390   18.8120 C   0  0  0  0  0  2  0  0  0  0  0  0
  -29.8260  -16.8710   21.5020 C   0  0  0  0  0  2  0  0  0  0  0  0
  -31.0670  -17.1660   19.4580 C   0  0  0  0  0  2  0  0  0  0  0  0
  -29.1370  -18.7480   19.8820 C   0  0  0  0  0  3  0  0  0  0  0  0
  -30.4800  -16.1710   20.3830 N   0  0  0  0  0  0  0  0  0  0  0  0
  -25.6760  -14.3140   20.5410 C   0  0  0  0  0  0  0  0  0  0  0  0
  -24.5970  -13.5360   20.8530 C   0  0  0  0  0  0  0  0  0  0  0  0
  -25.0550  -12.1860   20.7830 C   0  0  0  0  0  0  0  0  0  0  0  0
  -26.7270  -13.4420   20.3030 N   0  0  0  0  0  0  0  0  0  0  0  0
  -26.3540  -12.1510   20.5060 N   0  0  0  0  0  0  0  0  0  0  0  0
  -24.3160  -10.9240   20.9070 C   0  0  0  0  0  0  0  0  0  0  0  0
  -24.7080   -9.9270   21.8280 C   0  0  0  0  0  3  0  0  0  0  0  0
  -23.9690   -8.7310   21.9450 C   0  0  0  0  0  3  0  0  0  0  0  0
  -22.8250   -8.5230   21.1380 C   0  0  0  0  0  0  0  0  0  0  0  0
  -22.4520   -9.5080   20.2060 C   0  0  0  0  0  3  0  0  0  0  0  0
  -23.1930  -10.6950   20.0880 C   0  0  0  0  0  3  0  0  0  0  0  0
  -22.0600   -7.3820   21.1630 O   0  0  0  0  0  0  0  0  0  0  0  0
  -21.9290   -6.6290   22.3010 C   0  0  0  0  0  0  0  0  0  0  0  0
  -21.4050   -7.1730   23.4930 C   0  0  0  0  0  3  0  0  0  0  0  0
  -21.2220   -6.3490   24.6210 C   0  0  0  0  0  3  0  0  0  0  0  0
  -21.5520   -4.9820   24.5570 C   0  0  0  0  0  0  0  0  0  0  0  0
  -22.0690   -4.4370   23.3670 C   0  0  0  0  0  3  0  0  0  0  0  0
  -22.2550   -5.2590   22.2420 C   0  0  0  0  0  0  0  0  0  0  0  0
  -22.7350   -4.7270   21.0930 F   0  0  0  0  0  0  0  0  0  0  0  0
  -21.3670   -4.1860   25.6360 F   0  0  0  0  0  0  0  0  0  0  0  0
  -23.1970  -14.0160   21.1080 C   0  0  0  0  0  0  0  0  0  0  0  0
  -22.4500  -13.3030   21.9430 N   0  0  0  0  0  0  0  0  0  0  0  0
  -22.7770  -15.0570   20.6070 O   0  0  0  0  0  0  0  0  0  0  0  0
  -22.8000  -12.4570   22.3680 H   0  0  0  0  0  0  0  0  0  0  0  0
  -21.5090  -13.6060   22.1570 H   0  0  0  0  0  0  0  0  0  0  0  0
  -25.8300  -15.6870   20.4250 N   0  0  0  0  0  0  0  0  0  0  0  0
  -25.0510  -16.3260   20.5340 H   0  0  0  0  0  0  0  0  0  0  0  0
  -26.6940  -16.1480   20.1790 H   0  0  0  0  0  0  0  0  0  0  0  0
  -27.1440  -23.4020   19.6100 C   0  0  0  0  0  3  0  0  0  0  0  0
  -26.2660  -24.7030   21.7600 C   0  0  0  0  0  2  0  0  0  0  0  0
  -25.6350  -23.3360   21.7570 C   0  0  0  0  0  2  0  0  0  0  0  0
  -26.9990  -23.5340   21.1280 C   0  0  0  0  0  3  0  0  0  0  0  0
  -28.3170  -24.0820   18.9930 N   0  0  0  0  0  4  0  0  0  0  0  0
  -28.7440  -23.3860   18.4020 H   0  0  0  0  0  0  0  0  0  0  0  0
  -27.9770  -24.7920   18.3660 H   0  0  0  0  0  0  0  0  0  0  0  0
  -29.3940  -24.6640   19.8450 C   0  0  0  0  0  2  0  0  0  0  0  0
  -28.9740  -25.8850   20.7000 C   0  0  0  0  0  2  0  0  0  0  0  0
  -28.8980  -27.0890   19.9320 O   0  0  0  0  0  0  0  0  0  0  0  0
  -24.7160  -31.8160   23.2360 C   0  0  0  0  0  0  0  0  0  0  0  0
  -27.6860  -27.7300   19.9840 C   0  0  0  0  0  0  0  0  0  0  0  0
  -23.6280  -30.4250   21.5040 C   0  0  0  0  0  3  0  0  0  0  0  0
  -25.1980  -29.0560   20.0360 C   0  0  0  0  0  0  0  0  0  0  0  0
  -26.1260  -30.9590   21.3690 C   0  0  0  0  0  2  0  0  0  0  0  0
  -26.3110  -29.6300   20.6650 C   0  0  0  0  0  0  0  0  0  0  0  0
  -27.5620  -28.9760   20.6350 C   0  0  0  0  0  3  0  0  0  0  0  0
  -26.5590  -27.1610   19.3590 C   0  0  0  0  0  3  0  0  0  0  0  0
  -25.3140  -27.8170   19.3810 C   0  0  0  0  0  3  0  0  0  0  0  0
  -23.9010  -29.8300   20.0970 C   0  0  0  0  0  2  0  0  0  0  0  0
  -24.8390  -31.0790   22.0950 N   0  0  0  0  0  0  0  0  0  0  0  0
  -23.6120  -31.9890   23.7700 O   0  0  0  0  0  0  0  0  0  0  0  0
  -23.0300  -29.3150   22.4000 C   0  0  0  0  0  0  0  0  0  0  0  0
  -21.7240  -29.0550   22.2370 N   0  0  0  0  0  0  0  0  0  0  0  0
  -23.7410  -28.6950   23.1950 O   0  0  0  0  0  0  0  0  0  0  0  0
  -21.2090  -29.6130   21.5710 H   0  0  0  0  0  0  0  0  0  0  0  0
  -18.4240  -27.6340   22.6110 C   0  0  0  0  0  0  0  0  0  0  0  0
  -20.9560  -28.0320   22.9440 C   0  0  0  0  0  3  0  0  0  0  0  0
  -21.1550  -26.6400   22.3020 C   0  0  0  0  0  2  0  0  0  0  0  0
  -20.0940  -26.3040   21.2510 C   0  0  0  0  0  2  0  0  0  0  0  0
  -18.6950  -26.3320   21.8740 C   0  0  0  0  0  2  0  0  0  0  0  0
  -19.4860  -28.4400   23.1000 C   0  0  0  0  0  0  0  0  0  0  0  0
  -19.1800  -29.6580   23.7460 C   0  0  0  0  0  3  0  0  0  0  0  0
  -17.8460  -30.0700   23.9110 C   0  0  0  0  0  3  0  0  0  0  0  0
  -16.7970  -29.2600   23.4420 C   0  0  0  0  0  3  0  0  0  0  0  0
  -17.0870  -28.0450   22.7960 C   0  0  0  0  0  3  0  0  0  0  0  0
  -25.9510  -32.4920   23.9100 C   0  0  0  0  0  3  0  0  0  0  0  0
  -25.5750  -33.8760   24.2310 N   0  0  0  0  0  0  0  0  0  0  0  0
  -25.8980  -34.9430   23.4870 C   0  0  0  0  0  0  0  0  0  0  0  0
  -26.6150  -34.8700   22.4860 O   0  0  0  0  0  0  0  0  0  0  0  0
  -24.9440  -34.0040   25.0070 H   0  0  0  0  0  0  0  0  0  0  0  0
  -24.1120  -36.6620   23.0650 C   0  0  0  0  0  1  0  0  0  0  0  0
  -25.3360  -36.3090   23.9250 C   0  0  0  0  0  3  0  0  0  0  0  0
  -27.3960  -37.2810   24.8440 C   0  0  0  0  0  1  0  0  0  0  0  0
  -26.3290  -37.4030   23.8530 N   0  0  0  0  0  0  0  0  0  0  0  0
  -25.8780  -38.3040   23.9830 H   0  0  0  0  0  0  0  0  0  0  0  0
  -26.4490  -31.7340   25.2010 C   0  0  1  0  0  0  0  0  0  0  0  0
  -25.3290  -31.4530   26.2290 C   0  0  0  0  0  1  0  0  0  0  0  0
  -27.0940  -30.3800   24.8230 C   0  0  0  0  0  1  0  0  0  0  0  0
  -27.5440  -32.5660   25.9090 C   0  0  0  0  0  1  0  0  0  0  0  0
  2  6  2  0
  2  5  1  0
  3  1  1  0
  4 51  1  0
  4  1  2  0
  5  3  2  0
  6  4  1  0
  7  5  1  0
  8  6  1  0
 10 15  1  0
 11 12  1  0
 11 10  1  0
 13 12  1  0
 13 26  1  0
 13 14  1  0
 15  9  1  0
 15 14  1  0
 16  9  2  0
 17 19  1  0
 18 20  1  0
 18 21  1  0
 20 22  1  0
 21  3  1  0
 21 17  1  0
 22  9  1  0
 22 19  1  0
 23 24  2  0
 24 43  1  0
 25 24  1  0
 25 28  1  0
 26 27  1  0
 26 23  1  0
 27 25  2  0
 28 29  1  0
 29 30  2  0
 31 34  1  0
 31 30  1  0
 32 31  2  0
 33 32  1  0
 33 28  2  0
 34 35  1  0
 35 36  1  0
 36 37  2  0
 38 37  1  0
 38 42  1  0
 39 38  2  0
 40 35  2  0
 40 39  1  0
 41 40  1  0
 43 44  1  0
 44 47  1  0
 44 46  1  0
 45 43  2  0
 48 49  1  0
 48 23  1  0
 50 48  1  0
 51 55  1  0
 51 54  1  0
 53 52  1  0
 54 53  1  0
 54 52  1  0
 55 58  1  0
 56 55  1  0
 57 55  1  0
 58 59  1  0
 60 62  1  0
 60 59  1  0
 61 72  2  0
 62 67  1  0
 63 71  1  0
 63 73  1  0
 64 70  1  0
 64 66  1  0
 65 71  1  0
 66 65  1  0
 67 66  2  0
 68 69  1  0
 68 62  2  0
 69 64  2  0
 70 63  1  0
 71 61  1  0
 73 75  2  0
 74 73  1  0
 76 74  1  0
 77 86  2  0
 77 82  1  0
 78 74  1  0
 78 82  1  0
 79 78  1  0
 80 81  1  0
 80 79  1  0
 81 77  1  0
 82 83  2  0
 83 84  1  0
 85 84  2  0
 86 85  1  0
 87 61  1  0
 87 88  1  0
 87 97  1  0
 88 91  1  0
 89 93  1  0
 89 88  1  0
 90 89  2  0
 93 92  1  0
 95 93  1  0
 95 96  1  0
 95 94  1  0
 97100  1  1
 97 98  1  0
 99 97  1  0
M  ISO  4   9 100  22 100  59 101  60 101
M  END
>  <TORSDO>  (27) 
F 21

>  <SCORE>  (27) 
-11.835

>  <name>  (27) 
26

>  <ligand_id>  (27) 
26

>  <original_smiles>  (27) 
[H]c1c([H])c([H])c2c(c1[H])C([H])([H])C([H])([H])C([H])([H])C2([H])N([H])C(=O)C1([H])N(C(=O)C([H])(N([H])C(=O)C([H])(N([H])C([H])([H])[H])C([H])([H])[H])C(C([H])([H])[H])(C([H])([H])[H])C([H])([H])[H])C([H])([H])c2c([H])c(OC([H])([H])C([H])([H])[N+]([H])([H])C([H])(c3c([H])c(C4([H])C([H])([H])C([H])([H])N(C(=O)N5C([H])([H])C([H])([H])C([H])([H])C([H])(n6nc(-c7c([H])c([H])c(Oc8c([H])c([H])c(F)c([H])c8F)c([H])c7[H])c(C(=O)N([H])[H])c6N([H])[H])C5([H])[H])C([H])([H])C4([H])[H])c(C([H])([H])[H])c([H])c3C([H])([H])[H])C3([H])C([H])([H])C3([H])[H])c([H])c([H])c2C1([H])[H]

>  <smiles>  (27) 
[H]c1c([H])c([H])c2c(c1[H])C([H])([H])C([H])([H])C([H])([H])C2([H])N([H])C(=O)C1([H])N(C(=O)C([H])(N([H])C(=O)C([H])(N([H])C([H])([H])[H])C([H])([H])[H])C(C([H])([H])[H])(C([H])([H])[H])C([H])([H])[H])C([H])([H])c2c([H])c(OC([H])([H])C([H])([H])[N+]([H])([H])C([H])(c3c([H])c(C4([H])C([H])([H])C([H])([H])N(C(=O)N5C([H])([H])C([H])([H])C([H])([H])C([H])(n6nc(-c7c([H])c([H])c(Oc8c([H])c([H])c(F)c([H])c8F)c([H])c7[H])c(C(=O)N([H])[H])c6N([H])[H])C5([H])[H])C([H])([H])C4([H])[H])c(C([H])([H])[H])c([H])c3C([H])([H])[H])C3([H])C([H])([H])C3([H])[H])c([H])c([H])c2C1([H])[H]

$$$$
27:0:0
     RDKit          3D

 90 99  0  0  1  0  0  0  0  0999 V2000
  -29.1070  -22.6390   21.4690 C   0  0  0  0  0  0  0  0  0  0  0  0
  -28.7220  -22.9990   20.1220 C   0  0  0  0  0  0  0  0  0  0  0  0
  -29.5700  -21.3160   21.5740 C   0  0  0  0  0  0  0  0  0  0  0  0
  -28.9810  -21.7060   19.5010 C   0  0  0  0  0  0  0  0  0  0  0  0
  -28.9950  -23.5800   22.6520 C   0  0  0  0  0  1  0  0  0  0  0  0
  -30.0850  -20.6560   22.8260 C   0  0  0  0  0  1  0  0  0  0  0  0
  -28.7430  -21.3840   18.0590 C   0  0  0  0  0  1  0  0  0  0  0  0
  -29.4990  -20.6020   20.3550 N   0  0  0  0  0  0  0  0  0  0  0  0
  -30.7530  -15.4220   19.9180 C   0  0  0  0  0  0  0  0  0  0  0  0
  -30.6380  -13.0010   19.0330 C   0  0  0  0  0  2  0  0  0  0  0  0
  -29.6490  -12.8360   17.8550 C   0  0  0  0  0  2  0  0  0  0  0  0
  -28.2200  -12.5920   18.3710 C   0  0  0  0  0  2  0  0  0  0  0  0
  -27.8490  -13.5480   19.5340 C   0  0  0  0  0  3  0  0  0  0  0  0
  -28.9610  -13.6610   20.5990 C   0  0  0  0  0  2  0  0  0  0  0  0
  -30.1650  -14.1350   19.9020 N   0  0  0  0  0  0  0  0  0  0  0  0
  -31.9450  -15.4310   19.5780 O   0  0  0  0  0  0  0  0  0  0  0  0
  -29.4560  -17.7910   19.2630 C   0  0  0  0  0  2  0  0  0  0  0  0
  -30.4320  -17.8650   21.0810 C   0  0  0  0  0  2  0  0  0  0  0  0
  -30.0250  -19.0710   20.0760 C   0  0  0  0  0  3  0  0  0  0  0  0
  -30.0440  -16.6840   20.1770 N   0  0  0  0  0  0  0  0  0  0  0  0
  -25.5500  -14.1270   20.4680 C   0  0  0  0  0  0  0  0  0  0  0  0
  -24.4990  -13.3580   20.8830 C   0  0  0  0  0  0  0  0  0  0  0  0
  -24.9330  -12.0010   20.7700 C   0  0  0  0  0  0  0  0  0  0  0  0
  -26.5530  -13.2410   20.1190 N   0  0  0  0  0  0  0  0  0  0  0  0
  -26.1970  -11.9530   20.3640 N   0  0  0  0  0  0  0  0  0  0  0  0
  -24.1930  -10.7470   20.9650 C   0  0  0  0  0  0  0  0  0  0  0  0
  -24.6030   -9.7880   21.9160 C   0  0  0  0  0  3  0  0  0  0  0  0
  -23.8620   -8.5980   22.1000 C   0  0  0  0  0  3  0  0  0  0  0  0
  -22.6990   -8.3610   21.3290 C   0  0  0  0  0  0  0  0  0  0  0  0
  -22.3100   -9.3080   20.3640 C   0  0  0  0  0  3  0  0  0  0  0  0
  -23.0510  -10.4870   20.1790 C   0  0  0  0  0  3  0  0  0  0  0  0
  -21.9300   -7.2260   21.4200 O   0  0  0  0  0  0  0  0  0  0  0  0
  -21.7690   -6.5580   22.6080 C   0  0  0  0  0  0  0  0  0  0  0  0
  -21.1860   -7.1760   23.7380 C   0  0  0  0  0  3  0  0  0  0  0  0
  -20.9790   -6.4330   24.9160 C   0  0  0  0  0  3  0  0  0  0  0  0
  -21.3420   -5.0710   24.9660 C   0  0  0  0  0  0  0  0  0  0  0  0
  -21.9200   -4.4560   23.8420 C   0  0  0  0  0  3  0  0  0  0  0  0
  -22.1290   -5.1970   22.6660 C   0  0  0  0  0  0  0  0  0  0  0  0
  -22.6650   -4.5920   21.5780 F   0  0  0  0  0  0  0  0  0  0  0  0
  -21.1350   -4.3570   26.0960 F   0  0  0  0  0  0  0  0  0  0  0  0
  -23.1350  -13.8510   21.2650 C   0  0  0  0  0  0  0  0  0  0  0  0
  -22.4660  -13.1560   22.1760 N   0  0  0  0  0  0  0  0  0  0  0  0
  -22.6750  -14.8910   20.7890 O   0  0  0  0  0  0  0  0  0  0  0  0
  -22.8520  -12.3160   22.5800 H   0  0  0  0  0  0  0  0  0  0  0  0
  -21.5520  -13.4670   22.4760 H   0  0  0  0  0  0  0  0  0  0  0  0
  -25.7330  -15.5010   20.3360 N   0  0  0  0  0  0  0  0  0  0  0  0
  -24.9940  -16.1680   20.5290 H   0  0  0  0  0  0  0  0  0  0  0  0
  -26.5850  -15.9330   20.0030 H   0  0  0  0  0  0  0  0  0  0  0  0
  -27.9540  -24.4750   19.5770 C   0  0  0  0  0  2  0  0  0  0  0  0
  -28.2040  -26.0650   19.8180 O   0  0  0  0  0  0  0  0  0  0  0  0
  -24.6700  -31.8470   22.9750 C   0  0  0  0  0  0  0  0  0  0  0  0
  -27.1870  -27.1400   19.7420 C   0  0  0  0  0  0  0  0  0  0  0  0
  -23.4340  -30.4670   21.3510 C   0  0  0  0  0  3  0  0  0  0  0  0
  -24.8510  -28.9470   19.8160 C   0  0  0  0  0  0  0  0  0  0  0  0
  -25.9820  -30.7550   21.0980 C   0  0  0  0  0  2  0  0  0  0  0  0
  -26.0500  -29.3680   20.4060 C   0  0  0  0  0  0  0  0  0  0  0  0
  -27.2070  -28.4770   20.3600 C   0  0  0  0  0  3  0  0  0  0  0  0
  -25.9670  -26.8800   19.0740 C   0  0  0  0  0  3  0  0  0  0  0  0
  -24.8320  -27.7260   19.1300 C   0  0  0  0  0  3  0  0  0  0  0  0
  -23.6150  -29.8330   19.9410 C   0  0  0  0  0  2  0  0  0  0  0  0
  -24.7180  -31.0510   21.8600 N   0  0  0  0  0  0  0  0  0  0  0  0
  -23.5980  -32.0980   23.5500 O   0  0  0  0  0  0  0  0  0  0  0  0
  -22.8110  -29.4270   22.3170 C   0  0  0  0  0  0  0  0  0  0  0  0
  -21.4850  -29.2140   22.2270 N   0  0  0  0  0  0  0  0  0  0  0  0
  -23.5230  -28.8140   23.1150 O   0  0  0  0  0  0  0  0  0  0  0  0
  -20.9620  -29.7660   21.5620 H   0  0  0  0  0  0  0  0  0  0  0  0
  -18.1680  -27.8510   22.7770 C   0  0  0  0  0  0  0  0  0  0  0  0
  -20.7170  -28.2360   23.0010 C   0  0  0  0  0  3  0  0  0  0  0  0
  -20.8740  -26.8130   22.4140 C   0  0  0  0  0  2  0  0  0  0  0  0
  -19.7700  -26.4450   21.4180 C   0  0  0  0  0  2  0  0  0  0  0  0
  -18.3930  -26.5190   22.0830 C   0  0  0  0  0  2  0  0  0  0  0  0
  -19.2550  -28.6640   23.1900 C   0  0  0  0  0  0  0  0  0  0  0  0
  -18.9840  -29.9100   23.7990 C   0  0  0  0  0  3  0  0  0  0  0  0
  -17.6590  -30.3370   24.0050 C   0  0  0  0  0  3  0  0  0  0  0  0
  -16.5850  -29.5210   23.6030 C   0  0  0  0  0  3  0  0  0  0  0  0
  -16.8400  -28.2820   22.9920 C   0  0  0  0  0  3  0  0  0  0  0  0
  -25.9570  -32.4980   23.5690 C   0  0  0  0  0  3  0  0  0  0  0  0
  -25.6200  -33.8700   23.9870 N   0  0  0  0  0  0  0  0  0  0  0  0
  -25.9270  -34.9780   23.3020 C   0  0  0  0  0  0  0  0  0  0  0  0
  -26.5950  -34.9590   22.2660 O   0  0  0  0  0  0  0  0  0  0  0  0
  -25.0490  -33.9630   24.8130 H   0  0  0  0  0  0  0  0  0  0  0  0
  -24.1840  -36.7760   23.0580 C   0  0  0  0  0  1  0  0  0  0  0  0
  -25.4150  -36.3220   23.8580 C   0  0  0  0  0  3  0  0  0  0  0  0
  -27.5190  -37.1690   24.7980 C   0  0  0  0  0  1  0  0  0  0  0  0
  -26.4330  -37.3940   23.8480 N   0  0  0  0  0  0  0  0  0  0  0  0
  -26.0070  -38.2930   24.0590 H   0  0  0  0  0  0  0  0  0  0  0  0
  -26.5550  -31.6920   24.7870 C   0  0  1  0  0  0  0  0  0  0  0  0
  -25.5150  -31.3620   25.8840 C   0  0  0  0  0  1  0  0  0  0  0  0
  -27.1870  -30.3610   24.3170 C   0  0  0  0  0  1  0  0  0  0  0  0
  -27.6960  -32.5070   25.4430 C   0  0  0  0  0  1  0  0  0  0  0  0
  1  3  2  0
  1  5  1  0
  2  1  1  0
  3  6  1  0
  4  2  2  0
  4  8  1  0
  7  4  1  0
  8  3  1  0
  9 20  1  0
 10 15  1  0
 11 12  1  0
 11 10  1  0
 13 12  1  0
 13 24  1  0
 13 14  1  0
 15  9  1  0
 15 14  1  0
 16  9  2  0
 17 20  1  0
 19 17  1  0
 19  8  1  0
 19 18  1  0
 20 18  1  0
 21 22  2  0
 22 41  1  0
 23 22  1  0
 23 26  1  0
 24 25  1  0
 24 21  1  0
 25 23  2  0
 26 27  1  0
 27 28  2  0
 29 32  1  0
 29 28  1  0
 30 29  2  0
 31 30  1  0
 31 26  2  0
 32 33  1  0
 33 38  2  0
 33 34  1  0
 34 35  2  0
 35 36  1  0
 36 40  1  0
 37 36  2  0
 38 37  1  0
 39 38  1  0
 41 42  1  0
 42 45  1  0
 42 44  1  0
 43 41  2  0
 46 21  1  0
 46 47  1  0
 48 46  1  0
 49 50  1  0
 49  2  1  0
 51 62  2  0
 52 50  1  0
 52 57  1  0
 53 61  1  0
 53 63  1  0
 54 60  1  0
 54 56  1  0
 55 61  1  0
 56 55  1  0
 57 56  2  0
 58 59  1  0
 58 52  2  0
 59 54  2  0
 60 53  1  0
 61 51  1  0
 63 65  2  0
 64 63  1  0
 66 64  1  0
 67 76  2  0
 67 72  1  0
 68 64  1  0
 68 72  1  0
 69 68  1  0
 70 71  1  0
 70 69  1  0
 71 67  1  0
 72 73  2  0
 73 74  1  0
 75 74  2  0
 76 75  1  0
 77 51  1  0
 77 78  1  0
 77 87  1  0
 78 81  1  0
 79 83  1  0
 79 78  1  0
 80 79  2  0
 83 82  1  0
 85 83  1  0
 85 86  1  0
 85 84  1  0
 87 90  1  1
 87 88  1  0
 89 87  1  0
M  ISO  4   9 100  20 100  49 101  50 101
M  END
>  <TORSDO>  (28) 
F 17

>  <SCORE>  (28) 
-14.805

>  <name>  (28) 
27

>  <ligand_id>  (28) 
27

>  <original_smiles>  (28) 
[H]c1c([H])c([H])c2c(c1[H])C([H])([H])C([H])([H])C([H])([H])C2([H])N([H])C(=O)C1([H])N(C(=O)C([H])(N([H])C(=O)C([H])(N([H])C([H])([H])[H])C([H])([H])[H])C(C([H])([H])[H])(C([H])([H])[H])C([H])([H])[H])C([H])([H])c2c([H])c(OC([H])([H])c3c(C([H])([H])[H])c(C([H])([H])[H])n(C4([H])C([H])([H])N(C(=O)N5C([H])([H])C([H])([H])C([H])([H])C([H])(n6nc(-c7c([H])c([H])c(Oc8c([H])c([H])c(F)c([H])c8F)c([H])c7[H])c(C(=O)N([H])[H])c6N([H])[H])C5([H])[H])C4([H])[H])c3C([H])([H])[H])c([H])c([H])c2C1([H])[H]

>  <smiles>  (28) 
[H]c1c([H])c([H])c2c(c1[H])C([H])([H])C([H])([H])C([H])([H])C2([H])N([H])C(=O)C1([H])N(C(=O)C([H])(N([H])C(=O)C([H])(N([H])C([H])([H])[H])C([H])([H])[H])C(C([H])([H])[H])(C([H])([H])[H])C([H])([H])[H])C([H])([H])c2c([H])c(OC([H])([H])c3c(C([H])([H])[H])c(C([H])([H])[H])n(C4([H])C([H])([H])N(C(=O)N5C([H])([H])C([H])([H])C([H])([H])C([H])(n6nc(-c7c([H])c([H])c(Oc8c([H])c([H])c(F)c([H])c8F)c([H])c7[H])c(C(=O)N([H])[H])c6N([H])[H])C5([H])[H])C4([H])[H])c3C([H])([H])[H])c([H])c([H])c2C1([H])[H]

$$$$
28:0:0
     RDKit          3D

 92101  0  0  1  0  0  0  0  0999 V2000
  -29.3140  -22.3530   20.9460 C   0  0  0  0  0  2  0  0  0  0  0  0
  -28.6000  -21.0060   20.4560 C   0  0  0  0  0  3  0  0  0  0  0  0
  -28.2670  -23.3160   20.2170 C   0  0  0  0  0  3  0  0  0  0  0  0
  -28.1740  -22.0300   19.2660 C   0  0  2  0  0  0  0  0  0  0  0  0
  -26.7630  -21.8840   18.6740 C   0  0  0  0  0  1  0  0  0  0  0  0
  -29.1310  -22.0980   18.0560 C   0  0  0  0  0  1  0  0  0  0  0  0
  -30.2240  -17.6030   21.7150 C   0  0  0  0  0  3  0  0  0  0  0  0
  -30.0170  -16.5130   20.8010 C   0  0  0  0  0  0  0  0  0  0  0  0
  -29.3560  -17.0140   19.6230 C   0  0  0  0  0  0  0  0  0  0  0  0
  -28.8670  -18.3870   19.5050 C   0  0  0  0  0  0  0  0  0  0  0  0
  -29.1680  -19.4270   20.4630 C   0  0  0  0  0  0  0  0  0  0  0  0
  -29.2430  -16.1070   18.4020 C   0  0  0  0  0  1  0  0  0  0  0  0
  -27.9380  -18.7030   18.3460 C   0  0  0  0  0  1  0  0  0  0  0  0
  -29.8360  -18.9410   21.5640 N   0  0  0  0  0  0  0  0  0  0  0  0
  -30.7140  -15.0660   20.9350 C   0  0  0  0  0  0  0  0  0  0  0  0
  -30.6690  -12.6760   20.1060 C   0  0  0  0  0  2  0  0  0  0  0  0
  -29.8550  -12.5210   18.8020 C   0  0  0  0  0  2  0  0  0  0  0  0
  -28.3590  -12.3350   19.1100 C   0  0  0  0  0  2  0  0  0  0  0  0
  -27.8320  -13.3070   20.2000 C   0  0  0  0  0  3  0  0  0  0  0  0
  -28.7860  -13.4260   21.4020 C   0  0  0  0  0  2  0  0  0  0  0  0
  -30.0990  -13.8160   20.8800 N   0  0  0  0  0  0  0  0  0  0  0  0
  -31.9460  -15.0650   20.8450 O   0  0  0  0  0  0  0  0  0  0  0  0
  -25.3960  -13.8570   20.7390 C   0  0  0  0  0  0  0  0  0  0  0  0
  -24.3160  -13.0680   21.0260 C   0  0  0  0  0  0  0  0  0  0  0  0
  -24.8030  -11.7260   21.0580 C   0  0  0  0  0  0  0  0  0  0  0  0
  -26.4680  -12.9930   20.6000 N   0  0  0  0  0  0  0  0  0  0  0  0
  -26.1160  -11.7070   20.8620 N   0  0  0  0  0  0  0  0  0  0  0  0
  -24.0840  -10.4520   21.2020 C   0  0  0  0  0  0  0  0  0  0  0  0
  -24.4550   -9.5000   22.1770 C   0  0  0  0  0  3  0  0  0  0  0  0
  -23.7330   -8.2940   22.3090 C   0  0  0  0  0  3  0  0  0  0  0  0
  -22.6270   -8.0320   21.4660 C   0  0  0  0  0  0  0  0  0  0  0  0
  -22.2770   -8.9720   20.4820 C   0  0  0  0  0  3  0  0  0  0  0  0
  -22.9990  -10.1700   20.3480 C   0  0  0  0  0  3  0  0  0  0  0  0
  -21.8840   -6.8770   21.5070 O   0  0  0  0  0  0  0  0  0  0  0  0
  -21.7540   -6.1450   22.6600 C   0  0  0  0  0  0  0  0  0  0  0  0
  -21.1990   -6.6950   23.8340 C   0  0  0  0  0  3  0  0  0  0  0  0
  -21.0200   -5.8870   24.9750 C   0  0  0  0  0  3  0  0  0  0  0  0
  -21.3860   -4.5290   24.9410 C   0  0  0  0  0  0  0  0  0  0  0  0
  -21.9360   -3.9770   23.7700 C   0  0  0  0  0  3  0  0  0  0  0  0
  -22.1160   -4.7830   22.6320 C   0  0  0  0  0  0  0  0  0  0  0  0
  -22.6260   -4.2400   21.4990 F   0  0  0  0  0  0  0  0  0  0  0  0
  -21.2090   -3.7500   26.0340 F   0  0  0  0  0  0  0  0  0  0  0  0
  -22.8940  -13.5240   21.1680 C   0  0  0  0  0  0  0  0  0  0  0  0
  -22.1080  -12.8370   21.9870 N   0  0  0  0  0  0  0  0  0  0  0  0
  -22.4840  -14.5290   20.5860 O   0  0  0  0  0  0  0  0  0  0  0  0
  -22.4510  -12.0270   22.4810 H   0  0  0  0  0  0  0  0  0  0  0  0
  -21.1490  -13.1270   22.1250 H   0  0  0  0  0  0  0  0  0  0  0  0
  -25.5530  -15.2280   20.5580 N   0  0  0  0  0  0  0  0  0  0  0  0
  -24.7740  -15.8740   20.6090 H   0  0  0  0  0  0  0  0  0  0  0  0
  -26.4320  -15.6820   20.3420 H   0  0  0  0  0  0  0  0  0  0  0  0
  -28.4450  -24.8550   19.5620 C   0  0  0  0  0  2  0  0  0  0  0  0
  -28.3440  -26.2790   20.1520 O   0  0  0  0  0  0  0  0  0  0  0  0
  -24.6280  -31.8630   23.1050 C   0  0  0  0  0  0  0  0  0  0  0  0
  -27.2530  -27.2070   20.0380 C   0  0  0  0  0  0  0  0  0  0  0  0
  -23.4390  -30.4610   21.4590 C   0  0  0  0  0  3  0  0  0  0  0  0
  -24.9000  -28.9080   20.0200 C   0  0  0  0  0  0  0  0  0  0  0  0
  -25.9880  -30.7560   21.2940 C   0  0  0  0  0  2  0  0  0  0  0  0
  -26.0710  -29.3710   20.6310 C   0  0  0  0  0  0  0  0  0  0  0  0
  -27.2430  -28.5320   20.6270 C   0  0  0  0  0  3  0  0  0  0  0  0
  -26.0530  -26.8330   19.3960 C   0  0  0  0  0  3  0  0  0  0  0  0
  -24.9010  -27.6520   19.3900 C   0  0  0  0  0  3  0  0  0  0  0  0
  -23.6630  -29.7930   20.0760 C   0  0  0  0  0  2  0  0  0  0  0  0
  -24.7050  -31.0490   22.0070 N   0  0  0  0  0  0  0  0  0  0  0  0
  -23.5410  -32.1330   23.6360 O   0  0  0  0  0  0  0  0  0  0  0  0
  -22.7720  -29.4430   22.4170 C   0  0  0  0  0  0  0  0  0  0  0  0
  -21.4410  -29.2820   22.3120 N   0  0  0  0  0  0  0  0  0  0  0  0
  -23.4540  -28.8010   23.2200 O   0  0  0  0  0  0  0  0  0  0  0  0
  -20.9470  -29.8500   21.6380 H   0  0  0  0  0  0  0  0  0  0  0  0
  -18.0590  -28.1190   22.8790 C   0  0  0  0  0  0  0  0  0  0  0  0
  -20.6270  -28.3400   23.0850 C   0  0  0  0  0  3  0  0  0  0  0  0
  -20.6930  -26.9200   22.4780 C   0  0  0  0  0  2  0  0  0  0  0  0
  -19.5620  -26.6340   21.4850 C   0  0  0  0  0  2  0  0  0  0  0  0
  -18.1990  -26.7840   22.1680 C   0  0  0  0  0  2  0  0  0  0  0  0
  -19.1990  -28.8570   23.2950 C   0  0  0  0  0  0  0  0  0  0  0  0
  -19.0110  -30.1080   23.9220 C   0  0  0  0  0  3  0  0  0  0  0  0
  -17.7170  -30.6210   24.1360 C   0  0  0  0  0  3  0  0  0  0  0  0
  -16.5930  -29.8800   23.7340 C   0  0  0  0  0  3  0  0  0  0  0  0
  -16.7650  -28.6300   23.1110 C   0  0  0  0  0  3  0  0  0  0  0  0
  -25.9010  -32.5080   23.7320 C   0  0  0  0  0  3  0  0  0  0  0  0
  -25.5670  -33.8920   24.1050 N   0  0  0  0  0  0  0  0  0  0  0  0
  -25.8930  -34.9750   23.3880 C   0  0  0  0  0  0  0  0  0  0  0  0
  -26.5750  -34.9170   22.3620 O   0  0  0  0  0  0  0  0  0  0  0  0
  -24.9660  -34.0100   24.9080 H   0  0  0  0  0  0  0  0  0  0  0  0
  -24.1670  -36.7760   23.0570 C   0  0  0  0  0  1  0  0  0  0  0  0
  -25.3840  -36.3430   23.8900 C   0  0  0  0  0  3  0  0  0  0  0  0
  -27.4840  -37.2060   24.8260 C   0  0  0  0  0  1  0  0  0  0  0  0
  -26.4130  -37.4040   23.8520 N   0  0  0  0  0  0  0  0  0  0  0  0
  -25.9960  -38.3150   24.0220 H   0  0  0  0  0  0  0  0  0  0  0  0
  -26.4420  -31.7190   24.9890 C   0  0  1  0  0  0  0  0  0  0  0  0
  -25.3640  -31.4420   26.0630 C   0  0  0  0  0  1  0  0  0  0  0  0
  -27.0430  -30.3580   24.5700 C   0  0  0  0  0  1  0  0  0  0  0  0
  -27.5880  -32.5180   25.6570 C   0  0  0  0  0  1  0  0  0  0  0  0
  2 11  1  0
  2  1  1  0
  3 51  1  0
  3  1  1  0
  4  3  1  0
  4  2  1  0
  4  5  1  6
  6  4  1  0
  8 15  1  0
  8  7  2  0
  9  8  1  0
 10  9  2  0
 10 11  1  0
 11 14  2  0
 12  9  1  0
 13 10  1  0
 14  7  1  0
 16 21  1  0
 17 18  1  0
 17 16  1  0
 19 18  1  0
 19 26  1  0
 19 20  1  0
 21 15  1  0
 21 20  1  0
 22 15  2  0
 23 24  2  0
 24 25  1  0
 24 43  1  0
 25 28  1  0
 26 23  1  0
 26 27  1  0
 27 25  2  0
 28 29  1  0
 29 30  2  0
 31 34  1  0
 31 30  1  0
 32 31  2  0
 33 32  1  0
 33 28  2  0
 34 35  1  0
 35 36  1  0
 36 37  2  0
 38 37  1  0
 38 42  1  0
 39 38  2  0
 40 35  2  0
 40 39  1  0
 41 40  1  0
 43 44  1  0
 44 47  1  0
 44 46  1  0
 45 43  2  0
 48 49  1  0
 48 23  1  0
 50 48  1  0
 51 52  1  0
 53 64  2  0
 54 52  1  0
 54 59  1  0
 55 63  1  0
 55 65  1  0
 56 62  1  0
 56 58  1  0
 57 63  1  0
 58 57  1  0
 59 58  2  0
 60 54  2  0
 61 60  1  0
 61 56  2  0
 62 55  1  0
 63 53  1  0
 65 67  2  0
 66 65  1  0
 68 66  1  0
 69 78  2  0
 69 74  1  0
 70 66  1  0
 70 74  1  0
 71 70  1  0
 72 73  1  0
 72 71  1  0
 73 69  1  0
 74 75  2  0
 75 76  1  0
 77 76  2  0
 78 77  1  0
 79 53  1  0
 79 80  1  0
 79 89  1  0
 80 83  1  0
 81 85  1  0
 81 80  1  0
 82 81  2  0
 85 84  1  0
 87 85  1  0
 87 88  1  0
 87 86  1  0
 89 92  1  1
 89 90  1  0
 91 89  1  0
M  ISO  4   8 100  15 100  51 101  52 101
M  END
>  <TORSDO>  (29) 
F 18

>  <SCORE>  (29) 
-13.837

>  <name>  (29) 
28

>  <ligand_id>  (29) 
28

>  <original_smiles>  (29) 
[H]c1nc(C2([H])C([H])([H])C([H])(C([H])([H])Oc3c([H])c([H])c4c(c3[H])C([H])([H])N(C(=O)C([H])(N([H])C(=O)C([H])(N([H])C([H])([H])[H])C([H])([H])[H])C(C([H])([H])[H])(C([H])([H])[H])C([H])([H])[H])C([H])(C(=O)N([H])C3([H])c5c([H])c([H])c([H])c([H])c5C([H])([H])C([H])([H])C3([H])[H])C4([H])[H])C2(C([H])([H])[H])C([H])([H])[H])c(C([H])([H])[H])c(C([H])([H])[H])c1C(=O)N1C([H])([H])C([H])([H])C([H])([H])C([H])(n2nc(-c3c([H])c([H])c(Oc4c([H])c([H])c(F)c([H])c4F)c([H])c3[H])c(C(=O)N([H])[H])c2N([H])[H])C1([H])[H]

>  <smiles>  (29) 
[H]c1nc(C2([H])C([H])([H])C([H])(C([H])([H])Oc3c([H])c([H])c4c(c3[H])C([H])([H])N(C(=O)C([H])(N([H])C(=O)C([H])(N([H])C([H])([H])[H])C([H])([H])[H])C(C([H])([H])[H])(C([H])([H])[H])C([H])([H])[H])C([H])(C(=O)N([H])C3([H])c5c([H])c([H])c([H])c([H])c5C([H])([H])C([H])([H])C3([H])[H])C4([H])[H])C2(C([H])([H])[H])C([H])([H])[H])c(C([H])([H])[H])c(C([H])([H])[H])c1C(=O)N1C([H])([H])C([H])([H])C([H])([H])C([H])(n2nc(-c3c([H])c([H])c(Oc4c([H])c([H])c(F)c([H])c4F)c([H])c3[H])c(C(=O)N([H])[H])c2N([H])[H])C1([H])[H]

$$$$
29:0:0
     RDKit          3D

 95104  0  0  1  0  0  0  0  0999 V2000
  -27.7340  -21.9560   20.4010 C   0  0  0  0  0  3  0  0  0  0  0  0
  -28.2560  -20.6430   20.4680 C   0  0  0  0  0  3  0  0  0  0  0  0
  -28.3760  -22.9500   21.1670 C   0  0  0  0  0  0  0  0  0  0  0  0
  -29.4880  -22.6030   21.9140 C   0  0  0  0  0  0  0  0  0  0  0  0
  -29.3910  -20.3910   21.2690 C   0  0  0  0  0  0  0  0  0  0  0  0
  -29.1310  -24.9530   22.2610 C   0  0  0  0  0  2  0  0  0  0  0  0
  -30.0800  -23.7840   22.6380 C   0  0  0  0  0  3  0  0  0  0  0  0
  -28.0060  -24.4200   21.3150 C   0  0  2  0  0  0  0  0  0  0  0  0
  -30.1870  -23.5620   24.1540 C   0  0  0  0  0  1  0  0  0  0  0  0
  -26.6250  -24.5310   21.9930 C   0  0  0  0  0  1  0  0  0  0  0  0
  -30.0180  -21.3610   21.9670 N   0  0  0  0  0  0  0  0  0  0  0  0
  -29.9790  -19.1320   21.4130 N   0  0  0  0  0  0  0  0  0  0  0  0
  -30.8160  -19.0750   21.9830 H   0  0  0  0  0  0  0  0  0  0  0  0
  -28.0270  -25.1630   19.9530 C   0  0  0  0  0  2  0  0  0  0  0  0
  -28.0440  -26.5960   20.1190 O   0  0  0  0  0  0  0  0  0  0  0  0
  -24.4470  -31.8600   23.2680 C   0  0  0  0  0  0  0  0  0  0  0  0
  -26.8730  -27.3320   20.1310 C   0  0  0  0  0  0  0  0  0  0  0  0
  -23.1650  -30.5210   21.6290 C   0  0  0  0  0  3  0  0  0  0  0  0
  -24.5390  -28.9410   20.1780 C   0  0  0  0  0  0  0  0  0  0  0  0
  -25.7010  -30.7810   21.4080 C   0  0  0  0  0  2  0  0  0  0  0  0
  -25.7240  -29.4120   20.7550 C   0  0  0  0  0  0  0  0  0  0  0  0
  -26.8900  -28.6150   20.7300 C   0  0  0  0  0  3  0  0  0  0  0  0
  -25.6680  -26.8820   19.5390 C   0  0  0  0  0  3  0  0  0  0  0  0
  -24.5070  -27.6740   19.5700 C   0  0  0  0  0  3  0  0  0  0  0  0
  -23.3280  -29.8450   20.2440 C   0  0  0  0  0  2  0  0  0  0  0  0
  -24.4570  -31.0690   22.1580 N   0  0  0  0  0  0  0  0  0  0  0  0
  -23.3830  -32.1710   23.8240 O   0  0  0  0  0  0  0  0  0  0  0  0
  -22.4900  -29.5140   22.5900 C   0  0  0  0  0  0  0  0  0  0  0  0
  -21.1630  -29.3570   22.4560 N   0  0  0  0  0  0  0  0  0  0  0  0
  -23.1560  -28.8800   23.4120 O   0  0  0  0  0  0  0  0  0  0  0  0
  -20.6860  -29.9100   21.7600 H   0  0  0  0  0  0  0  0  0  0  0  0
  -17.7630  -28.2540   22.9560 C   0  0  0  0  0  0  0  0  0  0  0  0
  -20.3250  -28.4400   23.2270 C   0  0  0  0  0  3  0  0  0  0  0  0
  -20.3900  -27.0090   22.6460 C   0  0  0  0  0  2  0  0  0  0  0  0
  -19.2790  -26.7190   21.6340 C   0  0  0  0  0  2  0  0  0  0  0  0
  -17.9020  -26.9030   22.2780 C   0  0  0  0  0  2  0  0  0  0  0  0
  -18.9010  -28.9840   23.3870 C   0  0  0  0  0  0  0  0  0  0  0  0
  -18.7200  -30.2530   23.9780 C   0  0  0  0  0  3  0  0  0  0  0  0
  -17.4300  -30.7920   24.1440 C   0  0  0  0  0  3  0  0  0  0  0  0
  -16.3050  -30.0580   23.7320 C   0  0  0  0  0  3  0  0  0  0  0  0
  -16.4700  -28.7910   23.1440 C   0  0  0  0  0  3  0  0  0  0  0  0
  -25.7660  -32.4360   23.8720 C   0  0  0  0  0  3  0  0  0  0  0  0
  -26.2590  -31.6500   25.1490 C   0  0  1  0  0  0  0  0  0  0  0  0
  -25.1610  -31.4560   26.2210 C   0  0  0  0  0  1  0  0  0  0  0  0
  -26.7920  -30.2510   24.7590 C   0  0  0  0  0  1  0  0  0  0  0  0
  -27.4390  -32.4040   25.8080 C   0  0  0  0  0  1  0  0  0  0  0  0
  -25.5250  -33.8490   24.1940 N   0  0  0  0  0  0  0  0  0  0  0  0
  -25.9030  -34.8770   23.4230 C   0  0  0  0  0  0  0  0  0  0  0  0
  -26.5650  -34.7340   22.3920 O   0  0  0  0  0  0  0  0  0  0  0  0
  -24.9440  -34.0390   24.9980 H   0  0  0  0  0  0  0  0  0  0  0  0
  -24.2590  -36.7400   23.0520 C   0  0  0  0  0  1  0  0  0  0  0  0
  -25.4790  -36.2890   23.8690 C   0  0  0  0  0  3  0  0  0  0  0  0
  -27.6440  -37.0890   24.7080 C   0  0  0  0  0  1  0  0  0  0  0  0
  -26.5590  -37.2920   23.7510 N   0  0  0  0  0  0  0  0  0  0  0  0
  -26.1940  -38.2310   23.8800 H   0  0  0  0  0  0  0  0  0  0  0  0
  -29.4140  -17.8890   20.8950 C   0  0  0  0  0  2  0  0  0  0  0  0
  -30.3410  -16.7100   21.2500 C   0  0  0  0  0  2  0  0  0  0  0  0
  -30.3830  -14.3600   20.4850 C   0  0  0  0  0  0  0  0  0  0  0  0
  -30.0360  -12.2340   19.3050 C   0  0  0  0  0  2  0  0  0  0  0  0
  -29.0370  -12.4600   18.1550 C   0  0  0  0  0  2  0  0  0  0  0  0
  -27.5980  -12.2560   18.6630 C   0  0  0  0  0  2  0  0  0  0  0  0
  -27.2980  -13.0510   19.9620 C   0  0  0  0  0  3  0  0  0  0  0  0
  -28.4150  -12.8620   21.0110 C   0  0  0  0  0  2  0  0  0  0  0  0
  -29.6990  -13.1920   20.3700 N   0  0  0  0  0  0  0  0  0  0  0  0
  -31.4910  -14.5360   19.9770 O   0  0  0  0  0  0  0  0  0  0  0  0
  -29.7350  -15.3860   21.0570 N   0  0  0  0  0  0  0  0  0  0  0  0
  -28.7960  -15.2280   21.3910 H   0  0  0  0  0  0  0  0  0  0  0  0
  -24.9140  -13.5330   20.7960 C   0  0  0  0  0  0  0  0  0  0  0  0
  -23.9000  -12.7060   21.1930 C   0  0  0  0  0  0  0  0  0  0  0  0
  -24.4190  -11.3770   21.1120 C   0  0  0  0  0  0  0  0  0  0  0  0
  -25.9850  -12.7050   20.5000 N   0  0  0  0  0  0  0  0  0  0  0  0
  -25.6940  -11.4020   20.7470 N   0  0  0  0  0  0  0  0  0  0  0  0
  -23.7590  -10.0790   21.3010 C   0  0  0  0  0  0  0  0  0  0  0  0
  -24.2520   -9.1210   22.2160 C   0  0  0  0  0  3  0  0  0  0  0  0
  -23.5840   -7.8900   22.3910 C   0  0  0  0  0  3  0  0  0  0  0  0
  -22.4110   -7.6070   21.6510 C   0  0  0  0  0  0  0  0  0  0  0  0
  -21.9420   -8.5510   20.7210 C   0  0  0  0  0  3  0  0  0  0  0  0
  -22.6110   -9.7730   20.5430 C   0  0  0  0  0  3  0  0  0  0  0  0
  -21.7110   -6.4270   21.7390 O   0  0  0  0  0  0  0  0  0  0  0  0
  -21.6920   -5.6860   22.8930 C   0  0  0  0  0  0  0  0  0  0  0  0
  -21.1740   -6.2010   24.1010 C   0  0  0  0  0  3  0  0  0  0  0  0
  -21.1100   -5.3810   25.2470 C   0  0  0  0  0  3  0  0  0  0  0  0
  -21.5530   -4.0470   25.1840 C   0  0  0  0  0  0  0  0  0  0  0  0
  -22.0650   -3.5300   23.9810 C   0  0  0  0  0  3  0  0  0  0  0  0
  -22.1310   -4.3470   22.8380 C   0  0  0  0  0  0  0  0  0  0  0  0
  -22.6040   -3.8390   21.6760 F   0  0  0  0  0  0  0  0  0  0  0  0
  -21.4850   -3.2570   26.2820 F   0  0  0  0  0  0  0  0  0  0  0  0
  -22.4950  -13.1120   21.5380 C   0  0  0  0  0  0  0  0  0  0  0  0
  -21.8390  -12.3610   22.4160 N   0  0  0  0  0  0  0  0  0  0  0  0
  -21.9910  -14.1300   21.0660 O   0  0  0  0  0  0  0  0  0  0  0  0
  -22.2650  -11.5420   22.8230 H   0  0  0  0  0  0  0  0  0  0  0  0
  -20.8980  -12.6090   22.6850 H   0  0  0  0  0  0  0  0  0  0  0  0
  -25.0170  -14.9160   20.6390 N   0  0  0  0  0  0  0  0  0  0  0  0
  -24.2340  -15.5420   20.7900 H   0  0  0  0  0  0  0  0  0  0  0  0
  -25.8370  -15.3860   20.2740 H   0  0  0  0  0  0  0  0  0  0  0  0
  1  2  2  0
  1  3  1  0
  2  5  1  0
  3  8  1  0
  3  4  2  0
  4 11  1  0
  4  7  1  0
  5 12  1  0
  5 11  2  0
  6  7  1  0
  7  9  1  0
  8 10  1  1
  8  6  1  0
 12 13  1  0
 14 15  1  0
 14  8  1  0
 15 17  1  0
 16 27  2  0
 17 22  1  0
 18 26  1  0
 18 28  1  0
 19 25  1  0
 19 21  1  0
 20 26  1  0
 21 20  1  0
 22 21  2  0
 23 24  1  0
 23 17  2  0
 24 19  2  0
 25 18  1  0
 26 16  1  0
 28 30  2  0
 29 28  1  0
 31 29  1  0
 32 41  2  0
 32 37  1  0
 33 29  1  0
 33 37  1  0
 34 33  1  0
 35 36  1  0
 35 34  1  0
 36 32  1  0
 37 38  2  0
 38 39  1  0
 40 39  2  0
 41 40  1  0
 42 16  1  0
 42 47  1  0
 42 43  1  0
 43 46  1  1
 43 44  1  0
 45 43  1  0
 47 50  1  0
 48 52  1  0
 48 47  1  0
 49 48  2  0
 52 51  1  0
 54 52  1  0
 54 55  1  0
 54 53  1  0
 56 57  1  0
 56 12  1  0
 58 66  1  0
 59 64  1  0
 60 61  1  0
 60 59  1  0
 62 61  1  0
 62 71  1  0
 62 63  1  0
 64 58  1  0
 64 63  1  0
 65 58  2  0
 66 57  1  0
 66 67  1  0
 68 69  2  0
 69 88  1  0
 70 69  1  0
 70 73  1  0
 71 72  1  0
 71 68  1  0
 72 70  2  0
 73 74  1  0
 74 75  2  0
 76 79  1  0
 76 75  1  0
 77 76  2  0
 78 77  1  0
 78 73  2  0
 79 80  1  0
 80 81  1  0
 81 82  2  0
 83 82  1  0
 83 87  1  0
 84 83  2  0
 85 80  2  0
 85 84  1  0
 86 85  1  0
 88 89  1  0
 89 92  1  0
 89 91  1  0
 90 88  2  0
 93 94  1  0
 93 68  1  0
 95 93  1  0
M  ISO  4  14 101  15 101  58 100  66 100
M  END
>  <TORSDO>  (30) 
F 19

>  <SCORE>  (30) 
-13.303

>  <name>  (30) 
29

>  <ligand_id>  (30) 
29

>  <original_smiles>  (30) 
[H]c1c(N([H])C([H])([H])C([H])([H])N([H])C(=O)N2C([H])([H])C([H])([H])C([H])([H])C([H])(n3nc(-c4c([H])c([H])c(Oc5c([H])c([H])c(F)c([H])c5F)c([H])c4[H])c(C(=O)N([H])[H])c3N([H])[H])C2([H])[H])nc2c(c1[H])C(C([H])([H])[H])(C([H])([H])Oc1c([H])c([H])c3c(c1[H])C([H])([H])N(C(=O)C([H])(N([H])C(=O)C([H])(N([H])C([H])([H])[H])C([H])([H])[H])C(C([H])([H])[H])(C([H])([H])[H])C([H])([H])[H])C([H])(C(=O)N([H])C1([H])c4c([H])c([H])c([H])c([H])c4C([H])([H])C([H])([H])C1([H])[H])C3([H])[H])C([H])([H])C2([H])C([H])([H])[H]

>  <smiles>  (30) 
[H]c1c(N([H])C([H])([H])C([H])([H])N([H])C(=O)N2C([H])([H])C([H])([H])C([H])([H])C([H])(n3nc(-c4c([H])c([H])c(Oc5c([H])c([H])c(F)c([H])c5F)c([H])c4[H])c(C(=O)N([H])[H])c3N([H])[H])C2([H])[H])nc2c(c1[H])C(C([H])([H])[H])(C([H])([H])Oc1c([H])c([H])c3c(c1[H])C([H])([H])N(C(=O)C([H])(N([H])C(=O)C([H])(N([H])C([H])([H])[H])C([H])([H])[H])C(C([H])([H])[H])(C([H])([H])[H])C([H])([H])[H])C([H])(C(=O)N([H])C1([H])c4c([H])c([H])c([H])c([H])c4C([H])([H])C([H])([H])C1([H])[H])C3([H])[H])C([H])([H])C2([H])C([H])([H])[H]

$$$$
30:0:0
     RDKit          3D

 91100  0  0  1  0  0  0  0  0999 V2000
  -30.4570  -22.0630   18.4310 C   0  0  0  0  0  3  0  0  0  0  0  0
  -29.8220  -23.2360   18.9170 C   0  0  0  0  0  0  0  0  0  0  0  0
  -28.9180  -23.1860   20.0100 C   0  0  0  0  0  0  0  0  0  0  0  0
  -28.7900  -21.7400   20.4990 C   0  0  0  0  0  0  0  0  0  0  0  0
  -29.4620  -20.5160   19.9090 C   0  0  0  0  0  0  0  0  0  0  0  0
  -30.1510  -24.5490   18.2200 C   0  0  0  0  0  1  0  0  0  0  0  0
  -27.9500  -21.4820   21.7380 C   0  0  0  0  0  1  0  0  0  0  0  0
  -30.2970  -20.7910   18.8840 N   0  0  0  0  0  0  0  0  0  0  0  0
  -30.5500  -15.2580   20.1870 C   0  0  0  0  0  0  0  0  0  0  0  0
  -30.4060  -12.8540   19.3060 C   0  0  0  0  0  2  0  0  0  0  0  0
  -29.4670  -12.7290   18.0850 C   0  0  0  0  0  2  0  0  0  0  0  0
  -28.0170  -12.5010   18.5410 C   0  0  0  0  0  2  0  0  0  0  0  0
  -27.6040  -13.4660   19.6830 C   0  0  0  0  0  3  0  0  0  0  0  0
  -28.6730  -13.5680   20.7920 C   0  0  0  0  0  2  0  0  0  0  0  0
  -29.9210  -13.9980   20.1480 N   0  0  0  0  0  0  0  0  0  0  0  0
  -31.7630  -15.2300   19.9480 O   0  0  0  0  0  0  0  0  0  0  0  0
  -29.3980  -17.5430   19.2900 C   0  0  0  0  0  2  0  0  0  0  0  0
  -30.4490  -17.8340   20.9620 C   0  0  0  0  0  2  0  0  0  0  0  0
  -29.4110  -18.8340   20.2620 C   0  0  0  0  0  3  0  0  0  0  0  0
  -29.8660  -16.5380   20.3570 N   0  0  0  0  0  0  0  0  0  0  0  0
  -25.2440  -14.0440   20.4620 C   0  0  0  0  0  0  0  0  0  0  0  0
  -24.1780  -13.2720   20.8350 C   0  0  0  0  0  0  0  0  0  0  0  0
  -24.6400  -11.9180   20.8010 C   0  0  0  0  0  0  0  0  0  0  0  0
  -26.2800  -13.1630   20.2100 N   0  0  0  0  0  0  0  0  0  0  0  0
  -25.9290  -11.8800   20.4860 N   0  0  0  0  0  0  0  0  0  0  0  0
  -23.9070  -10.6570   20.9920 C   0  0  0  0  0  0  0  0  0  0  0  0
  -24.3330   -9.6860   21.9260 C   0  0  0  0  0  3  0  0  0  0  0  0
  -23.5960   -8.4970   22.1070 C   0  0  0  0  0  3  0  0  0  0  0  0
  -22.4190   -8.2680   21.3540 C   0  0  0  0  0  0  0  0  0  0  0  0
  -22.0140   -9.2250   20.4080 C   0  0  0  0  0  3  0  0  0  0  0  0
  -22.7520  -10.4060   20.2240 C   0  0  0  0  0  3  0  0  0  0  0  0
  -21.6540   -7.1310   21.4470 O   0  0  0  0  0  0  0  0  0  0  0  0
  -21.5980   -6.3940   22.6010 C   0  0  0  0  0  0  0  0  0  0  0  0
  -21.1390   -6.9460   23.8170 C   0  0  0  0  0  3  0  0  0  0  0  0
  -21.0320   -6.1340   24.9630 C   0  0  0  0  0  3  0  0  0  0  0  0
  -21.3730   -4.7700   24.8940 C   0  0  0  0  0  0  0  0  0  0  0  0
  -21.8230   -4.2160   23.6820 C   0  0  0  0  0  3  0  0  0  0  0  0
  -21.9310   -5.0250   22.5390 C   0  0  0  0  0  0  0  0  0  0  0  0
  -22.3450   -4.4830   21.3680 F   0  0  0  0  0  0  0  0  0  0  0  0
  -21.2620   -3.9860   25.9930 F   0  0  0  0  0  0  0  0  0  0  0  0
  -22.7840  -13.7530   21.1070 C   0  0  0  0  0  0  0  0  0  0  0  0
  -22.0600  -13.0630   21.9820 N   0  0  0  0  0  0  0  0  0  0  0  0
  -22.3450  -14.7750   20.5810 O   0  0  0  0  0  0  0  0  0  0  0  0
  -22.4300  -12.2340   22.4220 H   0  0  0  0  0  0  0  0  0  0  0  0
  -21.1240  -13.3640   22.2120 H   0  0  0  0  0  0  0  0  0  0  0  0
  -25.4180  -15.4140   20.2910 N   0  0  0  0  0  0  0  0  0  0  0  0
  -24.6750  -16.0850   20.4590 H   0  0  0  0  0  0  0  0  0  0  0  0
  -26.2950  -15.8490   20.0330 H   0  0  0  0  0  0  0  0  0  0  0  0
  -28.1900  -24.7850   22.0290 C   0  0  0  0  0  1  0  0  0  0  0  0
  -28.1200  -24.6340   20.5050 C   0  0  0  0  0  3  0  0  0  0  0  0
  -28.3620  -26.1620   20.0790 O   0  0  0  0  0  0  0  0  0  0  0  0
  -24.6560  -31.9060   23.1790 C   0  0  0  0  0  0  0  0  0  0  0  0
  -27.3120  -27.1890   20.1000 C   0  0  0  0  0  0  0  0  0  0  0  0
  -23.4910  -30.5110   21.5190 C   0  0  0  0  0  3  0  0  0  0  0  0
  -24.9680  -28.9590   20.0880 C   0  0  0  0  0  0  0  0  0  0  0  0
  -26.0470  -30.7900   21.3800 C   0  0  0  0  0  2  0  0  0  0  0  0
  -26.1430  -29.3980   20.7110 C   0  0  0  0  0  0  0  0  0  0  0  0
  -27.3140  -28.5310   20.6980 C   0  0  0  0  0  3  0  0  0  0  0  0
  -26.1020  -26.8790   19.4440 C   0  0  0  0  0  3  0  0  0  0  0  0
  -24.9620  -27.7120   19.4430 C   0  0  0  0  0  3  0  0  0  0  0  0
  -23.7340  -29.8510   20.1350 C   0  0  0  0  0  2  0  0  0  0  0  0
  -24.7510  -31.0930   22.0800 N   0  0  0  0  0  0  0  0  0  0  0  0
  -23.5600  -32.1730   23.6960 O   0  0  0  0  0  0  0  0  0  0  0  0
  -22.8100  -29.4900   22.4680 C   0  0  0  0  0  0  0  0  0  0  0  0
  -21.4860  -29.3000   22.3270 N   0  0  0  0  0  0  0  0  0  0  0  0
  -23.4810  -28.8700   23.2980 O   0  0  0  0  0  0  0  0  0  0  0  0
  -20.9950  -29.8570   21.6440 H   0  0  0  0  0  0  0  0  0  0  0  0
  -18.1210  -28.0320   22.7970 C   0  0  0  0  0  0  0  0  0  0  0  0
  -20.6730  -28.3400   23.0830 C   0  0  0  0  0  3  0  0  0  0  0  0
  -20.8030  -26.9150   22.4960 C   0  0  0  0  0  2  0  0  0  0  0  0
  -19.7140  -26.5830   21.4700 C   0  0  0  0  0  2  0  0  0  0  0  0
  -18.3260  -26.6950   22.1050 C   0  0  0  0  0  2  0  0  0  0  0  0
  -19.2220  -28.8110   23.2410 C   0  0  0  0  0  0  0  0  0  0  0  0
  -18.9740  -30.0620   23.8480 C   0  0  0  0  0  3  0  0  0  0  0  0
  -17.6570  -30.5340   24.0120 C   0  0  0  0  0  3  0  0  0  0  0  0
  -16.5710  -29.7520   23.5820 C   0  0  0  0  0  3  0  0  0  0  0  0
  -16.8030  -28.5020   22.9810 C   0  0  0  0  0  3  0  0  0  0  0  0
  -25.9170  -32.5570   23.8240 C   0  0  0  0  0  3  0  0  0  0  0  0
  -25.5710  -33.9380   24.1990 N   0  0  0  0  0  0  0  0  0  0  0  0
  -25.8620  -35.0270   23.4730 C   0  0  0  0  0  0  0  0  0  0  0  0
  -26.5160  -34.9750   22.4270 O   0  0  0  0  0  0  0  0  0  0  0  0
  -24.9890  -34.0520   25.0160 H   0  0  0  0  0  0  0  0  0  0  0  0
  -24.0850  -36.7900   23.2120 C   0  0  0  0  0  1  0  0  0  0  0  0
  -25.3520  -36.3890   23.9850 C   0  0  0  0  0  3  0  0  0  0  0  0
  -27.4770  -37.3050   24.8080 C   0  0  0  0  0  1  0  0  0  0  0  0
  -26.3560  -37.4720   23.8860 N   0  0  0  0  0  0  0  0  0  0  0  0
  -25.9280  -38.3760   24.0680 H   0  0  0  0  0  0  0  0  0  0  0  0
  -26.4450  -31.7660   25.0840 C   0  0  1  0  0  0  0  0  0  0  0  0
  -25.3560  -31.4820   26.1440 C   0  0  0  0  0  1  0  0  0  0  0  0
  -27.0600  -30.4100   24.6680 C   0  0  0  0  0  1  0  0  0  0  0  0
  -27.5770  -32.5680   25.7690 C   0  0  0  0  0  1  0  0  0  0  0  0
  1  8  2  0
  1  2  1  0
  2  3  2  0
  3  4  1  0
  3 50  1  0
  4  7  1  0
  5  4  2  0
  6  2  1  0
  8  5  1  0
  9 20  1  0
 10 15  1  0
 11 12  1  0
 11 10  1  0
 13 12  1  0
 13 24  1  0
 13 14  1  0
 15  9  1  0
 15 14  1  0
 16  9  2  0
 17 19  1  0
 17 20  1  0
 19  5  1  0
 19 18  1  0
 20 18  1  0
 21 22  2  0
 22 41  1  0
 23 22  1  0
 23 26  1  0
 24 21  1  0
 24 25  1  0
 25 23  2  0
 26 27  1  0
 27 28  2  0
 29 32  1  0
 29 28  1  0
 30 29  2  0
 31 30  1  0
 31 26  2  0
 32 33  1  0
 33 34  1  0
 34 35  2  0
 36 35  1  0
 36 40  1  0
 37 36  2  0
 38 33  2  0
 38 37  1  0
 39 38  1  0
 41 42  1  0
 42 45  1  0
 42 44  1  0
 43 41  2  0
 46 47  1  0
 46 21  1  0
 48 46  1  0
 50 49  1  0
 51 53  1  0
 51 50  1  0
 52 63  2  0
 53 58  1  0
 54 62  1  0
 54 64  1  0
 55 61  1  0
 55 57  1  0
 56 62  1  0
 57 56  1  0
 58 57  2  0
 59 53  2  0
 60 59  1  0
 60 55  2  0
 61 54  1  0
 62 52  1  0
 64 66  2  0
 65 64  1  0
 67 65  1  0
 68 77  2  0
 68 73  1  0
 69 65  1  0
 69 73  1  0
 70 69  1  0
 71 72  1  0
 71 70  1  0
 72 68  1  0
 73 74  2  0
 74 75  1  0
 76 75  2  0
 77 76  1  0
 78 52  1  0
 78 79  1  0
 78 88  1  0
 79 82  1  0
 80 84  1  0
 80 79  1  0
 81 80  2  0
 84 83  1  0
 86 84  1  0
 86 87  1  0
 86 85  1  0
 88 91  1  1
 88 89  1  0
 90 88  1  0
M  ISO  4   9 100  20 100  50 101  51 101
M  END
>  <TORSDO>  (31) 
F 17

>  <SCORE>  (31) 
-15.753

>  <name>  (31) 
30

>  <ligand_id>  (31) 
30

>  <original_smiles>  (31) 
[H]c1nc(C2([H])C([H])([H])N(C(=O)N3C([H])([H])C([H])([H])C([H])([H])C([H])(n4nc(-c5c([H])c([H])c(Oc6c([H])c([H])c(F)c([H])c6F)c([H])c5[H])c(C(=O)N([H])[H])c4N([H])[H])C3([H])[H])C2([H])[H])c(C([H])([H])[H])c(C([H])(Oc2c([H])c([H])c3c(c2[H])C([H])([H])N(C(=O)C([H])(N([H])C(=O)C([H])(N([H])C([H])([H])[H])C([H])([H])[H])C(C([H])([H])[H])(C([H])([H])[H])C([H])([H])[H])C([H])(C(=O)N([H])C2([H])c4c([H])c([H])c([H])c([H])c4C([H])([H])C([H])([H])C2([H])[H])C3([H])[H])C([H])([H])[H])c1C([H])([H])[H]

>  <smiles>  (31) 
[H]c1nc(C2([H])C([H])([H])N(C(=O)N3C([H])([H])C([H])([H])C([H])([H])C([H])(n4nc(-c5c([H])c([H])c(Oc6c([H])c([H])c(F)c([H])c6F)c([H])c5[H])c(C(=O)N([H])[H])c4N([H])[H])C3([H])[H])C2([H])[H])c(C([H])([H])[H])c(C([H])(Oc2c([H])c([H])c3c(c2[H])C([H])([H])N(C(=O)C([H])(N([H])C(=O)C([H])(N([H])C([H])([H])[H])C([H])([H])[H])C(C([H])([H])[H])(C([H])([H])[H])C([H])([H])[H])C([H])(C(=O)N([H])C2([H])c4c([H])c([H])c([H])c([H])c4C([H])([H])C([H])([H])C2([H])[H])C3([H])[H])C([H])([H])[H])c1C([H])([H])[H]

$$$$
31:0:0
     RDKit          3D

 95101  0  0  1  0  0  0  0  0999 V2000
  -28.5600  -16.2380   19.1700 C   0  0  0  0  0  2  0  0  0  0  0  0
  -29.7870  -19.3240   18.7610 C   0  0  0  0  0  2  0  0  0  0  0  0
  -29.7080  -17.5340   18.7570 C   0  0  0  0  0  2  0  0  0  0  0  0
  -27.5280  -17.1530   19.6110 C   0  0  0  0  0  3  0  0  0  0  0  0
  -28.4930  -19.5370   19.3300 C   0  0  0  0  0  0  0  0  0  0  0  0
  -28.0110  -14.1290   19.3680 C   0  0  0  0  0  2  0  0  0  0  0  0
  -26.1880  -16.6260   20.0910 C   0  0  0  0  0  1  0  0  0  0  0  0
  -28.0200  -20.9590   19.5960 C   0  0  0  0  0  1  0  0  0  0  0  0
  -27.5700  -18.5500   19.6650 N   0  0  0  0  0  4  0  0  0  0  0  0
  -26.7010  -18.9440   20.0340 H   0  0  0  0  0  0  0  0  0  0  0  0
  -30.9130  -16.9700   18.2750 N   0  0  0  0  0  0  0  0  0  0  0  0
  -31.1810  -17.4080   17.4000 H   0  0  0  0  0  0  0  0  0  0  0  0
  -32.0240  -16.5920   20.6270 C   0  0  0  0  0  2  0  0  0  0  0  0
  -32.1020  -16.7650   19.1330 C   0  0  0  0  0  3  0  0  0  0  0  0
  -32.4320  -15.4100   19.7690 C   0  0  0  0  0  3  0  0  0  0  0  0
  -34.3310  -13.7130   20.0710 C   0  0  0  0  0  0  0  0  0  0  0  0
  -34.2230  -11.3310   20.8180 C   0  0  0  0  0  2  0  0  0  0  0  0
  -33.1630  -10.5240   20.0170 C   0  0  0  0  0  2  0  0  0  0  0  0
  -31.7310  -10.7910   20.5180 C   0  0  0  0  0  2  0  0  0  0  0  0
  -31.5670  -12.3120   20.6010 C   0  0  0  0  0  3  0  0  0  0  0  0
  -32.5990  -12.8630   21.6150 C   0  0  0  0  0  2  0  0  0  0  0  0
  -33.8290  -12.7550   20.8970 N   0  0  0  0  0  0  0  0  0  0  0  0
  -35.3630  -13.5110   19.4410 O   0  0  0  0  0  0  0  0  0  0  0  0
  -33.7910  -14.9530   19.9890 N   0  0  0  0  0  0  0  0  0  0  0  0
  -34.4730  -15.6060   19.6310 H   0  0  0  0  0  0  0  0  0  0  0  0
  -28.8720  -13.9320   20.6340 C   0  0  0  0  0  3  0  0  0  0  0  0
  -27.5520  -13.2830   21.6220 C   0  0  0  0  0  3  0  0  0  0  0  0
  -27.9510  -11.7590   22.3680 C   0  0  0  0  0  3  0  0  0  0  0  0
  -30.3290  -12.7090   21.0530 N   0  0  0  0  0  2  0  0  0  0  0  0
  -29.5890  -11.5460   22.1960 N   0  0  0  0  0  2  0  0  0  0  0  0
  -27.0080  -10.4350   21.9700 C   0  0  0  0  0  0  0  0  0  0  0  0
  -26.7770   -9.2830   22.8040 C   0  0  0  0  0  3  0  0  0  0  0  0
  -25.8070   -8.2400   22.5580 C   0  0  0  0  0  3  0  0  0  0  0  0
  -24.9760   -8.2230   21.4080 C   0  0  0  0  0  0  0  0  0  0  0  0
  -25.2860   -9.2290   20.4620 C   0  0  0  0  0  3  0  0  0  0  0  0
  -26.2690  -10.2550   20.7240 C   0  0  0  0  0  3  0  0  0  0  0  0
  -23.9630   -7.2850   21.1500 O   0  0  0  0  0  0  0  0  0  0  0  0
  -23.0130   -6.8880   22.0900 C   0  0  0  0  0  0  0  0  0  0  0  0
  -22.1420   -7.8170   22.7080 C   0  0  0  0  0  3  0  0  0  0  0  0
  -21.1750   -7.3930   23.6480 C   0  0  0  0  0  3  0  0  0  0  0  0
  -21.0530   -6.0290   23.9760 C   0  0  0  0  0  0  0  0  0  0  0  0
  -21.8820   -5.0880   23.3420 C   0  0  0  0  0  3  0  0  0  0  0  0
  -22.8450   -5.5120   22.4010 C   0  0  0  0  0  0  0  0  0  0  0  0
  -23.6110   -4.5760   21.7910 F   0  0  0  0  0  0  0  0  0  0  0  0
  -20.1390   -5.6230   24.8940 F   0  0  0  0  0  0  0  0  0  0  0  0
  -26.1880  -13.7270   21.8170 C   0  0  0  0  0  0  0  0  0  0  0  0
  -25.4310  -13.0650   22.6990 N   0  0  0  0  0  0  0  0  0  0  0  0
  -25.8190  -14.7050   21.2140 O   0  0  0  0  0  0  0  0  0  0  0  0
  -25.7630  -12.2470   23.1840 H   0  0  0  0  0  0  0  0  0  0  0  0
  -24.4870  -13.3790   22.8640 H   0  0  0  0  0  0  0  0  0  0  0  0
  -29.2100  -15.1370   20.1740 N   0  0  0  0  0  0  0  0  0  0  0  0
  -28.5800  -15.9270   20.1290 H   0  0  0  0  0  0  0  0  0  0  0  0
  -30.1390  -15.3420   19.8260 H   0  0  0  0  0  0  0  0  0  0  0  0
  -30.8120  -21.1350   18.1600 C   0  0  0  0  0 15  0  0  0  0  0  0
  -31.2710  -23.1420   18.2470 O   0  0  0  0  0  1  0  0  0  0  0  0
  -27.3220  -28.5160   22.7890 C   0  0  0  0  0  0  0  0  0  0  0  0
  -30.8300  -24.7230   18.6530 C   0  0  0  0  0  0  0  0  0  0  0  0
  -27.1250  -28.3630   20.3520 C   0  0  0  0  0  3  0  0  0  0  0  0
  -29.1380  -27.3580   18.9850 C   0  0  0  0  0  0  0  0  0  0  0  0
  -29.4340  -27.8460   21.3850 C   0  0  0  0  0  2  0  0  0  0  0  0
  -29.8120  -26.9110   20.1190 C   0  0  0  0  0  0  0  0  0  0  0  0
  -30.6620  -25.6400   19.9360 C   0  0  0  0  0  3  0  0  0  0  0  0
  -30.3270  -25.5820   17.6370 C   0  0  0  0  0  3  0  0  0  0  0  0
  -29.5020  -26.7490   17.7710 C   0  0  0  0  0  3  0  0  0  0  0  0
  -28.0300  -28.4310   19.0800 C   0  0  0  0  0  2  0  0  0  0  0  0
  -27.9660  -28.2610   21.5860 N   0  0  0  0  0  0  0  0  0  0  0  0
  -26.0980  -28.7400   22.8480 O   0  0  0  0  0  0  0  0  0  0  0  0
  -26.1170  -27.1840   20.2500 C   0  0  0  0  0  0  0  0  0  0  0  0
  -25.1140  -27.2680   19.3540 N   0  0  0  0  0  0  0  0  0  0  0  0
  -26.2570  -26.1970   20.9770 O   0  0  0  0  0  0  0  0  0  0  0  0
  -25.0390  -28.1080   18.7990 H   0  0  0  0  0  0  0  0  0  0  0  0
  -22.2510  -26.3410   17.3090 C   0  0  0  0  0  0  0  0  0  0  0  0
  -24.1370  -26.2060   19.0780 C   0  0  0  0  0  3  0  0  0  0  0  0
  -24.7520  -25.1090   18.1790 C   0  0  0  0  0  2  0  0  0  0  0  0
  -24.4900  -25.3370   16.6870 C   0  0  0  0  0  2  0  0  0  0  0  0
  -22.9850  -25.3650   16.4060 C   0  0  0  0  0  2  0  0  0  0  0  0
  -22.7980  -26.7490   18.5560 C   0  0  0  0  0  0  0  0  0  0  0  0
  -22.0830  -27.6760   19.3440 C   0  0  0  0  0  3  0  0  0  0  0  0
  -20.8490  -28.1950   18.9050 C   0  0  0  0  0  3  0  0  0  0  0  0
  -20.3100  -27.7810   17.6750 C   0  0  0  0  0  3  0  0  0  0  0  0
  -21.0080  -26.8530   16.8820 C   0  0  0  0  0  3  0  0  0  0  0  0
  -28.0780  -28.5520   24.1530 C   0  0  0  0  0  3  0  0  0  0  0  0
  -28.9340  -27.2500   24.4190 C   0  0  1  0  0  0  0  0  0  0  0  0
  -28.1630  -25.9340   24.1610 C   0  0  0  0  0  1  0  0  0  0  0  0
  -30.2030  -27.2120   23.5430 C   0  0  0  0  0  1  0  0  0  0  0  0
  -29.4290  -27.2410   25.8850 C   0  0  0  0  0  1  0  0  0  0  0  0
  -27.0820  -28.7020   25.2390 N   0  0  0  0  0  0  0  0  0  0  0  0
  -26.8380  -29.8220   25.9360 C   0  0  0  0  0  0  0  0  0  0  0  0
  -27.4700  -30.8620   25.7470 O   0  0  0  0  0  0  0  0  0  0  0  0
  -26.4830  -27.9060   25.4020 H   0  0  0  0  0  0  0  0  0  0  0  0
  -24.4210  -30.3640   26.4360 C   0  0  0  0  0  1  0  0  0  0  0  0
  -25.7260  -29.7870   27.0110 C   0  0  0  0  0  3  0  0  0  0  0  0
  -27.1150  -29.8590   29.0400 C   0  0  0  0  0  1  0  0  0  0  0  0
  -26.0740  -30.5150   28.2540 N   0  0  0  0  0  0  0  0  0  0  0  0
  -25.2570  -30.6340   28.8460 H   0  0  0  0  0  0  0  0  0  0  0  0
  1  4  1  0
  1 52  1  0
  2  5  1  0
  3  2  1  0
  4  9  1  0
  4  7  1  0
  5  8  1  0
  5  9  2  0
  6 51  1  0
  6 26  1  0
  9 10  1  0
 11  3  1  0
 12 11  1  0
 14 11  1  0
 14 15  1  0
 14 13  1  0
 15 24  1  0
 15 13  1  0
 16 22  1  0
 17 22  1  0
 18 19  1  0
 18 17  1  0
 19 20  1  0
 20 29  1  0
 20 21  1  0
 22 21  1  0
 23 16  2  0
 24 16  1  0
 25 24  1  0
 26 27  1  0
 27 46  1  0
 27 28  1  0
 28 30  1  0
 29 30  1  0
 31 28  1  0
 31 32  1  0
 33 32  2  0
 34 33  1  0
 35 36  1  0
 35 34  2  0
 36 31  2  0
 37 34  1  0
 37 38  1  0
 38 43  2  0
 38 39  1  0
 39 40  2  0
 40 41  1  0
 41 45  1  0
 42 41  2  0
 43 42  1  0
 44 43  1  0
 46 47  1  0
 47 50  1  0
 47 49  1  0
 48 46  2  0
 51 26  1  0
 53 51  1  0
 55 57  1  0
 56 67  2  0
 57 62  1  0
 58 68  1  0
 58 66  1  0
 59 65  1  0
 59 61  1  0
 60 66  1  0
 61 60  1  0
 62 61  2  0
 63 64  1  0
 63 57  2  0
 64 59  2  0
 65 58  1  0
 66 56  1  0
 68 70  2  0
 69 68  1  0
 71 69  1  0
 72 77  1  0
 73 69  1  0
 74 73  1  0
 75 74  1  0
 76 75  1  0
 76 72  1  0
 77 73  1  0
 77 78  2  0
 79 78  1  0
 80 79  2  0
 81 72  2  0
 81 80  1  0
 82 56  1  0
 82 83  1  0
 82 87  1  0
 83 86  1  1
 84 83  1  0
 85 83  1  0
 87 90  1  0
 87 88  1  0
 88 92  1  0
 89 88  2  0
 92 91  1  0
 92 94  1  0
 94 95  1  0
 94 93  1  0
M  ISO  4  16 100  24 100  54 101  55 101
M  END
>  <TORSDO>  (32) 
F 19

>  <SCORE>  (32) 
-3.973

>  <name>  (32) 
31

>  <ligand_id>  (32) 
31

>  <original_smiles>  (32) 
[H]c1c([H])c([H])c2c(c1[H])C([H])([H])C([H])([H])C([H])([H])C2([H])N([H])C(=O)C1([H])N(C(=O)C([H])(N([H])C(=O)C([H])(N([H])C([H])([H])[H])C([H])([H])[H])C(C([H])([H])[H])(C([H])([H])[H])C([H])([H])[H])C([H])([H])c2c([H])c(OC([H])([H])c3c(N([H])C4([H])C([H])([H])C4([H])N([H])C(=O)N4C([H])([H])C([H])([H])C([H])([H])C([H])(n5nc(-c6c([H])c([H])c(Oc7c([H])c([H])c(F)c([H])c7F)c([H])c6[H])c(C(=O)N([H])[H])c5N([H])[H])C4([H])[H])c(C([H])([H])[H])c(C([H])([H])[H])[n+]([H])c3C([H])([H])[H])c([H])c([H])c2C1([H])[H]

>  <smiles>  (32) 
[H]c1c([H])c([H])c2c(c1[H])C([H])([H])C([H])([H])C([H])([H])C2([H])N([H])C(=O)C1([H])N(C(=O)C([H])(N([H])C(=O)C([H])(N([H])C([H])([H])[H])C([H])([H])[H])C(C([H])([H])[H])(C([H])([H])[H])C([H])([H])[H])C([H])([H])c2c([H])c(OC([H])([H])c3c(N([H])C4([H])C([H])([H])C4([H])N([H])C(=O)N4C([H])([H])C([H])([H])C([H])([H])C([H])(n5nc(-c6c([H])c([H])c(Oc7c([H])c([H])c(F)c([H])c7F)c([H])c6[H])c(C(=O)N([H])[H])c5N([H])[H])C4([H])[H])c(C([H])([H])[H])c(C([H])([H])[H])[n+]([H])c3C([H])([H])[H])c([H])c([H])c2C1([H])[H]

$$$$
32:0:0
     RDKit          3D

 97105  0  0  1  0  0  0  0  0999 V2000
  -22.3090  -24.9380   22.0510 C   0  0  0  0  0  3  0  0  0  0  0  0
  -23.6090  -25.3930   22.3470 C   0  0  0  0  0  0  0  0  0  0  0  0
  -23.3670  -26.8650   23.0240 C   0  0  0  0  0  1  0  0  0  0  0  0
  -21.0790  -25.5960   22.3510 C   0  0  0  0  0  0  0  0  0  0  0  0
  -21.6610  -27.8790   23.1520 C   0  0  0  0  0  1  0  0  0  0  0  0
  -19.8000  -24.8940   21.9510 C   0  0  0  0  0  1  0  0  0  0  0  0
  -20.3340  -30.9950   23.0410 C   0  0  0  0  0 15  0  0  0  0  0  0
  -20.8130  -26.8220   22.8890 N   0  0  0  0  0  0  0  0  0  0  0  0
  -24.9730  -22.2890   21.8450 C   0  0  0  0  0  3  0  0  0  0  0  0
  -26.2440  -23.4660   20.9950 C   0  0  0  0  0  3  0  0  0  0  0  0
  -24.9360  -24.0240   22.0000 C   0  0  0  0  0  3  0  0  0  0  0  0
  -26.5950  -21.8320   21.4770 C   0  0  0  0  0  3  0  0  0  0  0  0
  -30.7560  -16.0470   19.4230 C   0  0  0  0  0  0  0  0  0  0  0  0
  -31.2080  -13.5280   18.4880 C   0  0  0  0  0  2  0  0  0  0  0  0
  -30.2660  -13.0140   17.3500 C   0  0  0  0  0  2  0  0  0  0  0  0
  -28.8980  -12.6110   17.9230 C   0  0  0  0  0  2  0  0  0  0  0  0
  -28.4470  -13.6350   18.9860 C   0  0  0  0  0  3  0  0  0  0  0  0
  -29.5010  -13.8970   20.0620 C   0  0  0  0  0  2  0  0  0  0  0  0
  -30.5250  -14.6160   19.3560 N   0  0  0  0  0  0  0  0  0  0  0  0
  -31.9200  -16.1810   18.9420 O   0  0  0  0  0  0  0  0  0  0  0  0
  -28.2890  -17.5120   20.3470 C   0  0  0  0  0  2  0  0  0  0  0  0
  -29.8940  -18.8600   19.7020 C   0  0  0  0  0  2  0  0  0  0  0  0
  -27.4390  -18.8760   21.1200 C   0  0  0  0  0  2  0  0  0  0  0  0
  -28.9700  -20.2480   20.3610 C   0  0  0  0  0  2  0  0  0  0  0  0
  -29.7900  -17.2610   19.8630 N   0  0  0  0  0  0  0  0  0  0  0  0
  -27.4010  -20.4050   20.6590 N   0  0  2  0  0  4  0  0  0  0  0  0
  -26.9580  -20.3760   19.7520 H   0  0  0  0  0  0  0  0  0  0  0  0
  -26.2470  -14.1980   20.0650 C   0  0  0  0  0  0  0  0  0  0  0  0
  -25.2600  -13.4340   20.5940 C   0  0  0  0  0  0  0  0  0  0  0  0
  -25.6790  -12.0820   20.4160 C   0  0  0  0  0  0  0  0  0  0  0  0
  -27.2080  -13.3150   19.6240 N   0  0  0  0  0  0  0  0  0  0  0  0
  -26.8950  -12.0290   19.8950 N   0  0  0  0  0  0  0  0  0  0  0  0
  -24.9500  -10.8380   20.6400 C   0  0  0  0  0  0  0  0  0  0  0  0
  -25.3710   -9.8980   21.6030 C   0  0  0  0  0  3  0  0  0  0  0  0
  -24.6300   -8.7160   21.8080 C   0  0  0  0  0  3  0  0  0  0  0  0
  -23.4610   -8.4720   21.0480 C   0  0  0  0  0  0  0  0  0  0  0  0
  -23.0660   -9.4010   20.0700 C   0  0  0  0  0  3  0  0  0  0  0  0
  -23.8080  -10.5740   19.8630 C   0  0  0  0  0  3  0  0  0  0  0  0
  -22.6910   -7.3440   21.1650 O   0  0  0  0  0  0  0  0  0  0  0  0
  -22.3900   -6.8070   22.3900 C   0  0  0  0  0  0  0  0  0  0  0  0
  -21.7800   -7.5700   23.4100 C   0  0  0  0  0  3  0  0  0  0  0  0
  -21.4280   -6.9590   24.6300 C   0  0  0  0  0  3  0  0  0  0  0  0
  -21.6730   -5.5870   24.8270 C   0  0  0  0  0  0  0  0  0  0  0  0
  -22.2770   -4.8260   23.8110 C   0  0  0  0  0  3  0  0  0  0  0  0
  -22.6330   -5.4350   22.5950 C   0  0  0  0  0  0  0  0  0  0  0  0
  -23.1960   -4.6930   21.6100 F   0  0  0  0  0  0  0  0  0  0  0  0
  -21.3250   -4.9970   25.9940 F   0  0  0  0  0  0  0  0  0  0  0  0
  -23.9530  -13.9430   21.1170 C   0  0  0  0  0  0  0  0  0  0  0  0
  -23.3890  -13.2660   22.1100 N   0  0  0  0  0  0  0  0  0  0  0  0
  -23.4560  -14.9810   20.6840 O   0  0  0  0  0  0  0  0  0  0  0  0
  -23.8190  -12.4340   22.4850 H   0  0  0  0  0  0  0  0  0  0  0  0
  -22.5170  -13.5870   22.5060 H   0  0  0  0  0  0  0  0  0  0  0  0
  -26.3600  -15.5640   19.8900 N   0  0  0  0  0  0  0  0  0  0  0  0
  -25.5450  -16.1500   20.0300 H   0  0  0  0  0  0  0  0  0  0  0  0
  -27.1030  -16.0210   19.3820 H   0  0  0  0  0  0  0  0  0  0  0  0
  -25.2570  -27.0280   23.6090 C   0  0  0  0  0  1  0  0  0  0  0  0
  -26.9520  -26.3110   23.6450 O   0  0  0  0  0  0  0  0  0  0  0  0
  -29.0580  -31.6130   24.3290 C   0  0  0  0  0  0  0  0  0  0  0  0
  -28.0920  -26.1850   24.5730 C   0  0  0  0  0  3  0  0  0  0  0  0
  -29.8450  -29.9340   22.7280 C   0  0  0  0  0  3  0  0  0  0  0  0
  -30.0520  -27.5210   23.5090 C   0  0  0  0  0  0  0  0  0  0  0  0
  -29.9350  -29.4090   25.1600 C   0  0  0  0  0  2  0  0  0  0  0  0
  -29.5990  -27.9890   24.7460 C   0  0  0  0  0  3  0  0  0  0  0  0
  -28.6210  -27.2210   25.3940 C   0  0  0  0  0  2  0  0  0  0  0  0
  -29.0500  -25.3730   23.9610 C   0  0  0  0  0  2  0  0  0  0  0  0
  -29.8760  -26.1660   23.1530 C   0  0  0  0  0  3  0  0  0  0  0  0
  -30.6250  -28.5690   22.6070 C   0  0  0  0  0  2  0  0  0  0  0  0
  -29.5840  -30.3730   24.1090 N   0  0  0  0  0  0  0  0  0  0  0  0
  -28.7420  -32.3760   23.4010 O   0  0  0  0  0  0  0  0  0  0  0  0
  -28.5500  -29.7910   22.0310 C   0  0  0  0  0  0  0  0  0  0  0  0
  -28.7220  -28.9980   20.9880 N   0  0  0  0  0  0  0  0  0  0  0  0
  -27.4950  -30.3140   22.4160 O   0  0  0  0  0  0  0  0  0  0  0  0
  -29.6610  -28.7030   20.7620 H   0  0  0  0  0  0  0  0  0  0  0  0
  -27.2330  -26.1100   19.0720 C   0  0  0  0  0  0  0  0  0  0  0  0
  -27.7070  -28.3410   20.3520 C   0  0  0  0  0  3  0  0  0  0  0  0
  -26.3610  -27.9440   20.9440 C   0  0  0  0  0  2  0  0  0  0  0  0
  -25.4950  -26.8080   20.3370 C   0  0  0  0  0  2  0  0  0  0  0  0
  -26.2300  -25.5780   19.9210 C   0  0  0  0  0  2  0  0  0  0  0  0
  -28.2200  -27.4550   19.5060 C   0  0  0  0  0  0  0  0  0  0  0  0
  -29.1310  -28.2130   18.2780 C   0  0  0  0  0  3  0  0  0  0  0  0
  -29.0280  -27.5890   16.7780 C   0  0  0  0  0  3  0  0  0  0  0  0
  -28.1160  -26.2940   16.4520 C   0  0  0  0  0  3  0  0  0  0  0  0
  -27.2260  -25.5640   17.5630 C   0  0  0  0  0  3  0  0  0  0  0  0
  -28.8870  -32.1390   25.7710 C   0  0  0  0  0  3  0  0  0  0  0  0
  -29.1070  -33.5850   25.6920 N   0  0  0  0  0  0  0  0  0  0  0  0
  -30.2670  -34.1790   25.9890 C   0  0  0  0  0  0  0  0  0  0  0  0
  -31.2310  -33.5650   26.4550 O   0  0  0  0  0  0  0  0  0  0  0  0
  -28.3730  -34.1360   25.2740 H   0  0  0  0  0  0  0  0  0  0  0  0
  -31.1350  -35.9580   24.4390 C   0  0  0  0  0  1  0  0  0  0  0  0
  -30.3670  -35.6930   25.7440 C   0  0  0  0  0  3  0  0  0  0  0  0
  -30.2220  -36.4030   28.0890 C   0  0  0  0  0  1  0  0  0  0  0  0
  -31.0090  -36.4220   26.8580 N   0  0  0  0  0  0  0  0  0  0  0  0
  -31.1780  -37.3920   26.6040 H   0  0  0  0  0  0  0  0  0  0  0  0
  -27.4880  -31.8130   26.4130 C   0  0  1  0  0  0  0  0  0  0  0  0
  -26.2780  -32.1820   25.5230 C   0  0  0  0  0  1  0  0  0  0  0  0
  -27.3760  -30.3090   26.7550 C   0  0  0  0  0  1  0  0  0  0  0  0
  -27.3620  -32.5870   27.7470 C   0  0  0  0  0  1  0  0  0  0  0  0
  1  2  2  0
  1  4  1  0
  2  3  1  0
  4  8  2  0
  6  4  1  0
  8  5  1  0
  9 11  1  0
 10 12  1  0
 10  9  1  0
 10 11  1  0
 11  2  1  0
 12  9  1  0
 13 25  1  0
 14 19  1  0
 15 16  1  0
 15 14  1  0
 16 17  1  0
 17 31  1  0
 17 18  1  0
 19 13  1  0
 19 18  1  0
 20 13  2  0
 21 23  1  0
 22 25  1  0
 22 24  1  0
 24 26  1  0
 25 21  1  0
 26 23  1  0
 26 12  1  0
 26 27  1  6
 28 29  2  0
 29 48  1  0
 30 29  1  0
 30 33  1  0
 31 32  1  0
 31 28  1  0
 32 30  2  0
 33 34  1  0
 34 35  2  0
 36 39  1  0
 36 35  1  0
 37 36  2  0
 38 37  1  0
 38 33  2  0
 39 40  1  0
 40 45  2  0
 40 41  1  0
 41 42  2  0
 42 43  1  0
 43 47  1  0
 44 43  2  0
 45 44  1  0
 46 45  1  0
 48 49  1  0
 49 51  1  0
 49 52  1  0
 50 48  2  0
 53 54  1  0
 53 28  1  0
 55 53  1  0
 56 57  1  0
 57 59  1  0
 58 84  1  0
 59 64  1  0
 60 68  1  0
 61 63  1  0
 63 62  1  0
 63 64  1  0
 65 59  1  0
 66 61  2  0
 66 65  1  0
 67 60  1  0
 67 61  1  0
 68 58  1  0
 68 62  1  0
 69 58  2  0
 70 72  2  0
 70 60  1  0
 71 70  1  0
 73 71  1  0
 74 79  1  0
 74 78  1  0
 75 76  1  0
 75 71  1  0
 77 76  1  0
 78 77  1  0
 79 75  1  0
 80 79  2  0
 81 80  1  0
 82 81  2  0
 82 83  1  0
 83 74  2  0
 84 94  1  0
 85 84  1  0
 85 86  1  0
 86 87  2  0
 88 85  1  0
 89 90  1  0
 90 86  1  0
 90 92  1  0
 92 91  1  0
 93 92  1  0
 94 96  1  1
 94 97  1  0
 95 94  1  0
M  ISO  4  13 100  25 100  56 101  57 101
M  END
>  <TORSDO>  (33) 
F 18

>  <SCORE>  (33) 
1.285

>  <name>  (33) 
32

>  <ligand_id>  (33) 
32

>  <original_smiles>  (33) 
[H]c1c([H])c([H])c2c(c1[H])C([H])([H])C([H])([H])C([H])([H])C2([H])N([H])C(=O)C1([H])N(C(=O)C([H])(N([H])C(=O)C([H])(N([H])C([H])([H])[H])C([H])([H])[H])C(C([H])([H])[H])(C([H])([H])[H])C([H])([H])[H])C([H])([H])c2c([H])c(OC([H])([H])c3c(C([H])([H])[H])nc(C([H])([H])[H])c([H])c3C3([H])C([H])([H])C([H])([N+]4([H])C([H])([H])C([H])([H])N(C(=O)N5C([H])([H])C([H])([H])C([H])([H])C([H])(n6nc(-c7c([H])c([H])c(Oc8c([H])c([H])c(F)c([H])c8F)c([H])c7[H])c(C(=O)N([H])[H])c6N([H])[H])C5([H])[H])C([H])([H])C4([H])[H])C3([H])[H])c([H])c([H])c2C1([H])[H]

>  <smiles>  (33) 
[H]c1c([H])c([H])c2c(c1[H])C([H])([H])C([H])([H])C([H])([H])C2([H])N([H])C(=O)C1([H])N(C(=O)C([H])(N([H])C(=O)C([H])(N([H])C([H])([H])[H])C([H])([H])[H])C(C([H])([H])[H])(C([H])([H])[H])C([H])([H])[H])C([H])([H])c2c([H])c(OC([H])([H])c3c(C([H])([H])[H])nc(C([H])([H])[H])c([H])c3C3([H])C([H])([H])C([H])([N+]4([H])C([H])([H])C([H])([H])N(C(=O)N5C([H])([H])C([H])([H])C([H])([H])C([H])(n6nc(-c7c([H])c([H])c(Oc8c([H])c([H])c(F)c([H])c8F)c([H])c7[H])c(C(=O)N([H])[H])c6N([H])[H])C5([H])[H])C([H])([H])C4([H])[H])C3([H])[H])c([H])c([H])c2C1([H])[H]

$$$$
33:0:0
     RDKit          3D

 90 99  0  0  1  0  0  0  0  0999 V2000
  -27.0830  -21.7390   20.0030 C   0  0  0  0  0  0  0  0  0  0  0  0
  -26.6330  -22.6090   21.1750 C   0  0  0  0  0  2  0  0  0  0  0  0
  -27.9360  -23.2760   21.6140 C   0  0  0  0  0  2  0  0  0  0  0  0
  -28.7690  -23.2240   20.3180 C   0  0  0  0  0  3  0  0  0  0  0  0
  -28.4310  -21.6890   19.8830 N   0  0  0  0  0  0  0  0  0  0  0  0
  -26.2550  -21.1260   19.3260 O   0  0  0  0  0  0  0  0  0  0  0  0
  -30.7240  -15.4710   20.0240 C   0  0  0  0  0  0  0  0  0  0  0  0
  -30.6040  -13.0700   19.1330 C   0  0  0  0  0  2  0  0  0  0  0  0
  -29.6670  -12.8770   17.9200 C   0  0  0  0  0  2  0  0  0  0  0  0
  -28.2220  -12.6260   18.3850 C   0  0  0  0  0  2  0  0  0  0  0  0
  -27.8030  -13.5960   19.5160 C   0  0  0  0  0  3  0  0  0  0  0  0
  -28.8620  -13.7590   20.6230 C   0  0  0  0  0  2  0  0  0  0  0  0
  -30.0890  -14.2140   19.9610 N   0  0  0  0  0  0  0  0  0  0  0  0
  -31.9430  -15.4050   19.8130 O   0  0  0  0  0  0  0  0  0  0  0  0
  -30.4380  -19.5720   19.9470 C   0  0  0  0  0  2  0  0  0  0  0  0
  -28.1450  -18.8230   20.0650 C   0  0  0  0  0  2  0  0  0  0  0  0
  -30.8620  -18.0900   20.5590 C   0  0  0  0  0  2  0  0  0  0  0  0
  -28.7810  -17.3450   19.6520 C   0  0  0  0  0  2  0  0  0  0  0  0
  -29.0060  -20.1960   20.3280 C   0  0  0  0  0  3  0  0  0  0  0  0
  -30.0960  -16.7940   20.2030 N   0  0  0  0  0  0  0  0  0  0  0  0
  -25.4890  -14.1900   20.4000 C   0  0  0  0  0  0  0  0  0  0  0  0
  -24.4210  -13.4310   20.7710 C   0  0  0  0  0  0  0  0  0  0  0  0
  -24.8430  -12.0690   20.6520 C   0  0  0  0  0  0  0  0  0  0  0  0
  -26.4920  -13.2980   20.0640 N   0  0  0  0  0  0  0  0  0  0  0  0
  -26.1200  -12.0120   20.2900 N   0  0  0  0  0  0  0  0  0  0  0  0
  -24.0910  -10.8210   20.8030 C   0  0  0  0  0  0  0  0  0  0  0  0
  -24.5020   -9.8150   21.7050 C   0  0  0  0  0  3  0  0  0  0  0  0
  -23.7440   -8.6350   21.8450 C   0  0  0  0  0  3  0  0  0  0  0  0
  -22.5640   -8.4490   21.0850 C   0  0  0  0  0  0  0  0  0  0  0  0
  -22.1760   -9.4460   20.1710 C   0  0  0  0  0  3  0  0  0  0  0  0
  -22.9340  -10.6190   20.0290 C   0  0  0  0  0  3  0  0  0  0  0  0
  -21.7760   -7.3260   21.1420 O   0  0  0  0  0  0  0  0  0  0  0  0
  -21.6770   -6.5750   22.2870 C   0  0  0  0  0  0  0  0  0  0  0  0
  -21.2000   -7.1210   23.4980 C   0  0  0  0  0  3  0  0  0  0  0  0
  -21.0470   -6.2940   24.6300 C   0  0  0  0  0  3  0  0  0  0  0  0
  -21.3620   -4.9240   24.5490 C   0  0  0  0  0  0  0  0  0  0  0  0
  -21.8290   -4.3780   23.3410 C   0  0  0  0  0  3  0  0  0  0  0  0
  -21.9850   -5.2020   22.2110 C   0  0  0  0  0  0  0  0  0  0  0  0
  -22.4180   -4.6680   21.0460 F   0  0  0  0  0  0  0  0  0  0  0  0
  -21.2060   -4.1260   25.6330 F   0  0  0  0  0  0  0  0  0  0  0  0
  -23.0540  -13.9340   21.1160 C   0  0  0  0  0  0  0  0  0  0  0  0
  -22.3420  -13.2300   21.9880 N   0  0  0  0  0  0  0  0  0  0  0  0
  -22.6290  -14.9910   20.6440 O   0  0  0  0  0  0  0  0  0  0  0  0
  -22.7010  -12.3810   22.3980 H   0  0  0  0  0  0  0  0  0  0  0  0
  -21.4210  -13.5510   22.2550 H   0  0  0  0  0  0  0  0  0  0  0  0
  -25.6830  -15.5640   20.2950 N   0  0  0  0  0  0  0  0  0  0  0  0
  -24.9390  -16.2280   20.4730 H   0  0  0  0  0  0  0  0  0  0  0  0
  -26.5430  -15.9960   19.9930 H   0  0  0  0  0  0  0  0  0  0  0  0
  -28.2900  -24.6850   19.4530 C   0  0  0  0  0  2  0  0  0  0  0  0
  -28.4010  -26.2680   19.7820 O   0  0  0  0  0  0  0  0  0  0  0  0
  -24.5670  -31.7960   22.9890 C   0  0  0  0  0  0  0  0  0  0  0  0
  -27.3360  -27.2800   19.7270 C   0  0  0  0  0  0  0  0  0  0  0  0
  -23.4240  -30.4260   21.2890 C   0  0  0  0  0  3  0  0  0  0  0  0
  -24.9470  -29.0020   19.7680 C   0  0  0  0  0  0  0  0  0  0  0  0
  -25.9660  -30.8100   21.1280 C   0  0  0  0  0  2  0  0  0  0  0  0
  -26.1130  -29.4500   20.4000 C   0  0  0  0  0  0  0  0  0  0  0  0
  -27.3040  -28.6030   20.3690 C   0  0  0  0  0  3  0  0  0  0  0  0
  -26.1410  -26.9790   19.0450 C   0  0  0  0  0  3  0  0  0  0  0  0
  -24.9800  -27.7840   19.0750 C   0  0  0  0  0  3  0  0  0  0  0  0
  -23.6750  -29.8470   19.8700 C   0  0  0  0  0  2  0  0  0  0  0  0
  -24.6740  -31.0280   21.8580 N   0  0  0  0  0  0  0  0  0  0  0  0
  -23.4720  -31.9970   23.5330 O   0  0  0  0  0  0  0  0  0  0  0  0
  -22.8090  -29.3290   22.1980 C   0  0  0  0  0  0  0  0  0  0  0  0
  -21.4890  -29.1040   22.0940 N   0  0  0  0  0  0  0  0  0  0  0  0
  -23.5280  -28.6860   22.9700 O   0  0  0  0  0  0  0  0  0  0  0  0
  -20.9500  -29.6980   21.4790 H   0  0  0  0  0  0  0  0  0  0  0  0
  -18.1740  -27.7540   22.6500 C   0  0  0  0  0  0  0  0  0  0  0  0
  -20.7320  -28.0870   22.8320 C   0  0  0  0  0  3  0  0  0  0  0  0
  -20.8520  -26.7020   22.1570 C   0  0  0  0  0  2  0  0  0  0  0  0
  -19.7230  -26.4140   21.1630 C   0  0  0  0  0  2  0  0  0  0  0  0
  -18.3650  -26.4650   21.8690 C   0  0  0  0  0  2  0  0  0  0  0  0
  -19.2830  -28.5250   23.0890 C   0  0  0  0  0  0  0  0  0  0  0  0
  -19.0450  -29.7340   23.7800 C   0  0  0  0  0  3  0  0  0  0  0  0
  -17.7310  -30.1730   24.0330 C   0  0  0  0  0  3  0  0  0  0  0  0
  -16.6360  -29.3940   23.6180 C   0  0  0  0  0  3  0  0  0  0  0  0
  -16.8610  -28.1910   22.9250 C   0  0  0  0  0  3  0  0  0  0  0  0
  -25.8180  -32.4750   23.6370 C   0  0  0  0  0  3  0  0  0  0  0  0
  -25.4500  -33.8470   24.0180 N   0  0  0  0  0  0  0  0  0  0  0  0
  -25.7290  -34.9440   23.3040 C   0  0  0  0  0  0  0  0  0  0  0  0
  -26.4010  -34.9160   22.2700 O   0  0  0  0  0  0  0  0  0  0  0  0
  -24.8840  -33.9570   24.8470 H   0  0  0  0  0  0  0  0  0  0  0  0
  -23.9270  -36.6680   23.0200 C   0  0  0  0  0  1  0  0  0  0  0  0
  -25.1750  -36.2840   23.8250 C   0  0  0  0  0  3  0  0  0  0  0  0
  -27.2480  -37.2220   24.7320 C   0  0  0  0  0  1  0  0  0  0  0  0
  -26.1550  -37.3870   23.7820 N   0  0  0  0  0  0  0  0  0  0  0  0
  -25.6980  -38.2750   23.9790 H   0  0  0  0  0  0  0  0  0  0  0  0
  -26.3650  -31.6960   24.9000 C   0  0  1  0  0  0  0  0  0  0  0  0
  -25.2790  -31.3900   25.9570 C   0  0  0  0  0  1  0  0  0  0  0  0
  -27.0080  -30.3550   24.4880 C   0  0  0  0  0  1  0  0  0  0  0  0
  -27.4830  -32.5200   25.5890 C   0  0  0  0  0  1  0  0  0  0  0  0
  1  2  1  0
  2  3  1  0
  4 49  1  0
  4  3  1  0
  5  1  1  0
  5  4  1  0
  6  1  2  0
  7 20  1  0
  8 13  1  0
  9 10  1  0
  9  8  1  0
 11 10  1  0
 11 24  1  0
 11 12  1  0
 13  7  1  0
 13 12  1  0
 14  7  2  0
 15 19  1  0
 15 17  1  0
 16 19  1  0
 18 16  1  0
 18 20  1  0
 19  5  1  0
 20 17  1  0
 21 22  2  0
 22 41  1  0
 23 22  1  0
 23 26  1  0
 24 25  1  0
 24 21  1  0
 25 23  2  0
 26 27  1  0
 27 28  2  0
 29 32  1  0
 29 28  1  0
 30 29  2  0
 31 30  1  0
 31 26  2  0
 32 33  1  0
 33 34  1  0
 34 35  2  0
 36 35  1  0
 36 40  1  0
 37 36  2  0
 38 33  2  0
 38 37  1  0
 39 38  1  0
 41 42  1  0
 42 45  1  0
 42 44  1  0
 43 41  2  0
 46 21  1  0
 46 47  1  0
 48 46  1  0
 49 50  1  0
 51 62  2  0
 52 50  1  0
 52 57  1  0
 53 61  1  0
 53 63  1  0
 54 60  1  0
 54 56  1  0
 55 61  1  0
 56 55  1  0
 57 56  2  0
 58 59  1  0
 58 52  2  0
 59 54  2  0
 60 53  1  0
 61 51  1  0
 63 65  2  0
 64 63  1  0
 66 64  1  0
 67 76  2  0
 67 72  1  0
 68 64  1  0
 68 72  1  0
 69 68  1  0
 70 71  1  0
 70 69  1  0
 71 67  1  0
 72 73  2  0
 73 74  1  0
 75 74  2  0
 76 75  1  0
 77 51  1  0
 77 78  1  0
 77 87  1  0
 78 81  1  0
 79 83  1  0
 79 78  1  0
 80 79  2  0
 83 82  1  0
 85 83  1  0
 85 86  1  0
 85 84  1  0
 87 90  1  1
 87 88  1  0
 89 87  1  0
M  ISO  4   7 100  20 100  49 101  50 101
M  END
>  <TORSDO>  (34) 
F 17

>  <SCORE>  (34) 
-14.454

>  <name>  (34) 
33

>  <ligand_id>  (34) 
33

>  <original_smiles>  (34) 
[H]c1c([H])c([H])c2c(c1[H])C([H])([H])C([H])([H])C([H])([H])C2([H])N([H])C(=O)C1([H])N(C(=O)C([H])(N([H])C(=O)C([H])(N([H])C([H])([H])[H])C([H])([H])[H])C(C([H])([H])[H])(C([H])([H])[H])C([H])([H])[H])C([H])([H])c2c([H])c(OC([H])([H])C3([H])N(C4([H])C([H])([H])C([H])([H])N(C(=O)N5C([H])([H])C([H])([H])C([H])([H])C([H])(n6nc(-c7c([H])c([H])c(Oc8c([H])c([H])c(F)c([H])c8F)c([H])c7[H])c(C(=O)N([H])[H])c6N([H])[H])C5([H])[H])C([H])([H])C4([H])[H])C(=O)C([H])([H])C3([H])[H])c([H])c([H])c2C1([H])[H]

>  <smiles>  (34) 
[H]c1c([H])c([H])c2c(c1[H])C([H])([H])C([H])([H])C([H])([H])C2([H])N([H])C(=O)C1([H])N(C(=O)C([H])(N([H])C(=O)C([H])(N([H])C([H])([H])[H])C([H])([H])[H])C(C([H])([H])[H])(C([H])([H])[H])C([H])([H])[H])C([H])([H])c2c([H])c(OC([H])([H])C3([H])N(C4([H])C([H])([H])C([H])([H])N(C(=O)N5C([H])([H])C([H])([H])C([H])([H])C([H])(n6nc(-c7c([H])c([H])c(Oc8c([H])c([H])c(F)c([H])c8F)c([H])c7[H])c(C(=O)N([H])[H])c6N([H])[H])C5([H])[H])C([H])([H])C4([H])[H])C(=O)C([H])([H])C3([H])[H])c([H])c([H])c2C1([H])[H]

$$$$
34:0:0
     RDKit          3D

 92101  0  0  1  0  0  0  0  0999 V2000
  -30.6540  -14.8270   20.4290 C   0  0  0  0  0  0  0  0  0  0  0  0
  -30.3630  -12.5450   19.4290 C   0  0  0  0  0  2  0  0  0  0  0  0
  -29.4500  -12.5740   18.1870 C   0  0  0  0  0  2  0  0  0  0  0  0
  -27.9800  -12.3920   18.6090 C   0  0  0  0  0  2  0  0  0  0  0  0
  -27.5880  -13.3070   19.7990 C   0  0  0  0  0  3  0  0  0  0  0  0
  -28.6390  -13.2940   20.9330 C   0  0  0  0  0  2  0  0  0  0  0  0
  -29.9280  -13.6490   20.3290 N   0  0  0  0  0  0  0  0  0  0  0  0
  -31.8610  -14.7530   20.1730 O   0  0  0  0  0  0  0  0  0  0  0  0
  -29.2930  -22.7570   21.5610 C   0  0  0  0  0  3  0  0  0  0  0  0
  -28.5670  -23.5320   20.6100 C   0  0  0  0  0  0  0  0  0  0  0  0
  -28.1460  -22.7520   19.4900 C   0  0  0  0  0  0  0  0  0  0  0  0
  -28.4410  -21.3300   19.4010 C   0  0  0  0  0  0  0  0  0  0  0  0
  -29.1430  -20.6400   20.4460 C   0  0  0  0  0  0  0  0  0  0  0  0
  -30.5490  -18.6840   21.2670 C   0  0  0  0  0  2  0  0  0  0  0  0
  -28.3780  -18.1840   20.5070 C   0  0  0  0  0  2  0  0  0  0  0  0
  -31.0720  -17.2510   20.8530 C   0  0  0  0  0  2  0  0  0  0  0  0
  -28.7660  -16.6390   20.2770 C   0  0  0  0  0  2  0  0  0  0  0  0
  -27.3160  -23.4480   18.4190 C   0  0  0  0  0  1  0  0  0  0  0  0
  -28.0000  -20.5590   18.1580 C   0  0  0  0  0  1  0  0  0  0  0  0
  -29.5690  -21.4070   21.4850 N   0  0  0  0  0  0  0  0  0  0  0  0
  -29.4530  -19.2030   20.4410 N   0  0  0  0  0  0  0  0  0  0  0  0
  -30.1090  -16.1110   20.6770 N   0  0  0  0  0  0  0  0  0  0  0  0
  -25.2000  -13.9030   20.5010 C   0  0  0  0  0  0  0  0  0  0  0  0
  -24.1310  -13.1330   20.8650 C   0  0  0  0  0  0  0  0  0  0  0  0
  -24.5940  -11.7820   20.8540 C   0  0  0  0  0  0  0  0  0  0  0  0
  -26.2450  -13.0210   20.2860 N   0  0  0  0  0  0  0  0  0  0  0  0
  -25.8890  -11.7410   20.5650 N   0  0  0  0  0  0  0  0  0  0  0  0
  -23.8630  -10.5220   21.0430 C   0  0  0  0  0  0  0  0  0  0  0  0
  -24.2890   -9.5560   21.9790 C   0  0  0  0  0  3  0  0  0  0  0  0
  -23.5570   -8.3610   22.1570 C   0  0  0  0  0  3  0  0  0  0  0  0
  -22.3860   -8.1270   21.3970 C   0  0  0  0  0  0  0  0  0  0  0  0
  -21.9810   -9.0820   20.4490 C   0  0  0  0  0  3  0  0  0  0  0  0
  -22.7130  -10.2680   20.2700 C   0  0  0  0  0  3  0  0  0  0  0  0
  -21.6260   -6.9860   21.4850 O   0  0  0  0  0  0  0  0  0  0  0  0
  -21.5740   -6.2430   22.6380 C   0  0  0  0  0  0  0  0  0  0  0  0
  -21.1630   -6.8030   23.8670 C   0  0  0  0  0  3  0  0  0  0  0  0
  -21.0570   -5.9870   25.0120 C   0  0  0  0  0  3  0  0  0  0  0  0
  -21.3520   -4.6130   24.9280 C   0  0  0  0  0  0  0  0  0  0  0  0
  -21.7550   -4.0530   23.7030 C   0  0  0  0  0  3  0  0  0  0  0  0
  -21.8630   -4.8660   22.5610 C   0  0  0  0  0  0  0  0  0  0  0  0
  -22.2320   -4.3160   21.3790 F   0  0  0  0  0  0  0  0  0  0  0  0
  -21.2420   -3.8280   26.0240 F   0  0  0  0  0  0  0  0  0  0  0  0
  -22.7300  -13.6160   21.1100 C   0  0  0  0  0  0  0  0  0  0  0  0
  -21.9900  -12.9350   21.9770 N   0  0  0  0  0  0  0  0  0  0  0  0
  -22.3030  -14.6340   20.5670 O   0  0  0  0  0  0  0  0  0  0  0  0
  -22.3480  -12.1120   22.4390 H   0  0  0  0  0  0  0  0  0  0  0  0
  -21.0500  -13.2420   22.1840 H   0  0  0  0  0  0  0  0  0  0  0  0
  -25.3610  -15.2710   20.3050 N   0  0  0  0  0  0  0  0  0  0  0  0
  -24.5810  -15.9150   20.3820 H   0  0  0  0  0  0  0  0  0  0  0  0
  -26.1950  -15.7020   19.9320 H   0  0  0  0  0  0  0  0  0  0  0  0
  -28.0130  -25.0070   20.9800 C   0  0  0  0  0  2  0  0  0  0  0  0
  -28.3340  -26.3170   20.2920 O   0  0  0  0  0  0  0  0  0  0  0  0
  -24.6600  -31.8970   23.2420 C   0  0  0  0  0  0  0  0  0  0  0  0
  -27.2800  -27.2650   20.2450 C   0  0  0  0  0  0  0  0  0  0  0  0
  -23.4700  -30.4800   21.6140 C   0  0  0  0  0  3  0  0  0  0  0  0
  -24.9310  -28.9240   20.1990 C   0  0  0  0  0  0  0  0  0  0  0  0
  -26.0140  -30.7940   21.4360 C   0  0  0  0  0  2  0  0  0  0  0  0
  -26.1020  -29.4060   20.7990 C   0  0  0  0  0  0  0  0  0  0  0  0
  -27.2850  -28.5900   20.8080 C   0  0  0  0  0  3  0  0  0  0  0  0
  -26.0890  -26.8660   19.6030 C   0  0  0  0  0  3  0  0  0  0  0  0
  -24.9300  -27.6620   19.5870 C   0  0  0  0  0  3  0  0  0  0  0  0
  -23.6910  -29.7990   20.2390 C   0  0  0  0  0  2  0  0  0  0  0  0
  -24.7350  -31.0760   22.1530 N   0  0  0  0  0  0  0  0  0  0  0  0
  -23.5730  -32.1730   23.7710 O   0  0  0  0  0  0  0  0  0  0  0  0
  -22.8080  -29.4660   22.5810 C   0  0  0  0  0  0  0  0  0  0  0  0
  -21.4830  -29.2820   22.4590 N   0  0  0  0  0  0  0  0  0  0  0  0
  -23.4900  -28.8480   23.4040 O   0  0  0  0  0  0  0  0  0  0  0  0
  -20.9900  -29.8340   21.7710 H   0  0  0  0  0  0  0  0  0  0  0  0
  -18.1100  -28.0710   22.9740 C   0  0  0  0  0  0  0  0  0  0  0  0
  -20.6680  -28.3470   23.2390 C   0  0  0  0  0  3  0  0  0  0  0  0
  -20.7760  -26.9120   22.6750 C   0  0  0  0  0  2  0  0  0  0  0  0
  -19.6750  -26.5750   21.6650 C   0  0  0  0  0  2  0  0  0  0  0  0
  -18.2940  -26.7170   22.3100 C   0  0  0  0  0  2  0  0  0  0  0  0
  -19.2240  -28.8430   23.3960 C   0  0  0  0  0  0  0  0  0  0  0  0
  -18.9970  -30.1080   23.9790 C   0  0  0  0  0  3  0  0  0  0  0  0
  -17.6900  -30.6030   24.1440 C   0  0  0  0  0  3  0  0  0  0  0  0
  -16.5900  -29.8270   23.7380 C   0  0  0  0  0  3  0  0  0  0  0  0
  -16.8010  -28.5630   23.1580 C   0  0  0  0  0  3  0  0  0  0  0  0
  -25.9360  -32.5460   23.8620 C   0  0  0  0  0  3  0  0  0  0  0  0
  -25.6100  -33.9400   24.1960 N   0  0  0  0  0  0  0  0  0  0  0  0
  -25.9180  -34.9990   23.4370 C   0  0  0  0  0  0  0  0  0  0  0  0
  -26.5780  -34.9070   22.3980 O   0  0  0  0  0  0  0  0  0  0  0  0
  -25.0220  -34.0840   25.0040 H   0  0  0  0  0  0  0  0  0  0  0  0
  -24.1580  -36.7680   23.1130 C   0  0  0  0  0  1  0  0  0  0  0  0
  -25.4190  -36.3810   23.9020 C   0  0  0  0  0  3  0  0  0  0  0  0
  -27.5560  -37.2960   24.6950 C   0  0  0  0  0  1  0  0  0  0  0  0
  -26.4340  -37.4490   23.7720 N   0  0  0  0  0  0  0  0  0  0  0  0
  -26.0170  -38.3630   23.9280 H   0  0  0  0  0  0  0  0  0  0  0  0
  -26.4650  -31.7810   25.1370 C   0  0  1  0  0  0  0  0  0  0  0  0
  -25.3780  -31.5340   26.2100 C   0  0  0  0  0  1  0  0  0  0  0  0
  -27.0590  -30.4080   24.7470 C   0  0  0  0  0  1  0  0  0  0  0  0
  -27.6100  -32.5870   25.7940 C   0  0  0  0  0  1  0  0  0  0  0  0
  1 22  1  0
  2  7  1  0
  3  4  1  0
  3  2  1  0
  5  4  1  0
  5 26  1  0
  5  6  1  0
  7  1  1  0
  7  6  1  0
  8  1  2  0
 10 51  1  0
 10  9  2  0
 11 10  1  0
 12 11  2  0
 12 13  1  0
 13 20  2  0
 16 14  1  0
 17 15  1  0
 17 22  1  0
 18 11  1  0
 19 12  1  0
 20  9  1  0
 21 13  1  0
 21 15  1  0
 21 14  1  0
 22 16  1  0
 23 24  2  0
 24 43  1  0
 25 24  1  0
 25 28  1  0
 26 23  1  0
 26 27  1  0
 27 25  2  0
 28 29  1  0
 29 30  2  0
 31 34  1  0
 31 30  1  0
 32 31  2  0
 33 32  1  0
 33 28  2  0
 34 35  1  0
 35 36  1  0
 36 37  2  0
 38 37  1  0
 38 42  1  0
 39 38  2  0
 40 35  2  0
 40 39  1  0
 41 40  1  0
 43 44  1  0
 44 47  1  0
 44 46  1  0
 45 43  2  0
 48 49  1  0
 48 23  1  0
 50 48  1  0
 52 51  1  0
 53 64  2  0
 54 52  1  0
 54 59  1  0
 55 63  1  0
 55 65  1  0
 56 62  1  0
 56 58  1  0
 57 63  1  0
 58 59  2  0
 58 57  1  0
 60 54  2  0
 61 60  1  0
 61 56  2  0
 62 55  1  0
 63 53  1  0
 65 67  2  0
 66 65  1  0
 68 66  1  0
 69 78  2  0
 69 74  1  0
 70 66  1  0
 70 74  1  0
 71 70  1  0
 72 73  1  0
 72 71  1  0
 73 69  1  0
 74 75  2  0
 75 76  1  0
 77 76  2  0
 78 77  1  0
 79 53  1  0
 79 80  1  0
 79 89  1  0
 80 83  1  0
 81 85  1  0
 81 80  1  0
 82 81  2  0
 85 84  1  0
 87 85  1  0
 87 88  1  0
 87 86  1  0
 89 92  1  1
 89 90  1  0
 91 89  1  0
M  ISO  4   1 100  22 100  51 101  52 101
M  END
>  <TORSDO>  (35) 
F 16

>  <SCORE>  (35) 
-15.960

>  <name>  (35) 
34

>  <ligand_id>  (35) 
34

>  <original_smiles>  (35) 
[H]c1nc(N2C([H])([H])C([H])([H])N(C(=O)N3C([H])([H])C([H])([H])C([H])([H])C([H])(n4nc(-c5c([H])c([H])c(Oc6c([H])c([H])c(F)c([H])c6F)c([H])c5[H])c(C(=O)N([H])[H])c4N([H])[H])C3([H])[H])C([H])([H])C2([H])[H])c(C([H])([H])[H])c(C([H])([H])[H])c1C([H])([H])Oc1c([H])c([H])c2c(c1[H])C([H])([H])N(C(=O)C([H])(N([H])C(=O)C([H])(N([H])C([H])([H])[H])C([H])([H])[H])C(C([H])([H])[H])(C([H])([H])[H])C([H])([H])[H])C([H])(C(=O)N([H])C1([H])c3c([H])c([H])c([H])c([H])c3C([H])([H])C([H])([H])C1([H])[H])C2([H])[H]

>  <smiles>  (35) 
[H]c1nc(N2C([H])([H])C([H])([H])N(C(=O)N3C([H])([H])C([H])([H])C([H])([H])C([H])(n4nc(-c5c([H])c([H])c(Oc6c([H])c([H])c(F)c([H])c6F)c([H])c5[H])c(C(=O)N([H])[H])c4N([H])[H])C3([H])[H])C([H])([H])C2([H])[H])c(C([H])([H])[H])c(C([H])([H])[H])c1C([H])([H])Oc1c([H])c([H])c2c(c1[H])C([H])([H])N(C(=O)C([H])(N([H])C(=O)C([H])(N([H])C([H])([H])[H])C([H])([H])[H])C(C([H])([H])[H])(C([H])([H])[H])C([H])([H])[H])C([H])(C(=O)N([H])C1([H])c3c([H])c([H])c([H])c([H])c3C([H])([H])C([H])([H])C1([H])[H])C2([H])[H]

$$$$
35:0:0
     RDKit          3D

 96105  0  0  1  0  0  0  0  0999 V2000
  -27.3170  -22.3900   19.5450 C   0  0  0  0  0  2  0  0  0  0  0  0
  -29.5300  -22.2090   20.3660 C   0  0  0  0  0  2  0  0  0  0  0  0
  -27.6140  -20.9230   19.9550 C   0  0  0  0  0  3  0  0  0  0  0  0
  -29.1550  -20.7880   19.8380 C   0  0  1  0  0  0  0  0  0  0  0  0
  -26.7430  -19.8910   19.2130 C   0  0  0  0  0  1  0  0  0  0  0  0
  -29.6350  -20.6850   18.3660 C   0  0  0  0  0  1  0  0  0  0  0  0
  -28.5790  -23.1500   19.7170 N   0  0  2  0  0  4  0  0  0  0  0  0
  -28.9430  -23.2900   18.7840 H   0  0  0  0  0  0  0  0  0  0  0  0
  -30.6310  -19.7880   21.7250 C   0  0  0  0  0  3  0  0  0  0  0  0
  -29.5930  -18.2390   20.2030 C   0  0  0  0  0  3  0  0  0  0  0  0
  -29.7790  -19.5890   20.6170 C   0  0  0  0  0  0  0  0  0  0  0  0
  -31.2580  -18.6820   22.3280 C   0  0  0  0  0  0  0  0  0  0  0  0
  -30.2910  -17.1670   20.8300 C   0  0  0  0  0  0  0  0  0  0  0  0
  -32.1530  -18.8810   23.5380 C   0  0  0  0  0  1  0  0  0  0  0  0
  -31.1010  -17.4130   21.8860 N   0  0  0  0  0  0  0  0  0  0  0  0
  -30.8190  -14.8160   20.0390 C   0  0  0  0  0  0  0  0  0  0  0  0
  -30.5530  -12.6140   18.9260 C   0  0  0  0  0  2  0  0  0  0  0  0
  -29.5330  -12.7580   17.7740 C   0  0  0  0  0  2  0  0  0  0  0  0
  -28.0850  -12.5930   18.2840 C   0  0  0  0  0  2  0  0  0  0  0  0
  -27.7980  -13.4410   19.5510 C   0  0  0  0  0  3  0  0  0  0  0  0
  -28.9190  -13.2610   20.5980 C   0  0  0  0  0  2  0  0  0  0  0  0
  -30.1940  -13.6050   19.9520 N   0  0  0  0  0  0  0  0  0  0  0  0
  -31.9520  -15.0060   19.5840 O   0  0  0  0  0  0  0  0  0  0  0  0
  -29.9960  -15.8310   20.4110 N   0  0  0  0  0  0  0  0  0  0  0  0
  -29.0330  -15.5610   20.5060 H   0  0  0  0  0  0  0  0  0  0  0  0
  -25.4620  -14.0310   20.4560 C   0  0  0  0  0  0  0  0  0  0  0  0
  -24.4170  -13.2500   20.8660 C   0  0  0  0  0  0  0  0  0  0  0  0
  -24.8620  -11.8990   20.7460 C   0  0  0  0  0  0  0  0  0  0  0  0
  -26.4790  -13.1530   20.1110 N   0  0  0  0  0  0  0  0  0  0  0  0
  -26.1270  -11.8630   20.3450 N   0  0  0  0  0  0  0  0  0  0  0  0
  -24.1400  -10.6350   20.9300 C   0  0  0  0  0  0  0  0  0  0  0  0
  -24.5570   -9.6810   21.8850 C   0  0  0  0  0  3  0  0  0  0  0  0
  -23.8380   -8.4770   22.0590 C   0  0  0  0  0  3  0  0  0  0  0  0
  -22.6870   -8.2220   21.2750 C   0  0  0  0  0  0  0  0  0  0  0  0
  -22.2900   -9.1630   20.3090 C   0  0  0  0  0  3  0  0  0  0  0  0
  -23.0100  -10.3570   20.1350 C   0  0  0  0  0  3  0  0  0  0  0  0
  -21.9400   -7.0720   21.3560 O   0  0  0  0  0  0  0  0  0  0  0  0
  -21.7850   -6.3950   22.5390 C   0  0  0  0  0  0  0  0  0  0  0  0
  -21.1840   -6.9950   23.6670 C   0  0  0  0  0  3  0  0  0  0  0  0
  -20.9820   -6.2420   24.8390 C   0  0  0  0  0  3  0  0  0  0  0  0
  -21.3700   -4.8910   24.8850 C   0  0  0  0  0  0  0  0  0  0  0  0
  -21.9650   -4.2900   23.7610 C   0  0  0  0  0  3  0  0  0  0  0  0
  -22.1680   -5.0400   22.5890 C   0  0  0  0  0  0  0  0  0  0  0  0
  -22.7220   -4.4500   21.5020 F   0  0  0  0  0  0  0  0  0  0  0  0
  -21.1680   -4.1660   26.0090 F   0  0  0  0  0  0  0  0  0  0  0  0
  -23.0450  -13.7220   21.2560 C   0  0  0  0  0  0  0  0  0  0  0  0
  -22.3670  -12.9890   22.1330 N   0  0  0  0  0  0  0  0  0  0  0  0
  -22.5840  -14.7730   20.8150 O   0  0  0  0  0  0  0  0  0  0  0  0
  -22.7480  -12.1330   22.5090 H   0  0  0  0  0  0  0  0  0  0  0  0
  -21.4480  -13.2870   22.4340 H   0  0  0  0  0  0  0  0  0  0  0  0
  -25.6230  -15.4080   20.3260 N   0  0  0  0  0  0  0  0  0  0  0  0
  -24.8660  -16.0540   20.5210 H   0  0  0  0  0  0  0  0  0  0  0  0
  -26.4240  -15.8650   19.9100 H   0  0  0  0  0  0  0  0  0  0  0  0
  -28.4530  -24.5070   20.3400 C   0  0  0  0  0  2  0  0  0  0  0  0
  -28.4460  -25.6590   19.3000 C   0  0  0  0  0  2  0  0  0  0  0  0
  -28.3090  -26.9540   19.9160 O   0  0  0  0  0  0  0  0  0  0  0  0
  -24.4900  -32.0010   23.1650 C   0  0  0  0  0  0  0  0  0  0  0  0
  -27.0930  -27.6150   19.9570 C   0  0  0  0  0  0  0  0  0  0  0  0
  -23.2470  -30.6050   21.5460 C   0  0  0  0  0  3  0  0  0  0  0  0
  -24.6720  -29.0960   20.0680 C   0  0  0  0  0  0  0  0  0  0  0  0
  -25.7630  -30.9940   21.2710 C   0  0  0  0  0  2  0  0  0  0  0  0
  -25.8440  -29.6310   20.6120 C   0  0  0  0  0  0  0  0  0  0  0  0
  -27.0540  -28.9000   20.5520 C   0  0  0  0  0  3  0  0  0  0  0  0
  -25.8870  -27.0830   19.4360 C   0  0  0  0  0  3  0  0  0  0  0  0
  -24.6890  -27.8200   19.4810 C   0  0  0  0  0  3  0  0  0  0  0  0
  -23.4220  -29.9410   20.1540 C   0  0  0  0  0  2  0  0  0  0  0  0
  -24.5210  -31.2140   22.0520 N   0  0  0  0  0  0  0  0  0  0  0  0
  -23.4240  -32.2560   23.7400 O   0  0  0  0  0  0  0  0  0  0  0  0
  -22.6390  -29.5660   22.5160 C   0  0  0  0  0  0  0  0  0  0  0  0
  -21.3160  -29.3510   22.4160 N   0  0  0  0  0  0  0  0  0  0  0  0
  -23.3530  -28.9520   23.3120 O   0  0  0  0  0  0  0  0  0  0  0  0
  -20.7930  -29.8980   21.7460 H   0  0  0  0  0  0  0  0  0  0  0  0
  -17.9840  -28.0770   22.9680 C   0  0  0  0  0  0  0  0  0  0  0  0
  -20.5400  -28.3920   23.1990 C   0  0  0  0  0  3  0  0  0  0  0  0
  -20.6700  -26.9660   22.6130 C   0  0  0  0  0  2  0  0  0  0  0  0
  -19.5560  -26.6230   21.6190 C   0  0  0  0  0  2  0  0  0  0  0  0
  -18.1810  -26.7340   22.2860 C   0  0  0  0  0  2  0  0  0  0  0  0
  -19.0920  -28.8630   23.3820 C   0  0  0  0  0  0  0  0  0  0  0  0
  -18.8540  -30.1250   23.9710 C   0  0  0  0  0  3  0  0  0  0  0  0
  -17.5410  -30.5940   24.1650 C   0  0  0  0  0  3  0  0  0  0  0  0
  -16.4480  -29.8030   23.7710 C   0  0  0  0  0  3  0  0  0  0  0  0
  -16.6710  -28.5500   23.1730 C   0  0  0  0  0  3  0  0  0  0  0  0
  -25.7900  -32.6420   23.7500 C   0  0  0  0  0  3  0  0  0  0  0  0
  -26.3600  -31.8630   24.9980 C   0  0  1  0  0  0  0  0  0  0  0  0
  -25.3080  -31.5930   26.0970 C   0  0  0  0  0  1  0  0  0  0  0  0
  -26.9550  -30.5000   24.5710 C   0  0  0  0  0  1  0  0  0  0  0  0
  -27.5090  -32.6740   25.6400 C   0  0  0  0  0  1  0  0  0  0  0  0
  -25.4750  -34.0340   24.1030 N   0  0  0  0  0  0  0  0  0  0  0  0
  -25.7670  -35.0970   23.3410 C   0  0  0  0  0  0  0  0  0  0  0  0
  -26.4070  -35.0130   22.2900 O   0  0  0  0  0  0  0  0  0  0  0  0
  -24.9200  -34.1790   24.9330 H   0  0  0  0  0  0  0  0  0  0  0  0
  -24.0220  -36.8790   23.0350 C   0  0  0  0  0  1  0  0  0  0  0  0
  -25.2740  -36.4720   23.8260 C   0  0  0  0  0  3  0  0  0  0  0  0
  -27.4040  -37.3690   24.6550 C   0  0  0  0  0  1  0  0  0  0  0  0
  -26.2960  -37.5340   23.7180 N   0  0  0  0  0  0  0  0  0  0  0  0
  -25.8810  -38.4470   23.8820 H   0  0  0  0  0  0  0  0  0  0  0  0
  1  7  1  0
  1  3  1  0
  3  5  1  0
  4  6  1  6
  4  3  1  0
  4  2  1  0
  4 11  1  0
  7 54  1  0
  7  2  1  0
  7  8  1  6
  9 12  1  0
 10 11  1  0
 10 13  2  0
 11  9  2  0
 12 14  1  0
 13 15  1  0
 15 12  2  0
 16 24  1  0
 17 22  1  0
 18 19  1  0
 18 17  1  0
 20 19  1  0
 20 29  1  0
 20 21  1  0
 22 16  1  0
 22 21  1  0
 23 16  2  0
 24 25  1  0
 24 13  1  0
 26 27  2  0
 27 46  1  0
 28 27  1  0
 28 31  1  0
 29 30  1  0
 29 26  1  0
 30 28  2  0
 31 32  1  0
 32 33  2  0
 34 37  1  0
 34 33  1  0
 35 34  2  0
 36 35  1  0
 36 31  2  0
 37 38  1  0
 38 43  2  0
 38 39  1  0
 39 40  2  0
 40 41  1  0
 41 45  1  0
 42 41  2  0
 43 42  1  0
 44 43  1  0
 46 47  1  0
 47 50  1  0
 47 49  1  0
 48 46  2  0
 51 26  1  0
 51 52  1  0
 53 51  1  0
 55 56  1  0
 55 54  1  0
 56 58  1  0
 57 68  2  0
 58 63  1  0
 59 67  1  0
 59 69  1  0
 60 66  1  0
 60 62  1  0
 61 67  1  0
 62 61  1  0
 63 62  2  0
 64 65  1  0
 64 58  2  0
 65 60  2  0
 66 59  1  0
 67 57  1  0
 69 71  2  0
 70 69  1  0
 72 70  1  0
 73 82  2  0
 73 78  1  0
 74 70  1  0
 74 78  1  0
 75 74  1  0
 76 77  1  0
 76 75  1  0
 77 73  1  0
 78 79  2  0
 79 80  1  0
 81 80  2  0
 82 81  1  0
 83 57  1  0
 83 88  1  0
 83 84  1  0
 84 87  1  1
 84 85  1  0
 86 84  1  0
 88 91  1  0
 89 93  1  0
 89 88  1  0
 90 89  2  0
 93 92  1  0
 95 93  1  0
 95 96  1  0
 95 94  1  0
M  ISO  4  16 100  24 100  55 101  56 101
M  END
>  <TORSDO>  (36) 
F 19

>  <SCORE>  (36) 
-12.486

>  <name>  (36) 
35

>  <ligand_id>  (36) 
35

>  <original_smiles>  (36) 
[H]c1c([H])c([H])c2c(c1[H])C([H])([H])C([H])([H])C([H])([H])C2([H])N([H])C(=O)C1([H])N(C(=O)C([H])(N([H])C(=O)C([H])(N([H])C([H])([H])[H])C([H])([H])[H])C(C([H])([H])[H])(C([H])([H])[H])C([H])([H])[H])C([H])([H])c2c([H])c(OC([H])([H])C([H])([H])[N+]3([H])C([H])([H])C([H])(C([H])([H])[H])C(c4c([H])c(N([H])C(=O)N5C([H])([H])C([H])([H])C([H])([H])C([H])(n6nc(-c7c([H])c([H])c(Oc8c([H])c([H])c(F)c([H])c8F)c([H])c7[H])c(C(=O)N([H])[H])c6N([H])[H])C5([H])[H])nc(C([H])([H])[H])c4[H])(C([H])([H])[H])C3([H])[H])c([H])c([H])c2C1([H])[H]

>  <smiles>  (36) 
[H]c1c([H])c([H])c2c(c1[H])C([H])([H])C([H])([H])C([H])([H])C2([H])N([H])C(=O)C1([H])N(C(=O)C([H])(N([H])C(=O)C([H])(N([H])C([H])([H])[H])C([H])([H])[H])C(C([H])([H])[H])(C([H])([H])[H])C([H])([H])[H])C([H])([H])c2c([H])c(OC([H])([H])C([H])([H])[N+]3([H])C([H])([H])C([H])(C([H])([H])[H])C(c4c([H])c(N([H])C(=O)N5C([H])([H])C([H])([H])C([H])([H])C([H])(n6nc(-c7c([H])c([H])c(Oc8c([H])c([H])c(F)c([H])c8F)c([H])c7[H])c(C(=O)N([H])[H])c6N([H])[H])C5([H])[H])nc(C([H])([H])[H])c4[H])(C([H])([H])[H])C3([H])[H])c([H])c([H])c2C1([H])[H]

$$$$
36:0:0
     RDKit          3D

 91100  0  0  1  0  0  0  0  0999 V2000
  -30.5340  -15.4560   20.3250 C   0  0  0  0  0  0  0  0  0  0  0  0
  -30.4750  -12.9810   19.4850 C   0  0  0  0  0  2  0  0  0  0  0  0
  -29.6060  -12.6420   18.2520 C   0  0  0  0  0  2  0  0  0  0  0  0
  -28.1620  -12.3480   18.6870 C   0  0  0  0  0  2  0  0  0  0  0  0
  -27.6530  -13.3670   19.7380 C   0  0  0  0  0  3  0  0  0  0  0  0
  -28.6720  -13.6580   20.8630 C   0  0  0  0  0  2  0  0  0  0  0  0
  -29.8750  -14.1880   20.1890 N   0  0  0  0  0  0  0  0  0  0  0  0
  -31.7630  -15.2580   20.3020 O   0  0  0  0  0  0  0  0  0  0  0  0
  -30.6830  -20.1510   19.7750 C   0  0  0  0  0  3  0  0  0  0  0  0
  -29.3520  -19.8640   20.1150 C   0  0  0  0  0  0  0  0  0  0  0  0
  -31.1400  -21.5060   19.6020 C   0  0  0  0  0  0  0  0  0  0  0  0
  -28.4930  -21.1550   20.1860 C   0  0  0  0  0  0  0  0  0  0  0  0
  -30.2830  -22.6770   19.6160 C   0  0  0  0  0  0  0  0  0  0  0  0
  -28.8920  -22.6390   19.9400 C   0  0  0  0  0  0  0  0  0  0  0  0
  -31.6180  -18.9240   19.6200 C   0  0  0  0  0  3  0  0  0  0  0  0
  -29.0920  -18.1510   20.4070 C   0  0  0  0  0  3  0  0  0  0  0  0
  -30.9550  -17.6170   19.0490 C   0  0  0  0  0  3  0  0  0  0  0  0
  -32.6480  -21.7010   19.4170 C   0  0  0  0  0  1  0  0  0  0  0  0
  -27.0350  -20.9340   20.5330 C   0  0  0  0  0  1  0  0  0  0  0  0
  -30.8720  -24.0340   19.2350 C   0  0  0  0  0  1  0  0  0  0  0  0
  -30.0610  -16.8650   19.9750 N   0  0  0  0  0  0  0  0  0  0  0  0
  -25.2770  -13.9190   20.4560 C   0  0  0  0  0  0  0  0  0  0  0  0
  -24.2060  -13.1430   20.7980 C   0  0  0  0  0  0  0  0  0  0  0  0
  -24.6730  -11.7920   20.7790 C   0  0  0  0  0  0  0  0  0  0  0  0
  -26.3240  -13.0440   20.2340 N   0  0  0  0  0  0  0  0  0  0  0  0
  -25.9730  -11.7570   20.4990 N   0  0  0  0  0  0  0  0  0  0  0  0
  -23.9390  -10.5300   20.9490 C   0  0  0  0  0  0  0  0  0  0  0  0
  -24.3510   -9.5540   21.8820 C   0  0  0  0  0  3  0  0  0  0  0  0
  -23.6130   -8.3620   22.0460 C   0  0  0  0  0  3  0  0  0  0  0  0
  -22.4490   -8.1360   21.2730 C   0  0  0  0  0  0  0  0  0  0  0  0
  -22.0580   -9.1000   20.3270 C   0  0  0  0  0  3  0  0  0  0  0  0
  -22.7950  -10.2830   20.1630 C   0  0  0  0  0  3  0  0  0  0  0  0
  -21.6860   -6.9960   21.3420 O   0  0  0  0  0  0  0  0  0  0  0  0
  -21.6240   -6.2410   22.4860 C   0  0  0  0  0  0  0  0  0  0  0  0
  -21.1780   -6.7810   23.7120 C   0  0  0  0  0  3  0  0  0  0  0  0
  -21.0650   -5.9530   24.8460 C   0  0  0  0  0  3  0  0  0  0  0  0
  -21.3860   -4.5850   24.7560 C   0  0  0  0  0  0  0  0  0  0  0  0
  -21.8240   -4.0440   23.5340 C   0  0  0  0  0  3  0  0  0  0  0  0
  -21.9390   -4.8700   22.4020 C   0  0  0  0  0  0  0  0  0  0  0  0
  -22.3430   -4.3390   21.2230 F   0  0  0  0  0  0  0  0  0  0  0  0
  -21.2690   -3.7870   25.8440 F   0  0  0  0  0  0  0  0  0  0  0  0
  -22.8020  -13.6230   21.0240 C   0  0  0  0  0  0  0  0  0  0  0  0
  -22.0520  -12.9410   21.8810 N   0  0  0  0  0  0  0  0  0  0  0  0
  -22.3810  -14.6410   20.4750 O   0  0  0  0  0  0  0  0  0  0  0  0
  -22.4090  -12.1210   22.3500 H   0  0  0  0  0  0  0  0  0  0  0  0
  -21.1080  -13.2450   22.0740 H   0  0  0  0  0  0  0  0  0  0  0  0
  -25.4410  -15.2910   20.2820 N   0  0  0  0  0  0  0  0  0  0  0  0
  -24.6720  -15.9430   20.3910 H   0  0  0  0  0  0  0  0  0  0  0  0
  -26.2940  -15.7320   19.9650 H   0  0  0  0  0  0  0  0  0  0  0  0
  -27.9300  -24.1460   19.8950 C   0  0  0  0  0  2  0  0  0  0  0  0
  -28.2480  -25.7940   19.9990 O   0  0  0  0  0  0  0  0  0  0  0  0
  -24.7080  -31.7910   23.1160 C   0  0  0  0  0  0  0  0  0  0  0  0
  -27.2610  -26.9380   19.9780 C   0  0  0  0  0  0  0  0  0  0  0  0
  -23.5240  -30.4460   21.4320 C   0  0  0  0  0  3  0  0  0  0  0  0
  -24.9770  -28.8690   19.9760 C   0  0  0  0  0  0  0  0  0  0  0  0
  -26.0960  -30.6370   21.3130 C   0  0  0  0  0  2  0  0  0  0  0  0
  -26.1660  -29.2390   20.6160 C   0  0  0  0  0  0  0  0  0  0  0  0
  -27.3010  -28.2970   20.5920 C   0  0  0  0  0  3  0  0  0  0  0  0
  -26.0400  -26.7400   19.2940 C   0  0  0  0  0  3  0  0  0  0  0  0
  -24.9430  -27.6430   19.2930 C   0  0  0  0  0  3  0  0  0  0  0  0
  -23.7640  -29.7990   20.0400 C   0  0  0  0  0  2  0  0  0  0  0  0
  -24.7990  -30.9860   22.0070 N   0  0  0  0  0  0  0  0  0  0  0  0
  -23.6150  -32.0710   23.6370 O   0  0  0  0  0  0  0  0  0  0  0  0
  -22.8160  -29.4280   22.3660 C   0  0  0  0  0  0  0  0  0  0  0  0
  -21.4830  -29.2850   22.2410 N   0  0  0  0  0  0  0  0  0  0  0  0
  -23.4750  -28.7680   23.1720 O   0  0  0  0  0  0  0  0  0  0  0  0
  -21.0030  -29.8660   21.5670 H   0  0  0  0  0  0  0  0  0  0  0  0
  -18.0820  -28.1170   22.7480 C   0  0  0  0  0  0  0  0  0  0  0  0
  -20.6520  -28.3290   22.9820 C   0  0  0  0  0  3  0  0  0  0  0  0
  -20.7180  -26.9220   22.3450 C   0  0  0  0  0  2  0  0  0  0  0  0
  -19.5970  -26.6620   21.3340 C   0  0  0  0  0  2  0  0  0  0  0  0
  -18.2270  -26.7980   22.0060 C   0  0  0  0  0  2  0  0  0  0  0  0
  -19.2200  -28.8420   23.1920 C   0  0  0  0  0  0  0  0  0  0  0  0
  -19.0290  -30.0760   23.8520 C   0  0  0  0  0  3  0  0  0  0  0  0
  -17.7330  -30.5850   24.0660 C   0  0  0  0  0  3  0  0  0  0  0  0
  -16.6110  -29.8570   23.6360 C   0  0  0  0  0  3  0  0  0  0  0  0
  -16.7860  -28.6240   22.9810 C   0  0  0  0  0  3  0  0  0  0  0  0
  -25.9740  -32.4160   23.7770 C   0  0  0  0  0  3  0  0  0  0  0  0
  -25.6450  -33.7980   24.1730 N   0  0  0  0  0  0  0  0  0  0  0  0
  -25.9400  -34.8930   23.4610 C   0  0  0  0  0  0  0  0  0  0  0  0
  -26.5780  -34.8480   22.4060 O   0  0  0  0  0  0  0  0  0  0  0  0
  -25.0720  -33.9050   24.9960 H   0  0  0  0  0  0  0  0  0  0  0  0
  -24.1650  -36.6710   23.2740 C   0  0  0  0  0  1  0  0  0  0  0  0
  -25.4540  -36.2560   24.0010 C   0  0  0  0  0  3  0  0  0  0  0  0
  -27.6120  -37.1560   24.7560 C   0  0  0  0  0  1  0  0  0  0  0  0
  -26.4600  -37.3340   23.8760 N   0  0  0  0  0  0  0  0  0  0  0  0
  -26.0440  -38.2400   24.0770 H   0  0  0  0  0  0  0  0  0  0  0  0
  -26.4820  -31.6010   25.0320 C   0  0  1  0  0  0  0  0  0  0  0  0
  -25.3800  -31.3260   26.0840 C   0  0  0  0  0  1  0  0  0  0  0  0
  -27.0680  -30.2370   24.6040 C   0  0  0  0  0  1  0  0  0  0  0  0
  -27.6270  -32.3720   25.7280 C   0  0  0  0  0  1  0  0  0  0  0  0
  2  7  1  0
  3  4  1  0
  3  2  1  0
  5  4  1  0
  5 25  1  0
  5  6  1  0
  7  1  1  0
  7  6  1  0
  8  1  2  0
  9 15  1  0
  9 10  1  0
 10 12  1  0
 10 16  2  0
 11 13  2  0
 11  9  1  0
 12 19  1  0
 13 14  1  0
 14 12  2  0
 17 15  2  0
 17 21  1  0
 18 11  1  0
 20 13  1  0
 21  1  1  0
 21 16  1  0
 22 23  2  0
 23 42  1  0
 24 23  1  0
 24 27  1  0
 25 22  1  0
 25 26  1  0
 26 24  2  0
 27 28  1  0
 28 29  2  0
 30 33  1  0
 30 29  1  0
 31 30  2  0
 32 31  1  0
 32 27  2  0
 33 34  1  0
 34 35  1  0
 35 36  2  0
 37 36  1  0
 37 41  1  0
 38 37  2  0
 39 34  2  0
 39 38  1  0
 40 39  1  0
 42 43  1  0
 43 46  1  0
 43 45  1  0
 44 42  2  0
 47 48  1  0
 47 22  1  0
 49 47  1  0
 50 14  1  0
 50 51  1  0
 52 63  2  0
 53 51  1  0
 53 58  1  0
 54 62  1  0
 54 64  1  0
 55 61  1  0
 55 57  1  0
 56 62  1  0
 57 56  1  0
 58 57  2  0
 59 53  2  0
 60 59  1  0
 60 55  2  0
 61 54  1  0
 62 52  1  0
 64 66  2  0
 65 64  1  0
 67 65  1  0
 68 77  2  0
 68 73  1  0
 69 65  1  0
 69 73  1  0
 70 69  1  0
 71 72  1  0
 71 70  1  0
 72 68  1  0
 73 74  2  0
 74 75  1  0
 76 75  2  0
 77 76  1  0
 78 52  1  0
 78 79  1  0
 78 88  1  0
 79 82  1  0
 80 84  1  0
 80 79  1  0
 81 80  2  0
 84 83  1  0
 86 84  1  0
 86 87  1  0
 86 85  1  0
 88 91  1  1
 88 89  1  0
 90 88  1  0
M  ISO  4   1 100  21 100  50 101  51 101
M  END
>  <TORSDO>  (37) 
F 16

>  <SCORE>  (37) 
-15.789

>  <name>  (37) 
36

>  <ligand_id>  (37) 
36

>  <original_smiles>  (37) 
[H]c1c([H])c([H])c2c(c1[H])C([H])([H])C([H])([H])C([H])([H])C2([H])N([H])C(=O)C1([H])N(C(=O)C([H])(N([H])C(=O)C([H])(N([H])C([H])([H])[H])C([H])([H])[H])C(C([H])([H])[H])(C([H])([H])[H])C([H])([H])[H])C([H])([H])c2c([H])c(OC([H])([H])c3c(C([H])([H])[H])c(C([H])([H])[H])c4c(c3C([H])([H])[H])C([H])([H])N(C(=O)N3C([H])([H])C([H])([H])C([H])([H])C([H])(n5nc(-c6c([H])c([H])c(Oc7c([H])c([H])c(F)c([H])c7F)c([H])c6[H])c(C(=O)N([H])[H])c5N([H])[H])C3([H])[H])C([H])([H])C4([H])[H])c([H])c([H])c2C1([H])[H]

>  <smiles>  (37) 
[H]c1c([H])c([H])c2c(c1[H])C([H])([H])C([H])([H])C([H])([H])C2([H])N([H])C(=O)C1([H])N(C(=O)C([H])(N([H])C(=O)C([H])(N([H])C([H])([H])[H])C([H])([H])[H])C(C([H])([H])[H])(C([H])([H])[H])C([H])([H])[H])C([H])([H])c2c([H])c(OC([H])([H])c3c(C([H])([H])[H])c(C([H])([H])[H])c4c(c3C([H])([H])[H])C([H])([H])N(C(=O)N3C([H])([H])C([H])([H])C([H])([H])C([H])(n5nc(-c6c([H])c([H])c(Oc7c([H])c([H])c(F)c([H])c7F)c([H])c6[H])c(C(=O)N([H])[H])c5N([H])[H])C3([H])[H])C([H])([H])C4([H])[H])c([H])c([H])c2C1([H])[H]

$$$$
37:0:0
     RDKit          3D

 95104  0  0  1  0  0  0  0  0999 V2000
  -29.7270  -22.3540   21.2050 C   0  0  0  0  0  0  0  0  0  0  0  0
  -29.2920  -22.3560   18.7960 C   0  0  0  0  0  2  0  0  0  0  0  0
  -29.9580  -20.8110   21.1640 C   0  0  0  0  0  3  0  0  0  0  0  0
  -28.7980  -20.8940   18.9370 C   0  0  0  0  0  3  0  0  0  0  0  0
  -31.4280  -20.5870   21.6030 C   0  0  0  0  0  1  0  0  0  0  0  0
  -28.6660  -20.3070   17.5140 C   0  0  0  0  0  1  0  0  0  0  0  0
  -29.4700  -23.0460   20.0720 N   0  0  0  0  0  0  0  0  0  0  0  0
  -29.6900  -20.1060   19.8580 N   0  0  2  0  0  4  0  0  0  0  0  0
  -29.8170  -22.9270   22.2960 O   0  0  0  0  0  0  0  0  0  0  0  0
  -30.5890  -20.1410   19.4020 H   0  0  0  0  0  0  0  0  0  0  0  0
  -30.6550  -14.5490   20.1780 C   0  0  0  0  0  0  0  0  0  0  0  0
  -30.3360  -12.3940   19.0340 C   0  0  0  0  0  2  0  0  0  0  0  0
  -29.3580  -12.6230   17.8620 C   0  0  0  0  0  2  0  0  0  0  0  0
  -27.8950  -12.4810   18.3340 C   0  0  0  0  0  2  0  0  0  0  0  0
  -27.5960  -13.2800   19.6340 C   0  0  0  0  0  3  0  0  0  0  0  0
  -28.6980  -13.0470   20.6950 C   0  0  0  0  0  2  0  0  0  0  0  0
  -29.9900  -13.3650   20.0790 N   0  0  0  0  0  0  0  0  0  0  0  0
  -31.8330  -14.6670   19.8250 O   0  0  0  0  0  0  0  0  0  0  0  0
  -29.4870  -17.8530   21.2820 C   0  0  0  0  0  2  0  0  0  0  0  0
  -30.2430  -17.8340   18.9290 C   0  0  0  0  0  2  0  0  0  0  0  0
  -29.1500  -16.3300   21.1740 C   0  0  0  0  0  2  0  0  0  0  0  0
  -29.8020  -16.3690   18.7910 C   0  0  0  0  0  2  0  0  0  0  0  0
  -29.3600  -18.6190   19.9220 C   0  0  0  0  0  3  0  0  0  0  0  0
  -29.8480  -15.6410   20.0690 N   0  0  0  0  0  0  0  0  0  0  0  0
  -25.2270  -13.8630   20.4470 C   0  0  0  0  0  0  0  0  0  0  0  0
  -24.1770  -13.0800   20.8390 C   0  0  0  0  0  0  0  0  0  0  0  0
  -24.6400  -11.7330   20.7680 C   0  0  0  0  0  0  0  0  0  0  0  0
  -26.2650  -12.9910   20.1600 N   0  0  0  0  0  0  0  0  0  0  0  0
  -25.9190  -11.7030   20.4140 N   0  0  0  0  0  0  0  0  0  0  0  0
  -23.9230  -10.4660   20.9600 C   0  0  0  0  0  0  0  0  0  0  0  0
  -24.3670   -9.5060   21.8970 C   0  0  0  0  0  3  0  0  0  0  0  0
  -23.6550   -8.3010   22.0770 C   0  0  0  0  0  3  0  0  0  0  0  0
  -22.4850   -8.0470   21.3230 C   0  0  0  0  0  0  0  0  0  0  0  0
  -22.0580   -8.9960   20.3760 C   0  0  0  0  0  3  0  0  0  0  0  0
  -22.7710  -10.1930   20.1940 C   0  0  0  0  0  3  0  0  0  0  0  0
  -21.7400   -6.8950   21.4150 O   0  0  0  0  0  0  0  0  0  0  0  0
  -21.6570   -6.1840   22.5840 C   0  0  0  0  0  0  0  0  0  0  0  0
  -21.1640   -6.7620   23.7740 C   0  0  0  0  0  3  0  0  0  0  0  0
  -21.0330   -5.9770   24.9370 C   0  0  0  0  0  3  0  0  0  0  0  0
  -21.3790   -4.6120   24.9080 C   0  0  0  0  0  0  0  0  0  0  0  0
  -21.8630   -4.0330   23.7220 C   0  0  0  0  0  3  0  0  0  0  0  0
  -21.9990   -4.8160   22.5630 C   0  0  0  0  0  0  0  0  0  0  0  0
  -22.4470   -4.2490   21.4160 F   0  0  0  0  0  0  0  0  0  0  0  0
  -21.2420   -3.8540   26.0210 F   0  0  0  0  0  0  0  0  0  0  0  0
  -22.7880  -13.5490   21.1660 C   0  0  0  0  0  0  0  0  0  0  0  0
  -22.0960  -12.8420   22.0510 N   0  0  0  0  0  0  0  0  0  0  0  0
  -22.3280  -14.5770   20.6720 O   0  0  0  0  0  0  0  0  0  0  0  0
  -22.4840  -12.0110   22.4720 H   0  0  0  0  0  0  0  0  0  0  0  0
  -21.1640  -13.1320   22.3090 H   0  0  0  0  0  0  0  0  0  0  0  0
  -25.3700  -15.2380   20.2860 N   0  0  0  0  0  0  0  0  0  0  0  0
  -24.5760  -15.8570   20.4060 H   0  0  0  0  0  0  0  0  0  0  0  0
  -26.1850  -15.7000   19.9060 H   0  0  0  0  0  0  0  0  0  0  0  0
  -29.5670  -24.5290   19.9990 C   0  0  0  0  0  2  0  0  0  0  0  0
  -28.2090  -25.2680   20.0610 C   0  0  0  0  0  2  0  0  0  0  0  0
  -28.3520  -26.7050   20.1650 O   0  0  0  0  0  0  0  0  0  0  0  0
  -24.6180  -31.9500   23.2840 C   0  0  0  0  0  0  0  0  0  0  0  0
  -27.1890  -27.4620   20.1730 C   0  0  0  0  0  0  0  0  0  0  0  0
  -23.3910  -30.5720   21.6440 C   0  0  0  0  0  3  0  0  0  0  0  0
  -24.8190  -29.0280   20.2060 C   0  0  0  0  0  0  0  0  0  0  0  0
  -25.9250  -30.8940   21.4380 C   0  0  0  0  0  2  0  0  0  0  0  0
  -25.9920  -29.5250   20.7880 C   0  0  0  0  0  0  0  0  0  0  0  0
  -27.1810  -28.7540   20.7620 C   0  0  0  0  0  3  0  0  0  0  0  0
  -25.9860  -26.9880   19.5960 C   0  0  0  0  0  3  0  0  0  0  0  0
  -24.8130  -27.7590   19.6080 C   0  0  0  0  0  3  0  0  0  0  0  0
  -23.5890  -29.9050   20.2570 C   0  0  0  0  0  2  0  0  0  0  0  0
  -24.6640  -31.1520   22.1820 N   0  0  0  0  0  0  0  0  0  0  0  0
  -23.5400  -32.2290   23.8290 O   0  0  0  0  0  0  0  0  0  0  0  0
  -22.7340  -29.5480   22.5980 C   0  0  0  0  0  0  0  0  0  0  0  0
  -21.4100  -29.3640   22.4660 N   0  0  0  0  0  0  0  0  0  0  0  0
  -23.4130  -28.9220   23.4170 O   0  0  0  0  0  0  0  0  0  0  0  0
  -20.9200  -29.9210   21.7800 H   0  0  0  0  0  0  0  0  0  0  0  0
  -18.0340  -28.1740   22.9620 C   0  0  0  0  0  0  0  0  0  0  0  0
  -20.5930  -28.4290   23.2380 C   0  0  0  0  0  3  0  0  0  0  0  0
  -20.6940  -26.9960   22.6650 C   0  0  0  0  0  2  0  0  0  0  0  0
  -19.5940  -26.6730   21.6500 C   0  0  0  0  0  2  0  0  0  0  0  0
  -18.2110  -26.8220   22.2910 C   0  0  0  0  0  2  0  0  0  0  0  0
  -19.1530  -28.9340   23.3950 C   0  0  0  0  0  0  0  0  0  0  0  0
  -18.9360  -30.1980   23.9850 C   0  0  0  0  0  3  0  0  0  0  0  0
  -17.6320  -30.7040   24.1450 C   0  0  0  0  0  3  0  0  0  0  0  0
  -16.5280  -29.9430   23.7260 C   0  0  0  0  0  3  0  0  0  0  0  0
  -16.7280  -28.6800   23.1420 C   0  0  0  0  0  3  0  0  0  0  0  0
  -25.9110  -32.5690   23.8980 C   0  0  0  0  0  3  0  0  0  0  0  0
  -25.6120  -33.9690   24.2320 N   0  0  0  0  0  0  0  0  0  0  0  0
  -25.9210  -35.0180   23.4580 C   0  0  0  0  0  0  0  0  0  0  0  0
  -26.5590  -34.9100   22.4080 O   0  0  0  0  0  0  0  0  0  0  0  0
  -25.0390  -34.1260   25.0490 H   0  0  0  0  0  0  0  0  0  0  0  0
  -24.1740  -36.8020   23.1610 C   0  0  0  0  0  1  0  0  0  0  0  0
  -25.4480  -36.4080   23.9250 C   0  0  0  0  0  3  0  0  0  0  0  0
  -27.6110  -37.3070   24.6630 C   0  0  0  0  0  1  0  0  0  0  0  0
  -26.4730  -37.4630   23.7620 N   0  0  0  0  0  0  0  0  0  0  0  0
  -26.0700  -38.3830   23.9170 H   0  0  0  0  0  0  0  0  0  0  0  0
  -26.4300  -31.7900   25.1680 C   0  0  1  0  0  0  0  0  0  0  0  0
  -25.3390  -31.5530   26.2380 C   0  0  0  0  0  1  0  0  0  0  0  0
  -27.0060  -30.4110   24.7670 C   0  0  0  0  0  1  0  0  0  0  0  0
  -27.5850  -32.5760   25.8290 C   0  0  0  0  0  1  0  0  0  0  0  0
  1  9  2  0
  2  4  1  0
  2  7  1  0
  3  1  1  0
  3  5  1  0
  4  6  1  0
  4  8  1  0
  7  1  1  0
  8 10  1  6
  8 23  1  0
  8  3  1  0
 12 17  1  0
 13 14  1  0
 13 12  1  0
 15 14  1  0
 15 28  1  0
 15 16  1  0
 17 11  1  0
 17 16  1  0
 18 11  2  0
 21 19  1  0
 22 20  1  0
 22 24  1  0
 23 20  1  0
 23 19  1  0
 24 11  1  0
 24 21  1  0
 25 26  2  0
 26 45  1  0
 27 26  1  0
 27 30  1  0
 28 29  1  0
 28 25  1  0
 29 27  2  0
 30 31  1  0
 31 32  2  0
 33 36  1  0
 33 32  1  0
 34 33  2  0
 35 34  1  0
 35 30  2  0
 36 37  1  0
 37 38  1  0
 38 39  2  0
 40 39  1  0
 40 44  1  0
 41 40  2  0
 42 37  2  0
 42 41  1  0
 43 42  1  0
 45 46  1  0
 46 49  1  0
 46 48  1  0
 47 45  2  0
 50 51  1  0
 50 25  1  0
 52 50  1  0
 53 54  1  0
 53  7  1  0
 54 55  1  0
 55 57  1  0
 56 67  2  0
 57 62  1  0
 58 66  1  0
 58 68  1  0
 59 65  1  0
 59 61  1  0
 60 66  1  0
 61 60  1  0
 62 61  2  0
 63 64  1  0
 63 57  2  0
 64 59  2  0
 65 58  1  0
 66 56  1  0
 68 70  2  0
 69 68  1  0
 71 69  1  0
 72 81  2  0
 72 77  1  0
 73 69  1  0
 73 77  1  0
 74 73  1  0
 75 76  1  0
 75 74  1  0
 76 72  1  0
 77 78  2  0
 78 79  1  0
 80 79  2  0
 81 80  1  0
 82 56  1  0
 82 83  1  0
 82 92  1  0
 83 86  1  0
 84 88  1  0
 84 83  1  0
 85 84  2  0
 88 87  1  0
 90 91  1  0
 90 88  1  0
 90 89  1  0
 92 95  1  1
 92 93  1  0
 94 92  1  0
M  ISO  4  11 100  24 100  54 101  55 101
M  END
>  <TORSDO>  (38) 
F 18

>  <SCORE>  (38) 
-14.656

>  <name>  (38) 
37

>  <ligand_id>  (38) 
37

>  <original_smiles>  (38) 
[H]c1c([H])c([H])c2c(c1[H])C([H])([H])C([H])([H])C([H])([H])C2([H])N([H])C(=O)C1([H])N(C(=O)C([H])(N([H])C(=O)C([H])(N([H])C([H])([H])[H])C([H])([H])[H])C(C([H])([H])[H])(C([H])([H])[H])C([H])([H])[H])C([H])([H])c2c([H])c(OC([H])([H])C([H])([H])N3C(=O)C([H])(C([H])([H])[H])[N+]([H])(C4([H])C([H])([H])C([H])([H])N(C(=O)N5C([H])([H])C([H])([H])C([H])([H])C([H])(n6nc(-c7c([H])c([H])c(Oc8c([H])c([H])c(F)c([H])c8F)c([H])c7[H])c(C(=O)N([H])[H])c6N([H])[H])C5([H])[H])C([H])([H])C4([H])[H])C([H])(C([H])([H])[H])C3([H])[H])c([H])c([H])c2C1([H])[H]

>  <smiles>  (38) 
[H]c1c([H])c([H])c2c(c1[H])C([H])([H])C([H])([H])C([H])([H])C2([H])N([H])C(=O)C1([H])N(C(=O)C([H])(N([H])C(=O)C([H])(N([H])C([H])([H])[H])C([H])([H])[H])C(C([H])([H])[H])(C([H])([H])[H])C([H])([H])[H])C([H])([H])c2c([H])c(OC([H])([H])C([H])([H])N3C(=O)C([H])(C([H])([H])[H])[N+]([H])(C4([H])C([H])([H])C([H])([H])N(C(=O)N5C([H])([H])C([H])([H])C([H])([H])C([H])(n6nc(-c7c([H])c([H])c(Oc8c([H])c([H])c(F)c([H])c8F)c([H])c7[H])c(C(=O)N([H])[H])c6N([H])[H])C5([H])[H])C([H])([H])C4([H])[H])C([H])(C([H])([H])[H])C3([H])[H])c([H])c([H])c2C1([H])[H]

$$$$
38:0:0
     RDKit          3D

102104  0  0  1  0  0  0  0  0999 V2000
  -25.0160  -13.8130   21.7810 C   0  0  0  0  0  2  0  0  0  0  0  0
  -26.4150  -15.1530   21.9330 C   0  0  0  0  0  3  0  0  0  0  0  0
  -25.8380  -12.9630   18.9230 C   0  0  0  0  0  3  0  0  0  0  0  0
  -27.6680  -15.2130   20.9400 C   0  0  0  0  0  3  0  0  0  0  0  0
  -27.2780  -13.6560   18.6830 C   0  0  0  0  0  3  0  0  0  0  0  0
  -28.6510  -16.5490   20.8530 C   0  0  0  0  0  2  0  0  0  0  0  0
  -26.7740  -17.0420   21.7980 C   0  0  0  0  0  3  0  0  0  0  0  0
  -25.0810  -12.3740   17.6950 C   0  0  0  0  0  1  0  0  0  0  0  0
  -25.4650  -17.8490   21.8250 C   0  0  0  0  0  1  0  0  0  0  0  0
  -27.9450  -14.5600   19.6480 N   0  0  0  0  0  2  0  0  0  0  0  0
  -27.9680  -17.9210   20.7460 N   0  0  0  0  0  0  0  0  0  0  0  0
  -27.5090  -17.8850   19.8470 H   0  0  0  0  0  0  0  0  0  0  0  0
  -21.6830  -13.4520   20.4590 C   0  0  0  0  0  3  0  0  0  0  0  0
  -22.3280  -11.1630   22.8510 C   0  0  0  0  0 15  0  0  0  0  0  0
  -21.2690  -12.1170   19.1550 C   0  0  0  0  0  2  0  0  0  0  0  0
  -21.5200   -9.7250   21.0660 C   0  0  0  0  0  2  0  0  0  0  0  0
  -22.9810  -13.1530   22.2430 C   0  0  0  0  0  2  0  0  0  0  0  0
  -19.9100   -9.8550   18.8920 C   0  0  0  0  0  1  0  0  0  0  0  0
  -21.1430  -10.4280   19.4740 N   0  0  1  0  0  4  0  0  0  0  0  0
  -21.8700  -10.0340   18.8930 H   0  0  0  0  0  0  0  0  0  0  0  0
  -28.4940  -13.0530   17.9040 C   0  0  0  0  0  2  0  0  0  0  0  0
  -30.6820  -12.1920   19.4310 C   0  0  0  0  0  0  0  0  0  0  0  0
  -30.3000   -9.8710   19.0010 C   0  0  0  0  0  2  0  0  0  0  0  0
  -29.1090   -9.9450   18.0590 C   0  0  0  0  0  2  0  0  0  0  0  0
  -27.8470  -10.1630   18.9170 C   0  0  0  0  0  2  0  0  0  0  0  0
  -27.9780  -11.1410   20.2250 C   0  0  0  0  0  3  0  0  0  0  0  0
  -29.1990  -10.8460   20.9750 C   0  0  0  0  0  2  0  0  0  0  0  0
  -30.2170  -11.0060   19.9070 N   0  0  0  0  0  0  0  0  0  0  0  0
  -31.8810  -12.4330   19.5300 O   0  0  0  0  0  0  0  0  0  0  0  0
  -29.8930  -12.9820   18.5860 N   0  0  0  0  0  0  0  0  0  0  0  0
  -30.4360  -13.7830   18.3020 H   0  0  0  0  0  0  0  0  0  0  0  0
  -25.0100  -13.5670   20.0990 C   0  0  1  0  0  0  0  0  0  0  0  0
  -23.8320  -12.6050   20.0810 C   0  0  0  0  0  2  0  0  0  0  0  0
  -24.3600  -10.8690   20.3380 C   0  0  0  0  0  3  0  0  0  0  0  0
  -26.8180  -11.8460   20.8120 N   0  0  0  0  0  2  0  0  0  0  0  0
  -25.8330  -10.5420   20.7840 N   0  0  0  0  0  2  0  0  0  0  0  0
  -23.7060   -9.6260   20.8850 C   0  0  0  0  0  1  0  0  0  0  0  0
  -24.9190   -8.1690   21.4940 C   0  0  0  0  0  1  0  0  0  0  0  0
  -24.2410   -6.8480   22.6830 C   0  0  0  0  0  2  0  0  0  0  0  0
  -22.4990   -6.8170   23.2860 C   0  0  0  0  0  3  0  0  0  0  0  0
  -21.2580   -8.0120   22.9680 C   0  0  0  0  0  2  0  0  0  0  0  0
  -21.5330   -9.3890   21.9550 C   0  0  0  0  0  2  0  0  0  0  0  0
  -21.7090   -5.7460   23.1080 O   0  0  0  0  0  0  0  0  0  0  0  0
  -21.4930   -5.0600   24.2140 C   0  0  0  0  0  0  0  0  0  0  0  0
  -21.5590   -5.6560   25.4910 C   0  0  0  0  0  3  0  0  0  0  0  0
  -21.6850   -4.8150   26.5930 C   0  0  0  0  0  3  0  0  0  0  0  0
  -21.6890   -3.4250   26.3980 C   0  0  0  0  0  0  0  0  0  0  0  0
  -21.5110   -2.8560   25.1220 C   0  0  0  0  0  3  0  0  0  0  0  0
  -21.3940   -3.6910   24.0110 C   0  0  0  0  0  0  0  0  0  0  0  0
  -21.2600   -3.2000   22.7510 F   0  0  0  0  0  0  0  0  0  0  0  0
  -21.8640   -2.6200   27.4610 F   0  0  0  0  0  0  0  0  0  0  0  0
  -22.8820  -13.6280   20.9440 C   0  0  0  0  0  2  0  0  0  0  0  0
  -22.5330  -13.5890   22.2560 N   0  0  0  0  0  1  0  0  0  0  0  0
  -22.1740  -14.3530   20.3330 O   0  0  0  0  0  0  0  0  0  0  0  0
  -23.0080  -13.0030   22.9190 H   0  0  0  0  0  0  0  0  0  0  0  0
  -21.8340  -14.2380   22.5930 H   0  0  0  0  0 15  0  0  0  0  0  0
  -25.0390  -14.8210   19.5500 N   0  0  0  0  0  0  0  0  0  0  0  0
  -24.3240  -14.9840   18.8530 H   0  0  0  0  0  0  0  0  0  0  0  0
  -25.9800  -14.8780   19.1610 H   0  0  0  0  0  0  0  0  0  0  0  0
  -29.0260  -19.5710   20.5890 C   0  0  0  0  0 15  0  0  0  0  0  0
  -29.7050  -21.2890   19.3860 C   0  0  0  0  0 15  0  0  0  0  0  0
  -31.0690  -22.6250   18.8330 O   0  0  0  0  0  1  0  0  0  0  0  0
  -34.6930  -29.3990   20.5320 C   0  0  0  0  0  0  0  0  0  0  0  0
  -31.3090  -24.2310   18.5730 C   0  0  0  0  0  0  0  0  0  0  0  0
  -32.2550  -29.1490   20.4840 C   0  0  0  0  0  3  0  0  0  0  0  0
  -31.2370  -27.2910   18.9520 C   0  0  0  0  0  0  0  0  0  0  0  0
  -33.6310  -27.8430   18.7400 C   0  0  0  0  0  2  0  0  0  0  0  0
  -32.4810  -26.7320   18.6630 C   0  0  0  0  0  0  0  0  0  0  0  0
  -32.5050  -25.2280   18.4380 C   0  0  0  0  0  3  0  0  0  0  0  0
  -30.1670  -25.0650   18.5270 C   0  0  0  0  0  3  0  0  0  0  0  0
  -30.1130  -26.4730   18.7660 C   0  0  0  0  0  3  0  0  0  0  0  0
  -31.1280  -28.7290   19.4920 C   0  0  0  0  0  2  0  0  0  0  0  0
  -33.5990  -28.8170   19.9190 N   0  0  0  0  0  0  0  0  0  0  0  0
  -34.5750  -30.1190   21.5400 O   0  0  0  0  0  0  0  0  0  0  0  0
  -32.0330  -28.4950   21.8770 C   0  0  0  0  0  0  0  0  0  0  0  0
  -31.2650  -29.1450   22.7730 N   0  0  0  0  0  0  0  0  0  0  0  0
  -32.5490  -27.4030   22.1310 O   0  0  0  0  0  0  0  0  0  0  0  0
  -30.8910  -30.0480   22.5170 H   0  0  0  0  0  0  0  0  0  0  0  0
  -29.5190  -29.9390   25.8580 C   0  0  0  0  0  0  0  0  0  0  0  0
  -30.8970  -28.6330   24.1000 C   0  0  0  0  0  3  0  0  0  0  0  0
  -29.6760  -27.6850   24.0080 C   0  0  0  0  0  2  0  0  0  0  0  0
  -28.3410  -28.4020   24.2310 C   0  0  0  0  0  2  0  0  0  0  0  0
  -28.3070  -29.0560   25.6140 C   0  0  0  0  0  2  0  0  0  0  0  0
  -30.7300  -29.7510   25.1370 C   0  0  0  0  0  0  0  0  0  0  0  0
  -31.8140  -30.6200   25.3870 C   0  0  0  0  0  3  0  0  0  0  0  0
  -31.7030  -31.6590   26.3310 C   0  0  0  0  0  3  0  0  0  0  0  0
  -30.5060  -31.8330   27.0470 C   0  0  0  0  0  3  0  0  0  0  0  0
  -29.4200  -30.9710   26.8140 C   0  0  0  0  0  3  0  0  0  0  0  0
  -36.1430  -29.2050   19.9990 C   0  0  0  0  0  3  0  0  0  0  0  0
  -36.9370  -28.0730   20.7650 C   0  0  1  0  0  0  0  0  0  0  0  0
  -36.9530  -28.2520   22.3010 C   0  0  0  0  0  1  0  0  0  0  0  0
  -36.3490  -26.6760   20.4720 C   0  0  0  0  0  1  0  0  0  0  0  0
  -38.4040  -28.0370   20.2720 C   0  0  0  0  0  1  0  0  0  0  0  0
  -36.8670  -30.4890   20.1370 N   0  0  0  0  0  0  0  0  0  0  0  0
  -37.1080  -31.3610   19.1470 C   0  0  0  0  0  0  0  0  0  0  0  0
  -36.7740  -31.1440   17.9810 O   0  0  0  0  0  0  0  0  0  0  0  0
  -37.1190  -30.7590   21.0760 H   0  0  0  0  0  0  0  0  0  0  0  0
  -36.8180  -33.8250   19.6080 C   0  0  0  0  0  1  0  0  0  0  0  0
  -37.8370  -32.6770   19.5010 C   0  0  0  0  0  3  0  0  0  0  0  0
  -40.0460  -32.1560   18.5600 C   0  0  0  0  0  1  0  0  0  0  0  0
  -38.8920  -33.0510   18.5340 N   0  0  0  0  0  0  0  0  0  0  0  0
  -39.2210  -33.9970   18.7070 H   0  0  0  0  0  0  0  0  0  0  0  0
  2  1  1  0
  3  8  1  0
  3 32  1  0
  4  6  1  0
  4  2  1  0
  5 21  1  0
  5  3  1  0
  5 10  1  0
  7  9  1  0
  7  2  1  0
 10  4  1  0
 11  6  1  0
 11  7  1  0
 12 11  1  0
 13 15  1  0
 13 52  1  0
 15 19  1  0
 16 42  1  0
 17 53  1  0
 17 55  1  0
 18 19  1  0
 19 16  1  0
 19 20  1  6
 21 30  1  0
 22 29  2  0
 22 28  1  0
 23 28  1  0
 24 25  1  0
 24 23  1  0
 26 25  1  0
 26 35  1  0
 26 27  1  0
 28 27  1  0
 30 22  1  0
 31 30  1  0
 32 57  1  6
 32  1  1  0
 33 32  1  0
 33 34  1  0
 34 36  1  0
 34 37  1  0
 36 35  1  0
 38 39  1  0
 40 39  1  0
 41 40  1  0
 42 41  1  0
 43 40  1  0
 43 44  1  0
 44 45  1  0
 45 46  2  0
 47 46  1  0
 47 51  1  0
 48 47  2  0
 49 44  2  0
 49 48  1  0
 50 49  1  0
 54 13  1  0
 54 52  1  0
 58 57  1  0
 59 57  1  0
 63 74  2  0
 64 62  1  0
 65 75  1  0
 66 72  1  0
 67 73  1  0
 68 67  1  0
 68 66  2  0
 69 64  2  0
 69 68  1  0
 70 64  1  0
 70 71  2  0
 71 66  1  0
 72 65  1  0
 73 65  1  0
 73 63  1  0
 75 77  2  0
 75 76  1  0
 78 76  1  0
 79 88  1  0
 80 76  1  0
 80 84  1  0
 81 80  1  0
 81 82  1  0
 82 83  1  0
 83 79  1  0
 84 85  1  0
 84 79  2  0
 85 86  2  0
 86 87  1  0
 88 87  2  0
 89 94  1  0
 89 63  1  0
 89 90  1  0
 90 91  1  1
 92 90  1  0
 93 90  1  0
 94 97  1  0
 95 99  1  0
 95 94  1  0
 96 95  2  0
 99 98  1  0
101100  1  0
101102  1  0
101 99  1  0
M  ISO  4  22 100  30 100  61 101  62 101
M  END
>  <TORSDO>  (39) 
F 20

>  <SCORE>  (39) 
28.505

>  <name>  (39) 
38

>  <ligand_id>  (39) 
38

>  <original_smiles>  (39) 
[H]c1c([H])c([H])c2c(c1[H])C([H])([H])C([H])([H])C([H])([H])C2([H])N([H])C(=O)C1([H])N(C(=O)C([H])(N([H])C(=O)C([H])(N([H])C([H])([H])[H])C([H])([H])[H])C(C([H])([H])[H])(C([H])([H])[H])C([H])([H])[H])C([H])([H])c2c([H])c(OC([H])([H])C([H])([H])[N+]3([H])C([H])([H])c4nc(C([H])([H])N([H])C(=O)N5C([H])([H])C([H])([H])C([H])([H])C([H])(n6nc(-c7c([H])c([H])c(Oc8c([H])c([H])c(F)c([H])c8F)c([H])c7[H])c(C(=O)N([H])[H])c6N([H])[H])C5([H])[H])c(C([H])([H])[H])c(C5([H])C([H])([H])C([H])([H])[N+]([H])(C([H])([H])[H])C([H])([H])C5([H])[H])c4C3([H])C([H])([H])[H])c([H])c([H])c2C1([H])[H]

>  <smiles>  (39) 
[H]c1c([H])c([H])c2c(c1[H])C([H])([H])C([H])([H])C([H])([H])C2([H])N([H])C(=O)C1([H])N(C(=O)C([H])(N([H])C(=O)C([H])(N([H])C([H])([H])[H])C([H])([H])[H])C(C([H])([H])[H])(C([H])([H])[H])C([H])([H])[H])C([H])([H])c2c([H])c(OC([H])([H])C([H])([H])[N+]3([H])C([H])([H])c4nc(C([H])([H])N([H])C(=O)N5C([H])([H])C([H])([H])C([H])([H])C([H])(n6nc(-c7c([H])c([H])c(Oc8c([H])c([H])c(F)c([H])c8F)c([H])c7[H])c(C(=O)N([H])[H])c6N([H])[H])C5([H])[H])c(C([H])([H])[H])c(C5([H])C([H])([H])C([H])([H])[N+]([H])(C([H])([H])[H])C([H])([H])C5([H])[H])c4C3([H])C([H])([H])[H])c([H])c([H])c2C1([H])[H]

$$$$
39:0:0
     RDKit          3D

 93102  0  0  1  0  0  0  0  0999 V2000
  -29.9380  -21.9420   20.5130 C   0  0  0  0  0  3  0  0  0  0  0  0
  -29.9650  -20.4860   18.5960 C   0  0  0  0  0  3  0  0  0  0  0  0
  -29.7220  -23.0430   19.6360 C   0  0  0  0  0  0  0  0  0  0  0  0
  -30.0870  -20.6210   19.9990 C   0  0  0  0  0  0  0  0  0  0  0  0
  -29.6760  -22.7640   18.2480 C   0  0  0  0  0  0  0  0  0  0  0  0
  -29.5500  -23.8370   17.1800 C   0  0  0  0  0  1  0  0  0  0  0  0
  -29.7700  -21.5160   17.7520 N   0  0  0  0  0  0  0  0  0  0  0  0
  -30.3630  -19.5140   20.8500 N   0  0  0  0  0  0  0  0  0  0  0  0
  -30.3880  -19.6660   21.8550 H   0  0  0  0  0  0  0  0  0  0  0  0
  -30.6920  -14.5970   20.4520 C   0  0  0  0  0  0  0  0  0  0  0  0
  -30.3690  -12.3950   19.3590 C   0  0  0  0  0  2  0  0  0  0  0  0
  -29.4280  -12.5190   18.1440 C   0  0  0  0  0  2  0  0  0  0  0  0
  -27.9640  -12.3260   18.5810 C   0  0  0  0  0  2  0  0  0  0  0  0
  -27.5940  -13.2070   19.7980 C   0  0  0  0  0  3  0  0  0  0  0  0
  -28.6630  -13.1160   20.9200 C   0  0  0  0  0  2  0  0  0  0  0  0
  -29.9750  -13.4320   20.3340 N   0  0  0  0  0  0  0  0  0  0  0  0
  -31.8720  -14.6450   20.0980 O   0  0  0  0  0  0  0  0  0  0  0  0
  -28.7450  -17.7260   20.2960 C   0  0  0  0  0  2  0  0  0  0  0  0
  -28.8010  -16.2020   20.2650 C   0  0  0  0  0  2  0  0  0  0  0  0
  -30.7930  -16.9920   21.2320 C   0  0  0  0  0  2  0  0  0  0  0  0
  -30.2020  -18.1310   20.3650 C   0  0  0  0  0  3  0  0  0  0  0  0
  -30.0630  -15.7490   20.8630 N   0  0  0  0  0  0  0  0  0  0  0  0
  -25.2070  -13.8370   20.5160 C   0  0  0  0  0  0  0  0  0  0  0  0
  -24.1400  -13.0700   20.8910 C   0  0  0  0  0  0  0  0  0  0  0  0
  -24.6020  -11.7180   20.8730 C   0  0  0  0  0  0  0  0  0  0  0  0
  -26.2500  -12.9470   20.2930 N   0  0  0  0  0  0  0  0  0  0  0  0
  -25.8920  -11.6720   20.5710 N   0  0  0  0  0  0  0  0  0  0  0  0
  -23.8790  -10.4590   21.0640 C   0  0  0  0  0  0  0  0  0  0  0  0
  -24.3210   -9.4890   21.9910 C   0  0  0  0  0  3  0  0  0  0  0  0
  -23.6000   -8.2920   22.1690 C   0  0  0  0  0  3  0  0  0  0  0  0
  -22.4210   -8.0550   21.4220 C   0  0  0  0  0  0  0  0  0  0  0  0
  -21.9990   -9.0130   20.4830 C   0  0  0  0  0  3  0  0  0  0  0  0
  -22.7220  -10.2040   20.3030 C   0  0  0  0  0  3  0  0  0  0  0  0
  -21.6680   -6.9110   21.5120 O   0  0  0  0  0  0  0  0  0  0  0  0
  -21.6390   -6.1590   22.6580 C   0  0  0  0  0  0  0  0  0  0  0  0
  -21.2380   -6.7040   23.8970 C   0  0  0  0  0  3  0  0  0  0  0  0
  -21.1560   -5.8790   25.0370 C   0  0  0  0  0  3  0  0  0  0  0  0
  -21.4660   -4.5090   24.9370 C   0  0  0  0  0  0  0  0  0  0  0  0
  -21.8610   -3.9640   23.7030 C   0  0  0  0  0  3  0  0  0  0  0  0
  -21.9450   -4.7860   22.5670 C   0  0  0  0  0  0  0  0  0  0  0  0
  -22.3060   -4.2520   21.3750 F   0  0  0  0  0  0  0  0  0  0  0  0
  -21.3780   -3.7140   26.0290 F   0  0  0  0  0  0  0  0  0  0  0  0
  -22.7430  -13.5500   21.1520 C   0  0  0  0  0  0  0  0  0  0  0  0
  -22.0090  -12.8590   22.0180 N   0  0  0  0  0  0  0  0  0  0  0  0
  -22.3080  -14.5720   20.6240 O   0  0  0  0  0  0  0  0  0  0  0  0
  -22.3730  -12.0310   22.4680 H   0  0  0  0  0  0  0  0  0  0  0  0
  -21.0710  -13.1630   22.2360 H   0  0  0  0  0  0  0  0  0  0  0  0
  -25.3630  -15.2050   20.3210 N   0  0  0  0  0  0  0  0  0  0  0  0
  -24.5870  -15.8500   20.4210 H   0  0  0  0  0  0  0  0  0  0  0  0
  -26.2020  -15.6480   19.9690 H   0  0  0  0  0  0  0  0  0  0  0  0
  -29.6380  -24.4950   20.1710 C   0  0  0  0  0  2  0  0  0  0  0  0
  -28.2980  -25.2520   19.9250 C   0  0  0  0  0  2  0  0  0  0  0  0
  -28.3790  -26.6670   20.2140 O   0  0  0  0  0  0  0  0  0  0  0  0
  -24.5870  -31.8890   23.2630 C   0  0  0  0  0  0  0  0  0  0  0  0
  -27.2060  -27.4110   20.1820 C   0  0  0  0  0  0  0  0  0  0  0  0
  -23.3720  -30.4940   21.6240 C   0  0  0  0  0  3  0  0  0  0  0  0
  -24.8170  -28.9510   20.1940 C   0  0  0  0  0  0  0  0  0  0  0  0
  -25.9020  -30.8360   21.4230 C   0  0  0  0  0  2  0  0  0  0  0  0
  -25.9810  -29.4630   20.7800 C   0  0  0  0  0  0  0  0  0  0  0  0
  -27.1760  -28.7030   20.7680 C   0  0  0  0  0  3  0  0  0  0  0  0
  -26.0160  -26.9230   19.5890 C   0  0  0  0  0  3  0  0  0  0  0  0
  -24.8320  -27.6830   19.5950 C   0  0  0  0  0  3  0  0  0  0  0  0
  -23.5770  -29.8160   20.2430 C   0  0  0  0  0  2  0  0  0  0  0  0
  -24.6380  -31.0880   22.1610 N   0  0  0  0  0  0  0  0  0  0  0  0
  -23.5070  -32.1650   23.8050 O   0  0  0  0  0  0  0  0  0  0  0  0
  -22.7170  -29.4750   22.5840 C   0  0  0  0  0  0  0  0  0  0  0  0
  -21.3920  -29.2960   22.4560 N   0  0  0  0  0  0  0  0  0  0  0  0
  -23.3990  -28.8490   23.4000 O   0  0  0  0  0  0  0  0  0  0  0  0
  -20.9040  -29.8520   21.7680 H   0  0  0  0  0  0  0  0  0  0  0  0
  -18.0170  -28.1020   22.9440 C   0  0  0  0  0  0  0  0  0  0  0  0
  -20.5730  -28.3600   23.2260 C   0  0  0  0  0  3  0  0  0  0  0  0
  -20.6780  -26.9270   22.6540 C   0  0  0  0  0  2  0  0  0  0  0  0
  -19.5800  -26.6020   21.6360 C   0  0  0  0  0  2  0  0  0  0  0  0
  -18.1960  -26.7490   22.2740 C   0  0  0  0  0  2  0  0  0  0  0  0
  -19.1340  -28.8650   23.3770 C   0  0  0  0  0  0  0  0  0  0  0  0
  -18.9120  -30.1310   23.9620 C   0  0  0  0  0  3  0  0  0  0  0  0
  -17.6070  -30.6330   24.1190 C   0  0  0  0  0  3  0  0  0  0  0  0
  -16.5050  -29.8670   23.7040 C   0  0  0  0  0  3  0  0  0  0  0  0
  -16.7100  -28.6030   23.1220 C   0  0  0  0  0  3  0  0  0  0  0  0
  -25.8750  -32.5150   23.8810 C   0  0  0  0  0  3  0  0  0  0  0  0
  -26.3980  -31.7350   25.1500 C   0  0  1  0  0  0  0  0  0  0  0  0
  -25.3100  -31.4930   26.2230 C   0  0  0  0  0  1  0  0  0  0  0  0
  -26.9760  -30.3590   24.7450 C   0  0  0  0  0  1  0  0  0  0  0  0
  -27.5530  -32.5230   25.8100 C   0  0  0  0  0  1  0  0  0  0  0  0
  -25.5710  -33.9120   24.2200 N   0  0  0  0  0  0  0  0  0  0  0  0
  -25.8990  -34.9660   23.4600 C   0  0  0  0  0  0  0  0  0  0  0  0
  -26.5610  -34.8660   22.4240 O   0  0  0  0  0  0  0  0  0  0  0  0
  -24.9830  -34.0650   25.0250 H   0  0  0  0  0  0  0  0  0  0  0  0
  -24.1690  -36.7600   23.1240 C   0  0  0  0  0  1  0  0  0  0  0  0
  -25.4160  -36.3530   23.9260 C   0  0  0  0  0  3  0  0  0  0  0  0
  -27.5570  -37.2330   24.7420 C   0  0  0  0  0  1  0  0  0  0  0  0
  -26.4480  -37.4060   23.8080 N   0  0  0  0  0  0  0  0  0  0  0  0
  -26.0440  -38.3260   23.9620 H   0  0  0  0  0  0  0  0  0  0  0  0
  2  4  2  0
  3 51  1  0
  3  1  2  0
  4  1  1  0
  4  8  1  0
  5  3  1  0
  6  5  1  0
  7  5  2  0
  7  2  1  0
  8  9  1  0
 10 22  1  0
 11 16  1  0
 12 13  1  0
 12 11  1  0
 14 13  1  0
 14 26  1  0
 14 15  1  0
 16 10  1  0
 16 15  1  0
 17 10  2  0
 18 21  1  0
 19 18  1  0
 19 22  1  0
 21  8  1  0
 21 20  1  0
 22 20  1  0
 23 24  2  0
 24 43  1  0
 25 24  1  0
 25 28  1  0
 26 23  1  0
 26 27  1  0
 27 25  2  0
 28 29  1  0
 29 30  2  0
 31 34  1  0
 31 30  1  0
 32 31  2  0
 33 32  1  0
 33 28  2  0
 34 35  1  0
 35 36  1  0
 36 37  2  0
 38 37  1  0
 38 42  1  0
 39 38  2  0
 40 35  2  0
 40 39  1  0
 41 40  1  0
 43 44  1  0
 44 47  1  0
 44 46  1  0
 45 43  2  0
 48 49  1  0
 48 23  1  0
 50 48  1  0
 52 51  1  0
 52 53  1  0
 54 65  2  0
 55 53  1  0
 55 60  1  0
 56 64  1  0
 56 66  1  0
 57 63  1  0
 57 59  1  0
 58 64  1  0
 59 58  1  0
 60 59  2  0
 61 62  1  0
 61 55  2  0
 62 57  2  0
 63 56  1  0
 64 54  1  0
 66 68  2  0
 67 66  1  0
 69 67  1  0
 70 79  2  0
 70 75  1  0
 71 67  1  0
 71 75  1  0
 72 71  1  0
 73 74  1  0
 73 72  1  0
 74 70  1  0
 75 76  2  0
 76 77  1  0
 78 77  2  0
 79 78  1  0
 80 54  1  0
 80 85  1  0
 80 81  1  0
 81 84  1  1
 81 82  1  0
 83 81  1  0
 85 88  1  0
 86 90  1  0
 86 85  1  0
 87 86  2  0
 90 89  1  0
 92 90  1  0
 92 93  1  0
 92 91  1  0
M  ISO  4  10 100  22 100  52 101  53 101
M  END
>  <TORSDO>  (40) 
F 19

>  <SCORE>  (40) 
-14.478

>  <name>  (40) 
39

>  <ligand_id>  (40) 
39

>  <original_smiles>  (40) 
[H]c1nc(C([H])([H])[H])c(C([H])([H])C([H])([H])Oc2c([H])c([H])c3c(c2[H])C([H])([H])N(C(=O)C([H])(N([H])C(=O)C([H])(N([H])C([H])([H])[H])C([H])([H])[H])C(C([H])([H])[H])(C([H])([H])[H])C([H])([H])[H])C([H])(C(=O)N([H])C2([H])c4c([H])c([H])c([H])c([H])c4C([H])([H])C([H])([H])C2([H])[H])C3([H])[H])c([H])c1N([H])C1([H])C([H])([H])N(C(=O)N2C([H])([H])C([H])([H])C([H])([H])C([H])(n3nc(-c4c([H])c([H])c(Oc5c([H])c([H])c(F)c([H])c5F)c([H])c4[H])c(C(=O)N([H])[H])c3N([H])[H])C2([H])[H])C([H])([H])C1([H])[H]

>  <smiles>  (40) 
[H]c1nc(C([H])([H])[H])c(C([H])([H])C([H])([H])Oc2c([H])c([H])c3c(c2[H])C([H])([H])N(C(=O)C([H])(N([H])C(=O)C([H])(N([H])C([H])([H])[H])C([H])([H])[H])C(C([H])([H])[H])(C([H])([H])[H])C([H])([H])[H])C([H])(C(=O)N([H])C2([H])c4c([H])c([H])c([H])c([H])c4C([H])([H])C([H])([H])C2([H])[H])C3([H])[H])c([H])c1N([H])C1([H])C([H])([H])N(C(=O)N2C([H])([H])C([H])([H])C([H])([H])C([H])(n3nc(-c4c([H])c([H])c(Oc5c([H])c([H])c(F)c([H])c5F)c([H])c4[H])c(C(=O)N([H])[H])c3N([H])[H])C2([H])[H])C([H])([H])C1([H])[H]

$$$$
40:0:0
     RDKit          3D

 98109  0  0  1  0  0  0  0  0999 V2000
  -31.0170  -22.4300   19.6080 C   0  0  0  0  0  0  0  0  0  0  0  0
  -31.1950  -23.7080   20.2070 C   0  0  0  0  0  0  0  0  0  0  0  0
  -29.6790  -22.0510   19.6750 C   0  0  0  0  0  0  0  0  0  0  0  0
  -29.9930  -24.0650   20.7210 C   0  0  0  0  0  0  0  0  0  0  0  0
  -29.0690  -23.4860   19.8480 N   0  0  0  0  0  0  0  0  0  0  0  0
  -30.4990  -15.4250   19.7150 C   0  0  0  0  0  0  0  0  0  0  0  0
  -30.3720  -12.9660   18.9320 C   0  0  0  0  0  2  0  0  0  0  0  0
  -29.3780  -12.7230   17.7730 C   0  0  0  0  0  2  0  0  0  0  0  0
  -27.9630  -12.4720   18.3210 C   0  0  0  0  0  2  0  0  0  0  0  0
  -27.5850  -13.4700   19.4450 C   0  0  0  0  0  3  0  0  0  0  0  0
  -28.7080  -13.6820   20.4830 C   0  0  0  0  0  2  0  0  0  0  0  0
  -29.8820  -14.1480   19.7320 N   0  0  0  0  0  0  0  0  0  0  0  0
  -31.7030  -15.3550   19.4300 O   0  0  0  0  0  0  0  0  0  0  0  0
  -28.7250  -19.2390   20.5660 C   0  0  0  0  0  3  0  0  0  0  0  0
  -29.6640  -19.3280   18.3800 C   0  0  0  0  0  3  0  0  0  0  0  0
  -29.3130  -17.6670   20.7360 C   0  0  0  0  0  2  0  0  0  0  0  0
  -30.2960  -17.8010   18.5860 C   0  0  0  0  0  3  0  0  0  0  0  0
  -29.4480  -20.3190   19.6160 C   0  0  0  0  0  0  0  0  0  0  0  0
  -29.8210  -16.7470   19.6040 N   0  0  0  0  0  0  0  0  0  0  0  0
  -25.3000  -14.0320   20.4140 C   0  0  0  0  0  0  0  0  0  0  0  0
  -24.2560  -13.2530   20.8370 C   0  0  0  0  0  0  0  0  0  0  0  0
  -24.6990  -11.9000   20.7210 C   0  0  0  0  0  0  0  0  0  0  0  0
  -26.3040  -13.1520   20.0570 N   0  0  0  0  0  0  0  0  0  0  0  0
  -25.9620  -11.8610   20.3100 N   0  0  0  0  0  0  0  0  0  0  0  0
  -23.9690  -10.6390   20.9210 C   0  0  0  0  0  0  0  0  0  0  0  0
  -24.4110   -9.6650   21.8430 C   0  0  0  0  0  3  0  0  0  0  0  0
  -23.6800   -8.4720   22.0340 C   0  0  0  0  0  3  0  0  0  0  0  0
  -22.4890   -8.2460   21.3010 C   0  0  0  0  0  0  0  0  0  0  0  0
  -22.0640   -9.2080   20.3670 C   0  0  0  0  0  3  0  0  0  0  0  0
  -22.7980  -10.3920   20.1760 C   0  0  0  0  0  3  0  0  0  0  0  0
  -21.7280   -7.1060   21.4010 O   0  0  0  0  0  0  0  0  0  0  0  0
  -21.6290   -6.4080   22.5760 C   0  0  0  0  0  0  0  0  0  0  0  0
  -21.0950   -6.9920   23.7470 C   0  0  0  0  0  3  0  0  0  0  0  0
  -20.9470   -6.2180   24.9150 C   0  0  0  0  0  3  0  0  0  0  0  0
  -21.3210   -4.8600   24.9130 C   0  0  0  0  0  0  0  0  0  0  0  0
  -21.8470   -4.2760   23.7480 C   0  0  0  0  0  3  0  0  0  0  0  0
  -21.9960   -5.0480   22.5820 C   0  0  0  0  0  0  0  0  0  0  0  0
  -22.4830   -4.4740   21.4550 F   0  0  0  0  0  0  0  0  0  0  0  0
  -21.1700   -4.1140   26.0330 F   0  0  0  0  0  0  0  0  0  0  0  0
  -22.8910  -13.7370   21.2270 C   0  0  0  0  0  0  0  0  0  0  0  0
  -22.2250  -13.0280   22.1300 N   0  0  0  0  0  0  0  0  0  0  0  0
  -22.4280  -14.7800   20.7660 O   0  0  0  0  0  0  0  0  0  0  0  0
  -22.6170  -12.1850   22.5220 H   0  0  0  0  0  0  0  0  0  0  0  0
  -21.3130  -13.3330   22.4360 H   0  0  0  0  0  0  0  0  0  0  0  0
  -25.4720  -15.4050   20.2730 N   0  0  0  0  0  0  0  0  0  0  0  0
  -24.7380  -16.0720   20.4770 H   0  0  0  0  0  0  0  0  0  0  0  0
  -26.3130  -15.8400   19.9110 H   0  0  0  0  0  0  0  0  0  0  0  0
  -32.7670  -20.3900   19.7760 C   0  0  0  0  0  2  0  0  0  0  0  0
  -33.5860  -21.6350   19.6400 C   0  0  0  0  0  2  0  0  0  0  0  0
  -32.1790  -21.5950   19.0630 C   0  0  0  0  0  3  0  0  0  0  0  0
  -32.6310  -25.9160   19.9840 C   0  0  0  0  0  2  0  0  0  0  0  0
  -33.3790  -24.8430   19.2430 C   0  0  0  0  0  2  0  0  0  0  0  0
  -32.4900  -24.4700   20.4150 C   0  0  0  0  0  3  0  0  0  0  0  0
  -28.3490  -24.4830   22.6380 C   0  0  0  0  0  1  0  0  0  0  0  0
  -29.8610  -26.4090   21.9230 C   0  0  0  0  0  1  0  0  0  0  0  0
  -29.6730  -24.8830   21.9630 C   0  0  0  0  0  3  0  0  0  0  0  0
  -27.9050  -24.5320   19.3760 C   0  0  0  0  0  2  0  0  0  0  0  0
  -28.1250  -26.1130   19.5090 O   0  0  0  0  0  0  0  0  0  0  0  0
  -24.5030  -31.6800   23.0180 C   0  0  0  0  0  0  0  0  0  0  0  0
  -27.0630  -27.1400   19.5660 C   0  0  0  0  0  0  0  0  0  0  0  0
  -23.2840  -30.3720   21.3240 C   0  0  0  0  0  3  0  0  0  0  0  0
  -24.7170  -28.9200   19.7390 C   0  0  0  0  0  0  0  0  0  0  0  0
  -25.8330  -30.6790   21.0990 C   0  0  0  0  0  2  0  0  0  0  0  0
  -25.9140  -29.3260   20.3420 C   0  0  0  0  0  0  0  0  0  0  0  0
  -27.0830  -28.4580   20.2290 C   0  0  0  0  0  3  0  0  0  0  0  0
  -25.8320  -26.8730   18.9310 C   0  0  0  0  0  3  0  0  0  0  0  0
  -24.6960  -27.7180   19.0150 C   0  0  0  0  0  3  0  0  0  0  0  0
  -23.4770  -29.7980   19.8940 C   0  0  0  0  0  2  0  0  0  0  0  0
  -24.5620  -30.9330   21.8690 N   0  0  0  0  0  0  0  0  0  0  0  0
  -23.4260  -31.8990   23.5970 O   0  0  0  0  0  0  0  0  0  0  0  0
  -22.6560  -29.2870   22.2380 C   0  0  0  0  0  0  0  0  0  0  0  0
  -21.3310  -29.0760   22.1290 N   0  0  0  0  0  0  0  0  0  0  0  0
  -23.3670  -28.6400   23.0110 O   0  0  0  0  0  0  0  0  0  0  0  0
  -20.8090  -29.6560   21.4860 H   0  0  0  0  0  0  0  0  0  0  0  0
  -18.0100  -27.7120   22.6350 C   0  0  0  0  0  0  0  0  0  0  0  0
  -20.5640  -28.0590   22.8560 C   0  0  0  0  0  3  0  0  0  0  0  0
  -20.7030  -26.6720   22.1850 C   0  0  0  0  0  2  0  0  0  0  0  0
  -19.5870  -26.3740   21.1770 C   0  0  0  0  0  2  0  0  0  0  0  0
  -18.2200  -26.4200   21.8640 C   0  0  0  0  0  2  0  0  0  0  0  0
  -19.1100  -28.4890   23.0880 C   0  0  0  0  0  0  0  0  0  0  0  0
  -18.8570  -29.6960   23.7750 C   0  0  0  0  0  3  0  0  0  0  0  0
  -17.5380  -30.1290   24.0090 C   0  0  0  0  0  3  0  0  0  0  0  0
  -16.4540  -29.3500   23.5710 C   0  0  0  0  0  3  0  0  0  0  0  0
  -16.6910  -28.1420   22.8910 C   0  0  0  0  0  3  0  0  0  0  0  0
  -25.7790  -32.3110   23.6520 C   0  0  0  0  0  3  0  0  0  0  0  0
  -26.3090  -31.5090   24.9040 C   0  0  1  0  0  0  0  0  0  0  0  0
  -25.2250  -31.2380   25.9750 C   0  0  0  0  0  1  0  0  0  0  0  0
  -26.8940  -30.1430   24.4760 C   0  0  0  0  0  1  0  0  0  0  0  0
  -27.4600  -32.2900   25.5790 C   0  0  0  0  0  1  0  0  0  0  0  0
  -25.4560  -33.6970   24.0360 N   0  0  0  0  0  0  0  0  0  0  0  0
  -25.7770  -34.7850   23.3250 C   0  0  0  0  0  0  0  0  0  0  0  0
  -26.4400  -34.7280   22.2860 O   0  0  0  0  0  0  0  0  0  0  0  0
  -24.8640  -33.8130   24.8460 H   0  0  0  0  0  0  0  0  0  0  0  0
  -24.0430  -36.5910   23.0620 C   0  0  0  0  0  1  0  0  0  0  0  0
  -25.2900  -36.1520   23.8470 C   0  0  0  0  0  3  0  0  0  0  0  0
  -27.4190  -37.0190   24.7150 C   0  0  0  0  0  1  0  0  0  0  0  0
  -26.3190  -37.2140   23.7740 N   0  0  0  0  0  0  0  0  0  0  0  0
  -25.9070  -38.1260   23.9500 H   0  0  0  0  0  0  0  0  0  0  0  0
  1  3  2  0
  1  2  1  0
  2 53  1  0
  2  4  2  0
  3  5  1  0
  4 56  1  0
  5  4  1  0
  6 12  1  0
  7 12  1  0
  8  9  1  0
  8  7  1  0
 10  9  1  0
 10 23  1  0
 10 11  1  0
 12 11  1  0
 13  6  2  0
 14 16  1  0
 15 17  2  0
 15 18  1  0
 17 19  1  0
 18  3  1  0
 18 14  2  0
 19  6  1  0
 19 16  1  0
 20 21  2  0
 21 40  1  0
 22 21  1  0
 22 25  1  0
 23 24  1  0
 23 20  1  0
 24 22  2  0
 25 26  1  0
 26 27  2  0
 28 31  1  0
 28 27  1  0
 29 28  2  0
 30 29  1  0
 30 25  2  0
 31 32  1  0
 32 37  2  0
 32 33  1  0
 33 34  2  0
 35 34  1  0
 35 39  1  0
 36 35  2  0
 37 36  1  0
 38 37  1  0
 40 41  1  0
 41 44  1  0
 41 43  1  0
 42 40  2  0
 45 20  1  0
 45 46  1  0
 47 45  1  0
 49 48  1  0
 50  1  1  0
 50 49  1  0
 50 48  1  0
 51 53  1  0
 52 51  1  0
 52 53  1  0
 55 56  1  0
 56 54  1  0
 57 58  1  0
 57  5  1  0
 58 60  1  0
 59 70  2  0
 60 65  1  0
 61 69  1  0
 61 71  1  0
 62 68  1  0
 62 64  1  0
 63 69  1  0
 64 63  1  0
 65 64  2  0
 66 67  1  0
 66 60  2  0
 67 62  2  0
 68 61  1  0
 69 59  1  0
 71 73  2  0
 72 71  1  0
 74 72  1  0
 75 84  2  0
 75 80  1  0
 76 72  1  0
 76 80  1  0
 77 76  1  0
 78 79  1  0
 78 77  1  0
 79 75  1  0
 80 81  2  0
 81 82  1  0
 83 82  2  0
 84 83  1  0
 85 59  1  0
 85 90  1  0
 85 86  1  0
 86 89  1  1
 86 87  1  0
 88 86  1  0
 90 93  1  0
 91 95  1  0
 91 90  1  0
 92 91  2  0
 95 94  1  0
 97 95  1  0
 97 98  1  0
 97 96  1  0
M  ISO  4   6 100  19 100  57 101  58 101
M  END
>  <TORSDO>  (41) 
F 20

>  <SCORE>  (41) 
-13.731

>  <name>  (41) 
40

>  <ligand_id>  (41) 
40

>  <original_smiles>  (41) 
[H]c1c([H])c([H])c2c(c1[H])C([H])([H])C([H])([H])C([H])([H])C2([H])N([H])C(=O)C1([H])N(C(=O)C([H])(N([H])C(=O)C([H])(N([H])C([H])([H])[H])C([H])([H])[H])C(C([H])([H])[H])(C([H])([H])[H])C([H])([H])[H])C([H])([H])c2c([H])c(OC([H])([H])n3c(C([H])(C([H])([H])[H])C([H])([H])[H])c(C4([H])C([H])([H])C4([H])[H])c(C4([H])C([H])([H])C4([H])[H])c3C3([H])C([H])([H])C([H])([H])N(C(=O)N4C([H])([H])C([H])([H])C([H])([H])C([H])(n5nc(-c6c([H])c([H])c(Oc7c([H])c([H])c(F)c([H])c7F)c([H])c6[H])c(C(=O)N([H])[H])c5N([H])[H])C4([H])[H])C([H])([H])C3([H])[H])c([H])c([H])c2C1([H])[H]

>  <smiles>  (41) 
[H]c1c([H])c([H])c2c(c1[H])C([H])([H])C([H])([H])C([H])([H])C2([H])N([H])C(=O)C1([H])N(C(=O)C([H])(N([H])C(=O)C([H])(N([H])C([H])([H])[H])C([H])([H])[H])C(C([H])([H])[H])(C([H])([H])[H])C([H])([H])[H])C([H])([H])c2c([H])c(OC([H])([H])n3c(C([H])(C([H])([H])[H])C([H])([H])[H])c(C4([H])C([H])([H])C4([H])[H])c(C4([H])C([H])([H])C4([H])[H])c3C3([H])C([H])([H])C([H])([H])N(C(=O)N4C([H])([H])C([H])([H])C([H])([H])C([H])(n5nc(-c6c([H])c([H])c(Oc7c([H])c([H])c(F)c([H])c7F)c([H])c6[H])c(C(=O)N([H])[H])c5N([H])[H])C4([H])[H])C([H])([H])C3([H])[H])c([H])c([H])c2C1([H])[H]

$$$$
41:0:0
     RDKit          3D

 96105  0  0  1  0  0  0  0  0999 V2000
  -29.6420  -24.2700   22.4650 C   0  0  0  0  0  3  0  0  0  0  0  0
  -28.6430  -24.1950   20.2580 C   0  0  0  0  0  3  0  0  0  0  0  0
  -29.1590  -24.9510   21.3310 C   0  0  0  0  0  0  0  0  0  0  0  0
  -29.6160  -22.8580   22.5420 C   0  0  0  0  0  0  0  0  0  0  0  0
  -29.0920  -22.0950   21.4610 C   0  0  0  0  0  0  0  0  0  0  0  0
  -28.6050  -22.7880   20.3180 C   0  0  0  0  0  0  0  0  0  0  0  0
  -30.1330  -22.2030   23.8130 C   0  0  0  0  0  1  0  0  0  0  0  0
  -27.9440  -21.9440   18.9610 Cl  0  0  0  0  0  0  0  0  0  0  0  0
  -28.9840  -20.5580   21.5420 C   0  0  0  0  0  2  0  0  0  0  0  0
  -30.5640  -20.0500   19.6660 C   0  0  0  0  0  1  0  0  0  0  0  0
  -30.1800  -19.7830   21.0770 N   0  0  2  0  0  4  0  0  0  0  0  0
  -30.9420  -20.1540   21.6230 H   0  0  0  0  0  0  0  0  0  0  0  0
  -30.6360  -14.5250   19.9260 C   0  0  0  0  0  0  0  0  0  0  0  0
  -30.2460  -12.3880   18.7270 C   0  0  0  0  0  2  0  0  0  0  0  0
  -29.2010  -12.5480   17.6030 C   0  0  0  0  0  2  0  0  0  0  0  0
  -27.7710  -12.3700   18.1490 C   0  0  0  0  0  2  0  0  0  0  0  0
  -27.5230  -13.2170   19.4210 C   0  0  0  0  0  3  0  0  0  0  0  0
  -28.6640  -12.9940   20.4460 C   0  0  0  0  0  2  0  0  0  0  0  0
  -29.9340  -13.3560   19.7960 N   0  0  0  0  0  0  0  0  0  0  0  0
  -31.6440  -14.7420   19.2430 O   0  0  0  0  0  0  0  0  0  0  0  0
  -31.4670  -17.5750   21.3010 C   0  0  0  0  0  2  0  0  0  0  0  0
  -29.0320  -17.5180   20.6880 C   0  0  0  0  0  2  0  0  0  0  0  0
  -31.3540  -16.0850   21.7120 C   0  0  0  0  0  2  0  0  0  0  0  0
  -29.0070  -16.0390   21.1330 C   0  0  0  0  0  2  0  0  0  0  0  0
  -30.1160  -18.3230   21.4440 C   0  0  0  0  0  3  0  0  0  0  0  0
  -30.3110  -15.3720   20.9490 N   0  0  0  0  0  0  0  0  0  0  0  0
  -25.2000  -13.8390   20.3440 C   0  0  0  0  0  0  0  0  0  0  0  0
  -24.1600  -13.0670   20.7880 C   0  0  0  0  0  0  0  0  0  0  0  0
  -24.6050  -11.7130   20.6890 C   0  0  0  0  0  0  0  0  0  0  0  0
  -26.2120  -12.9510   20.0060 N   0  0  0  0  0  0  0  0  0  0  0  0
  -25.8620  -11.6690   20.2690 N   0  0  0  0  0  0  0  0  0  0  0  0
  -23.8900  -10.4510   20.9110 C   0  0  0  0  0  0  0  0  0  0  0  0
  -24.3550   -9.4910   21.8370 C   0  0  0  0  0  3  0  0  0  0  0  0
  -23.6390   -8.2940   22.0450 C   0  0  0  0  0  3  0  0  0  0  0  0
  -22.4440   -8.0470   21.3280 C   0  0  0  0  0  0  0  0  0  0  0  0
  -21.9980   -8.9950   20.3910 C   0  0  0  0  0  3  0  0  0  0  0  0
  -22.7140  -10.1840   20.1810 C   0  0  0  0  0  3  0  0  0  0  0  0
  -21.6970   -6.8990   21.4470 O   0  0  0  0  0  0  0  0  0  0  0  0
  -21.6520   -6.1890   22.6200 C   0  0  0  0  0  0  0  0  0  0  0  0
  -21.2200   -6.7730   23.8300 C   0  0  0  0  0  3  0  0  0  0  0  0
  -21.1260   -5.9870   24.9960 C   0  0  0  0  0  3  0  0  0  0  0  0
  -21.4510   -4.6180   24.9510 C   0  0  0  0  0  0  0  0  0  0  0  0
  -21.8750   -4.0330   23.7450 C   0  0  0  0  0  3  0  0  0  0  0  0
  -21.9720   -4.8170   22.5820 C   0  0  0  0  0  0  0  0  0  0  0  0
  -22.3620   -4.2440   21.4180 F   0  0  0  0  0  0  0  0  0  0  0  0
  -21.3510   -3.8600   26.0680 F   0  0  0  0  0  0  0  0  0  0  0  0
  -22.7950  -13.5480   21.1920 C   0  0  0  0  0  0  0  0  0  0  0  0
  -22.1440  -12.8450   22.1130 N   0  0  0  0  0  0  0  0  0  0  0  0
  -22.3160  -14.5790   20.7230 O   0  0  0  0  0  0  0  0  0  0  0  0
  -22.5420  -12.0080   22.5140 H   0  0  0  0  0  0  0  0  0  0  0  0
  -21.2300  -13.1480   22.4220 H   0  0  0  0  0  0  0  0  0  0  0  0
  -25.3610  -15.2120   20.1820 N   0  0  0  0  0  0  0  0  0  0  0  0
  -24.6140  -15.8690   20.3760 H   0  0  0  0  0  0  0  0  0  0  0  0
  -26.1710  -15.6480   19.7630 H   0  0  0  0  0  0  0  0  0  0  0  0
  -29.2040  -26.4780   21.2880 C   0  0  0  0  0  2  0  0  0  0  0  0
  -28.7150  -27.0210   20.0610 O   0  0  0  0  0  0  0  0  0  0  0  0
  -24.6500  -31.9460   23.2720 C   0  0  0  0  0  0  0  0  0  0  0  0
  -27.5330  -27.7200   20.1280 C   0  0  0  0  0  0  0  0  0  0  0  0
  -23.5350  -30.5550   21.5560 C   0  0  0  0  0  3  0  0  0  0  0  0
  -25.0810  -29.1140   20.1250 C   0  0  0  0  0  0  0  0  0  0  0  0
  -26.0460  -31.0160   21.4330 C   0  0  0  0  0  2  0  0  0  0  0  0
  -26.2000  -29.6660   20.7640 C   0  0  0  0  0  0  0  0  0  0  0  0
  -27.4290  -28.9720   20.7730 C   0  0  0  0  0  3  0  0  0  0  0  0
  -26.4060  -27.1810   19.4780 C   0  0  0  0  0  3  0  0  0  0  0  0
  -25.1770  -27.8670   19.4810 C   0  0  0  0  0  3  0  0  0  0  0  0
  -23.8050  -29.9240   20.1620 C   0  0  0  0  0  2  0  0  0  0  0  0
  -24.7600  -31.1840   22.1470 N   0  0  0  0  0  0  0  0  0  0  0  0
  -23.5480  -32.1620   23.7940 O   0  0  0  0  0  0  0  0  0  0  0  0
  -22.8990  -29.4810   22.4670 C   0  0  0  0  0  0  0  0  0  0  0  0
  -21.5870  -29.2510   22.2970 N   0  0  0  0  0  0  0  0  0  0  0  0
  -23.5850  -28.8580   23.2830 O   0  0  0  0  0  0  0  0  0  0  0  0
  -21.0950  -29.8100   21.6140 H   0  0  0  0  0  0  0  0  0  0  0  0
  -18.2470  -27.9320   22.6690 C   0  0  0  0  0  0  0  0  0  0  0  0
  -20.7870  -28.2600   23.0140 C   0  0  0  0  0  3  0  0  0  0  0  0
  -20.9510  -26.8550   22.3860 C   0  0  0  0  0  2  0  0  0  0  0  0
  -19.8830  -26.5340   21.3360 C   0  0  0  0  0  2  0  0  0  0  0  0
  -18.4820  -26.6140   21.9510 C   0  0  0  0  0  2  0  0  0  0  0  0
  -19.3290  -28.7110   23.1550 C   0  0  0  0  0  0  0  0  0  0  0  0
  -19.0580  -29.9460   23.7830 C   0  0  0  0  0  3  0  0  0  0  0  0
  -17.7350  -30.4010   23.9330 C   0  0  0  0  0  3  0  0  0  0  0  0
  -16.6660  -29.6180   23.4700 C   0  0  0  0  0  3  0  0  0  0  0  0
  -16.9220  -28.3850   22.8420 C   0  0  0  0  0  3  0  0  0  0  0  0
  -25.9000  -32.6010   23.9420 C   0  0  0  0  0  3  0  0  0  0  0  0
  -26.3710  -31.8480   25.2470 C   0  0  1  0  0  0  0  0  0  0  0  0
  -25.2340  -31.5930   26.2620 C   0  0  0  0  0  1  0  0  0  0  0  0
  -27.0030  -30.4820   24.8890 C   0  0  0  0  0  1  0  0  0  0  0  0
  -27.4690  -32.6710   25.9590 C   0  0  0  0  0  1  0  0  0  0  0  0
  -25.5590  -33.9980   24.2420 N   0  0  0  0  0  0  0  0  0  0  0  0
  -25.9060  -35.0430   23.4800 C   0  0  0  0  0  0  0  0  0  0  0  0
  -26.6190  -34.9350   22.4790 O   0  0  0  0  0  0  0  0  0  0  0  0
  -24.9340  -34.1560   25.0190 H   0  0  0  0  0  0  0  0  0  0  0  0
  -24.1750  -36.8050   23.0230 C   0  0  0  0  0  1  0  0  0  0  0  0
  -25.3820  -36.4310   23.8980 C   0  0  0  0  0  3  0  0  0  0  0  0
  -27.4650  -37.3530   24.8130 C   0  0  0  0  0  1  0  0  0  0  0  0
  -26.4060  -37.4950   23.8190 N   0  0  0  0  0  0  0  0  0  0  0  0
  -25.9820  -38.4110   23.9370 H   0  0  0  0  0  0  0  0  0  0  0  0
  1  4  1  0
  2  6  2  0
  2  3  1  0
  3  1  2  0
  4  7  1  0
  5  9  1  0
  5  4  2  0
  6  5  1  0
  8  6  1  0
 10 11  1  0
 11  9  1  0
 11 12  1  1
 13 26  1  0
 14 19  1  0
 15 16  1  0
 15 14  1  0
 17 16  1  0
 17 30  1  0
 17 18  1  0
 19 13  1  0
 19 18  1  0
 20 13  2  0
 21 25  1  0
 21 23  1  0
 22 24  1  0
 22 25  1  0
 25 11  1  0
 26 24  1  0
 26 23  1  0
 27 28  2  0
 28 47  1  0
 29 28  1  0
 29 32  1  0
 30 31  1  0
 30 27  1  0
 31 29  2  0
 32 33  1  0
 33 34  2  0
 35 38  1  0
 35 34  1  0
 36 35  2  0
 37 36  1  0
 37 32  2  0
 38 39  1  0
 39 40  1  0
 40 41  2  0
 42 41  1  0
 42 46  1  0
 43 42  2  0
 44 39  2  0
 44 43  1  0
 45 44  1  0
 47 48  1  0
 48 51  1  0
 48 50  1  0
 49 47  2  0
 52 27  1  0
 52 53  1  0
 54 52  1  0
 55  3  1  0
 56 58  1  0
 56 55  1  0
 57 68  2  0
 58 63  1  0
 59 67  1  0
 59 69  1  0
 60 66  1  0
 60 62  1  0
 61 67  1  0
 62 63  2  0
 62 61  1  0
 64 65  1  0
 64 58  2  0
 65 60  2  0
 66 59  1  0
 67 57  1  0
 69 71  2  0
 70 69  1  0
 72 70  1  0
 73 82  2  0
 73 78  1  0
 74 70  1  0
 74 78  1  0
 75 74  1  0
 76 77  1  0
 76 75  1  0
 77 73  1  0
 78 79  2  0
 79 80  1  0
 81 80  2  0
 82 81  1  0
 83 57  1  0
 83 88  1  0
 83 84  1  0
 84 87  1  1
 84 85  1  0
 86 84  1  0
 88 91  1  0
 89 93  1  0
 89 88  1  0
 90 89  2  0
 93 92  1  0
 95 93  1  0
 95 96  1  0
 95 94  1  0
M  ISO  4  13 100  26 100  55 101  56 101
M  END
>  <TORSDO>  (42) 
F 19

>  <SCORE>  (42) 
-14.042

>  <name>  (42) 
41

>  <ligand_id>  (42) 
41

>  <original_smiles>  (42) 
[H]c1c([H])c([H])c2c(c1[H])C([H])([H])C([H])([H])C([H])([H])C2([H])N([H])C(=O)C1([H])N(C(=O)C([H])(N([H])C(=O)C([H])(N([H])C([H])([H])[H])C([H])([H])[H])C(C([H])([H])[H])(C([H])([H])[H])C([H])([H])[H])C([H])([H])c2c([H])c(OC([H])([H])c3c([H])c(Cl)c(C([H])([H])[N+]([H])(C([H])([H])[H])C4([H])C([H])([H])C([H])([H])N(C(=O)N5C([H])([H])C([H])([H])C([H])([H])C([H])(n6nc(-c7c([H])c([H])c(Oc8c([H])c([H])c(F)c([H])c8F)c([H])c7[H])c(C(=O)N([H])[H])c6N([H])[H])C5([H])[H])C([H])([H])C4([H])[H])c(C([H])([H])[H])c3[H])c([H])c([H])c2C1([H])[H]

>  <smiles>  (42) 
[H]c1c([H])c([H])c2c(c1[H])C([H])([H])C([H])([H])C([H])([H])C2([H])N([H])C(=O)C1([H])N(C(=O)C([H])(N([H])C(=O)C([H])(N([H])C([H])([H])[H])C([H])([H])[H])C(C([H])([H])[H])(C([H])([H])[H])C([H])([H])[H])C([H])([H])c2c([H])c(OC([H])([H])c3c([H])c(Cl)c(C([H])([H])[N+]([H])(C([H])([H])[H])C4([H])C([H])([H])C([H])([H])N(C(=O)N5C([H])([H])C([H])([H])C([H])([H])C([H])(n6nc(-c7c([H])c([H])c(Oc8c([H])c([H])c(F)c([H])c8F)c([H])c7[H])c(C(=O)N([H])[H])c6N([H])[H])C5([H])[H])C([H])([H])C4([H])[H])c(C([H])([H])[H])c3[H])c([H])c([H])c2C1([H])[H]

$$$$
42:0:0
     RDKit          3D

 92101  0  0  1  0  0  0  0  0999 V2000
  -27.9520  -22.7370   20.7160 C   0  0  0  0  0  3  0  0  0  0  0  0
  -29.6110  -20.9760   20.1330 C   0  0  0  0  0  0  0  0  0  0  0  0
  -28.3010  -21.3590   20.5580 C   0  0  0  0  0  0  0  0  0  0  0  0
  -28.8550  -23.8050   20.4670 C   0  0  0  0  0  0  0  0  0  0  0  0
  -30.4460  -22.1210   19.8610 C   0  0  0  0  0  0  0  0  0  0  0  0
  -27.2430  -20.3320   20.9130 C   0  0  0  0  0  1  0  0  0  0  0  0
  -31.8680  -21.9420   19.3610 C   0  0  0  0  0  1  0  0  0  0  0  0
  -30.0960  -23.4500   20.0310 N   0  0  0  0  0  0  0  0  0  0  0  0
  -31.1880  -15.0200   19.9340 C   0  0  0  0  0  0  0  0  0  0  0  0
  -30.9110  -12.7460   18.9390 C   0  0  0  0  0  2  0  0  0  0  0  0
  -29.9030  -12.8010   17.7750 C   0  0  0  0  0  2  0  0  0  0  0  0
  -28.4650  -12.6180   18.2980 C   0  0  0  0  0  2  0  0  0  0  0  0
  -28.1590  -13.5020   19.5380 C   0  0  0  0  0  3  0  0  0  0  0  0
  -29.2880  -13.4540   20.5880 C   0  0  0  0  0  2  0  0  0  0  0  0
  -30.5300  -13.8090   19.8990 N   0  0  0  0  0  0  0  0  0  0  0  0
  -32.3700  -15.0650   19.5780 O   0  0  0  0  0  0  0  0  0  0  0  0
  -30.2350  -18.5700   21.3160 C   0  0  0  0  0  2  0  0  0  0  0  0
  -29.4480  -18.4440   19.0430 C   0  0  0  0  0  2  0  0  0  0  0  0
  -30.9880  -17.1840   21.1430 C   0  0  0  0  0  2  0  0  0  0  0  0
  -30.1610  -17.0240   18.8880 C   0  0  0  0  0  2  0  0  0  0  0  0
  -30.1400  -19.4410   20.0250 C   0  0  0  0  0  3  0  0  0  0  0  0
  -30.4810  -16.2190   20.1150 N   0  0  0  0  0  0  0  0  0  0  0  0
  -25.8490  -14.0640   20.4860 C   0  0  0  0  0  0  0  0  0  0  0  0
  -24.8000  -13.2780   20.8830 C   0  0  0  0  0  0  0  0  0  0  0  0
  -25.2400  -11.9260   20.7330 C   0  0  0  0  0  0  0  0  0  0  0  0
  -26.8560  -13.1910   20.1150 N   0  0  0  0  0  0  0  0  0  0  0  0
  -26.5040  -11.8960   20.3290 N   0  0  0  0  0  0  0  0  0  0  0  0
  -24.5090  -10.6620   20.8950 C   0  0  0  0  0  0  0  0  0  0  0  0
  -24.8620   -9.7260   21.8920 C   0  0  0  0  0  3  0  0  0  0  0  0
  -24.1300   -8.5270   22.0410 C   0  0  0  0  0  3  0  0  0  0  0  0
  -23.0310   -8.2570   21.1920 C   0  0  0  0  0  0  0  0  0  0  0  0
  -22.6990   -9.1820   20.1870 C   0  0  0  0  0  3  0  0  0  0  0  0
  -23.4310  -10.3710   20.0360 C   0  0  0  0  0  3  0  0  0  0  0  0
  -22.2790   -7.1080   21.2470 O   0  0  0  0  0  0  0  0  0  0  0  0
  -21.9430   -6.5250   22.4420 C   0  0  0  0  0  0  0  0  0  0  0  0
  -21.1680   -7.2010   23.4100 C   0  0  0  0  0  3  0  0  0  0  0  0
  -20.7850   -6.5400   24.5940 C   0  0  0  0  0  3  0  0  0  0  0  0
  -21.1670   -5.2020   24.8090 C   0  0  0  0  0  0  0  0  0  0  0  0
  -21.9340   -4.5250   23.8450 C   0  0  0  0  0  3  0  0  0  0  0  0
  -22.3170   -5.1840   22.6630 C   0  0  0  0  0  0  0  0  0  0  0  0
  -23.0380   -4.5200   21.7270 F   0  0  0  0  0  0  0  0  0  0  0  0
  -20.7940   -4.5640   25.9430 F   0  0  0  0  0  0  0  0  0  0  0  0
  -23.4340  -13.7520   21.2850 C   0  0  0  0  0  0  0  0  0  0  0  0
  -22.7640  -13.0140   22.1620 N   0  0  0  0  0  0  0  0  0  0  0  0
  -22.9750  -14.8110   20.8590 O   0  0  0  0  0  0  0  0  0  0  0  0
  -23.1490  -12.1550   22.5250 H   0  0  0  0  0  0  0  0  0  0  0  0
  -21.8500  -13.3120   22.4740 H   0  0  0  0  0  0  0  0  0  0  0  0
  -26.0240  -15.4410   20.3860 N   0  0  0  0  0  0  0  0  0  0  0  0
  -25.2890  -16.1030   20.6050 H   0  0  0  0  0  0  0  0  0  0  0  0
  -26.8720  -15.8840   20.0570 H   0  0  0  0  0  0  0  0  0  0  0  0
  -28.4690  -25.2910   20.9480 C   0  0  0  0  0  2  0  0  0  0  0  0
  -28.7070  -26.5790   20.2150 O   0  0  0  0  0  0  0  0  0  0  0  0
  -24.6290  -31.8090   23.2220 C   0  0  0  0  0  0  0  0  0  0  0  0
  -27.6010  -27.4530   20.1650 C   0  0  0  0  0  0  0  0  0  0  0  0
  -23.5770  -30.4000   21.4910 C   0  0  0  0  0  3  0  0  0  0  0  0
  -25.1700  -28.9700   20.0860 C   0  0  0  0  0  0  0  0  0  0  0  0
  -26.1050  -30.8490   21.4340 C   0  0  0  0  0  2  0  0  0  0  0  0
  -26.2890  -29.4940   20.7490 C   0  0  0  0  0  0  0  0  0  0  0  0
  -27.5130  -28.7500   20.7760 C   0  0  0  0  0  3  0  0  0  0  0  0
  -26.4620  -26.9940   19.4750 C   0  0  0  0  0  3  0  0  0  0  0  0
  -25.2610  -27.7290   19.4370 C   0  0  0  0  0  3  0  0  0  0  0  0
  -23.8880  -29.7800   20.1050 C   0  0  0  0  0  2  0  0  0  0  0  0
  -24.7860  -31.0360   22.1070 N   0  0  0  0  0  0  0  0  0  0  0  0
  -23.5080  -32.0140   23.7120 O   0  0  0  0  0  0  0  0  0  0  0  0
  -22.9250  -29.3230   22.3910 C   0  0  0  0  0  0  0  0  0  0  0  0
  -21.6090  -29.1050   22.2220 N   0  0  0  0  0  0  0  0  0  0  0  0
  -23.6030  -28.6870   23.2020 O   0  0  0  0  0  0  0  0  0  0  0  0
  -21.1210  -29.6740   21.5440 H   0  0  0  0  0  0  0  0  0  0  0  0
  -18.2480  -27.8340   22.6560 C   0  0  0  0  0  0  0  0  0  0  0  0
  -20.8050  -28.1080   22.9300 C   0  0  0  0  0  3  0  0  0  0  0  0
  -20.9200  -26.7200   22.2580 C   0  0  0  0  0  2  0  0  0  0  0  0
  -19.8160  -26.4530   21.2300 C   0  0  0  0  0  2  0  0  0  0  0  0
  -18.4360  -26.5370   21.8880 C   0  0  0  0  0  2  0  0  0  0  0  0
  -19.3600  -28.5800   23.1300 C   0  0  0  0  0  0  0  0  0  0  0  0
  -19.1280  -29.7970   23.8070 C   0  0  0  0  0  3  0  0  0  0  0  0
  -17.8180  -30.2700   24.0130 C   0  0  0  0  0  3  0  0  0  0  0  0
  -16.7210  -29.5200   23.5540 C   0  0  0  0  0  3  0  0  0  0  0  0
  -16.9370  -28.3030   22.8830 C   0  0  0  0  0  3  0  0  0  0  0  0
  -25.8450  -32.4910   23.9210 C   0  0  0  0  0  3  0  0  0  0  0  0
  -25.4670  -33.8790   24.2200 N   0  0  0  0  0  0  0  0  0  0  0  0
  -25.7870  -34.9360   23.4620 C   0  0  0  0  0  0  0  0  0  0  0  0
  -26.5010  -34.8470   22.4590 O   0  0  0  0  0  0  0  0  0  0  0  0
  -24.8360  -34.0190   24.9950 H   0  0  0  0  0  0  0  0  0  0  0  0
  -23.9960  -36.6500   23.0280 C   0  0  0  0  0  1  0  0  0  0  0  0
  -25.2280  -36.3100   23.8820 C   0  0  0  0  0  3  0  0  0  0  0  0
  -27.2900  -37.3040   24.7710 C   0  0  0  0  0  1  0  0  0  0  0  0
  -26.2170  -37.4050   23.7850 N   0  0  0  0  0  0  0  0  0  0  0  0
  -25.7650  -38.3080   23.9030 H   0  0  0  0  0  0  0  0  0  0  0  0
  -26.3010  -31.7470   25.2370 C   0  0  1  0  0  0  0  0  0  0  0  0
  -25.1440  -31.4540   26.2200 C   0  0  0  0  0  1  0  0  0  0  0  0
  -26.9810  -30.4010   24.8960 C   0  0  0  0  0  1  0  0  0  0  0  0
  -27.3580  -32.5980   25.9780 C   0  0  0  0  0  1  0  0  0  0  0  0
  2  3  2  0
  3  1  1  0
  3  6  1  0
  4  1  2  0
  4 51  1  0
  5  8  2  0
  5  2  1  0
  7  5  1  0
  8  4  1  0
  9 22  1  0
 10 15  1  0
 11 12  1  0
 11 10  1  0
 13 12  1  0
 13 26  1  0
 13 14  1  0
 15  9  1  0
 15 14  1  0
 16  9  2  0
 18 21  1  0
 19 17  1  0
 20 18  1  0
 20 22  1  0
 21  2  1  0
 21 17  1  0
 22 19  1  0
 23 24  2  0
 24 43  1  0
 25 24  1  0
 25 28  1  0
 26 27  1  0
 26 23  1  0
 27 25  2  0
 28 29  1  0
 29 30  2  0
 31 34  1  0
 31 30  1  0
 32 31  2  0
 33 32  1  0
 33 28  2  0
 34 35  1  0
 35 40  2  0
 35 36  1  0
 36 37  2  0
 37 38  1  0
 38 42  1  0
 39 38  2  0
 40 39  1  0
 41 40  1  0
 43 44  1  0
 44 47  1  0
 44 46  1  0
 45 43  2  0
 48 23  1  0
 48 49  1  0
 50 48  1  0
 52 51  1  0
 53 64  2  0
 54 52  1  0
 54 59  1  0
 55 63  1  0
 55 65  1  0
 56 62  1  0
 56 58  1  0
 57 63  1  0
 58 59  2  0
 58 57  1  0
 60 54  2  0
 61 60  1  0
 61 56  2  0
 62 55  1  0
 63 53  1  0
 65 67  2  0
 66 65  1  0
 68 66  1  0
 69 78  2  0
 69 74  1  0
 70 66  1  0
 70 74  1  0
 71 70  1  0
 72 73  1  0
 72 71  1  0
 73 69  1  0
 74 75  2  0
 75 76  1  0
 77 76  2  0
 78 77  1  0
 79 53  1  0
 79 80  1  0
 79 89  1  0
 80 83  1  0
 81 85  1  0
 81 80  1  0
 82 81  2  0
 85 84  1  0
 87 85  1  0
 87 88  1  0
 87 86  1  0
 89 92  1  1
 89 90  1  0
 91 89  1  0
M  ISO  4   9 100  22 100  51 101  52 101
M  END
>  <TORSDO>  (43) 
F 17

>  <SCORE>  (43) 
-12.711

>  <name>  (43) 
42

>  <ligand_id>  (43) 
42

>  <original_smiles>  (43) 
[H]c1c([H])c([H])c2c(c1[H])C([H])([H])C([H])([H])C([H])([H])C2([H])N([H])C(=O)C1([H])N(C(=O)C([H])(N([H])C(=O)C([H])(N([H])C([H])([H])[H])C([H])([H])[H])C(C([H])([H])[H])(C([H])([H])[H])C([H])([H])[H])C([H])([H])c2c([H])c(OC([H])([H])c3nc(C([H])([H])[H])c(C4([H])C([H])([H])C([H])([H])N(C(=O)N5C([H])([H])C([H])([H])C([H])([H])C([H])(n6nc(-c7c([H])c([H])c(Oc8c([H])c([H])c(F)c([H])c8F)c([H])c7[H])c(C(=O)N([H])[H])c6N([H])[H])C5([H])[H])C([H])([H])C4([H])[H])c(C([H])([H])[H])c3[H])c([H])c([H])c2C1([H])[H]

>  <smiles>  (43) 
[H]c1c([H])c([H])c2c(c1[H])C([H])([H])C([H])([H])C([H])([H])C2([H])N([H])C(=O)C1([H])N(C(=O)C([H])(N([H])C(=O)C([H])(N([H])C([H])([H])[H])C([H])([H])[H])C(C([H])([H])[H])(C([H])([H])[H])C([H])([H])[H])C([H])([H])c2c([H])c(OC([H])([H])c3nc(C([H])([H])[H])c(C4([H])C([H])([H])C([H])([H])N(C(=O)N5C([H])([H])C([H])([H])C([H])([H])C([H])(n6nc(-c7c([H])c([H])c(Oc8c([H])c([H])c(F)c([H])c8F)c([H])c7[H])c(C(=O)N([H])[H])c6N([H])[H])C5([H])[H])C([H])([H])C4([H])[H])c(C([H])([H])[H])c3[H])c([H])c([H])c2C1([H])[H]

$$$$
43:0:0
     RDKit          3D

 97107  0  0  1  0  0  0  0  0999 V2000
  -29.8430  -23.0680   19.9350 C   0  0  0  0  0  0  0  0  0  0  0  0
  -30.4750  -22.3170   18.9050 C   0  0  0  0  0  0  0  0  0  0  0  0
  -30.8320  -20.9620   19.1420 C   0  0  0  0  0  0  0  0  0  0  0  0
  -29.6070  -22.3920   21.1580 C   0  0  0  0  0  0  0  0  0  0  0  0
  -30.5460  -20.3910   20.4020 C   0  0  0  0  0  0  0  0  0  0  0  0
  -30.7820  -22.9620   17.5540 C   0  0  0  0  0  1  0  0  0  0  0  0
  -31.5240  -20.1470   18.0480 C   0  0  0  0  0  1  0  0  0  0  0  0
  -29.0160  -23.1010   22.3630 C   0  0  0  0  0  1  0  0  0  0  0  0
  -29.9290  -21.0910   21.3720 N   0  0  0  0  0  0  0  0  0  0  0  0
  -28.5660  -24.9440   18.6020 C   0  0  0  0  0  2  0  0  0  0  0  0
  -29.5220  -24.5500   19.7190 C   0  0  0  0  0  3  0  0  0  0  0  0
  -28.2110  -25.2740   20.0240 C   0  0  0  0  0  3  0  0  0  0  0  0
  -28.3200  -26.6890   20.2670 O   0  0  0  0  0  0  0  0  0  0  0  0
  -24.5710  -31.9160   23.3170 C   0  0  0  0  0  0  0  0  0  0  0  0
  -27.1560  -27.4370   20.2290 C   0  0  0  0  0  0  0  0  0  0  0  0
  -23.3450  -30.5320   21.6750 C   0  0  0  0  0  3  0  0  0  0  0  0
  -24.7760  -28.9830   20.2420 C   0  0  0  0  0  0  0  0  0  0  0  0
  -25.8740  -30.8630   21.4670 C   0  0  0  0  0  2  0  0  0  0  0  0
  -25.9440  -29.4910   20.8250 C   0  0  0  0  0  0  0  0  0  0  0  0
  -27.1350  -28.7270   20.8110 C   0  0  0  0  0  3  0  0  0  0  0  0
  -25.9680  -26.9500   19.6330 C   0  0  0  0  0  3  0  0  0  0  0  0
  -24.7860  -27.7130   19.6400 C   0  0  0  0  0  3  0  0  0  0  0  0
  -23.5420  -29.8540   20.2950 C   0  0  0  0  0  2  0  0  0  0  0  0
  -24.6160  -31.1180   22.2120 N   0  0  0  0  0  0  0  0  0  0  0  0
  -23.4950  -32.1980   23.8610 O   0  0  0  0  0  0  0  0  0  0  0  0
  -22.6850  -29.5150   22.6370 C   0  0  0  0  0  0  0  0  0  0  0  0
  -21.3620  -29.3310   22.4970 N   0  0  0  0  0  0  0  0  0  0  0  0
  -23.3620  -28.8960   23.4610 O   0  0  0  0  0  0  0  0  0  0  0  0
  -20.8780  -29.8830   21.8030 H   0  0  0  0  0  0  0  0  0  0  0  0
  -17.9880  -28.1200   22.9500 C   0  0  0  0  0  0  0  0  0  0  0  0
  -20.5390  -28.3960   23.2640 C   0  0  0  0  0  3  0  0  0  0  0  0
  -20.6600  -26.9600   22.7060 C   0  0  0  0  0  2  0  0  0  0  0  0
  -19.5790  -26.6190   21.6770 C   0  0  0  0  0  2  0  0  0  0  0  0
  -18.1850  -26.7640   22.2930 C   0  0  0  0  0  2  0  0  0  0  0  0
  -19.0940  -28.8940   23.3920 C   0  0  0  0  0  0  0  0  0  0  0  0
  -18.8570  -30.1610   23.9640 C   0  0  0  0  0  3  0  0  0  0  0  0
  -17.5480  -30.6590   24.0990 C   0  0  0  0  0  3  0  0  0  0  0  0
  -16.4550  -29.8820   23.6760 C   0  0  0  0  0  3  0  0  0  0  0  0
  -16.6760  -28.6150   23.1070 C   0  0  0  0  0  3  0  0  0  0  0  0
  -25.8650  -32.5310   23.9350 C   0  0  0  0  0  3  0  0  0  0  0  0
  -25.5790  -33.9350   24.2550 N   0  0  0  0  0  0  0  0  0  0  0  0
  -25.9040  -34.9760   23.4750 C   0  0  0  0  0  0  0  0  0  0  0  0
  -26.5510  -34.8530   22.4300 O   0  0  0  0  0  0  0  0  0  0  0  0
  -25.0050  -34.1060   25.0680 H   0  0  0  0  0  0  0  0  0  0  0  0
  -24.1720  -36.7670   23.1540 C   0  0  0  0  0  1  0  0  0  0  0  0
  -25.4400  -36.3740   23.9250 C   0  0  0  0  0  3  0  0  0  0  0  0
  -27.6070  -37.2650   24.6610 C   0  0  0  0  0  1  0  0  0  0  0  0
  -26.4710  -37.4200   23.7550 N   0  0  0  0  0  0  0  0  0  0  0  0
  -26.0740  -38.3440   23.9000 H   0  0  0  0  0  0  0  0  0  0  0  0
  -26.3710  -31.7580   25.2150 C   0  0  1  0  0  0  0  0  0  0  0  0
  -25.2740  -31.5400   26.2830 C   0  0  0  0  0  1  0  0  0  0  0  0
  -26.9330  -30.3720   24.8250 C   0  0  0  0  0  1  0  0  0  0  0  0
  -27.5330  -32.5390   25.8730 C   0  0  0  0  0  1  0  0  0  0  0  0
  -30.9730  -19.0900   20.7220 N   0  0  0  0  0  0  0  0  0  0  0  0
  -31.6500  -18.7270   20.0650 H   0  0  0  0  0  0  0  0  0  0  0  0
  -30.5620  -14.5460   20.0900 C   0  0  0  0  0  0  0  0  0  0  0  0
  -30.1570  -12.4020   18.9210 C   0  0  0  0  0  2  0  0  0  0  0  0
  -29.1470  -12.5910   17.7710 C   0  0  0  0  0  2  0  0  0  0  0  0
  -27.7050  -12.4130   18.2860 C   0  0  0  0  0  2  0  0  0  0  0  0
  -27.4250  -13.2490   19.5580 C   0  0  0  0  0  3  0  0  0  0  0  0
  -28.5500  -13.0800   20.6100 C   0  0  0  0  0  2  0  0  0  0  0  0
  -29.8380  -13.3920   19.9660 N   0  0  0  0  0  0  0  0  0  0  0  0
  -31.6960  -14.6440   19.6140 O   0  0  0  0  0  0  0  0  0  0  0  0
  -29.0570  -17.7520   19.9090 C   0  0  0  0  0  2  0  0  0  0  0  0
  -28.8170  -16.2500   19.9740 C   0  0  0  0  0  2  0  0  0  0  0  0
  -29.9730  -18.0790   21.0790 C   0  0  0  0  0  3  0  0  0  0  0  0
  -30.5560  -16.6930   21.5080 C   0  0  0  0  0  3  0  0  0  0  0  0
  -32.0840  -16.6430   21.7300 C   0  0  0  0  0  1  0  0  0  0  0  0
  -29.9480  -15.6240   20.6640 N   0  0  0  0  0  0  0  0  0  0  0  0
  -25.0830  -13.8790   20.4070 C   0  0  0  0  0  0  0  0  0  0  0  0
  -24.0310  -13.1120   20.8260 C   0  0  0  0  0  0  0  0  0  0  0  0
  -24.4820  -11.7600   20.7610 C   0  0  0  0  0  0  0  0  0  0  0  0
  -26.1050  -12.9880   20.1150 N   0  0  0  0  0  0  0  0  0  0  0  0
  -25.7540  -11.7100   20.3900 N   0  0  0  0  0  0  0  0  0  0  0  0
  -23.7610  -10.5000   20.9730 C   0  0  0  0  0  0  0  0  0  0  0  0
  -24.2320   -9.5290   21.8830 C   0  0  0  0  0  3  0  0  0  0  0  0
  -23.5130   -8.3310   22.0830 C   0  0  0  0  0  3  0  0  0  0  0  0
  -22.3110   -8.0980   21.3730 C   0  0  0  0  0  0  0  0  0  0  0  0
  -21.8610   -9.0580   20.4500 C   0  0  0  0  0  3  0  0  0  0  0  0
  -22.5800  -10.2470   20.2480 C   0  0  0  0  0  3  0  0  0  0  0  0
  -21.5610   -6.9540   21.4860 O   0  0  0  0  0  0  0  0  0  0  0  0
  -21.5620   -6.2030   22.6330 C   0  0  0  0  0  0  0  0  0  0  0  0
  -21.1820   -6.7460   23.8800 C   0  0  0  0  0  3  0  0  0  0  0  0
  -21.1320   -5.9200   25.0210 C   0  0  0  0  0  3  0  0  0  0  0  0
  -21.4510   -4.5530   24.9160 C   0  0  0  0  0  0  0  0  0  0  0  0
  -21.8230   -4.0090   23.6750 C   0  0  0  0  0  3  0  0  0  0  0  0
  -21.8760   -4.8320   22.5360 C   0  0  0  0  0  0  0  0  0  0  0  0
  -22.2150   -4.2990   21.3370 F   0  0  0  0  0  0  0  0  0  0  0  0
  -21.3940   -3.7580   26.0100 F   0  0  0  0  0  0  0  0  0  0  0  0
  -22.6520  -13.5960   21.1710 C   0  0  0  0  0  0  0  0  0  0  0  0
  -21.9610  -12.8920   22.0590 N   0  0  0  0  0  0  0  0  0  0  0  0
  -22.2000  -14.6340   20.6880 O   0  0  0  0  0  0  0  0  0  0  0  0
  -22.3400  -12.0510   22.4700 H   0  0  0  0  0  0  0  0  0  0  0  0
  -21.0380  -13.1990   22.3340 H   0  0  0  0  0  0  0  0  0  0  0  0
  -25.2420  -15.2490   20.2270 N   0  0  0  0  0  0  0  0  0  0  0  0
  -24.4780  -15.9030   20.3680 H   0  0  0  0  0  0  0  0  0  0  0  0
  -26.0680  -15.6840   19.8390 H   0  0  0  0  0  0  0  0  0  0  0  0
  1  4  1  0
  2  3  1  0
  2  1  2  0
  3  5  2  0
  4  9  2  0
  4  8  1  0
  5 54  1  0
  5  9  1  0
  6  2  1  0
  7  3  1  0
 10 11  1  0
 10 12  1  0
 11  1  1  0
 11 12  1  0
 12 13  1  0
 14 25  2  0
 15 13  1  0
 15 20  1  0
 16 24  1  0
 16 26  1  0
 17 23  1  0
 17 19  1  0
 18 24  1  0
 19 18  1  0
 20 19  2  0
 21 22  1  0
 21 15  2  0
 22 17  2  0
 23 16  1  0
 24 14  1  0
 26 28  2  0
 27 26  1  0
 29 27  1  0
 30 39  2  0
 30 35  1  0
 31 27  1  0
 31 35  1  0
 32 31  1  0
 33 34  1  0
 33 32  1  0
 34 30  1  0
 35 36  2  0
 36 37  1  0
 38 37  2  0
 39 38  1  0
 40 14  1  0
 40 41  1  0
 40 50  1  0
 41 44  1  0
 42 46  1  0
 42 41  1  0
 43 42  2  0
 46 45  1  0
 48 49  1  0
 48 46  1  0
 48 47  1  0
 50 53  1  1
 50 51  1  0
 52 50  1  0
 55 54  1  0
 56 69  1  0
 57 62  1  0
 58 59  1  0
 58 57  1  0
 60 59  1  0
 60 73  1  0
 60 61  1  0
 62 56  1  0
 62 61  1  0
 63 56  2  0
 64 65  1  0
 64 66  1  0
 65 69  1  0
 66 54  1  0
 66 67  1  0
 67 68  1  0
 69 67  1  0
 70 71  2  0
 71 90  1  0
 72 71  1  0
 72 75  1  0
 73 74  1  0
 73 70  1  0
 74 72  2  0
 75 76  1  0
 76 77  2  0
 78 81  1  0
 78 77  1  0
 79 78  2  0
 80 79  1  0
 80 75  2  0
 81 82  1  0
 82 83  1  0
 83 84  2  0
 85 84  1  0
 85 89  1  0
 86 85  2  0
 87 82  2  0
 87 86  1  0
 88 87  1  0
 90 91  1  0
 91 94  1  0
 91 93  1  0
 92 90  2  0
 95 96  1  0
 95 70  1  0
 97 95  1  0
M  ISO  4  12 101  13 101  56 100  69 100
M  END
>  <TORSDO>  (44) 
F 18

>  <SCORE>  (44) 
-13.781

>  <name>  (44) 
43

>  <ligand_id>  (44) 
43

>  <original_smiles>  (44) 
[H]c1c([H])c([H])c2c(c1[H])C([H])([H])C([H])([H])C([H])([H])C2([H])N([H])C(=O)C1([H])N(C(=O)C([H])(N([H])C(=O)C([H])(N([H])C([H])([H])[H])C([H])([H])[H])C(C([H])([H])[H])(C([H])([H])[H])C([H])([H])[H])C([H])([H])c2c([H])c(OC3([H])C([H])([H])C3([H])c3c(C([H])([H])[H])nc(N([H])C4([H])C([H])([H])C([H])([H])N(C(=O)N5C([H])([H])C([H])([H])C([H])([H])C([H])(n6nc(-c7c([H])c([H])c(Oc8c([H])c([H])c(F)c([H])c8F)c([H])c7[H])c(C(=O)N([H])[H])c6N([H])[H])C5([H])[H])C4([H])C([H])([H])[H])c(C([H])([H])[H])c3C([H])([H])[H])c([H])c([H])c2C1([H])[H]

>  <smiles>  (44) 
[H]c1c([H])c([H])c2c(c1[H])C([H])([H])C([H])([H])C([H])([H])C2([H])N([H])C(=O)C1([H])N(C(=O)C([H])(N([H])C(=O)C([H])(N([H])C([H])([H])[H])C([H])([H])[H])C(C([H])([H])[H])(C([H])([H])[H])C([H])([H])[H])C([H])([H])c2c([H])c(OC3([H])C([H])([H])C3([H])c3c(C([H])([H])[H])nc(N([H])C4([H])C([H])([H])C([H])([H])N(C(=O)N5C([H])([H])C([H])([H])C([H])([H])C([H])(n6nc(-c7c([H])c([H])c(Oc8c([H])c([H])c(F)c([H])c8F)c([H])c7[H])c(C(=O)N([H])[H])c6N([H])[H])C5([H])[H])C4([H])C([H])([H])[H])c(C([H])([H])[H])c3C([H])([H])[H])c([H])c([H])c2C1([H])[H]

$$$$
44:0:0
     RDKit          3D

 93102  0  0  1  0  0  0  0  0999 V2000
  -30.1800  -19.4240   21.7350 C   0  0  0  0  0  3  0  0  0  0  0  0
  -29.4220  -18.1510   19.3750 C   0  0  0  0  0  3  0  0  0  0  0  0
  -29.6250  -20.2430   20.7140 C   0  0  0  0  0  0  0  0  0  0  0  0
  -29.2740  -19.5780   19.5200 C   0  0  0  0  0  0  0  0  0  0  0  0
  -30.3350  -18.0060   21.5990 C   0  0  0  0  0  0  0  0  0  0  0  0
  -29.9500  -17.3170   20.4110 C   0  0  0  0  0  0  0  0  0  0  0  0
  -28.4720  -22.5830   19.9160 C   0  0  0  0  0  0  0  0  0  0  0  0
  -28.1330  -23.9380   19.9350 C   0  0  0  0  0  3  0  0  0  0  0  0
  -29.4130  -21.8030   20.8970 C   0  0  0  0  0  2  0  0  0  0  0  0
  -28.7240  -20.4530   18.4010 C   0  0  0  0  0  2  0  0  0  0  0  0
  -27.8090  -21.6090   18.9040 C   0  0  0  0  0  3  0  0  0  0  0  0
  -30.8810  -17.2170   22.7760 C   0  0  0  0  0  1  0  0  0  0  0  0
  -27.1210  -22.2860   17.7010 C   0  0  0  0  0  1  0  0  0  0  0  0
  -30.6760  -14.8080   20.0000 C   0  0  0  0  0  0  0  0  0  0  0  0
  -30.4570  -12.5620   18.9210 C   0  0  0  0  0  2  0  0  0  0  0  0
  -29.4260  -12.6750   17.7750 C   0  0  0  0  0  2  0  0  0  0  0  0
  -27.9900  -12.4830   18.3030 C   0  0  0  0  0  2  0  0  0  0  0  0
  -27.7030  -13.3250   19.5740 C   0  0  0  0  0  3  0  0  0  0  0  0
  -28.8390  -13.1760   20.6100 C   0  0  0  0  0  2  0  0  0  0  0  0
  -30.0930  -13.5630   19.9490 N   0  0  0  0  0  0  0  0  0  0  0  0
  -31.8160  -14.9900   19.5620 O   0  0  0  0  0  0  0  0  0  0  0  0
  -29.8460  -15.8430   20.3860 N   0  0  0  0  0  0  0  0  0  0  0  0
  -28.9530  -15.4980   20.7030 H   0  0  0  0  0  0  0  0  0  0  0  0
  -25.3770  -13.8950   20.5030 C   0  0  0  0  0  0  0  0  0  0  0  0
  -24.3360  -13.1080   20.9140 C   0  0  0  0  0  0  0  0  0  0  0  0
  -24.7850  -11.7580   20.7810 C   0  0  0  0  0  0  0  0  0  0  0  0
  -26.3940  -13.0240   20.1450 N   0  0  0  0  0  0  0  0  0  0  0  0
  -26.0480  -11.7310   20.3730 N   0  0  0  0  0  0  0  0  0  0  0  0
  -24.0650  -10.4910   20.9630 C   0  0  0  0  0  0  0  0  0  0  0  0
  -24.5060   -9.5150   21.8840 C   0  0  0  0  0  3  0  0  0  0  0  0
  -23.7860   -8.3140   22.0530 C   0  0  0  0  0  3  0  0  0  0  0  0
  -22.6100   -8.0790   21.3020 C   0  0  0  0  0  0  0  0  0  0  0  0
  -22.1870   -9.0430   20.3700 C   0  0  0  0  0  3  0  0  0  0  0  0
  -22.9090  -10.2370   20.1980 C   0  0  0  0  0  3  0  0  0  0  0  0
  -21.8610   -6.9300   21.3820 O   0  0  0  0  0  0  0  0  0  0  0  0
  -21.7540   -6.2200   22.5510 C   0  0  0  0  0  0  0  0  0  0  0  0
  -21.1770   -6.7790   23.7120 C   0  0  0  0  0  3  0  0  0  0  0  0
  -21.0240   -5.9910   24.8710 C   0  0  0  0  0  3  0  0  0  0  0  0
  -21.4360   -4.6460   24.8680 C   0  0  0  0  0  0  0  0  0  0  0  0
  -22.0070   -4.0860   23.7110 C   0  0  0  0  0  3  0  0  0  0  0  0
  -22.1620   -4.8710   22.5540 C   0  0  0  0  0  0  0  0  0  0  0  0
  -22.6920   -4.3200   21.4360 F   0  0  0  0  0  0  0  0  0  0  0  0
  -21.2830   -3.8870   25.9780 F   0  0  0  0  0  0  0  0  0  0  0  0
  -22.9670  -13.5770   21.3140 C   0  0  0  0  0  0  0  0  0  0  0  0
  -22.2970  -12.8380   22.1920 N   0  0  0  0  0  0  0  0  0  0  0  0
  -22.5020  -14.6320   20.8830 O   0  0  0  0  0  0  0  0  0  0  0  0
  -22.6870  -11.9830   22.5600 H   0  0  0  0  0  0  0  0  0  0  0  0
  -21.3830  -13.1330   22.5020 H   0  0  0  0  0  0  0  0  0  0  0  0
  -25.5370  -15.2730   20.3800 N   0  0  0  0  0  0  0  0  0  0  0  0
  -24.7770  -15.9160   20.5730 H   0  0  0  0  0  0  0  0  0  0  0  0
  -26.3510  -15.7300   19.9900 H   0  0  0  0  0  0  0  0  0  0  0  0
  -28.4460  -25.1370   20.9020 C   0  0  0  0  0  2  0  0  0  0  0  0
  -28.5080  -26.5280   20.3540 O   0  0  0  0  0  0  0  0  0  0  0  0
  -24.6680  -31.9530   23.2690 C   0  0  0  0  0  0  0  0  0  0  0  0
  -27.3650  -27.3480   20.3460 C   0  0  0  0  0  0  0  0  0  0  0  0
  -23.4960  -30.5080   21.6440 C   0  0  0  0  0  3  0  0  0  0  0  0
  -24.9790  -28.9350   20.2730 C   0  0  0  0  0  0  0  0  0  0  0  0
  -26.0340  -30.8500   21.4790 C   0  0  0  0  0  2  0  0  0  0  0  0
  -26.1370  -29.4540   20.8660 C   0  0  0  0  0  0  0  0  0  0  0  0
  -27.3350  -28.6750   20.8840 C   0  0  0  0  0  3  0  0  0  0  0  0
  -26.1840  -26.8750   19.7400 C   0  0  0  0  0  3  0  0  0  0  0  0
  -25.0050  -27.6510   19.7000 C   0  0  0  0  0  3  0  0  0  0  0  0
  -23.7330  -29.8000   20.2840 C   0  0  0  0  0  2  0  0  0  0  0  0
  -24.7510  -31.1230   22.1880 N   0  0  0  0  0  0  0  0  0  0  0  0
  -23.5760  -32.2280   23.7870 O   0  0  0  0  0  0  0  0  0  0  0  0
  -22.8330  -29.5080   22.6200 C   0  0  0  0  0  0  0  0  0  0  0  0
  -21.5190  -29.2760   22.4520 N   0  0  0  0  0  0  0  0  0  0  0  0
  -23.5010  -28.9400   23.4880 O   0  0  0  0  0  0  0  0  0  0  0  0
  -21.0370  -29.7860   21.7260 H   0  0  0  0  0  0  0  0  0  0  0  0
  -18.1750  -27.9580   22.8610 C   0  0  0  0  0  0  0  0  0  0  0  0
  -20.7070  -28.3370   23.2270 C   0  0  0  0  0  3  0  0  0  0  0  0
  -20.8920  -26.8870   22.7190 C   0  0  0  0  0  2  0  0  0  0  0  0
  -19.8500  -26.4760   21.6740 C   0  0  0  0  0  2  0  0  0  0  0  0
  -18.4360  -26.5900   22.2520 C   0  0  0  0  0  2  0  0  0  0  0  0
  -19.2420  -28.7840   23.3040 C   0  0  0  0  0  0  0  0  0  0  0  0
  -18.9460  -30.0600   23.8320 C   0  0  0  0  0  3  0  0  0  0  0  0
  -17.6160  -30.5120   23.9200 C   0  0  0  0  0  3  0  0  0  0  0  0
  -16.5630  -29.6840   23.4920 C   0  0  0  0  0  3  0  0  0  0  0  0
  -16.8430  -28.4100   22.9690 C   0  0  0  0  0  3  0  0  0  0  0  0
  -25.9360  -32.6130   23.8920 C   0  0  0  0  0  3  0  0  0  0  0  0
  -25.6060  -34.0140   24.1970 N   0  0  0  0  0  0  0  0  0  0  0  0
  -25.9420  -35.0600   23.4280 C   0  0  0  0  0  0  0  0  0  0  0  0
  -26.6290  -34.9470   22.4100 O   0  0  0  0  0  0  0  0  0  0  0  0
  -24.9970  -34.1730   24.9850 H   0  0  0  0  0  0  0  0  0  0  0  0
  -24.2080  -36.8360   23.0170 C   0  0  0  0  0  1  0  0  0  0  0  0
  -25.4360  -36.4520   23.8580 C   0  0  0  0  0  3  0  0  0  0  0  0
  -27.5410  -37.3720   24.7270 C   0  0  0  0  0  1  0  0  0  0  0  0
  -26.4640  -37.5120   23.7500 N   0  0  0  0  0  0  0  0  0  0  0  0
  -26.0480  -38.4310   23.8660 H   0  0  0  0  0  0  0  0  0  0  0  0
  -26.4470  -31.8710   25.1880 C   0  0  1  0  0  0  0  0  0  0  0  0
  -25.3360  -31.5960   26.2280 C   0  0  0  0  0  1  0  0  0  0  0  0
  -27.0950  -30.5150   24.8230 C   0  0  0  0  0  1  0  0  0  0  0  0
  -27.5490  -32.7130   25.8750 C   0  0  0  0  0  1  0  0  0  0  0  0
  2  4  2  0
  2  6  1  0
  3  9  1  0
  3  1  2  0
  4  3  1  0
  5  1  1  0
  5 12  1  0
  6  5  2  0
  7  8  2  0
  7  9  1  0
  8 52  1  0
 10 11  1  0
 10  4  1  0
 11 13  1  0
 11  7  1  0
 14 22  1  0
 15 20  1  0
 16 17  1  0
 16 15  1  0
 18 17  1  0
 18 27  1  0
 18 19  1  0
 20 14  1  0
 20 19  1  0
 21 14  2  0
 22  6  1  0
 22 23  1  0
 24 25  2  0
 25 44  1  0
 26 25  1  0
 26 29  1  0
 27 28  1  0
 27 24  1  0
 28 26  2  0
 29 30  1  0
 30 31  2  0
 32 35  1  0
 32 31  1  0
 33 32  2  0
 34 33  1  0
 34 29  2  0
 35 36  1  0
 36 41  2  0
 36 37  1  0
 37 38  2  0
 39 38  1  0
 39 43  1  0
 40 39  2  0
 41 40  1  0
 42 41  1  0
 44 45  1  0
 45 48  1  0
 45 47  1  0
 46 44  2  0
 49 24  1  0
 49 50  1  0
 51 49  1  0
 53 52  1  0
 54 65  2  0
 55 53  1  0
 55 60  1  0
 56 64  1  0
 56 66  1  0
 57 63  1  0
 57 59  1  0
 58 64  1  0
 59 60  2  0
 59 58  1  0
 61 55  2  0
 62 61  1  0
 62 57  2  0
 63 56  1  0
 64 54  1  0
 66 68  2  0
 67 66  1  0
 69 67  1  0
 70 79  2  0
 70 75  1  0
 71 67  1  0
 71 75  1  0
 72 71  1  0
 73 74  1  0
 73 72  1  0
 74 70  1  0
 75 76  2  0
 76 77  1  0
 78 77  2  0
 79 78  1  0
 80 54  1  0
 80 81  1  0
 80 90  1  0
 81 84  1  0
 82 86  1  0
 82 81  1  0
 83 82  2  0
 86 85  1  0
 88 86  1  0
 88 89  1  0
 88 87  1  0
 90 93  1  1
 90 91  1  0
 92 90  1  0
M  ISO  4  14 100  22 100  52 101  53 101
M  END
>  <TORSDO>  (45) 
F 17

>  <SCORE>  (45) 
-14.538

>  <name>  (45) 
44

>  <ligand_id>  (45) 
44

>  <original_smiles>  (45) 
[H]C(=C1C([H])([H])c2c([H])c(C([H])([H])[H])c(N([H])C(=O)N3C([H])([H])C([H])([H])C([H])([H])C([H])(n4nc(-c5c([H])c([H])c(Oc6c([H])c([H])c(F)c([H])c6F)c([H])c5[H])c(C(=O)N([H])[H])c4N([H])[H])C3([H])[H])c([H])c2C([H])([H])C1([H])C([H])([H])[H])C([H])([H])Oc1c([H])c([H])c2c(c1[H])C([H])([H])N(C(=O)C([H])(N([H])C(=O)C([H])(N([H])C([H])([H])[H])C([H])([H])[H])C(C([H])([H])[H])(C([H])([H])[H])C([H])([H])[H])C([H])(C(=O)N([H])C1([H])c3c([H])c([H])c([H])c([H])c3C([H])([H])C([H])([H])C1([H])[H])C2([H])[H]

>  <smiles>  (45) 
[H]C(=C1C([H])([H])c2c([H])c(C([H])([H])[H])c(N([H])C(=O)N3C([H])([H])C([H])([H])C([H])([H])C([H])(n4nc(-c5c([H])c([H])c(Oc6c([H])c([H])c(F)c([H])c6F)c([H])c5[H])c(C(=O)N([H])[H])c4N([H])[H])C3([H])[H])c([H])c2C([H])([H])C1([H])C([H])([H])[H])C([H])([H])Oc1c([H])c([H])c2c(c1[H])C([H])([H])N(C(=O)C([H])(N([H])C(=O)C([H])(N([H])C([H])([H])[H])C([H])([H])[H])C(C([H])([H])[H])(C([H])([H])[H])C([H])([H])[H])C([H])(C(=O)N([H])C1([H])c3c([H])c([H])c([H])c([H])c3C([H])([H])C([H])([H])C1([H])[H])C2([H])[H]

$$$$
45:0:0
     RDKit          3D

 94103  0  0  1  0  0  0  0  0999 V2000
  -30.2530  -18.1050    7.8300 C   0  0  0  0  0  3  0  0  0  0  0  0
  -32.4030  -19.3160    7.5900 C   0  0  0  0  0  0  0  0  0  0  0  0
  -31.0710  -19.0420    7.2060 C   0  0  0  0  0  0  0  0  0  0  0  0
  -30.6890  -17.5190    9.0100 C   0  0  0  0  0  0  0  0  0  0  0  0
  -32.9670  -18.5730    8.7740 C   0  0  0  0  0  0  0  0  0  0  0  0
  -31.9730  -17.8320    9.5260 C   0  0  0  0  0  0  0  0  0  0  0  0
  -32.7820  -20.4420    6.5500 C   0  0  0  0  0  0  0  0  0  0  0  0
  -31.5710  -20.8170    5.6300 C   0  0  0  0  0  0  0  0  0  0  0  0
  -31.2280  -21.6690    4.5620 C   0  0  0  0  0  3  0  0  0  0  0  0
  -30.4980  -19.8730    6.0970 C   0  0  0  0  0  2  0  0  0  0  0  0
  -29.6990  -16.6080    9.7360 C   0  0  0  0  0  1  0  0  0  0  0  0
  -32.1630  -17.4500   10.9880 C   0  0  0  0  0  1  0  0  0  0  0  0
  -33.8910  -20.9760    6.4840 O   0  0  0  0  0  0  0  0  0  0  0  0
  -34.4810  -18.5000    9.3710 C   0  0  0  0  0  2  0  0  0  0  0  0
  -35.5790  -20.6430   10.7050 C   0  0  0  0  0  0  0  0  0  0  0  0
  -37.0870  -21.7710   12.3830 C   0  0  0  0  0  2  0  0  0  0  0  0
  -38.0330  -20.7000   12.9720 C   0  0  0  0  0  2  0  0  0  0  0  0
  -37.3510  -19.9610   14.1460 C   0  0  0  0  0  2  0  0  0  0  0  0
  -35.9000  -19.5160   13.8170 C   0  0  0  0  0  3  0  0  0  0  0  0
  -35.1060  -20.6820   13.1950 C   0  0  0  0  0  2  0  0  0  0  0  0
  -35.8340  -21.0840   11.9890 N   0  0  0  0  0  0  0  0  0  0  0  0
  -36.0860  -21.2510    9.7540 O   0  0  0  0  0  0  0  0  0  0  0  0
  -34.9210  -19.4140   10.5580 N   0  0  0  0  0  0  0  0  0  0  0  0
  -34.6490  -19.0270   11.4480 H   0  0  0  0  0  0  0  0  0  0  0  0
  -34.4160  -17.8170   15.0400 C   0  0  0  0  0  0  0  0  0  0  0  0
  -34.0790  -17.6730   16.3570 C   0  0  0  0  0  0  0  0  0  0  0  0
  -34.7120  -18.7540   17.0460 C   0  0  0  0  0  0  0  0  0  0  0  0
  -35.2150  -18.9460   14.9710 N   0  0  0  0  0  0  0  0  0  0  0  0
  -35.3420  -19.5440   16.1830 N   0  0  0  0  0  0  0  0  0  0  0  0
  -34.8060  -19.0410   18.4840 C   0  0  0  0  0  0  0  0  0  0  0  0
  -33.6820  -19.4720   19.2220 C   0  0  0  0  0  3  0  0  0  0  0  0
  -33.7890  -19.7260   20.6040 C   0  0  0  0  0  3  0  0  0  0  0  0
  -35.0280  -19.5510   21.2660 C   0  0  0  0  0  0  0  0  0  0  0  0
  -36.1500  -19.1390   20.5240 C   0  0  0  0  0  3  0  0  0  0  0  0
  -36.0440  -18.8890   19.1450 C   0  0  0  0  0  3  0  0  0  0  0  0
  -35.2320  -19.8020   22.6010 O   0  0  0  0  0  0  0  0  0  0  0  0
  -36.3490  -20.4610   23.0490 C   0  0  0  0  0  0  0  0  0  0  0  0
  -36.4810  -21.8620   22.9320 C   0  0  0  0  0  3  0  0  0  0  0  0
  -37.6140  -22.5090   23.4650 C   0  0  0  0  0  3  0  0  0  0  0  0
  -38.6080  -21.7610   24.1230 C   0  0  0  0  0  0  0  0  0  0  0  0
  -38.4770  -20.3660   24.2440 C   0  0  0  0  0  3  0  0  0  0  0  0
  -37.3480  -19.7190   23.7090 C   0  0  0  0  0  0  0  0  0  0  0  0
  -37.2140  -18.3780   23.8480 F   0  0  0  0  0  0  0  0  0  0  0  0
  -39.6920  -22.3820   24.6440 F   0  0  0  0  0  0  0  0  0  0  0  0
  -33.3010  -16.5390   16.9600 C   0  0  0  0  0  0  0  0  0  0  0  0
  -31.9910  -16.5060   16.7410 N   0  0  0  0  0  0  0  0  0  0  0  0
  -33.8610  -15.6440   17.5920 O   0  0  0  0  0  0  0  0  0  0  0  0
  -31.5260  -17.2290   16.2120 H   0  0  0  0  0  0  0  0  0  0  0  0
  -31.4430  -15.7410   17.1070 H   0  0  0  0  0  0  0  0  0  0  0  0
  -34.1340  -17.0640   13.9040 N   0  0  0  0  0  0  0  0  0  0  0  0
  -33.6020  -16.2050   13.9720 H   0  0  0  0  0  0  0  0  0  0  0  0
  -34.5360  -17.2010   12.9880 H   0  0  0  0  0  0  0  0  0  0  0  0
  -31.8600  -22.7270    3.5660 C   0  0  0  0  0  2  0  0  0  0  0  0
  -31.4880  -24.2000    3.6420 O   0  0  0  0  0  0  0  0  0  0  0  0
  -30.9010  -30.9120    6.3420 C   0  0  0  0  0  0  0  0  0  0  0  0
  -31.4540  -25.0150    4.8030 C   0  0  0  0  0  0  0  0  0  0  0  0
  -31.9000  -29.2080    7.8210 C   0  0  0  0  0  3  0  0  0  0  0  0
  -31.5970  -26.7620    7.0910 C   0  0  0  0  0  0  0  0  0  0  0  0
  -30.1750  -28.5260    6.0430 C   0  0  0  0  0  2  0  0  0  0  0  0
  -30.8440  -27.1520    5.9780 C   0  0  0  0  0  0  0  0  0  0  0  0
  -30.7630  -26.2780    4.8440 C   0  0  0  0  0  3  0  0  0  0  0  0
  -32.1550  -24.6520    5.9720 C   0  0  0  0  0  3  0  0  0  0  0  0
  -32.2420  -25.5130    7.0900 C   0  0  0  0  0  3  0  0  0  0  0  0
  -31.6900  -27.7310    8.2570 C   0  0  0  0  0  2  0  0  0  0  0  0
  -30.9890  -29.5960    6.6970 N   0  0  0  0  0  0  0  0  0  0  0  0
  -31.5380  -31.7900    6.9440 O   0  0  0  0  0  0  0  0  0  0  0  0
  -33.3980  -29.4330    7.5000 C   0  0  0  0  0  0  0  0  0  0  0  0
  -34.0460  -30.3490    8.2390 N   0  0  0  0  0  0  0  0  0  0  0  0
  -33.9580  -28.7720    6.6210 O   0  0  0  0  0  0  0  0  0  0  0  0
  -33.5210  -30.8570    8.9370 H   0  0  0  0  0  0  0  0  0  0  0  0
  -36.3930  -33.0850    7.9290 C   0  0  0  0  0  0  0  0  0  0  0  0
  -35.4700  -30.6790    8.1400 C   0  0  0  0  0  3  0  0  0  0  0  0
  -36.1430  -30.6540    9.5320 C   0  0  0  0  0  2  0  0  0  0  0  0
  -36.1610  -32.0260   10.2150 C   0  0  0  0  0  2  0  0  0  0  0  0
  -36.9190  -33.0420    9.3550 C   0  0  0  0  0  2  0  0  0  0  0  0
  -35.6970  -31.9820    7.3660 C   0  0  0  0  0  0  0  0  0  0  0  0
  -35.1940  -32.0870    6.0490 C   0  0  0  0  0  3  0  0  0  0  0  0
  -35.3760  -33.2660    5.3030 C   0  0  0  0  0  3  0  0  0  0  0  0
  -36.0800  -34.3490    5.8580 C   0  0  0  0  0  3  0  0  0  0  0  0
  -36.5920  -34.2530    7.1640 C   0  0  0  0  0  3  0  0  0  0  0  0
  -29.9800  -31.3830    5.1730 C   0  0  0  0  0  3  0  0  0  0  0  0
  -28.6280  -31.5720    5.7210 N   0  0  0  0  0  0  0  0  0  0  0  0
  -27.5280  -30.9560    5.2700 C   0  0  0  0  0  0  0  0  0  0  0  0
  -27.5370  -30.2040    4.2920 O   0  0  0  0  0  0  0  0  0  0  0  0
  -28.5580  -32.1240    6.5630 H   0  0  0  0  0  0  0  0  0  0  0  0
  -25.6840  -29.8940    6.6140 C   0  0  0  0  0  1  0  0  0  0  0  0
  -26.2090  -31.2120    6.0240 C   0  0  0  0  0  3  0  0  0  0  0  0
  -25.5540  -33.1140    4.6150 C   0  0  0  0  0  1  0  0  0  0  0  0
  -25.1600  -31.8270    5.1820 N   0  0  0  0  0  0  0  0  0  0  0  0
  -24.3040  -31.9620    5.7130 H   0  0  0  0  0  0  0  0  0  0  0  0
  -30.4860  -32.7080    4.4800 C   0  0  1  0  0  0  0  0  0  0  0  0
  -30.3270  -33.9680    5.3600 C   0  0  0  0  0  1  0  0  0  0  0  0
  -31.9780  -32.5910    4.0900 C   0  0  0  0  0  1  0  0  0  0  0  0
  -29.7040  -32.9420    3.1650 C   0  0  0  0  0  1  0  0  0  0  0  0
  1  4  1  0
  2  5  2  0
  3  2  1  0
  3  1  2  0
  4  6  2  0
  4 11  1  0
  5 14  1  0
  5  6  1  0
  6 12  1  0
  7  2  1  0
  8 10  1  0
  8  7  1  0
  9  8  2  0
 10  3  1  0
 13  7  2  0
 14 23  1  0
 15 21  1  0
 16 17  1  0
 17 18  1  0
 19 20  1  0
 19 18  1  0
 19 28  1  0
 21 16  1  0
 21 20  1  0
 22 15  2  0
 23 15  1  0
 23 24  1  0
 25 26  2  0
 26 45  1  0
 26 27  1  0
 27 30  1  0
 28 25  1  0
 28 29  1  0
 29 27  2  0
 30 35  2  0
 30 31  1  0
 31 32  2  0
 32 33  1  0
 33 36  1  0
 34 33  2  0
 35 34  1  0
 36 37  1  0
 37 42  1  0
 38 37  2  0
 38 39  1  0
 39 40  2  0
 40 41  1  0
 40 44  1  0
 42 43  1  0
 42 41  2  0
 45 47  2  0
 46 45  1  0
 46 49  1  0
 48 46  1  0
 50 51  1  0
 50 25  1  0
 52 50  1  0
 53 54  1  0
 53  9  1  0
 54 56  1  0
 55 65  1  0
 55 66  2  0
 56 61  2  0
 56 62  1  0
 57 67  1  0
 57 64  1  0
 58 64  1  0
 59 65  1  0
 60 59  1  0
 60 58  2  0
 61 60  1  0
 62 63  2  0
 63 58  1  0
 65 57  1  0
 67 68  1  0
 68 70  1  0
 69 67  2  0
 71 75  1  0
 72 68  1  0
 72 73  1  0
 73 74  1  0
 75 74  1  0
 76 71  1  0
 76 72  1  0
 77 76  2  0
 78 79  2  0
 78 77  1  0
 79 80  1  0
 80 71  2  0
 81 82  1  0
 81 55  1  0
 82 85  1  0
 83 82  1  0
 83 87  1  0
 84 83  2  0
 87 86  1  0
 88 89  1  0
 89 90  1  0
 89 87  1  0
 91 81  1  0
 91 92  1  1
 93 91  1  0
 94 91  1  0
M  ISO  4  15 100  23 100  53 101  54 101
M  END
>  <TORSDO>  (46) 
F 18

>  <SCORE>  (46) 
-4.421

>  <name>  (46) 
45

>  <ligand_id>  (46) 
45

>  <original_smiles>  (46) 
[H]C(=C1C(=O)c2c(c([H])c(C([H])([H])[H])c(C([H])([H])[H])c2C([H])([H])N([H])C(=O)N2C([H])([H])C([H])([H])C([H])([H])C([H])(n3nc(-c4c([H])c([H])c(Oc5c([H])c([H])c(F)c([H])c5F)c([H])c4[H])c(C(=O)N([H])[H])c3N([H])[H])C2([H])[H])C1([H])[H])C([H])([H])Oc1c([H])c([H])c2c(c1[H])C([H])([H])N(C(=O)C([H])(N([H])C(=O)C([H])(N([H])C([H])([H])[H])C([H])([H])[H])C(C([H])([H])[H])(C([H])([H])[H])C([H])([H])[H])C([H])(C(=O)N([H])C1([H])c3c([H])c([H])c([H])c([H])c3C([H])([H])C([H])([H])C1([H])[H])C2([H])[H]

>  <smiles>  (46) 
[H]C(=C1C(=O)c2c(c([H])c(C([H])([H])[H])c(C([H])([H])[H])c2C([H])([H])N([H])C(=O)N2C([H])([H])C([H])([H])C([H])([H])C([H])(n3nc(-c4c([H])c([H])c(Oc5c([H])c([H])c(F)c([H])c5F)c([H])c4[H])c(C(=O)N([H])[H])c3N([H])[H])C2([H])[H])C1([H])[H])C([H])([H])Oc1c([H])c([H])c2c(c1[H])C([H])([H])N(C(=O)C([H])(N([H])C(=O)C([H])(N([H])C([H])([H])[H])C([H])([H])[H])C(C([H])([H])[H])(C([H])([H])[H])C([H])([H])[H])C([H])(C(=O)N([H])C1([H])c3c([H])c([H])c([H])c([H])c3C([H])([H])C([H])([H])C1([H])[H])C2([H])[H]

$$$$
46:0:0
     RDKit          3D

 95104  0  0  1  0  0  0  0  0999 V2000
  -28.5910  -19.9670   19.0980 C   0  0  0  0  0  3  0  0  0  0  0  0
  -29.9000  -21.4610   20.4620 C   0  0  0  0  0  0  0  0  0  0  0  0
  -29.6440  -20.1050   20.0320 C   0  0  0  0  0  0  0  0  0  0  0  0
  -27.8930  -21.0820   18.5920 C   0  0  0  0  0  3  0  0  0  0  0  0
  -29.1500  -22.5790   19.9500 C   0  0  0  0  0  0  0  0  0  0  0  0
  -31.0200  -21.7280   21.4600 C   0  0  0  0  0  1  0  0  0  0  0  0
  -26.7890  -20.9370   17.5640 C   0  0  0  0  0  1  0  0  0  0  0  0
  -28.2110  -22.3210   19.0130 N   0  0  0  0  0  0  0  0  0  0  0  0
  -27.7070  -23.1070   18.6010 H   0  0  0  0  0  0  0  0  0  0  0  0
  -29.6980  -17.9330   21.2720 C   0  0  0  0  0  2  0  0  0  0  0  0
  -30.7680  -17.9050   19.5170 C   0  0  0  0  0  2  0  0  0  0  0  0
  -30.7580  -16.9460   20.7280 C   0  0  0  0  0  3  0  0  0  0  0  0
  -30.4060  -18.9560   20.4890 N   0  0  0  0  0  0  0  0  0  0  0  0
  -30.9920  -14.4910   20.0710 C   0  0  0  0  0  0  0  0  0  0  0  0
  -30.6580  -12.2750   19.0110 C   0  0  0  0  0  2  0  0  0  0  0  0
  -29.6590  -12.4230   17.8450 C   0  0  0  0  0  2  0  0  0  0  0  0
  -28.2060  -12.2970   18.3480 C   0  0  0  0  0  2  0  0  0  0  0  0
  -27.9250  -13.1760   19.5950 C   0  0  0  0  0  3  0  0  0  0  0  0
  -29.0350  -13.0070   20.6590 C   0  0  0  0  0  2  0  0  0  0  0  0
  -30.3220  -13.3030   20.0110 N   0  0  0  0  0  0  0  0  0  0  0  0
  -32.1270  -14.6320   19.6090 O   0  0  0  0  0  0  0  0  0  0  0  0
  -30.2810  -15.5540   20.5170 N   0  0  0  0  0  0  0  0  0  0  0  0
  -29.3400  -15.3520   20.8180 H   0  0  0  0  0  0  0  0  0  0  0  0
  -25.5940  -13.8250   20.4660 C   0  0  0  0  0  0  0  0  0  0  0  0
  -24.5270  -13.0720   20.8750 C   0  0  0  0  0  0  0  0  0  0  0  0
  -24.9460  -11.7100   20.7790 C   0  0  0  0  0  0  0  0  0  0  0  0
  -26.5970  -12.9230   20.1480 N   0  0  0  0  0  0  0  0  0  0  0  0
  -26.2140  -11.6430   20.3960 N   0  0  0  0  0  0  0  0  0  0  0  0
  -24.1930  -10.4630   20.9740 C   0  0  0  0  0  0  0  0  0  0  0  0
  -24.6170   -9.4840   21.9000 C   0  0  0  0  0  3  0  0  0  0  0  0
  -23.8680   -8.3010   22.0840 C   0  0  0  0  0  3  0  0  0  0  0  0
  -22.6820   -8.0910   21.3410 C   0  0  0  0  0  0  0  0  0  0  0  0
  -22.2780   -9.0570   20.4040 C   0  0  0  0  0  3  0  0  0  0  0  0
  -23.0260  -10.2320   20.2190 C   0  0  0  0  0  3  0  0  0  0  0  0
  -21.9040   -6.9620   21.4350 O   0  0  0  0  0  0  0  0  0  0  0  0
  -21.8080   -6.2480   22.6030 C   0  0  0  0  0  0  0  0  0  0  0  0
  -21.2770   -6.8140   23.7820 C   0  0  0  0  0  3  0  0  0  0  0  0
  -21.1340   -6.0240   24.9390 C   0  0  0  0  0  3  0  0  0  0  0  0
  -21.5110   -4.6670   24.9180 C   0  0  0  0  0  0  0  0  0  0  0  0
  -22.0350   -4.1000   23.7430 C   0  0  0  0  0  3  0  0  0  0  0  0
  -22.1810   -4.8880   22.5870 C   0  0  0  0  0  0  0  0  0  0  0  0
  -22.6660   -4.3310   21.4530 F   0  0  0  0  0  0  0  0  0  0  0  0
  -21.3660   -3.9060   26.0270 F   0  0  0  0  0  0  0  0  0  0  0  0
  -23.1620  -13.5800   21.2400 C   0  0  0  0  0  0  0  0  0  0  0  0
  -22.4640  -12.8810   22.1280 N   0  0  0  0  0  0  0  0  0  0  0  0
  -22.7260  -14.6310   20.7730 O   0  0  0  0  0  0  0  0  0  0  0  0
  -22.8300  -12.0300   22.5300 H   0  0  0  0  0  0  0  0  0  0  0  0
  -21.5490  -13.2020   22.4120 H   0  0  0  0  0  0  0  0  0  0  0  0
  -25.7880  -15.1950   20.3160 N   0  0  0  0  0  0  0  0  0  0  0  0
  -25.0370  -15.8590   20.4720 H   0  0  0  0  0  0  0  0  0  0  0  0
  -26.6110  -15.6180   19.9080 H   0  0  0  0  0  0  0  0  0  0  0  0
  -30.5810  -24.5940   19.3700 C   0  0  0  0  0  1  0  0  0  0  0  0
  -29.4370  -24.0880   20.2630 C   0  0  0  0  0  3  0  0  0  0  0  0
  -28.1940  -25.0510   20.1500 C   0  0  0  0  0  2  0  0  0  0  0  0
  -28.3770  -26.4820   20.4200 O   0  0  0  0  0  0  0  0  0  0  0  0
  -24.6420  -31.9040   23.3050 C   0  0  0  0  0  0  0  0  0  0  0  0
  -27.2440  -27.2990   20.3510 C   0  0  0  0  0  0  0  0  0  0  0  0
  -23.4380  -30.4880   21.6780 C   0  0  0  0  0  3  0  0  0  0  0  0
  -24.8850  -28.9040   20.2970 C   0  0  0  0  0  0  0  0  0  0  0  0
  -25.9800  -30.7870   21.5110 C   0  0  0  0  0  2  0  0  0  0  0  0
  -26.0510  -29.4000   20.8920 C   0  0  0  0  0  0  0  0  0  0  0  0
  -27.2340  -28.6090   20.9100 C   0  0  0  0  0  3  0  0  0  0  0  0
  -26.0490  -26.8450   19.7390 C   0  0  0  0  0  3  0  0  0  0  0  0
  -24.8840  -27.6300   19.7130 C   0  0  0  0  0  3  0  0  0  0  0  0
  -23.6560  -29.7850   20.3140 C   0  0  0  0  0  2  0  0  0  0  0  0
  -24.7050  -31.0760   22.2220 N   0  0  0  0  0  0  0  0  0  0  0  0
  -23.5560  -32.2020   23.8230 O   0  0  0  0  0  0  0  0  0  0  0  0
  -22.7580  -29.4940   22.6490 C   0  0  0  0  0  0  0  0  0  0  0  0
  -21.4360  -29.3050   22.4920 N   0  0  0  0  0  0  0  0  0  0  0  0
  -23.4170  -28.8950   23.5020 O   0  0  0  0  0  0  0  0  0  0  0  0
  -20.9650  -29.8410   21.7760 H   0  0  0  0  0  0  0  0  0  0  0  0
  -18.0460  -28.1340   22.9510 C   0  0  0  0  0  0  0  0  0  0  0  0
  -20.5990  -28.3900   23.2670 C   0  0  0  0  0  3  0  0  0  0  0  0
  -20.7060  -26.9450   22.7280 C   0  0  0  0  0  2  0  0  0  0  0  0
  -19.6240  -26.6010   21.6990 C   0  0  0  0  0  2  0  0  0  0  0  0
  -18.2300  -26.7690   22.3100 C   0  0  0  0  0  2  0  0  0  0  0  0
  -19.1590  -28.9020   23.3840 C   0  0  0  0  0  0  0  0  0  0  0  0
  -18.9340  -30.1800   23.9410 C   0  0  0  0  0  3  0  0  0  0  0  0
  -17.6280  -30.6900   24.0660 C   0  0  0  0  0  3  0  0  0  0  0  0
  -16.5290  -29.9200   23.6490 C   0  0  0  0  0  3  0  0  0  0  0  0
  -16.7390  -28.6430   23.0970 C   0  0  0  0  0  3  0  0  0  0  0  0
  -25.9270  -32.5310   23.9270 C   0  0  0  0  0  3  0  0  0  0  0  0
  -26.4360  -31.7610   25.2070 C   0  0  1  0  0  0  0  0  0  0  0  0
  -25.3350  -31.5200   26.2660 C   0  0  0  0  0  1  0  0  0  0  0  0
  -27.0270  -30.3860   24.8200 C   0  0  0  0  0  1  0  0  0  0  0  0
  -27.5790  -32.5600   25.8780 C   0  0  0  0  0  1  0  0  0  0  0  0
  -25.6230  -33.9310   24.2500 N   0  0  0  0  0  0  0  0  0  0  0  0
  -25.9240  -34.9760   23.4690 C   0  0  0  0  0  0  0  0  0  0  0  0
  -26.5600  -34.8640   22.4170 O   0  0  0  0  0  0  0  0  0  0  0  0
  -25.0530  -34.0930   25.0680 H   0  0  0  0  0  0  0  0  0  0  0  0
  -24.1730  -36.7530   23.1570 C   0  0  0  0  0  1  0  0  0  0  0  0
  -25.4470  -36.3690   23.9260 C   0  0  0  0  0  3  0  0  0  0  0  0
  -27.5960  -37.2900   24.6740 C   0  0  0  0  0  1  0  0  0  0  0  0
  -26.4670  -37.4260   23.7570 N   0  0  0  0  0  0  0  0  0  0  0  0
  -26.0590  -38.3470   23.8910 H   0  0  0  0  0  0  0  0  0  0  0  0
  1  3  2  0
  2  6  1  0
  3  2  1  0
  3 13  1  0
  4  7  1  0
  4  8  1  0
  4  1  1  0
  5 53  1  0
  5  2  2  0
  8  5  1  0
  9  8  1  0
 11 13  1  0
 11 12  1  0
 12 22  1  0
 12 10  1  0
 13 10  1  0
 14 22  1  0
 15 20  1  0
 16 17  1  0
 16 15  1  0
 18 17  1  0
 18 27  1  0
 18 19  1  0
 20 14  1  0
 20 19  1  0
 21 14  2  0
 22 23  1  0
 24 25  2  0
 25 44  1  0
 26 25  1  0
 26 29  1  0
 27 28  1  0
 27 24  1  0
 28 26  2  0
 29 30  1  0
 30 31  2  0
 32 35  1  0
 32 31  1  0
 33 32  2  0
 34 33  1  0
 34 29  2  0
 35 36  1  0
 36 37  1  0
 37 38  2  0
 39 38  1  0
 39 43  1  0
 40 39  2  0
 41 36  2  0
 41 40  1  0
 42 41  1  0
 44 45  1  0
 45 48  1  0
 45 47  1  0
 46 44  2  0
 49 24  1  0
 49 50  1  0
 51 49  1  0
 53 52  1  0
 54 53  1  0
 54 55  1  0
 56 67  2  0
 57 55  1  0
 57 62  1  0
 58 66  1  0
 58 68  1  0
 59 65  1  0
 59 61  1  0
 60 66  1  0
 61 62  2  0
 61 60  1  0
 63 57  2  0
 64 63  1  0
 64 59  2  0
 65 58  1  0
 66 56  1  0
 68 70  2  0
 69 68  1  0
 71 69  1  0
 72 81  2  0
 72 77  1  0
 73 69  1  0
 73 77  1  0
 74 73  1  0
 75 76  1  0
 75 74  1  0
 76 72  1  0
 77 78  2  0
 78 79  1  0
 80 79  2  0
 81 80  1  0
 82 56  1  0
 82 87  1  0
 82 83  1  0
 83 86  1  1
 83 84  1  0
 85 83  1  0
 87 90  1  0
 88 92  1  0
 88 87  1  0
 89 88  2  0
 92 91  1  0
 94 95  1  0
 94 92  1  0
 94 93  1  0
M  ISO  4  14 100  22 100  54 101  55 101
M  END
>  <TORSDO>  (47) 
F 19

>  <SCORE>  (47) 
-14.180

>  <name>  (47) 
46

>  <ligand_id>  (47) 
46

>  <original_smiles>  (47) 
[H]c1c([H])c([H])c2c(c1[H])C([H])([H])C([H])([H])C([H])([H])C2([H])N([H])C(=O)C1([H])N(C(=O)C([H])(N([H])C(=O)C([H])(N([H])C([H])([H])[H])C([H])([H])[H])C(C([H])([H])[H])(C([H])([H])[H])C([H])([H])[H])C([H])([H])c2c([H])c(OC([H])([H])C([H])(c3c(C([H])([H])[H])c(N4C([H])([H])C([H])(N([H])C(=O)N5C([H])([H])C([H])([H])C([H])([H])C([H])(n6nc(-c7c([H])c([H])c(Oc8c([H])c([H])c(F)c([H])c8F)c([H])c7[H])c(C(=O)N([H])[H])c6N([H])[H])C5([H])[H])C4([H])[H])c([H])c(C([H])([H])[H])[n+]3[H])C([H])([H])[H])c([H])c([H])c2C1([H])[H]

>  <smiles>  (47) 
[H]c1c([H])c([H])c2c(c1[H])C([H])([H])C([H])([H])C([H])([H])C2([H])N([H])C(=O)C1([H])N(C(=O)C([H])(N([H])C(=O)C([H])(N([H])C([H])([H])[H])C([H])([H])[H])C(C([H])([H])[H])(C([H])([H])[H])C([H])([H])[H])C([H])([H])c2c([H])c(OC([H])([H])C([H])(c3c(C([H])([H])[H])c(N4C([H])([H])C([H])(N([H])C(=O)N5C([H])([H])C([H])([H])C([H])([H])C([H])(n6nc(-c7c([H])c([H])c(Oc8c([H])c([H])c(F)c([H])c8F)c([H])c7[H])c(C(=O)N([H])[H])c6N([H])[H])C5([H])[H])C4([H])[H])c([H])c(C([H])([H])[H])[n+]3[H])C([H])([H])[H])c([H])c([H])c2C1([H])[H]

$$$$
47:0:0
     RDKit          3D

 93104  0  0  1  0  0  0  0  0999 V2000
  -28.6780  -21.8790   19.8940 C   0  0  0  0  0  3  0  0  0  0  0  0
  -30.2470  -23.5130   20.6580 C   0  0  0  0  0  3  0  0  0  0  0  0
  -29.5690  -20.7140   20.2150 C   0  0  0  0  0  0  0  0  0  0  0  0
  -28.9630  -23.3330   20.1290 C   0  0  0  0  0  0  0  0  0  0  0  0
  -30.7640  -21.1860   20.8290 C   0  0  0  0  0  0  0  0  0  0  0  0
  -31.0870  -22.4960   20.9890 N   0  0  0  0  0  0  0  0  0  0  0  0
  -30.7040  -15.1680   19.9040 C   0  0  0  0  0  0  0  0  0  0  0  0
  -30.5310  -12.8120   18.9430 C   0  0  0  0  0  2  0  0  0  0  0  0
  -29.5170  -12.7230   17.7760 C   0  0  0  0  0  2  0  0  0  0  0  0
  -28.0830  -12.5020   18.2990 C   0  0  0  0  0  2  0  0  0  0  0  0
  -27.7470  -13.4090   19.5130 C   0  0  0  0  0  3  0  0  0  0  0  0
  -28.8840  -13.4280   20.5600 C   0  0  0  0  0  2  0  0  0  0  0  0
  -30.0880  -13.9060   19.8650 N   0  0  0  0  0  0  0  0  0  0  0  0
  -31.8680  -15.1900   19.4810 O   0  0  0  0  0  0  0  0  0  0  0  0
  -27.8750  -18.7060   19.6400 C   0  0  0  0  0  2  0  0  0  0  0  0
  -28.9010  -16.7250   21.0380 C   0  0  0  0  0  2  0  0  0  0  0  0
  -30.3980  -17.8890   19.7050 C   0  0  0  0  0  2  0  0  0  0  0  0
  -28.4210  -18.2000   20.9430 C   0  0  0  0  0  3  0  0  0  0  0  0
  -29.2940  -19.0540   20.0380 C   0  0  1  0  0  0  0  0  0  0  0  0
  -30.0100  -16.4230   20.1010 N   0  0  0  0  0  0  0  0  0  0  0  0
  -25.4430  -13.9460   20.4870 C   0  0  0  0  0  0  0  0  0  0  0  0
  -24.4080  -13.1540   20.9030 C   0  0  0  0  0  0  0  0  0  0  0  0
  -24.8600  -11.8060   20.7560 C   0  0  0  0  0  0  0  0  0  0  0  0
  -26.4560  -13.0810   20.1080 N   0  0  0  0  0  0  0  0  0  0  0  0
  -26.1210  -11.7840   20.3330 N   0  0  0  0  0  0  0  0  0  0  0  0
  -24.1400  -10.5380   20.9400 C   0  0  0  0  0  0  0  0  0  0  0  0
  -24.5740   -9.5660   21.8680 C   0  0  0  0  0  3  0  0  0  0  0  0
  -23.8530   -8.3670   22.0430 C   0  0  0  0  0  3  0  0  0  0  0  0
  -22.6790   -8.1300   21.2890 C   0  0  0  0  0  0  0  0  0  0  0  0
  -22.2620   -9.0890   20.3530 C   0  0  0  0  0  3  0  0  0  0  0  0
  -22.9860  -10.2810   20.1760 C   0  0  0  0  0  3  0  0  0  0  0  0
  -21.9250   -6.9840   21.3730 O   0  0  0  0  0  0  0  0  0  0  0  0
  -21.7790   -6.3050   22.5560 C   0  0  0  0  0  0  0  0  0  0  0  0
  -21.2090   -6.9090   23.6990 C   0  0  0  0  0  3  0  0  0  0  0  0
  -21.0150   -6.1520   24.8710 C   0  0  0  0  0  3  0  0  0  0  0  0
  -21.3780   -4.7920   24.9000 C   0  0  0  0  0  0  0  0  0  0  0  0
  -21.9370   -4.1890   23.7620 C   0  0  0  0  0  3  0  0  0  0  0  0
  -22.1360   -4.9420   22.5920 C   0  0  0  0  0  0  0  0  0  0  0  0
  -22.6570   -4.3470   21.4920 F   0  0  0  0  0  0  0  0  0  0  0  0
  -21.1840   -4.0640   26.0250 F   0  0  0  0  0  0  0  0  0  0  0  0
  -23.0420  -13.6230   21.3170 C   0  0  0  0  0  0  0  0  0  0  0  0
  -22.3870  -12.8970   22.2150 N   0  0  0  0  0  0  0  0  0  0  0  0
  -22.5670  -14.6690   20.8790 O   0  0  0  0  0  0  0  0  0  0  0  0
  -22.7850  -12.0510   22.5940 H   0  0  0  0  0  0  0  0  0  0  0  0
  -21.4780  -13.2010   22.5360 H   0  0  0  0  0  0  0  0  0  0  0  0
  -25.6020  -15.3230   20.3850 N   0  0  0  0  0  0  0  0  0  0  0  0
  -24.8980  -15.9680   20.7250 H   0  0  0  0  0  0  0  0  0  0  0  0
  -26.4640  -15.7810   20.1210 H   0  0  0  0  0  0  0  0  0  0  0  0
  -31.4170  -19.4080   22.6250 C   0  0  0  0  0  2  0  0  0  0  0  0
  -32.3970  -20.5310   22.7890 C   0  0  0  0  0  2  0  0  0  0  0  0
  -31.7880  -20.2630   21.4240 C   0  0  0  0  0  3  0  0  0  0  0  0
  -27.9750  -24.6610   19.8770 C   0  0  0  0  0  2  0  0  0  0  0  0
  -28.2480  -26.1850   20.1940 O   0  0  0  0  0  0  0  0  0  0  0  0
  -24.6330  -31.8950   23.2560 C   0  0  0  0  0  0  0  0  0  0  0  0
  -27.2070  -27.2040   20.1310 C   0  0  0  0  0  0  0  0  0  0  0  0
  -23.4300  -30.5250   21.5990 C   0  0  0  0  0  3  0  0  0  0  0  0
  -24.8780  -28.9770   20.1360 C   0  0  0  0  0  0  0  0  0  0  0  0
  -25.9860  -30.7860   21.4370 C   0  0  0  0  0  2  0  0  0  0  0  0
  -26.0600  -29.4040   20.7520 C   0  0  0  0  0  0  0  0  0  0  0  0
  -27.2230  -28.5350   20.7320 C   0  0  0  0  0  3  0  0  0  0  0  0
  -25.9960  -26.8950   19.4700 C   0  0  0  0  0  3  0  0  0  0  0  0
  -24.8630  -27.7390   19.4760 C   0  0  0  0  0  3  0  0  0  0  0  0
  -23.6500  -29.8760   20.2050 C   0  0  0  0  0  2  0  0  0  0  0  0
  -24.7030  -31.0910   22.1510 N   0  0  0  0  0  0  0  0  0  0  0  0
  -23.5480  -32.1720   23.7900 O   0  0  0  0  0  0  0  0  0  0  0  0
  -22.7550  -29.5030   22.5460 C   0  0  0  0  0  0  0  0  0  0  0  0
  -21.4290  -29.3210   22.4170 N   0  0  0  0  0  0  0  0  0  0  0  0
  -23.4290  -28.8740   23.3670 O   0  0  0  0  0  0  0  0  0  0  0  0
  -20.9400  -29.8820   21.7340 H   0  0  0  0  0  0  0  0  0  0  0  0
  -18.0540  -28.0930   22.9100 C   0  0  0  0  0  0  0  0  0  0  0  0
  -20.6130  -28.3690   23.1740 C   0  0  0  0  0  3  0  0  0  0  0  0
  -20.7200  -26.9460   22.5800 C   0  0  0  0  0  2  0  0  0  0  0  0
  -19.6170  -26.6310   21.5630 C   0  0  0  0  0  2  0  0  0  0  0  0
  -18.2370  -26.7560   22.2120 C   0  0  0  0  0  2  0  0  0  0  0  0
  -19.1680  -28.8580   23.3480 C   0  0  0  0  0  0  0  0  0  0  0  0
  -18.9410  -30.1070   23.9630 C   0  0  0  0  0  3  0  0  0  0  0  0
  -17.6320  -30.5940   24.1470 C   0  0  0  0  0  3  0  0  0  0  0  0
  -16.5330  -29.8270   23.7230 C   0  0  0  0  0  3  0  0  0  0  0  0
  -16.7440  -28.5790   23.1100 C   0  0  0  0  0  3  0  0  0  0  0  0
  -25.9120  -32.5240   23.8900 C   0  0  0  0  0  3  0  0  0  0  0  0
  -25.6110  -33.9290   24.2090 N   0  0  0  0  0  0  0  0  0  0  0  0
  -25.9170  -34.9740   23.4290 C   0  0  0  0  0  0  0  0  0  0  0  0
  -26.5490  -34.8590   22.3760 O   0  0  0  0  0  0  0  0  0  0  0  0
  -25.0430  -34.0930   25.0280 H   0  0  0  0  0  0  0  0  0  0  0  0
  -24.1570  -36.7550   23.1530 C   0  0  0  0  0  1  0  0  0  0  0  0
  -25.4490  -36.3700   23.8910 C   0  0  0  0  0  3  0  0  0  0  0  0
  -27.6220  -37.2900   24.5750 C   0  0  0  0  0  1  0  0  0  0  0  0
  -26.4640  -37.4290   23.6960 N   0  0  0  0  0  0  0  0  0  0  0  0
  -26.0580  -38.3480   23.8490 H   0  0  0  0  0  0  0  0  0  0  0  0
  -26.4040  -31.7620   25.1830 C   0  0  1  0  0  0  0  0  0  0  0  0
  -25.2960  -31.5500   26.2420 C   0  0  0  0  0  1  0  0  0  0  0  0
  -26.9800  -30.3720   24.8240 C   0  0  0  0  0  1  0  0  0  0  0  0
  -27.5500  -32.5560   25.8510 C   0  0  0  0  0  1  0  0  0  0  0  0
  1  4  2  0
  1  3  1  0
  2  6  2  0
  3  5  2  0
  4  2  1  0
  5  6  1  0
  5 51  1  0
  7 20  1  0
  8 13  1  0
  9 10  1  0
  9  8  1  0
 11 10  1  0
 11 24  1  0
 11 12  1  0
 13  7  1  0
 13 12  1  0
 14  7  2  0
 15 19  1  0
 17 19  1  0
 17 20  1  0
 18 15  1  0
 18 16  1  0
 19  3  1  1
 19 18  1  0
 20 16  1  0
 21 22  2  0
 22 41  1  0
 23 22  1  0
 23 26  1  0
 24 25  1  0
 24 21  1  0
 25 23  2  0
 26 27  1  0
 27 28  2  0
 29 32  1  0
 29 28  1  0
 30 29  2  0
 31 30  1  0
 31 26  2  0
 32 33  1  0
 33 38  2  0
 33 34  1  0
 34 35  2  0
 35 36  1  0
 36 40  1  0
 37 36  2  0
 38 37  1  0
 39 38  1  0
 41 42  1  0
 42 45  1  0
 42 44  1  0
 43 41  2  0
 46 21  1  0
 46 47  1  0
 48 46  1  0
 49 50  1  0
 51 49  1  0
 51 50  1  0
 52  4  1  0
 52 53  1  0
 54 65  2  0
 55 53  1  0
 55 60  1  0
 56 64  1  0
 56 66  1  0
 57 63  1  0
 57 59  1  0
 58 64  1  0
 59 58  1  0
 60 59  2  0
 61 62  1  0
 61 55  2  0
 62 57  2  0
 63 56  1  0
 64 54  1  0
 66 68  2  0
 67 66  1  0
 69 67  1  0
 70 79  2  0
 70 75  1  0
 71 67  1  0
 71 75  1  0
 72 71  1  0
 73 74  1  0
 73 72  1  0
 74 70  1  0
 75 76  2  0
 76 77  1  0
 78 77  2  0
 79 78  1  0
 80 54  1  0
 80 81  1  0
 80 90  1  0
 81 84  1  0
 82 86  1  0
 82 81  1  0
 83 82  2  0
 86 85  1  0
 88 89  1  0
 88 86  1  0
 88 87  1  0
 90 93  1  1
 90 91  1  0
 92 90  1  0
M  ISO  4   7 100  20 100  52 101  53 101
M  END
>  <TORSDO>  (48) 
F 18

>  <SCORE>  (48) 
-14.520

>  <name>  (48) 
47

>  <ligand_id>  (48) 
47

>  <original_smiles>  (48) 
[H]c1nc(C2([H])C([H])([H])C2([H])[H])c(C23C([H])([H])N(C(=O)N4C([H])([H])C([H])([H])C([H])([H])C([H])(n5nc(-c6c([H])c([H])c(Oc7c([H])c([H])c(F)c([H])c7F)c([H])c6[H])c(C(=O)N([H])[H])c5N([H])[H])C4([H])[H])C([H])([H])C2([H])C3([H])[H])c([H])c1C([H])([H])Oc1c([H])c([H])c2c(c1[H])C([H])([H])N(C(=O)C([H])(N([H])C(=O)C([H])(N([H])C([H])([H])[H])C([H])([H])[H])C(C([H])([H])[H])(C([H])([H])[H])C([H])([H])[H])C([H])(C(=O)N([H])C1([H])c3c([H])c([H])c([H])c([H])c3C([H])([H])C([H])([H])C1([H])[H])C2([H])[H]

>  <smiles>  (48) 
[H]c1nc(C2([H])C([H])([H])C2([H])[H])c(C23C([H])([H])N(C(=O)N4C([H])([H])C([H])([H])C([H])([H])C([H])(n5nc(-c6c([H])c([H])c(Oc7c([H])c([H])c(F)c([H])c7F)c([H])c6[H])c(C(=O)N([H])[H])c5N([H])[H])C4([H])[H])C([H])([H])C2([H])C3([H])[H])c([H])c1C([H])([H])Oc1c([H])c([H])c2c(c1[H])C([H])([H])N(C(=O)C([H])(N([H])C(=O)C([H])(N([H])C([H])([H])[H])C([H])([H])[H])C(C([H])([H])[H])(C([H])([H])[H])C([H])([H])[H])C([H])(C(=O)N([H])C1([H])c3c([H])c([H])c([H])c([H])c3C([H])([H])C([H])([H])C1([H])[H])C2([H])[H]

$$$$
48:0:0
     RDKit          3D

 92101  0  0  1  0  0  0  0  0999 V2000
  -29.3800  -21.6210   21.3430 C   0  0  0  0  0  3  0  0  0  0  0  0
  -29.1440  -23.0390   21.1850 C   0  0  0  0  0  3  0  0  0  0  0  0
  -29.2060  -20.6640   20.2840 C   0  0  0  0  0  0  0  0  0  0  0  0
  -28.7640  -21.3130   19.0770 C   0  0  0  0  0  0  0  0  0  0  0  0
  -28.6910  -23.5770   19.9500 C   0  0  0  0  0  0  0  0  0  0  0  0
  -28.5070  -22.6640   18.9510 N   0  0  0  0  0  0  0  0  0  0  0  0
  -30.7070  -14.8500   20.4940 C   0  0  0  0  0  0  0  0  0  0  0  0
  -30.4620  -12.5520   19.5150 C   0  0  0  0  0  2  0  0  0  0  0  0
  -29.5610  -12.5520   18.2640 C   0  0  0  0  0  2  0  0  0  0  0  0
  -28.0910  -12.3460   18.6730 C   0  0  0  0  0  2  0  0  0  0  0  0
  -27.6700  -13.2730   19.8420 C   0  0  0  0  0  3  0  0  0  0  0  0
  -28.7090  -13.3010   20.9880 C   0  0  0  0  0  2  0  0  0  0  0  0
  -30.0010  -13.6600   20.3950 N   0  0  0  0  0  0  0  0  0  0  0  0
  -31.9210  -14.7970   20.2710 O   0  0  0  0  0  0  0  0  0  0  0  0
  -30.4200  -18.6910   21.4130 C   0  0  0  0  0  2  0  0  0  0  0  0
  -28.4440  -18.1950   20.2110 C   0  0  0  0  0  2  0  0  0  0  0  0
  -31.0300  -17.2700   21.0680 C   0  0  0  0  0  2  0  0  0  0  0  0
  -28.8700  -16.6480   20.0980 C   0  0  0  0  0  2  0  0  0  0  0  0
  -29.5000  -19.2190   20.3940 N   0  0  0  0  0  0  0  0  0  0  0  0
  -30.1260  -16.1220   20.7240 N   0  0  0  0  0  0  0  0  0  0  0  0
  -25.2760  -13.8530   20.5410 C   0  0  0  0  0  0  0  0  0  0  0  0
  -24.2080  -13.0750   20.8920 C   0  0  0  0  0  0  0  0  0  0  0  0
  -24.6770  -11.7270   20.8730 C   0  0  0  0  0  0  0  0  0  0  0  0
  -26.3260  -12.9770   20.3230 N   0  0  0  0  0  0  0  0  0  0  0  0
  -25.9740  -11.6930   20.5900 N   0  0  0  0  0  0  0  0  0  0  0  0
  -23.9510  -10.4630   21.0460 C   0  0  0  0  0  0  0  0  0  0  0  0
  -24.3530   -9.5050   22.0020 C   0  0  0  0  0  3  0  0  0  0  0  0
  -23.6280   -8.3060   22.1640 C   0  0  0  0  0  3  0  0  0  0  0  0
  -22.4840   -8.0550   21.3680 C   0  0  0  0  0  0  0  0  0  0  0  0
  -22.1020   -9.0020   20.4010 C   0  0  0  0  0  3  0  0  0  0  0  0
  -22.8290  -10.1930   20.2380 C   0  0  0  0  0  3  0  0  0  0  0  0
  -21.7310   -6.9090   21.4380 O   0  0  0  0  0  0  0  0  0  0  0  0
  -21.6250   -6.1880   22.6010 C   0  0  0  0  0  0  0  0  0  0  0  0
  -21.0910   -6.7520   23.7800 C   0  0  0  0  0  3  0  0  0  0  0  0
  -20.9340   -5.9560   24.9320 C   0  0  0  0  0  3  0  0  0  0  0  0
  -21.3020   -4.5970   24.9050 C   0  0  0  0  0  0  0  0  0  0  0  0
  -21.8280   -4.0330   23.7300 C   0  0  0  0  0  3  0  0  0  0  0  0
  -21.9860   -4.8270   22.5800 C   0  0  0  0  0  0  0  0  0  0  0  0
  -22.4740   -4.2730   21.4430 F   0  0  0  0  0  0  0  0  0  0  0  0
  -21.1440   -3.8300   26.0100 F   0  0  0  0  0  0  0  0  0  0  0  0
  -22.8030  -13.5500   21.1300 C   0  0  0  0  0  0  0  0  0  0  0  0
  -22.0550  -12.8500   21.9740 N   0  0  0  0  0  0  0  0  0  0  0  0
  -22.3790  -14.5770   20.6010 O   0  0  0  0  0  0  0  0  0  0  0  0
  -22.4100  -12.0210   22.4250 H   0  0  0  0  0  0  0  0  0  0  0  0
  -21.1120  -13.1520   22.1750 H   0  0  0  0  0  0  0  0  0  0  0  0
  -25.4310  -15.2230   20.3610 N   0  0  0  0  0  0  0  0  0  0  0  0
  -24.6520  -15.8660   20.4490 H   0  0  0  0  0  0  0  0  0  0  0  0
  -26.2700  -15.6620   20.0110 H   0  0  0  0  0  0  0  0  0  0  0  0
  -27.9870  -20.9580   16.7120 C   0  0  0  0  0  2  0  0  0  0  0  0
  -28.5960  -20.5320   17.8340 C   0  0  0  0  0  3  0  0  0  0  0  0
  -28.5570  -25.1300   19.5000 C   0  0  0  0  0  2  0  0  0  0  0  0
  -28.3630  -26.3480   20.3730 O   0  0  0  0  0  0  0  0  0  0  0  0
  -24.6090  -31.8730   23.2630 C   0  0  0  0  0  0  0  0  0  0  0  0
  -27.2650  -27.2460   20.2510 C   0  0  0  0  0  0  0  0  0  0  0  0
  -23.4320  -30.4640   21.6160 C   0  0  0  0  0  3  0  0  0  0  0  0
  -24.9030  -28.9070   20.2060 C   0  0  0  0  0  0  0  0  0  0  0  0
  -25.9780  -30.7700   21.4670 C   0  0  0  0  0  2  0  0  0  0  0  0
  -26.0670  -29.3840   20.8210 C   0  0  0  0  0  0  0  0  0  0  0  0
  -27.2450  -28.5640   20.8360 C   0  0  0  0  0  3  0  0  0  0  0  0
  -26.0690  -26.8390   19.6180 C   0  0  0  0  0  3  0  0  0  0  0  0
  -24.9110  -27.6430   19.5950 C   0  0  0  0  0  3  0  0  0  0  0  0
  -23.6660  -29.7850   20.2400 C   0  0  0  0  0  2  0  0  0  0  0  0
  -24.6920  -31.0550   22.1710 N   0  0  0  0  0  0  0  0  0  0  0  0
  -23.5180  -32.1510   23.7810 O   0  0  0  0  0  0  0  0  0  0  0  0
  -22.7570  -29.4520   22.5740 C   0  0  0  0  0  0  0  0  0  0  0  0
  -21.4300  -29.2800   22.4410 N   0  0  0  0  0  0  0  0  0  0  0  0
  -23.4280  -28.8250   23.3970 O   0  0  0  0  0  0  0  0  0  0  0  0
  -20.9480  -29.8390   21.7510 H   0  0  0  0  0  0  0  0  0  0  0  0
  -18.0420  -28.1050   22.9430 C   0  0  0  0  0  0  0  0  0  0  0  0
  -20.6040  -28.3450   23.2080 C   0  0  0  0  0  3  0  0  0  0  0  0
  -20.6930  -26.9160   22.6240 C   0  0  0  0  0  2  0  0  0  0  0  0
  -19.5870  -26.6070   21.6110 C   0  0  0  0  0  2  0  0  0  0  0  0
  -18.2070  -26.7590   22.2580 C   0  0  0  0  0  2  0  0  0  0  0  0
  -19.1680  -28.8560   23.3740 C   0  0  0  0  0  0  0  0  0  0  0  0
  -18.9590  -30.1160   23.9760 C   0  0  0  0  0  3  0  0  0  0  0  0
  -17.6580  -30.6250   24.1490 C   0  0  0  0  0  3  0  0  0  0  0  0
  -16.5470  -29.8700   23.7330 C   0  0  0  0  0  3  0  0  0  0  0  0
  -16.7400  -28.6120   23.1350 C   0  0  0  0  0  3  0  0  0  0  0  0
  -25.8800  -32.5150   23.9000 C   0  0  0  0  0  3  0  0  0  0  0  0
  -25.5650  -33.9190   24.2060 N   0  0  0  0  0  0  0  0  0  0  0  0
  -25.9110  -34.9630   23.4410 C   0  0  0  0  0  0  0  0  0  0  0  0
  -26.5980  -34.8460   22.4230 O   0  0  0  0  0  0  0  0  0  0  0  0
  -24.9540  -34.0830   24.9930 H   0  0  0  0  0  0  0  0  0  0  0  0
  -24.2020  -36.7640   23.0270 C   0  0  0  0  0  1  0  0  0  0  0  0
  -25.4200  -36.3580   23.8740 C   0  0  0  0  0  3  0  0  0  0  0  0
  -27.5300  -37.2450   24.7600 C   0  0  0  0  0  1  0  0  0  0  0  0
  -26.4600  -37.4050   23.7800 N   0  0  0  0  0  0  0  0  0  0  0  0
  -26.0540  -38.3280   23.9000 H   0  0  0  0  0  0  0  0  0  0  0  0
  -26.3710  -31.7630   25.1990 C   0  0  1  0  0  0  0  0  0  0  0  0
  -25.2580  -31.5440   26.2500 C   0  0  0  0  0  1  0  0  0  0  0  0
  -26.9600  -30.3790   24.8430 C   0  0  0  0  0  1  0  0  0  0  0  0
  -27.5090  -32.5680   25.8700 C   0  0  0  0  0  1  0  0  0  0  0  0
  2  1  1  0
  3 19  1  0
  3  1  2  0
  4  3  1  0
  5  2  2  0
  6  4  2  0
  6  5  1  0
  7 20  1  0
  8 13  1  0
  9 10  1  0
  9  8  1  0
 11 10  1  0
 11 24  1  0
 11 12  1  0
 13  7  1  0
 13 12  1  0
 14  7  2  0
 16 19  1  0
 17 15  1  0
 18 16  1  0
 18 20  1  0
 19 15  1  0
 20 17  1  0
 21 22  2  0
 22 41  1  0
 23 22  1  0
 23 26  1  0
 24 21  1  0
 24 25  1  0
 25 23  2  0
 26 27  1  0
 27 28  2  0
 29 32  1  0
 29 28  1  0
 30 29  2  0
 31 30  1  0
 31 26  2  0
 32 33  1  0
 33 34  1  0
 34 35  2  0
 36 35  1  0
 36 40  1  0
 37 36  2  0
 38 33  2  0
 38 37  1  0
 39 38  1  0
 41 42  1  0
 42 45  1  0
 42 44  1  0
 43 41  2  0
 46 47  1  0
 46 21  1  0
 48 46  1  0
 49 50  2  0
 50  4  1  0
 51  5  1  0
 51 52  1  0
 53 64  2  0
 54 52  1  0
 54 59  1  0
 55 63  1  0
 55 65  1  0
 56 62  1  0
 56 58  1  0
 57 63  1  0
 58 59  2  0
 58 57  1  0
 60 54  2  0
 61 60  1  0
 61 56  2  0
 62 55  1  0
 63 53  1  0
 65 67  2  0
 66 65  1  0
 68 66  1  0
 69 78  2  0
 69 74  1  0
 70 66  1  0
 70 74  1  0
 71 70  1  0
 72 73  1  0
 72 71  1  0
 73 69  1  0
 74 75  2  0
 75 76  1  0
 77 76  2  0
 78 77  1  0
 79 53  1  0
 79 80  1  0
 79 89  1  0
 80 83  1  0
 81 85  1  0
 81 80  1  0
 82 81  2  0
 85 84  1  0
 87 85  1  0
 87 88  1  0
 87 86  1  0
 89 92  1  1
 89 90  1  0
 91 89  1  0
M  ISO  4   7 100  20 100  51 101  52 101
M  END
>  <TORSDO>  (49) 
F 18

>  <SCORE>  (49) 
-14.453

>  <name>  (49) 
48

>  <ligand_id>  (49) 
48

>  <original_smiles>  (49) 
[H]C([H])=C([H])c1nc(C([H])([H])Oc2c([H])c([H])c3c(c2[H])C([H])([H])N(C(=O)C([H])(N([H])C(=O)C([H])(N([H])C([H])([H])[H])C([H])([H])[H])C(C([H])([H])[H])(C([H])([H])[H])C([H])([H])[H])C([H])(C(=O)N([H])C2([H])c4c([H])c([H])c([H])c([H])c4C([H])([H])C([H])([H])C2([H])[H])C3([H])[H])c([H])c([H])c1N1C([H])([H])C([H])([H])N(C(=O)N2C([H])([H])C([H])([H])C([H])([H])C([H])(n3nc(-c4c([H])c([H])c(Oc5c([H])c([H])c(F)c([H])c5F)c([H])c4[H])c(C(=O)N([H])[H])c3N([H])[H])C2([H])[H])C([H])([H])C1([H])[H]

>  <smiles>  (49) 
[H]C([H])=C([H])c1nc(C([H])([H])Oc2c([H])c([H])c3c(c2[H])C([H])([H])N(C(=O)C([H])(N([H])C(=O)C([H])(N([H])C([H])([H])[H])C([H])([H])[H])C(C([H])([H])[H])(C([H])([H])[H])C([H])([H])[H])C([H])(C(=O)N([H])C2([H])c4c([H])c([H])c([H])c([H])c4C([H])([H])C([H])([H])C2([H])[H])C3([H])[H])c([H])c([H])c1N1C([H])([H])C([H])([H])N(C(=O)N2C([H])([H])C([H])([H])C([H])([H])C([H])(n3nc(-c4c([H])c([H])c(Oc5c([H])c([H])c(F)c([H])c5F)c([H])c4[H])c(C(=O)N([H])[H])c3N([H])[H])C2([H])[H])C([H])([H])C1([H])[H]

$$$$
49:0:0
     RDKit          3D

 94104  0  0  1  0  0  0  0  0999 V2000
  -31.1980  -19.2340   21.5560 C   0  0  0  0  0  3  0  0  0  0  0  0
  -30.1570  -19.4910   20.6370 C   0  0  0  0  0  0  0  0  0  0  0  0
  -29.7760  -20.9660   20.5490 C   0  0  0  0  0  0  0  0  0  0  0  0
  -30.5300  -21.8970   21.2930 C   0  0  0  0  0  0  0  0  0  0  0  0
  -31.8260  -20.2650   22.2780 C   0  0  0  0  0  0  0  0  0  0  0  0
  -30.1830  -23.3910   21.1150 C   0  0  0  0  0  2  0  0  0  0  0  0
  -28.7950  -23.4900   20.4460 C   0  0  0  0  0  3  0  0  0  0  0  0
  -28.7070  -21.9370   19.8220 C   0  0  2  0  0  0  0  0  0  0  0  0
  -32.9100  -19.9420   23.2850 C   0  0  0  0  0  1  0  0  0  0  0  0
  -27.2640  -21.4460   20.0250 C   0  0  0  0  0  1  0  0  0  0  0  0
  -29.0240  -21.9760   18.3190 C   0  0  0  0  0  1  0  0  0  0  0  0
  -31.5240  -21.5690   22.1360 N   0  0  0  0  0  0  0  0  0  0  0  0
  -30.5110  -15.3300   20.1170 C   0  0  0  0  0  0  0  0  0  0  0  0
  -30.4380  -12.9430   19.1780 C   0  0  0  0  0  2  0  0  0  0  0  0
  -29.4670  -12.7990   17.9780 C   0  0  0  0  0  2  0  0  0  0  0  0
  -28.0350  -12.4930   18.4610 C   0  0  0  0  0  2  0  0  0  0  0  0
  -27.6130  -13.4260   19.6140 C   0  0  0  0  0  3  0  0  0  0  0  0
  -28.7120  -13.5170   20.7120 C   0  0  0  0  0  2  0  0  0  0  0  0
  -29.9370  -14.0370   20.0710 N   0  0  0  0  0  0  0  0  0  0  0  0
  -31.7120  -15.3790   19.8210 O   0  0  0  0  0  0  0  0  0  0  0  0
  -28.1890  -17.9950   20.1790 C   0  0  0  0  0  2  0  0  0  0  0  0
  -28.2950  -16.5080   20.0520 C   0  0  0  0  0  2  0  0  0  0  0  0
  -29.6600  -18.1170   19.8950 C   0  0  0  0  0  3  0  0  0  0  0  0
  -29.7330  -16.5460   20.2990 N   0  0  0  0  0  0  0  0  0  0  0  0
  -25.2360  -14.0170   20.3810 C   0  0  0  0  0  0  0  0  0  0  0  0
  -24.1910  -13.2400   20.7860 C   0  0  0  0  0  0  0  0  0  0  0  0
  -24.6700  -11.8960   20.7520 C   0  0  0  0  0  0  0  0  0  0  0  0
  -26.2900  -13.1440   20.1430 N   0  0  0  0  0  0  0  0  0  0  0  0
  -25.9560  -11.8640   20.4300 N   0  0  0  0  0  0  0  0  0  0  0  0
  -23.9620  -10.6310   20.9460 C   0  0  0  0  0  0  0  0  0  0  0  0
  -24.4040   -9.6800   21.8900 C   0  0  0  0  0  3  0  0  0  0  0  0
  -23.6950   -8.4760   22.0720 C   0  0  0  0  0  3  0  0  0  0  0  0
  -22.5320   -8.2150   21.3100 C   0  0  0  0  0  0  0  0  0  0  0  0
  -22.1110   -9.1560   20.3530 C   0  0  0  0  0  3  0  0  0  0  0  0
  -22.8220  -10.3520   20.1680 C   0  0  0  0  0  3  0  0  0  0  0  0
  -21.7900   -7.0640   21.4090 O   0  0  0  0  0  0  0  0  0  0  0  0
  -21.7230   -6.3510   22.5780 C   0  0  0  0  0  0  0  0  0  0  0  0
  -21.2120   -6.9170   23.7670 C   0  0  0  0  0  3  0  0  0  0  0  0
  -21.0960   -6.1280   24.9290 C   0  0  0  0  0  3  0  0  0  0  0  0
  -21.4800   -4.7730   24.9020 C   0  0  0  0  0  0  0  0  0  0  0  0
  -21.9850   -4.2080   23.7180 C   0  0  0  0  0  3  0  0  0  0  0  0
  -22.1020   -4.9950   22.5580 C   0  0  0  0  0  0  0  0  0  0  0  0
  -22.5700   -4.4390   21.4140 F   0  0  0  0  0  0  0  0  0  0  0  0
  -21.3610   -4.0110   26.0140 F   0  0  0  0  0  0  0  0  0  0  0  0
  -22.7950  -13.7080   21.0770 C   0  0  0  0  0  0  0  0  0  0  0  0
  -22.0870  -13.0090   21.9570 N   0  0  0  0  0  0  0  0  0  0  0  0
  -22.3400  -14.7290   20.5600 O   0  0  0  0  0  0  0  0  0  0  0  0
  -22.4700  -12.1850   22.3960 H   0  0  0  0  0  0  0  0  0  0  0  0
  -21.1500  -13.3010   22.1980 H   0  0  0  0  0  0  0  0  0  0  0  0
  -25.3430  -15.3840   20.1600 N   0  0  0  0  0  0  0  0  0  0  0  0
  -24.5390  -15.9960   20.2480 H   0  0  0  0  0  0  0  0  0  0  0  0
  -26.1340  -15.8320   19.7220 H   0  0  0  0  0  0  0  0  0  0  0  0
  -28.3570  -24.9300   19.6480 C   0  0  0  0  0  2  0  0  0  0  0  0
  -28.3530  -26.4210   20.1310 O   0  0  0  0  0  0  0  0  0  0  0  0
  -24.6280  -31.9850   23.1920 C   0  0  0  0  0  0  0  0  0  0  0  0
  -27.2600  -27.3690   20.0400 C   0  0  0  0  0  0  0  0  0  0  0  0
  -23.4330  -30.6070   21.5330 C   0  0  0  0  0  3  0  0  0  0  0  0
  -24.8940  -29.0820   20.0600 C   0  0  0  0  0  0  0  0  0  0  0  0
  -25.9810  -30.9110   21.3540 C   0  0  0  0  0  2  0  0  0  0  0  0
  -26.0700  -29.5330   20.6730 C   0  0  0  0  0  0  0  0  0  0  0  0
  -27.2440  -28.6900   20.6510 C   0  0  0  0  0  3  0  0  0  0  0  0
  -26.0580  -27.0320   19.3730 C   0  0  0  0  0  3  0  0  0  0  0  0
  -24.9020  -27.8460   19.3960 C   0  0  0  0  0  3  0  0  0  0  0  0
  -23.6530  -29.9600   20.1380 C   0  0  0  0  0  2  0  0  0  0  0  0
  -24.7010  -31.1900   22.0810 N   0  0  0  0  0  0  0  0  0  0  0  0
  -23.5430  -32.2420   23.7360 O   0  0  0  0  0  0  0  0  0  0  0  0
  -22.7770  -29.5720   22.4800 C   0  0  0  0  0  0  0  0  0  0  0  0
  -21.4570  -29.3600   22.3380 N   0  0  0  0  0  0  0  0  0  0  0  0
  -23.4590  -28.9630   23.3090 O   0  0  0  0  0  0  0  0  0  0  0  0
  -20.9610  -29.9060   21.6460 H   0  0  0  0  0  0  0  0  0  0  0  0
  -18.1160  -28.0240   22.7750 C   0  0  0  0  0  0  0  0  0  0  0  0
  -20.6570  -28.3910   23.0940 C   0  0  0  0  0  3  0  0  0  0  0  0
  -20.8280  -26.9630   22.5240 C   0  0  0  0  0  2  0  0  0  0  0  0
  -19.7610  -26.5940   21.4880 C   0  0  0  0  0  2  0  0  0  0  0  0
  -18.3610  -26.6830   22.1030 C   0  0  0  0  0  2  0  0  0  0  0  0
  -19.1950  -28.8320   23.2260 C   0  0  0  0  0  0  0  0  0  0  0  0
  -18.9100  -30.0830   23.8140 C   0  0  0  0  0  3  0  0  0  0  0  0
  -17.5830  -30.5280   23.9570 C   0  0  0  0  0  3  0  0  0  0  0  0
  -16.5200  -29.7190   23.5200 C   0  0  0  0  0  3  0  0  0  0  0  0
  -16.7870  -28.4680   22.9350 C   0  0  0  0  0  3  0  0  0  0  0  0
  -25.9030  -32.6250   23.8220 C   0  0  0  0  0  3  0  0  0  0  0  0
  -25.5860  -34.0250   24.1500 N   0  0  0  0  0  0  0  0  0  0  0  0
  -25.9190  -35.0810   23.3960 C   0  0  0  0  0  0  0  0  0  0  0  0
  -26.5910  -34.9800   22.3660 O   0  0  0  0  0  0  0  0  0  0  0  0
  -24.9890  -34.1760   24.9490 H   0  0  0  0  0  0  0  0  0  0  0  0
  -24.1950  -36.8820   23.0380 C   0  0  0  0  0  1  0  0  0  0  0  0
  -25.4300  -36.4700   23.8560 C   0  0  0  0  0  3  0  0  0  0  0  0
  -27.5540  -37.3570   24.7110 C   0  0  0  0  0  1  0  0  0  0  0  0
  -26.4650  -37.5230   23.7530 N   0  0  0  0  0  0  0  0  0  0  0  0
  -26.0560  -38.4430   23.8930 H   0  0  0  0  0  0  0  0  0  0  0  0
  -26.4100  -31.8630   25.1070 C   0  0  1  0  0  0  0  0  0  0  0  0
  -25.3100  -31.6300   26.1710 C   0  0  0  0  0  1  0  0  0  0  0  0
  -26.9980  -30.4830   24.7340 C   0  0  0  0  0  1  0  0  0  0  0  0
  -27.5540  -32.6630   25.7730 C   0  0  0  0  0  1  0  0  0  0  0  0
  1  5  1  0
  2  1  2  0
  3  2  1  0
  3  4  2  0
  4 12  1  0
  5  9  1  0
  6  4  1  0
  7 53  1  0
  7  6  1  0
  8 10  1  6
  8  7  1  0
  8  3  1  0
 11  8  1  0
 12  5  2  0
 13 24  1  0
 14 19  1  0
 15 16  1  0
 15 14  1  0
 17 16  1  0
 17 28  1  0
 17 18  1  0
 19 13  1  0
 19 18  1  0
 20 13  2  0
 22 21  1  0
 22 24  1  0
 23 21  1  0
 23 24  1  0
 23  2  1  0
 25 26  2  0
 26 45  1  0
 27 26  1  0
 27 30  1  0
 28 25  1  0
 28 29  1  0
 29 27  2  0
 30 31  1  0
 31 32  2  0
 33 36  1  0
 33 32  1  0
 34 33  2  0
 35 34  1  0
 35 30  2  0
 36 37  1  0
 37 38  1  0
 38 39  2  0
 40 39  1  0
 40 44  1  0
 41 40  2  0
 42 37  2  0
 42 41  1  0
 43 42  1  0
 45 46  1  0
 46 49  1  0
 46 48  1  0
 47 45  2  0
 50 51  1  0
 50 25  1  0
 52 50  1  0
 53 54  1  0
 55 66  2  0
 56 54  1  0
 56 61  1  0
 57 65  1  0
 57 67  1  0
 58 64  1  0
 58 60  1  0
 59 65  1  0
 60 59  1  0
 61 60  2  0
 62 63  1  0
 62 56  2  0
 63 58  2  0
 64 57  1  0
 65 55  1  0
 67 69  2  0
 68 67  1  0
 70 68  1  0
 71 80  2  0
 71 76  1  0
 72 68  1  0
 72 76  1  0
 73 72  1  0
 74 75  1  0
 74 73  1  0
 75 71  1  0
 76 77  2  0
 77 78  1  0
 79 78  2  0
 80 79  1  0
 81 55  1  0
 81 82  1  0
 81 91  1  0
 82 85  1  0
 83 87  1  0
 83 82  1  0
 84 83  2  0
 87 86  1  0
 89 87  1  0
 89 90  1  0
 89 88  1  0
 91 94  1  1
 91 92  1  0
 93 91  1  0
M  ISO  4  13 100  24 100  53 101  54 101
M  END
>  <TORSDO>  (50) 
F 17

>  <SCORE>  (50) 
-15.771

>  <name>  (50) 
49

>  <ligand_id>  (50) 
49

>  <original_smiles>  (50) 
[H]c1c([H])c([H])c2c(c1[H])C([H])([H])C([H])([H])C([H])([H])C2([H])N([H])C(=O)C1([H])N(C(=O)C([H])(N([H])C(=O)C([H])(N([H])C([H])([H])[H])C([H])([H])[H])C(C([H])([H])[H])(C([H])([H])[H])C([H])([H])[H])C([H])([H])c2c([H])c(OC([H])([H])C3([H])C([H])([H])c4nc(C([H])([H])[H])c([H])c(C5([H])N(C(=O)N6C([H])([H])C([H])([H])C([H])([H])C([H])(n7nc(-c8c([H])c([H])c(Oc9c([H])c([H])c(F)c([H])c9F)c([H])c8[H])c(C(=O)N([H])[H])c7N([H])[H])C6([H])[H])C([H])([H])C5([H])[H])c4C3(C([H])([H])[H])C([H])([H])[H])c([H])c([H])c2C1([H])[H]

>  <smiles>  (50) 
[H]c1c([H])c([H])c2c(c1[H])C([H])([H])C([H])([H])C([H])([H])C2([H])N([H])C(=O)C1([H])N(C(=O)C([H])(N([H])C(=O)C([H])(N([H])C([H])([H])[H])C([H])([H])[H])C(C([H])([H])[H])(C([H])([H])[H])C([H])([H])[H])C([H])([H])c2c([H])c(OC([H])([H])C3([H])C([H])([H])c4nc(C([H])([H])[H])c([H])c(C5([H])N(C(=O)N6C([H])([H])C([H])([H])C([H])([H])C([H])(n7nc(-c8c([H])c([H])c(Oc9c([H])c([H])c(F)c([H])c9F)c([H])c8[H])c(C(=O)N([H])[H])c7N([H])[H])C6([H])[H])C([H])([H])C5([H])[H])c4C3(C([H])([H])[H])C([H])([H])[H])c([H])c([H])c2C1([H])[H]

$$$$
50:0:0
     RDKit          3D

 94104  0  0  1  0  0  0  0  0999 V2000
  -29.3330  -23.0700   21.0610 C   0  0  0  0  0  0  0  0  0  0  0  0
  -28.6120  -23.5710   19.9290 C   0  0  0  0  0  0  0  0  0  0  0  0
  -29.6040  -21.6430   21.2300 C   0  0  0  0  0  0  0  0  0  0  0  0
  -28.1700  -22.5060   19.0740 C   0  0  0  0  0  0  0  0  0  0  0  0
  -29.0910  -20.6570   20.3130 C   0  0  0  0  0  0  0  0  0  0  0  0
  -29.8410  -24.0730   22.0890 C   0  0  0  0  0  1  0  0  0  0  0  0
  -30.5010  -21.1930   22.3820 C   0  0  0  0  0  1  0  0  0  0  0  0
  -27.4380  -22.8020   17.7770 C   0  0  0  0  0  1  0  0  0  0  0  0
  -28.3760  -21.1610   19.2740 N   0  0  0  0  0  0  0  0  0  0  0  0
  -30.6140  -14.8360   20.0500 C   0  0  0  0  0  0  0  0  0  0  0  0
  -30.3370  -12.5690   19.0220 C   0  0  0  0  0  2  0  0  0  0  0  0
  -29.3450  -12.6340   17.8430 C   0  0  0  0  0  2  0  0  0  0  0  0
  -27.8990  -12.4520   18.3440 C   0  0  0  0  0  2  0  0  0  0  0  0
  -27.5820  -13.3280   19.5860 C   0  0  0  0  0  3  0  0  0  0  0  0
  -28.6960  -13.2640   20.6510 C   0  0  0  0  0  2  0  0  0  0  0  0
  -29.9460  -13.6310   19.9820 N   0  0  0  0  0  0  0  0  0  0  0  0
  -31.7970  -14.8590   19.6910 O   0  0  0  0  0  0  0  0  0  0  0  0
  -31.2500  -18.0240   20.2930 C   0  0  0  0  0  2  0  0  0  0  0  0
  -29.2110  -18.3580   19.1340 C   0  0  0  0  0  2  0  0  0  0  0  0
  -29.5400  -16.8020   21.3560 C   0  0  0  0  0  2  0  0  0  0  0  0
  -30.3440  -17.2590   19.3350 C   0  0  0  0  0  3  0  0  0  0  0  0
  -30.0760  -18.3040   21.2020 C   0  0  0  0  0  3  0  0  0  0  0  0
  -29.2090  -19.1860   20.3660 N   0  0  0  0  0  0  0  0  0  0  0  0
  -29.9010  -16.0500   20.1100 N   0  0  0  0  0  0  0  0  0  0  0  0
  -25.2480  -13.8990   20.4690 C   0  0  0  0  0  0  0  0  0  0  0  0
  -24.1990  -13.1190   20.8720 C   0  0  0  0  0  0  0  0  0  0  0  0
  -24.6520  -11.7670   20.7740 C   0  0  0  0  0  0  0  0  0  0  0  0
  -26.2710  -13.0240   20.1460 N   0  0  0  0  0  0  0  0  0  0  0  0
  -25.9240  -11.7340   20.3940 N   0  0  0  0  0  0  0  0  0  0  0  0
  -23.9290  -10.5020   20.9660 C   0  0  0  0  0  0  0  0  0  0  0  0
  -24.3720   -9.5320   21.8910 C   0  0  0  0  0  3  0  0  0  0  0  0
  -23.6520   -8.3330   22.0720 C   0  0  0  0  0  3  0  0  0  0  0  0
  -22.4710   -8.0950   21.3280 C   0  0  0  0  0  0  0  0  0  0  0  0
  -22.0450   -9.0550   20.3920 C   0  0  0  0  0  3  0  0  0  0  0  0
  -22.7670  -10.2450   20.2090 C   0  0  0  0  0  3  0  0  0  0  0  0
  -21.7190   -6.9490   21.4190 O   0  0  0  0  0  0  0  0  0  0  0  0
  -21.6350   -6.2350   22.5860 C   0  0  0  0  0  0  0  0  0  0  0  0
  -21.1540   -6.8120   23.7820 C   0  0  0  0  0  3  0  0  0  0  0  0
  -21.0200   -6.0230   24.9400 C   0  0  0  0  0  3  0  0  0  0  0  0
  -21.3540   -4.6560   24.9060 C   0  0  0  0  0  0  0  0  0  0  0  0
  -21.8270   -4.0780   23.7140 C   0  0  0  0  0  3  0  0  0  0  0  0
  -21.9630   -4.8650   22.5560 C   0  0  0  0  0  0  0  0  0  0  0  0
  -22.4000   -4.2980   21.4070 F   0  0  0  0  0  0  0  0  0  0  0  0
  -21.2180   -3.8950   26.0160 F   0  0  0  0  0  0  0  0  0  0  0  0
  -22.8220  -13.5940   21.2330 C   0  0  0  0  0  0  0  0  0  0  0  0
  -22.1380  -12.8740   22.1120 N   0  0  0  0  0  0  0  0  0  0  0  0
  -22.3660  -14.6400   20.7720 O   0  0  0  0  0  0  0  0  0  0  0  0
  -22.5200  -12.0280   22.5090 H   0  0  0  0  0  0  0  0  0  0  0  0
  -21.2170  -13.1730   22.4000 H   0  0  0  0  0  0  0  0  0  0  0  0
  -25.4150  -15.2730   20.3270 N   0  0  0  0  0  0  0  0  0  0  0  0
  -24.6680  -15.9350   20.5090 H   0  0  0  0  0  0  0  0  0  0  0  0
  -26.2640  -15.7150   19.9960 H   0  0  0  0  0  0  0  0  0  0  0  0
  -28.4850  -25.1250   19.4450 C   0  0  0  0  0  2  0  0  0  0  0  0
  -28.3290  -26.3670   20.2930 O   0  0  0  0  0  0  0  0  0  0  0  0
  -24.6400  -31.9080   23.2320 C   0  0  0  0  0  0  0  0  0  0  0  0
  -27.2320  -27.2680   20.1910 C   0  0  0  0  0  0  0  0  0  0  0  0
  -23.4330  -30.4990   21.6060 C   0  0  0  0  0  3  0  0  0  0  0  0
  -24.8800  -28.9390   20.1760 C   0  0  0  0  0  0  0  0  0  0  0  0
  -25.9790  -30.7990   21.4180 C   0  0  0  0  0  2  0  0  0  0  0  0
  -26.0550  -29.4140   20.7710 C   0  0  0  0  0  0  0  0  0  0  0  0
  -27.2290  -28.5890   20.7700 C   0  0  0  0  0  3  0  0  0  0  0  0
  -26.0210  -26.8610   19.5860 C   0  0  0  0  0  3  0  0  0  0  0  0
  -24.8680  -27.6730   19.5770 C   0  0  0  0  0  3  0  0  0  0  0  0
  -23.6450  -29.8210   20.2270 C   0  0  0  0  0  2  0  0  0  0  0  0
  -24.7030  -31.0890   22.1410 N   0  0  0  0  0  0  0  0  0  0  0  0
  -23.5570  -32.1900   23.7670 O   0  0  0  0  0  0  0  0  0  0  0  0
  -22.7730  -29.4880   22.5750 C   0  0  0  0  0  0  0  0  0  0  0  0
  -21.4470  -29.3020   22.4490 N   0  0  0  0  0  0  0  0  0  0  0  0
  -23.4530  -28.8740   23.4020 O   0  0  0  0  0  0  0  0  0  0  0  0
  -20.9570  -29.8480   21.7550 H   0  0  0  0  0  0  0  0  0  0  0  0
  -18.0780  -28.0820   22.9620 C   0  0  0  0  0  0  0  0  0  0  0  0
  -20.6350  -28.3650   23.2280 C   0  0  0  0  0  3  0  0  0  0  0  0
  -20.7480  -26.9290   22.6700 C   0  0  0  0  0  2  0  0  0  0  0  0
  -19.6510  -26.5870   21.6570 C   0  0  0  0  0  2  0  0  0  0  0  0
  -18.2650  -26.7300   22.2940 C   0  0  0  0  0  2  0  0  0  0  0  0
  -19.1910  -28.8570   23.3850 C   0  0  0  0  0  0  0  0  0  0  0  0
  -18.9610  -30.1220   23.9690 C   0  0  0  0  0  3  0  0  0  0  0  0
  -17.6530  -30.6130   24.1330 C   0  0  0  0  0  3  0  0  0  0  0  0
  -16.5540  -29.8360   23.7250 C   0  0  0  0  0  3  0  0  0  0  0  0
  -16.7680  -28.5720   23.1460 C   0  0  0  0  0  3  0  0  0  0  0  0
  -25.9210  -32.5490   23.8470 C   0  0  0  0  0  3  0  0  0  0  0  0
  -25.6050  -33.9480   24.1800 N   0  0  0  0  0  0  0  0  0  0  0  0
  -25.9180  -35.0030   23.4170 C   0  0  0  0  0  0  0  0  0  0  0  0
  -26.5750  -34.9060   22.3780 O   0  0  0  0  0  0  0  0  0  0  0  0
  -25.0220  -34.0990   24.9900 H   0  0  0  0  0  0  0  0  0  0  0  0
  -24.1760  -36.7890   23.0840 C   0  0  0  0  0  1  0  0  0  0  0  0
  -25.4260  -36.3880   23.8830 C   0  0  0  0  0  3  0  0  0  0  0  0
  -27.5650  -37.2800   24.6940 C   0  0  0  0  0  1  0  0  0  0  0  0
  -26.4480  -37.4510   23.7680 N   0  0  0  0  0  0  0  0  0  0  0  0
  -26.0350  -38.3640   23.9350 H   0  0  0  0  0  0  0  0  0  0  0  0
  -26.4470  -31.7850   25.1240 C   0  0  1  0  0  0  0  0  0  0  0  0
  -25.3580  -31.5460   26.1960 C   0  0  0  0  0  1  0  0  0  0  0  0
  -27.0360  -30.4090   24.7390 C   0  0  0  0  0  1  0  0  0  0  0  0
  -27.5950  -32.5880   25.7800 C   0  0  0  0  0  1  0  0  0  0  0  0
  1  3  1  0
  1  6  1  0
  2  1  2  0
  3  7  1  0
  4  9  2  0
  4  2  1  0
  5 23  1  0
  5  3  2  0
  8  4  1  0
  9  5  1  0
 10 24  1  0
 11 16  1  0
 12 13  1  0
 12 11  1  0
 14 13  1  0
 14 28  1  0
 14 15  1  0
 16 10  1  0
 16 15  1  0
 17 10  2  0
 19 23  1  0
 21 19  1  0
 21 24  1  0
 21 18  1  0
 22 18  1  0
 22 20  1  0
 23 22  1  0
 24 20  1  0
 25 26  2  0
 26 45  1  0
 27 26  1  0
 27 30  1  0
 28 29  1  0
 28 25  1  0
 29 27  2  0
 30 31  1  0
 31 32  2  0
 33 36  1  0
 33 32  1  0
 34 33  2  0
 35 34  1  0
 35 30  2  0
 36 37  1  0
 37 38  1  0
 38 39  2  0
 40 39  1  0
 40 44  1  0
 41 40  2  0
 42 37  2  0
 42 41  1  0
 43 42  1  0
 45 46  1  0
 46 49  1  0
 46 48  1  0
 47 45  2  0
 50 25  1  0
 50 51  1  0
 52 50  1  0
 53  2  1  0
 53 54  1  0
 55 66  2  0
 56 54  1  0
 56 61  1  0
 57 65  1  0
 57 67  1  0
 58 64  1  0
 58 60  1  0
 59 65  1  0
 60 59  1  0
 61 60  2  0
 62 56  2  0
 63 62  1  0
 63 58  2  0
 64 57  1  0
 65 55  1  0
 67 69  2  0
 68 67  1  0
 70 68  1  0
 71 80  2  0
 71 76  1  0
 72 68  1  0
 72 76  1  0
 73 72  1  0
 74 75  1  0
 74 73  1  0
 75 71  1  0
 76 77  2  0
 77 78  1  0
 79 78  2  0
 80 79  1  0
 81 55  1  0
 81 82  1  0
 81 91  1  0
 82 85  1  0
 83 87  1  0
 83 82  1  0
 84 83  2  0
 87 86  1  0
 89 87  1  0
 89 90  1  0
 89 88  1  0
 91 94  1  1
 91 92  1  0
 93 91  1  0
M  ISO  4  10 100  24 100  53 101  54 101
M  END
>  <TORSDO>  (51) 
F 17

>  <SCORE>  (51) 
-15.468

>  <name>  (51) 
50

>  <ligand_id>  (51) 
50

>  <original_smiles>  (51) 
[H]c1c([H])c([H])c2c(c1[H])C([H])([H])C([H])([H])C([H])([H])C2([H])N([H])C(=O)C1([H])N(C(=O)C([H])(N([H])C(=O)C([H])(N([H])C([H])([H])[H])C([H])([H])[H])C(C([H])([H])[H])(C([H])([H])[H])C([H])([H])[H])C([H])([H])c2c([H])c(OC([H])([H])c3c(C([H])([H])[H])nc(N4C([H])([H])C5([H])N(C(=O)N6C([H])([H])C([H])([H])C([H])([H])C([H])(n7nc(-c8c([H])c([H])c(Oc9c([H])c([H])c(F)c([H])c9F)c([H])c8[H])c(C(=O)N([H])[H])c7N([H])[H])C6([H])[H])C([H])([H])C4([H])C5([H])[H])c(C([H])([H])[H])c3C([H])([H])[H])c([H])c([H])c2C1([H])[H]

>  <smiles>  (51) 
[H]c1c([H])c([H])c2c(c1[H])C([H])([H])C([H])([H])C([H])([H])C2([H])N([H])C(=O)C1([H])N(C(=O)C([H])(N([H])C(=O)C([H])(N([H])C([H])([H])[H])C([H])([H])[H])C(C([H])([H])[H])(C([H])([H])[H])C([H])([H])[H])C([H])([H])c2c([H])c(OC([H])([H])c3c(C([H])([H])[H])nc(N4C([H])([H])C5([H])N(C(=O)N6C([H])([H])C([H])([H])C([H])([H])C([H])(n7nc(-c8c([H])c([H])c(Oc9c([H])c([H])c(F)c([H])c9F)c([H])c8[H])c(C(=O)N([H])[H])c7N([H])[H])C6([H])[H])C([H])([H])C4([H])C5([H])[H])c(C([H])([H])[H])c3C([H])([H])[H])c([H])c([H])c2C1([H])[H]

$$$$
51:0:0
     RDKit          3D

 96105  0  0  1  0  0  0  0  0999 V2000
  -29.0680  -22.5990   20.7930 C   0  0  0  0  0  3  0  0  0  0  0  0
  -29.6940  -18.9320   18.7040 C   0  0  0  0  0  3  0  0  0  0  0  0
  -29.3390  -21.3120   20.1770 C   0  0  0  0  0  0  0  0  0  0  0  0
  -28.6630  -23.7760   20.0420 C   0  0  0  0  0  0  0  0  0  0  0  0
  -29.9370  -18.8310   20.0930 C   0  0  0  0  0  0  0  0  0  0  0  0
  -29.7520  -20.0760   20.8320 C   0  0  0  0  0  0  0  0  0  0  0  0
  -28.5820  -23.5620   18.6430 C   0  0  0  0  0  0  0  0  0  0  0  0
  -29.1590  -21.2730   18.7820 C   0  0  0  0  0  3  0  0  0  0  0  0
  -28.2090  -24.6730   17.6820 C   0  0  0  0  0  1  0  0  0  0  0  0
  -28.8150  -22.3600   18.0440 N   0  0  0  0  0  0  0  0  0  0  0  0
  -29.3360  -20.1080   18.1300 N   0  0  0  0  0  0  0  0  0  0  0  0
  -29.2020  -20.1280   17.1190 H   0  0  0  0  0  0  0  0  0  0  0  0
  -31.2870  -20.7030   22.5740 C   0  0  0  0  0  1  0  0  0  0  0  0
  -30.0110  -20.0900   22.2120 N   0  0  0  0  0  0  0  0  0  0  0  0
  -29.8840  -19.1830   22.6500 H   0  0  0  0  0  0  0  0  0  0  0  0
  -30.5490  -17.4730   20.6890 C   0  0  0  0  0  2  0  0  0  0  0  0
  -30.8820  -14.9210   20.0170 C   0  0  0  0  0  0  0  0  0  0  0  0
  -30.6430  -12.6310   19.0300 C   0  0  0  0  0  2  0  0  0  0  0  0
  -29.6370  -12.6480   17.8570 C   0  0  0  0  0  2  0  0  0  0  0  0
  -28.1950  -12.4740   18.3700 C   0  0  0  0  0  2  0  0  0  0  0  0
  -27.8740  -13.3980   19.5740 C   0  0  0  0  0  3  0  0  0  0  0  0
  -28.9870  -13.3500   20.6430 C   0  0  0  0  0  2  0  0  0  0  0  0
  -30.2500  -13.6990   19.9770 N   0  0  0  0  0  0  0  0  0  0  0  0
  -32.0520  -15.0250   19.6400 O   0  0  0  0  0  0  0  0  0  0  0  0
  -30.1250  -16.0460   20.3130 N   0  0  0  0  0  0  0  0  0  0  0  0
  -29.1630  -15.8290   20.5270 H   0  0  0  0  0  0  0  0  0  0  0  0
  -25.5460  -14.0030   20.4630 C   0  0  0  0  0  0  0  0  0  0  0  0
  -24.4890  -13.2360   20.8700 C   0  0  0  0  0  0  0  0  0  0  0  0
  -24.9250  -11.8800   20.7690 C   0  0  0  0  0  0  0  0  0  0  0  0
  -26.5570  -13.1150   20.1380 N   0  0  0  0  0  0  0  0  0  0  0  0
  -26.1940  -11.8310   20.3850 N   0  0  0  0  0  0  0  0  0  0  0  0
  -24.1870  -10.6230   20.9590 C   0  0  0  0  0  0  0  0  0  0  0  0
  -24.6090   -9.6540   21.8960 C   0  0  0  0  0  3  0  0  0  0  0  0
  -23.8720   -8.4640   22.0750 C   0  0  0  0  0  3  0  0  0  0  0  0
  -22.6990   -8.2340   21.3160 C   0  0  0  0  0  0  0  0  0  0  0  0
  -22.2970   -9.1930   20.3680 C   0  0  0  0  0  3  0  0  0  0  0  0
  -23.0340  -10.3730   20.1870 C   0  0  0  0  0  3  0  0  0  0  0  0
  -21.9340   -7.0970   21.4040 O   0  0  0  0  0  0  0  0  0  0  0  0
  -21.8110   -6.4010   22.5790 C   0  0  0  0  0  0  0  0  0  0  0  0
  -21.2570   -6.9880   23.7390 C   0  0  0  0  0  3  0  0  0  0  0  0
  -21.0860   -6.2150   24.9040 C   0  0  0  0  0  3  0  0  0  0  0  0
  -21.4590   -4.8580   24.9120 C   0  0  0  0  0  0  0  0  0  0  0  0
  -22.0070   -4.2720   23.7570 C   0  0  0  0  0  3  0  0  0  0  0  0
  -22.1800   -5.0420   22.5940 C   0  0  0  0  0  0  0  0  0  0  0  0
  -22.6870   -4.4650   21.4760 F   0  0  0  0  0  0  0  0  0  0  0  0
  -21.2880   -4.1130   26.0290 F   0  0  0  0  0  0  0  0  0  0  0  0
  -23.1190  -13.7280   21.2390 C   0  0  0  0  0  0  0  0  0  0  0  0
  -22.4300  -13.0140   22.1210 N   0  0  0  0  0  0  0  0  0  0  0  0
  -22.6740  -14.7800   20.7800 O   0  0  0  0  0  0  0  0  0  0  0  0
  -22.8030  -12.1590   22.5070 H   0  0  0  0  0  0  0  0  0  0  0  0
  -21.5150  -13.3240   22.4120 H   0  0  0  0  0  0  0  0  0  0  0  0
  -25.7250  -15.3760   20.3160 N   0  0  0  0  0  0  0  0  0  0  0  0
  -24.9730  -16.0370   20.4780 H   0  0  0  0  0  0  0  0  0  0  0  0
  -26.5460  -15.8070   19.9120 H   0  0  0  0  0  0  0  0  0  0  0  0
  -28.1890  -25.1320   20.7600 C   0  0  0  0  0  2  0  0  0  0  0  0
  -28.3960  -26.5170   20.2110 O   0  0  0  0  0  0  0  0  0  0  0  0
  -24.6240  -31.9690   23.2510 C   0  0  0  0  0  0  0  0  0  0  0  0
  -27.2910  -27.4010   20.2130 C   0  0  0  0  0  0  0  0  0  0  0  0
  -23.4390  -30.5500   21.6150 C   0  0  0  0  0  3  0  0  0  0  0  0
  -24.9110  -29.0100   20.1970 C   0  0  0  0  0  0  0  0  0  0  0  0
  -25.9780  -30.8930   21.4330 C   0  0  0  0  0  2  0  0  0  0  0  0
  -26.0790  -29.5100   20.7890 C   0  0  0  0  0  0  0  0  0  0  0  0
  -27.2750  -28.7210   20.7790 C   0  0  0  0  0  3  0  0  0  0  0  0
  -26.0970  -26.9630   19.6020 C   0  0  0  0  0  3  0  0  0  0  0  0
  -24.9250  -27.7440   19.5940 C   0  0  0  0  0  3  0  0  0  0  0  0
  -23.6630  -29.8720   20.2390 C   0  0  0  0  0  2  0  0  0  0  0  0
  -24.7000  -31.1560   22.1570 N   0  0  0  0  0  0  0  0  0  0  0  0
  -23.5350  -32.2320   23.7850 O   0  0  0  0  0  0  0  0  0  0  0  0
  -22.7870  -29.5310   22.5790 C   0  0  0  0  0  0  0  0  0  0  0  0
  -21.4660  -29.3190   22.4390 N   0  0  0  0  0  0  0  0  0  0  0  0
  -23.4700  -28.9300   23.4140 O   0  0  0  0  0  0  0  0  0  0  0  0
  -20.9760  -29.8520   21.7360 H   0  0  0  0  0  0  0  0  0  0  0  0
  -18.1160  -28.0350   22.9010 C   0  0  0  0  0  0  0  0  0  0  0  0
  -20.6620  -28.3690   23.2080 C   0  0  0  0  0  3  0  0  0  0  0  0
  -20.8120  -26.9330   22.6550 C   0  0  0  0  0  2  0  0  0  0  0  0
  -19.7370  -26.5650   21.6290 C   0  0  0  0  0  2  0  0  0  0  0  0
  -18.3400  -26.6820   22.2440 C   0  0  0  0  0  2  0  0  0  0  0  0
  -19.2050  -28.8330   23.3380 C   0  0  0  0  0  0  0  0  0  0  0  0
  -18.9410  -30.0970   23.9080 C   0  0  0  0  0  3  0  0  0  0  0  0
  -17.6190  -30.5640   24.0460 C   0  0  0  0  0  3  0  0  0  0  0  0
  -16.5440  -29.7610   23.6260 C   0  0  0  0  0  3  0  0  0  0  0  0
  -16.7930  -28.4980   23.0590 C   0  0  0  0  0  3  0  0  0  0  0  0
  -25.8960  -32.6230   23.8710 C   0  0  0  0  0  3  0  0  0  0  0  0
  -26.4150  -31.8690   25.1580 C   0  0  1  0  0  0  0  0  0  0  0  0
  -25.3130  -31.6110   26.2150 C   0  0  0  0  0  1  0  0  0  0  0  0
  -27.0320  -30.5030   24.7780 C   0  0  0  0  0  1  0  0  0  0  0  0
  -27.5420  -32.6900   25.8270 C   0  0  0  0  0  1  0  0  0  0  0  0
  -25.5710  -34.0190   24.1910 N   0  0  0  0  0  0  0  0  0  0  0  0
  -25.8960  -35.0700   23.4270 C   0  0  0  0  0  0  0  0  0  0  0  0
  -26.5680  -34.9680   22.3970 O   0  0  0  0  0  0  0  0  0  0  0  0
  -24.9790  -34.1720   24.9930 H   0  0  0  0  0  0  0  0  0  0  0  0
  -24.1590  -36.8480   23.0490 C   0  0  0  0  0  1  0  0  0  0  0  0
  -25.3930  -36.4570   23.8760 C   0  0  0  0  0  3  0  0  0  0  0  0
  -27.5050  -37.3670   24.7360 C   0  0  0  0  0  1  0  0  0  0  0  0
  -26.4180  -37.5190   23.7710 N   0  0  0  0  0  0  0  0  0  0  0  0
  -26.0020  -38.4360   23.9080 H   0  0  0  0  0  0  0  0  0  0  0  0
  2  5  2  0
  3  1  1  0
  3  6  2  0
  4 55  1  0
  4  1  2  0
  5 16  1  0
  5  6  1  0
  6 14  1  0
  7  4  1  0
  8 10  1  0
  8  3  1  0
  9  7  1  0
 10  7  2  0
 11  2  1  0
 11  8  1  0
 12 11  1  0
 14 13  1  0
 14 15  1  0
 17 25  1  0
 18 23  1  0
 19 20  1  0
 19 18  1  0
 21 20  1  0
 21 30  1  0
 21 22  1  0
 23 17  1  0
 23 22  1  0
 24 17  2  0
 25 26  1  0
 25 16  1  0
 27 28  2  0
 28 47  1  0
 29 28  1  0
 29 32  1  0
 30 31  1  0
 30 27  1  0
 31 29  2  0
 32 33  1  0
 33 34  2  0
 35 38  1  0
 35 34  1  0
 36 35  2  0
 37 36  1  0
 37 32  2  0
 38 39  1  0
 39 44  2  0
 39 40  1  0
 40 41  2  0
 41 42  1  0
 42 46  1  0
 43 42  2  0
 44 43  1  0
 45 44  1  0
 47 48  1  0
 48 51  1  0
 48 50  1  0
 49 47  2  0
 52 27  1  0
 52 53  1  0
 54 52  1  0
 56 58  1  0
 56 55  1  0
 57 68  2  0
 58 63  1  0
 59 67  1  0
 59 69  1  0
 60 66  1  0
 60 62  1  0
 61 67  1  0
 62 61  1  0
 63 62  2  0
 64 58  2  0
 65 64  1  0
 65 60  2  0
 66 59  1  0
 67 57  1  0
 69 71  2  0
 70 69  1  0
 72 70  1  0
 73 82  2  0
 73 78  1  0
 74 70  1  0
 74 78  1  0
 75 74  1  0
 76 77  1  0
 76 75  1  0
 77 73  1  0
 78 79  2  0
 79 80  1  0
 81 80  2  0
 82 81  1  0
 83 57  1  0
 83 88  1  0
 83 84  1  0
 84 87  1  1
 84 85  1  0
 86 84  1  0
 88 91  1  0
 89 93  1  0
 89 88  1  0
 90 89  2  0
 93 92  1  0
 95 93  1  0
 95 96  1  0
 95 94  1  0
M  ISO  4  17 100  25 100  55 101  56 101
M  END
>  <TORSDO>  (52) 
F 19

>  <SCORE>  (52) 
-14.326

>  <name>  (52) 
51

>  <ligand_id>  (52) 
51

>  <original_smiles>  (52) 
[H]c1c([H])c([H])c2c(c1[H])C([H])([H])C([H])([H])C([H])([H])C2([H])N([H])C(=O)C1([H])N(C(=O)C([H])(N([H])C(=O)C([H])(N([H])C([H])([H])[H])C([H])([H])[H])C(C([H])([H])[H])(C([H])([H])[H])C([H])([H])[H])C([H])([H])c2c([H])c(OC([H])([H])c3c(C([H])([H])[H])nc4c(c3[H])c(N([H])C([H])([H])[H])c(C([H])([H])N([H])C(=O)N3C([H])([H])C([H])([H])C([H])([H])C([H])(n5nc(-c6c([H])c([H])c(Oc7c([H])c([H])c(F)c([H])c7F)c([H])c6[H])c(C(=O)N([H])[H])c5N([H])[H])C3([H])[H])c([H])[n+]4[H])c([H])c([H])c2C1([H])[H]

>  <smiles>  (52) 
[H]c1c([H])c([H])c2c(c1[H])C([H])([H])C([H])([H])C([H])([H])C2([H])N([H])C(=O)C1([H])N(C(=O)C([H])(N([H])C(=O)C([H])(N([H])C([H])([H])[H])C([H])([H])[H])C(C([H])([H])[H])(C([H])([H])[H])C([H])([H])[H])C([H])([H])c2c([H])c(OC([H])([H])c3c(C([H])([H])[H])nc4c(c3[H])c(N([H])C([H])([H])[H])c(C([H])([H])N([H])C(=O)N3C([H])([H])C([H])([H])C([H])([H])C([H])(n5nc(-c6c([H])c([H])c(Oc7c([H])c([H])c(F)c([H])c7F)c([H])c6[H])c(C(=O)N([H])[H])c5N([H])[H])C3([H])[H])c([H])[n+]4[H])c([H])c([H])c2C1([H])[H]

$$$$
52:0:0
     RDKit          3D

 95104  0  0  1  0  0  0  0  0999 V2000
  -31.0980  -22.4550   19.0420 C   0  0  0  0  0  2  0  0  0  0  0  0
  -31.0840  -23.8250   19.7340 C   0  0  0  0  0  2  0  0  0  0  0  0
  -30.6290  -21.8620   20.3800 C   0  0  0  0  0  3  0  0  0  0  0  0
  -29.9720  -23.3120   20.6790 C   0  0  1  0  0  0  0  0  0  0  0  0
  -30.1100  -23.7410   22.1440 C   0  0  0  0  0  1  0  0  0  0  0  0
  -30.2440  -20.3260   20.5850 C   0  0  0  0  0  0  0  0  0  0  0  0
  -30.8260  -19.5650   21.6570 C   0  0  0  0  0  0  0  0  0  0  0  0
  -29.4730  -19.5760   19.6460 C   0  0  0  0  0  0  0  0  0  0  0  0
  -30.7400  -18.1320   21.7150 C   0  0  0  0  0  0  0  0  0  0  0  0
  -29.3730  -18.1400   19.7150 C   0  0  0  0  0  0  0  0  0  0  0  0
  -29.9900  -17.3880   20.7620 C   0  0  0  0  0  0  0  0  0  0  0  0
  -31.5500  -20.2860   22.7960 C   0  0  0  0  0  1  0  0  0  0  0  0
  -28.7100  -20.3220   18.5580 C   0  0  0  0  0  1  0  0  0  0  0  0
  -31.4540  -17.3770   22.8380 C   0  0  0  0  0  1  0  0  0  0  0  0
  -28.5700  -17.3900   18.6540 C   0  0  0  0  0  1  0  0  0  0  0  0
  -29.6400  -15.8630   21.0160 C   0  0  0  0  0  2  0  0  0  0  0  0
  -30.4700  -14.6630   20.3950 C   0  0  0  0  0  0  0  0  0  0  0  0
  -30.3200  -12.4250   19.2980 C   0  0  0  0  0  2  0  0  0  0  0  0
  -29.3700  -12.5370   18.0840 C   0  0  0  0  0  2  0  0  0  0  0  0
  -27.8990  -12.3470   18.5090 C   0  0  0  0  0  2  0  0  0  0  0  0
  -27.5230  -13.2090   19.7430 C   0  0  0  0  0  3  0  0  0  0  0  0
  -28.5830  -13.0550   20.8590 C   0  0  0  0  0  2  0  0  0  0  0  0
  -29.8890  -13.4250   20.2950 N   0  0  0  0  0  0  0  0  0  0  0  0
  -31.5990  -14.8660   19.9370 O   0  0  0  0  0  0  0  0  0  0  0  0
  -25.1180  -13.7910   20.4500 C   0  0  0  0  0  0  0  0  0  0  0  0
  -24.0580  -13.0090   20.8220 C   0  0  0  0  0  0  0  0  0  0  0  0
  -24.5360  -11.6630   20.8010 C   0  0  0  0  0  0  0  0  0  0  0  0
  -26.1740  -12.9210   20.2250 N   0  0  0  0  0  0  0  0  0  0  0  0
  -25.8280  -11.6360   20.4950 N   0  0  0  0  0  0  0  0  0  0  0  0
  -23.8240  -10.3940   20.9960 C   0  0  0  0  0  0  0  0  0  0  0  0
  -24.2590   -9.4430   21.9430 C   0  0  0  0  0  3  0  0  0  0  0  0
  -23.5470   -8.2380   22.1250 C   0  0  0  0  0  3  0  0  0  0  0  0
  -22.3860   -7.9760   21.3610 C   0  0  0  0  0  0  0  0  0  0  0  0
  -21.9710   -8.9170   20.4020 C   0  0  0  0  0  3  0  0  0  0  0  0
  -22.6820  -10.1150   20.2180 C   0  0  0  0  0  3  0  0  0  0  0  0
  -21.6450   -6.8230   21.4520 O   0  0  0  0  0  0  0  0  0  0  0  0
  -21.5960   -6.0920   22.6110 C   0  0  0  0  0  0  0  0  0  0  0  0
  -21.1370   -6.6460   23.8260 C   0  0  0  0  0  3  0  0  0  0  0  0
  -21.0370   -5.8380   24.9760 C   0  0  0  0  0  3  0  0  0  0  0  0
  -21.3840   -4.4760   24.9120 C   0  0  0  0  0  0  0  0  0  0  0  0
  -21.8310   -3.9190   23.7020 C   0  0  0  0  0  3  0  0  0  0  0  0
  -21.9340   -4.7240   22.5550 C   0  0  0  0  0  0  0  0  0  0  0  0
  -22.3490   -4.1780   21.3860 F   0  0  0  0  0  0  0  0  0  0  0  0
  -21.2800   -3.6970   26.0150 F   0  0  0  0  0  0  0  0  0  0  0  0
  -22.6540  -13.4730   21.0860 C   0  0  0  0  0  0  0  0  0  0  0  0
  -21.9320  -12.7760   21.9580 N   0  0  0  0  0  0  0  0  0  0  0  0
  -22.2020  -14.4860   20.5530 O   0  0  0  0  0  0  0  0  0  0  0  0
  -22.3040  -11.9590   22.4160 H   0  0  0  0  0  0  0  0  0  0  0  0
  -20.9880  -13.0680   22.1730 H   0  0  0  0  0  0  0  0  0  0  0  0
  -25.2650  -15.1630   20.2640 N   0  0  0  0  0  0  0  0  0  0  0  0
  -24.4860  -15.8020   20.3720 H   0  0  0  0  0  0  0  0  0  0  0  0
  -26.1090  -15.6180   19.9470 H   0  0  0  0  0  0  0  0  0  0  0  0
  -28.5510  -23.7940   20.1720 C   0  0  0  0  0  2  0  0  0  0  0  0
  -27.9070  -25.1780   20.6660 C   0  0  0  0  0  2  0  0  0  0  0  0
  -28.1520  -26.4920   20.0310 O   0  0  0  0  0  0  0  0  0  0  0  0
  -24.5370  -31.8820   23.1790 C   0  0  0  0  0  0  0  0  0  0  0  0
  -27.0550  -27.3640   20.0200 C   0  0  0  0  0  0  0  0  0  0  0  0
  -23.2870  -30.5160   21.5440 C   0  0  0  0  0  3  0  0  0  0  0  0
  -24.6990  -28.9750   20.0690 C   0  0  0  0  0  0  0  0  0  0  0  0
  -25.8230  -30.8220   21.3150 C   0  0  0  0  0  2  0  0  0  0  0  0
  -25.8820  -29.4540   20.6490 C   0  0  0  0  0  0  0  0  0  0  0  0
  -27.0660  -28.6600   20.6140 C   0  0  0  0  0  3  0  0  0  0  0  0
  -25.8560  -26.9380   19.4060 C   0  0  0  0  0  3  0  0  0  0  0  0
  -24.6870  -27.7220   19.4380 C   0  0  0  0  0  3  0  0  0  0  0  0
  -23.4670  -29.8530   20.1510 C   0  0  0  0  0  2  0  0  0  0  0  0
  -24.5680  -31.0890   22.0690 N   0  0  0  0  0  0  0  0  0  0  0  0
  -23.4670  -32.1620   23.7380 O   0  0  0  0  0  0  0  0  0  0  0  0
  -22.6350  -29.4940   22.5040 C   0  0  0  0  0  0  0  0  0  0  0  0
  -21.3060  -29.3230   22.3920 N   0  0  0  0  0  0  0  0  0  0  0  0
  -23.3190  -28.8600   23.3100 O   0  0  0  0  0  0  0  0  0  0  0  0
  -20.8120  -29.8830   21.7110 H   0  0  0  0  0  0  0  0  0  0  0  0
  -17.9290  -28.1440   22.9270 C   0  0  0  0  0  0  0  0  0  0  0  0
  -20.4930  -28.3850   23.1660 C   0  0  0  0  0  3  0  0  0  0  0  0
  -20.5790  -26.9580   22.5770 C   0  0  0  0  0  2  0  0  0  0  0  0
  -19.4610  -26.6510   21.5750 C   0  0  0  0  0  2  0  0  0  0  0  0
  -18.0880  -26.8000   22.2360 C   0  0  0  0  0  2  0  0  0  0  0  0
  -19.0580  -28.8950   23.3500 C   0  0  0  0  0  0  0  0  0  0  0  0
  -18.8550  -30.1530   23.9570 C   0  0  0  0  0  3  0  0  0  0  0  0
  -17.5560  -30.6620   24.1460 C   0  0  0  0  0  3  0  0  0  0  0  0
  -16.4420  -29.9070   23.7410 C   0  0  0  0  0  3  0  0  0  0  0  0
  -16.6280  -28.6490   23.1390 C   0  0  0  0  0  3  0  0  0  0  0  0
  -25.8380  -32.4940   23.7830 C   0  0  0  0  0  3  0  0  0  0  0  0
  -26.3720  -31.7010   25.0390 C   0  0  1  0  0  0  0  0  0  0  0  0
  -25.2980  -31.4590   26.1240 C   0  0  0  0  0  1  0  0  0  0  0  0
  -26.9320  -30.3200   24.6210 C   0  0  0  0  0  1  0  0  0  0  0  0
  -27.5450  -32.4750   25.6880 C   0  0  0  0  0  1  0  0  0  0  0  0
  -25.5480  -33.8900   24.1390 N   0  0  0  0  0  0  0  0  0  0  0  0
  -25.8780  -34.9520   23.3920 C   0  0  0  0  0  0  0  0  0  0  0  0
  -26.5330  -34.8580   22.3480 O   0  0  0  0  0  0  0  0  0  0  0  0
  -24.9700  -34.0380   24.9530 H   0  0  0  0  0  0  0  0  0  0  0  0
  -24.1700  -36.7720   23.0870 C   0  0  0  0  0  1  0  0  0  0  0  0
  -25.4140  -36.3380   23.8770 C   0  0  0  0  0  3  0  0  0  0  0  0
  -27.5670  -37.1840   24.7010 C   0  0  0  0  0  1  0  0  0  0  0  0
  -26.4580  -37.3810   23.7720 N   0  0  0  0  0  0  0  0  0  0  0  0
  -26.0630  -38.3020   23.9400 H   0  0  0  0  0  0  0  0  0  0  0  0
  1  2  1  0
  1  3  1  0
  2  4  1  0
  3  6  1  0
  3  4  1  0
  4  5  1  1
  6  7  1  0
  7  9  2  0
  7 12  1  0
  8 10  1  0
  8  6  2  0
  9 14  1  0
 10 11  2  0
 11 16  1  0
 11  9  1  0
 13  8  1  0
 15 10  1  0
 17 16  1  0
 18 23  1  0
 19 20  1  0
 19 18  1  0
 21 20  1  0
 21 28  1  0
 21 22  1  0
 23 17  1  0
 23 22  1  0
 24 17  2  0
 25 26  2  0
 26 45  1  0
 27 26  1  0
 27 30  1  0
 28 25  1  0
 28 29  1  0
 29 27  2  0
 30 31  1  0
 31 32  2  0
 33 36  1  0
 33 32  1  0
 34 33  2  0
 35 34  1  0
 35 30  2  0
 36 37  1  0
 37 38  1  0
 38 39  2  0
 40 39  1  0
 40 44  1  0
 41 40  2  0
 42 37  2  0
 42 41  1  0
 43 42  1  0
 45 46  1  0
 46 49  1  0
 46 48  1  0
 47 45  2  0
 50 51  1  0
 50 25  1  0
 52 50  1  0
 53 54  1  0
 53  4  1  0
 55 54  1  0
 56 67  2  0
 57 55  1  0
 57 62  1  0
 58 66  1  0
 58 68  1  0
 59 65  1  0
 59 61  1  0
 60 66  1  0
 61 60  1  0
 62 61  2  0
 63 64  1  0
 63 57  2  0
 64 59  2  0
 65 58  1  0
 66 56  1  0
 68 70  2  0
 69 68  1  0
 71 69  1  0
 72 81  2  0
 72 77  1  0
 73 69  1  0
 73 77  1  0
 74 73  1  0
 75 76  1  0
 75 74  1  0
 76 72  1  0
 77 78  2  0
 78 79  1  0
 80 79  2  0
 81 80  1  0
 82 56  1  0
 82 87  1  0
 82 83  1  0
 83 86  1  1
 83 84  1  0
 85 83  1  0
 87 90  1  0
 88 92  1  0
 88 87  1  0
 89 88  2  0
 92 91  1  0
 94 92  1  0
 94 95  1  0
 94 93  1  0
M  ISO  4  16 100  17 100  54 101  55 101
M  END
>  <TORSDO>  (53) 
F 20

>  <SCORE>  (53) 
-13.651

>  <name>  (53) 
52

>  <ligand_id>  (53) 
52

>  <original_smiles>  (53) 
[H]c1c([H])c([H])c2c(c1[H])C([H])([H])C([H])([H])C([H])([H])C2([H])N([H])C(=O)C1([H])N(C(=O)C([H])(N([H])C(=O)C([H])(N([H])C([H])([H])[H])C([H])([H])[H])C(C([H])([H])[H])(C([H])([H])[H])C([H])([H])[H])C([H])([H])c2c([H])c(OC([H])([H])C([H])([H])C3(C([H])([H])[H])C([H])([H])C([H])([H])C3([H])c3c(C([H])([H])[H])c(C([H])([H])[H])c(C([H])([H])C(=O)N4C([H])([H])C([H])([H])C([H])([H])C([H])(n5nc(-c6c([H])c([H])c(Oc7c([H])c([H])c(F)c([H])c7F)c([H])c6[H])c(C(=O)N([H])[H])c5N([H])[H])C4([H])[H])c(C([H])([H])[H])c3C([H])([H])[H])c([H])c([H])c2C1([H])[H]

>  <smiles>  (53) 
[H]c1c([H])c([H])c2c(c1[H])C([H])([H])C([H])([H])C([H])([H])C2([H])N([H])C(=O)C1([H])N(C(=O)C([H])(N([H])C(=O)C([H])(N([H])C([H])([H])[H])C([H])([H])[H])C(C([H])([H])[H])(C([H])([H])[H])C([H])([H])[H])C([H])([H])c2c([H])c(OC([H])([H])C([H])([H])C3(C([H])([H])[H])C([H])([H])C([H])([H])C3([H])c3c(C([H])([H])[H])c(C([H])([H])[H])c(C([H])([H])C(=O)N4C([H])([H])C([H])([H])C([H])([H])C([H])(n5nc(-c6c([H])c([H])c(Oc7c([H])c([H])c(F)c([H])c7F)c([H])c6[H])c(C(=O)N([H])[H])c5N([H])[H])C4([H])[H])c(C([H])([H])[H])c3C([H])([H])[H])c([H])c([H])c2C1([H])[H]

$$$$
53:0:0
     RDKit          3D

 97106  0  0  1  0  0  0  0  0999 V2000
  -29.3800  -21.5060   19.6760 C   0  0  0  0  0  0  0  0  0  0  0  0
  -29.6330  -22.7770   21.5800 C   0  0  0  0  0  2  0  0  0  0  0  0
  -29.4100  -20.4530   20.8340 C   0  0  0  0  0  3  0  0  0  0  0  0
  -30.0660  -21.3310   21.9320 C   0  0  0  0  0  3  0  0  0  0  0  0
  -29.4220  -22.7860   20.1380 N   0  0  0  0  0  0  0  0  0  0  0  0
  -29.2630  -21.2000   18.4860 O   0  0  0  0  0  0  0  0  0  0  0  0
  -31.3140  -14.9100   19.6690 C   0  0  0  0  0  0  0  0  0  0  0  0
  -30.7730  -12.8150   18.4470 C   0  0  0  0  0  2  0  0  0  0  0  0
  -29.6840  -13.0690   17.3840 C   0  0  0  0  0  2  0  0  0  0  0  0
  -28.2790  -12.9180   18.0000 C   0  0  0  0  0  2  0  0  0  0  0  0
  -28.1340  -13.6760   19.3470 C   0  0  0  0  0  3  0  0  0  0  0  0
  -29.3310  -13.3810   20.2810 C   0  0  0  0  0  2  0  0  0  0  0  0
  -30.5380  -13.7790   19.5470 N   0  0  0  0  0  0  0  0  0  0  0  0
  -32.4530  -14.8840   19.1920 O   0  0  0  0  0  0  0  0  0  0  0  0
  -31.5600  -17.3620   19.5190 C   0  0  0  0  0  2  0  0  0  0  0  0
  -30.8800  -18.7750   19.4850 C   0  0  0  0  0  2  0  0  0  0  0  0
  -29.0960  -17.9410   20.8240 C   0  0  0  0  0  2  0  0  0  0  0  0
  -29.7450  -16.5210   20.9760 C   0  0  0  0  0  3  0  0  0  0  0  0
  -30.2940  -16.3090   22.4000 C   0  0  0  0  0  1  0  0  0  0  0  0
  -30.7660  -16.1650   19.9520 N   0  0  0  0  0  0  0  0  0  0  0  0
  -30.0630  -19.0710   20.6890 N   0  0  2  0  0  4  0  0  0  0  0  0
  -30.7040  -19.0120   21.4640 H   0  0  0  0  0  0  0  0  0  0  0  0
  -25.9240  -14.2880   20.5010 C   0  0  0  0  0  0  0  0  0  0  0  0
  -24.8660  -13.5260   20.9160 C   0  0  0  0  0  0  0  0  0  0  0  0
  -25.2150  -12.1730   20.6190 C   0  0  0  0  0  0  0  0  0  0  0  0
  -26.8540  -13.3980   19.9880 N   0  0  0  0  0  0  0  0  0  0  0  0
  -26.4420  -12.1120   20.1180 N   0  0  0  0  0  0  0  0  0  0  0  0
  -24.4280  -10.9370   20.7280 C   0  0  0  0  0  0  0  0  0  0  0  0
  -24.8600   -9.8550   21.5240 C   0  0  0  0  0  3  0  0  0  0  0  0
  -24.0770   -8.6860   21.6270 C   0  0  0  0  0  3  0  0  0  0  0  0
  -22.8480   -8.5920   20.9350 C   0  0  0  0  0  0  0  0  0  0  0  0
  -22.4320   -9.6630   20.1240 C   0  0  0  0  0  3  0  0  0  0  0  0
  -23.2150  -10.8240   20.0180 C   0  0  0  0  0  3  0  0  0  0  0  0
  -22.0320   -7.4860   20.9580 O   0  0  0  0  0  0  0  0  0  0  0  0
  -21.9350   -6.6860   22.0690 C   0  0  0  0  0  0  0  0  0  0  0  0
  -21.5570   -7.2020   23.3280 C   0  0  0  0  0  3  0  0  0  0  0  0
  -21.4030   -6.3340   24.4270 C   0  0  0  0  0  3  0  0  0  0  0  0
  -21.6160   -4.9510   24.2680 C   0  0  0  0  0  0  0  0  0  0  0  0
  -21.9890   -4.4350   23.0140 C   0  0  0  0  0  3  0  0  0  0  0  0
  -22.1450   -5.3010   21.9180 C   0  0  0  0  0  0  0  0  0  0  0  0
  -22.4830   -4.7960   20.7060 F   0  0  0  0  0  0  0  0  0  0  0  0
  -21.4610   -4.1160   25.3210 F   0  0  0  0  0  0  0  0  0  0  0  0
  -23.5610  -14.0330   21.4570 C   0  0  0  0  0  0  0  0  0  0  0  0
  -22.9300  -13.2770   22.3480 N   0  0  0  0  0  0  0  0  0  0  0  0
  -23.1170  -15.1300   21.1250 O   0  0  0  0  0  0  0  0  0  0  0  0
  -23.3040  -12.3830   22.6350 H   0  0  0  0  0  0  0  0  0  0  0  0
  -22.0590  -13.5950   22.7490 H   0  0  0  0  0  0  0  0  0  0  0  0
  -26.1570  -15.6590   20.4870 N   0  0  0  0  0  0  0  0  0  0  0  0
  -25.4150  -16.3040   20.7350 H   0  0  0  0  0  0  0  0  0  0  0  0
  -26.8740  -16.0830   19.9150 H   0  0  0  0  0  0  0  0  0  0  0  0
  -29.7590  -20.9470   23.3990 C   0  0  0  0  0  2  0  0  0  0  0  0
  -30.1450  -21.3050   25.8780 C   0  0  0  0  0  1  0  0  0  0  0  0
  -32.0940  -21.4970   24.2920 C   0  0  0  0  0  1  0  0  0  0  0  0
  -30.5810  -21.7110   24.4630 C   0  0  0  0  0  3  0  0  0  0  0  0
  -29.2810  -24.0660   19.3550 C   0  0  0  0  0  3  0  0  0  0  0  0
  -28.6960  -25.3270   20.1130 C   0  0  0  0  0  3  0  0  0  0  0  0
  -28.7540  -26.6370   19.4410 O   0  0  0  0  0  0  0  0  0  0  0  0
  -24.9950  -31.6280   23.0050 C   0  0  0  0  0  0  0  0  0  0  0  0
  -27.6110  -27.4300   19.5210 C   0  0  0  0  0  0  0  0  0  0  0  0
  -23.7640  -30.3170   21.3120 C   0  0  0  0  0  3  0  0  0  0  0  0
  -25.1980  -28.9290   19.7170 C   0  0  0  0  0  0  0  0  0  0  0  0
  -26.2780  -30.7440   21.0490 C   0  0  0  0  0  2  0  0  0  0  0  0
  -26.3720  -29.4220   20.3010 C   0  0  0  0  0  0  0  0  0  0  0  0
  -27.5850  -28.6860   20.1910 C   0  0  0  0  0  3  0  0  0  0  0  0
  -26.4190  -26.9830   18.9120 C   0  0  0  0  0  3  0  0  0  0  0  0
  -25.2200  -27.7150   19.0120 C   0  0  0  0  0  3  0  0  0  0  0  0
  -23.9370  -29.7510   19.8780 C   0  0  0  0  0  2  0  0  0  0  0  0
  -25.0330  -30.9100   21.8460 N   0  0  0  0  0  0  0  0  0  0  0  0
  -23.9280  -31.8280   23.6040 O   0  0  0  0  0  0  0  0  0  0  0  0
  -23.1750  -29.2100   22.2190 C   0  0  0  0  0  0  0  0  0  0  0  0
  -21.8530  -28.9930   22.1250 N   0  0  0  0  0  0  0  0  0  0  0  0
  -23.9060  -28.5520   22.9640 O   0  0  0  0  0  0  0  0  0  0  0  0
  -21.3200  -29.5780   21.4980 H   0  0  0  0  0  0  0  0  0  0  0  0
  -18.5430  -27.6260   22.6260 C   0  0  0  0  0  0  0  0  0  0  0  0
  -21.0940  -27.9750   22.8530 C   0  0  0  0  0  3  0  0  0  0  0  0
  -21.2410  -26.5870   22.1850 C   0  0  0  0  0  2  0  0  0  0  0  0
  -20.1270  -26.2820   21.1780 C   0  0  0  0  0  2  0  0  0  0  0  0
  -18.7570  -26.3290   21.8620 C   0  0  0  0  0  2  0  0  0  0  0  0
  -19.6410  -28.4060   23.0770 C   0  0  0  0  0  0  0  0  0  0  0  0
  -19.3850  -29.6200   23.7530 C   0  0  0  0  0  3  0  0  0  0  0  0
  -18.0660  -30.0530   23.9810 C   0  0  0  0  0  3  0  0  0  0  0  0
  -16.9830  -29.2690   23.5450 C   0  0  0  0  0  3  0  0  0  0  0  0
  -17.2230  -28.0570   22.8730 C   0  0  0  0  0  3  0  0  0  0  0  0
  -26.2840  -32.2530   23.6210 C   0  0  0  0  0  3  0  0  0  0  0  0
  -26.9170  -31.3700   24.7660 C   0  0  1  0  0  0  0  0  0  0  0  0
  -25.9070  -30.9600   25.8640 C   0  0  0  0  0  1  0  0  0  0  0  0
  -27.5300  -30.0750   24.1820 C   0  0  0  0  0  1  0  0  0  0  0  0
  -28.0740  -32.1400   25.4430 C   0  0  0  0  0  1  0  0  0  0  0  0
  -25.9310  -33.5860   24.1290 N   0  0  0  0  0  0  0  0  0  0  0  0
  -26.2000  -34.7370   23.4980 C   0  0  0  0  0  0  0  0  0  0  0  0
  -26.8380  -34.7890   22.4430 O   0  0  0  0  0  0  0  0  0  0  0  0
  -25.3590  -33.6170   24.9600 H   0  0  0  0  0  0  0  0  0  0  0  0
  -24.3980  -36.4910   23.4110 C   0  0  0  0  0  1  0  0  0  0  0  0
  -25.6740  -36.0360   24.1380 C   0  0  0  0  0  3  0  0  0  0  0  0
  -27.8000  -36.8920   25.0220 C   0  0  0  0  0  1  0  0  0  0  0  0
  -26.6640  -37.1350   24.1350 N   0  0  0  0  0  0  0  0  0  0  0  0
  -26.2300  -38.0110   24.4120 H   0  0  0  0  0  0  0  0  0  0  0  0
  1  5  1  0
  2  4  1  0
  3  1  1  0
  3  4  1  0
  4 51  1  0
  5  2  1  0
  6  1  2  0
  7 20  1  0
  8 13  1  0
  9 10  1  0
  9  8  1  0
 11 10  1  0
 11 26  1  0
 11 12  1  0
 13  7  1  0
 13 12  1  0
 14  7  2  0
 15 20  1  0
 16 15  1  0
 16 21  1  0
 17 18  1  0
 18 19  1  0
 20 18  1  0
 21 17  1  0
 21  3  1  0
 21 22  1  1
 23 24  2  0
 24 43  1  0
 25 28  1  0
 25 24  1  0
 26 27  1  0
 26 23  1  0
 27 25  2  0
 28 29  1  0
 29 30  2  0
 31 34  1  0
 31 30  1  0
 32 31  2  0
 33 32  1  0
 33 28  2  0
 34 35  1  0
 35 36  1  0
 36 37  2  0
 38 37  1  0
 38 42  1  0
 39 38  2  0
 40 35  2  0
 40 39  1  0
 41 40  1  0
 43 44  1  0
 44 46  1  0
 44 47  1  0
 45 43  2  0
 48 23  1  0
 48 49  1  0
 50 48  1  0
 51 54  1  0
 53 54  1  0
 54 52  1  0
 55 56  2  0
 55  5  1  0
 57 59  1  0
 57 56  1  0
 58 69  2  0
 59 64  1  0
 60 68  1  0
 60 70  1  0
 61 67  1  0
 61 63  1  0
 62 68  1  0
 63 62  1  0
 64 63  2  0
 65 66  1  0
 65 59  2  0
 66 61  2  0
 67 60  1  0
 68 58  1  0
 70 72  2  0
 71 70  1  0
 73 71  1  0
 74 83  2  0
 74 79  1  0
 75 71  1  0
 75 79  1  0
 76 75  1  0
 77 78  1  0
 77 76  1  0
 78 74  1  0
 79 80  2  0
 80 81  1  0
 82 81  2  0
 83 82  1  0
 84 58  1  0
 84 89  1  0
 84 85  1  0
 85 88  1  1
 85 86  1  0
 87 85  1  0
 89 92  1  0
 90 89  1  0
 90 94  1  0
 91 90  2  0
 94 93  1  0
 96 94  1  0
 96 97  1  0
 96 95  1  0
M  ISO  4   7 100  20 100  56 101  57 101
M  END
>  <TORSDO>  (54) 
F 20

>  <SCORE>  (54) 
-8.623

>  <name>  (54) 
53

>  <ligand_id>  (54) 
53

>  <original_smiles>  (54) 
[H]c1c([H])c([H])c2c(c1[H])C([H])([H])C([H])([H])C([H])([H])C2([H])N([H])C(=O)C1([H])N(C(=O)C([H])(N([H])C(=O)C([H])(N([H])C([H])([H])[H])C([H])([H])[H])C(C([H])([H])[H])(C([H])([H])[H])C([H])([H])[H])C([H])([H])c2c([H])c(OC([H])([H])C([H])([H])N3C(=O)C([H])([N+]4([H])C([H])([H])C([H])([H])N(C(=O)N5C([H])([H])C([H])([H])C([H])([H])C([H])(n6nc(-c7c([H])c([H])c(Oc8c([H])c([H])c(F)c([H])c8F)c([H])c7[H])c(C(=O)N([H])[H])c6N([H])[H])C5([H])[H])C([H])(C([H])([H])[H])C4([H])[H])C([H])(C([H])([H])C([H])(C([H])([H])[H])C([H])([H])[H])C3([H])[H])c([H])c([H])c2C1([H])[H]

>  <smiles>  (54) 
[H]c1c([H])c([H])c2c(c1[H])C([H])([H])C([H])([H])C([H])([H])C2([H])N([H])C(=O)C1([H])N(C(=O)C([H])(N([H])C(=O)C([H])(N([H])C([H])([H])[H])C([H])([H])[H])C(C([H])([H])[H])(C([H])([H])[H])C([H])([H])[H])C([H])([H])c2c([H])c(OC([H])([H])C([H])([H])N3C(=O)C([H])([N+]4([H])C([H])([H])C([H])([H])N(C(=O)N5C([H])([H])C([H])([H])C([H])([H])C([H])(n6nc(-c7c([H])c([H])c(Oc8c([H])c([H])c(F)c([H])c8F)c([H])c7[H])c(C(=O)N([H])[H])c6N([H])[H])C5([H])[H])C([H])(C([H])([H])[H])C4([H])[H])C([H])(C([H])([H])C([H])(C([H])([H])[H])C([H])([H])[H])C3([H])[H])c([H])c([H])c2C1([H])[H]

$$$$
54:0:0
     RDKit          3D

 92100  0  0  1  0  0  0  0  0999 V2000
  -30.6670  -15.8570   19.7600 C   0  0  0  0  0  0  0  0  0  0  0  0
  -30.6820  -13.2370   19.0960 C   0  0  0  0  0  2  0  0  0  0  0  0
  -29.7670  -12.7260   17.9420 C   0  0  0  0  0  2  0  0  0  0  0  0
  -28.3510  -12.4150   18.4460 C   0  0  0  0  0  2  0  0  0  0  0  0
  -27.8740  -13.5090   19.4220 C   0  0  0  0  0  3  0  0  0  0  0  0
  -28.9230  -13.9030   20.4780 C   0  0  0  0  0  2  0  0  0  0  0  0
  -30.0990  -14.4910   19.7830 N   0  0  0  0  0  0  0  0  0  0  0  0
  -31.8610  -15.7190   19.4190 O   0  0  0  0  0  0  0  0  0  0  0  0
  -32.6260  -19.8710   20.6150 C   0  0  0  0  0  3  0  0  0  0  0  0
  -31.5670  -18.9700   20.6400 C   0  0  0  0  0  0  0  0  0  0  0  0
  -32.5730  -20.9570   19.7540 C   0  0  0  0  0  0  0  0  0  0  0  0
  -31.3400  -21.3160   19.1630 C   0  0  0  0  0  0  0  0  0  0  0  0
  -30.1130  -20.6010   19.4200 C   0  0  0  0  0  0  0  0  0  0  0  0
  -30.4280  -18.9830   19.8010 C   0  0  0  0  0  0  0  0  0  0  0  0
  -31.4910  -17.9710   21.7540 C   0  0  0  0  0  2  0  0  0  0  0  0
  -30.1010  -17.3900   21.5450 C   0  0  0  0  0  3  0  0  0  0  0  0
  -33.8290  -21.8050   19.6070 C   0  0  0  0  0  1  0  0  0  0  0  0
  -31.3600  -22.5820   18.2970 C   0  0  0  0  0  1  0  0  0  0  0  0
  -29.8040  -16.2380   22.5340 C   0  0  0  0  0  1  0  0  0  0  0  0
  -30.0390  -17.2940   20.0580 N   0  0  0  0  0  0  0  0  0  0  0  0
  -25.5980  -14.1570   20.3480 C   0  0  0  0  0  0  0  0  0  0  0  0
  -24.5190  -13.4300   20.7640 C   0  0  0  0  0  0  0  0  0  0  0  0
  -24.9090  -12.0580   20.6780 C   0  0  0  0  0  0  0  0  0  0  0  0
  -26.5720  -13.2330   20.0140 N   0  0  0  0  0  0  0  0  0  0  0  0
  -26.1770  -11.9610   20.2860 N   0  0  0  0  0  0  0  0  0  0  0  0
  -24.1220  -10.8350   20.8860 C   0  0  0  0  0  0  0  0  0  0  0  0
  -24.5070   -9.8580   21.8320 C   0  0  0  0  0  3  0  0  0  0  0  0
  -23.7190   -8.7040   22.0280 C   0  0  0  0  0  3  0  0  0  0  0  0
  -22.5330   -8.5170   21.2800 C   0  0  0  0  0  0  0  0  0  0  0  0
  -22.1660   -9.4800   20.3230 C   0  0  0  0  0  3  0  0  0  0  0  0
  -22.9540  -10.6260   20.1250 C   0  0  0  0  0  3  0  0  0  0  0  0
  -21.7220   -7.4130   21.3840 O   0  0  0  0  0  0  0  0  0  0  0  0
  -21.5880   -6.7240   22.5620 C   0  0  0  0  0  0  0  0  0  0  0  0
  -21.1000   -7.3410   23.7350 C   0  0  0  0  0  3  0  0  0  0  0  0
  -20.9140   -6.5800   24.9060 C   0  0  0  0  0  3  0  0  0  0  0  0
  -21.2050   -5.2030   24.9050 C   0  0  0  0  0  0  0  0  0  0  0  0
  -21.6840   -4.5850   23.7370 C   0  0  0  0  0  3  0  0  0  0  0  0
  -21.8720   -5.3430   22.5680 C   0  0  0  0  0  0  0  0  0  0  0  0
  -22.3130   -4.7380   21.4390 F   0  0  0  0  0  0  0  0  0  0  0  0
  -21.0200   -4.4690   26.0270 F   0  0  0  0  0  0  0  0  0  0  0  0
  -23.1680  -13.9790   21.1180 C   0  0  0  0  0  0  0  0  0  0  0  0
  -22.4530  -13.3120   22.0160 N   0  0  0  0  0  0  0  0  0  0  0  0
  -22.7610  -15.0330   20.6330 O   0  0  0  0  0  0  0  0  0  0  0  0
  -22.7950  -12.4580   22.4290 H   0  0  0  0  0  0  0  0  0  0  0  0
  -21.5470  -13.6630   22.2940 H   0  0  0  0  0  0  0  0  0  0  0  0
  -25.8280  -15.5220   20.1940 N   0  0  0  0  0  0  0  0  0  0  0  0
  -25.1190  -16.2170   20.3970 H   0  0  0  0  0  0  0  0  0  0  0  0
  -26.6870  -15.9260   19.8420 H   0  0  0  0  0  0  0  0  0  0  0  0
  -27.5480  -21.2170   19.5270 C   0  0  0  0  0  1  0  0  0  0  0  0
  -28.8560  -21.9560   19.2000 C   0  0  0  0  0  2  0  0  0  0  0  0
  -28.4780  -23.8350   19.7490 C   0  0  0  0  0  1  0  0  0  0  0  0
  -28.4840  -25.6000   19.5060 O   0  0  0  0  0  0  0  0  0  0  0  0
  -24.6090  -31.4860   22.9270 C   0  0  0  0  0  0  0  0  0  0  0  0
  -27.4280  -26.7510   19.6200 C   0  0  0  0  0  0  0  0  0  0  0  0
  -23.5020  -30.1240   21.2090 C   0  0  0  0  0  3  0  0  0  0  0  0
  -25.0400  -28.6580   19.6960 C   0  0  0  0  0  0  0  0  0  0  0  0
  -26.0680  -30.4310   21.0890 C   0  0  0  0  0  2  0  0  0  0  0  0
  -26.2190  -29.0450   20.3440 C   0  0  0  0  0  0  0  0  0  0  0  0
  -27.3980  -28.1250   20.2680 C   0  0  0  0  0  3  0  0  0  0  0  0
  -26.1970  -26.5820   18.9350 C   0  0  0  0  0  3  0  0  0  0  0  0
  -25.0660  -27.4570   18.9680 C   0  0  0  0  0  3  0  0  0  0  0  0
  -23.7770  -29.5310   19.7980 C   0  0  0  0  0  2  0  0  0  0  0  0
  -24.7500  -30.7120   21.7960 N   0  0  0  0  0  0  0  0  0  0  0  0
  -23.5030  -31.6850   23.4580 O   0  0  0  0  0  0  0  0  0  0  0  0
  -22.8530  -29.0430   22.1190 C   0  0  0  0  0  0  0  0  0  0  0  0
  -21.5290  -28.8280   22.0020 N   0  0  0  0  0  0  0  0  0  0  0  0
  -23.5550  -28.3990   22.9010 O   0  0  0  0  0  0  0  0  0  0  0  0
  -21.0080  -29.4000   21.3530 H   0  0  0  0  0  0  0  0  0  0  0  0
  -18.2080  -27.4400   22.5220 C   0  0  0  0  0  0  0  0  0  0  0  0
  -20.7650  -27.7970   22.7180 C   0  0  0  0  0  3  0  0  0  0  0  0
  -20.9010  -26.4230   22.0200 C   0  0  0  0  0  2  0  0  0  0  0  0
  -19.7770  -26.1410   21.0200 C   0  0  0  0  0  2  0  0  0  0  0  0
  -18.4150  -26.1670   21.7190 C   0  0  0  0  0  2  0  0  0  0  0  0
  -19.3100  -28.2140   22.9770 C   0  0  0  0  0  0  0  0  0  0  0  0
  -19.0590  -29.4030   23.6950 C   0  0  0  0  0  3  0  0  0  0  0  0
  -17.7400  -29.8230   23.9570 C   0  0  0  0  0  3  0  0  0  0  0  0
  -16.6560  -29.0470   23.5140 C   0  0  0  0  0  3  0  0  0  0  0  0
  -16.8900  -27.8570   22.8040 C   0  0  0  0  0  3  0  0  0  0  0  0
  -25.8330  -32.1750   23.6050 C   0  0  0  0  0  3  0  0  0  0  0  0
  -25.4300  -33.5360   24.0130 N   0  0  0  0  0  0  0  0  0  0  0  0
  -25.6860  -34.6570   23.3240 C   0  0  0  0  0  0  0  0  0  0  0  0
  -26.3420  -34.6570   22.2800 O   0  0  0  0  0  0  0  0  0  0  0  0
  -24.8400  -33.6050   24.8300 H   0  0  0  0  0  0  0  0  0  0  0  0
  -23.8360  -36.3580   23.1350 C   0  0  0  0  0  1  0  0  0  0  0  0
  -25.1310  -35.9880   23.8770 C   0  0  0  0  0  3  0  0  0  0  0  0
  -27.2290  -36.9740   24.6930 C   0  0  0  0  0  1  0  0  0  0  0  0
  -26.0910  -37.1110   23.7880 N   0  0  0  0  0  0  0  0  0  0  0  0
  -25.6300  -37.9950   23.9910 H   0  0  0  0  0  0  0  0  0  0  0  0
  -26.3710  -31.3790   24.8600 C   0  0  1  0  0  0  0  0  0  0  0  0
  -25.2760  -31.0490   25.9040 C   0  0  0  0  0  1  0  0  0  0  0  0
  -27.0240  -30.0450   24.4360 C   0  0  0  0  0  1  0  0  0  0  0  0
  -27.4750  -32.2010   25.5660 C   0  0  0  0  0  1  0  0  0  0  0  0
  1  7  1  0
  1 20  1  0
  2  7  1  0
  3  4  1  0
  3  2  1  0
  5  4  1  0
  5 24  1  0
  5  6  1  0
  7  6  1  0
  8  1  2  0
  9 10  1  0
 10 15  1  0
 11  9  2  0
 12 13  2  0
 12 11  1  0
 13 14  1  0
 14 20  1  0
 14 10  2  0
 16 15  1  0
 16 19  1  0
 17 11  1  0
 18 12  1  0
 20 16  1  0
 21 22  2  0
 22 41  1  0
 23 22  1  0
 23 26  1  0
 24 25  1  0
 24 21  1  0
 25 23  2  0
 26 27  1  0
 27 28  2  0
 29 32  1  0
 29 28  1  0
 30 29  2  0
 31 30  1  0
 31 26  2  0
 32 33  1  0
 33 38  2  0
 33 34  1  0
 34 35  2  0
 36 35  1  0
 36 40  1  0
 37 36  2  0
 38 37  1  0
 39 38  1  0
 41 42  1  0
 42 45  1  0
 42 44  1  0
 43 41  2  0
 46 21  1  0
 46 47  1  0
 48 46  1  0
 50 13  1  0
 50 49  1  0
 52 54  1  0
 52 51  1  0
 53 64  2  0
 54 59  1  0
 55 63  1  0
 55 65  1  0
 56 62  1  0
 56 58  1  0
 57 63  1  0
 58 57  1  0
 59 58  2  0
 60 61  1  0
 60 54  2  0
 61 56  2  0
 62 55  1  0
 63 53  1  0
 65 67  2  0
 66 65  1  0
 68 66  1  0
 69 78  2  0
 69 74  1  0
 70 66  1  0
 70 74  1  0
 71 70  1  0
 72 73  1  0
 72 71  1  0
 73 69  1  0
 74 75  2  0
 75 76  1  0
 77 76  2  0
 78 77  1  0
 79 53  1  0
 79 80  1  0
 79 89  1  0
 80 83  1  0
 81 85  1  0
 81 80  1  0
 82 81  2  0
 85 84  1  0
 87 85  1  0
 87 88  1  0
 87 86  1  0
 89 92  1  1
 89 90  1  0
 91 89  1  0
M  ISO  4   1 100  20 100  51 101  52 101
M  END
>  <TORSDO>  (55) 
F 17

>  <SCORE>  (55) 
-14.162

>  <name>  (55) 
54

>  <ligand_id>  (55) 
54

>  <original_smiles>  (55) 
[H]c1c([H])c([H])c2c(c1[H])C([H])([H])C([H])([H])C([H])([H])C2([H])N([H])C(=O)C1([H])N(C(=O)C([H])(N([H])C(=O)C([H])(N([H])C([H])([H])[H])C([H])([H])[H])C(C([H])([H])[H])(C([H])([H])[H])C([H])([H])[H])C([H])([H])c2c([H])c(OC([H])([H])C([H])(c3c4c(c([H])c(C([H])([H])[H])c3C([H])([H])[H])C([H])([H])C([H])(C([H])([H])[H])N4C(=O)N3C([H])([H])C([H])([H])C([H])([H])C([H])(n4nc(-c5c([H])c([H])c(Oc6c([H])c([H])c(F)c([H])c6F)c([H])c5[H])c(C(=O)N([H])[H])c4N([H])[H])C3([H])[H])C([H])([H])[H])c([H])c([H])c2C1([H])[H]

>  <smiles>  (55) 
[H]c1c([H])c([H])c2c(c1[H])C([H])([H])C([H])([H])C([H])([H])C2([H])N([H])C(=O)C1([H])N(C(=O)C([H])(N([H])C(=O)C([H])(N([H])C([H])([H])[H])C([H])([H])[H])C(C([H])([H])[H])(C([H])([H])[H])C([H])([H])[H])C([H])([H])c2c([H])c(OC([H])([H])C([H])(c3c4c(c([H])c(C([H])([H])[H])c3C([H])([H])[H])C([H])([H])C([H])(C([H])([H])[H])N4C(=O)N3C([H])([H])C([H])([H])C([H])([H])C([H])(n4nc(-c5c([H])c([H])c(Oc6c([H])c([H])c(F)c([H])c6F)c([H])c5[H])c(C(=O)N([H])[H])c4N([H])[H])C3([H])[H])C([H])([H])[H])c([H])c([H])c2C1([H])[H]

$$$$
55:0:0
     RDKit          3D

 93103  0  0  1  0  0  0  0  0999 V2000
  -29.9070  -21.2390   21.2170 C   0  0  0  0  0  0  0  0  0  0  0  0
  -29.4690  -22.6440   21.1120 C   0  0  0  0  0  0  0  0  0  0  0  0
  -28.4630  -23.0840   20.1850 C   0  0  0  0  0  0  0  0  0  0  0  0
  -29.2990  -20.1540   20.4600 C   0  0  0  0  0  0  0  0  0  0  0  0
  -27.9490  -21.9310   19.4710 C   0  0  0  0  0  0  0  0  0  0  0  0
  -30.0520  -23.7080   22.0320 C   0  0  0  0  0  1  0  0  0  0  0  0
  -26.8010  -22.1040   18.4940 C   0  0  0  0  0  1  0  0  0  0  0  0
  -28.3450  -20.5970   19.5850 N   0  0  0  0  0  0  0  0  0  0  0  0
  -30.5630  -14.9820   20.1830 C   0  0  0  0  0  0  0  0  0  0  0  0
  -30.3070  -12.6440   19.2260 C   0  0  0  0  0  2  0  0  0  0  0  0
  -29.3540  -12.5690   18.0150 C   0  0  0  0  0  2  0  0  0  0  0  0
  -27.9120  -12.3470   18.4950 C   0  0  0  0  0  2  0  0  0  0  0  0
  -27.5250  -13.2910   19.6640 C   0  0  0  0  0  3  0  0  0  0  0  0
  -28.6110  -13.3780   20.7600 C   0  0  0  0  0  2  0  0  0  0  0  0
  -29.8560  -13.7790   20.0930 N   0  0  0  0  0  0  0  0  0  0  0  0
  -31.7650  -14.9070   19.9030 O   0  0  0  0  0  0  0  0  0  0  0  0
  -28.8560  -17.1510   20.7030 C   0  0  0  0  0  2  0  0  0  0  0  0
  -30.6000  -17.6020   19.6460 C   0  0  0  0  0  2  0  0  0  0  0  0
  -29.6910  -18.5170   20.5620 C   0  0  0  0  0  3  0  0  0  0  0  0
  -29.9950  -16.3070   20.1610 N   0  0  0  0  0  0  0  0  0  0  0  0
  -25.1730  -13.8530   20.4890 C   0  0  0  0  0  0  0  0  0  0  0  0
  -24.1180  -13.0740   20.8740 C   0  0  0  0  0  0  0  0  0  0  0  0
  -24.5790  -11.7220   20.8100 C   0  0  0  0  0  0  0  0  0  0  0  0
  -26.2080  -12.9790   20.2060 N   0  0  0  0  0  0  0  0  0  0  0  0
  -25.8630  -11.6910   20.4660 N   0  0  0  0  0  0  0  0  0  0  0  0
  -23.8540  -10.4570   20.9970 C   0  0  0  0  0  0  0  0  0  0  0  0
  -24.2870   -9.4870   21.9290 C   0  0  0  0  0  3  0  0  0  0  0  0
  -23.5590   -8.2910   22.1060 C   0  0  0  0  0  3  0  0  0  0  0  0
  -22.3850   -8.0550   21.3510 C   0  0  0  0  0  0  0  0  0  0  0  0
  -21.9720   -9.0130   20.4090 C   0  0  0  0  0  3  0  0  0  0  0  0
  -22.7000  -10.2010   20.2300 C   0  0  0  0  0  3  0  0  0  0  0  0
  -21.6310   -6.9090   21.4370 O   0  0  0  0  0  0  0  0  0  0  0  0
  -21.5600   -6.1780   22.5950 C   0  0  0  0  0  0  0  0  0  0  0  0
  -21.0740   -6.7340   23.7980 C   0  0  0  0  0  3  0  0  0  0  0  0
  -20.9520   -5.9300   24.9490 C   0  0  0  0  0  3  0  0  0  0  0  0
  -21.3070   -4.5680   24.8970 C   0  0  0  0  0  0  0  0  0  0  0  0
  -21.7860   -4.0100   23.6990 C   0  0  0  0  0  3  0  0  0  0  0  0
  -21.9090   -4.8140   22.5500 C   0  0  0  0  0  0  0  0  0  0  0  0
  -22.3510   -4.2660   21.3920 F   0  0  0  0  0  0  0  0  0  0  0  0
  -21.1830   -3.7920   25.9990 F   0  0  0  0  0  0  0  0  0  0  0  0
  -22.7280  -13.5490   21.1830 C   0  0  0  0  0  0  0  0  0  0  0  0
  -22.0170  -12.8400   22.0540 N   0  0  0  0  0  0  0  0  0  0  0  0
  -22.2820  -14.5840   20.6920 O   0  0  0  0  0  0  0  0  0  0  0  0
  -22.3910  -12.0040   22.4790 H   0  0  0  0  0  0  0  0  0  0  0  0
  -21.0860  -13.1390   22.3020 H   0  0  0  0  0  0  0  0  0  0  0  0
  -25.3380  -15.2270   20.3280 N   0  0  0  0  0  0  0  0  0  0  0  0
  -24.5800  -15.8870   20.4600 H   0  0  0  0  0  0  0  0  0  0  0  0
  -26.1810  -15.6580   19.9750 H   0  0  0  0  0  0  0  0  0  0  0  0
  -32.3950  -21.5290   22.0990 C   0  0  0  0  0  2  0  0  0  0  0  0
  -32.2210  -20.0880   21.7090 C   0  0  0  0  0  2  0  0  0  0  0  0
  -31.0210  -20.8890   22.1730 C   0  0  0  0  0  3  0  0  0  0  0  0
  -27.7630  -24.5940   19.9830 C   0  0  0  0  0  2  0  0  0  0  0  0
  -28.1880  -26.0690   20.3060 O   0  0  0  0  0  0  0  0  0  0  0  0
  -24.6540  -31.8780   23.2320 C   0  0  0  0  0  0  0  0  0  0  0  0
  -27.1890  -27.1220   20.2030 C   0  0  0  0  0  0  0  0  0  0  0  0
  -23.4510  -30.5030   21.5810 C   0  0  0  0  0  3  0  0  0  0  0  0
  -24.8930  -28.9260   20.1540 C   0  0  0  0  0  0  0  0  0  0  0  0
  -26.0120  -30.7320   21.4400 C   0  0  0  0  0  2  0  0  0  0  0  0
  -26.0750  -29.3420   20.7800 C   0  0  0  0  0  0  0  0  0  0  0  0
  -27.2230  -28.4540   20.7930 C   0  0  0  0  0  3  0  0  0  0  0  0
  -25.9860  -26.8360   19.5140 C   0  0  0  0  0  3  0  0  0  0  0  0
  -24.8640  -27.6880   19.5040 C   0  0  0  0  0  3  0  0  0  0  0  0
  -23.6740  -29.8350   20.1990 C   0  0  0  0  0  2  0  0  0  0  0  0
  -24.7260  -31.0590   22.1390 N   0  0  0  0  0  0  0  0  0  0  0  0
  -23.5660  -32.1740   23.7510 O   0  0  0  0  0  0  0  0  0  0  0  0
  -22.7530  -29.4980   22.5330 C   0  0  0  0  0  0  0  0  0  0  0  0
  -21.4240  -29.3450   22.3990 N   0  0  0  0  0  0  0  0  0  0  0  0
  -23.4120  -28.8590   23.3580 O   0  0  0  0  0  0  0  0  0  0  0  0
  -20.9480  -29.9140   21.7130 H   0  0  0  0  0  0  0  0  0  0  0  0
  -18.0210  -28.2000   22.8960 C   0  0  0  0  0  0  0  0  0  0  0  0
  -20.5860  -28.4150   23.1600 C   0  0  0  0  0  3  0  0  0  0  0  0
  -20.6600  -26.9850   22.5730 C   0  0  0  0  0  2  0  0  0  0  0  0
  -19.5510  -26.6920   21.5570 C   0  0  0  0  0  2  0  0  0  0  0  0
  -18.1730  -26.8550   22.2050 C   0  0  0  0  0  2  0  0  0  0  0  0
  -19.1540  -28.9390   23.3300 C   0  0  0  0  0  0  0  0  0  0  0  0
  -18.9560  -30.1980   23.9390 C   0  0  0  0  0  3  0  0  0  0  0  0
  -17.6600  -30.7170   24.1140 C   0  0  0  0  0  3  0  0  0  0  0  0
  -16.5420  -29.9750   23.6940 C   0  0  0  0  0  3  0  0  0  0  0  0
  -16.7240  -28.7170   23.0920 C   0  0  0  0  0  3  0  0  0  0  0  0
  -25.9330  -32.4980   23.8700 C   0  0  0  0  0  3  0  0  0  0  0  0
  -25.6290  -33.8980   24.2120 N   0  0  0  0  0  0  0  0  0  0  0  0
  -25.9410  -34.9550   23.4490 C   0  0  0  0  0  0  0  0  0  0  0  0
  -26.5790  -34.8540   22.3980 O   0  0  0  0  0  0  0  0  0  0  0  0
  -25.0540  -34.0490   25.0270 H   0  0  0  0  0  0  0  0  0  0  0  0
  -24.1950  -36.7470   23.1740 C   0  0  0  0  0  1  0  0  0  0  0  0
  -25.4720  -36.3440   23.9270 C   0  0  0  0  0  3  0  0  0  0  0  0
  -27.6350  -37.2450   24.6640 C   0  0  0  0  0  1  0  0  0  0  0  0
  -26.4960  -37.3990   23.7630 N   0  0  0  0  0  0  0  0  0  0  0  0
  -26.0920  -38.3200   23.9150 H   0  0  0  0  0  0  0  0  0  0  0  0
  -26.4290  -31.7160   25.1490 C   0  0  1  0  0  0  0  0  0  0  0  0
  -25.3220  -31.4800   26.2040 C   0  0  0  0  0  1  0  0  0  0  0  0
  -27.0080  -30.3360   24.7620 C   0  0  0  0  0  1  0  0  0  0  0  0
  -27.5790  -32.4980   25.8250 C   0  0  0  0  0  1  0  0  0  0  0  0
  1 51  1  0
  2  1  1  0
  2  6  1  0
  3  2  2  0
  4  1  2  0
  5  8  2  0
  5  3  1  0
  7  5  1  0
  8  4  1  0
 10 15  1  0
 11 12  1  0
 11 10  1  0
 13 12  1  0
 13 24  1  0
 13 14  1  0
 15  9  1  0
 15 14  1  0
 16  9  2  0
 18 20  1  0
 18 19  1  0
 19  4  1  0
 19 17  1  0
 20  9  1  0
 20 17  1  0
 21 22  2  0
 22 41  1  0
 23 22  1  0
 23 26  1  0
 24 25  1  0
 24 21  1  0
 25 23  2  0
 26 27  1  0
 27 28  2  0
 29 32  1  0
 29 28  1  0
 30 29  2  0
 31 30  1  0
 31 26  2  0
 32 33  1  0
 33 34  1  0
 34 35  2  0
 36 35  1  0
 36 40  1  0
 37 36  2  0
 38 33  2  0
 38 37  1  0
 39 38  1  0
 41 42  1  0
 42 45  1  0
 42 44  1  0
 43 41  2  0
 46 47  1  0
 46 21  1  0
 48 46  1  0
 49 51  1  0
 50 49  1  0
 50 51  1  0
 52  3  1  0
 52 53  1  0
 54 65  2  0
 55 53  1  0
 55 60  1  0
 56 64  1  0
 56 66  1  0
 57 63  1  0
 57 59  1  0
 58 64  1  0
 59 60  2  0
 59 58  1  0
 61 55  2  0
 62 61  1  0
 62 57  2  0
 63 56  1  0
 64 54  1  0
 66 68  2  0
 67 66  1  0
 69 67  1  0
 70 79  2  0
 70 75  1  0
 71 67  1  0
 71 75  1  0
 72 71  1  0
 73 74  1  0
 73 72  1  0
 74 70  1  0
 75 76  2  0
 76 77  1  0
 78 77  2  0
 79 78  1  0
 80 54  1  0
 80 81  1  0
 80 90  1  0
 81 84  1  0
 82 86  1  0
 82 81  1  0
 83 82  2  0
 86 85  1  0
 88 89  1  0
 88 86  1  0
 88 87  1  0
 90 93  1  1
 90 91  1  0
 92 90  1  0
M  ISO  4   9 100  20 100  52 101  53 101
M  END
>  <TORSDO>  (56) 
F 18

>  <SCORE>  (56) 
-15.023

>  <name>  (56) 
55

>  <ligand_id>  (56) 
55

>  <original_smiles>  (56) 
[H]c1c([H])c([H])c2c(c1[H])C([H])([H])C([H])([H])C([H])([H])C2([H])N([H])C(=O)C1([H])N(C(=O)C([H])(N([H])C(=O)C([H])(N([H])C([H])([H])[H])C([H])([H])[H])C(C([H])([H])[H])(C([H])([H])[H])C([H])([H])[H])C([H])([H])c2c([H])c(OC([H])([H])c3c(C([H])([H])[H])nc(C4([H])C([H])([H])N(C(=O)N5C([H])([H])C([H])([H])C([H])([H])C([H])(n6nc(-c7c([H])c([H])c(Oc8c([H])c([H])c(F)c([H])c8F)c([H])c7[H])c(C(=O)N([H])[H])c6N([H])[H])C5([H])[H])C4([H])[H])c(C4([H])C([H])([H])C4([H])[H])c3C([H])([H])[H])c([H])c([H])c2C1([H])[H]

>  <smiles>  (56) 
[H]c1c([H])c([H])c2c(c1[H])C([H])([H])C([H])([H])C([H])([H])C2([H])N([H])C(=O)C1([H])N(C(=O)C([H])(N([H])C(=O)C([H])(N([H])C([H])([H])[H])C([H])([H])[H])C(C([H])([H])[H])(C([H])([H])[H])C([H])([H])[H])C([H])([H])c2c([H])c(OC([H])([H])c3c(C([H])([H])[H])nc(C4([H])C([H])([H])N(C(=O)N5C([H])([H])C([H])([H])C([H])([H])C([H])(n6nc(-c7c([H])c([H])c(Oc8c([H])c([H])c(F)c([H])c8F)c([H])c7[H])c(C(=O)N([H])[H])c6N([H])[H])C5([H])[H])C4([H])[H])c(C4([H])C([H])([H])C4([H])[H])c3C([H])([H])[H])c([H])c([H])c2C1([H])[H]

$$$$
56:0:0
     RDKit          3D

100109  0  0  1  0  0  0  0  0999 V2000
  -27.5850  -19.8130   19.2550 C   0  0  0  0  0  3  0  0  0  0  0  0
  -28.2330  -22.2260   19.3830 C   0  0  0  0  0  0  0  0  0  0  0  0
  -28.5220  -20.7820   19.7140 C   0  0  0  0  0  0  0  0  0  0  0  0
  -26.4700  -20.1430   18.4870 C   0  0  0  0  0  3  0  0  0  0  0  0
  -27.1930  -22.3880   18.3910 C   0  0  0  0  0  0  0  0  0  0  0  0
  -25.4420  -19.1260   18.0340 C   0  0  0  0  0  1  0  0  0  0  0  0
  -26.9300  -23.5970   17.5080 C   0  0  0  0  0  1  0  0  0  0  0  0
  -26.3560  -21.3930   18.0540 N   0  0  0  0  0  0  0  0  0  0  0  0
  -25.6050  -21.6040   17.3950 H   0  0  0  0  0  0  0  0  0  0  0  0
  -29.5910  -18.8090   21.0910 C   0  0  0  0  0  2  0  0  0  0  0  0
  -30.7400  -19.8260   19.3380 C   0  0  0  0  0  2  0  0  0  0  0  0
  -30.5450  -17.6530   20.5000 C   0  0  0  0  0  3  0  0  0  0  0  0
  -30.8190  -18.2750   19.1230 C   0  0  0  0  0  3  0  0  0  0  0  0
  -29.6800  -20.1230   20.3130 N   0  0  0  0  0  0  0  0  0  0  0  0
  -30.8790  -15.0160   20.2480 C   0  0  0  0  0  0  0  0  0  0  0  0
  -30.7060  -12.6910   19.3200 C   0  0  0  0  0  2  0  0  0  0  0  0
  -29.7660  -12.6840   18.0950 C   0  0  0  0  0  2  0  0  0  0  0  0
  -28.2970  -12.5110   18.5300 C   0  0  0  0  0  2  0  0  0  0  0  0
  -27.9160  -13.4380   19.7160 C   0  0  0  0  0  3  0  0  0  0  0  0
  -28.9780  -13.4250   20.8360 C   0  0  0  0  0  2  0  0  0  0  0  0
  -30.2640  -13.7820   20.2230 N   0  0  0  0  0  0  0  0  0  0  0  0
  -32.0470  -15.1300   19.8580 O   0  0  0  0  0  0  0  0  0  0  0  0
  -30.1280  -16.1640   20.4970 N   0  0  0  0  0  0  0  0  0  0  0  0
  -29.1660  -15.9860   20.7410 H   0  0  0  0  0  0  0  0  0  0  0  0
  -25.5510  -14.0400   20.4990 C   0  0  0  0  0  0  0  0  0  0  0  0
  -24.4810  -13.2720   20.8730 C   0  0  0  0  0  0  0  0  0  0  0  0
  -24.9230  -11.9160   20.7980 C   0  0  0  0  0  0  0  0  0  0  0  0
  -26.5770  -13.1520   20.2230 N   0  0  0  0  0  0  0  0  0  0  0  0
  -26.2080  -11.8670   20.4650 N   0  0  0  0  0  0  0  0  0  0  0  0
  -24.1800  -10.6620   20.9700 C   0  0  0  0  0  0  0  0  0  0  0  0
  -24.5780   -9.6880   21.9120 C   0  0  0  0  0  3  0  0  0  0  0  0
  -23.8330   -8.5000   22.0720 C   0  0  0  0  0  3  0  0  0  0  0  0
  -22.6750   -8.2770   21.2910 C   0  0  0  0  0  0  0  0  0  0  0  0
  -22.2960   -9.2370   20.3370 C   0  0  0  0  0  3  0  0  0  0  0  0
  -23.0410  -10.4180   20.1750 C   0  0  0  0  0  3  0  0  0  0  0  0
  -21.9070   -7.1390   21.3600 O   0  0  0  0  0  0  0  0  0  0  0  0
  -21.7730   -6.4280   22.5260 C   0  0  0  0  0  0  0  0  0  0  0  0
  -21.2090   -7.0010   23.6860 C   0  0  0  0  0  3  0  0  0  0  0  0
  -21.0260   -6.2160   24.8410 C   0  0  0  0  0  3  0  0  0  0  0  0
  -21.3970   -4.8590   24.8380 C   0  0  0  0  0  0  0  0  0  0  0  0
  -21.9530   -4.2840   23.6800 C   0  0  0  0  0  3  0  0  0  0  0  0
  -22.1360   -5.0670   22.5270 C   0  0  0  0  0  0  0  0  0  0  0  0
  -22.6530   -4.5040   21.4070 F   0  0  0  0  0  0  0  0  0  0  0  0
  -21.2160   -4.1000   25.9440 F   0  0  0  0  0  0  0  0  0  0  0  0
  -23.0980  -13.7640   21.1820 C   0  0  0  0  0  0  0  0  0  0  0  0
  -22.3760  -13.0610   22.0470 N   0  0  0  0  0  0  0  0  0  0  0  0
  -22.6680  -14.8080   20.6920 O   0  0  0  0  0  0  0  0  0  0  0  0
  -22.7380  -12.2150   22.4630 H   0  0  0  0  0  0  0  0  0  0  0  0
  -21.4480  -13.3720   22.2970 H   0  0  0  0  0  0  0  0  0  0  0  0
  -25.7320  -15.4120   20.3510 N   0  0  0  0  0  0  0  0  0  0  0  0
  -24.9700  -16.0680   20.4830 H   0  0  0  0  0  0  0  0  0  0  0  0
  -26.5670  -15.8420   19.9790 H   0  0  0  0  0  0  0  0  0  0  0  0
  -32.0960  -17.8120   18.5550 N   0  0  0  0  0  4  0  0  0  0  0  0
  -32.8750  -18.2010   19.0580 H   0  0  0  0  0  0  0  0  0  0  0  0
  -32.1750  -18.0630   17.5860 H   0  0  0  0  0  0  0  0  0  0  0  0
  -32.1520  -16.8050   18.6420 H   0  0  0  0  0  0  0  0  0  0  0  0
  -30.2550  -23.8420   19.2960 C   0  0  0  0  0  1  0  0  0  0  0  0
  -28.8910  -23.6080   19.9620 C   0  0  0  0  0  3  0  0  0  0  0  0
  -28.0150  -25.0260   19.9080 C   0  0  0  0  0  2  0  0  0  0  0  0
  -28.3040  -26.4490   20.3720 O   0  0  0  0  0  0  0  0  0  0  0  0
  -24.7070  -32.0370   23.4190 C   0  0  0  0  0  0  0  0  0  0  0  0
  -27.2550  -27.4200   20.2940 C   0  0  0  0  0  0  0  0  0  0  0  0
  -23.4950  -30.6840   21.7530 C   0  0  0  0  0  3  0  0  0  0  0  0
  -24.9330  -29.1450   20.2970 C   0  0  0  0  0  0  0  0  0  0  0  0
  -26.0470  -30.9460   21.5970 C   0  0  0  0  0  2  0  0  0  0  0  0
  -26.1110  -29.5740   20.9200 C   0  0  0  0  0  0  0  0  0  0  0  0
  -27.2730  -28.7240   20.9140 C   0  0  0  0  0  3  0  0  0  0  0  0
  -26.0540  -27.0950   19.6160 C   0  0  0  0  0  3  0  0  0  0  0  0
  -24.9130  -27.9130   19.6340 C   0  0  0  0  0  3  0  0  0  0  0  0
  -23.7110  -30.0400   20.3610 C   0  0  0  0  0  2  0  0  0  0  0  0
  -24.7690  -31.2400   22.3120 N   0  0  0  0  0  0  0  0  0  0  0  0
  -23.6230  -32.3170   23.9540 O   0  0  0  0  0  0  0  0  0  0  0  0
  -22.8130  -29.6570   22.6900 C   0  0  0  0  0  0  0  0  0  0  0  0
  -21.4930  -29.4660   22.5240 N   0  0  0  0  0  0  0  0  0  0  0  0
  -23.4720  -29.0370   23.5280 O   0  0  0  0  0  0  0  0  0  0  0  0
  -21.0190  -30.0130   21.8200 H   0  0  0  0  0  0  0  0  0  0  0  0
  -18.1110  -28.2370   22.9340 C   0  0  0  0  0  0  0  0  0  0  0  0
  -20.6610  -28.5180   23.2700 C   0  0  0  0  0  3  0  0  0  0  0  0
  -20.7900  -27.0900   22.6900 C   0  0  0  0  0  2  0  0  0  0  0  0
  -19.7170  -26.7630   21.6480 C   0  0  0  0  0  2  0  0  0  0  0  0
  -18.3180  -26.8920   22.2560 C   0  0  0  0  0  2  0  0  0  0  0  0
  -19.2130  -29.0070   23.3950 C   0  0  0  0  0  0  0  0  0  0  0  0
  -18.9660  -30.2650   23.9880 C   0  0  0  0  0  3  0  0  0  0  0  0
  -17.6530  -30.7520   24.1250 C   0  0  0  0  0  3  0  0  0  0  0  0
  -16.5660  -29.9780   23.6820 C   0  0  0  0  0  3  0  0  0  0  0  0
  -16.7960  -28.7220   23.0910 C   0  0  0  0  0  3  0  0  0  0  0  0
  -25.9920  -32.6480   24.0550 C   0  0  0  0  0  3  0  0  0  0  0  0
  -26.4810  -31.8640   25.3340 C   0  0  1  0  0  0  0  0  0  0  0  0
  -25.3630  -31.6050   26.3720 C   0  0  0  0  0  1  0  0  0  0  0  0
  -27.0810  -30.4940   24.9420 C   0  0  0  0  0  1  0  0  0  0  0  0
  -27.6090  -32.6560   26.0350 C   0  0  0  0  0  1  0  0  0  0  0  0
  -25.7030  -34.0490   24.3900 N   0  0  0  0  0  0  0  0  0  0  0  0
  -25.9890  -35.0980   23.6050 C   0  0  0  0  0  0  0  0  0  0  0  0
  -26.5960  -34.9860   22.5360 O   0  0  0  0  0  0  0  0  0  0  0  0
  -25.1580  -34.2100   25.2250 H   0  0  0  0  0  0  0  0  0  0  0  0
  -24.2100  -36.8640   23.3940 C   0  0  0  0  0  1  0  0  0  0  0  0
  -25.5320  -36.4910   24.0810 C   0  0  0  0  0  3  0  0  0  0  0  0
  -27.7180  -37.4330   24.6860 C   0  0  0  0  0  1  0  0  0  0  0  0
  -26.5330  -37.5540   23.8420 N   0  0  0  0  0  0  0  0  0  0  0  0
  -26.1260  -38.4740   23.9990 H   0  0  0  0  0  0  0  0  0  0  0  0
  1  3  2  0
  2  3  1  0
  2 58  1  0
  3 14  1  0
  4  6  1  0
  4  1  1  0
  5  2  2  0
  7  5  1  0
  8  5  1  0
  8  4  1  0
  9  8  1  0
 11 14  1  0
 12 23  1  0
 12 10  1  0
 13 53  1  0
 13 11  1  0
 13 12  1  0
 14 10  1  0
 15 23  1  0
 16 21  1  0
 17 18  1  0
 17 16  1  0
 19 18  1  0
 19 28  1  0
 19 20  1  0
 21 15  1  0
 21 20  1  0
 22 15  2  0
 23 24  1  0
 25 26  2  0
 26 45  1  0
 27 26  1  0
 27 30  1  0
 28 29  1  0
 28 25  1  0
 29 27  2  0
 30 31  1  0
 31 32  2  0
 33 36  1  0
 33 32  1  0
 34 33  2  0
 35 34  1  0
 35 30  2  0
 36 37  1  0
 37 42  2  0
 37 38  1  0
 38 39  2  0
 40 39  1  0
 40 44  1  0
 41 40  2  0
 42 41  1  0
 43 42  1  0
 45 46  1  0
 46 49  1  0
 46 48  1  0
 47 45  2  0
 50 51  1  0
 50 25  1  0
 52 50  1  0
 53 56  1  0
 53 54  1  0
 55 53  1  0
 58 57  1  0
 59 58  1  0
 59 60  1  0
 61 72  2  0
 62 60  1  0
 62 67  1  0
 63 71  1  0
 63 73  1  0
 64 70  1  0
 64 66  1  0
 65 71  1  0
 66 65  1  0
 67 66  2  0
 68 69  1  0
 68 62  2  0
 69 64  2  0
 70 63  1  0
 71 61  1  0
 73 75  2  0
 74 73  1  0
 76 74  1  0
 77 86  2  0
 77 82  1  0
 78 74  1  0
 78 82  1  0
 79 78  1  0
 80 81  1  0
 80 79  1  0
 81 77  1  0
 82 83  2  0
 83 84  1  0
 85 84  2  0
 86 85  1  0
 87 61  1  0
 87 92  1  0
 87 88  1  0
 88 91  1  1
 88 89  1  0
 90 88  1  0
 92 95  1  0
 93 97  1  0
 93 92  1  0
 94 93  2  0
 97 96  1  0
 99100  1  0
 99 97  1  0
 99 98  1  0
M  ISO  4  15 100  23 100  59 101  60 101
M  END
>  <TORSDO>  (57) 
F 20

>  <SCORE>  (57) 
-12.913

>  <name>  (57) 
56

>  <ligand_id>  (57) 
56

>  <original_smiles>  (57) 
[H]c1c([H])c([H])c2c(c1[H])C([H])([H])C([H])([H])C([H])([H])C2([H])N([H])C(=O)C1([H])N(C(=O)C([H])(N([H])C(=O)C([H])(N([H])C([H])([H])[H])C([H])([H])[H])C(C([H])([H])[H])(C([H])([H])[H])C([H])([H])[H])C([H])([H])c2c([H])c(OC([H])([H])C([H])(c3c(N4C([H])([H])C([H])(N([H])C(=O)N5C([H])([H])C([H])([H])C([H])([H])C([H])(n6nc(-c7c([H])c([H])c(Oc8c([H])c([H])c(F)c([H])c8F)c([H])c7[H])c(C(=O)N([H])[H])c6N([H])[H])C5([H])[H])C([H])([N+]([H])([H])[H])C4([H])[H])c([H])c(C([H])([H])[H])[n+]([H])c3C([H])([H])[H])C([H])([H])[H])c([H])c([H])c2C1([H])[H]

>  <smiles>  (57) 
[H]c1c([H])c([H])c2c(c1[H])C([H])([H])C([H])([H])C([H])([H])C2([H])N([H])C(=O)C1([H])N(C(=O)C([H])(N([H])C(=O)C([H])(N([H])C([H])([H])[H])C([H])([H])[H])C(C([H])([H])[H])(C([H])([H])[H])C([H])([H])[H])C([H])([H])c2c([H])c(OC([H])([H])C([H])(c3c(N4C([H])([H])C([H])(N([H])C(=O)N5C([H])([H])C([H])([H])C([H])([H])C([H])(n6nc(-c7c([H])c([H])c(Oc8c([H])c([H])c(F)c([H])c8F)c([H])c7[H])c(C(=O)N([H])[H])c6N([H])[H])C5([H])[H])C([H])([N+]([H])([H])[H])C4([H])[H])c([H])c(C([H])([H])[H])[n+]([H])c3C([H])([H])[H])C([H])([H])[H])c([H])c([H])c2C1([H])[H]

$$$$
57:0:0
     RDKit          3D

 91100  0  0  1  0  0  0  0  0999 V2000
  -27.8360  -22.2630   20.9820 C   0  0  0  0  0  3  0  0  0  0  0  0
  -28.8090  -21.5940   20.1440 C   0  0  0  0  0  0  0  0  0  0  0  0
  -27.5770  -23.7150   21.0050 C   0  0  0  0  0  0  0  0  0  0  0  0
  -29.4370  -22.6330   19.3500 C   0  0  0  0  0  0  0  0  0  0  0  0
  -28.2560  -24.6650   20.1550 C   0  0  0  0  0  0  0  0  0  0  0  0
  -26.5570  -24.2470   21.9940 C   0  0  0  0  0  1  0  0  0  0  0  0
  -30.4930  -22.2370   18.3350 C   0  0  0  0  0  1  0  0  0  0  0  0
  -29.1950  -24.0180   19.3740 N   0  0  0  0  0  0  0  0  0  0  0  0
  -30.5530  -15.1770   20.2240 C   0  0  0  0  0  0  0  0  0  0  0  0
  -30.3750  -12.7960   19.3140 C   0  0  0  0  0  2  0  0  0  0  0  0
  -29.4440  -12.6630   18.0910 C   0  0  0  0  0  2  0  0  0  0  0  0
  -27.9970  -12.4250   18.5490 C   0  0  0  0  0  2  0  0  0  0  0  0
  -27.5800  -13.3730   19.7030 C   0  0  0  0  0  3  0  0  0  0  0  0
  -28.6470  -13.4920   20.8120 C   0  0  0  0  0  2  0  0  0  0  0  0
  -29.8790  -13.9430   20.1510 N   0  0  0  0  0  0  0  0  0  0  0  0
  -31.7680  -15.0760   20.0060 O   0  0  0  0  0  0  0  0  0  0  0  0
  -30.5110  -19.2870   20.4120 C   0  0  0  0  0  2  0  0  0  0  0  0
  -28.2470  -18.7210   20.6090 C   0  0  0  0  0  2  0  0  0  0  0  0
  -30.8850  -17.7450   20.0240 C   0  0  0  0  0  2  0  0  0  0  0  0
  -28.5800  -17.1170   20.3030 C   0  0  0  0  0  2  0  0  0  0  0  0
  -29.1230  -19.9180   19.9860 C   0  0  0  0  0  3  0  0  0  0  0  0
  -29.9910  -16.5350   20.2920 N   0  0  0  0  0  0  0  0  0  0  0  0
  -25.2200  -13.9160   20.5020 C   0  0  0  0  0  0  0  0  0  0  0  0
  -24.1680  -13.1300   20.8790 C   0  0  0  0  0  0  0  0  0  0  0  0
  -24.6400  -11.7830   20.8240 C   0  0  0  0  0  0  0  0  0  0  0  0
  -26.2620  -13.0490   20.2320 N   0  0  0  0  0  0  0  0  0  0  0  0
  -25.9270  -11.7590   20.4930 N   0  0  0  0  0  0  0  0  0  0  0  0
  -23.9210  -10.5140   21.0060 C   0  0  0  0  0  0  0  0  0  0  0  0
  -24.3490   -9.5500   21.9450 C   0  0  0  0  0  3  0  0  0  0  0  0
  -23.6260   -8.3490   22.1170 C   0  0  0  0  0  3  0  0  0  0  0  0
  -22.4620   -8.1050   21.3500 C   0  0  0  0  0  0  0  0  0  0  0  0
  -22.0540   -9.0590   20.4010 C   0  0  0  0  0  3  0  0  0  0  0  0
  -22.7770  -10.2500   20.2270 C   0  0  0  0  0  3  0  0  0  0  0  0
  -21.7110   -6.9570   21.4320 O   0  0  0  0  0  0  0  0  0  0  0  0
  -21.6210   -6.2370   22.5970 C   0  0  0  0  0  0  0  0  0  0  0  0
  -21.1170   -6.8050   23.7870 C   0  0  0  0  0  3  0  0  0  0  0  0
  -20.9760   -6.0100   24.9420 C   0  0  0  0  0  3  0  0  0  0  0  0
  -21.3300   -4.6470   24.9070 C   0  0  0  0  0  0  0  0  0  0  0  0
  -21.8260   -4.0790   23.7210 C   0  0  0  0  0  3  0  0  0  0  0  0
  -21.9680   -4.8710   22.5680 C   0  0  0  0  0  0  0  0  0  0  0  0
  -22.4270   -4.3130   21.4230 F   0  0  0  0  0  0  0  0  0  0  0  0
  -21.1880   -3.8810   26.0140 F   0  0  0  0  0  0  0  0  0  0  0  0
  -22.7730  -13.5980   21.1720 C   0  0  0  0  0  0  0  0  0  0  0  0
  -22.0600  -12.8920   22.0410 N   0  0  0  0  0  0  0  0  0  0  0  0
  -22.3270  -14.6280   20.6660 O   0  0  0  0  0  0  0  0  0  0  0  0
  -22.4360  -12.0600   22.4710 H   0  0  0  0  0  0  0  0  0  0  0  0
  -21.1250  -13.1890   22.2800 H   0  0  0  0  0  0  0  0  0  0  0  0
  -25.3710  -15.2900   20.3380 N   0  0  0  0  0  0  0  0  0  0  0  0
  -24.6020  -15.9360   20.4730 H   0  0  0  0  0  0  0  0  0  0  0  0
  -26.2100  -15.7380   19.9940 H   0  0  0  0  0  0  0  0  0  0  0  0
  -28.2480  -26.1660   20.1480 O   0  0  0  0  0  0  0  0  0  0  0  0
  -24.6420  -31.9160   23.2150 C   0  0  0  0  0  0  0  0  0  0  0  0
  -27.1670  -27.1450   20.1570 C   0  0  0  0  0  0  0  0  0  0  0  0
  -23.4250  -30.5320   21.5780 C   0  0  0  0  0  3  0  0  0  0  0  0
  -24.8550  -28.9420   20.1390 C   0  0  0  0  0  0  0  0  0  0  0  0
  -25.9810  -30.7700   21.4000 C   0  0  0  0  0  2  0  0  0  0  0  0
  -26.0410  -29.3710   20.7460 C   0  0  0  0  0  0  0  0  0  0  0  0
  -27.1940  -28.4890   20.7370 C   0  0  0  0  0  3  0  0  0  0  0  0
  -25.9570  -26.8320   19.5050 C   0  0  0  0  0  3  0  0  0  0  0  0
  -24.8280  -27.6880   19.5030 C   0  0  0  0  0  3  0  0  0  0  0  0
  -23.6350  -29.8530   20.1960 C   0  0  0  0  0  2  0  0  0  0  0  0
  -24.7030  -31.0970   22.1190 N   0  0  0  0  0  0  0  0  0  0  0  0
  -23.5600  -32.2040   23.7520 O   0  0  0  0  0  0  0  0  0  0  0  0
  -22.7460  -29.5280   22.5430 C   0  0  0  0  0  0  0  0  0  0  0  0
  -21.4170  -29.3570   22.4220 N   0  0  0  0  0  0  0  0  0  0  0  0
  -23.4200  -28.9010   23.3660 O   0  0  0  0  0  0  0  0  0  0  0  0
  -20.9290  -29.9130   21.7330 H   0  0  0  0  0  0  0  0  0  0  0  0
  -18.0400  -28.1480   22.9400 C   0  0  0  0  0  0  0  0  0  0  0  0
  -20.6000  -28.4170   23.1960 C   0  0  0  0  0  3  0  0  0  0  0  0
  -20.7020  -26.9860   22.6210 C   0  0  0  0  0  2  0  0  0  0  0  0
  -19.5980  -26.6610   21.6080 C   0  0  0  0  0  2  0  0  0  0  0  0
  -18.2180  -26.8020   22.2580 C   0  0  0  0  0  2  0  0  0  0  0  0
  -19.1590  -28.9130   23.3650 C   0  0  0  0  0  0  0  0  0  0  0  0
  -18.9370  -30.1720   23.9660 C   0  0  0  0  0  3  0  0  0  0  0  0
  -17.6310  -30.6670   24.1420 C   0  0  0  0  0  3  0  0  0  0  0  0
  -16.5270  -29.8990   23.7310 C   0  0  0  0  0  3  0  0  0  0  0  0
  -16.7330  -28.6420   23.1350 C   0  0  0  0  0  3  0  0  0  0  0  0
  -25.9260  -32.5470   23.8350 C   0  0  0  0  0  3  0  0  0  0  0  0
  -25.6160  -33.9420   24.1890 N   0  0  0  0  0  0  0  0  0  0  0  0
  -25.9170  -35.0090   23.4360 C   0  0  0  0  0  0  0  0  0  0  0  0
  -26.5500  -34.9220   22.3800 O   0  0  0  0  0  0  0  0  0  0  0  0
  -25.0480  -34.0820   25.0120 H   0  0  0  0  0  0  0  0  0  0  0  0
  -24.1630  -36.7970   23.1820 C   0  0  0  0  0  1  0  0  0  0  0  0
  -25.4430  -36.3910   23.9300 C   0  0  0  0  0  3  0  0  0  0  0  0
  -27.6040  -37.2920   24.6730 C   0  0  0  0  0  1  0  0  0  0  0  0
  -26.4620  -37.4530   23.7770 N   0  0  0  0  0  0  0  0  0  0  0  0
  -26.0560  -38.3700   23.9450 H   0  0  0  0  0  0  0  0  0  0  0  0
  -26.4500  -31.7660   25.1030 C   0  0  1  0  0  0  0  0  0  0  0  0
  -25.3630  -31.5230   26.1780 C   0  0  0  0  0  1  0  0  0  0  0  0
  -27.0290  -30.3890   24.7040 C   0  0  0  0  0  1  0  0  0  0  0  0
  -27.6050  -32.5540   25.7650 C   0  0  0  0  0  1  0  0  0  0  0  0
  1  3  2  0
  2  1  1  0
  3  6  1  0
  4  8  1  0
  4  2  2  0
  5  3  1  0
  7  4  1  0
  8  5  2  0
  9 22  1  0
 10 15  1  0
 11 12  1  0
 11 10  1  0
 13 12  1  0
 13 26  1  0
 13 14  1  0
 15  9  1  0
 15 14  1  0
 16  9  2  0
 19 22  1  0
 19 17  1  0
 20 18  1  0
 21  2  1  0
 21 17  1  0
 21 18  1  0
 22 20  1  0
 23 24  2  0
 24 43  1  0
 25 24  1  0
 25 28  1  0
 26 27  1  0
 26 23  1  0
 27 25  2  0
 28 29  1  0
 29 30  2  0
 31 34  1  0
 31 30  1  0
 32 31  2  0
 33 32  1  0
 33 28  2  0
 34 35  1  0
 35 36  1  0
 36 37  2  0
 38 37  1  0
 38 42  1  0
 39 38  2  0
 40 35  2  0
 40 39  1  0
 41 40  1  0
 43 44  1  0
 44 47  1  0
 44 46  1  0
 45 43  2  0
 48 49  1  0
 48 23  1  0
 50 48  1  0
 51  5  1  0
 51 53  1  0
 52 63  2  0
 53 58  1  0
 54 62  1  0
 54 64  1  0
 55 61  1  0
 55 57  1  0
 56 62  1  0
 57 56  1  0
 58 57  2  0
 59 53  2  0
 60 59  1  0
 60 55  2  0
 61 54  1  0
 62 52  1  0
 64 66  2  0
 65 64  1  0
 67 65  1  0
 68 77  2  0
 68 73  1  0
 69 65  1  0
 69 73  1  0
 70 69  1  0
 71 72  1  0
 71 70  1  0
 72 68  1  0
 73 74  2  0
 74 75  1  0
 76 75  2  0
 77 76  1  0
 78 52  1  0
 78 79  1  0
 78 88  1  0
 79 82  1  0
 80 84  1  0
 80 79  1  0
 81 80  2  0
 84 83  1  0
 86 84  1  0
 86 87  1  0
 86 85  1  0
 88 91  1  1
 88 89  1  0
 90 88  1  0
M  ISO  4   5 101   9 100  22 100  51 101
M  END
>  <TORSDO>  (58) 
F 16

>  <SCORE>  (58) 
-16.123

>  <name>  (58) 
57

>  <ligand_id>  (58) 
57

>  <original_smiles>  (58) 
[H]c1c([H])c([H])c2c(c1[H])C([H])([H])C([H])([H])C([H])([H])C2([H])N([H])C(=O)C1([H])N(C(=O)C([H])(N([H])C(=O)C([H])(N([H])C([H])([H])[H])C([H])([H])[H])C(C([H])([H])[H])(C([H])([H])[H])C([H])([H])[H])C([H])([H])c2c([H])c(Oc3nc(C([H])([H])[H])c(C4([H])C([H])([H])C([H])([H])N(C(=O)N5C([H])([H])C([H])([H])C([H])([H])C([H])(n6nc(-c7c([H])c([H])c(Oc8c([H])c([H])c(F)c([H])c8F)c([H])c7[H])c(C(=O)N([H])[H])c6N([H])[H])C5([H])[H])C([H])([H])C4([H])[H])c([H])c3C([H])([H])[H])c([H])c([H])c2C1([H])[H]

>  <smiles>  (58) 
[H]c1c([H])c([H])c2c(c1[H])C([H])([H])C([H])([H])C([H])([H])C2([H])N([H])C(=O)C1([H])N(C(=O)C([H])(N([H])C(=O)C([H])(N([H])C([H])([H])[H])C([H])([H])[H])C(C([H])([H])[H])(C([H])([H])[H])C([H])([H])[H])C([H])([H])c2c([H])c(Oc3nc(C([H])([H])[H])c(C4([H])C([H])([H])C([H])([H])N(C(=O)N5C([H])([H])C([H])([H])C([H])([H])C([H])(n6nc(-c7c([H])c([H])c(Oc8c([H])c([H])c(F)c([H])c8F)c([H])c7[H])c(C(=O)N([H])[H])c6N([H])[H])C5([H])[H])C([H])([H])C4([H])[H])c([H])c3C([H])([H])[H])c([H])c([H])c2C1([H])[H]

$$$$
58:0:0
     RDKit          3D

 91101  0  0  1  0  0  0  0  0999 V2000
  -31.2760  -19.4860   20.1540 C   0  0  0  0  0  3  0  0  0  0  0  0
  -29.8950  -19.2730   20.0980 C   0  0  0  0  0  0  0  0  0  0  0  0
  -31.7660  -20.8010   20.0640 C   0  0  0  0  0  0  0  0  0  0  0  0
  -29.6250  -21.7730   20.0230 C   0  0  0  0  0  0  0  0  0  0  0  0
  -33.2670  -21.0340   19.9070 C   0  0  0  0  0  1  0  0  0  0  0  0
  -29.1020  -20.4660   19.9910 N   0  0  0  0  0  0  0  0  0  0  0  0
  -30.9580  -21.8960   20.0330 N   0  0  0  0  0  0  0  0  0  0  0  0
  -30.5430  -15.0840   19.9880 C   0  0  0  0  0  0  0  0  0  0  0  0
  -30.4210  -12.7540   18.9250 C   0  0  0  0  0  2  0  0  0  0  0  0
  -29.3890  -12.7620   17.7690 C   0  0  0  0  0  2  0  0  0  0  0  0
  -27.9590  -12.5120   18.2960 C   0  0  0  0  0  2  0  0  0  0  0  0
  -27.6600  -13.3280   19.5770 C   0  0  0  0  0  3  0  0  0  0  0  0
  -28.8130  -13.1910   20.6030 C   0  0  0  0  0  2  0  0  0  0  0  0
  -30.0080  -13.7730   19.9500 N   0  0  0  0  0  0  0  0  0  0  0  0
  -31.6560  -15.2040   19.4630 O   0  0  0  0  0  0  0  0  0  0  0  0
  -28.2710  -17.5790   21.1210 C   0  0  0  0  0  2  0  0  0  0  0  0
  -28.6960  -16.1480   21.4030 C   0  0  0  0  0  2  0  0  0  0  0  0
  -29.2990  -17.7240   20.0020 C   0  0  0  0  0  3  0  0  0  0  0  0
  -29.7820  -16.2400   20.4240 N   0  0  0  0  0  0  0  0  0  0  0  0
  -25.3140  -13.8790   20.4400 C   0  0  0  0  0  0  0  0  0  0  0  0
  -24.2860  -13.0890   20.8770 C   0  0  0  0  0  0  0  0  0  0  0  0
  -24.7510  -11.7450   20.7680 C   0  0  0  0  0  0  0  0  0  0  0  0
  -26.3550  -13.0120   20.1370 N   0  0  0  0  0  0  0  0  0  0  0  0
  -26.0190  -11.7210   20.3800 N   0  0  0  0  0  0  0  0  0  0  0  0
  -24.0430  -10.4770   20.9610 C   0  0  0  0  0  0  0  0  0  0  0  0
  -24.5050   -9.5070   21.8760 C   0  0  0  0  0  3  0  0  0  0  0  0
  -23.7990   -8.3000   22.0610 C   0  0  0  0  0  3  0  0  0  0  0  0
  -22.6120   -8.0590   21.3300 C   0  0  0  0  0  0  0  0  0  0  0  0
  -22.1680   -9.0190   20.4030 C   0  0  0  0  0  3  0  0  0  0  0  0
  -22.8750  -10.2170   20.2170 C   0  0  0  0  0  3  0  0  0  0  0  0
  -21.8720   -6.9060   21.4280 O   0  0  0  0  0  0  0  0  0  0  0  0
  -21.7940   -6.1950   22.5990 C   0  0  0  0  0  0  0  0  0  0  0  0
  -21.3020   -6.7710   23.7900 C   0  0  0  0  0  3  0  0  0  0  0  0
  -21.1780   -5.9840   24.9520 C   0  0  0  0  0  3  0  0  0  0  0  0
  -21.5310   -4.6220   24.9230 C   0  0  0  0  0  0  0  0  0  0  0  0
  -22.0090   -4.0460   23.7330 C   0  0  0  0  0  3  0  0  0  0  0  0
  -22.1390   -4.8290   22.5730 C   0  0  0  0  0  0  0  0  0  0  0  0
  -22.5840   -4.2650   21.4260 F   0  0  0  0  0  0  0  0  0  0  0  0
  -21.4020   -3.8640   26.0350 F   0  0  0  0  0  0  0  0  0  0  0  0
  -22.9120  -13.5520   21.2550 C   0  0  0  0  0  0  0  0  0  0  0  0
  -22.2580  -12.8320   22.1600 N   0  0  0  0  0  0  0  0  0  0  0  0
  -22.4270  -14.5820   20.7900 O   0  0  0  0  0  0  0  0  0  0  0  0
  -22.6680  -12.0020   22.5620 H   0  0  0  0  0  0  0  0  0  0  0  0
  -21.3360  -13.1160   22.4520 H   0  0  0  0  0  0  0  0  0  0  0  0
  -25.4290  -15.2510   20.2420 N   0  0  0  0  0  0  0  0  0  0  0  0
  -24.6070  -15.8400   20.3140 H   0  0  0  0  0  0  0  0  0  0  0  0
  -26.1520  -15.6650   19.6670 H   0  0  0  0  0  0  0  0  0  0  0  0
  -27.4690  -23.6500   20.1430 C   0  0  0  0  0  2  0  0  0  0  0  0
  -28.8540  -23.2350   19.6710 C   0  0  0  0  0  3  0  0  0  0  0  0
  -28.5340  -24.6530   20.5340 C   0  0  0  0  0  3  0  0  0  0  0  0
  -28.4400  -26.1870   20.1080 O   0  0  0  0  0  0  0  0  0  0  0  0
  -24.6840  -31.8700   23.2350 C   0  0  0  0  0  0  0  0  0  0  0  0
  -27.3290  -27.1230   20.2110 C   0  0  0  0  0  0  0  0  0  0  0  0
  -23.5090  -30.4610   21.5930 C   0  0  0  0  0  3  0  0  0  0  0  0
  -24.9750  -28.8700   20.1990 C   0  0  0  0  0  0  0  0  0  0  0  0
  -26.0690  -30.7270   21.4480 C   0  0  0  0  0  2  0  0  0  0  0  0
  -26.1570  -29.3260   20.7990 C   0  0  0  0  0  0  0  0  0  0  0  0
  -27.3350  -28.4760   20.7690 C   0  0  0  0  0  3  0  0  0  0  0  0
  -26.1130  -26.7780   19.5830 C   0  0  0  0  0  3  0  0  0  0  0  0
  -24.9660  -27.6090   19.5800 C   0  0  0  0  0  3  0  0  0  0  0  0
  -23.7450  -29.7720   20.2250 C   0  0  0  0  0  2  0  0  0  0  0  0
  -24.7740  -31.0450   22.1460 N   0  0  0  0  0  0  0  0  0  0  0  0
  -23.5890  -32.1490   23.7480 O   0  0  0  0  0  0  0  0  0  0  0  0
  -22.8220  -29.4610   22.5580 C   0  0  0  0  0  0  0  0  0  0  0  0
  -21.4960  -29.2840   22.4170 N   0  0  0  0  0  0  0  0  0  0  0  0
  -23.4880  -28.8430   23.3920 O   0  0  0  0  0  0  0  0  0  0  0  0
  -21.0210  -29.8310   21.7130 H   0  0  0  0  0  0  0  0  0  0  0  0
  -18.1090  -28.0880   22.9240 C   0  0  0  0  0  0  0  0  0  0  0  0
  -20.6700  -28.3440   23.1820 C   0  0  0  0  0  3  0  0  0  0  0  0
  -20.7640  -26.9160   22.5960 C   0  0  0  0  0  2  0  0  0  0  0  0
  -19.6580  -26.6020   21.5840 C   0  0  0  0  0  2  0  0  0  0  0  0
  -18.2790  -26.7450   22.2330 C   0  0  0  0  0  2  0  0  0  0  0  0
  -19.2320  -28.8450   23.3530 C   0  0  0  0  0  0  0  0  0  0  0  0
  -19.0160  -30.0990   23.9630 C   0  0  0  0  0  3  0  0  0  0  0  0
  -17.7120  -30.5980   24.1460 C   0  0  0  0  0  3  0  0  0  0  0  0
  -16.6050  -29.8400   23.7310 C   0  0  0  0  0  3  0  0  0  0  0  0
  -16.8040  -28.5870   23.1240 C   0  0  0  0  0  3  0  0  0  0  0  0
  -25.9480  -32.5150   23.8760 C   0  0  0  0  0  3  0  0  0  0  0  0
  -25.6190  -33.9150   24.2010 N   0  0  0  0  0  0  0  0  0  0  0  0
  -25.9350  -34.9730   23.4410 C   0  0  0  0  0  0  0  0  0  0  0  0
  -26.6000  -34.8750   22.4070 O   0  0  0  0  0  0  0  0  0  0  0  0
  -25.0260  -34.0630   25.0040 H   0  0  0  0  0  0  0  0  0  0  0  0
  -24.1840  -36.7500   23.1030 C   0  0  0  0  0  1  0  0  0  0  0  0
  -25.4410  -36.3610   23.8980 C   0  0  0  0  0  3  0  0  0  0  0  0
  -27.5800  -37.2720   24.6940 C   0  0  0  0  0  1  0  0  0  0  0  0
  -26.4610  -37.4260   23.7680 N   0  0  0  0  0  0  0  0  0  0  0  0
  -26.0450  -38.3390   23.9210 H   0  0  0  0  0  0  0  0  0  0  0  0
  -26.4450  -31.7570   25.1680 C   0  0  1  0  0  0  0  0  0  0  0  0
  -25.3360  -31.5170   26.2190 C   0  0  0  0  0  1  0  0  0  0  0  0
  -27.0440  -30.3790   24.8040 C   0  0  0  0  0  1  0  0  0  0  0  0
  -27.5800  -32.5650   25.8380 C   0  0  0  0  0  1  0  0  0  0  0  0
  2  1  2  0
  3  1  1  0
  4  7  1  0
  5  3  1  0
  6  4  2  0
  6  2  1  0
  7  3  2  0
  8 19  1  0
  9 14  1  0
 10 11  1  0
 10  9  1  0
 12 11  1  0
 12 23  1  0
 12 13  1  0
 14  8  1  0
 14 13  1  0
 15  8  2  0
 16 17  1  0
 18  2  1  0
 18 19  1  0
 18 16  1  0
 19 17  1  0
 20 21  2  0
 21 40  1  0
 22 21  1  0
 22 25  1  0
 23 24  1  0
 23 20  1  0
 24 22  2  0
 25 26  1  0
 26 27  2  0
 28 31  1  0
 28 27  1  0
 29 28  2  0
 30 29  1  0
 30 25  2  0
 31 32  1  0
 32 33  1  0
 33 34  2  0
 35 34  1  0
 35 39  1  0
 36 35  2  0
 37 32  2  0
 37 36  1  0
 38 37  1  0
 40 41  1  0
 41 44  1  0
 41 43  1  0
 42 40  2  0
 45 46  1  0
 45 20  1  0
 47 45  1  0
 48 50  1  0
 49  4  1  0
 49 48  1  0
 49 50  1  0
 50 51  1  0
 51 53  1  0
 52 63  2  0
 53 58  1  0
 54 62  1  0
 54 64  1  0
 55 61  1  0
 55 57  1  0
 56 62  1  0
 57 56  1  0
 58 57  2  0
 59 53  2  0
 60 59  1  0
 60 55  2  0
 61 54  1  0
 62 52  1  0
 64 66  2  0
 65 64  1  0
 67 65  1  0
 68 77  2  0
 68 73  1  0
 69 65  1  0
 69 73  1  0
 70 69  1  0
 71 72  1  0
 71 70  1  0
 72 68  1  0
 73 74  2  0
 74 75  1  0
 76 75  2  0
 77 76  1  0
 78 52  1  0
 78 79  1  0
 78 88  1  0
 79 82  1  0
 80 84  1  0
 80 79  1  0
 81 80  2  0
 84 83  1  0
 86 84  1  0
 86 87  1  0
 86 85  1  0
 88 91  1  1
 88 89  1  0
 90 88  1  0
M  ISO  4   8 100  19 100  50 101  51 101
M  END
>  <TORSDO>  (59) 
F 17

>  <SCORE>  (59) 
-13.749

>  <name>  (59) 
58

>  <ligand_id>  (59) 
58

>  <original_smiles>  (59) 
[H]c1c(C([H])([H])[H])nc(C2([H])C([H])([H])C2([H])Oc2c([H])c([H])c3c(c2[H])C([H])([H])N(C(=O)C([H])(N([H])C(=O)C([H])(N([H])C([H])([H])[H])C([H])([H])[H])C(C([H])([H])[H])(C([H])([H])[H])C([H])([H])[H])C([H])(C(=O)N([H])C2([H])c4c([H])c([H])c([H])c([H])c4C([H])([H])C([H])([H])C2([H])[H])C3([H])[H])nc1C1([H])N(C(=O)N2C([H])([H])C([H])([H])C([H])([H])C([H])(n3nc(-c4c([H])c([H])c(Oc5c([H])c([H])c(F)c([H])c5F)c([H])c4[H])c(C(=O)N([H])[H])c3N([H])[H])C2([H])[H])C([H])([H])C1([H])[H]

>  <smiles>  (59) 
[H]c1c(C([H])([H])[H])nc(C2([H])C([H])([H])C2([H])Oc2c([H])c([H])c3c(c2[H])C([H])([H])N(C(=O)C([H])(N([H])C(=O)C([H])(N([H])C([H])([H])[H])C([H])([H])[H])C(C([H])([H])[H])(C([H])([H])[H])C([H])([H])[H])C([H])(C(=O)N([H])C2([H])c4c([H])c([H])c([H])c([H])c4C([H])([H])C([H])([H])C2([H])[H])C3([H])[H])nc1C1([H])N(C(=O)N2C([H])([H])C([H])([H])C([H])([H])C([H])(n3nc(-c4c([H])c([H])c(Oc5c([H])c([H])c(F)c([H])c5F)c([H])c4[H])c(C(=O)N([H])[H])c3N([H])[H])C2([H])[H])C([H])([H])C1([H])[H]

$$$$
59:0:0
     RDKit          3D

 99110  0  0  1  0  0  0  0  0999 V2000
  -29.5970  -20.6380   20.7470 C   0  0  0  0  0  3  0  0  0  0  0  0
  -28.6840  -21.7070   20.4610 C   0  0  0  0  0  0  0  0  0  0  0  0
  -29.4390  -19.3340   20.1820 C   0  0  0  0  0  0  0  0  0  0  0  0
  -27.5580  -21.3710   19.6520 C   0  0  0  0  0  0  0  0  0  0  0  0
  -28.3310  -19.1740   19.3220 C   0  0  0  0  0  0  0  0  0  0  0  0
  -27.4250  -20.1420   19.1190 N   0  0  0  0  0  0  0  0  0  0  0  0
  -30.3680  -23.6640   20.6120 C   0  0  0  0  0  2  0  0  0  0  0  0
  -30.2330  -25.1700   20.3330 C   0  0  0  0  0  2  0  0  0  0  0  0
  -28.9940  -23.1300   21.0520 C   0  0  0  0  0  3  0  0  0  0  0  0
  -28.0270  -24.3640   20.8730 C   0  0  0  0  0  3  0  0  0  0  0  0
  -28.8950  -25.6620   20.9060 C   0  0  0  0  0  3  0  0  0  0  0  0
  -26.9500  -24.3680   21.9740 C   0  0  0  0  0  1  0  0  0  0  0  0
  -28.5520  -26.8220   20.0970 O   0  0  0  0  0  0  0  0  0  0  0  0
  -24.6050  -31.9400   23.2430 C   0  0  0  0  0  0  0  0  0  0  0  0
  -27.3530  -27.5040   20.2170 C   0  0  0  0  0  0  0  0  0  0  0  0
  -23.4380  -30.5220   21.5840 C   0  0  0  0  0  3  0  0  0  0  0  0
  -24.9370  -29.0000   20.1820 C   0  0  0  0  0  0  0  0  0  0  0  0
  -25.9610  -30.9160   21.4140 C   0  0  0  0  0  2  0  0  0  0  0  0
  -26.0810  -29.5360   20.7880 C   0  0  0  0  0  0  0  0  0  0  0  0
  -27.2920  -28.7980   20.8000 C   0  0  0  0  0  3  0  0  0  0  0  0
  -26.1940  -26.9930   19.5950 C   0  0  0  0  0  3  0  0  0  0  0  0
  -24.9910  -27.7300   19.5830 C   0  0  0  0  0  3  0  0  0  0  0  0
  -23.6800  -29.8460   20.2070 C   0  0  0  0  0  2  0  0  0  0  0  0
  -24.6870  -31.1430   22.1390 N   0  0  0  0  0  0  0  0  0  0  0  0
  -23.5140  -32.1920   23.7720 O   0  0  0  0  0  0  0  0  0  0  0  0
  -22.7940  -29.4890   22.5380 C   0  0  0  0  0  0  0  0  0  0  0  0
  -21.4790  -29.2660   22.3800 N   0  0  0  0  0  0  0  0  0  0  0  0
  -23.4760  -28.8910   23.3750 O   0  0  0  0  0  0  0  0  0  0  0  0
  -20.9880  -29.8050   21.6810 H   0  0  0  0  0  0  0  0  0  0  0  0
  -18.1380  -27.9430   22.7790 C   0  0  0  0  0  0  0  0  0  0  0  0
  -20.6740  -28.3050   23.1330 C   0  0  0  0  0  3  0  0  0  0  0  0
  -20.8520  -26.8720   22.5800 C   0  0  0  0  0  2  0  0  0  0  0  0
  -19.7990  -26.4930   21.5350 C   0  0  0  0  0  2  0  0  0  0  0  0
  -18.3910  -26.5930   22.1290 C   0  0  0  0  0  2  0  0  0  0  0  0
  -19.2110  -28.7530   23.2360 C   0  0  0  0  0  0  0  0  0  0  0  0
  -18.9250  -30.0160   23.8000 C   0  0  0  0  0  3  0  0  0  0  0  0
  -17.5980  -30.4690   23.9140 C   0  0  0  0  0  3  0  0  0  0  0  0
  -16.5380  -29.6550   23.4740 C   0  0  0  0  0  3  0  0  0  0  0  0
  -16.8090  -28.3950   22.9120 C   0  0  0  0  0  3  0  0  0  0  0  0
  -25.8750  -32.5920   23.8750 C   0  0  0  0  0  3  0  0  0  0  0  0
  -25.5430  -33.9860   24.1950 N   0  0  0  0  0  0  0  0  0  0  0  0
  -25.8670  -35.0400   23.4330 C   0  0  0  0  0  0  0  0  0  0  0  0
  -26.5510  -34.9390   22.4090 O   0  0  0  0  0  0  0  0  0  0  0  0
  -24.9380  -34.1350   24.9890 H   0  0  0  0  0  0  0  0  0  0  0  0
  -24.1170  -36.8050   23.0490 C   0  0  0  0  0  1  0  0  0  0  0  0
  -25.3550  -36.4230   23.8760 C   0  0  0  0  0  3  0  0  0  0  0  0
  -27.4660  -37.3450   24.7230 C   0  0  0  0  0  1  0  0  0  0  0  0
  -26.3720  -37.4900   23.7690 N   0  0  0  0  0  0  0  0  0  0  0  0
  -25.9490  -38.4040   23.9100 H   0  0  0  0  0  0  0  0  0  0  0  0
  -26.3870  -31.8320   25.1610 C   0  0  1  0  0  0  0  0  0  0  0  0
  -25.2830  -31.5860   26.2170 C   0  0  0  0  0  1  0  0  0  0  0  0
  -26.9950  -30.4620   24.7800 C   0  0  0  0  0  1  0  0  0  0  0  0
  -27.5160  -32.6480   25.8360 C   0  0  0  0  0  1  0  0  0  0  0  0
  -25.4830  -21.9310   18.1010 C   0  0  0  0  0  2  0  0  0  0  0  0
  -26.3500  -23.1540   18.0900 C   0  0  0  0  0  2  0  0  0  0  0  0
  -26.3680  -22.2420   19.3040 C   0  0  0  0  0  3  0  0  0  0  0  0
  -26.7430  -17.2440   18.5570 C   0  0  0  0  0  2  0  0  0  0  0  0
  -27.9950  -16.5970   19.0750 C   0  0  0  0  0  2  0  0  0  0  0  0
  -28.0730  -17.9680   18.4690 C   0  0  0  0  0  3  0  0  0  0  0  0
  -30.4990  -18.1960   20.3420 C   0  0  0  0  0  2  0  0  0  0  0  0
  -30.3540  -17.1570   21.5140 C   0  0  0  0  0  2  0  0  0  0  0  0
  -30.8220  -14.7260   20.7370 C   0  0  0  0  0  0  0  0  0  0  0  0
  -30.6260  -12.5470   19.5690 C   0  0  0  0  0  2  0  0  0  0  0  0
  -29.6890  -12.7010   18.3530 C   0  0  0  0  0  2  0  0  0  0  0  0
  -28.2130  -12.5220   18.7650 C   0  0  0  0  0  2  0  0  0  0  0  0
  -27.8370  -13.3450   20.0230 C   0  0  0  0  0  3  0  0  0  0  0  0
  -28.8820  -13.1610   21.1430 C   0  0  0  0  0  2  0  0  0  0  0  0
  -30.1980  -13.5210   20.5860 N   0  0  0  0  0  0  0  0  0  0  0  0
  -31.9800  -14.9240   20.3620 O   0  0  0  0  0  0  0  0  0  0  0  0
  -30.0330  -15.7390   21.1770 N   0  0  0  0  0  0  0  0  0  0  0  0
  -29.0880  -15.4560   21.3940 H   0  0  0  0  0  0  0  0  0  0  0  0
  -25.4300  -13.9330   20.7160 C   0  0  0  0  0  0  0  0  0  0  0  0
  -24.3600  -13.1480   21.0530 C   0  0  0  0  0  0  0  0  0  0  0  0
  -24.8280  -11.8000   20.9950 C   0  0  0  0  0  0  0  0  0  0  0  0
  -26.4800  -13.0590   20.4780 N   0  0  0  0  0  0  0  0  0  0  0  0
  -26.1210  -11.7710   20.7030 N   0  0  0  0  0  0  0  0  0  0  0  0
  -24.1070  -10.5310   21.1420 C   0  0  0  0  0  0  0  0  0  0  0  0
  -24.5210   -9.5490   22.0680 C   0  0  0  0  0  3  0  0  0  0  0  0
  -23.8000   -8.3430   22.2020 C   0  0  0  0  0  3  0  0  0  0  0  0
  -22.6510   -8.1120   21.4090 C   0  0  0  0  0  0  0  0  0  0  0  0
  -22.2580   -9.0820   20.4710 C   0  0  0  0  0  3  0  0  0  0  0  0
  -22.9790  -10.2790   20.3350 C   0  0  0  0  0  3  0  0  0  0  0  0
  -21.9040   -6.9600   21.4540 O   0  0  0  0  0  0  0  0  0  0  0  0
  -21.8060   -6.2110   22.5990 C   0  0  0  0  0  0  0  0  0  0  0  0
  -21.3030   -6.7500   23.8030 C   0  0  0  0  0  3  0  0  0  0  0  0
  -21.1540   -5.9250   24.9360 C   0  0  0  0  0  3  0  0  0  0  0  0
  -21.4990   -4.5620   24.8650 C   0  0  0  0  0  0  0  0  0  0  0  0
  -21.9950   -4.0220   23.6640 C   0  0  0  0  0  3  0  0  0  0  0  0
  -22.1460   -4.8450   22.5340 C   0  0  0  0  0  0  0  0  0  0  0  0
  -22.6040   -4.3140   21.3750 F   0  0  0  0  0  0  0  0  0  0  0  0
  -21.3490   -3.7670   25.9510 F   0  0  0  0  0  0  0  0  0  0  0  0
  -22.9590  -13.6150   21.3160 C   0  0  0  0  0  0  0  0  0  0  0  0
  -22.2210  -12.8930   22.1550 N   0  0  0  0  0  0  0  0  0  0  0  0
  -22.5220  -14.6490   20.8130 O   0  0  0  0  0  0  0  0  0  0  0  0
  -22.5880  -12.0560   22.5830 H   0  0  0  0  0  0  0  0  0  0  0  0
  -21.2790  -13.1850   22.3720 H   0  0  0  0  0  0  0  0  0  0  0  0
  -25.5870  -15.3070   20.5690 N   0  0  0  0  0  0  0  0  0  0  0  0
  -24.8000  -15.9400   20.6560 H   0  0  0  0  0  0  0  0  0  0  0  0
  -26.4070  -15.7500   20.1790 H   0  0  0  0  0  0  0  0  0  0  0  0
  2  1  1  0
  3 60  1  0
  3  1  2  0
  4  2  2  0
  5  3  1  0
  6  5  2  0
  6  4  1  0
  7  9  1  0
  8  7  1  0
  8 11  1  0
  9  2  1  0
 10 11  1  0
 10  9  1  0
 10 12  1  0
 11 13  1  0
 13 15  1  0
 14 25  2  0
 15 20  1  0
 16 24  1  0
 16 26  1  0
 17 23  1  0
 17 19  1  0
 18 24  1  0
 19 20  2  0
 19 18  1  0
 21 15  2  0
 22 21  1  0
 22 17  2  0
 23 16  1  0
 24 14  1  0
 26 28  2  0
 27 26  1  0
 29 27  1  0
 30 39  2  0
 30 35  1  0
 31 27  1  0
 31 35  1  0
 32 31  1  0
 33 34  1  0
 33 32  1  0
 34 30  1  0
 35 36  2  0
 36 37  1  0
 38 37  2  0
 39 38  1  0
 40 14  1  0
 40 41  1  0
 40 50  1  0
 41 44  1  0
 42 46  1  0
 42 41  1  0
 43 42  2  0
 46 45  1  0
 48 46  1  0
 48 49  1  0
 48 47  1  0
 50 53  1  1
 50 51  1  0
 52 50  1  0
 54 56  1  0
 55 54  1  0
 55 56  1  0
 56  4  1  0
 57 58  1  0
 59 57  1  0
 59 58  1  0
 59  5  1  0
 60 61  1  0
 62 70  1  0
 63 68  1  0
 64 65  1  0
 64 63  1  0
 66 65  1  0
 66 75  1  0
 66 67  1  0
 68 62  1  0
 68 67  1  0
 69 62  2  0
 70 71  1  0
 70 61  1  0
 72 73  2  0
 73 92  1  0
 74 73  1  0
 74 77  1  0
 75 76  1  0
 75 72  1  0
 76 74  2  0
 77 78  1  0
 78 79  2  0
 80 83  1  0
 80 79  1  0
 81 80  2  0
 82 81  1  0
 82 77  2  0
 83 84  1  0
 84 85  1  0
 85 86  2  0
 87 86  1  0
 87 91  1  0
 88 87  2  0
 89 84  2  0
 89 88  1  0
 90 89  1  0
 92 93  1  0
 93 96  1  0
 93 95  1  0
 94 92  2  0
 97 98  1  0
 97 72  1  0
 99 97  1  0
M  ISO  4  11 101  13 101  62 100  70 100
M  END
>  <TORSDO>  (60) 
F 21

>  <SCORE>  (60) 
-13.343

>  <name>  (60) 
59

>  <ligand_id>  (60) 
59

>  <original_smiles>  (60) 
[H]c1c([H])c([H])c2c(c1[H])C([H])([H])C([H])([H])C([H])([H])C2([H])N([H])C(=O)C1([H])N(C(=O)C([H])(N([H])C(=O)C([H])(N([H])C([H])([H])[H])C([H])([H])[H])C(C([H])([H])[H])(C([H])([H])[H])C([H])([H])[H])C([H])([H])c2c([H])c(OC3([H])C([H])([H])C([H])([H])C([H])(c4c(C5([H])C([H])([H])C5([H])[H])nc(C5([H])C([H])([H])C5([H])[H])c(C([H])([H])C([H])([H])N([H])C(=O)N5C([H])([H])C([H])([H])C([H])([H])C([H])(n6nc(-c7c([H])c([H])c(Oc8c([H])c([H])c(F)c([H])c8F)c([H])c7[H])c(C(=O)N([H])[H])c6N([H])[H])C5([H])[H])c4[H])C3([H])C([H])([H])[H])c([H])c([H])c2C1([H])[H]

>  <smiles>  (60) 
[H]c1c([H])c([H])c2c(c1[H])C([H])([H])C([H])([H])C([H])([H])C2([H])N([H])C(=O)C1([H])N(C(=O)C([H])(N([H])C(=O)C([H])(N([H])C([H])([H])[H])C([H])([H])[H])C(C([H])([H])[H])(C([H])([H])[H])C([H])([H])[H])C([H])([H])c2c([H])c(OC3([H])C([H])([H])C([H])([H])C([H])(c4c(C5([H])C([H])([H])C5([H])[H])nc(C5([H])C([H])([H])C5([H])[H])c(C([H])([H])C([H])([H])N([H])C(=O)N5C([H])([H])C([H])([H])C([H])([H])C([H])(n6nc(-c7c([H])c([H])c(Oc8c([H])c([H])c(F)c([H])c8F)c([H])c7[H])c(C(=O)N([H])[H])c6N([H])[H])C5([H])[H])c4[H])C3([H])C([H])([H])[H])c([H])c([H])c2C1([H])[H]

$$$$
60:0:0
     RDKit          3D

 98108  0  0  1  0  0  0  0  0999 V2000
  -30.2540  -22.3050   20.0200 C   0  0  0  0  0  3  0  0  0  0  0  0
  -29.8560  -23.4630   20.7240 C   0  0  0  0  0  0  0  0  0  0  0  0
  -29.7860  -23.3680   22.1390 C   0  0  0  0  0  0  0  0  0  0  0  0
  -30.5490  -21.1200   20.7250 C   0  0  0  0  0  0  0  0  0  0  0  0
  -30.0560  -22.1250   22.7570 C   0  0  0  0  0  0  0  0  0  0  0  0
  -29.4350  -24.5870   22.9920 C   0  0  0  0  0  1  0  0  0  0  0  0
  -30.4120  -21.0250   22.0640 N   0  0  0  0  0  0  0  0  0  0  0  0
  -28.6860  -24.7770   18.7470 C   0  0  0  0  0  2  0  0  0  0  0  0
  -29.5840  -24.7510   19.9720 C   0  0  0  0  0  3  0  0  0  0  0  0
  -28.2400  -25.4620   20.0140 C   0  0  0  0  0  3  0  0  0  0  0  0
  -28.3410  -26.8910   19.9830 O   0  0  0  0  0  0  0  0  0  0  0  0
  -24.5630  -31.9790   23.2000 C   0  0  0  0  0  0  0  0  0  0  0  0
  -27.1560  -27.5970   19.9980 C   0  0  0  0  0  0  0  0  0  0  0  0
  -23.3250  -30.6020   21.5600 C   0  0  0  0  0  3  0  0  0  0  0  0
  -24.7510  -29.0900   20.0810 C   0  0  0  0  0  0  0  0  0  0  0  0
  -25.8430  -30.9710   21.3140 C   0  0  0  0  0  2  0  0  0  0  0  0
  -25.9190  -29.6110   20.6500 C   0  0  0  0  0  0  0  0  0  0  0  0
  -27.1240  -28.8760   20.6000 C   0  0  0  0  0  3  0  0  0  0  0  0
  -25.9680  -27.0860   19.4240 C   0  0  0  0  0  3  0  0  0  0  0  0
  -24.7710  -27.8270   19.4630 C   0  0  0  0  0  3  0  0  0  0  0  0
  -23.5050  -29.9420   20.1660 C   0  0  0  0  0  2  0  0  0  0  0  0
  -24.5970  -31.1980   22.0820 N   0  0  0  0  0  0  0  0  0  0  0  0
  -23.4930  -32.2410   23.7660 O   0  0  0  0  0  0  0  0  0  0  0  0
  -22.6960  -29.5650   22.5170 C   0  0  0  0  0  0  0  0  0  0  0  0
  -21.3690  -29.3850   22.4170 N   0  0  0  0  0  0  0  0  0  0  0  0
  -23.3980  -28.9230   23.3040 O   0  0  0  0  0  0  0  0  0  0  0  0
  -20.8630  -29.9550   21.7510 H   0  0  0  0  0  0  0  0  0  0  0  0
  -18.0030  -28.1930   22.9720 C   0  0  0  0  0  0  0  0  0  0  0  0
  -20.5680  -28.4350   23.1870 C   0  0  0  0  0  3  0  0  0  0  0  0
  -20.6500  -27.0150   22.5800 C   0  0  0  0  0  2  0  0  0  0  0  0
  -19.5240  -26.7180   21.5860 C   0  0  0  0  0  2  0  0  0  0  0  0
  -18.1570  -26.8570   22.2640 C   0  0  0  0  0  2  0  0  0  0  0  0
  -19.1350  -28.9410   23.3900 C   0  0  0  0  0  0  0  0  0  0  0  0
  -18.9370  -30.1940   24.0110 C   0  0  0  0  0  3  0  0  0  0  0  0
  -17.6380  -30.6970   24.2170 C   0  0  0  0  0  3  0  0  0  0  0  0
  -16.5210  -29.9440   23.8160 C   0  0  0  0  0  3  0  0  0  0  0  0
  -16.7050  -28.6940   23.1980 C   0  0  0  0  0  3  0  0  0  0  0  0
  -25.8610  -32.6010   23.8040 C   0  0  0  0  0  3  0  0  0  0  0  0
  -26.3950  -31.8230   25.0690 C   0  0  1  0  0  0  0  0  0  0  0  0
  -25.3180  -31.5810   26.1510 C   0  0  0  0  0  1  0  0  0  0  0  0
  -26.9690  -30.4460   24.6590 C   0  0  0  0  0  1  0  0  0  0  0  0
  -27.5580  -32.6110   25.7180 C   0  0  0  0  0  1  0  0  0  0  0  0
  -25.5660  -34.0000   24.1420 N   0  0  0  0  0  0  0  0  0  0  0  0
  -25.9000  -35.0530   23.3840 C   0  0  0  0  0  0  0  0  0  0  0  0
  -26.5630  -34.9480   22.3470 O   0  0  0  0  0  0  0  0  0  0  0  0
  -24.9800  -34.1580   24.9490 H   0  0  0  0  0  0  0  0  0  0  0  0
  -24.2020  -36.8710   23.0190 C   0  0  0  0  0  1  0  0  0  0  0  0
  -25.4240  -36.4420   23.8480 C   0  0  0  0  0  3  0  0  0  0  0  0
  -27.5560  -37.2880   24.7230 C   0  0  0  0  0  1  0  0  0  0  0  0
  -26.4700  -37.4860   23.7660 N   0  0  0  0  0  0  0  0  0  0  0  0
  -26.0720  -38.4060   23.9290 H   0  0  0  0  0  0  0  0  0  0  0  0
  -30.4750  -20.8070   24.8210 C   0  0  0  0  0  1  0  0  0  0  0  0
  -29.9680  -21.9950   24.1460 N   0  0  0  0  0  0  0  0  0  0  0  0
  -29.7680  -22.8180   24.7050 H   0  0  0  0  0  0  0  0  0  0  0  0
  -31.0910  -19.8750   20.0270 C   0  0  0  0  0  2  0  0  0  0  0  0
  -30.7010  -14.6740   20.2820 C   0  0  0  0  0  0  0  0  0  0  0  0
  -30.3460  -12.5020   19.1590 C   0  0  0  0  0  2  0  0  0  0  0  0
  -29.3710  -12.6410   17.9740 C   0  0  0  0  0  2  0  0  0  0  0  0
  -27.9200  -12.4500   18.4510 C   0  0  0  0  0  2  0  0  0  0  0  0
  -27.5880  -13.3200   19.6870 C   0  0  0  0  0  3  0  0  0  0  0  0
  -28.6810  -13.2140   20.7780 C   0  0  0  0  0  2  0  0  0  0  0  0
  -29.9850  -13.5160   20.1660 N   0  0  0  0  0  0  0  0  0  0  0  0
  -31.8150  -14.8110   19.7710 O   0  0  0  0  0  0  0  0  0  0  0  0
  -31.0130  -16.4880   21.9030 C   0  0  0  0  0  2  0  0  0  0  0  0
  -29.1070  -16.5690   20.4210 C   0  0  0  0  0  2  0  0  0  0  0  0
  -31.6150  -17.7500   21.2320 C   0  0  0  0  0  2  0  0  0  0  0  0
  -29.6450  -17.8720   19.7710 C   0  0  0  0  0  2  0  0  0  0  0  0
  -30.1640  -15.7070   20.9860 N   0  0  0  0  0  0  0  0  0  0  0  0
  -30.5670  -18.6300   20.6540 N   0  0  2  0  0  4  0  0  0  0  0  0
  -30.0410  -19.0120   21.4320 H   0  0  0  0  0  0  0  0  0  0  0  0
  -25.2240  -13.9240   20.4920 C   0  0  0  0  0  0  0  0  0  0  0  0
  -24.1670  -13.1470   20.8790 C   0  0  0  0  0  0  0  0  0  0  0  0
  -24.6260  -11.7970   20.8130 C   0  0  0  0  0  0  0  0  0  0  0  0
  -26.2580  -13.0430   20.2130 N   0  0  0  0  0  0  0  0  0  0  0  0
  -25.9070  -11.7600   20.4670 N   0  0  0  0  0  0  0  0  0  0  0  0
  -23.9090  -10.5310   21.0000 C   0  0  0  0  0  0  0  0  0  0  0  0
  -24.3390   -9.5730   21.9440 C   0  0  0  0  0  3  0  0  0  0  0  0
  -23.6220   -8.3690   22.1170 C   0  0  0  0  0  3  0  0  0  0  0  0
  -22.4630   -8.1180   21.3450 C   0  0  0  0  0  0  0  0  0  0  0  0
  -22.0550   -9.0650   20.3890 C   0  0  0  0  0  3  0  0  0  0  0  0
  -22.7720  -10.2590   20.2140 C   0  0  0  0  0  3  0  0  0  0  0  0
  -21.7160   -6.9670   21.4270 O   0  0  0  0  0  0  0  0  0  0  0  0
  -21.6370   -6.2440   22.5900 C   0  0  0  0  0  0  0  0  0  0  0  0
  -21.1220   -6.8010   23.7820 C   0  0  0  0  0  3  0  0  0  0  0  0
  -20.9960   -6.0020   24.9360 C   0  0  0  0  0  3  0  0  0  0  0  0
  -21.3720   -4.6450   24.8980 C   0  0  0  0  0  0  0  0  0  0  0  0
  -21.8770   -4.0880   23.7110 C   0  0  0  0  0  3  0  0  0  0  0  0
  -22.0080   -4.8850   22.5610 C   0  0  0  0  0  0  0  0  0  0  0  0
  -22.4760   -4.3370   21.4140 F   0  0  0  0  0  0  0  0  0  0  0  0
  -21.2430   -3.8760   26.0040 F   0  0  0  0  0  0  0  0  0  0  0  0
  -22.7780  -13.6210   21.2000 C   0  0  0  0  0  0  0  0  0  0  0  0
  -22.0690  -12.8990   22.0610 N   0  0  0  0  0  0  0  0  0  0  0  0
  -22.3300  -14.6630   20.7230 O   0  0  0  0  0  0  0  0  0  0  0  0
  -22.4430  -12.0540   22.4680 H   0  0  0  0  0  0  0  0  0  0  0  0
  -21.1380  -13.1960   22.3170 H   0  0  0  0  0  0  0  0  0  0  0  0
  -25.3870  -15.2990   20.3300 N   0  0  0  0  0  0  0  0  0  0  0  0
  -24.6290  -15.9560   20.4720 H   0  0  0  0  0  0  0  0  0  0  0  0
  -26.2250  -15.7370   19.9720 H   0  0  0  0  0  0  0  0  0  0  0  0
  1  2  2  0
  1  4  1  0
  2  3  1  0
  3  5  2  0
  3  6  1  0
  4  7  2  0
  5 53  1  0
  7  5  1  0
  8  9  1  0
  8 10  1  0
  9 10  1  0
  9  2  1  0
 10 11  1  0
 11 13  1  0
 12 23  2  0
 13 18  1  0
 14 22  1  0
 14 24  1  0
 15 21  1  0
 15 17  1  0
 16 22  1  0
 17 16  1  0
 18 17  2  0
 19 20  1  0
 19 13  2  0
 20 15  2  0
 21 14  1  0
 22 12  1  0
 24 26  2  0
 25 24  1  0
 27 25  1  0
 28 37  2  0
 28 33  1  0
 29 25  1  0
 29 33  1  0
 30 29  1  0
 31 32  1  0
 31 30  1  0
 32 28  1  0
 33 34  2  0
 34 35  1  0
 36 35  2  0
 37 36  1  0
 38 12  1  0
 38 43  1  0
 38 39  1  0
 39 42  1  1
 39 40  1  0
 41 39  1  0
 43 46  1  0
 44 48  1  0
 44 43  1  0
 45 44  2  0
 48 47  1  0
 50 48  1  0
 50 51  1  0
 50 49  1  0
 53 54  1  0
 53 52  1  0
 55 69  1  0
 55  4  1  0
 56 68  1  0
 57 62  1  0
 58 59  1  0
 58 57  1  0
 60 59  1  0
 60 74  1  0
 60 61  1  0
 62 56  1  0
 62 61  1  0
 63 56  2  0
 65 68  1  0
 66 64  1  0
 67 65  1  0
 67 69  1  0
 68 64  1  0
 69 66  1  0
 69 70  1  1
 71 72  2  0
 72 91  1  0
 73 72  1  0
 73 76  1  0
 74 75  1  0
 74 71  1  0
 75 73  2  0
 76 77  1  0
 77 78  2  0
 79 82  1  0
 79 78  1  0
 80 79  2  0
 81 80  1  0
 81 76  2  0
 82 83  1  0
 83 84  1  0
 84 85  2  0
 86 85  1  0
 86 90  1  0
 87 86  2  0
 88 83  2  0
 88 87  1  0
 89 88  1  0
 91 92  1  0
 92 95  1  0
 92 94  1  0
 93 91  2  0
 96 97  1  0
 96 71  1  0
 98 96  1  0
M  ISO  4  10 101  11 101  56 100  68 100
M  END
>  <TORSDO>  (61) 
F 19

>  <SCORE>  (61) 
-14.953

>  <name>  (61) 
60

>  <ligand_id>  (61) 
60

>  <original_smiles>  (61) 
[H]c1c([H])c([H])c2c(c1[H])C([H])([H])C([H])([H])C([H])([H])C2([H])N([H])C(=O)C1([H])N(C(=O)C([H])(N([H])C(=O)C([H])(N([H])C([H])([H])[H])C([H])([H])[H])C(C([H])([H])[H])(C([H])([H])[H])C([H])([H])[H])C([H])([H])c2c([H])c(OC3([H])C([H])([H])C3([H])c3c([H])c(C([H])([H])[N+]4([H])C([H])([H])C([H])([H])N(C(=O)N5C([H])([H])C([H])([H])C([H])([H])C([H])(n6nc(-c7c([H])c([H])c(Oc8c([H])c([H])c(F)c([H])c8F)c([H])c7[H])c(C(=O)N([H])[H])c6N([H])[H])C5([H])[H])C([H])([H])C4([H])[H])nc(N([H])C([H])([H])[H])c3C([H])([H])[H])c([H])c([H])c2C1([H])[H]

>  <smiles>  (61) 
[H]c1c([H])c([H])c2c(c1[H])C([H])([H])C([H])([H])C([H])([H])C2([H])N([H])C(=O)C1([H])N(C(=O)C([H])(N([H])C(=O)C([H])(N([H])C([H])([H])[H])C([H])([H])[H])C(C([H])([H])[H])(C([H])([H])[H])C([H])([H])[H])C([H])([H])c2c([H])c(OC3([H])C([H])([H])C3([H])c3c([H])c(C([H])([H])[N+]4([H])C([H])([H])C([H])([H])N(C(=O)N5C([H])([H])C([H])([H])C([H])([H])C([H])(n6nc(-c7c([H])c([H])c(Oc8c([H])c([H])c(F)c([H])c8F)c([H])c7[H])c(C(=O)N([H])[H])c6N([H])[H])C5([H])[H])C([H])([H])C4([H])[H])nc(N([H])C([H])([H])[H])c3C([H])([H])[H])c([H])c([H])c2C1([H])[H]

$$$$
61:0:0
     RDKit          3D

 96106  0  0  1  0  0  0  0  0999 V2000
  -29.9070  -22.5000   21.5340 C   0  0  0  0  0  3  0  0  0  0  0  0
  -29.5630  -23.8260   21.1650 C   0  0  0  0  0  0  0  0  0  0  0  0
  -28.7720  -24.0440   20.0080 C   0  0  0  0  0  0  0  0  0  0  0  0
  -28.3640  -22.8630   19.3100 C   0  0  0  0  0  0  0  0  0  0  0  0
  -29.4880  -21.3990   20.7620 C   0  0  0  0  0  0  0  0  0  0  0  0
  -30.0940  -24.9780   22.0000 C   0  0  0  0  0  1  0  0  0  0  0  0
  -28.7180  -21.5920   19.6740 N   0  0  0  0  0  0  0  0  0  0  0  0
  -29.9210  -20.1000   21.1350 N   0  0  0  0  0  0  0  0  0  0  0  0
  -30.5110  -20.0640   21.9590 H   0  0  0  0  0  0  0  0  0  0  0  0
  -30.7650  -14.6320   20.0750 C   0  0  0  0  0  0  0  0  0  0  0  0
  -30.4470  -12.4380   18.9710 C   0  0  0  0  0  2  0  0  0  0  0  0
  -29.4400  -12.6090   17.8140 C   0  0  0  0  0  2  0  0  0  0  0  0
  -27.9920  -12.4450   18.3210 C   0  0  0  0  0  2  0  0  0  0  0  0
  -27.7100  -13.2710   19.6050 C   0  0  0  0  0  3  0  0  0  0  0  0
  -28.8310  -13.0780   20.6490 C   0  0  0  0  0  2  0  0  0  0  0  0
  -30.1000  -13.4370   20.0010 N   0  0  0  0  0  0  0  0  0  0  0  0
  -31.9190  -14.7310   19.6440 O   0  0  0  0  0  0  0  0  0  0  0  0
  -29.5540  -17.7110   21.7540 C   0  0  0  0  0  2  0  0  0  0  0  0
  -30.3860  -18.2300   19.4950 C   0  0  0  0  0  2  0  0  0  0  0  0
  -29.2450  -16.2400   21.3280 C   0  0  0  0  0  2  0  0  0  0  0  0
  -30.0080  -16.7820   19.0560 C   0  0  0  0  0  2  0  0  0  0  0  0
  -29.4870  -18.7760   20.6250 C   0  0  0  0  0  3  0  0  0  0  0  0
  -29.9960  -15.7720   20.1440 N   0  0  0  0  0  0  0  0  0  0  0  0
  -25.3680  -13.8470   20.4910 C   0  0  0  0  0  0  0  0  0  0  0  0
  -24.3220  -13.0620   20.8950 C   0  0  0  0  0  0  0  0  0  0  0  0
  -24.7770  -11.7120   20.7820 C   0  0  0  0  0  0  0  0  0  0  0  0
  -26.3920  -12.9740   20.1600 N   0  0  0  0  0  0  0  0  0  0  0  0
  -26.0450  -11.6830   20.3940 N   0  0  0  0  0  0  0  0  0  0  0  0
  -24.0570  -10.4440   20.9650 C   0  0  0  0  0  0  0  0  0  0  0  0
  -24.4860   -9.4810   21.9050 C   0  0  0  0  0  3  0  0  0  0  0  0
  -23.7680   -8.2770   22.0750 C   0  0  0  0  0  3  0  0  0  0  0  0
  -22.6060   -8.0300   21.3050 C   0  0  0  0  0  0  0  0  0  0  0  0
  -22.1970   -8.9820   20.3550 C   0  0  0  0  0  3  0  0  0  0  0  0
  -22.9160  -10.1760   20.1830 C   0  0  0  0  0  3  0  0  0  0  0  0
  -21.8600   -6.8790   21.3850 O   0  0  0  0  0  0  0  0  0  0  0  0
  -21.7160   -6.1940   22.5650 C   0  0  0  0  0  0  0  0  0  0  0  0
  -21.1570   -6.7970   23.7120 C   0  0  0  0  0  3  0  0  0  0  0  0
  -20.9620   -6.0370   24.8830 C   0  0  0  0  0  3  0  0  0  0  0  0
  -21.3180   -4.6750   24.9070 C   0  0  0  0  0  0  0  0  0  0  0  0
  -21.8710   -4.0720   23.7640 C   0  0  0  0  0  3  0  0  0  0  0  0
  -22.0660   -4.8290   22.5950 C   0  0  0  0  0  0  0  0  0  0  0  0
  -22.5800   -4.2380   21.4890 F   0  0  0  0  0  0  0  0  0  0  0  0
  -21.1250   -3.9430   26.0290 F   0  0  0  0  0  0  0  0  0  0  0  0
  -22.9470  -13.5300   21.2710 C   0  0  0  0  0  0  0  0  0  0  0  0
  -22.2720  -12.8040   22.1550 N   0  0  0  0  0  0  0  0  0  0  0  0
  -22.4800  -14.5730   20.8150 O   0  0  0  0  0  0  0  0  0  0  0  0
  -22.6620  -11.9590   22.5450 H   0  0  0  0  0  0  0  0  0  0  0  0
  -21.3510  -13.0980   22.4490 H   0  0  0  0  0  0  0  0  0  0  0  0
  -25.5240  -15.2230   20.3560 N   0  0  0  0  0  0  0  0  0  0  0  0
  -24.7660  -15.8720   20.5350 H   0  0  0  0  0  0  0  0  0  0  0  0
  -26.3500  -15.6720   19.9820 H   0  0  0  0  0  0  0  0  0  0  0  0
  -26.1240  -23.4020   18.0610 C   0  0  0  0  0  2  0  0  0  0  0  0
  -26.4120  -21.9520   17.7880 C   0  0  0  0  0  2  0  0  0  0  0  0
  -27.5580  -22.9130   18.0400 C   0  0  0  0  0  3  0  0  0  0  0  0
  -28.5150  -25.4710   19.4080 C   0  0  0  0  0  2  0  0  0  0  0  0
  -28.2970  -26.6100   20.2960 O   0  0  0  0  0  0  0  0  0  0  0  0
  -24.5430  -31.9350   23.2910 C   0  0  0  0  0  0  0  0  0  0  0  0
  -27.1330  -27.3780   20.2500 C   0  0  0  0  0  0  0  0  0  0  0  0
  -23.3220  -30.5220   21.6740 C   0  0  0  0  0  3  0  0  0  0  0  0
  -24.7570  -28.9550   20.2580 C   0  0  0  0  0  0  0  0  0  0  0  0
  -25.8560  -30.8430   21.4660 C   0  0  0  0  0  2  0  0  0  0  0  0
  -25.9260  -29.4590   20.8370 C   0  0  0  0  0  0  0  0  0  0  0  0
  -27.1130  -28.6780   20.8300 C   0  0  0  0  0  3  0  0  0  0  0  0
  -25.9300  -26.9000   19.6800 C   0  0  0  0  0  3  0  0  0  0  0  0
  -24.7560  -27.6770   19.6770 C   0  0  0  0  0  3  0  0  0  0  0  0
  -23.5220  -29.8290   20.3000 C   0  0  0  0  0  2  0  0  0  0  0  0
  -24.5920  -31.1180   22.2010 N   0  0  0  0  0  0  0  0  0  0  0  0
  -23.4650  -32.2220   23.8310 O   0  0  0  0  0  0  0  0  0  0  0  0
  -22.6650  -29.5180   22.6490 C   0  0  0  0  0  0  0  0  0  0  0  0
  -21.3490  -29.2980   22.4910 N   0  0  0  0  0  0  0  0  0  0  0  0
  -23.3390  -28.9370   23.5030 O   0  0  0  0  0  0  0  0  0  0  0  0
  -20.8650  -29.8200   21.7730 H   0  0  0  0  0  0  0  0  0  0  0  0
  -18.0020  -27.9930   22.8990 C   0  0  0  0  0  0  0  0  0  0  0  0
  -20.5330  -28.3660   23.2700 C   0  0  0  0  0  3  0  0  0  0  0  0
  -20.7160  -26.9140   22.7680 C   0  0  0  0  0  2  0  0  0  0  0  0
  -19.6750  -26.5010   21.7230 C   0  0  0  0  0  2  0  0  0  0  0  0
  -18.2600  -26.6210   22.2970 C   0  0  0  0  0  2  0  0  0  0  0  0
  -19.0700  -28.8180   23.3400 C   0  0  0  0  0  0  0  0  0  0  0  0
  -18.7780  -30.0990   23.8590 C   0  0  0  0  0  3  0  0  0  0  0  0
  -17.4490  -30.5540   23.9420 C   0  0  0  0  0  3  0  0  0  0  0  0
  -16.3940  -29.7270   23.5180 C   0  0  0  0  0  3  0  0  0  0  0  0
  -16.6720  -28.4490   23.0020 C   0  0  0  0  0  3  0  0  0  0  0  0
  -25.8330  -32.5670   23.8980 C   0  0  0  0  0  3  0  0  0  0  0  0
  -25.5370  -33.9750   24.1980 N   0  0  0  0  0  0  0  0  0  0  0  0
  -25.8840  -35.0080   23.4180 C   0  0  0  0  0  0  0  0  0  0  0  0
  -26.5550  -34.8760   22.3910 O   0  0  0  0  0  0  0  0  0  0  0  0
  -24.9420  -34.1530   24.9940 H   0  0  0  0  0  0  0  0  0  0  0  0
  -24.1800  -36.8140   23.0150 C   0  0  0  0  0  1  0  0  0  0  0  0
  -25.4090  -36.4110   23.8440 C   0  0  0  0  0  3  0  0  0  0  0  0
  -27.5440  -37.2900   24.6810 C   0  0  0  0  0  1  0  0  0  0  0  0
  -26.4550  -37.4490   23.7200 N   0  0  0  0  0  0  0  0  0  0  0  0
  -26.0580  -38.3770   23.8420 H   0  0  0  0  0  0  0  0  0  0  0  0
  -26.3430  -31.8190   25.1910 C   0  0  1  0  0  0  0  0  0  0  0  0
  -25.2430  -31.5960   26.2550 C   0  0  0  0  0  1  0  0  0  0  0  0
  -26.9330  -30.4370   24.8250 C   0  0  0  0  0  1  0  0  0  0  0  0
  -27.4860  -32.6280   25.8480 C   0  0  0  0  0  1  0  0  0  0  0  0
  2  1  1  0
  2  6  1  0
  3  2  2  0
  4  7  2  0
  4  3  1  0
  5  8  1  0
  5  1  2  0
  7  5  1  0
  8  9  1  0
 10 23  1  0
 11 16  1  0
 12 13  1  0
 12 11  1  0
 14 13  1  0
 14 27  1  0
 14 15  1  0
 16 10  1  0
 16 15  1  0
 17 10  2  0
 19 22  1  0
 20 18  1  0
 21 19  1  0
 21 23  1  0
 22  8  1  0
 22 18  1  0
 23 20  1  0
 24 25  2  0
 25 44  1  0
 26 25  1  0
 26 29  1  0
 27 28  1  0
 27 24  1  0
 28 26  2  0
 29 30  1  0
 30 31  2  0
 32 35  1  0
 32 31  1  0
 33 32  2  0
 34 33  1  0
 34 29  2  0
 35 36  1  0
 36 41  2  0
 36 37  1  0
 37 38  2  0
 38 39  1  0
 39 43  1  0
 40 39  2  0
 41 40  1  0
 42 41  1  0
 44 45  1  0
 45 48  1  0
 45 47  1  0
 46 44  2  0
 49 24  1  0
 49 50  1  0
 51 49  1  0
 53 54  1  0
 53 52  1  0
 54 52  1  0
 54  4  1  0
 55  3  1  0
 55 56  1  0
 57 68  2  0
 58 56  1  0
 58 63  1  0
 59 67  1  0
 59 69  1  0
 60 66  1  0
 60 62  1  0
 61 67  1  0
 62 61  1  0
 63 62  2  0
 64 58  2  0
 65 64  1  0
 65 60  2  0
 66 59  1  0
 67 57  1  0
 69 71  2  0
 70 69  1  0
 72 70  1  0
 73 82  2  0
 73 78  1  0
 74 70  1  0
 74 78  1  0
 75 74  1  0
 76 77  1  0
 76 75  1  0
 77 73  1  0
 78 79  2  0
 79 80  1  0
 81 80  2  0
 82 81  1  0
 83 57  1  0
 83 84  1  0
 83 93  1  0
 84 87  1  0
 85 89  1  0
 85 84  1  0
 86 85  2  0
 89 88  1  0
 91 92  1  0
 91 89  1  0
 91 90  1  0
 93 96  1  1
 93 94  1  0
 95 93  1  0
M  ISO  4  10 100  23 100  55 101  56 101
M  END
>  <TORSDO>  (62) 
F 18

>  <SCORE>  (62) 
-14.189

>  <name>  (62) 
61

>  <ligand_id>  (62) 
61

>  <original_smiles>  (62) 
[H]c1c([H])c([H])c2c(c1[H])C([H])([H])C([H])([H])C([H])([H])C2([H])N([H])C(=O)C1([H])N(C(=O)C([H])(N([H])C(=O)C([H])(N([H])C([H])([H])[H])C([H])([H])[H])C(C([H])([H])[H])(C([H])([H])[H])C([H])([H])[H])C([H])([H])c2c([H])c(OC([H])([H])c3c(C4([H])C([H])([H])C4([H])[H])nc(N([H])C4([H])C([H])([H])C([H])([H])N(C(=O)N5C([H])([H])C([H])([H])C([H])([H])C([H])(n6nc(-c7c([H])c([H])c(Oc8c([H])c([H])c(F)c([H])c8F)c([H])c7[H])c(C(=O)N([H])[H])c6N([H])[H])C5([H])[H])C([H])([H])C4([H])[H])c([H])c3C([H])([H])[H])c([H])c([H])c2C1([H])[H]

>  <smiles>  (62) 
[H]c1c([H])c([H])c2c(c1[H])C([H])([H])C([H])([H])C([H])([H])C2([H])N([H])C(=O)C1([H])N(C(=O)C([H])(N([H])C(=O)C([H])(N([H])C([H])([H])[H])C([H])([H])[H])C(C([H])([H])[H])(C([H])([H])[H])C([H])([H])[H])C([H])([H])c2c([H])c(OC([H])([H])c3c(C4([H])C([H])([H])C4([H])[H])nc(N([H])C4([H])C([H])([H])C([H])([H])N(C(=O)N5C([H])([H])C([H])([H])C([H])([H])C([H])(n6nc(-c7c([H])c([H])c(Oc8c([H])c([H])c(F)c([H])c8F)c([H])c7[H])c(C(=O)N([H])[H])c6N([H])[H])C5([H])[H])C([H])([H])C4([H])[H])c([H])c3C([H])([H])[H])c([H])c([H])c2C1([H])[H]

$$$$
62:0:0
     RDKit          3D

 96105  0  0  1  0  0  0  0  0999 V2000
  -28.6070  -22.4060   18.7730 C   0  0  0  0  0  3  0  0  0  0  0  0
  -28.8740  -20.9870   18.7930 C   0  0  0  0  0  0  0  0  0  0  0  0
  -28.7160  -23.2820   19.8950 C   0  0  0  0  0  0  0  0  0  0  0  0
  -29.3020  -20.3250   19.9930 C   0  0  0  0  0  0  0  0  0  0  0  0
  -29.1850  -22.5480   21.0400 C   0  0  0  0  0  0  0  0  0  0  0  0
  -29.2690  -23.2500   22.3810 C   0  0  0  0  0  1  0  0  0  0  0  0
  -29.4850  -21.1760   21.0700 N   0  0  0  0  0  0  0  0  0  0  0  0
  -30.8210  -14.9600   19.8430 C   0  0  0  0  0  0  0  0  0  0  0  0
  -30.5630  -12.6620   18.8060 C   0  0  0  0  0  2  0  0  0  0  0  0
  -29.5120  -12.6740   17.6720 C   0  0  0  0  0  2  0  0  0  0  0  0
  -28.0960  -12.4450   18.2350 C   0  0  0  0  0  2  0  0  0  0  0  0
  -27.8180  -13.3100   19.4950 C   0  0  0  0  0  3  0  0  0  0  0  0
  -28.9880  -13.2500   20.5050 C   0  0  0  0  0  2  0  0  0  0  0  0
  -30.1870  -13.7150   19.7940 N   0  0  0  0  0  0  0  0  0  0  0  0
  -31.9500  -15.0210   19.3420 O   0  0  0  0  0  0  0  0  0  0  0  0
  -29.0890  -18.0080   21.5010 C   0  0  0  0  0  2  0  0  0  0  0  0
  -29.2430  -16.4550   21.2740 C   0  0  0  0  0  2  0  0  0  0  0  0
  -30.4330  -17.6030   19.6080 C   0  0  0  0  0  2  0  0  0  0  0  0
  -29.3420  -18.6730   20.1440 C   0  0  0  0  0  3  0  0  0  0  0  0
  -30.1330  -16.1800   20.1240 N   0  0  0  0  0  0  0  0  0  0  0  0
  -25.5430  -13.8550   20.5410 C   0  0  0  0  0  0  0  0  0  0  0  0
  -24.5080  -13.0640   20.9610 C   0  0  0  0  0  0  0  0  0  0  0  0
  -24.9340  -11.7160   20.7540 C   0  0  0  0  0  0  0  0  0  0  0  0
  -26.5340  -12.9870   20.1090 N   0  0  0  0  0  0  0  0  0  0  0  0
  -26.1790  -11.6900   20.2950 N   0  0  0  0  0  0  0  0  0  0  0  0
  -24.1980  -10.4520   20.9100 C   0  0  0  0  0  0  0  0  0  0  0  0
  -24.6450   -9.4400   21.7890 C   0  0  0  0  0  3  0  0  0  0  0  0
  -23.9120   -8.2420   21.9350 C   0  0  0  0  0  3  0  0  0  0  0  0
  -22.7170   -8.0460   21.2020 C   0  0  0  0  0  0  0  0  0  0  0  0
  -22.2860   -9.0470   20.3140 C   0  0  0  0  0  3  0  0  0  0  0  0
  -23.0200  -10.2360   20.1660 C   0  0  0  0  0  3  0  0  0  0  0  0
  -21.9530   -6.9050   21.2640 O   0  0  0  0  0  0  0  0  0  0  0  0
  -21.8370   -6.1800   22.4230 C   0  0  0  0  0  0  0  0  0  0  0  0
  -21.3210   -6.7460   23.6090 C   0  0  0  0  0  3  0  0  0  0  0  0
  -21.1540   -5.9460   24.7570 C   0  0  0  0  0  3  0  0  0  0  0  0
  -21.4920   -4.5800   24.7190 C   0  0  0  0  0  0  0  0  0  0  0  0
  -22.0040   -4.0140   23.5400 C   0  0  0  0  0  3  0  0  0  0  0  0
  -22.1740   -4.8120   22.3930 C   0  0  0  0  0  0  0  0  0  0  0  0
  -22.6450   -4.2570   21.2510 F   0  0  0  0  0  0  0  0  0  0  0  0
  -21.3250   -3.8080   25.8200 F   0  0  0  0  0  0  0  0  0  0  0  0
  -23.1640  -13.5370   21.4300 C   0  0  0  0  0  0  0  0  0  0  0  0
  -22.5320  -12.7940   22.3320 N   0  0  0  0  0  0  0  0  0  0  0  0
  -22.6870  -14.6010   21.0360 O   0  0  0  0  0  0  0  0  0  0  0  0
  -22.9280  -11.9300   22.6700 H   0  0  0  0  0  0  0  0  0  0  0  0
  -21.6390  -13.1010   22.6900 H   0  0  0  0  0  0  0  0  0  0  0  0
  -25.7120  -15.2320   20.4590 N   0  0  0  0  0  0  0  0  0  0  0  0
  -24.9500  -15.8670   20.6660 H   0  0  0  0  0  0  0  0  0  0  0  0
  -26.4880  -15.6810   19.9890 H   0  0  0  0  0  0  0  0  0  0  0  0
  -27.0080  -20.0150   17.3930 C   0  0  0  0  0  1  0  0  0  0  0  0
  -28.5370  -20.1740   17.5320 C   0  0  0  0  0  3  0  0  0  0  0  0
  -29.1630  -20.7120   16.3050 N   0  0  0  0  0  4  0  0  0  0  0  0
  -28.8180  -21.6220   16.0610 H   0  0  0  0  0  0  0  0  0  0  0  0
  -28.9790  -20.1000   15.5280 H   0  0  0  0  0  0  0  0  0  0  0  0
  -30.1610  -20.7620   16.4080 H   0  0  0  0  0  0  0  0  0  0  0  0
  -27.9600  -24.7440   19.8110 C   0  0  0  0  0  2  0  0  0  0  0  0
  -28.3600  -26.1850   20.1980 O   0  0  0  0  0  0  0  0  0  0  0  0
  -24.7220  -31.8200   23.2500 C   0  0  0  0  0  0  0  0  0  0  0  0
  -27.3330  -27.2000   20.1170 C   0  0  0  0  0  0  0  0  0  0  0  0
  -23.5420  -30.4790   21.5520 C   0  0  0  0  0  3  0  0  0  0  0  0
  -25.0120  -28.9540   20.1030 C   0  0  0  0  0  0  0  0  0  0  0  0
  -26.1010  -30.7410   21.4380 C   0  0  0  0  0  2  0  0  0  0  0  0
  -26.1830  -29.3710   20.7500 C   0  0  0  0  0  0  0  0  0  0  0  0
  -27.3430  -28.5070   20.7480 C   0  0  0  0  0  3  0  0  0  0  0  0
  -26.1360  -26.9050   19.4150 C   0  0  0  0  0  3  0  0  0  0  0  0
  -25.0020  -27.7330   19.4230 C   0  0  0  0  0  3  0  0  0  0  0  0
  -23.7860  -29.8490   20.1570 C   0  0  0  0  0  2  0  0  0  0  0  0
  -24.8070  -31.0300   22.1370 N   0  0  0  0  0  0  0  0  0  0  0  0
  -23.6270  -32.0950   23.7660 O   0  0  0  0  0  0  0  0  0  0  0  0
  -22.8490  -29.4410   22.4700 C   0  0  0  0  0  0  0  0  0  0  0  0
  -21.5190  -29.2910   22.3290 N   0  0  0  0  0  0  0  0  0  0  0  0
  -23.5080  -28.7760   23.2730 O   0  0  0  0  0  0  0  0  0  0  0  0
  -21.0460  -29.8790   21.6580 H   0  0  0  0  0  0  0  0  0  0  0  0
  -18.1100  -28.1630   22.8120 C   0  0  0  0  0  0  0  0  0  0  0  0
  -20.6780  -28.3400   23.0630 C   0  0  0  0  0  3  0  0  0  0  0  0
  -20.7330  -26.9360   22.4180 C   0  0  0  0  0  2  0  0  0  0  0  0
  -19.6130  -26.6940   21.4010 C   0  0  0  0  0  2  0  0  0  0  0  0
  -18.2420  -26.8460   22.0670 C   0  0  0  0  0  2  0  0  0  0  0  0
  -19.2540  -28.8720   23.2660 C   0  0  0  0  0  0  0  0  0  0  0  0
  -19.0750  -30.1090   23.9240 C   0  0  0  0  0  3  0  0  0  0  0  0
  -17.7850  -30.6360   24.1290 C   0  0  0  0  0  3  0  0  0  0  0  0
  -16.6560  -29.9210   23.6920 C   0  0  0  0  0  3  0  0  0  0  0  0
  -16.8190  -28.6860   23.0390 C   0  0  0  0  0  3  0  0  0  0  0  0
  -25.9910  -32.4330   23.9130 C   0  0  0  0  0  3  0  0  0  0  0  0
  -26.4620  -31.6410   25.1950 C   0  0  1  0  0  0  0  0  0  0  0  0
  -25.3350  -31.4060   26.2290 C   0  0  0  0  0  1  0  0  0  0  0  0
  -27.0360  -30.2570   24.8090 C   0  0  0  0  0  1  0  0  0  0  0  0
  -27.6080  -32.4090   25.8930 C   0  0  0  0  0  1  0  0  0  0  0  0
  -25.6890  -33.8320   24.2550 N   0  0  0  0  0  0  0  0  0  0  0  0
  -26.0080  -34.8890   23.4960 C   0  0  0  0  0  0  0  0  0  0  0  0
  -26.6600  -34.7880   22.4530 O   0  0  0  0  0  0  0  0  0  0  0  0
  -25.1130  -33.9830   25.0700 H   0  0  0  0  0  0  0  0  0  0  0  0
  -24.2650  -36.6770   23.1980 C   0  0  0  0  0  1  0  0  0  0  0  0
  -25.5320  -36.2760   23.9690 C   0  0  0  0  0  3  0  0  0  0  0  0
  -27.6890  -37.1700   24.7340 C   0  0  0  0  0  1  0  0  0  0  0  0
  -26.5580  -37.3330   23.8250 N   0  0  0  0  0  0  0  0  0  0  0  0
  -26.1530  -38.2510   23.9830 H   0  0  0  0  0  0  0  0  0  0  0  0
  1  2  2  0
  1  3  1  0
  2  4  1  0
  3  5  2  0
  4  7  2  0
  5  7  1  0
  5  6  1  0
  8 20  1  0
  9 14  1  0
 10 11  1  0
 10  9  1  0
 12 11  1  0
 12 24  1  0
 12 13  1  0
 14  8  1  0
 14 13  1  0
 15  8  2  0
 17 16  1  0
 18 20  1  0
 18 19  1  0
 19  4  1  0
 19 16  1  0
 20 17  1  0
 21 22  2  0
 22 41  1  0
 23 26  1  0
 23 22  1  0
 24 25  1  0
 24 21  1  0
 25 23  2  0
 26 27  1  0
 27 28  2  0
 29 32  1  0
 29 28  1  0
 30 29  2  0
 31 30  1  0
 31 26  2  0
 32 33  1  0
 33 34  1  0
 34 35  2  0
 36 35  1  0
 36 40  1  0
 37 36  2  0
 38 33  2  0
 38 37  1  0
 39 38  1  0
 41 42  1  0
 42 44  1  0
 42 45  1  0
 43 41  2  0
 46 21  1  0
 46 47  1  0
 48 46  1  0
 50 49  1  0
 50  2  1  0
 51 54  1  0
 51 50  1  0
 52 51  1  0
 53 51  1  0
 55  3  1  0
 55 56  1  0
 57 68  2  0
 58 56  1  0
 58 63  1  0
 59 67  1  0
 59 69  1  0
 60 66  1  0
 60 62  1  0
 61 67  1  0
 62 61  1  0
 63 62  2  0
 64 65  1  0
 64 58  2  0
 65 60  2  0
 66 59  1  0
 67 57  1  0
 69 71  2  0
 70 69  1  0
 72 70  1  0
 73 82  2  0
 73 78  1  0
 74 70  1  0
 74 78  1  0
 75 74  1  0
 76 77  1  0
 76 75  1  0
 77 73  1  0
 78 79  2  0
 79 80  1  0
 81 80  2  0
 82 81  1  0
 83 57  1  0
 83 88  1  0
 83 84  1  0
 84 87  1  1
 84 85  1  0
 86 84  1  0
 88 91  1  0
 89 93  1  0
 89 88  1  0
 90 89  2  0
 93 92  1  0
 95 93  1  0
 95 96  1  0
 95 94  1  0
M  ISO  4   8 100  20 100  55 101  56 101
M  END
>  <TORSDO>  (63) 
F 19

>  <SCORE>  (63) 
-13.345

>  <name>  (63) 
62

>  <ligand_id>  (63) 
62

>  <original_smiles>  (63) 
[H]c1c([H])c([H])c2c(c1[H])C([H])([H])C([H])([H])C([H])([H])C2([H])N([H])C(=O)C1([H])N(C(=O)C([H])(N([H])C(=O)C([H])(N([H])C([H])([H])[H])C([H])([H])[H])C(C([H])([H])[H])(C([H])([H])[H])C([H])([H])[H])C([H])([H])c2c([H])c(OC([H])([H])c3c(C([H])([H])[H])nc(C4([H])C([H])([H])N(C(=O)N5C([H])([H])C([H])([H])C([H])([H])C([H])(n6nc(-c7c([H])c([H])c(Oc8c([H])c([H])c(F)c([H])c8F)c([H])c7[H])c(C(=O)N([H])[H])c6N([H])[H])C5([H])[H])C([H])([H])C4([H])[H])c(C([H])(C([H])([H])[H])[N+]([H])([H])[H])c3[H])c([H])c([H])c2C1([H])[H]

>  <smiles>  (63) 
[H]c1c([H])c([H])c2c(c1[H])C([H])([H])C([H])([H])C([H])([H])C2([H])N([H])C(=O)C1([H])N(C(=O)C([H])(N([H])C(=O)C([H])(N([H])C([H])([H])[H])C([H])([H])[H])C(C([H])([H])[H])(C([H])([H])[H])C([H])([H])[H])C([H])([H])c2c([H])c(OC([H])([H])c3c(C([H])([H])[H])nc(C4([H])C([H])([H])N(C(=O)N5C([H])([H])C([H])([H])C([H])([H])C([H])(n6nc(-c7c([H])c([H])c(Oc8c([H])c([H])c(F)c([H])c8F)c([H])c7[H])c(C(=O)N([H])[H])c6N([H])[H])C5([H])[H])C([H])([H])C4([H])[H])c(C([H])(C([H])([H])[H])[N+]([H])([H])[H])c3[H])c([H])c([H])c2C1([H])[H]

$$$$
63:0:0
     RDKit          3D

 91100  0  0  1  0  0  0  0  0999 V2000
  -29.7400  -23.0300   18.9750 C   0  0  0  0  0  2  0  0  0  0  0  0
  -29.9950  -21.4740   19.0290 C   0  0  0  0  0  2  0  0  0  0  0  0
  -29.0010  -23.4960   20.2590 C   0  0  0  0  0  3  0  0  0  0  0  0
  -28.5000  -22.0290   20.7480 C   0  0  0  0  0  3  0  0  0  0  0  0
  -28.2080  -22.0010   22.2570 C   0  0  0  0  0  1  0  0  0  0  0  0
  -29.5310  -20.9630   20.3410 N   0  0  1  0  0  4  0  0  0  0  0  0
  -30.3010  -21.1790   20.9550 H   0  0  0  0  0  0  0  0  0  0  0  0
  -30.6590  -14.9280   20.1690 C   0  0  0  0  0  0  0  0  0  0  0  0
  -30.4120  -12.6230   19.1850 C   0  0  0  0  0  2  0  0  0  0  0  0
  -29.4360  -12.6200   17.9890 C   0  0  0  0  0  2  0  0  0  0  0  0
  -27.9920  -12.4180   18.4790 C   0  0  0  0  0  2  0  0  0  0  0  0
  -27.6350  -13.3340   19.6790 C   0  0  0  0  0  3  0  0  0  0  0  0
  -28.7330  -13.3400   20.7630 C   0  0  0  0  0  2  0  0  0  0  0  0
  -29.9890  -13.7140   20.1020 N   0  0  0  0  0  0  0  0  0  0  0  0
  -31.8580  -14.9350   19.8700 O   0  0  0  0  0  0  0  0  0  0  0  0
  -30.6380  -18.6890   21.1450 C   0  0  0  0  0  2  0  0  0  0  0  0
  -29.0680  -18.4320   19.3630 C   0  0  0  0  0  2  0  0  0  0  0  0
  -30.5630  -17.1270   21.4820 C   0  0  0  0  0  2  0  0  0  0  0  0
  -28.9560  -16.8480   19.6670 C   0  0  0  0  0  2  0  0  0  0  0  0
  -29.3630  -19.4040   20.5700 C   0  0  0  0  0  3  0  0  0  0  0  0
  -30.0150  -16.1530   20.4780 N   0  0  0  0  0  0  0  0  0  0  0  0
  -25.2910  -13.9050   20.5330 C   0  0  0  0  0  0  0  0  0  0  0  0
  -24.2380  -13.1250   20.9230 C   0  0  0  0  0  0  0  0  0  0  0  0
  -24.6940  -11.7730   20.8360 C   0  0  0  0  0  0  0  0  0  0  0  0
  -26.3190  -13.0300   20.2270 N   0  0  0  0  0  0  0  0  0  0  0  0
  -25.9720  -11.7400   20.4750 N   0  0  0  0  0  0  0  0  0  0  0  0
  -23.9690  -10.5090   21.0170 C   0  0  0  0  0  0  0  0  0  0  0  0
  -24.3960   -9.5390   21.9490 C   0  0  0  0  0  3  0  0  0  0  0  0
  -23.6690   -8.3400   22.1180 C   0  0  0  0  0  3  0  0  0  0  0  0
  -22.5010   -8.1040   21.3550 C   0  0  0  0  0  0  0  0  0  0  0  0
  -22.0940   -9.0630   20.4110 C   0  0  0  0  0  3  0  0  0  0  0  0
  -22.8210  -10.2530   20.2400 C   0  0  0  0  0  3  0  0  0  0  0  0
  -21.7450   -6.9590   21.4350 O   0  0  0  0  0  0  0  0  0  0  0  0
  -21.6470   -6.2410   22.6000 C   0  0  0  0  0  0  0  0  0  0  0  0
  -21.1350   -6.8110   23.7850 C   0  0  0  0  0  3  0  0  0  0  0  0
  -20.9880   -6.0170   24.9410 C   0  0  0  0  0  3  0  0  0  0  0  0
  -21.3410   -4.6560   24.9100 C   0  0  0  0  0  0  0  0  0  0  0  0
  -21.8470   -4.0850   23.7280 C   0  0  0  0  0  3  0  0  0  0  0  0
  -21.9960   -4.8760   22.5760 C   0  0  0  0  0  0  0  0  0  0  0  0
  -22.4640   -4.3170   21.4340 F   0  0  0  0  0  0  0  0  0  0  0  0
  -21.1930   -3.8910   26.0170 F   0  0  0  0  0  0  0  0  0  0  0  0
  -22.8560  -13.5990   21.2600 C   0  0  0  0  0  0  0  0  0  0  0  0
  -22.1590  -12.8860   22.1370 N   0  0  0  0  0  0  0  0  0  0  0  0
  -22.4020  -14.6380   20.7810 O   0  0  0  0  0  0  0  0  0  0  0  0
  -22.5400  -12.0440   22.5450 H   0  0  0  0  0  0  0  0  0  0  0  0
  -21.2330  -13.1840   22.4070 H   0  0  0  0  0  0  0  0  0  0  0  0
  -25.4530  -15.2790   20.3860 N   0  0  0  0  0  0  0  0  0  0  0  0
  -24.6910  -15.9300   20.5410 H   0  0  0  0  0  0  0  0  0  0  0  0
  -26.2880  -15.7220   20.0280 H   0  0  0  0  0  0  0  0  0  0  0  0
  -27.9730  -24.7940   20.0940 C   0  0  0  0  0  2  0  0  0  0  0  0
  -28.2930  -26.2980   20.1590 O   0  0  0  0  0  0  0  0  0  0  0  0
  -24.6360  -31.8630   23.2440 C   0  0  0  0  0  0  0  0  0  0  0  0
  -27.2260  -27.2550   20.1190 C   0  0  0  0  0  0  0  0  0  0  0  0
  -23.4370  -30.4970   21.5790 C   0  0  0  0  0  3  0  0  0  0  0  0
  -24.8880  -28.9650   20.1240 C   0  0  0  0  0  0  0  0  0  0  0  0
  -25.9890  -30.7850   21.4150 C   0  0  0  0  0  2  0  0  0  0  0  0
  -26.0660  -29.4100   20.7370 C   0  0  0  0  0  0  0  0  0  0  0  0
  -27.2380  -28.5720   20.7180 C   0  0  0  0  0  3  0  0  0  0  0  0
  -26.0190  -26.9020   19.4710 C   0  0  0  0  0  3  0  0  0  0  0  0
  -24.8750  -27.7230   19.4770 C   0  0  0  0  0  3  0  0  0  0  0  0
  -23.6570  -29.8520   20.1860 C   0  0  0  0  0  2  0  0  0  0  0  0
  -24.7060  -31.0670   22.1350 N   0  0  0  0  0  0  0  0  0  0  0  0
  -23.5500  -32.1330   23.7780 O   0  0  0  0  0  0  0  0  0  0  0  0
  -22.7650  -29.4660   22.5190 C   0  0  0  0  0  0  0  0  0  0  0  0
  -21.4370  -29.2960   22.3910 N   0  0  0  0  0  0  0  0  0  0  0  0
  -23.4400  -28.8230   23.3270 O   0  0  0  0  0  0  0  0  0  0  0  0
  -20.9500  -29.8690   21.7160 H   0  0  0  0  0  0  0  0  0  0  0  0
  -18.0530  -28.1060   22.8900 C   0  0  0  0  0  0  0  0  0  0  0  0
  -20.6150  -28.3440   23.1450 C   0  0  0  0  0  3  0  0  0  0  0  0
  -20.7040  -26.9260   22.5340 C   0  0  0  0  0  2  0  0  0  0  0  0
  -19.5920  -26.6350   21.5210 C   0  0  0  0  0  2  0  0  0  0  0  0
  -18.2160  -26.7740   22.1790 C   0  0  0  0  0  2  0  0  0  0  0  0
  -19.1800  -28.8510   23.3290 C   0  0  0  0  0  0  0  0  0  0  0  0
  -18.9730  -30.0990   23.9570 C   0  0  0  0  0  3  0  0  0  0  0  0
  -17.6720  -30.6020   24.1460 C   0  0  0  0  0  3  0  0  0  0  0  0
  -16.5600  -29.8550   23.7220 C   0  0  0  0  0  3  0  0  0  0  0  0
  -16.7520  -28.6070   23.0990 C   0  0  0  0  0  3  0  0  0  0  0  0
  -25.9140  -32.4870   23.8820 C   0  0  0  0  0  3  0  0  0  0  0  0
  -25.6050  -33.8820   24.2280 N   0  0  0  0  0  0  0  0  0  0  0  0
  -25.8980  -34.9430   23.4620 C   0  0  0  0  0  0  0  0  0  0  0  0
  -26.5250  -34.8490   22.4040 O   0  0  0  0  0  0  0  0  0  0  0  0
  -25.0430  -34.0300   25.0540 H   0  0  0  0  0  0  0  0  0  0  0  0
  -24.1250  -36.7100   23.2140 C   0  0  0  0  0  1  0  0  0  0  0  0
  -25.4200  -36.3250   23.9470 C   0  0  0  0  0  3  0  0  0  0  0  0
  -27.5840  -37.2490   24.6490 C   0  0  0  0  0  1  0  0  0  0  0  0
  -26.4280  -37.3930   23.7690 N   0  0  0  0  0  0  0  0  0  0  0  0
  -26.0170  -38.3070   23.9340 H   0  0  0  0  0  0  0  0  0  0  0  0
  -26.4180  -31.7020   25.1550 C   0  0  1  0  0  0  0  0  0  0  0  0
  -25.3170  -31.4570   26.2120 C   0  0  0  0  0  1  0  0  0  0  0  0
  -27.0020  -30.3270   24.7570 C   0  0  0  0  0  1  0  0  0  0  0  0
  -27.5650  -32.4880   25.8340 C   0  0  0  0  0  1  0  0  0  0  0  0
  1  2  1  0
  1  3  1  0
  2  6  1  0
  3 50  1  0
  3  4  1  0
  4  5  1  0
  6 20  1  0
  6  4  1  0
  6  7  1  1
  8 21  1  0
  9 14  1  0
 10 11  1  0
 10  9  1  0
 12 11  1  0
 12 25  1  0
 12 13  1  0
 14  8  1  0
 14 13  1  0
 15  8  2  0
 16 18  1  0
 17 19  1  0
 19 21  1  0
 20 17  1  0
 20 16  1  0
 21 18  1  0
 22 23  2  0
 23 42  1  0
 24 23  1  0
 24 27  1  0
 25 26  1  0
 25 22  1  0
 26 24  2  0
 27 28  1  0
 28 29  2  0
 30 33  1  0
 30 29  1  0
 31 30  2  0
 32 31  1  0
 32 27  2  0
 33 34  1  0
 34 35  1  0
 35 36  2  0
 37 36  1  0
 37 41  1  0
 38 37  2  0
 39 34  2  0
 39 38  1  0
 40 39  1  0
 42 43  1  0
 43 46  1  0
 43 45  1  0
 44 42  2  0
 47 22  1  0
 47 48  1  0
 49 47  1  0
 50 51  1  0
 52 63  2  0
 53 51  1  0
 53 58  1  0
 54 62  1  0
 54 64  1  0
 55 61  1  0
 55 57  1  0
 56 62  1  0
 57 56  1  0
 58 57  2  0
 59 60  1  0
 59 53  2  0
 60 55  2  0
 61 54  1  0
 62 52  1  0
 64 66  2  0
 65 64  1  0
 67 65  1  0
 68 77  2  0
 68 73  1  0
 69 65  1  0
 69 73  1  0
 70 69  1  0
 71 72  1  0
 71 70  1  0
 72 68  1  0
 73 74  2  0
 74 75  1  0
 76 75  2  0
 77 76  1  0
 78 52  1  0
 78 79  1  0
 78 88  1  0
 79 82  1  0
 80 84  1  0
 80 79  1  0
 81 80  2  0
 84 83  1  0
 86 87  1  0
 86 84  1  0
 86 85  1  0
 88 91  1  1
 88 89  1  0
 90 88  1  0
M  ISO  4   8 100  21 100  50 101  51 101
M  END
>  <TORSDO>  (64) 
F 17

>  <SCORE>  (64) 
-14.995

>  <name>  (64) 
63

>  <ligand_id>  (64) 
63

>  <original_smiles>  (64) 
[H]c1c([H])c([H])c2c(c1[H])C([H])([H])C([H])([H])C([H])([H])C2([H])N([H])C(=O)C1([H])N(C(=O)C([H])(N([H])C(=O)C([H])(N([H])C([H])([H])[H])C([H])([H])[H])C(C([H])([H])[H])(C([H])([H])[H])C([H])([H])[H])C([H])([H])c2c([H])c(OC([H])([H])C3([H])C([H])([H])C([H])([H])[N+]([H])(C4([H])C([H])([H])C([H])([H])N(C(=O)N5C([H])([H])C([H])([H])C([H])([H])C([H])(n6nc(-c7c([H])c([H])c(Oc8c([H])c([H])c(F)c([H])c8F)c([H])c7[H])c(C(=O)N([H])[H])c6N([H])[H])C5([H])[H])C([H])([H])C4([H])[H])C3([H])C([H])([H])[H])c([H])c([H])c2C1([H])[H]

>  <smiles>  (64) 
[H]c1c([H])c([H])c2c(c1[H])C([H])([H])C([H])([H])C([H])([H])C2([H])N([H])C(=O)C1([H])N(C(=O)C([H])(N([H])C(=O)C([H])(N([H])C([H])([H])[H])C([H])([H])[H])C(C([H])([H])[H])(C([H])([H])[H])C([H])([H])[H])C([H])([H])c2c([H])c(OC([H])([H])C3([H])C([H])([H])C([H])([H])[N+]([H])(C4([H])C([H])([H])C([H])([H])N(C(=O)N5C([H])([H])C([H])([H])C([H])([H])C([H])(n6nc(-c7c([H])c([H])c(Oc8c([H])c([H])c(F)c([H])c8F)c([H])c7[H])c(C(=O)N([H])[H])c6N([H])[H])C5([H])[H])C([H])([H])C4([H])[H])C3([H])C([H])([H])[H])c([H])c([H])c2C1([H])[H]

$$$$
64:0:0
     RDKit          3D

 98107  0  0  1  0  0  0  0  0999 V2000
  -30.3690  -21.2290   17.4400 C   0  0  0  0  0  1  0  0  0  0  0  0
  -29.8210  -20.5700   18.7280 C   0  0  0  0  0  3  0  0  0  0  0  0
  -30.1390  -18.4320   21.6640 C   0  0  0  0  0  2  0  0  0  0  0  0
  -31.3650  -17.5210   21.5400 C   0  0  0  0  0  2  0  0  0  0  0  0
  -31.7060  -17.1000   18.9270 C   0  0  0  0  0  2  0  0  0  0  0  0
  -29.9490  -18.3030   20.1490 C   0  0  0  0  0  3  0  0  0  0  0  0
  -30.6450  -19.2880   19.1680 C   0  0  0  0  0  3  0  0  0  0  0  0
  -30.8240  -17.0220   20.1820 C   0  0  2  0  0  0  0  0  0  0  0  0
  -31.2220  -18.3050   18.0860 C   0  0  2  0  0  0  0  0  0  0  0  0
  -30.1330  -17.7730   17.1170 C   0  0  0  0  0  1  0  0  0  0  0  0
  -32.4470  -18.8110   17.2910 C   0  0  0  0  0  1  0  0  0  0  0  0
  -30.8090  -14.5060   20.2680 C   0  0  0  0  0  0  0  0  0  0  0  0
  -30.4080  -12.3480   19.1740 C   0  0  0  0  0  2  0  0  0  0  0  0
  -29.4640  -12.5500   17.9740 C   0  0  0  0  0  2  0  0  0  0  0  0
  -27.9990  -12.4160   18.4310 C   0  0  0  0  0  2  0  0  0  0  0  0
  -27.6750  -13.2770   19.6840 C   0  0  0  0  0  3  0  0  0  0  0  0
  -28.7530  -13.1230   20.7810 C   0  0  0  0  0  2  0  0  0  0  0  0
  -30.0590  -13.3770   20.1650 N   0  0  0  0  0  0  0  0  0  0  0  0
  -32.0120  -14.4930   20.0180 O   0  0  0  0  0  0  0  0  0  0  0  0
  -30.1560  -15.6940   20.3630 N   0  0  0  0  0  0  0  0  0  0  0  0
  -29.1580  -15.6700   20.5140 H   0  0  0  0  0  0  0  0  0  0  0  0
  -25.2920  -13.8750   20.4410 C   0  0  0  0  0  0  0  0  0  0  0  0
  -24.2310  -13.1020   20.8250 C   0  0  0  0  0  0  0  0  0  0  0  0
  -24.6930  -11.7500   20.7910 C   0  0  0  0  0  0  0  0  0  0  0  0
  -26.3350  -12.9960   20.1940 N   0  0  0  0  0  0  0  0  0  0  0  0
  -25.9810  -11.7120   20.4680 N   0  0  0  0  0  0  0  0  0  0  0  0
  -23.9710  -10.4870   20.9900 C   0  0  0  0  0  0  0  0  0  0  0  0
  -24.4040   -9.5270   21.9310 C   0  0  0  0  0  3  0  0  0  0  0  0
  -23.6800   -8.3300   22.1190 C   0  0  0  0  0  3  0  0  0  0  0  0
  -22.5090   -8.0820   21.3630 C   0  0  0  0  0  0  0  0  0  0  0  0
  -22.0950   -9.0300   20.4120 C   0  0  0  0  0  3  0  0  0  0  0  0
  -22.8200  -10.2180   20.2220 C   0  0  0  0  0  3  0  0  0  0  0  0
  -21.7560   -6.9370   21.4590 O   0  0  0  0  0  0  0  0  0  0  0  0
  -21.6930   -6.2130   22.6230 C   0  0  0  0  0  0  0  0  0  0  0  0
  -21.2160   -6.7770   23.8270 C   0  0  0  0  0  3  0  0  0  0  0  0
  -21.1010   -5.9770   24.9820 C   0  0  0  0  0  3  0  0  0  0  0  0
  -21.4540   -4.6150   24.9350 C   0  0  0  0  0  0  0  0  0  0  0  0
  -21.9250   -4.0520   23.7350 C   0  0  0  0  0  3  0  0  0  0  0  0
  -22.0410   -4.8480   22.5840 C   0  0  0  0  0  0  0  0  0  0  0  0
  -22.4740   -4.2930   21.4250 F   0  0  0  0  0  0  0  0  0  0  0  0
  -21.3390   -3.8450   26.0420 F   0  0  0  0  0  0  0  0  0  0  0  0
  -22.8350  -13.5770   21.1110 C   0  0  0  0  0  0  0  0  0  0  0  0
  -22.1170  -12.8840   21.9850 N   0  0  0  0  0  0  0  0  0  0  0  0
  -22.3910  -14.6000   20.5920 O   0  0  0  0  0  0  0  0  0  0  0  0
  -22.4900  -12.0580   22.4320 H   0  0  0  0  0  0  0  0  0  0  0  0
  -21.1800  -13.1840   22.2160 H   0  0  0  0  0  0  0  0  0  0  0  0
  -25.4500  -15.2460   20.2580 N   0  0  0  0  0  0  0  0  0  0  0  0
  -24.6830  -15.8970   20.3810 H   0  0  0  0  0  0  0  0  0  0  0  0
  -26.2920  -15.6880   19.9080 H   0  0  0  0  0  0  0  0  0  0  0  0
  -29.8020  -21.6180   19.7980 N   0  0  0  0  0  4  0  0  0  0  0  0
  -29.6960  -21.1820   20.6990 H   0  0  0  0  0  0  0  0  0  0  0  0
  -30.6930  -22.0860   19.8080 H   0  0  0  0  0  0  0  0  0  0  0  0
  -28.7400  -22.6670   19.7040 C   0  0  0  0  0  2  0  0  0  0  0  0
  -29.1830  -24.0760   20.2260 C   0  0  0  0  0  3  0  0  0  0  0  0
  -29.3920  -23.9570   21.6230 O   0  0  0  0  0  0  0  0  0  0  0  0
  -29.4100  -24.8450   21.9730 H   0  0  0  0  0  0  0  0  0  0  0  0
  -28.0690  -25.1310   19.9850 C   0  0  0  0  0  2  0  0  0  0  0  0
  -28.3300  -26.5330   20.2910 O   0  0  0  0  0  0  0  0  0  0  0  0
  -24.5760  -31.8950   23.2570 C   0  0  0  0  0  0  0  0  0  0  0  0
  -27.2070  -27.3590   20.2350 C   0  0  0  0  0  0  0  0  0  0  0  0
  -23.3880  -30.4900   21.6150 C   0  0  0  0  0  3  0  0  0  0  0  0
  -24.8450  -28.9390   20.2220 C   0  0  0  0  0  0  0  0  0  0  0  0
  -25.9300  -30.8090   21.4610 C   0  0  0  0  0  2  0  0  0  0  0  0
  -26.0100  -29.4350   20.8190 C   0  0  0  0  0  0  0  0  0  0  0  0
  -27.1970  -28.6520   20.8260 C   0  0  0  0  0  3  0  0  0  0  0  0
  -26.0150  -26.9170   19.6050 C   0  0  0  0  0  3  0  0  0  0  0  0
  -24.8420  -27.6790   19.6150 C   0  0  0  0  0  3  0  0  0  0  0  0
  -23.6120  -29.8100   20.2430 C   0  0  0  0  0  2  0  0  0  0  0  0
  -24.6490  -31.0810   22.1660 N   0  0  0  0  0  0  0  0  0  0  0  0
  -23.4860  -32.1800   23.7750 O   0  0  0  0  0  0  0  0  0  0  0  0
  -22.7170  -29.4760   22.5700 C   0  0  0  0  0  0  0  0  0  0  0  0
  -21.3990  -29.2760   22.4080 N   0  0  0  0  0  0  0  0  0  0  0  0
  -23.3810  -28.8690   23.4150 O   0  0  0  0  0  0  0  0  0  0  0  0
  -20.9260  -29.8150   21.6960 H   0  0  0  0  0  0  0  0  0  0  0  0
  -18.0240  -28.0460   22.8240 C   0  0  0  0  0  0  0  0  0  0  0  0
  -20.5690  -28.3440   23.1690 C   0  0  0  0  0  3  0  0  0  0  0  0
  -20.7060  -26.9020   22.6280 C   0  0  0  0  0  2  0  0  0  0  0  0
  -19.6420  -26.5420   21.5870 C   0  0  0  0  0  2  0  0  0  0  0  0
  -18.2380  -26.6860   22.1830 C   0  0  0  0  0  2  0  0  0  0  0  0
  -19.1190  -28.8320   23.2720 C   0  0  0  0  0  0  0  0  0  0  0  0
  -18.8670  -30.1050   23.8280 C   0  0  0  0  0  3  0  0  0  0  0  0
  -17.5530  -30.5940   23.9420 C   0  0  0  0  0  3  0  0  0  0  0  0
  -16.4700  -29.8070   23.5080 C   0  0  0  0  0  3  0  0  0  0  0  0
  -16.7060  -28.5340   22.9560 C   0  0  0  0  0  3  0  0  0  0  0  0
  -25.8560  -32.5260   23.8890 C   0  0  0  0  0  3  0  0  0  0  0  0
  -25.5480  -33.9310   24.1940 N   0  0  0  0  0  0  0  0  0  0  0  0
  -25.8850  -34.9680   23.4170 C   0  0  0  0  0  0  0  0  0  0  0  0
  -26.5560  -34.8460   22.3890 O   0  0  0  0  0  0  0  0  0  0  0  0
  -24.9540  -34.1030   24.9930 H   0  0  0  0  0  0  0  0  0  0  0  0
  -24.1610  -36.7580   23.0260 C   0  0  0  0  0  1  0  0  0  0  0  0
  -25.3970  -36.3650   23.8500 C   0  0  0  0  0  3  0  0  0  0  0  0
  -27.5240  -37.2610   24.6860 C   0  0  0  0  0  1  0  0  0  0  0  0
  -26.4320  -37.4130   23.7270 N   0  0  0  0  0  0  0  0  0  0  0  0
  -26.0270  -38.3370   23.8500 H   0  0  0  0  0  0  0  0  0  0  0  0
  -26.3480  -31.7700   25.1830 C   0  0  1  0  0  0  0  0  0  0  0  0
  -25.2340  -31.5480   26.2330 C   0  0  0  0  0  1  0  0  0  0  0  0
  -26.9330  -30.3840   24.8180 C   0  0  0  0  0  1  0  0  0  0  0  0
  -27.4890  -32.5690   25.8530 C   0  0  0  0  0  1  0  0  0  0  0  0
  2  1  1  0
  2 50  1  0
  4  3  1  0
  5  8  1  0
  6  8  1  0
  6  3  1  0
  7  2  1  0
  7  6  1  0
  8 20  1  1
  8  4  1  0
  9  5  1  0
  9  7  1  0
  9 10  1  6
 11  9  1  0
 12 20  1  0
 13 18  1  0
 14 15  1  0
 14 13  1  0
 16 15  1  0
 16 25  1  0
 16 17  1  0
 18 12  1  0
 18 17  1  0
 19 12  2  0
 20 21  1  0
 22 23  2  0
 23 42  1  0
 24 23  1  0
 24 27  1  0
 25 22  1  0
 25 26  1  0
 26 24  2  0
 27 28  1  0
 28 29  2  0
 30 33  1  0
 30 29  1  0
 31 30  2  0
 32 31  1  0
 32 27  2  0
 33 34  1  0
 34 35  1  0
 35 36  2  0
 37 36  1  0
 37 41  1  0
 38 37  2  0
 39 34  2  0
 39 38  1  0
 40 39  1  0
 42 43  1  0
 43 46  1  0
 43 45  1  0
 44 42  2  0
 47 48  1  0
 47 22  1  0
 49 47  1  0
 50 52  1  0
 50 51  1  0
 53 50  1  0
 54 53  1  0
 54 55  1  0
 55 56  1  0
 57 54  1  0
 57 58  1  0
 59 70  2  0
 60 58  1  0
 60 65  1  0
 61 69  1  0
 61 71  1  0
 62 68  1  0
 62 64  1  0
 63 69  1  0
 64 65  2  0
 64 63  1  0
 66 67  1  0
 66 60  2  0
 67 62  2  0
 68 61  1  0
 69 59  1  0
 71 73  2  0
 72 71  1  0
 74 72  1  0
 75 84  2  0
 75 80  1  0
 76 72  1  0
 76 80  1  0
 77 76  1  0
 78 79  1  0
 78 77  1  0
 79 75  1  0
 80 81  2  0
 81 82  1  0
 83 82  2  0
 84 83  1  0
 85 59  1  0
 85 86  1  0
 85 95  1  0
 86 89  1  0
 87 91  1  0
 87 86  1  0
 88 87  2  0
 91 90  1  0
 93 91  1  0
 93 94  1  0
 93 92  1  0
 95 98  1  1
 95 96  1  0
 97 95  1  0
M  ISO  4  12 100  20 100  57 101  58 101
M  END
>  <TORSDO>  (65) 
F 22

>  <SCORE>  (65) 
-13.047

>  <name>  (65) 
64

>  <ligand_id>  (65) 
64

>  <original_smiles>  (65) 
[H]OC([H])(C([H])([H])Oc1c([H])c([H])c2c(c1[H])C([H])([H])N(C(=O)C([H])(N([H])C(=O)C([H])(N([H])C([H])([H])[H])C([H])([H])[H])C(C([H])([H])[H])(C([H])([H])[H])C([H])([H])[H])C([H])(C(=O)N([H])C1([H])c3c([H])c([H])c([H])c([H])c3C([H])([H])C([H])([H])C1([H])[H])C2([H])[H])C([H])([H])[N+]([H])([H])C([H])(C([H])([H])[H])C1([H])C2([H])C([H])([H])C([H])([H])C2(N([H])C(=O)N2C([H])([H])C([H])([H])C([H])([H])C([H])(n3nc(-c4c([H])c([H])c(Oc5c([H])c([H])c(F)c([H])c5F)c([H])c4[H])c(C(=O)N([H])[H])c3N([H])[H])C2([H])[H])C([H])([H])C1(C([H])([H])[H])C([H])([H])[H]

>  <smiles>  (65) 
[H]OC([H])(C([H])([H])Oc1c([H])c([H])c2c(c1[H])C([H])([H])N(C(=O)C([H])(N([H])C(=O)C([H])(N([H])C([H])([H])[H])C([H])([H])[H])C(C([H])([H])[H])(C([H])([H])[H])C([H])([H])[H])C([H])(C(=O)N([H])C1([H])c3c([H])c([H])c([H])c([H])c3C([H])([H])C([H])([H])C1([H])[H])C2([H])[H])C([H])([H])[N+]([H])([H])C([H])(C([H])([H])[H])C1([H])C2([H])C([H])([H])C([H])([H])C2(N([H])C(=O)N2C([H])([H])C([H])([H])C([H])([H])C([H])(n3nc(-c4c([H])c([H])c(Oc5c([H])c([H])c(F)c([H])c5F)c([H])c4[H])c(C(=O)N([H])[H])c3N([H])[H])C2([H])[H])C([H])([H])C1(C([H])([H])[H])C([H])([H])[H]

$$$$
65:0:0
     RDKit          3D

 94103  0  0  1  0  0  0  0  0999 V2000
  -28.5900  -19.6000   20.2530 C   0  0  0  0  0  3  0  0  0  0  0  0
  -28.1770  -20.9950   20.2820 C   0  0  0  0  0  0  0  0  0  0  0  0
  -29.9460  -19.1870   20.4500 C   0  0  0  0  0  0  0  0  0  0  0  0
  -29.1040  -22.0740   20.4990 C   0  0  0  0  0  0  0  0  0  0  0  0
  -30.7970  -20.3390   20.6290 C   0  0  0  0  0  0  0  0  0  0  0  0
  -26.7010  -21.3130   20.1120 C   0  0  0  0  0  1  0  0  0  0  0  0
  -30.3950  -21.6640   20.6540 N   0  0  0  0  0  0  0  0  0  0  0  0
  -32.1750  -20.1380   20.8000 N   0  0  0  0  0  0  0  0  0  0  0  0
  -32.5180  -19.1890   20.8730 H   0  0  0  0  0  0  0  0  0  0  0  0
  -34.5230  -21.0790   21.2000 C   0  0  0  0  0  2  0  0  0  0  0  0
  -33.7690  -22.1160   20.3990 C   0  0  0  0  0  2  0  0  0  0  0  0
  -33.0220  -21.1960   21.3370 C   0  0  0  0  0  3  0  0  0  0  0  0
  -30.5820  -17.6600   20.4310 C   0  0  0  0  0  2  0  0  0  0  0  0
  -30.6600  -15.0060   20.3570 C   0  0  0  0  0  0  0  0  0  0  0  0
  -30.4300  -12.7290   19.3080 C   0  0  0  0  0  2  0  0  0  0  0  0
  -29.5000  -12.7990   18.0770 C   0  0  0  0  0  2  0  0  0  0  0  0
  -28.0300  -12.6200   18.4990 C   0  0  0  0  0  2  0  0  0  0  0  0
  -27.6570  -13.4920   19.7270 C   0  0  0  0  0  3  0  0  0  0  0  0
  -28.7120  -13.4130   20.8500 C   0  0  0  0  0  2  0  0  0  0  0  0
  -29.9970  -13.7920   20.2560 N   0  0  0  0  0  0  0  0  0  0  0  0
  -31.8630  -15.0250   20.0760 O   0  0  0  0  0  0  0  0  0  0  0  0
  -29.9710  -16.2270   20.5480 N   0  0  0  0  0  0  0  0  0  0  0  0
  -28.9820  -16.1600   20.7350 H   0  0  0  0  0  0  0  0  0  0  0  0
  -25.2670  -14.0860   20.4280 C   0  0  0  0  0  0  0  0  0  0  0  0
  -24.1970  -13.3180   20.7950 C   0  0  0  0  0  0  0  0  0  0  0  0
  -24.6590  -11.9660   20.7850 C   0  0  0  0  0  0  0  0  0  0  0  0
  -26.3120  -13.2030   20.2130 N   0  0  0  0  0  0  0  0  0  0  0  0
  -25.9550  -11.9240   20.4940 N   0  0  0  0  0  0  0  0  0  0  0  0
  -23.9270  -10.7070   20.9760 C   0  0  0  0  0  0  0  0  0  0  0  0
  -24.3300   -9.7570   21.9420 C   0  0  0  0  0  3  0  0  0  0  0  0
  -23.5970   -8.5650   22.1220 C   0  0  0  0  0  3  0  0  0  0  0  0
  -22.4470   -8.3120   21.3370 C   0  0  0  0  0  0  0  0  0  0  0  0
  -22.0630   -9.2490   20.3610 C   0  0  0  0  0  3  0  0  0  0  0  0
  -22.7970  -10.4330   20.1800 C   0  0  0  0  0  3  0  0  0  0  0  0
  -21.6880   -7.1700   21.4250 O   0  0  0  0  0  0  0  0  0  0  0  0
  -21.5960   -6.4550   22.5930 C   0  0  0  0  0  0  0  0  0  0  0  0
  -21.0880   -7.0270   23.7790 C   0  0  0  0  0  3  0  0  0  0  0  0
  -20.9460   -6.2370   24.9370 C   0  0  0  0  0  3  0  0  0  0  0  0
  -21.3020   -4.8750   24.9090 C   0  0  0  0  0  0  0  0  0  0  0  0
  -21.8020   -4.3020   23.7260 C   0  0  0  0  0  3  0  0  0  0  0  0
  -21.9450   -5.0900   22.5710 C   0  0  0  0  0  0  0  0  0  0  0  0
  -22.4070   -4.5270   21.4280 F   0  0  0  0  0  0  0  0  0  0  0  0
  -21.1600   -4.1130   26.0190 F   0  0  0  0  0  0  0  0  0  0  0  0
  -22.7970  -13.8010   21.0400 C   0  0  0  0  0  0  0  0  0  0  0  0
  -22.0530  -13.1160   21.9020 N   0  0  0  0  0  0  0  0  0  0  0  0
  -22.3710  -14.8220   20.5010 O   0  0  0  0  0  0  0  0  0  0  0  0
  -22.4110  -12.2910   22.3590 H   0  0  0  0  0  0  0  0  0  0  0  0
  -21.1130  -13.4210   22.1060 H   0  0  0  0  0  0  0  0  0  0  0  0
  -25.4360  -15.4540   20.2370 N   0  0  0  0  0  0  0  0  0  0  0  0
  -24.6650  -16.1070   20.3240 H   0  0  0  0  0  0  0  0  0  0  0  0
  -26.2810  -15.8850   19.8810 H   0  0  0  0  0  0  0  0  0  0  0  0
  -28.7200  -23.6310   20.8710 C   0  0  0  0  0  3  0  0  0  0  0  0
  -28.6200  -24.9520   19.8760 C   0  0  0  0  0  3  0  0  0  0  0  0
  -28.5430  -26.4210   20.3590 O   0  0  0  0  0  0  0  0  0  0  0  0
  -24.6750  -31.9140   23.2580 C   0  0  0  0  0  0  0  0  0  0  0  0
  -27.4270  -27.3130   20.2480 C   0  0  0  0  0  0  0  0  0  0  0  0
  -23.5430  -30.5060   21.5810 C   0  0  0  0  0  3  0  0  0  0  0  0
  -25.0540  -28.9750   20.1780 C   0  0  0  0  0  0  0  0  0  0  0  0
  -26.0890  -30.8360   21.4740 C   0  0  0  0  0  2  0  0  0  0  0  0
  -26.2040  -29.4540   20.8150 C   0  0  0  0  0  0  0  0  0  0  0  0
  -27.3890  -28.6370   20.8340 C   0  0  0  0  0  3  0  0  0  0  0  0
  -26.2470  -26.9220   19.5780 C   0  0  0  0  0  3  0  0  0  0  0  0
  -25.0850  -27.7230   19.5470 C   0  0  0  0  0  3  0  0  0  0  0  0
  -23.8060  -29.8420   20.2020 C   0  0  0  0  0  2  0  0  0  0  0  0
  -24.7870  -31.1070   22.1590 N   0  0  0  0  0  0  0  0  0  0  0  0
  -23.5720  -32.1710   23.7630 O   0  0  0  0  0  0  0  0  0  0  0  0
  -22.8660  -29.4770   22.5210 C   0  0  0  0  0  0  0  0  0  0  0  0
  -21.5400  -29.3030   22.3820 N   0  0  0  0  0  0  0  0  0  0  0  0
  -23.5360  -28.8380   23.3370 O   0  0  0  0  0  0  0  0  0  0  0  0
  -21.0560  -29.8700   21.7010 H   0  0  0  0  0  0  0  0  0  0  0  0
  -18.1530  -28.1200   22.8770 C   0  0  0  0  0  0  0  0  0  0  0  0
  -20.7170  -28.3510   23.1320 C   0  0  0  0  0  3  0  0  0  0  0  0
  -20.8010  -26.9360   22.5140 C   0  0  0  0  0  2  0  0  0  0  0  0
  -19.6880  -26.6540   21.5000 C   0  0  0  0  0  2  0  0  0  0  0  0
  -18.3120  -26.7910   22.1580 C   0  0  0  0  0  2  0  0  0  0  0  0
  -19.2820  -28.8600   23.3200 C   0  0  0  0  0  0  0  0  0  0  0  0
  -19.0780  -30.1050   23.9540 C   0  0  0  0  0  3  0  0  0  0  0  0
  -17.7780  -30.6090   24.1500 C   0  0  0  0  0  3  0  0  0  0  0  0
  -16.6640  -29.8670   23.7210 C   0  0  0  0  0  3  0  0  0  0  0  0
  -16.8520  -28.6250   23.0900 C   0  0  0  0  0  3  0  0  0  0  0  0
  -25.9260  -32.5700   23.9190 C   0  0  0  0  0  3  0  0  0  0  0  0
  -25.5900  -33.9720   24.2170 N   0  0  0  0  0  0  0  0  0  0  0  0
  -25.9270  -35.0180   23.4500 C   0  0  0  0  0  0  0  0  0  0  0  0
  -26.6200  -34.9060   22.4360 O   0  0  0  0  0  0  0  0  0  0  0  0
  -24.9750  -34.1310   25.0010 H   0  0  0  0  0  0  0  0  0  0  0  0
  -24.1900  -36.7910   23.0310 C   0  0  0  0  0  1  0  0  0  0  0  0
  -25.4170  -36.4100   23.8750 C   0  0  0  0  0  3  0  0  0  0  0  0
  -27.5160  -37.3380   24.7490 C   0  0  0  0  0  1  0  0  0  0  0  0
  -26.4410  -37.4720   23.7690 N   0  0  0  0  0  0  0  0  0  0  0  0
  -26.0210  -38.3910   23.8830 H   0  0  0  0  0  0  0  0  0  0  0  0
  -26.3980  -31.8260   25.2300 C   0  0  1  0  0  0  0  0  0  0  0  0
  -25.2660  -31.5950   26.2580 C   0  0  0  0  0  1  0  0  0  0  0  0
  -27.0090  -30.4460   24.8900 C   0  0  0  0  0  1  0  0  0  0  0  0
  -27.5140  -32.6440   25.9220 C   0  0  0  0  0  1  0  0  0  0  0  0
  1  2  2  0
  1  3  1  0
  2  4  1  0
  3  5  2  0
  4  7  2  0
  4 52  1  0
  5  7  1  0
  5  8  1  0
  6  2  1  0
  8  9  1  0
  8 12  1  0
 10 12  1  0
 11 10  1  0
 11 12  1  0
 13  3  1  0
 13 22  1  0
 14 22  1  0
 15 20  1  0
 16 17  1  0
 16 15  1  0
 18 17  1  0
 18 27  1  0
 18 19  1  0
 20 14  1  0
 20 19  1  0
 21 14  2  0
 22 23  1  0
 24 25  2  0
 25 44  1  0
 26 25  1  0
 26 29  1  0
 27 24  1  0
 27 28  1  0
 28 26  2  0
 29 30  1  0
 30 31  2  0
 32 35  1  0
 32 31  1  0
 33 32  2  0
 34 33  1  0
 34 29  2  0
 35 36  1  0
 36 37  1  0
 37 38  2  0
 39 38  1  0
 39 43  1  0
 40 39  2  0
 41 36  2  0
 41 40  1  0
 42 41  1  0
 44 45  1  0
 45 48  1  0
 45 47  1  0
 46 44  2  0
 49 50  1  0
 49 24  1  0
 51 49  1  0
 53 54  1  0
 53 52  2  0
 55 66  2  0
 56 54  1  0
 56 61  1  0
 57 65  1  0
 57 67  1  0
 58 64  1  0
 58 60  1  0
 59 65  1  0
 60 61  2  0
 60 59  1  0
 62 56  2  0
 63 62  1  0
 63 58  2  0
 64 57  1  0
 65 55  1  0
 67 69  2  0
 68 67  1  0
 70 68  1  0
 71 80  2  0
 71 76  1  0
 72 68  1  0
 72 76  1  0
 73 72  1  0
 74 75  1  0
 74 73  1  0
 75 71  1  0
 76 77  2  0
 77 78  1  0
 79 78  2  0
 80 79  1  0
 81 55  1  0
 81 82  1  0
 81 91  1  0
 82 85  1  0
 83 87  1  0
 83 82  1  0
 84 83  2  0
 87 86  1  0
 89 87  1  0
 89 90  1  0
 89 88  1  0
 91 94  1  1
 91 92  1  0
 93 91  1  0
M  ISO  4  14 100  22 100  53 101  54 101
M  END
>  <TORSDO>  (66) 
F 21

>  <SCORE>  (66) 
-12.887

>  <name>  (66) 
65

>  <ligand_id>  (66) 
65

>  <original_smiles>  (66) 
[H]c1c([H])c([H])c2c(c1[H])C([H])([H])C([H])([H])C([H])([H])C2([H])N([H])C(=O)C1([H])N(C(=O)C([H])(N([H])C(=O)C([H])(N([H])C([H])([H])[H])C([H])([H])[H])C(C([H])([H])[H])(C([H])([H])[H])C([H])([H])[H])C([H])([H])c2c([H])c(OC([H])([H])C([H])([H])c3nc(N([H])C4([H])C([H])([H])C4([H])[H])c(C([H])([H])N([H])C(=O)N4C([H])([H])C([H])([H])C([H])([H])C([H])(n5nc(-c6c([H])c([H])c(Oc7c([H])c([H])c(F)c([H])c7F)c([H])c6[H])c(C(=O)N([H])[H])c5N([H])[H])C4([H])[H])c([H])c3C([H])([H])[H])c([H])c([H])c2C1([H])[H]

>  <smiles>  (66) 
[H]c1c([H])c([H])c2c(c1[H])C([H])([H])C([H])([H])C([H])([H])C2([H])N([H])C(=O)C1([H])N(C(=O)C([H])(N([H])C(=O)C([H])(N([H])C([H])([H])[H])C([H])([H])[H])C(C([H])([H])[H])(C([H])([H])[H])C([H])([H])[H])C([H])([H])c2c([H])c(OC([H])([H])C([H])([H])c3nc(N([H])C4([H])C([H])([H])C4([H])[H])c(C([H])([H])N([H])C(=O)N4C([H])([H])C([H])([H])C([H])([H])C([H])(n5nc(-c6c([H])c([H])c(Oc7c([H])c([H])c(F)c([H])c7F)c([H])c6[H])c(C(=O)N([H])[H])c5N([H])[H])C4([H])[H])c([H])c3C([H])([H])[H])c([H])c([H])c2C1([H])[H]

$$$$
66:0:0
     RDKit          3D

101105  0  0  1  0  0  0  0  0999 V2000
  -23.1510  -21.5540   19.9110 C   0  0  0  0  0  3  0  0  0  0  0  0
  -24.6610  -21.5500   20.0700 C   0  0  0  0  0  3  0  0  0  0  0  0
  -24.6320  -23.0390   20.4310 C   0  0  0  0  0  0  0  0  0  0  0  0
  -21.9810  -24.1530   20.2780 C   0  0  0  0  0  3  0  0  0  0  0  0
  -22.0090  -22.6350   19.9980 C   0  0  0  0  0  0  0  0  0  0  0  0
  -23.4810  -24.1170   20.6050 C   0  0  0  0  0  0  0  0  0  0  0  0
  -20.6540  -21.9930   19.7680 C   0  0  0  0  0  1  0  0  0  0  0  0
  -23.9180  -25.3560   21.3870 C   0  0  0  0  0  1  0  0  0  0  0  0
  -30.2650  -16.0550   19.0690 C   0  0  0  0  0  0  0  0  0  0  0  0
  -31.1170  -13.5160   18.4530 C   0  0  0  0  0  2  0  0  0  0  0  0
  -30.2690  -12.7910   17.3520 C   0  0  0  0  0  2  0  0  0  0  0  0
  -28.8880  -12.3870   17.9000 C   0  0  0  0  0  2  0  0  0  0  0  0
  -28.3620  -13.4980   18.8320 C   0  0  0  0  0  3  0  0  0  0  0  0
  -29.3400  -13.8680   19.9360 C   0  0  0  0  0  2  0  0  0  0  0  0
  -30.2970  -14.6080   19.1920 N   0  0  0  0  0  0  0  0  0  0  0  0
  -31.4110  -16.2790   18.5580 O   0  0  0  0  0  0  0  0  0  0  0  0
  -26.5090  -18.6410   20.4870 C   0  0  0  0  0  2  0  0  0  0  0  0
  -27.1320  -19.5930   18.6340 C   0  0  0  0  0  2  0  0  0  0  0  0
  -28.0020  -17.6010   20.4480 C   0  0  0  0  0  2  0  0  0  0  0  0
  -28.6200  -18.5530   18.6110 C   0  0  0  0  0  2  0  0  0  0  0  0
  -26.1610  -20.2460   19.9170 C   0  0  0  0  0  2  0  0  0  0  0  0
  -29.0130  -17.1070   19.2610 N   0  0  0  0  0  0  0  0  0  0  0  0
  -26.1800  -14.1790   19.8350 C   0  0  0  0  0  0  0  0  0  0  0  0
  -25.1710  -13.4560   20.3870 C   0  0  0  0  0  0  0  0  0  0  0  0
  -25.5800  -12.0900   20.3140 C   0  0  0  0  0  0  0  0  0  0  0  0
  -27.1130  -13.2430   19.4520 N   0  0  0  0  0  0  0  0  0  0  0  0
  -26.7980  -11.9850   19.8110 N   0  0  0  0  0  0  0  0  0  0  0  0
  -24.8540  -10.8630   20.6160 C   0  0  0  0  0  0  0  0  0  0  0  0
  -25.2330  -10.0210   21.6830 C   0  0  0  0  0  3  0  0  0  0  0  0
  -24.4990   -8.8490   21.9520 C   0  0  0  0  0  3  0  0  0  0  0  0
  -23.3790   -8.5180   21.1540 C   0  0  0  0  0  0  0  0  0  0  0  0
  -23.0250   -9.3480   20.0770 C   0  0  0  0  0  3  0  0  0  0  0  0
  -23.7600  -10.5110   19.8050 C   0  0  0  0  0  3  0  0  0  0  0  0
  -22.6160   -7.3910   21.3290 O   0  0  0  0  0  0  0  0  0  0  0  0
  -22.2640   -6.9530   22.5790 C   0  0  0  0  0  0  0  0  0  0  0  0
  -21.5070   -7.7500   23.4640 C   0  0  0  0  0  3  0  0  0  0  0  0
  -21.1090   -7.2320   24.7130 C   0  0  0  0  0  3  0  0  0  0  0  0
  -21.4580   -5.9160   25.0720 C   0  0  0  0  0  0  0  0  0  0  0  0
  -22.2080   -5.1190   24.1890 C   0  0  0  0  0  3  0  0  0  0  0  0
  -22.6080   -5.6370   22.9460 C   0  0  0  0  0  0  0  0  0  0  0  0
  -23.3140   -4.8590   22.0880 F   0  0  0  0  0  0  0  0  0  0  0  0
  -21.0670   -5.4130   26.2660 F   0  0  0  0  0  0  0  0  0  0  0  0
  -23.8570  -14.0030   20.8480 C   0  0  0  0  0  0  0  0  0  0  0  0
  -23.2870  -13.4130   21.8900 N   0  0  0  0  0  0  0  0  0  0  0  0
  -23.3560  -14.9900   20.3120 O   0  0  0  0  0  0  0  0  0  0  0  0
  -23.7140  -12.6160   22.3380 H   0  0  0  0  0  0  0  0  0  0  0  0
  -22.4100  -13.7640   22.2460 H   0  0  0  0  0  0  0  0  0  0  0  0
  -26.3630  -15.5360   19.5980 N   0  0  0  0  0  0  0  0  0  0  0  0
  -25.6480  -16.2130   19.8310 H   0  0  0  0  0  0  0  0  0  0  0  0
  -27.1800  -15.9550   19.1750 H   0  0  0  0  0  0  0  0  0  0  0  0
  -20.7390  -27.9960   16.8510 C   0  0  0  0  0 15  0  0  0  0  0  0
  -19.5280  -26.2890   16.8640 C   0  0  0  0  0  1  0  0  0  0  0  0
  -20.6690  -25.7010   19.8060 C   0  0  0  0  0  1  0  0  0  0  0  0
  -21.9110  -28.1770   18.5510 C   0  0  0  0  0 15  0  0  0  0  0  0
  -19.4710  -25.2660   18.4430 N   0  0  0  0  0  4  0  0  0  0  0  0
  -19.4800  -24.2810   18.2390 H   0  0  0  0  0  0  0  0  0  0  0  0
  -18.5640  -25.4620   18.8370 H   0  0  0  0  0  0  0  0  0  0  0  0
  -23.9910  -28.4580   18.8270 O   0  0  0  0  0  1  0  0  0  0  0  0
  -24.2040  -31.9370   22.8210 C   0  0  0  0  0  0  0  0  0  0  0  0
  -25.4590  -28.1530   19.3810 C   0  0  0  0  0  3  0  0  0  0  0  0
  -23.5390  -31.1270   20.6120 C   0  0  0  0  0  3  0  0  0  0  0  0
  -25.4980  -30.5770   18.8770 C   0  0  0  0  0  3  0  0  0  0  0  0
  -25.9940  -31.3890   21.1720 C   0  0  0  0  0  2  0  0  0  0  0  0
  -26.1350  -30.3550   20.0830 C   0  0  0  0  0  3  0  0  0  0  0  0
  -26.2660  -28.9790   20.3070 C   0  0  0  0  0  2  0  0  0  0  0  0
  -26.2250  -28.3520   18.2200 C   0  0  0  0  0  2  0  0  0  0  0  0
  -25.8210  -29.6490   17.8220 C   0  0  0  0  0  2  0  0  0  0  0  0
  -24.0970  -31.1660   19.1050 C   0  0  0  0  0  2  0  0  0  0  0  0
  -24.5830  -31.5650   21.5690 N   0  0  0  0  0  0  0  0  0  0  0  0
  -23.0080  -32.0340   23.1320 O   0  0  0  0  0  0  0  0  0  0  0  0
  -23.0040  -29.7870   21.2190 C   0  0  0  0  0  0  0  0  0  0  0  0
  -21.8870  -29.7320   21.8980 N   0  0  0  0  0  0  0  0  0  0  0  0
  -23.6480  -28.7520   21.1960 O   0  0  0  0  0  0  0  0  0  0  0  0
  -21.4280  -30.5960   22.1530 H   0  0  0  0  0  0  0  0  0  0  0  0
  -18.6560  -29.3510   22.1080 C   0  0  0  0  0  3  0  0  0  0  0  0
  -21.0540  -28.5060   21.9510 C   0  0  0  0  0  3  0  0  0  0  0  0
  -20.8410  -27.6190   20.3570 C   0  0  0  0  0  2  0  0  0  0  0  0
  -19.5100  -27.8730   18.9800 C   0  0  0  0  0  2  0  0  0  0  0  0
  -18.1180  -28.7500   19.5550 C   0  0  0  0  0  1  0  0  0  0  0  0
  -19.9300  -29.2060   22.7900 C   0  0  0  0  0  0  0  0  0  0  0  0
  -20.3350  -29.7950   24.0910 C   0  0  0  0  0  3  0  0  0  0  0  0
  -19.5030  -30.4460   25.0250 C   0  0  0  0  0  3  0  0  0  0  0  0
  -18.1670  -30.3840   24.6600 C   0  0  0  0  0  3  0  0  0  0  0  0
  -17.8100  -29.8550   23.3410 C   0  0  0  0  0  3  0  0  0  0  0  0
  -25.2630  -32.2800   23.8960 C   0  0  0  0  0  3  0  0  0  0  0  0
  -25.0880  -33.7070   24.1840 N   0  0  0  0  0  0  0  0  0  0  0  0
  -25.8590  -34.6740   23.6760 C   0  0  0  0  0  0  0  0  0  0  0  0
  -26.8580  -34.4420   22.9890 O   0  0  0  0  0  0  0  0  0  0  0  0
  -24.2590  -33.9690   24.6930 H   0  0  0  0  0  0  0  0  0  0  0  0
  -24.7530  -36.7440   22.7730 C   0  0  0  0  0  1  0  0  0  0  0  0
  -25.4630  -36.1270   23.9880 C   0  0  0  0  0  3  0  0  0  0  0  0
  -27.2200  -36.5640   25.6440 C   0  0  0  0  0  1  0  0  0  0  0  0
  -26.6100  -36.9730   24.3810 N   0  0  0  0  0  0  0  0  0  0  0  0
  -26.3290  -37.9450   24.4650 H   0  0  0  0  0  0  0  0  0  0  0  0
  -25.1290  -31.4220   25.2120 C   0  0  1  0  0  0  0  0  0  0  0  0
  -23.6970  -31.3810   25.7940 C   0  0  0  0  0  1  0  0  0  0  0  0
  -25.5770  -29.9610   24.9780 C   0  0  0  0  0  1  0  0  0  0  0  0
  -26.0750  -31.9990   26.2900 C   0  0  0  0  0  1  0  0  0  0  0  0
  -26.5610  -24.7670   19.8530 C   0  0  0  0  0  2  0  0  0  0  0  0
  -27.1020  -23.4030   19.5570 C   0  0  0  0  0  2  0  0  0  0  0  0
  -26.0360  -23.5680   20.6290 C   0  0  0  0  0  3  0  0  0  0  0  0
  1  5  2  0
  1  2  1  0
  2  3  2  0
  3  6  1  0
  3101  1  0
  4  6  2  0
  5  4  1  0
  6  8  1  0
  7  5  1  0
  9 15  1  0
  9 22  1  0
 10 15  1  0
 11 12  1  0
 11 10  1  0
 13 12  1  0
 13 26  1  0
 13 14  1  0
 15 14  1  0
 16  9  2  0
 18 21  1  0
 19 17  1  0
 20 18  1  0
 20 22  1  0
 21 17  1  0
 22 19  1  0
 23 24  2  0
 24 43  1  0
 25 24  1  0
 25 28  1  0
 26 27  1  0
 26 23  1  0
 27 25  2  0
 28 29  1  0
 29 30  2  0
 31 34  1  0
 31 30  1  0
 32 31  2  0
 33 32  1  0
 33 28  2  0
 34 35  1  0
 35 40  2  0
 35 36  1  0
 36 37  2  0
 37 38  1  0
 38 42  1  0
 39 38  2  0
 40 39  1  0
 41 40  1  0
 43 44  1  0
 44 47  1  0
 44 46  1  0
 45 43  2  0
 48 49  1  0
 48 23  1  0
 50 48  1  0
 52 55  1  0
 55 57  1  0
 55 53  1  0
 56 55  1  0
 59 70  2  0
 60 58  1  0
 60 65  1  0
 61 71  1  0
 61 69  1  0
 62 67  1  0
 62 68  1  0
 62 64  1  0
 63 69  1  0
 64 65  1  0
 64 63  1  0
 66 60  1  0
 67 66  1  0
 68 61  1  0
 69 59  1  0
 71 72  1  0
 72 76  1  0
 72 74  1  0
 73 71  2  0
 75 80  2  0
 75 84  1  0
 76 77  1  0
 76 80  1  0
 78 79  1  0
 78 77  1  0
 80 81  1  0
 81 82  2  0
 83 82  1  0
 84 83  2  0
 85 59  1  0
 85 86  1  0
 85 95  1  0
 86 89  1  0
 87 91  1  0
 87 86  1  0
 88 87  2  0
 91 90  1  0
 91 93  1  0
 93 94  1  0
 93 92  1  0
 95 96  1  1
 95 98  1  0
 97 95  1  0
 99101  1  0
100 99  1  0
100101  1  0
M  ISO  4   9 100  22 100  54 101  58 101
M  END
>  <TORSDO>  (67) 
F 18

>  <SCORE>  (67) 
12.434

>  <name>  (67) 
66

>  <ligand_id>  (67) 
66

>  <original_smiles>  (67) 
[H]c1c([H])c([H])c2c(c1[H])C([H])([H])C([H])([H])C([H])([H])C2([H])N([H])C(=O)C1([H])N(C(=O)C([H])(N([H])C(=O)C([H])(N([H])C([H])([H])[H])C([H])([H])[H])C(C([H])([H])[H])(C([H])([H])[H])C([H])([H])[H])C([H])([H])c2c([H])c(OC3([H])C([H])([H])C([H])([H])[N+]([H])([H])C3([H])c3c(C([H])([H])[H])c([H])c(C4([H])C([H])([H])C([H])([H])N(C(=O)N5C([H])([H])C([H])([H])C([H])([H])C([H])(n6nc(-c7c([H])c([H])c(Oc8c([H])c([H])c(F)c([H])c8F)c([H])c7[H])c(C(=O)N([H])[H])c6N([H])[H])C5([H])[H])C([H])([H])C4([H])[H])c(C4([H])C([H])([H])C4([H])[H])c3C([H])([H])[H])c([H])c([H])c2C1([H])[H]

>  <smiles>  (67) 
[H]c1c([H])c([H])c2c(c1[H])C([H])([H])C([H])([H])C([H])([H])C2([H])N([H])C(=O)C1([H])N(C(=O)C([H])(N([H])C(=O)C([H])(N([H])C([H])([H])[H])C([H])([H])[H])C(C([H])([H])[H])(C([H])([H])[H])C([H])([H])[H])C([H])([H])c2c([H])c(OC3([H])C([H])([H])C([H])([H])[N+]([H])([H])C3([H])c3c(C([H])([H])[H])c([H])c(C4([H])C([H])([H])C([H])([H])N(C(=O)N5C([H])([H])C([H])([H])C([H])([H])C([H])(n6nc(-c7c([H])c([H])c(Oc8c([H])c([H])c(F)c([H])c8F)c([H])c7[H])c(C(=O)N([H])[H])c6N([H])[H])C5([H])[H])C([H])([H])C4([H])[H])c(C4([H])C([H])([H])C4([H])[H])c3C([H])([H])[H])c([H])c([H])c2C1([H])[H]

$$$$
67:0:0
     RDKit          3D

 94103  0  0  1  0  0  0  0  0999 V2000
  -30.4980  -21.6200   18.9050 C   0  0  0  0  0  3  0  0  0  0  0  0
  -29.4880  -22.6980   20.8120 C   0  0  0  0  0  0  0  0  0  0  0  0
  -29.4610  -23.9740   20.0820 C   0  0  0  0  0  0  0  0  0  0  0  0
  -30.0340  -21.4650   20.2270 C   0  0  0  0  0  0  0  0  0  0  0  0
  -29.9530  -23.9020   18.7580 C   0  0  0  0  0  0  0  0  0  0  0  0
  -29.9130  -25.0940   17.8140 C   0  0  0  0  0  1  0  0  0  0  0  0
  -30.4570  -22.7760   18.2050 N   0  0  0  0  0  0  0  0  0  0  0  0
  -29.9710  -22.7830   23.3110 C   0  0  0  0  0  1  0  0  0  0  0  0
  -27.9450  -21.4650   22.4860 C   0  0  0  0  0  1  0  0  0  0  0  0
  -28.8870  -22.6590   22.2260 C   0  0  0  0  0  3  0  0  0  0  0  0
  -28.9040  -25.3680   20.6810 C   0  0  0  0  0  2  0  0  0  0  0  0
  -28.9260  -26.6780   19.9350 O   0  0  0  0  0  0  0  0  0  0  0  0
  -24.7660  -31.6980   23.1030 C   0  0  0  0  0  0  0  0  0  0  0  0
  -27.7590  -27.4750   19.9190 C   0  0  0  0  0  0  0  0  0  0  0  0
  -23.6870  -30.2870   21.3830 C   0  0  0  0  0  3  0  0  0  0  0  0
  -25.2710  -28.9160   19.9120 C   0  0  0  0  0  0  0  0  0  0  0  0
  -26.1950  -30.8150   21.2400 C   0  0  0  0  0  2  0  0  0  0  0  0
  -26.3930  -29.4720   20.5410 C   0  0  0  0  0  0  0  0  0  0  0  0
  -27.6420  -28.7700   20.5250 C   0  0  0  0  0  3  0  0  0  0  0  0
  -26.6120  -26.9780   19.2670 C   0  0  0  0  0  3  0  0  0  0  0  0
  -25.3840  -27.6730   19.2640 C   0  0  0  0  0  3  0  0  0  0  0  0
  -23.9700  -29.6930   19.9770 C   0  0  0  0  0  2  0  0  0  0  0  0
  -24.8990  -30.9530   21.9650 N   0  0  0  0  0  0  0  0  0  0  0  0
  -23.6620  -31.8590   23.6440 O   0  0  0  0  0  0  0  0  0  0  0  0
  -23.1010  -29.1800   22.2910 C   0  0  0  0  0  0  0  0  0  0  0  0
  -21.7980  -28.8900   22.1310 N   0  0  0  0  0  0  0  0  0  0  0  0
  -23.8170  -28.5850   23.1030 O   0  0  0  0  0  0  0  0  0  0  0  0
  -21.2740  -29.4260   21.4540 H   0  0  0  0  0  0  0  0  0  0  0  0
  -18.5420  -27.3480   22.4890 C   0  0  0  0  0  0  0  0  0  0  0  0
  -21.0540  -27.8500   22.8470 C   0  0  0  0  0  3  0  0  0  0  0  0
  -21.3150  -26.4560   22.2330 C   0  0  0  0  0  2  0  0  0  0  0  0
  -20.2800  -26.0580   21.1770 C   0  0  0  0  0  2  0  0  0  0  0  0
  -18.8720  -26.0450   21.7790 C   0  0  0  0  0  2  0  0  0  0  0  0
  -19.5680  -28.2020   22.9770 C   0  0  0  0  0  0  0  0  0  0  0  0
  -19.2080  -29.4150   23.6020 C   0  0  0  0  0  3  0  0  0  0  0  0
  -17.8560  -29.7800   23.7450 C   0  0  0  0  0  3  0  0  0  0  0  0
  -16.8450  -28.9250   23.2740 C   0  0  0  0  0  3  0  0  0  0  0  0
  -17.1880  -27.7120   22.6510 C   0  0  0  0  0  3  0  0  0  0  0  0
  -25.9930  -32.3980   23.7650 C   0  0  0  0  0  3  0  0  0  0  0  0
  -26.5390  -31.6280   25.0310 C   0  0  1  0  0  0  0  0  0  0  0  0
  -25.4520  -31.2910   26.0760 C   0  0  0  0  0  1  0  0  0  0  0  0
  -27.2200  -30.3020   24.6170 C   0  0  0  0  0  1  0  0  0  0  0  0
  -27.6210  -32.4820   25.7340 C   0  0  0  0  0  1  0  0  0  0  0  0
  -25.5830  -33.7630   24.1320 N   0  0  0  0  0  0  0  0  0  0  0  0
  -25.8190  -34.8550   23.3920 C   0  0  0  0  0  0  0  0  0  0  0  0
  -26.4780  -34.8260   22.3490 O   0  0  0  0  0  0  0  0  0  0  0  0
  -25.0000  -33.8550   24.9500 H   0  0  0  0  0  0  0  0  0  0  0  0
  -23.9490  -36.5110   23.1080 C   0  0  0  0  0  1  0  0  0  0  0  0
  -25.2340  -36.1900   23.8870 C   0  0  0  0  0  3  0  0  0  0  0  0
  -27.3040  -37.2310   24.6970 C   0  0  0  0  0  1  0  0  0  0  0  0
  -26.1750  -37.3250   23.7770 N   0  0  0  0  0  0  0  0  0  0  0  0
  -25.6980  -38.2050   23.9510 H   0  0  0  0  0  0  0  0  0  0  0  0
  -30.1260  -20.1930   20.8930 O   0  0  0  0  0  0  0  0  0  0  0  0
  -31.2570  -15.1060   20.3640 C   0  0  0  0  0  0  0  0  0  0  0  0
  -31.0060  -12.8100   19.3780 C   0  0  0  0  0  2  0  0  0  0  0  0
  -30.0910  -12.8320   18.1350 C   0  0  0  0  0  2  0  0  0  0  0  0
  -28.6050  -12.7060   18.5340 C   0  0  0  0  0  2  0  0  0  0  0  0
  -28.2200  -13.6310   19.7180 C   0  0  0  0  0  3  0  0  0  0  0  0
  -29.2650  -13.5940   20.8550 C   0  0  0  0  0  2  0  0  0  0  0  0
  -30.5730  -13.9130   20.2680 N   0  0  0  0  0  0  0  0  0  0  0  0
  -32.4800  -15.1160   20.1940 O   0  0  0  0  0  0  0  0  0  0  0  0
  -29.8640  -18.3930   19.1450 C   0  0  0  0  0  2  0  0  0  0  0  0
  -30.1770  -16.8760   19.0310 C   0  0  0  0  0  2  0  0  0  0  0  0
  -30.8160  -17.5770   21.1600 C   0  0  0  0  0  2  0  0  0  0  0  0
  -30.6890  -18.9290   20.3030 C   0  0  0  0  0  3  0  0  0  0  0  0
  -30.5460  -16.3160   20.3470 N   0  0  0  0  0  0  0  0  0  0  0  0
  -25.8470  -14.2840   20.4220 C   0  0  0  0  0  0  0  0  0  0  0  0
  -24.7490  -13.5350   20.7560 C   0  0  0  0  0  0  0  0  0  0  0  0
  -25.1750  -12.1720   20.7220 C   0  0  0  0  0  0  0  0  0  0  0  0
  -26.8670  -13.3740   20.1960 N   0  0  0  0  0  0  0  0  0  0  0  0
  -26.4710  -12.1000   20.4430 N   0  0  0  0  0  0  0  0  0  0  0  0
  -24.4080  -10.9280   20.8750 C   0  0  0  0  0  0  0  0  0  0  0  0
  -24.7780   -9.9500   21.8230 C   0  0  0  0  0  3  0  0  0  0  0  0
  -24.0170   -8.7700   21.9700 C   0  0  0  0  0  3  0  0  0  0  0  0
  -22.8710   -8.5600   21.1670 C   0  0  0  0  0  0  0  0  0  0  0  0
  -22.5170   -9.5260   20.2090 C   0  0  0  0  0  3  0  0  0  0  0  0
  -23.2810  -10.6980   20.0600 C   0  0  0  0  0  3  0  0  0  0  0  0
  -22.0870   -7.4320   21.2180 O   0  0  0  0  0  0  0  0  0  0  0  0
  -21.9520   -6.7020   22.3720 C   0  0  0  0  0  0  0  0  0  0  0  0
  -21.4540   -7.2740   23.5620 C   0  0  0  0  0  3  0  0  0  0  0  0
  -21.2670   -6.4710   24.7040 C   0  0  0  0  0  3  0  0  0  0  0  0
  -21.5680   -5.0970   24.6580 C   0  0  0  0  0  0  0  0  0  0  0  0
  -22.0610   -4.5230   23.4720 C   0  0  0  0  0  3  0  0  0  0  0  0
  -22.2500   -5.3250   22.3310 C   0  0  0  0  0  0  0  0  0  0  0  0
  -22.7030   -4.7640   21.1860 F   0  0  0  0  0  0  0  0  0  0  0  0
  -21.3830   -4.3240   25.7530 F   0  0  0  0  0  0  0  0  0  0  0  0
  -23.3590  -14.0480   20.9890 C   0  0  0  0  0  0  0  0  0  0  0  0
  -22.5870  -13.3690   21.8320 N   0  0  0  0  0  0  0  0  0  0  0  0
  -22.9640  -15.0850   20.4600 O   0  0  0  0  0  0  0  0  0  0  0  0
  -22.9220  -12.5350   22.2900 H   0  0  0  0  0  0  0  0  0  0  0  0
  -21.6470  -13.6910   22.0160 H   0  0  0  0  0  0  0  0  0  0  0  0
  -26.0580  -15.6520   20.2660 N   0  0  0  0  0  0  0  0  0  0  0  0
  -25.3110  -16.3290   20.3730 H   0  0  0  0  0  0  0  0  0  0  0  0
  -26.9320  -16.0710   19.9750 H   0  0  0  0  0  0  0  0  0  0  0  0
  1  4  1  0
  2 10  1  0
  3 11  1  0
  3  2  1  0
  4  2  2  0
  4 53  1  0
  5  3  2  0
  6  5  1  0
  7  5  1  0
  7  1  2  0
 10  9  1  0
 10  8  1  0
 12 11  1  0
 13 24  2  0
 14 12  1  0
 14 19  1  0
 15 23  1  0
 15 25  1  0
 16 22  1  0
 16 18  1  0
 17 23  1  0
 18 17  1  0
 19 18  2  0
 20 14  2  0
 21 20  1  0
 21 16  2  0
 22 15  1  0
 23 13  1  0
 25 27  2  0
 26 25  1  0
 28 26  1  0
 29 38  2  0
 29 34  1  0
 30 26  1  0
 30 34  1  0
 31 30  1  0
 32 33  1  0
 32 31  1  0
 33 29  1  0
 34 35  2  0
 35 36  1  0
 37 36  2  0
 38 37  1  0
 39 13  1  0
 39 44  1  0
 39 40  1  0
 40 43  1  1
 40 41  1  0
 42 40  1  0
 44 47  1  0
 45 49  1  0
 45 44  1  0
 46 45  2  0
 49 48  1  0
 51 49  1  0
 51 52  1  0
 51 50  1  0
 55 60  1  0
 56 57  1  0
 56 55  1  0
 58 57  1  0
 58 70  1  0
 58 59  1  0
 60 54  1  0
 60 59  1  0
 61 54  2  0
 62 65  1  0
 63 62  1  0
 63 66  1  0
 65 53  1  0
 65 64  1  0
 66 54  1  0
 66 64  1  0
 67 68  2  0
 68 87  1  0
 69 68  1  0
 69 72  1  0
 70 67  1  0
 70 71  1  0
 71 69  2  0
 72 73  1  0
 73 74  2  0
 75 78  1  0
 75 74  1  0
 76 75  2  0
 77 76  1  0
 77 72  2  0
 78 79  1  0
 79 80  1  0
 80 81  2  0
 82 81  1  0
 82 86  1  0
 83 82  2  0
 84 79  2  0
 84 83  1  0
 85 84  1  0
 87 88  1  0
 88 91  1  0
 88 90  1  0
 89 87  2  0
 92 93  1  0
 92 67  1  0
 94 92  1  0
M  ISO  4  11 101  12 101  54 100  66 100
M  END
>  <TORSDO>  (68) 
F 19

>  <SCORE>  (68) 
-11.700

>  <name>  (68) 
67

>  <ligand_id>  (68) 
67

>  <original_smiles>  (68) 
[H]c1nc(C([H])([H])[H])c(C([H])([H])Oc2c([H])c([H])c3c(c2[H])C([H])([H])N(C(=O)C([H])(N([H])C(=O)C([H])(N([H])C([H])([H])[H])C([H])([H])[H])C(C([H])([H])[H])(C([H])([H])[H])C([H])([H])[H])C([H])(C(=O)N([H])C2([H])c4c([H])c([H])c([H])c([H])c4C([H])([H])C([H])([H])C2([H])[H])C3([H])[H])c(C([H])(C([H])([H])[H])C([H])([H])[H])c1OC1([H])C([H])([H])N(C(=O)N2C([H])([H])C([H])([H])C([H])([H])C([H])(n3nc(-c4c([H])c([H])c(Oc5c([H])c([H])c(F)c([H])c5F)c([H])c4[H])c(C(=O)N([H])[H])c3N([H])[H])C2([H])[H])C([H])([H])C1([H])[H]

>  <smiles>  (68) 
[H]c1nc(C([H])([H])[H])c(C([H])([H])Oc2c([H])c([H])c3c(c2[H])C([H])([H])N(C(=O)C([H])(N([H])C(=O)C([H])(N([H])C([H])([H])[H])C([H])([H])[H])C(C([H])([H])[H])(C([H])([H])[H])C([H])([H])[H])C([H])(C(=O)N([H])C2([H])c4c([H])c([H])c([H])c([H])c4C([H])([H])C([H])([H])C2([H])[H])C3([H])[H])c(C([H])(C([H])([H])[H])C([H])([H])[H])c1OC1([H])C([H])([H])N(C(=O)N2C([H])([H])C([H])([H])C([H])([H])C([H])(n3nc(-c4c([H])c([H])c(Oc5c([H])c([H])c(F)c([H])c5F)c([H])c4[H])c(C(=O)N([H])[H])c3N([H])[H])C2([H])[H])C([H])([H])C1([H])[H]

$$$$
68:0:0
     RDKit          3D

 94103  0  0  1  0  0  0  0  0999 V2000
  -28.8640  -20.2010   19.3320 C   0  0  0  0  0  3  0  0  0  0  0  0
  -29.3780  -19.8020   21.6720 C   0  0  0  0  0  3  0  0  0  0  0  0
  -29.4500  -18.9510   19.0920 C   0  0  0  0  0  0  0  0  0  0  0  0
  -28.8390  -20.6500   20.6680 C   0  0  0  0  0  0  0  0  0  0  0  0
  -29.9600  -18.1950   20.1350 C   0  0  0  0  0  0  0  0  0  0  0  0
  -29.6610  -18.2960   17.7560 C   0  0  0  0  0  3  0  0  0  0  0  0
  -30.5500  -17.0780   18.0820 C   0  0  0  0  0  3  0  0  0  0  0  0
  -30.6670  -16.9530   19.6340 C   0  0  0  0  0  3  0  0  0  0  0  0
  -29.9300  -18.5840   21.4250 N   0  0  0  0  0  0  0  0  0  0  0  0
  -30.8380  -14.5300   19.9740 C   0  0  0  0  0  0  0  0  0  0  0  0
  -30.4160  -12.3670   18.9110 C   0  0  0  0  0  2  0  0  0  0  0  0
  -29.4140  -12.5870   17.7600 C   0  0  0  0  0  2  0  0  0  0  0  0
  -27.9650  -12.4840   18.2720 C   0  0  0  0  0  2  0  0  0  0  0  0
  -27.7090  -13.3130   19.5630 C   0  0  0  0  0  3  0  0  0  0  0  0
  -28.8370  -13.1180   20.6050 C   0  0  0  0  0  2  0  0  0  0  0  0
  -30.1190  -13.3770   19.9370 N   0  0  0  0  0  0  0  0  0  0  0  0
  -32.0040  -14.5940   19.5890 O   0  0  0  0  0  0  0  0  0  0  0  0
  -30.1350  -15.6670   20.1190 N   0  0  0  0  0  0  0  0  0  0  0  0
  -29.1570  -15.6220   20.3550 H   0  0  0  0  0  0  0  0  0  0  0  0
  -25.3680  -13.9120   20.4500 C   0  0  0  0  0  0  0  0  0  0  0  0
  -24.3200  -13.1390   20.8650 C   0  0  0  0  0  0  0  0  0  0  0  0
  -24.7700  -11.7850   20.7750 C   0  0  0  0  0  0  0  0  0  0  0  0
  -26.3900  -13.0310   20.1280 N   0  0  0  0  0  0  0  0  0  0  0  0
  -26.0390  -11.7450   20.3870 N   0  0  0  0  0  0  0  0  0  0  0  0
  -24.0450  -10.5240   20.9820 C   0  0  0  0  0  0  0  0  0  0  0  0
  -24.5030   -9.5500   21.8970 C   0  0  0  0  0  3  0  0  0  0  0  0
  -23.7780   -8.3540   22.0900 C   0  0  0  0  0  3  0  0  0  0  0  0
  -22.5810   -8.1260   21.3650 C   0  0  0  0  0  0  0  0  0  0  0  0
  -22.1440   -9.0900   20.4400 C   0  0  0  0  0  3  0  0  0  0  0  0
  -22.8680  -10.2780   20.2470 C   0  0  0  0  0  3  0  0  0  0  0  0
  -21.8240   -6.9840   21.4690 O   0  0  0  0  0  0  0  0  0  0  0  0
  -21.7720   -6.2570   22.6310 C   0  0  0  0  0  0  0  0  0  0  0  0
  -21.3150   -6.8220   23.8420 C   0  0  0  0  0  3  0  0  0  0  0  0
  -21.2130   -6.0210   24.9990 C   0  0  0  0  0  3  0  0  0  0  0  0
  -21.5540   -4.6560   24.9430 C   0  0  0  0  0  0  0  0  0  0  0  0
  -22.0010   -4.0900   23.7360 C   0  0  0  0  0  3  0  0  0  0  0  0
  -22.1050   -4.8870   22.5820 C   0  0  0  0  0  0  0  0  0  0  0  0
  -22.5150   -4.3300   21.4170 F   0  0  0  0  0  0  0  0  0  0  0  0
  -21.4520   -3.8870   26.0520 F   0  0  0  0  0  0  0  0  0  0  0  0
  -22.9470  -13.6200   21.2430 C   0  0  0  0  0  0  0  0  0  0  0  0
  -22.2690  -12.9090   22.1390 N   0  0  0  0  0  0  0  0  0  0  0  0
  -22.4860  -14.6650   20.7800 O   0  0  0  0  0  0  0  0  0  0  0  0
  -22.6430  -12.0550   22.5270 H   0  0  0  0  0  0  0  0  0  0  0  0
  -21.3600  -13.2240   22.4480 H   0  0  0  0  0  0  0  0  0  0  0  0
  -25.5280  -15.2860   20.2980 N   0  0  0  0  0  0  0  0  0  0  0  0
  -24.7560  -15.9210   20.4610 H   0  0  0  0  0  0  0  0  0  0  0  0
  -26.3360  -15.7470   19.9000 H   0  0  0  0  0  0  0  0  0  0  0  0
  -28.1750  -21.9890   20.9930 C   0  0  0  0  0  2  0  0  0  0  0  0
  -29.0140  -23.1700   20.6730 N   0  0  0  0  0  4  0  0  0  0  0  0
  -29.5930  -22.9580   19.8740 H   0  0  0  0  0  0  0  0  0  0  0  0
  -29.6380  -23.3390   21.4470 H   0  0  0  0  0  0  0  0  0  0  0  0
  -28.2540  -24.4120   20.3560 C   0  0  0  0  0  2  0  0  0  0  0  0
  -28.8870  -25.6910   20.9510 C   0  0  0  0  0  2  0  0  0  0  0  0
  -28.7200  -26.8530   20.1320 O   0  0  0  0  0  0  0  0  0  0  0  0
  -24.6480  -31.8290   23.2330 C   0  0  0  0  0  0  0  0  0  0  0  0
  -27.5120  -27.5040   20.1950 C   0  0  0  0  0  0  0  0  0  0  0  0
  -23.5360  -30.4210   21.5280 C   0  0  0  0  0  3  0  0  0  0  0  0
  -25.0770  -28.9350   20.1430 C   0  0  0  0  0  0  0  0  0  0  0  0
  -26.0540  -30.8470   21.4260 C   0  0  0  0  0  2  0  0  0  0  0  0
  -26.1980  -29.4840   20.7800 C   0  0  0  0  0  0  0  0  0  0  0  0
  -27.4210  -28.7770   20.7980 C   0  0  0  0  0  3  0  0  0  0  0  0
  -26.3750  -26.9600   19.5640 C   0  0  0  0  0  3  0  0  0  0  0  0
  -25.1570  -27.6670   19.5400 C   0  0  0  0  0  3  0  0  0  0  0  0
  -23.8120  -29.7670   20.1470 C   0  0  0  0  0  2  0  0  0  0  0  0
  -24.7620  -31.0470   22.1220 N   0  0  0  0  0  0  0  0  0  0  0  0
  -23.5430  -32.0670   23.7390 O   0  0  0  0  0  0  0  0  0  0  0  0
  -22.8780  -29.3690   22.4490 C   0  0  0  0  0  0  0  0  0  0  0  0
  -21.5570  -29.1790   22.2920 N   0  0  0  0  0  0  0  0  0  0  0  0
  -23.5520  -28.7270   23.2570 O   0  0  0  0  0  0  0  0  0  0  0  0
  -21.0710  -29.7560   21.6190 H   0  0  0  0  0  0  0  0  0  0  0  0
  -18.1790  -27.9710   22.7180 C   0  0  0  0  0  0  0  0  0  0  0  0
  -20.7350  -28.2130   23.0210 C   0  0  0  0  0  3  0  0  0  0  0  0
  -20.8390  -26.8040   22.3940 C   0  0  0  0  0  2  0  0  0  0  0  0
  -19.7440  -26.5210   21.3590 C   0  0  0  0  0  2  0  0  0  0  0  0
  -18.3570  -26.6460   21.9960 C   0  0  0  0  0  2  0  0  0  0  0  0
  -19.2950  -28.7130   23.1850 C   0  0  0  0  0  0  0  0  0  0  0  0
  -19.0750  -29.9570   23.8170 C   0  0  0  0  0  3  0  0  0  0  0  0
  -17.7700  -30.4570   23.9870 C   0  0  0  0  0  3  0  0  0  0  0  0
  -16.6680  -29.7090   23.5370 C   0  0  0  0  0  3  0  0  0  0  0  0
  -16.8730  -28.4680   22.9090 C   0  0  0  0  0  3  0  0  0  0  0  0
  -25.8960  -32.4790   23.9080 C   0  0  0  0  0  3  0  0  0  0  0  0
  -26.3750  -31.7100   25.2020 C   0  0  1  0  0  0  0  0  0  0  0  0
  -25.2450  -31.4480   26.2230 C   0  0  0  0  0  1  0  0  0  0  0  0
  -27.0000  -30.3470   24.8250 C   0  0  0  0  0  1  0  0  0  0  0  0
  -27.4810  -32.5230   25.9160 C   0  0  0  0  0  1  0  0  0  0  0  0
  -25.5530  -33.8710   24.2310 N   0  0  0  0  0  0  0  0  0  0  0  0
  -25.8760  -34.9300   23.4750 C   0  0  0  0  0  0  0  0  0  0  0  0
  -26.5760  -34.8400   22.4620 O   0  0  0  0  0  0  0  0  0  0  0  0
  -24.9440  -34.0160   25.0230 H   0  0  0  0  0  0  0  0  0  0  0  0
  -24.1140  -36.6750   23.0700 C   0  0  0  0  0  1  0  0  0  0  0  0
  -25.3440  -36.3060   23.9140 C   0  0  0  0  0  3  0  0  0  0  0  0
  -27.4320  -37.2470   24.7970 C   0  0  0  0  0  1  0  0  0  0  0  0
  -26.3530  -37.3840   23.8220 N   0  0  0  0  0  0  0  0  0  0  0  0
  -25.9200  -38.2940   23.9550 H   0  0  0  0  0  0  0  0  0  0  0  0
  1  4  1  0
  3  1  2  0
  3  5  1  0
  4 48  1  0
  4  2  2  0
  5  9  2  0
  6  7  2  0
  6  3  1  0
  7  8  1  0
  8 18  1  0
  8  5  1  0
  9  2  1  0
 10 18  1  0
 11 16  1  0
 12 13  1  0
 12 11  1  0
 14 13  1  0
 14 23  1  0
 14 15  1  0
 16 10  1  0
 16 15  1  0
 17 10  2  0
 18 19  1  0
 20 21  2  0
 21 40  1  0
 22 21  1  0
 22 25  1  0
 23 24  1  0
 23 20  1  0
 24 22  2  0
 25 26  1  0
 26 27  2  0
 28 31  1  0
 28 27  1  0
 29 28  2  0
 30 29  1  0
 30 25  2  0
 31 32  1  0
 32 33  1  0
 33 34  2  0
 35 34  1  0
 35 39  1  0
 36 35  2  0
 37 32  2  0
 37 36  1  0
 38 37  1  0
 40 41  1  0
 41 44  1  0
 41 43  1  0
 42 40  2  0
 45 20  1  0
 45 46  1  0
 47 45  1  0
 49 48  1  0
 49 51  1  0
 50 49  1  0
 52 49  1  0
 52 53  1  0
 54 56  1  0
 54 53  1  0
 55 66  2  0
 56 61  1  0
 57 65  1  0
 57 67  1  0
 58 64  1  0
 58 60  1  0
 59 65  1  0
 60 61  2  0
 60 59  1  0
 62 56  2  0
 63 62  1  0
 63 58  2  0
 64 57  1  0
 65 55  1  0
 67 69  2  0
 68 67  1  0
 70 68  1  0
 71 80  2  0
 71 76  1  0
 72 68  1  0
 72 76  1  0
 73 72  1  0
 74 75  1  0
 74 73  1  0
 75 71  1  0
 76 77  2  0
 77 78  1  0
 79 78  2  0
 80 79  1  0
 81 55  1  0
 81 86  1  0
 81 82  1  0
 82 85  1  1
 82 83  1  0
 84 82  1  0
 86 89  1  0
 87 91  1  0
 87 86  1  0
 88 87  2  0
 91 90  1  0
 93 91  1  0
 93 94  1  0
 93 92  1  0
M  ISO  4  10 100  18 100  53 101  54 101
M  END
>  <TORSDO>  (69) 
F 20

>  <SCORE>  (69) 
-13.017

>  <name>  (69) 
68

>  <ligand_id>  (69) 
68

>  <original_smiles>  (69) 
[H]c1nc2c(c([H])c1C([H])([H])[N+]([H])([H])C([H])([H])C([H])([H])Oc1c([H])c([H])c3c(c1[H])C([H])([H])N(C(=O)C([H])(N([H])C(=O)C([H])(N([H])C([H])([H])[H])C([H])([H])[H])C(C([H])([H])[H])(C([H])([H])[H])C([H])([H])[H])C([H])(C(=O)N([H])C1([H])c4c([H])c([H])c([H])c([H])c4C([H])([H])C([H])([H])C1([H])[H])C3([H])[H])C([H])([H])C([H])([H])C2([H])N([H])C(=O)N1C([H])([H])C([H])([H])C([H])([H])C([H])(n2nc(-c3c([H])c([H])c(Oc4c([H])c([H])c(F)c([H])c4F)c([H])c3[H])c(C(=O)N([H])[H])c2N([H])[H])C1([H])[H]

>  <smiles>  (69) 
[H]c1nc2c(c([H])c1C([H])([H])[N+]([H])([H])C([H])([H])C([H])([H])Oc1c([H])c([H])c3c(c1[H])C([H])([H])N(C(=O)C([H])(N([H])C(=O)C([H])(N([H])C([H])([H])[H])C([H])([H])[H])C(C([H])([H])[H])(C([H])([H])[H])C([H])([H])[H])C([H])(C(=O)N([H])C1([H])c4c([H])c([H])c([H])c([H])c4C([H])([H])C([H])([H])C1([H])[H])C3([H])[H])C([H])([H])C([H])([H])C2([H])N([H])C(=O)N1C([H])([H])C([H])([H])C([H])([H])C([H])(n2nc(-c3c([H])c([H])c(Oc4c([H])c([H])c(F)c([H])c4F)c([H])c3[H])c(C(=O)N([H])[H])c2N([H])[H])C1([H])[H]

$$$$
69:0:0
     RDKit          3D

 98107  0  0  1  0  0  0  0  0999 V2000
  -28.7610  -22.3650   20.4720 C   0  0  0  0  0  0  0  0  0  0  0  0
  -29.0890  -23.7880   20.3160 C   0  0  0  0  0  0  0  0  0  0  0  0
  -29.7510  -21.2860   20.3530 C   0  0  0  0  0  0  0  0  0  0  0  0
  -30.4520  -24.0470   20.0500 C   0  0  0  0  0  0  0  0  0  0  0  0
  -31.0680  -21.7700   20.1160 C   0  0  0  0  0  0  0  0  0  0  0  0
  -27.3170  -21.9830   20.7530 C   0  0  0  0  0  1  0  0  0  0  0  0
  -30.9830  -25.4450   19.7870 C   0  0  0  0  0  1  0  0  0  0  0  0
  -32.2540  -20.8480   19.9170 C   0  0  0  0  0  1  0  0  0  0  0  0
  -31.3890  -23.0780   19.9830 N   0  0  0  0  0  0  0  0  0  0  0  0
  -30.1650  -18.6910   21.0240 C   0  0  0  0  0  2  0  0  0  0  0  0
  -28.9410  -19.2930   19.1030 C   0  0  0  0  0  2  0  0  0  0  0  0
  -29.3870  -17.3660   20.6160 C   0  0  0  0  0  3  0  0  0  0  0  0
  -28.9150  -17.7280   19.1940 C   0  0  0  0  0  3  0  0  0  0  0  0
  -29.4440  -19.8500   20.3660 N   0  0  0  0  0  0  0  0  0  0  0  0
  -30.6100  -14.8740   20.5800 C   0  0  0  0  0  0  0  0  0  0  0  0
  -30.5230  -12.5730   19.5820 C   0  0  0  0  0  2  0  0  0  0  0  0
  -29.6090  -12.6120   18.3320 C   0  0  0  0  0  2  0  0  0  0  0  0
  -28.1240  -12.4460   18.7160 C   0  0  0  0  0  2  0  0  0  0  0  0
  -27.7130  -13.3390   19.9180 C   0  0  0  0  0  3  0  0  0  0  0  0
  -28.7410  -13.2340   21.0700 C   0  0  0  0  0  2  0  0  0  0  0  0
  -30.0570  -13.6130   20.5300 N   0  0  0  0  0  0  0  0  0  0  0  0
  -31.7490  -15.0830   20.1560 O   0  0  0  0  0  0  0  0  0  0  0  0
  -29.7230  -15.8880   20.9070 N   0  0  0  0  0  0  0  0  0  0  0  0
  -28.9210  -15.4490   21.3310 H   0  0  0  0  0  0  0  0  0  0  0  0
  -25.3030  -13.9350   20.5710 C   0  0  0  0  0  0  0  0  0  0  0  0
  -24.2280  -13.1620   20.9150 C   0  0  0  0  0  0  0  0  0  0  0  0
  -24.6920  -11.8110   20.8990 C   0  0  0  0  0  0  0  0  0  0  0  0
  -26.3530  -13.0540   20.3630 N   0  0  0  0  0  0  0  0  0  0  0  0
  -25.9910  -11.7720   20.6240 N   0  0  0  0  0  0  0  0  0  0  0  0
  -23.9620  -10.5480   21.0700 C   0  0  0  0  0  0  0  0  0  0  0  0
  -24.3670   -9.5810   22.0160 C   0  0  0  0  0  3  0  0  0  0  0  0
  -23.6350   -8.3850   22.1770 C   0  0  0  0  0  3  0  0  0  0  0  0
  -22.4830   -8.1480   21.3910 C   0  0  0  0  0  0  0  0  0  0  0  0
  -22.0940   -9.1040   20.4360 C   0  0  0  0  0  3  0  0  0  0  0  0
  -22.8260  -10.2920   20.2730 C   0  0  0  0  0  3  0  0  0  0  0  0
  -21.7260   -7.0010   21.4570 O   0  0  0  0  0  0  0  0  0  0  0  0
  -21.6390   -6.2620   22.6090 C   0  0  0  0  0  0  0  0  0  0  0  0
  -21.1500   -6.8160   23.8120 C   0  0  0  0  0  3  0  0  0  0  0  0
  -21.0150   -6.0050   24.9570 C   0  0  0  0  0  3  0  0  0  0  0  0
  -21.3550   -4.6400   24.8970 C   0  0  0  0  0  0  0  0  0  0  0  0
  -21.8350   -4.0850   23.6980 C   0  0  0  0  0  3  0  0  0  0  0  0
  -21.9740   -4.8940   22.5550 C   0  0  0  0  0  0  0  0  0  0  0  0
  -22.4170   -4.3510   21.3970 F   0  0  0  0  0  0  0  0  0  0  0  0
  -21.2200   -3.8570   25.9920 F   0  0  0  0  0  0  0  0  0  0  0  0
  -22.8220  -13.6400   21.1450 C   0  0  0  0  0  0  0  0  0  0  0  0
  -22.0730  -12.9560   22.0020 N   0  0  0  0  0  0  0  0  0  0  0  0
  -22.3960  -14.6590   20.6040 O   0  0  0  0  0  0  0  0  0  0  0  0
  -22.4270  -12.1340   22.4700 H   0  0  0  0  0  0  0  0  0  0  0  0
  -21.1300  -13.2590   22.1970 H   0  0  0  0  0  0  0  0  0  0  0  0
  -25.4690  -15.3040   20.3930 N   0  0  0  0  0  0  0  0  0  0  0  0
  -24.7000  -15.9520   20.5210 H   0  0  0  0  0  0  0  0  0  0  0  0
  -26.2840  -15.7310   19.9790 H   0  0  0  0  0  0  0  0  0  0  0  0
  -29.7210  -17.0890   18.1370 N   0  0  0  0  0  4  0  0  0  0  0  0
  -29.6250  -16.0920   18.1770 H   0  0  0  0  0  0  0  0  0  0  0  0
  -30.6940  -17.3190   18.2390 H   0  0  0  0  0  0  0  0  0  0  0  0
  -29.4080  -17.3920   17.2320 H   0  0  0  0  0  0  0  0  0  0  0  0
  -27.9960  -24.9660   20.3630 C   0  0  0  0  0  2  0  0  0  0  0  0
  -28.3010  -26.4470   20.2610 O   0  0  0  0  0  0  0  0  0  0  0  0
  -24.6160  -31.9560   23.3060 C   0  0  0  0  0  0  0  0  0  0  0  0
  -27.2070  -27.3570   20.2230 C   0  0  0  0  0  0  0  0  0  0  0  0
  -23.4090  -30.5690   21.6620 C   0  0  0  0  0  3  0  0  0  0  0  0
  -24.8550  -29.0210   20.2260 C   0  0  0  0  0  0  0  0  0  0  0  0
  -25.9540  -30.8660   21.4820 C   0  0  0  0  0  2  0  0  0  0  0  0
  -26.0300  -29.4860   20.8290 C   0  0  0  0  0  0  0  0  0  0  0  0
  -27.2070  -28.6660   20.8200 C   0  0  0  0  0  3  0  0  0  0  0  0
  -26.0090  -26.9760   19.5760 C   0  0  0  0  0  3  0  0  0  0  0  0
  -24.8490  -27.7710   19.5910 C   0  0  0  0  0  3  0  0  0  0  0  0
  -23.6230  -29.9040   20.2790 C   0  0  0  0  0  2  0  0  0  0  0  0
  -24.6800  -31.1490   22.2060 N   0  0  0  0  0  0  0  0  0  0  0  0
  -23.5330  -32.2360   23.8410 O   0  0  0  0  0  0  0  0  0  0  0  0
  -22.7420  -29.5500   22.6170 C   0  0  0  0  0  0  0  0  0  0  0  0
  -21.4180  -29.3660   22.4810 N   0  0  0  0  0  0  0  0  0  0  0  0
  -23.4190  -28.9270   23.4410 O   0  0  0  0  0  0  0  0  0  0  0  0
  -20.9310  -29.9240   21.7940 H   0  0  0  0  0  0  0  0  0  0  0  0
  -18.0450  -28.1400   22.9620 C   0  0  0  0  0  0  0  0  0  0  0  0
  -20.5980  -28.4220   23.2470 C   0  0  0  0  0  3  0  0  0  0  0  0
  -20.7150  -26.9890   22.6780 C   0  0  0  0  0  2  0  0  0  0  0  0
  -19.6230  -26.6550   21.6550 C   0  0  0  0  0  2  0  0  0  0  0  0
  -18.2360  -26.7900   22.2900 C   0  0  0  0  0  2  0  0  0  0  0  0
  -19.1540  -28.9120   23.3960 C   0  0  0  0  0  0  0  0  0  0  0  0
  -18.9210  -30.1730   23.9870 C   0  0  0  0  0  3  0  0  0  0  0  0
  -17.6120  -30.6640   24.1420 C   0  0  0  0  0  3  0  0  0  0  0  0
  -16.5160  -29.8910   23.7220 C   0  0  0  0  0  3  0  0  0  0  0  0
  -16.7330  -28.6300   23.1360 C   0  0  0  0  0  3  0  0  0  0  0  0
  -25.8990  -32.5850   23.9310 C   0  0  0  0  0  3  0  0  0  0  0  0
  -26.4030  -31.8190   25.2170 C   0  0  1  0  0  0  0  0  0  0  0  0
  -25.3050  -31.5950   26.2820 C   0  0  0  0  0  1  0  0  0  0  0  0
  -26.9820  -30.4350   24.8410 C   0  0  0  0  0  1  0  0  0  0  0  0
  -27.5560  -32.6090   25.8790 C   0  0  0  0  0  1  0  0  0  0  0  0
  -25.5950  -33.9880   24.2510 N   0  0  0  0  0  0  0  0  0  0  0  0
  -25.9150  -35.0330   23.4750 C   0  0  0  0  0  0  0  0  0  0  0  0
  -26.5670  -34.9170   22.4340 O   0  0  0  0  0  0  0  0  0  0  0  0
  -25.0100  -34.1520   25.0580 H   0  0  0  0  0  0  0  0  0  0  0  0
  -24.1770  -36.8230   23.1400 C   0  0  0  0  0  1  0  0  0  0  0  0
  -25.4370  -36.4280   23.9260 C   0  0  0  0  0  3  0  0  0  0  0  0
  -27.5890  -37.3280   24.6940 C   0  0  0  0  0  1  0  0  0  0  0  0
  -26.4660  -37.4790   23.7730 N   0  0  0  0  0  0  0  0  0  0  0  0
  -26.0610  -38.4010   23.9140 H   0  0  0  0  0  0  0  0  0  0  0  0
  1  6  1  0
  2 57  1  0
  2  1  2  0
  3 14  1  0
  3  1  1  0
  4  2  1  0
  5  3  2  0
  7  4  1  0
  8  5  1  0
  9  4  2  0
  9  5  1  0
 11 13  1  0
 11 14  1  0
 12 23  1  0
 12 10  1  0
 13 53  1  0
 13 12  1  0
 14 10  1  0
 15 23  1  0
 16 21  1  0
 17 18  1  0
 17 16  1  0
 19 18  1  0
 19 28  1  0
 19 20  1  0
 21 15  1  0
 21 20  1  0
 22 15  2  0
 23 24  1  0
 25 26  2  0
 26 45  1  0
 27 26  1  0
 27 30  1  0
 28 25  1  0
 28 29  1  0
 29 27  2  0
 30 31  1  0
 31 32  2  0
 33 36  1  0
 33 32  1  0
 34 33  2  0
 35 34  1  0
 35 30  2  0
 36 37  1  0
 37 38  1  0
 38 39  2  0
 40 39  1  0
 40 44  1  0
 41 40  2  0
 42 37  2  0
 42 41  1  0
 43 42  1  0
 45 46  1  0
 46 49  1  0
 46 48  1  0
 47 45  2  0
 50 51  1  0
 50 25  1  0
 52 50  1  0
 53 54  1  0
 53 55  1  0
 56 53  1  0
 58 57  1  0
 59 70  2  0
 60 58  1  0
 60 65  1  0
 61 69  1  0
 61 71  1  0
 62 68  1  0
 62 64  1  0
 63 69  1  0
 64 63  1  0
 65 64  2  0
 66 67  1  0
 66 60  2  0
 67 62  2  0
 68 61  1  0
 69 59  1  0
 71 73  2  0
 72 71  1  0
 74 72  1  0
 75 84  2  0
 75 80  1  0
 76 72  1  0
 76 80  1  0
 77 76  1  0
 78 79  1  0
 78 77  1  0
 79 75  1  0
 80 81  2  0
 81 82  1  0
 83 82  2  0
 84 83  1  0
 85 59  1  0
 85 90  1  0
 85 86  1  0
 86 89  1  1
 86 87  1  0
 88 86  1  0
 90 93  1  0
 91 95  1  0
 91 90  1  0
 92 91  2  0
 95 94  1  0
 97 98  1  0
 97 95  1  0
 97 96  1  0
M  ISO  4  15 100  23 100  57 101  58 101
M  END
>  <TORSDO>  (70) 
F 19

>  <SCORE>  (70) 
-14.600

>  <name>  (70) 
69

>  <ligand_id>  (70) 
69

>  <original_smiles>  (70) 
[H]c1c([H])c([H])c2c(c1[H])C([H])([H])C([H])([H])C([H])([H])C2([H])N([H])C(=O)C1([H])N(C(=O)C([H])(N([H])C(=O)C([H])(N([H])C([H])([H])[H])C([H])([H])[H])C(C([H])([H])[H])(C([H])([H])[H])C([H])([H])[H])C([H])([H])c2c([H])c(OC([H])([H])c3c(C([H])([H])[H])nc(C([H])([H])[H])c(N4C([H])([H])C([H])(N([H])C(=O)N5C([H])([H])C([H])([H])C([H])([H])C([H])(n6nc(-c7c([H])c([H])c(Oc8c([H])c([H])c(F)c([H])c8F)c([H])c7[H])c(C(=O)N([H])[H])c6N([H])[H])C5([H])[H])C([H])([N+]([H])([H])[H])C4([H])[H])c3C([H])([H])[H])c([H])c([H])c2C1([H])[H]

>  <smiles>  (70) 
[H]c1c([H])c([H])c2c(c1[H])C([H])([H])C([H])([H])C([H])([H])C2([H])N([H])C(=O)C1([H])N(C(=O)C([H])(N([H])C(=O)C([H])(N([H])C([H])([H])[H])C([H])([H])[H])C(C([H])([H])[H])(C([H])([H])[H])C([H])([H])[H])C([H])([H])c2c([H])c(OC([H])([H])c3c(C([H])([H])[H])nc(C([H])([H])[H])c(N4C([H])([H])C([H])(N([H])C(=O)N5C([H])([H])C([H])([H])C([H])([H])C([H])(n6nc(-c7c([H])c([H])c(Oc8c([H])c([H])c(F)c([H])c8F)c([H])c7[H])c(C(=O)N([H])[H])c6N([H])[H])C5([H])[H])C([H])([N+]([H])([H])[H])C4([H])[H])c3C([H])([H])[H])c([H])c([H])c2C1([H])[H]

$$$$
70:0:0
     RDKit          3D

 98102  0  0  1  0  0  0  0  0999 V2000
  -28.1530  -22.1620   21.0480 C   0  0  0  0  0  3  0  0  0  0  0  0
  -27.9160  -20.7550   20.8820 C   0  0  0  0  0  3  0  0  0  0  0  0
  -27.3860  -22.5770   18.8430 C   0  0  0  0  0  3  0  0  0  0  0  0
  -27.8760  -23.1570   20.0590 C   0  0  0  0  0  0  0  0  0  0  0  0
  -27.3590  -20.1770   19.7040 C   0  0  0  0  0  0  0  0  0  0  0  0
  -27.1370  -21.1530   18.6690 C   0  0  0  0  0  0  0  0  0  0  0  0
  -26.5350  -20.7000   17.3510 C   0  0  0  0  0  1  0  0  0  0  0  0
  -26.7810  -18.6560   19.7310 C   0  0  0  0  0  2  0  0  0  0  0  0
  -27.5090  -17.3690   19.2350 N   0  0  0  0  0  4  0  0  0  0  0  0
  -27.5040  -17.4060   18.2300 H   0  0  0  0  0  0  0  0  0  0  0  0
  -28.4680  -17.4490   19.5250 H   0  0  0  0  0  0  0  0  0  0  0  0
  -27.0460  -13.3130   22.3750 C   0  0  0  0  0 15  0  0  0  0  0  0
  -24.9340  -15.8370   20.5840 C   0  0  0  0  0 15  0  0  0  0  0  0
  -28.3920  -14.4210   20.7490 C   0  0  0  0  0  1  0  0  0  0  0  0
  -27.0530  -15.9290   19.6470 C   0  0  0  0  0  2  0  0  0  0  0  0
  -24.9530  -14.2280   22.3460 C   0  0  0  0  0  2  0  0  0  0  0  0
  -23.9420  -13.0990   22.7240 C   0  0  0  0  0  1  0  0  0  0  0  0
  -24.7150  -15.0970   23.6420 C   0  0  0  0  0  1  0  0  0  0  0  0
  -30.8740  -13.4100   20.8050 C   0  0  0  0  0  0  0  0  0  0  0  0
  -31.0600  -11.4090   19.2950 C   0  0  0  0  0  2  0  0  0  0  0  0
  -30.2930  -11.6400   17.9580 C   0  0  0  0  0  2  0  0  0  0  0  0
  -28.7290  -11.5060   18.0910 C   0  0  0  0  0  2  0  0  0  0  0  0
  -28.2810  -12.2830   19.3250 C   0  0  0  0  0  3  0  0  0  0  0  0
  -29.0910  -11.7350   20.5400 C   0  0  0  0  0  2  0  0  0  0  0  0
  -30.4250  -12.2150   20.3420 N   0  0  0  0  0  0  0  0  0  0  0  0
  -32.1000  -13.6090   20.8630 O   0  0  0  0  0  0  0  0  0  0  0  0
  -29.9060  -14.4000   21.0250 N   0  0  0  0  0  0  0  0  0  0  0  0
  -30.2830  -15.2700   21.3660 H   0  0  0  0  0  0  0  0  0  0  0  0
  -26.0620  -13.9370   19.9010 C   0  0  0  0  0  2  0  0  0  0  0  0
  -24.8210  -13.0820   19.8290 C   0  0  0  0  0  3  0  0  0  0  0  0
  -25.0710  -11.6710   20.1080 C   0  0  0  0  0  3  0  0  0  0  0  0
  -26.8610  -12.6580   19.6170 N   0  0  0  0  0  0  0  0  0  0  0  0
  -26.3210  -11.4730   19.9750 N   0  0  0  0  0  2  0  0  0  0  0  0
  -24.2290  -10.4510   20.4420 C   0  0  0  0  0  0  0  0  0  0  0  0
  -24.5990   -9.5250   21.4600 C   0  0  0  0  0  3  0  0  0  0  0  0
  -23.7950   -8.3970   21.7830 C   0  0  0  0  0  3  0  0  0  0  0  0
  -22.5840   -8.1630   21.0890 C   0  0  0  0  0  0  0  0  0  0  0  0
  -22.2270   -9.0570   20.0640 C   0  0  0  0  0  3  0  0  0  0  0  0
  -23.0340  -10.1700   19.7410 C   0  0  0  0  0  3  0  0  0  0  0  0
  -21.7450   -7.0860   21.2990 O   0  0  0  0  0  0  0  0  0  0  0  0
  -21.6980   -6.3990   22.4920 C   0  0  0  0  0  0  0  0  0  0  0  0
  -21.4020   -7.0430   23.7120 C   0  0  0  0  0  3  0  0  0  0  0  0
  -21.2930   -6.2930   24.9000 C   0  0  0  0  0  3  0  0  0  0  0  0
  -21.4730   -4.8960   24.8740 C   0  0  0  0  0  0  0  0  0  0  0  0
  -21.7560   -4.2490   23.6570 C   0  0  0  0  0  3  0  0  0  0  0  0
  -21.8610   -4.9970   22.4710 C   0  0  0  0  0  0  0  0  0  0  0  0
  -22.1090   -4.3600   21.3010 F   0  0  0  0  0  0  0  0  0  0  0  0
  -21.3700   -4.1750   26.0160 F   0  0  0  0  0  0  0  0  0  0  0  0
  -23.3160  -13.3980   19.7090 C   0  0  0  0  0  0  0  0  0  0  0  0
  -22.4510  -12.9680   20.6320 N   0  0  0  0  0  0  0  0  0  0  0  0
  -22.8530  -13.9710   18.7350 O   0  0  0  0  0  0  0  0  0  0  0  0
  -22.7680  -12.4710   21.4480 H   0  0  0  0  0  0  0  0  0  0  0  0
  -21.4650  -13.1590   20.5280 H   0  0  0  0  0  0  0  0  0  0  0  0
  -26.6610  -15.9500   20.7700 N   0  0  0  0  0  0  0  0  0  0  0  0
  -25.9040  -16.2970   21.3500 H   0  0  0  0  0  0  0  0  0  0  0  0
  -27.5100  -15.8970   21.3210 H   0  0  0  0  0  0  0  0  0  0  0  0
  -27.8580  -24.7190   20.5080 C   0  0  0  0  0  2  0  0  0  0  0  0
  -28.2840  -25.9720   19.7600 O   0  0  0  0  0  0  0  0  0  0  0  0
  -24.7650  -31.5200   22.9440 C   0  0  0  0  0  0  0  0  0  0  0  0
  -27.3240  -26.9960   19.7390 C   0  0  0  0  0  0  0  0  0  0  0  0
  -23.5840  -30.1740   21.2550 C   0  0  0  0  0  3  0  0  0  0  0  0
  -25.0380  -28.6930   19.7660 C   0  0  0  0  0  0  0  0  0  0  0  0
  -26.1330  -30.4840   21.1060 C   0  0  0  0  0  2  0  0  0  0  0  0
  -26.2120  -29.1280   20.3990 C   0  0  0  0  0  0  0  0  0  0  0  0
  -27.3760  -28.2870   20.3780 C   0  0  0  0  0  3  0  0  0  0  0  0
  -26.1480  -26.6550   19.0640 C   0  0  0  0  0  3  0  0  0  0  0  0
  -25.0120  -27.4710   19.0840 C   0  0  0  0  0  3  0  0  0  0  0  0
  -23.8090  -29.5730   19.8460 C   0  0  0  0  0  2  0  0  0  0  0  0
  -24.8470  -30.7430   21.8230 N   0  0  0  0  0  0  0  0  0  0  0  0
  -23.6740  -31.7710   23.4770 O   0  0  0  0  0  0  0  0  0  0  0  0
  -22.9270  -29.1090   22.1680 C   0  0  0  0  0  0  0  0  0  0  0  0
  -21.5950  -28.9660   22.0720 N   0  0  0  0  0  0  0  0  0  0  0  0
  -23.6140  -28.4240   22.9300 O   0  0  0  0  0  0  0  0  0  0  0  0
  -21.0990  -29.5720   21.4330 H   0  0  0  0  0  0  0  0  0  0  0  0
  -18.1990  -27.8600   22.6640 C   0  0  0  0  0  0  0  0  0  0  0  0
  -20.7770  -28.0030   22.8120 C   0  0  0  0  0  3  0  0  0  0  0  0
  -20.7900  -26.6170   22.1280 C   0  0  0  0  0  2  0  0  0  0  0  0
  -19.6230  -26.4140   21.1560 C   0  0  0  0  0  2  0  0  0  0  0  0
  -18.2840  -26.5610   21.8820 C   0  0  0  0  0  2  0  0  0  0  0  0
  -19.3690  -28.5450   23.0880 C   0  0  0  0  0  0  0  0  0  0  0  0
  -19.2310  -29.7670   23.7830 C   0  0  0  0  0  3  0  0  0  0  0  0
  -17.9580  -30.2990   24.0580 C   0  0  0  0  0  3  0  0  0  0  0  0
  -16.8030  -29.6100   23.6480 C   0  0  0  0  0  3  0  0  0  0  0  0
  -16.9260  -28.3920   22.9570 C   0  0  0  0  0  3  0  0  0  0  0  0
  -26.0340  -32.1480   23.5940 C   0  0  0  0  0  3  0  0  0  0  0  0
  -26.5960  -31.2980   24.7990 C   0  0  1  0  0  0  0  0  0  0  0  0
  -25.5280  -30.9340   25.8580 C   0  0  0  0  0  1  0  0  0  0  0  0
  -27.2260  -29.9790   24.2940 C   0  0  0  0  0  1  0  0  0  0  0  0
  -27.7270  -32.0810   25.5090 C   0  0  0  0  0  1  0  0  0  0  0  0
  -25.6780  -33.5030   24.0430 N   0  0  0  0  0  0  0  0  0  0  0  0
  -25.9900  -34.6290   23.3890 C   0  0  0  0  0  0  0  0  0  0  0  0
  -26.6760  -34.6390   22.3630 O   0  0  0  0  0  0  0  0  0  0  0  0
  -25.0710  -33.5670   24.8460 H   0  0  0  0  0  0  0  0  0  0  0  0
  -24.2350  -36.4180   23.1560 C   0  0  0  0  0  1  0  0  0  0  0  0
  -25.4580  -35.9570   23.9640 C   0  0  0  0  0  3  0  0  0  0  0  0
  -27.5420  -36.8000   24.9540 C   0  0  0  0  0  1  0  0  0  0  0  0
  -26.4700  -37.0360   23.9900 N   0  0  0  0  0  0  0  0  0  0  0  0
  -26.0390  -37.9300   24.2080 H   0  0  0  0  0  0  0  0  0  0  0  0
  2  1  1  0
  3  4  1  0
  4 57  1  0
  4  1  2  0
  5  8  1  0
  5  2  2  0
  6  3  2  0
  6  5  1  0
  7  6  1  0
  9 11  1  0
  9 15  1  0
  9  8  1  0
 10  9  1  0
 14 27  1  0
 15 54  1  0
 16 17  1  0
 16 18  1  0
 19 26  2  0
 19 27  1  0
 20 25  1  0
 21 22  1  0
 21 20  1  0
 23 22  1  0
 23 32  1  0
 23 24  1  0
 25 24  1  0
 25 19  1  0
 27 28  1  0
 30 49  1  0
 30 29  1  0
 30 31  1  0
 31 34  1  0
 32 29  1  0
 32 33  1  0
 33 31  1  0
 34 35  1  0
 35 36  2  0
 37 40  1  0
 37 36  1  0
 38 37  2  0
 39 38  1  0
 39 34  2  0
 40 41  1  0
 41 42  1  0
 42 43  2  0
 44 43  1  0
 44 48  1  0
 45 44  2  0
 46 41  2  0
 46 45  1  0
 47 46  1  0
 49 50  1  0
 50 52  1  0
 51 49  2  0
 53 50  1  0
 54 56  1  0
 54 55  1  0
 58 57  1  0
 59 70  2  0
 60 58  1  0
 60 65  1  0
 61 69  1  0
 61 71  1  0
 62 68  1  0
 62 64  1  0
 63 69  1  0
 64 63  1  0
 65 64  2  0
 66 67  1  0
 66 60  2  0
 67 62  2  0
 68 61  1  0
 69 59  1  0
 71 73  2  0
 72 71  1  0
 74 72  1  0
 75 84  2  0
 75 80  1  0
 76 72  1  0
 76 80  1  0
 77 76  1  0
 78 79  1  0
 78 77  1  0
 79 75  1  0
 80 81  2  0
 81 82  1  0
 83 82  2  0
 84 83  1  0
 85 59  1  0
 85 90  1  0
 85 86  1  0
 86 89  1  1
 86 87  1  0
 88 86  1  0
 90 93  1  0
 91 95  1  0
 91 90  1  0
 92 91  2  0
 95 94  1  0
 95 97  1  0
 97 98  1  0
 97 96  1  0
M  ISO  4  19 100  27 100  57 101  58 101
M  END
>  <TORSDO>  (71) 
F 20

>  <SCORE>  (71) 
-6.339

>  <name>  (71) 
70

>  <ligand_id>  (71) 
70

>  <original_smiles>  (71) 
[H]c1c([H])c([H])c2c(c1[H])C([H])([H])C([H])([H])C([H])([H])C2([H])N([H])C(=O)C1([H])N(C(=O)C([H])(N([H])C(=O)C([H])(N([H])C([H])([H])[H])C([H])([H])[H])C(C([H])([H])[H])(C([H])([H])[H])C([H])([H])[H])C([H])([H])c2c([H])c(OC([H])([H])c3c([H])c([H])c(C([H])([H])[N+]([H])([H])C4([H])C([H])([H])C(C([H])([H])[H])(C([H])([H])[H])C([H])([H])C4([H])N([H])C(=O)N4C([H])([H])C([H])([H])C([H])([H])C([H])(n5nc(-c6c([H])c([H])c(Oc7c([H])c([H])c(F)c([H])c7F)c([H])c6[H])c(C(=O)N([H])[H])c5N([H])[H])C4([H])[H])c(C([H])([H])[H])c3[H])c([H])c([H])c2C1([H])[H]

>  <smiles>  (71) 
[H]c1c([H])c([H])c2c(c1[H])C([H])([H])C([H])([H])C([H])([H])C2([H])N([H])C(=O)C1([H])N(C(=O)C([H])(N([H])C(=O)C([H])(N([H])C([H])([H])[H])C([H])([H])[H])C(C([H])([H])[H])(C([H])([H])[H])C([H])([H])[H])C([H])([H])c2c([H])c(OC([H])([H])c3c([H])c([H])c(C([H])([H])[N+]([H])([H])C4([H])C([H])([H])C(C([H])([H])[H])(C([H])([H])[H])C([H])([H])C4([H])N([H])C(=O)N4C([H])([H])C([H])([H])C([H])([H])C([H])(n5nc(-c6c([H])c([H])c(Oc7c([H])c([H])c(F)c([H])c7F)c([H])c6[H])c(C(=O)N([H])[H])c5N([H])[H])C4([H])[H])c(C([H])([H])[H])c3[H])c([H])c([H])c2C1([H])[H]

$$$$
71:0:0
     RDKit          3D

 92101  0  0  1  0  0  0  0  0999 V2000
  -28.5140  -21.1090   21.1240 C   0  0  0  0  0  3  0  0  0  0  0  0
  -29.2520  -20.3310   20.1760 C   0  0  0  0  0  0  0  0  0  0  0  0
  -28.2230  -22.5240   21.0110 C   0  0  0  0  0  0  0  0  0  0  0  0
  -28.6790  -23.3480   19.9180 C   0  0  0  0  0  0  0  0  0  0  0  0
  -29.4990  -22.5930   19.0000 C   0  0  0  0  0  0  0  0  0  0  0  0
  -29.7610  -21.1590   19.1200 C   0  0  0  0  0  0  0  0  0  0  0  0
  -27.2990  -23.1140   22.0740 C   0  0  0  0  0  1  0  0  0  0  0  0
  -30.0420  -23.3010   17.7650 C   0  0  0  0  0  1  0  0  0  0  0  0
  -30.6610  -20.3820   17.8680 Cl  0  0  0  0  0  0  0  0  0  0  0  0
  -30.8110  -15.0050   19.8550 C   0  0  0  0  0  0  0  0  0  0  0  0
  -30.6130  -12.6770   18.8810 C   0  0  0  0  0  2  0  0  0  0  0  0
  -29.6010  -12.6870   17.7090 C   0  0  0  0  0  2  0  0  0  0  0  0
  -28.1620  -12.4830   18.2300 C   0  0  0  0  0  2  0  0  0  0  0  0
  -27.8470  -13.3730   19.4650 C   0  0  0  0  0  3  0  0  0  0  0  0
  -28.9800  -13.3060   20.5090 C   0  0  0  0  0  2  0  0  0  0  0  0
  -30.2070  -13.7490   19.8350 N   0  0  0  0  0  0  0  0  0  0  0  0
  -31.9400  -15.0930   19.3570 O   0  0  0  0  0  0  0  0  0  0  0  0
  -29.3100  -18.0100   21.6310 C   0  0  0  0  0  2  0  0  0  0  0  0
  -29.3430  -16.4650   21.3810 C   0  0  0  0  0  2  0  0  0  0  0  0
  -30.2400  -17.6090   19.5350 C   0  0  0  0  0  2  0  0  0  0  0  0
  -29.2620  -18.6830   20.2490 C   0  0  0  0  0  3  0  0  0  0  0  0
  -30.0670  -16.1920   20.1250 N   0  0  0  0  0  0  0  0  0  0  0  0
  -25.5450  -13.9440   20.4340 C   0  0  0  0  0  0  0  0  0  0  0  0
  -24.4990  -13.1680   20.8470 C   0  0  0  0  0  0  0  0  0  0  0  0
  -24.9300  -11.8130   20.7020 C   0  0  0  0  0  0  0  0  0  0  0  0
  -26.5460  -13.0680   20.0510 N   0  0  0  0  0  0  0  0  0  0  0  0
  -26.1890  -11.7750   20.2730 N   0  0  0  0  0  0  0  0  0  0  0  0
  -24.1970  -10.5540   20.8890 C   0  0  0  0  0  0  0  0  0  0  0  0
  -24.6140   -9.5870   21.8310 C   0  0  0  0  0  3  0  0  0  0  0  0
  -23.8760   -8.3980   22.0090 C   0  0  0  0  0  3  0  0  0  0  0  0
  -22.7100   -8.1620   21.2430 C   0  0  0  0  0  0  0  0  0  0  0  0
  -22.3080   -9.1190   20.2960 C   0  0  0  0  0  3  0  0  0  0  0  0
  -23.0450  -10.3020   20.1170 C   0  0  0  0  0  3  0  0  0  0  0  0
  -21.9490   -7.0230   21.3240 O   0  0  0  0  0  0  0  0  0  0  0  0
  -21.7700   -6.3610   22.5110 C   0  0  0  0  0  0  0  0  0  0  0  0
  -21.1880   -6.9890   23.6340 C   0  0  0  0  0  3  0  0  0  0  0  0
  -20.9580   -6.2510   24.8130 C   0  0  0  0  0  3  0  0  0  0  0  0
  -21.3030   -4.8870   24.8690 C   0  0  0  0  0  0  0  0  0  0  0  0
  -21.8830   -4.2610   23.7510 C   0  0  0  0  0  3  0  0  0  0  0  0
  -22.1120   -4.9960   22.5750 C   0  0  0  0  0  0  0  0  0  0  0  0
  -22.6500   -4.3820   21.4930 F   0  0  0  0  0  0  0  0  0  0  0  0
  -21.0760   -4.1750   25.9970 F   0  0  0  0  0  0  0  0  0  0  0  0
  -23.1430  -13.6580   21.2630 C   0  0  0  0  0  0  0  0  0  0  0  0
  -22.4840  -12.9530   22.1740 N   0  0  0  0  0  0  0  0  0  0  0  0
  -22.6830  -14.7100   20.8200 O   0  0  0  0  0  0  0  0  0  0  0  0
  -22.8710  -12.1100   22.5690 H   0  0  0  0  0  0  0  0  0  0  0  0
  -21.5820  -13.2770   22.4920 H   0  0  0  0  0  0  0  0  0  0  0  0
  -25.7180  -15.3200   20.3320 N   0  0  0  0  0  0  0  0  0  0  0  0
  -24.9660  -15.9630   20.5540 H   0  0  0  0  0  0  0  0  0  0  0  0
  -26.5480  -15.7790   19.9770 H   0  0  0  0  0  0  0  0  0  0  0  0
  -27.9820  -24.7920   19.5500 C   0  0  0  0  0  2  0  0  0  0  0  0
  -28.3960  -26.2550   19.8240 O   0  0  0  0  0  0  0  0  0  0  0  0
  -24.7280  -31.7070   23.0770 C   0  0  0  0  0  0  0  0  0  0  0  0
  -27.3530  -27.2490   19.7680 C   0  0  0  0  0  0  0  0  0  0  0  0
  -23.5310  -30.3730   21.3870 C   0  0  0  0  0  3  0  0  0  0  0  0
  -24.9910  -28.9310   19.8470 C   0  0  0  0  0  0  0  0  0  0  0  0
  -26.0750  -30.7130   21.1950 C   0  0  0  0  0  2  0  0  0  0  0  0
  -26.1670  -29.3660   20.4700 C   0  0  0  0  0  0  0  0  0  0  0  0
  -27.3490  -28.5400   20.4230 C   0  0  0  0  0  3  0  0  0  0  0  0
  -26.1560  -26.9340   19.0790 C   0  0  0  0  0  3  0  0  0  0  0  0
  -24.9980  -27.7270   19.1330 C   0  0  0  0  0  3  0  0  0  0  0  0
  -23.7430  -29.7870   19.9670 C   0  0  0  0  0  2  0  0  0  0  0  0
  -24.7980  -30.9530   21.9390 N   0  0  0  0  0  0  0  0  0  0  0  0
  -23.6480  -31.9310   23.6430 O   0  0  0  0  0  0  0  0  0  0  0  0
  -22.9030  -29.2890   22.3030 C   0  0  0  0  0  0  0  0  0  0  0  0
  -21.5760  -29.0930   22.2030 N   0  0  0  0  0  0  0  0  0  0  0  0
  -23.6110  -28.6340   23.0730 O   0  0  0  0  0  0  0  0  0  0  0  0
  -21.0600  -29.6760   21.5600 H   0  0  0  0  0  0  0  0  0  0  0  0
  -18.2300  -27.8200   22.7620 C   0  0  0  0  0  0  0  0  0  0  0  0
  -20.7960  -28.0970   22.9430 C   0  0  0  0  0  3  0  0  0  0  0  0
  -20.8890  -26.7060   22.2770 C   0  0  0  0  0  2  0  0  0  0  0  0
  -19.7480  -26.4350   21.2890 C   0  0  0  0  0  2  0  0  0  0  0  0
  -18.3920  -26.5190   21.9950 C   0  0  0  0  0  2  0  0  0  0  0  0
  -19.3590  -28.5670   23.1960 C   0  0  0  0  0  0  0  0  0  0  0  0
  -19.1480  -29.7840   23.8790 C   0  0  0  0  0  3  0  0  0  0  0  0
  -17.8450  -30.2560   24.1290 C   0  0  0  0  0  3  0  0  0  0  0  0
  -16.7330  -29.5040   23.7100 C   0  0  0  0  0  3  0  0  0  0  0  0
  -16.9270  -28.2890   23.0310 C   0  0  0  0  0  3  0  0  0  0  0  0
  -26.0040  -32.3430   23.7090 C   0  0  0  0  0  3  0  0  0  0  0  0
  -25.6690  -33.7230   24.0970 N   0  0  0  0  0  0  0  0  0  0  0  0
  -25.9430  -34.8100   23.3650 C   0  0  0  0  0  0  0  0  0  0  0  0
  -26.5760  -34.7570   22.3080 O   0  0  0  0  0  0  0  0  0  0  0  0
  -25.1090  -33.8340   24.9280 H   0  0  0  0  0  0  0  0  0  0  0  0
  -24.1560  -36.5710   23.1400 C   0  0  0  0  0  1  0  0  0  0  0  0
  -25.4380  -36.1700   23.8870 C   0  0  0  0  0  3  0  0  0  0  0  0
  -27.5760  -37.0960   24.6660 C   0  0  0  0  0  1  0  0  0  0  0  0
  -26.4350  -37.2550   23.7690 N   0  0  0  0  0  0  0  0  0  0  0  0
  -26.0090  -38.1580   23.9570 H   0  0  0  0  0  0  0  0  0  0  0  0
  -26.5480  -31.5380   24.9550 C   0  0  1  0  0  0  0  0  0  0  0  0
  -25.4810  -31.2350   26.0330 C   0  0  0  0  0  1  0  0  0  0  0  0
  -27.1610  -30.1870   24.5150 C   0  0  0  0  0  1  0  0  0  0  0  0
  -27.6770  -32.3420   25.6410 C   0  0  0  0  0  1  0  0  0  0  0  0
  2  1  2  0
  3  1  1  0
  3  7  1  0
  4  3  2  0
  5  6  2  0
  5  4  1  0
  6  2  1  0
  8  5  1  0
  9  6  1  0
 10 22  1  0
 11 16  1  0
 12 13  1  0
 12 11  1  0
 14 13  1  0
 14 26  1  0
 14 15  1  0
 16 10  1  0
 16 15  1  0
 17 10  2  0
 19 18  1  0
 20 22  1  0
 20 21  1  0
 21  2  1  0
 21 18  1  0
 22 19  1  0
 23 24  2  0
 24 43  1  0
 25 24  1  0
 25 28  1  0
 26 27  1  0
 26 23  1  0
 27 25  2  0
 28 29  1  0
 29 30  2  0
 31 34  1  0
 31 30  1  0
 32 31  2  0
 33 32  1  0
 33 28  2  0
 34 35  1  0
 35 40  2  0
 35 36  1  0
 36 37  2  0
 37 38  1  0
 38 42  1  0
 39 38  2  0
 40 39  1  0
 41 40  1  0
 43 44  1  0
 44 47  1  0
 44 46  1  0
 45 43  2  0
 48 23  1  0
 48 49  1  0
 50 48  1  0
 51 52  1  0
 51  4  1  0
 53 64  2  0
 54 52  1  0
 54 59  1  0
 55 63  1  0
 55 65  1  0
 56 62  1  0
 56 58  1  0
 57 63  1  0
 58 57  1  0
 59 58  2  0
 60 61  1  0
 60 54  2  0
 61 56  2  0
 62 55  1  0
 63 53  1  0
 65 67  2  0
 66 65  1  0
 68 66  1  0
 69 78  2  0
 69 74  1  0
 70 66  1  0
 70 74  1  0
 71 70  1  0
 72 73  1  0
 72 71  1  0
 73 69  1  0
 74 75  2  0
 75 76  1  0
 77 76  2  0
 78 77  1  0
 79 53  1  0
 79 80  1  0
 79 89  1  0
 80 83  1  0
 81 85  1  0
 81 80  1  0
 82 81  2  0
 85 84  1  0
 87 85  1  0
 87 88  1  0
 87 86  1  0
 89 92  1  1
 89 90  1  0
 91 89  1  0
M  ISO  4  10 100  22 100  51 101  52 101
M  END
>  <TORSDO>  (72) 
F 17

>  <SCORE>  (72) 
-13.520

>  <name>  (72) 
71

>  <ligand_id>  (72) 
71

>  <original_smiles>  (72) 
[H]c1c([H])c([H])c2c(c1[H])C([H])([H])C([H])([H])C([H])([H])C2([H])N([H])C(=O)C1([H])N(C(=O)C([H])(N([H])C(=O)C([H])(N([H])C([H])([H])[H])C([H])([H])[H])C(C([H])([H])[H])(C([H])([H])[H])C([H])([H])[H])C([H])([H])c2c([H])c(OC([H])([H])c3c(C([H])([H])[H])c([H])c(C4([H])C([H])([H])N(C(=O)N5C([H])([H])C([H])([H])C([H])([H])C([H])(n6nc(-c7c([H])c([H])c(Oc8c([H])c([H])c(F)c([H])c8F)c([H])c7[H])c(C(=O)N([H])[H])c6N([H])[H])C5([H])[H])C([H])([H])C4([H])[H])c(Cl)c3C([H])([H])[H])c([H])c([H])c2C1([H])[H]

>  <smiles>  (72) 
[H]c1c([H])c([H])c2c(c1[H])C([H])([H])C([H])([H])C([H])([H])C2([H])N([H])C(=O)C1([H])N(C(=O)C([H])(N([H])C(=O)C([H])(N([H])C([H])([H])[H])C([H])([H])[H])C(C([H])([H])[H])(C([H])([H])[H])C([H])([H])[H])C([H])([H])c2c([H])c(OC([H])([H])c3c(C([H])([H])[H])c([H])c(C4([H])C([H])([H])N(C(=O)N5C([H])([H])C([H])([H])C([H])([H])C([H])(n6nc(-c7c([H])c([H])c(Oc8c([H])c([H])c(F)c([H])c8F)c([H])c7[H])c(C(=O)N([H])[H])c6N([H])[H])C5([H])[H])C([H])([H])C4([H])[H])c(Cl)c3C([H])([H])[H])c([H])c([H])c2C1([H])[H]

$$$$
72:0:0
     RDKit          3D

101111  0  0  1  0  0  0  0  0999 V2000
  -27.9960  -23.2490   20.8260 C   0  0  0  0  0  0  0  0  0  0  0  0
  -28.8510  -24.3650   20.7240 C   0  0  0  0  0  0  0  0  0  0  0  0
  -28.4790  -21.9260   20.6290 C   0  0  0  0  0  0  0  0  0  0  0  0
  -30.2360  -24.1740   20.4780 C   0  0  0  0  0  0  0  0  0  0  0  0
  -30.7400  -22.8490   20.3190 C   0  0  0  0  0  0  0  0  0  0  0  0
  -29.8570  -21.7240   20.3380 C   0  0  0  0  0  0  0  0  0  0  0  0
  -26.6590  -25.1940   21.1900 C   0  0  0  0  0  2  0  0  0  0  0  0
  -26.5660  -23.6530   21.1840 C   0  0  2  0  0  0  0  0  0  0  0  0
  -28.1350  -25.6900   21.0640 C   0  0  1  0  0  0  0  0  0  0  0  0
  -27.5590  -20.7110   20.7280 C   0  0  0  0  0  1  0  0  0  0  0  0
  -31.1880  -25.3610   20.3960 C   0  0  0  0  0  1  0  0  0  0  0  0
  -32.2470  -22.6490   20.1280 C   0  0  0  0  0  1  0  0  0  0  0  0
  -26.1650  -23.1950   22.6010 C   0  0  0  0  0  1  0  0  0  0  0  0
  -25.4980  -23.2250   20.1180 C   0  0  0  0  0  1  0  0  0  0  0  0
  -28.6110  -26.1760   22.4530 C   0  0  0  0  0  1  0  0  0  0  0  0
  -28.3290  -26.7890   20.0940 O   0  0  0  0  0  0  0  0  0  0  0  0
  -24.5100  -31.9550   23.1830 C   0  0  0  0  0  0  0  0  0  0  0  0
  -27.2740  -27.6840   19.9720 C   0  0  0  0  0  0  0  0  0  0  0  0
  -23.3630  -30.6160   21.4520 C   0  0  0  0  0  3  0  0  0  0  0  0
  -24.8830  -29.1910   19.9700 C   0  0  0  0  0  0  0  0  0  0  0  0
  -25.8920  -31.0050   21.3450 C   0  0  0  0  0  2  0  0  0  0  0  0
  -26.0100  -29.6680   20.6500 C   0  0  0  0  0  0  0  0  0  0  0  0
  -27.2070  -28.9090   20.6790 C   0  0  0  0  0  3  0  0  0  0  0  0
  -26.1850  -27.3270   19.1490 C   0  0  0  0  0  3  0  0  0  0  0  0
  -24.9630  -28.0170   19.2130 C   0  0  0  0  0  3  0  0  0  0  0  0
  -23.6190  -30.0210   20.0410 C   0  0  0  0  0  2  0  0  0  0  0  0
  -24.6020  -31.2070   22.0490 N   0  0  0  0  0  0  0  0  0  0  0  0
  -23.4130  -32.1850   23.7100 O   0  0  0  0  0  0  0  0  0  0  0  0
  -22.7120  -29.5340   22.3490 C   0  0  0  0  0  0  0  0  0  0  0  0
  -21.3880  -29.3590   22.2150 N   0  0  0  0  0  0  0  0  0  0  0  0
  -23.3960  -28.8600   23.1220 O   0  0  0  0  0  0  0  0  0  0  0  0
  -20.8970  -29.9580   21.5670 H   0  0  0  0  0  0  0  0  0  0  0  0
  -17.9920  -28.2340   22.7420 C   0  0  0  0  0  0  0  0  0  0  0  0
  -20.5670  -28.3860   22.9360 C   0  0  0  0  0  3  0  0  0  0  0  0
  -20.5980  -27.0080   22.2370 C   0  0  0  0  0  2  0  0  0  0  0  0
  -19.4490  -26.8100   21.2430 C   0  0  0  0  0  2  0  0  0  0  0  0
  -18.0970  -26.9440   21.9460 C   0  0  0  0  0  2  0  0  0  0  0  0
  -19.1530  -28.9200   23.1930 C   0  0  0  0  0  0  0  0  0  0  0  0
  -19.0000  -30.1340   23.8990 C   0  0  0  0  0  3  0  0  0  0  0  0
  -17.7210  -30.6600   24.1590 C   0  0  0  0  0  3  0  0  0  0  0  0
  -16.5760  -29.9690   23.7260 C   0  0  0  0  0  3  0  0  0  0  0  0
  -16.7120  -28.7580   23.0210 C   0  0  0  0  0  3  0  0  0  0  0  0
  -25.7710  -32.5820   23.8540 C   0  0  0  0  0  3  0  0  0  0  0  0
  -25.4500  -33.9770   24.1830 N   0  0  0  0  0  0  0  0  0  0  0  0
  -25.7840  -35.0330   23.4300 C   0  0  0  0  0  0  0  0  0  0  0  0
  -26.4730  -34.9400   22.4100 O   0  0  0  0  0  0  0  0  0  0  0  0
  -24.8510  -34.1250   24.9810 H   0  0  0  0  0  0  0  0  0  0  0  0
  -24.0390  -36.8100   23.0700 C   0  0  0  0  0  1  0  0  0  0  0  0
  -25.2790  -36.4160   23.8850 C   0  0  0  0  0  3  0  0  0  0  0  0
  -27.3960  -37.3300   24.7350 C   0  0  0  0  0  1  0  0  0  0  0  0
  -26.2990  -37.4820   23.7820 N   0  0  0  0  0  0  0  0  0  0  0  0
  -25.8790  -38.3970   23.9240 H   0  0  0  0  0  0  0  0  0  0  0  0
  -26.2460  -31.8010   25.1410 C   0  0  1  0  0  0  0  0  0  0  0  0
  -25.1150  -31.5480   26.1650 C   0  0  0  0  0  1  0  0  0  0  0  0
  -26.8530  -30.4300   24.7570 C   0  0  0  0  0  1  0  0  0  0  0  0
  -27.3610  -32.5980   25.8580 C   0  0  0  0  0  1  0  0  0  0  0  0
  -30.3520  -20.3060   19.9540 C   0  0  0  0  0  2  0  0  0  0  0  0
  -31.8630  -17.4210   21.5500 C   0  0  0  0  0  2  0  0  0  0  0  0
  -31.7780  -18.9620   21.5570 C   0  0  0  0  0  2  0  0  0  0  0  0
  -29.6910  -18.0570   20.8340 C   0  0  0  0  0  2  0  0  0  0  0  0
  -30.7770  -17.0200   20.5480 C   0  0  0  0  0  3  0  0  0  0  0  0
  -30.4150  -19.3340   21.0870 N   0  0  2  0  0  4  0  0  0  0  0  0
  -29.9460  -19.7970   21.8520 H   0  0  0  0  0  0  0  0  0  0  0  0
  -30.7980  -14.6440   19.8400 C   0  0  0  0  0  0  0  0  0  0  0  0
  -30.3520  -12.5040   18.6980 C   0  0  0  0  0  2  0  0  0  0  0  0
  -29.3190  -12.7050   17.5740 C   0  0  0  0  0  2  0  0  0  0  0  0
  -27.8930  -12.5530   18.1290 C   0  0  0  0  0  2  0  0  0  0  0  0
  -27.6540  -13.4130   19.3970 C   0  0  0  0  0  3  0  0  0  0  0  0
  -28.7940  -13.2130   20.4230 C   0  0  0  0  0  2  0  0  0  0  0  0
  -30.0790  -13.4920   19.7560 N   0  0  0  0  0  0  0  0  0  0  0  0
  -31.8180  -14.8460   19.1720 O   0  0  0  0  0  0  0  0  0  0  0  0
  -30.3070  -15.6220   20.6160 N   0  0  0  0  0  0  0  0  0  0  0  0
  -29.4930  -15.4080   21.1770 H   0  0  0  0  0  0  0  0  0  0  0  0
  -25.3400  -14.0160   20.3550 C   0  0  0  0  0  0  0  0  0  0  0  0
  -24.3010  -13.2350   20.7920 C   0  0  0  0  0  0  0  0  0  0  0  0
  -24.7380  -11.8840   20.6610 C   0  0  0  0  0  0  0  0  0  0  0  0
  -26.3470  -13.1320   19.9910 N   0  0  0  0  0  0  0  0  0  0  0  0
  -25.9950  -11.8460   20.2350 N   0  0  0  0  0  0  0  0  0  0  0  0
  -24.0190  -10.6220   20.8620 C   0  0  0  0  0  0  0  0  0  0  0  0
  -24.4580   -9.6720   21.8090 C   0  0  0  0  0  3  0  0  0  0  0  0
  -23.7460   -8.4690   22.0060 C   0  0  0  0  0  3  0  0  0  0  0  0
  -22.5770   -8.2090   21.2530 C   0  0  0  0  0  0  0  0  0  0  0  0
  -22.1540   -9.1460   20.2950 C   0  0  0  0  0  3  0  0  0  0  0  0
  -22.8680  -10.3390   20.0980 C   0  0  0  0  0  3  0  0  0  0  0  0
  -21.8360   -7.0550   21.3530 O   0  0  0  0  0  0  0  0  0  0  0  0
  -21.7050   -6.3840   22.5410 C   0  0  0  0  0  0  0  0  0  0  0  0
  -21.1600   -6.9970   23.6900 C   0  0  0  0  0  3  0  0  0  0  0  0
  -20.9810   -6.2490   24.8710 C   0  0  0  0  0  3  0  0  0  0  0  0
  -21.3340   -4.8870   24.9030 C   0  0  0  0  0  0  0  0  0  0  0  0
  -21.8700   -4.2720   23.7590 C   0  0  0  0  0  3  0  0  0  0  0  0
  -22.0520   -5.0170   22.5800 C   0  0  0  0  0  0  0  0  0  0  0  0
  -22.5490   -4.4140   21.4740 F   0  0  0  0  0  0  0  0  0  0  0  0
  -21.1540   -4.1650   26.0340 F   0  0  0  0  0  0  0  0  0  0  0  0
  -22.9390  -13.7110   21.2060 C   0  0  0  0  0  0  0  0  0  0  0  0
  -22.2830  -12.9790   22.1000 N   0  0  0  0  0  0  0  0  0  0  0  0
  -22.4680  -14.7600   20.7770 O   0  0  0  0  0  0  0  0  0  0  0  0
  -22.6800  -12.1290   22.4730 H   0  0  0  0  0  0  0  0  0  0  0  0
  -21.3690  -13.2730   22.4130 H   0  0  0  0  0  0  0  0  0  0  0  0
  -25.5070  -15.3890   20.2150 N   0  0  0  0  0  0  0  0  0  0  0  0
  -24.7640  -16.0460   20.4300 H   0  0  0  0  0  0  0  0  0  0  0  0
  -26.3190  -15.8310   19.8020 H   0  0  0  0  0  0  0  0  0  0  0  0
  1  8  1  0
  2  1  1  0
  2  9  1  0
  3 10  1  0
  3  1  2  0
  4  2  2  0
  5  6  2  0
  5  4  1  0
  6  3  1  0
  8  7  1  0
  8 13  1  1
  9  7  1  0
  9 15  1  1
 11  4  1  0
 12  5  1  0
 14  8  1  0
 16  9  1  0
 17 28  2  0
 18 16  1  0
 18 23  1  0
 19 27  1  0
 19 29  1  0
 20 26  1  0
 20 22  1  0
 21 27  1  0
 22 23  2  0
 22 21  1  0
 24 25  1  0
 24 18  2  0
 25 20  2  0
 26 19  1  0
 27 17  1  0
 29 31  2  0
 30 29  1  0
 32 30  1  0
 33 42  2  0
 33 38  1  0
 34 30  1  0
 34 38  1  0
 35 34  1  0
 36 37  1  0
 36 35  1  0
 37 33  1  0
 38 39  2  0
 39 40  1  0
 41 40  2  0
 42 41  1  0
 43 17  1  0
 43 44  1  0
 43 53  1  0
 44 47  1  0
 45 49  1  0
 45 44  1  0
 46 45  2  0
 49 48  1  0
 51 49  1  0
 51 52  1  0
 51 50  1  0
 53 56  1  1
 53 54  1  0
 55 53  1  0
 57  6  1  0
 57 62  1  0
 58 59  1  0
 60 62  1  0
 61 72  1  0
 61 60  1  0
 61 58  1  0
 62 59  1  0
 62 63  1  1
 64 72  1  0
 65 70  1  0
 66 67  1  0
 66 65  1  0
 68 67  1  0
 68 77  1  0
 68 69  1  0
 70 64  1  0
 70 69  1  0
 71 64  2  0
 72 73  1  0
 74 75  2  0
 75 94  1  0
 76 75  1  0
 76 79  1  0
 77 78  1  0
 77 74  1  0
 78 76  2  0
 79 80  1  0
 80 81  2  0
 82 85  1  0
 82 81  1  0
 83 82  2  0
 84 83  1  0
 84 79  2  0
 85 86  1  0
 86 91  2  0
 86 87  1  0
 87 88  2  0
 88 89  1  0
 89 93  1  0
 90 89  2  0
 91 90  1  0
 92 91  1  0
 94 95  1  0
 95 98  1  0
 95 97  1  0
 96 94  2  0
 99 74  1  0
 99100  1  0
101 99  1  0
M  ISO  4   9 101  16 101  64 100  72 100
M  END
>  <TORSDO>  (73) 
F 18

>  <SCORE>  (73) 
-13.139

>  <name>  (73) 
72

>  <ligand_id>  (73) 
72

>  <original_smiles>  (73) 
[H]c1c([H])c([H])c2c(c1[H])C([H])([H])C([H])([H])C([H])([H])C2([H])N([H])C(=O)C1([H])N(C(=O)C([H])(N([H])C(=O)C([H])(N([H])C([H])([H])[H])C([H])([H])[H])C(C([H])([H])[H])(C([H])([H])[H])C([H])([H])[H])C([H])([H])c2c([H])c(OC3(C([H])([H])[H])c4c(C([H])([H])[H])c(C([H])([H])[H])c(C([H])([H])[N+]5([H])C([H])([H])C([H])([H])C([H])(N([H])C(=O)N6C([H])([H])C([H])([H])C([H])([H])C([H])(n7nc(-c8c([H])c([H])c(Oc9c([H])c([H])c(F)c([H])c9F)c([H])c8[H])c(C(=O)N([H])[H])c7N([H])[H])C6([H])[H])C5([H])[H])c(C([H])([H])[H])c4C(C([H])([H])[H])(C([H])([H])[H])C3([H])[H])c([H])c([H])c2C1([H])[H]

>  <smiles>  (73) 
[H]c1c([H])c([H])c2c(c1[H])C([H])([H])C([H])([H])C([H])([H])C2([H])N([H])C(=O)C1([H])N(C(=O)C([H])(N([H])C(=O)C([H])(N([H])C([H])([H])[H])C([H])([H])[H])C(C([H])([H])[H])(C([H])([H])[H])C([H])([H])[H])C([H])([H])c2c([H])c(OC3(C([H])([H])[H])c4c(C([H])([H])[H])c(C([H])([H])[H])c(C([H])([H])[N+]5([H])C([H])([H])C([H])([H])C([H])(N([H])C(=O)N6C([H])([H])C([H])([H])C([H])([H])C([H])(n7nc(-c8c([H])c([H])c(Oc9c([H])c([H])c(F)c([H])c9F)c([H])c8[H])c(C(=O)N([H])[H])c7N([H])[H])C6([H])[H])C5([H])[H])c(C([H])([H])[H])c4C(C([H])([H])[H])(C([H])([H])[H])C3([H])[H])c([H])c([H])c2C1([H])[H]

$$$$
73:0:0
     RDKit          3D

 94103  0  0  1  0  0  0  0  0999 V2000
  -29.6400  -22.0170   21.6440 C   0  0  0  0  0  3  0  0  0  0  0  0
  -29.1960  -22.2400   19.2750 C   0  0  0  0  0  3  0  0  0  0  0  0
  -29.6940  -20.6030   21.5110 C   0  0  0  0  0  3  0  0  0  0  0  0
  -29.2520  -20.8310   19.1460 C   0  0  0  0  0  3  0  0  0  0  0  0
  -29.3940  -22.8620   20.5300 C   0  0  0  0  0  0  0  0  0  0  0  0
  -29.5030  -19.9870   20.2500 C   0  0  0  0  0  0  0  0  0  0  0  0
  -29.4270  -24.4070   20.6830 C   0  0  0  0  0  3  0  0  0  0  0  0
  -30.7360  -24.9050   20.2260 N   0  0  0  0  0  4  0  0  0  0  0  0
  -31.4780  -24.4700   20.7430 H   0  0  0  0  0  0  0  0  0  0  0  0
  -30.7920  -25.9000   20.3650 H   0  0  0  0  0  0  0  0  0  0  0  0
  -30.8730  -24.7150   19.2500 H   0  0  0  0  0  0  0  0  0  0  0  0
  -28.2680  -25.2070   20.0070 C   0  0  0  0  0  2  0  0  0  0  0  0
  -28.3710  -26.6440   20.2150 O   0  0  0  0  0  0  0  0  0  0  0  0
  -24.5680  -31.8860   23.2260 C   0  0  0  0  0  0  0  0  0  0  0  0
  -27.2080  -27.4040   20.1590 C   0  0  0  0  0  0  0  0  0  0  0  0
  -23.3620  -30.4830   21.5850 C   0  0  0  0  0  3  0  0  0  0  0  0
  -24.8160  -28.9440   20.1590 C   0  0  0  0  0  0  0  0  0  0  0  0
  -25.8910  -30.8340   21.3880 C   0  0  0  0  0  2  0  0  0  0  0  0
  -25.9780  -29.4590   20.7470 C   0  0  0  0  0  0  0  0  0  0  0  0
  -27.1750  -28.6990   20.7420 C   0  0  0  0  0  3  0  0  0  0  0  0
  -26.0260  -26.9230   19.5480 C   0  0  0  0  0  3  0  0  0  0  0  0
  -24.8380  -27.6770   19.5540 C   0  0  0  0  0  3  0  0  0  0  0  0
  -23.5730  -29.8050   20.2050 C   0  0  0  0  0  2  0  0  0  0  0  0
  -24.6250  -31.0840   22.1240 N   0  0  0  0  0  0  0  0  0  0  0  0
  -23.4860  -32.1590   23.7650 O   0  0  0  0  0  0  0  0  0  0  0  0
  -22.7080  -29.4630   22.5460 C   0  0  0  0  0  0  0  0  0  0  0  0
  -21.3830  -29.2830   22.4210 N   0  0  0  0  0  0  0  0  0  0  0  0
  -23.3920  -28.8360   23.3600 O   0  0  0  0  0  0  0  0  0  0  0  0
  -20.8930  -29.8420   21.7370 H   0  0  0  0  0  0  0  0  0  0  0  0
  -18.0100  -28.0940   22.9300 C   0  0  0  0  0  0  0  0  0  0  0  0
  -20.5690  -28.3450   23.1940 C   0  0  0  0  0  3  0  0  0  0  0  0
  -20.6660  -26.9150   22.6130 C   0  0  0  0  0  2  0  0  0  0  0  0
  -19.5590  -26.5980   21.6030 C   0  0  0  0  0  2  0  0  0  0  0  0
  -18.1800  -26.7460   22.2520 C   0  0  0  0  0  2  0  0  0  0  0  0
  -19.1310  -28.8510   23.3590 C   0  0  0  0  0  0  0  0  0  0  0  0
  -18.9190  -30.1150   23.9530 C   0  0  0  0  0  3  0  0  0  0  0  0
  -17.6160  -30.6200   24.1240 C   0  0  0  0  0  3  0  0  0  0  0  0
  -16.5090  -29.8590   23.7130 C   0  0  0  0  0  3  0  0  0  0  0  0
  -16.7050  -28.5990   23.1210 C   0  0  0  0  0  3  0  0  0  0  0  0
  -25.8520  -32.5200   23.8440 C   0  0  0  0  0  3  0  0  0  0  0  0
  -26.3730  -31.7490   25.1200 C   0  0  1  0  0  0  0  0  0  0  0  0
  -25.2820  -31.5110   26.1900 C   0  0  0  0  0  1  0  0  0  0  0  0
  -26.9570  -30.3720   24.7260 C   0  0  0  0  0  1  0  0  0  0  0  0
  -27.5240  -32.5440   25.7790 C   0  0  0  0  0  1  0  0  0  0  0  0
  -25.5430  -33.9180   24.1730 N   0  0  0  0  0  0  0  0  0  0  0  0
  -25.8770  -34.9690   23.4130 C   0  0  0  0  0  0  0  0  0  0  0  0
  -26.5480  -34.8650   22.3830 O   0  0  0  0  0  0  0  0  0  0  0  0
  -24.9470  -34.0730   24.9730 H   0  0  0  0  0  0  0  0  0  0  0  0
  -24.1510  -36.7630   23.0520 C   0  0  0  0  0  1  0  0  0  0  0  0
  -25.3880  -36.3580   23.8680 C   0  0  0  0  0  3  0  0  0  0  0  0
  -27.5190  -37.2420   24.7090 C   0  0  0  0  0  1  0  0  0  0  0  0
  -26.4220  -37.4100   23.7600 N   0  0  0  0  0  0  0  0  0  0  0  0
  -26.0170  -38.3310   23.9040 H   0  0  0  0  0  0  0  0  0  0  0  0
  -29.5580  -18.6200   20.0020 O   0  0  0  0  0  0  0  0  0  0  0  0
  -30.7490  -14.5490   20.4220 C   0  0  0  0  0  0  0  0  0  0  0  0
  -30.4110  -12.3810   19.2810 C   0  0  0  0  0  2  0  0  0  0  0  0
  -29.4800  -12.5710   18.0670 C   0  0  0  0  0  2  0  0  0  0  0  0
  -28.0070  -12.4220   18.4910 C   0  0  0  0  0  2  0  0  0  0  0  0
  -27.6600  -13.2710   19.7400 C   0  0  0  0  0  3  0  0  0  0  0  0
  -28.7130  -13.0930   20.8600 C   0  0  0  0  0  2  0  0  0  0  0  0
  -30.0380  -13.3880   20.2940 N   0  0  0  0  0  0  0  0  0  0  0  0
  -31.8880  -14.6590   19.9620 O   0  0  0  0  0  0  0  0  0  0  0  0
  -30.8700  -16.8960   21.2840 C   0  0  0  0  0  2  0  0  0  0  0  0
  -28.9710  -16.3230   20.5640 C   0  0  0  0  0  2  0  0  0  0  0  0
  -29.5540  -17.6470   21.0650 C   0  0  0  0  0  3  0  0  0  0  0  0
  -30.1680  -15.6130   21.0440 N   0  0  0  0  0  0  0  0  0  0  0  0
  -25.2610  -13.8900   20.4300 C   0  0  0  0  0  0  0  0  0  0  0  0
  -24.1900  -13.1240   20.8050 C   0  0  0  0  0  0  0  0  0  0  0  0
  -24.6500  -11.7720   20.7910 C   0  0  0  0  0  0  0  0  0  0  0  0
  -26.3060  -13.0040   20.2170 N   0  0  0  0  0  0  0  0  0  0  0  0
  -25.9430  -11.7260   20.4930 N   0  0  0  0  0  0  0  0  0  0  0  0
  -23.9200  -10.5130   20.9870 C   0  0  0  0  0  0  0  0  0  0  0  0
  -24.3460   -9.5530   21.9320 C   0  0  0  0  0  3  0  0  0  0  0  0
  -23.6170   -8.3580   22.1160 C   0  0  0  0  0  3  0  0  0  0  0  0
  -22.4490   -8.1160   21.3560 C   0  0  0  0  0  0  0  0  0  0  0  0
  -22.0420   -9.0650   20.4020 C   0  0  0  0  0  3  0  0  0  0  0  0
  -22.7710  -10.2510   20.2150 C   0  0  0  0  0  3  0  0  0  0  0  0
  -21.6930   -6.9720   21.4490 O   0  0  0  0  0  0  0  0  0  0  0  0
  -21.6360   -6.2390   22.6080 C   0  0  0  0  0  0  0  0  0  0  0  0
  -21.2080   -6.8070   23.8290 C   0  0  0  0  0  3  0  0  0  0  0  0
  -21.1000   -6.0010   24.9800 C   0  0  0  0  0  3  0  0  0  0  0  0
  -21.4080   -4.6300   24.9120 C   0  0  0  0  0  0  0  0  0  0  0  0
  -21.8280   -4.0620   23.6960 C   0  0  0  0  0  3  0  0  0  0  0  0
  -21.9390   -4.8640   22.5470 C   0  0  0  0  0  0  0  0  0  0  0  0
  -22.3240   -4.3080   21.3730 F   0  0  0  0  0  0  0  0  0  0  0  0
  -21.2960   -3.8540   26.0150 F   0  0  0  0  0  0  0  0  0  0  0  0
  -22.7910  -13.6060   21.0600 C   0  0  0  0  0  0  0  0  0  0  0  0
  -22.0560  -12.9200   21.9290 N   0  0  0  0  0  0  0  0  0  0  0  0
  -22.3590  -14.6260   20.5250 O   0  0  0  0  0  0  0  0  0  0  0  0
  -22.4170  -12.0960   22.3850 H   0  0  0  0  0  0  0  0  0  0  0  0
  -21.1170  -13.2270   22.1450 H   0  0  0  0  0  0  0  0  0  0  0  0
  -25.4220  -15.2580   20.2320 N   0  0  0  0  0  0  0  0  0  0  0  0
  -24.6470  -15.9070   20.3170 H   0  0  0  0  0  0  0  0  0  0  0  0
  -26.2540  -15.6860   19.8490 H   0  0  0  0  0  0  0  0  0  0  0  0
  2  5  1  0
  3  1  1  0
  4  2  2  0
  4  6  1  0
  5  7  1  0
  5  1  2  0
  6  3  2  0
  7 12  1  0
  8 10  1  0
  8  7  1  0
  8  9  1  0
 11  8  1  0
 12 13  1  0
 14 25  2  0
 15 13  1  0
 15 20  1  0
 16 24  1  0
 16 26  1  0
 17 23  1  0
 17 19  1  0
 18 24  1  0
 19 18  1  0
 20 19  2  0
 21 22  1  0
 21 15  2  0
 22 17  2  0
 23 16  1  0
 24 14  1  0
 26 28  2  0
 27 26  1  0
 29 27  1  0
 30 39  2  0
 30 35  1  0
 31 27  1  0
 31 35  1  0
 32 31  1  0
 33 34  1  0
 33 32  1  0
 34 30  1  0
 35 36  2  0
 36 37  1  0
 38 37  2  0
 39 38  1  0
 40 14  1  0
 40 45  1  0
 40 41  1  0
 41 44  1  1
 41 42  1  0
 43 41  1  0
 45 48  1  0
 46 50  1  0
 46 45  1  0
 47 46  2  0
 50 49  1  0
 52 50  1  0
 52 53  1  0
 52 51  1  0
 54  6  1  0
 55 66  1  0
 56 61  1  0
 57 58  1  0
 57 56  1  0
 59 58  1  0
 59 70  1  0
 59 60  1  0
 61 55  1  0
 61 60  1  0
 62 55  2  0
 64 66  1  0
 64 65  1  0
 65 54  1  0
 65 63  1  0
 66 63  1  0
 67 68  2  0
 68 87  1  0
 69 68  1  0
 69 72  1  0
 70 67  1  0
 70 71  1  0
 71 69  2  0
 72 73  1  0
 73 74  2  0
 75 78  1  0
 75 74  1  0
 76 75  2  0
 77 76  1  0
 77 72  2  0
 78 79  1  0
 79 80  1  0
 80 81  2  0
 82 81  1  0
 82 86  1  0
 83 82  2  0
 84 79  2  0
 84 83  1  0
 85 84  1  0
 87 88  1  0
 88 91  1  0
 88 90  1  0
 89 87  2  0
 92 93  1  0
 92 67  1  0
 94 92  1  0
M  ISO  4  12 101  13 101  55 100  66 100
M  END
>  <TORSDO>  (74) 
F 20

>  <SCORE>  (74) 
-14.249

>  <name>  (74) 
73

>  <ligand_id>  (74) 
73

>  <original_smiles>  (74) 
[H]c1c([H])c([H])c2c(c1[H])C([H])([H])C([H])([H])C([H])([H])C2([H])N([H])C(=O)C1([H])N(C(=O)C([H])(N([H])C(=O)C([H])(N([H])C([H])([H])[H])C([H])([H])[H])C(C([H])([H])[H])(C([H])([H])[H])C([H])([H])[H])C([H])([H])c2c([H])c(OC([H])([H])C([H])(c3c([H])c([H])c(OC4([H])C([H])([H])N(C(=O)N5C([H])([H])C([H])([H])C([H])([H])C([H])(n6nc(-c7c([H])c([H])c(Oc8c([H])c([H])c(F)c([H])c8F)c([H])c7[H])c(C(=O)N([H])[H])c6N([H])[H])C5([H])[H])C4([H])[H])c([H])c3[H])[N+]([H])([H])[H])c([H])c([H])c2C1([H])[H]

>  <smiles>  (74) 
[H]c1c([H])c([H])c2c(c1[H])C([H])([H])C([H])([H])C([H])([H])C2([H])N([H])C(=O)C1([H])N(C(=O)C([H])(N([H])C(=O)C([H])(N([H])C([H])([H])[H])C([H])([H])[H])C(C([H])([H])[H])(C([H])([H])[H])C([H])([H])[H])C([H])([H])c2c([H])c(OC([H])([H])C([H])(c3c([H])c([H])c(OC4([H])C([H])([H])N(C(=O)N5C([H])([H])C([H])([H])C([H])([H])C([H])(n6nc(-c7c([H])c([H])c(Oc8c([H])c([H])c(F)c([H])c8F)c([H])c7[H])c(C(=O)N([H])[H])c6N([H])[H])C5([H])[H])C4([H])[H])c([H])c3[H])[N+]([H])([H])[H])c([H])c([H])c2C1([H])[H]

$$$$
74:0:0
     RDKit          3D

 91100  0  0  1  0  0  0  0  0999 V2000
  -30.5370  -15.3840   20.2970 C   0  0  0  0  0  0  0  0  0  0  0  0
  -30.4820  -12.8870   19.5700 C   0  0  0  0  0  2  0  0  0  0  0  0
  -29.6210  -12.5960   18.3160 C   0  0  0  0  0  2  0  0  0  0  0  0
  -28.1560  -12.3340   18.7140 C   0  0  0  0  0  2  0  0  0  0  0  0
  -27.6610  -13.3620   19.7620 C   0  0  0  0  0  3  0  0  0  0  0  0
  -28.6670  -13.6230   20.9060 C   0  0  0  0  0  2  0  0  0  0  0  0
  -29.9110  -14.0980   20.2770 N   0  0  0  0  0  0  0  0  0  0  0  0
  -31.7630  -15.2830   20.1380 O   0  0  0  0  0  0  0  0  0  0  0  0
  -28.6190  -19.9650   20.0490 C   0  0  0  0  0  0  0  0  0  0  0  0
  -29.9970  -19.7050   19.9350 C   0  0  0  0  0  0  0  0  0  0  0  0
  -28.0290  -21.3580   19.9570 C   0  0  0  0  0  0  0  0  0  0  0  0
  -30.7300  -20.9480   19.7080 C   0  0  0  0  0  3  0  0  0  0  0  0
  -30.1480  -22.3130   19.5800 C   0  0  0  0  0  0  0  0  0  0  0  0
  -28.7440  -22.6640   19.7230 C   0  0  0  0  0  0  0  0  0  0  0  0
  -27.8370  -18.5960   20.1480 C   0  0  0  0  0  3  0  0  0  0  0  0
  -30.6370  -18.1460   19.9920 C   0  0  0  0  0  3  0  0  0  0  0  0
  -28.5100  -17.1680   20.5910 C   0  0  0  0  0  3  0  0  0  0  0  0
  -26.5090  -21.4170   20.0560 C   0  0  0  0  0  1  0  0  0  0  0  0
  -32.2430  -20.8040   19.5410 C   0  0  0  0  0  1  0  0  0  0  0  0
  -31.0800  -23.4650   19.2150 C   0  0  0  0  0  1  0  0  0  0  0  0
  -29.9100  -16.7500   20.2290 N   0  0  0  0  0  0  0  0  0  0  0  0
  -25.2760  -13.9520   20.4410 C   0  0  0  0  0  0  0  0  0  0  0  0
  -24.1990  -13.1960   20.8020 C   0  0  0  0  0  0  0  0  0  0  0  0
  -24.6540  -11.8430   20.8160 C   0  0  0  0  0  0  0  0  0  0  0  0
  -26.3180  -13.0650   20.2480 N   0  0  0  0  0  0  0  0  0  0  0  0
  -25.9550  -11.7900   20.5420 N   0  0  0  0  0  0  0  0  0  0  0  0
  -23.9050  -10.5930   21.0070 C   0  0  0  0  0  0  0  0  0  0  0  0
  -24.3100   -9.6290   21.9560 C   0  0  0  0  0  3  0  0  0  0  0  0
  -23.5610   -8.4460   22.1390 C   0  0  0  0  0  3  0  0  0  0  0  0
  -22.3940   -8.2190   21.3720 C   0  0  0  0  0  0  0  0  0  0  0  0
  -22.0080   -9.1720   20.4120 C   0  0  0  0  0  3  0  0  0  0  0  0
  -22.7580  -10.3460   20.2270 C   0  0  0  0  0  3  0  0  0  0  0  0
  -21.6140   -7.0910   21.4670 O   0  0  0  0  0  0  0  0  0  0  0  0
  -21.5500   -6.3530   22.6210 C   0  0  0  0  0  0  0  0  0  0  0  0
  -21.1360   -6.9190   23.8470 C   0  0  0  0  0  3  0  0  0  0  0  0
  -21.0220   -6.1090   24.9920 C   0  0  0  0  0  3  0  0  0  0  0  0
  -21.3090   -4.7320   24.9150 C   0  0  0  0  0  0  0  0  0  0  0  0
  -21.7160   -4.1660   23.6950 C   0  0  0  0  0  3  0  0  0  0  0  0
  -21.8340   -4.9740   22.5500 C   0  0  0  0  0  0  0  0  0  0  0  0
  -22.2070   -4.4190   21.3720 F   0  0  0  0  0  0  0  0  0  0  0  0
  -21.1910   -3.9530   26.0140 F   0  0  0  0  0  0  0  0  0  0  0  0
  -22.8010  -13.6980   21.0150 C   0  0  0  0  0  0  0  0  0  0  0  0
  -22.0410  -13.0450   21.8860 N   0  0  0  0  0  0  0  0  0  0  0  0
  -22.3920  -14.7050   20.4380 O   0  0  0  0  0  0  0  0  0  0  0  0
  -22.3860  -12.2360   22.3780 H   0  0  0  0  0  0  0  0  0  0  0  0
  -21.0990  -13.3640   22.0630 H   0  0  0  0  0  0  0  0  0  0  0  0
  -25.4370  -15.3130   20.2220 N   0  0  0  0  0  0  0  0  0  0  0  0
  -24.6470  -15.9460   20.2550 H   0  0  0  0  0  0  0  0  0  0  0  0
  -26.2600  -15.7280   19.8080 H   0  0  0  0  0  0  0  0  0  0  0  0
  -27.9940  -24.2450   19.4030 C   0  0  0  0  0  2  0  0  0  0  0  0
  -28.2970  -25.8460   19.7050 O   0  0  0  0  0  0  0  0  0  0  0  0
  -24.5970  -31.6250   22.9520 C   0  0  0  0  0  0  0  0  0  0  0  0
  -27.2740  -26.9470   19.6940 C   0  0  0  0  0  0  0  0  0  0  0  0
  -23.4360  -30.2720   21.2560 C   0  0  0  0  0  3  0  0  0  0  0  0
  -24.9230  -28.7770   19.7510 C   0  0  0  0  0  0  0  0  0  0  0  0
  -25.9960  -30.5510   21.1160 C   0  0  0  0  0  2  0  0  0  0  0  0
  -26.1040  -29.1760   20.3930 C   0  0  0  0  0  0  0  0  0  0  0  0
  -27.2700  -28.2810   20.3440 C   0  0  0  0  0  3  0  0  0  0  0  0
  -26.0630  -26.7160   19.0030 C   0  0  0  0  0  3  0  0  0  0  0  0
  -24.9300  -27.5700   19.0330 C   0  0  0  0  0  3  0  0  0  0  0  0
  -23.6790  -29.6600   19.8500 C   0  0  0  0  0  2  0  0  0  0  0  0
  -24.6980  -30.8420   21.8300 N   0  0  0  0  0  0  0  0  0  0  0  0
  -23.5030  -31.8630   23.4910 O   0  0  0  0  0  0  0  0  0  0  0  0
  -22.7720  -29.2140   22.1790 C   0  0  0  0  0  0  0  0  0  0  0  0
  -21.4400  -29.0510   22.0840 N   0  0  0  0  0  0  0  0  0  0  0  0
  -23.4640  -28.5430   22.9490 O   0  0  0  0  0  0  0  0  0  0  0  0
  -20.9330  -29.6450   21.4430 H   0  0  0  0  0  0  0  0  0  0  0  0
  -18.0710  -27.8400   22.6750 C   0  0  0  0  0  0  0  0  0  0  0  0
  -20.6450  -28.0640   22.8240 C   0  0  0  0  0  3  0  0  0  0  0  0
  -20.6970  -26.6820   22.1340 C   0  0  0  0  0  2  0  0  0  0  0  0
  -19.5420  -26.4500   21.1560 C   0  0  0  0  0  2  0  0  0  0  0  0
  -18.1980  -26.5500   21.8820 C   0  0  0  0  0  2  0  0  0  0  0  0
  -19.2190  -28.5590   23.1030 C   0  0  0  0  0  0  0  0  0  0  0  0
  -19.0420  -29.7670   23.8130 C   0  0  0  0  0  3  0  0  0  0  0  0
  -17.7520  -30.2550   24.0930 C   0  0  0  0  0  3  0  0  0  0  0  0
  -16.6210  -29.5320   23.6800 C   0  0  0  0  0  3  0  0  0  0  0  0
  -16.7810  -28.3270   22.9760 C   0  0  0  0  0  3  0  0  0  0  0  0
  -25.8520  -32.2770   23.6100 C   0  0  0  0  0  3  0  0  0  0  0  0
  -25.4910  -33.6410   24.0330 N   0  0  0  0  0  0  0  0  0  0  0  0
  -25.7550  -34.7570   23.3400 C   0  0  0  0  0  0  0  0  0  0  0  0
  -26.3920  -34.7480   22.2840 O   0  0  0  0  0  0  0  0  0  0  0  0
  -24.9220  -33.7180   24.8640 H   0  0  0  0  0  0  0  0  0  0  0  0
  -23.9400  -36.4940   23.1700 C   0  0  0  0  0  1  0  0  0  0  0  0
  -25.2310  -36.0950   23.9030 C   0  0  0  0  0  3  0  0  0  0  0  0
  -27.3590  -37.0280   24.7000 C   0  0  0  0  0  1  0  0  0  0  0  0
  -26.2130  -37.1980   23.8120 N   0  0  0  0  0  0  0  0  0  0  0  0
  -25.7740  -38.0900   24.0270 H   0  0  0  0  0  0  0  0  0  0  0  0
  -26.4010  -31.4560   24.8420 C   0  0  1  0  0  0  0  0  0  0  0  0
  -25.3260  -31.1300   25.9060 C   0  0  0  0  0  1  0  0  0  0  0  0
  -27.0210  -30.1160   24.3850 C   0  0  0  0  0  1  0  0  0  0  0  0
  -27.5360  -32.2460   25.5340 C   0  0  0  0  0  1  0  0  0  0  0  0
  2  7  1  0
  3  4  1  0
  3  2  1  0
  5  4  1  0
  5 25  1  0
  5  6  1  0
  7  1  1  0
  7  6  1  0
  8  1  2  0
  9 15  1  0
 10 16  2  0
 10  9  1  0
 11  9  2  0
 11 18  1  0
 12 19  1  0
 12 10  1  0
 13 12  1  0
 13 14  2  0
 14 11  1  0
 15 17  2  0
 16 21  1  0
 20 13  1  0
 21  1  1  0
 21 17  1  0
 22 23  2  0
 23 24  1  0
 23 42  1  0
 24 27  1  0
 25 22  1  0
 25 26  1  0
 26 24  2  0
 27 28  1  0
 28 29  2  0
 30 33  1  0
 30 29  1  0
 31 30  2  0
 32 31  1  0
 32 27  2  0
 33 34  1  0
 34 35  1  0
 35 36  2  0
 37 36  1  0
 37 41  1  0
 38 37  2  0
 39 34  2  0
 39 38  1  0
 40 39  1  0
 42 43  1  0
 43 46  1  0
 43 45  1  0
 44 42  2  0
 47 48  1  0
 47 22  1  0
 49 47  1  0
 50 51  1  0
 50 14  1  0
 52 63  2  0
 53 51  1  0
 53 58  1  0
 54 62  1  0
 54 64  1  0
 55 61  1  0
 55 57  1  0
 56 62  1  0
 57 56  1  0
 58 57  2  0
 59 60  1  0
 59 53  2  0
 60 55  2  0
 61 54  1  0
 62 52  1  0
 64 66  2  0
 65 64  1  0
 67 65  1  0
 68 77  2  0
 68 73  1  0
 69 65  1  0
 69 73  1  0
 70 69  1  0
 71 72  1  0
 71 70  1  0
 72 68  1  0
 73 74  2  0
 74 75  1  0
 76 75  2  0
 77 76  1  0
 78 52  1  0
 78 79  1  0
 78 88  1  0
 79 82  1  0
 80 84  1  0
 80 79  1  0
 81 80  2  0
 84 83  1  0
 86 84  1  0
 86 87  1  0
 86 85  1  0
 88 91  1  1
 88 89  1  0
 90 88  1  0
M  ISO  4   1 100  21 100  50 101  51 101
M  END
>  <TORSDO>  (75) 
F 16

>  <SCORE>  (75) 
-15.514

>  <name>  (75) 
74

>  <ligand_id>  (75) 
74

>  <original_smiles>  (75) 
[H]c1c([H])c([H])c2c(c1[H])C([H])([H])C([H])([H])C([H])([H])C2([H])N([H])C(=O)C1([H])N(C(=O)C([H])(N([H])C(=O)C([H])(N([H])C([H])([H])[H])C([H])([H])[H])C(C([H])([H])[H])(C([H])([H])[H])C([H])([H])[H])C([H])([H])c2c([H])c(OC([H])([H])c3c(C([H])([H])[H])c(C([H])([H])[H])c4c(c3C([H])([H])[H])C([H])([H])C([H])([H])N(C(=O)N3C([H])([H])C([H])([H])C([H])([H])C([H])(n5nc(-c6c([H])c([H])c(Oc7c([H])c([H])c(F)c([H])c7F)c([H])c6[H])c(C(=O)N([H])[H])c5N([H])[H])C3([H])[H])C4([H])[H])c([H])c([H])c2C1([H])[H]

>  <smiles>  (75) 
[H]c1c([H])c([H])c2c(c1[H])C([H])([H])C([H])([H])C([H])([H])C2([H])N([H])C(=O)C1([H])N(C(=O)C([H])(N([H])C(=O)C([H])(N([H])C([H])([H])[H])C([H])([H])[H])C(C([H])([H])[H])(C([H])([H])[H])C([H])([H])[H])C([H])([H])c2c([H])c(OC([H])([H])c3c(C([H])([H])[H])c(C([H])([H])[H])c4c(c3C([H])([H])[H])C([H])([H])C([H])([H])N(C(=O)N3C([H])([H])C([H])([H])C([H])([H])C([H])(n5nc(-c6c([H])c([H])c(Oc7c([H])c([H])c(F)c([H])c7F)c([H])c6[H])c(C(=O)N([H])[H])c5N([H])[H])C3([H])[H])C4([H])[H])c([H])c([H])c2C1([H])[H]

$$$$
75:0:0
     RDKit          3D

 98109  0  0  1  0  0  0  0  0999 V2000
  -30.9500  -19.7960   21.4730 C   0  0  0  0  0  3  0  0  0  0  0  0
  -29.8790  -19.5200   20.6020 C   0  0  0  0  0  0  0  0  0  0  0  0
  -29.2300  -20.6430   19.9780 C   0  0  0  0  0  0  0  0  0  0  0  0
  -29.6270  -21.9690   20.3660 C   0  0  0  0  0  0  0  0  0  0  0  0
  -31.3090  -21.1210   21.7420 C   0  0  0  0  0  0  0  0  0  0  0  0
  -32.4760  -21.4390   22.6510 C   0  0  0  0  0  1  0  0  0  0  0  0
  -30.6450  -22.1740   21.2300 N   0  0  0  0  0  0  0  0  0  0  0  0
  -30.7650  -14.5190   19.9880 C   0  0  0  0  0  0  0  0  0  0  0  0
  -30.4040  -12.3910   18.7720 C   0  0  0  0  0  2  0  0  0  0  0  0
  -29.3650  -12.6040   17.6490 C   0  0  0  0  0  2  0  0  0  0  0  0
  -27.9260  -12.4440   18.1830 C   0  0  0  0  0  2  0  0  0  0  0  0
  -27.6880  -13.2180   19.5050 C   0  0  0  0  0  3  0  0  0  0  0  0
  -28.8270  -12.9260   20.5060 C   0  0  0  0  0  2  0  0  0  0  0  0
  -30.0840  -13.3360   19.8600 N   0  0  0  0  0  0  0  0  0  0  0  0
  -31.8880  -14.6500   19.4840 O   0  0  0  0  0  0  0  0  0  0  0  0
  -29.1460  -17.3480   21.7910 C   0  0  0  0  0  2  0  0  0  0  0  0
  -29.1730  -15.8470   21.4730 C   0  0  0  0  0  2  0  0  0  0  0  0
  -30.4390  -17.0130   19.8380 C   0  0  0  0  0  2  0  0  0  0  0  0
  -29.4390  -18.0320   20.4580 C   0  0  0  0  0  3  0  0  0  0  0  0
  -30.0590  -15.6540   20.3150 N   0  0  0  0  0  0  0  0  0  0  0  0
  -25.3450  -13.8000   20.3950 C   0  0  0  0  0  0  0  0  0  0  0  0
  -24.3080  -13.0140   20.8220 C   0  0  0  0  0  0  0  0  0  0  0  0
  -24.7700  -11.6660   20.7250 C   0  0  0  0  0  0  0  0  0  0  0  0
  -26.3740  -12.9290   20.0730 N   0  0  0  0  0  0  0  0  0  0  0  0
  -26.0360  -11.6390   20.3280 N   0  0  0  0  0  0  0  0  0  0  0  0
  -24.0620  -10.3950   20.9320 C   0  0  0  0  0  0  0  0  0  0  0  0
  -24.5070   -9.4470   21.8780 C   0  0  0  0  0  3  0  0  0  0  0  0
  -23.7970   -8.2410   22.0700 C   0  0  0  0  0  3  0  0  0  0  0  0
  -22.6320   -7.9750   21.3140 C   0  0  0  0  0  0  0  0  0  0  0  0
  -22.2080   -8.9130   20.3550 C   0  0  0  0  0  3  0  0  0  0  0  0
  -22.9170  -10.1100   20.1620 C   0  0  0  0  0  3  0  0  0  0  0  0
  -21.8940   -6.8200   21.4140 O   0  0  0  0  0  0  0  0  0  0  0  0
  -21.7720   -6.1470   22.6030 C   0  0  0  0  0  0  0  0  0  0  0  0
  -21.2170   -6.7550   23.7500 C   0  0  0  0  0  3  0  0  0  0  0  0
  -21.0460   -6.0050   24.9320 C   0  0  0  0  0  3  0  0  0  0  0  0
  -21.4170   -4.6480   24.9650 C   0  0  0  0  0  0  0  0  0  0  0  0
  -21.9640   -4.0390   23.8220 C   0  0  0  0  0  3  0  0  0  0  0  0
  -22.1370   -4.7860   22.6430 C   0  0  0  0  0  0  0  0  0  0  0  0
  -22.6430   -4.1880   21.5370 F   0  0  0  0  0  0  0  0  0  0  0  0
  -21.2460   -3.9250   26.0960 F   0  0  0  0  0  0  0  0  0  0  0  0
  -22.9320  -13.4770   21.2040 C   0  0  0  0  0  0  0  0  0  0  0  0
  -22.2770  -12.7680   22.1170 N   0  0  0  0  0  0  0  0  0  0  0  0
  -22.4480  -14.5030   20.7290 O   0  0  0  0  0  0  0  0  0  0  0  0
  -22.6830  -11.9380   22.5230 H   0  0  0  0  0  0  0  0  0  0  0  0
  -21.3580  -13.0620   22.4170 H   0  0  0  0  0  0  0  0  0  0  0  0
  -25.4920  -15.1740   20.2320 N   0  0  0  0  0  0  0  0  0  0  0  0
  -24.7290  -15.8220   20.3980 H   0  0  0  0  0  0  0  0  0  0  0  0
  -26.3020  -15.6130   19.8140 H   0  0  0  0  0  0  0  0  0  0  0  0
  -30.0570  -24.1720   19.1050 C   0  0  0  0  0  2  0  0  0  0  0  0
  -30.4440  -25.2400   20.1400 C   0  0  0  0  0  2  0  0  0  0  0  0
  -28.3590  -24.2640   20.8460 C   0  0  0  0  0  2  0  0  0  0  0  0
  -29.0110  -23.2920   19.8090 C   0  0  0  0  0  3  0  0  0  0  0  0
  -29.1260  -25.6270   20.8330 C   0  0  1  0  0  0  0  0  0  0  0  0
  -29.3590  -26.2000   22.2420 C   0  0  0  0  0  1  0  0  0  0  0  0
  -28.6460  -26.6750   19.9630 O   0  0  0  0  0  0  0  0  0  0  0  0
  -24.5500  -31.7070   23.1090 C   0  0  0  0  0  0  0  0  0  0  0  0
  -27.4410  -27.3280   20.1310 C   0  0  0  0  0  0  0  0  0  0  0  0
  -23.4480  -30.2780   21.4170 C   0  0  0  0  0  3  0  0  0  0  0  0
  -25.0030  -28.7750   20.0600 C   0  0  0  0  0  0  0  0  0  0  0  0
  -25.9710  -30.7000   21.3240 C   0  0  0  0  0  2  0  0  0  0  0  0
  -26.1240  -29.3270   20.6960 C   0  0  0  0  0  0  0  0  0  0  0  0
  -27.3490  -28.6120   20.7250 C   0  0  0  0  0  3  0  0  0  0  0  0
  -26.3020  -26.7920   19.5000 C   0  0  0  0  0  3  0  0  0  0  0  0
  -25.0870  -27.5040   19.4640 C   0  0  0  0  0  3  0  0  0  0  0  0
  -23.7370  -29.6030   20.0490 C   0  0  0  0  0  2  0  0  0  0  0  0
  -24.6710  -30.9130   22.0090 N   0  0  0  0  0  0  0  0  0  0  0  0
  -23.4410  -31.9470   23.6070 O   0  0  0  0  0  0  0  0  0  0  0  0
  -22.7900  -29.2360   22.3490 C   0  0  0  0  0  0  0  0  0  0  0  0
  -21.4660  -29.0600   22.2090 N   0  0  0  0  0  0  0  0  0  0  0  0
  -23.4680  -28.5840   23.1470 O   0  0  0  0  0  0  0  0  0  0  0  0
  -20.9830  -29.6360   21.5340 H   0  0  0  0  0  0  0  0  0  0  0  0
  -18.0730  -27.9340   22.7400 C   0  0  0  0  0  0  0  0  0  0  0  0
  -20.6420  -28.1040   22.9500 C   0  0  0  0  0  3  0  0  0  0  0  0
  -20.6880  -26.7060   22.2910 C   0  0  0  0  0  2  0  0  0  0  0  0
  -19.5500  -26.4720   21.2940 C   0  0  0  0  0  2  0  0  0  0  0  0
  -18.1900  -26.6190   21.9860 C   0  0  0  0  0  2  0  0  0  0  0  0
  -19.2250  -28.6390   23.1780 C   0  0  0  0  0  0  0  0  0  0  0  0
  -19.0630  -29.8730   23.8450 C   0  0  0  0  0  3  0  0  0  0  0  0
  -17.7800  -30.4030   24.0750 C   0  0  0  0  0  3  0  0  0  0  0  0
  -16.6420  -29.6940   23.6510 C   0  0  0  0  0  3  0  0  0  0  0  0
  -16.7900  -28.4610   22.9910 C   0  0  0  0  0  3  0  0  0  0  0  0
  -25.7930  -32.3730   23.7800 C   0  0  0  0  0  3  0  0  0  0  0  0
  -25.4210  -33.7530   24.1250 N   0  0  0  0  0  0  0  0  0  0  0  0
  -25.7300  -34.8310   23.3900 C   0  0  0  0  0  0  0  0  0  0  0  0
  -26.4270  -34.7700   22.3730 O   0  0  0  0  0  0  0  0  0  0  0  0
  -24.8040  -33.8720   24.9150 H   0  0  0  0  0  0  0  0  0  0  0  0
  -23.9420  -36.5580   23.0170 C   0  0  0  0  0  1  0  0  0  0  0  0
  -25.1760  -36.1920   23.8550 C   0  0  0  0  0  3  0  0  0  0  0  0
  -27.2470  -37.1440   24.7680 C   0  0  0  0  0  1  0  0  0  0  0  0
  -26.1690  -37.2860   23.7930 N   0  0  0  0  0  0  0  0  0  0  0  0
  -25.7240  -38.1860   23.9460 H   0  0  0  0  0  0  0  0  0  0  0  0
  -26.3000  -31.5940   25.0570 C   0  0  1  0  0  0  0  0  0  0  0  0
  -25.1830  -31.2900   26.0840 C   0  0  0  0  0  1  0  0  0  0  0  0
  -26.9510  -30.2480   24.6570 C   0  0  0  0  0  1  0  0  0  0  0  0
  -27.3950  -32.4190   25.7760 C   0  0  0  0  0  1  0  0  0  0  0  0
  -28.3280  -19.5140   17.7560 C   0  0  0  0  0  2  0  0  0  0  0  0
  -28.2930  -21.0000   17.5370 C   0  0  0  0  0  2  0  0  0  0  0  0
  -28.1460  -20.4440   18.9420 C   0  0  0  0  0  3  0  0  0  0  0  0
  1  5  1  0
  2  1  2  0
  3  4  2  0
  3  2  1  0
  4  7  1  0
  5  6  1  0
  7  5  2  0
  8 20  1  0
  9 14  1  0
 10 11  1  0
 10  9  1  0
 12 11  1  0
 12 24  1  0
 12 13  1  0
 14  8  1  0
 14 13  1  0
 15  8  2  0
 17 16  1  0
 18 20  1  0
 18 19  1  0
 19  2  1  0
 19 16  1  0
 20 17  1  0
 21 22  2  0
 22 41  1  0
 23 22  1  0
 23 26  1  0
 24 25  1  0
 24 21  1  0
 25 23  2  0
 26 27  1  0
 27 28  2  0
 29 32  1  0
 29 28  1  0
 30 29  2  0
 31 30  1  0
 31 26  2  0
 32 33  1  0
 33 38  2  0
 33 34  1  0
 34 35  2  0
 35 36  1  0
 36 40  1  0
 37 36  2  0
 38 37  1  0
 39 38  1  0
 41 42  1  0
 42 45  1  0
 42 44  1  0
 43 41  2  0
 46 21  1  0
 46 47  1  0
 48 46  1  0
 49 52  1  0
 49 50  1  0
 50 53  1  0
 52  4  1  0
 52 51  1  0
 53 51  1  0
 53 54  1  1
 55 57  1  0
 55 53  1  0
 56 67  2  0
 57 62  1  0
 58 66  1  0
 58 68  1  0
 59 61  1  0
 60 66  1  0
 61 62  2  0
 61 60  1  0
 63 57  2  0
 64 63  1  0
 64 59  2  0
 65 59  1  0
 65 58  1  0
 66 56  1  0
 68 70  2  0
 69 68  1  0
 71 69  1  0
 72 81  2  0
 72 77  1  0
 73 69  1  0
 73 77  1  0
 74 73  1  0
 75 76  1  0
 75 74  1  0
 76 72  1  0
 77 78  2  0
 78 79  1  0
 80 79  2  0
 81 80  1  0
 82 56  1  0
 82 83  1  0
 82 92  1  0
 83 86  1  0
 84 88  1  0
 84 83  1  0
 85 84  2  0
 88 87  1  0
 90 88  1  0
 90 91  1  0
 90 89  1  0
 92 95  1  1
 92 93  1  0
 94 92  1  0
 96 98  1  0
 97 96  1  0
 97 98  1  0
 98  3  1  0
M  ISO  4   8 100  20 100  53 101  55 101
M  END
>  <TORSDO>  (76) 
F 18

>  <SCORE>  (76) 
-13.528

>  <name>  (76) 
75

>  <ligand_id>  (76) 
75

>  <original_smiles>  (76) 
[H]c1c([H])c([H])c2c(c1[H])C([H])([H])C([H])([H])C([H])([H])C2([H])N([H])C(=O)C1([H])N(C(=O)C([H])(N([H])C(=O)C([H])(N([H])C([H])([H])[H])C([H])([H])[H])C(C([H])([H])[H])(C([H])([H])[H])C([H])([H])[H])C([H])([H])c2c([H])c(OC3(C([H])([H])[H])C([H])([H])C([H])([H])C([H])(c4nc(C([H])([H])[H])c([H])c(C5([H])C([H])([H])N(C(=O)N6C([H])([H])C([H])([H])C([H])([H])C([H])(n7nc(-c8c([H])c([H])c(Oc9c([H])c([H])c(F)c([H])c9F)c([H])c8[H])c(C(=O)N([H])[H])c7N([H])[H])C6([H])[H])C([H])([H])C5([H])[H])c4C4([H])C([H])([H])C4([H])[H])C3([H])[H])c([H])c([H])c2C1([H])[H]

>  <smiles>  (76) 
[H]c1c([H])c([H])c2c(c1[H])C([H])([H])C([H])([H])C([H])([H])C2([H])N([H])C(=O)C1([H])N(C(=O)C([H])(N([H])C(=O)C([H])(N([H])C([H])([H])[H])C([H])([H])[H])C(C([H])([H])[H])(C([H])([H])[H])C([H])([H])[H])C([H])([H])c2c([H])c(OC3(C([H])([H])[H])C([H])([H])C([H])([H])C([H])(c4nc(C([H])([H])[H])c([H])c(C5([H])C([H])([H])N(C(=O)N6C([H])([H])C([H])([H])C([H])([H])C([H])(n7nc(-c8c([H])c([H])c(Oc9c([H])c([H])c(F)c([H])c9F)c([H])c8[H])c(C(=O)N([H])[H])c7N([H])[H])C6([H])[H])C([H])([H])C5([H])[H])c4C4([H])C([H])([H])C4([H])[H])C3([H])[H])c([H])c([H])c2C1([H])[H]

$$$$
76:0:0
     RDKit          3D

 97106  0  0  1  0  0  0  0  0999 V2000
  -29.4910  -21.7220   20.0700 C   0  0  0  0  0  0  0  0  0  0  0  0
  -28.4870  -22.7470   19.8060 C   0  0  0  0  0  0  0  0  0  0  0  0
  -29.7310  -20.6620   19.1160 C   0  0  0  0  0  0  0  0  0  0  0  0
  -27.8610  -22.6640   18.5330 C   0  0  0  0  0  0  0  0  0  0  0  0
  -28.9800  -20.7180   17.9200 C   0  0  0  0  0  0  0  0  0  0  0  0
  -30.3620  -21.7800   21.3130 C   0  0  0  0  0  1  0  0  0  0  0  0
  -26.8310  -23.6650   18.0460 C   0  0  0  0  0  1  0  0  0  0  0  0
  -29.1560  -19.6930   16.8120 C   0  0  0  0  0  1  0  0  0  0  0  0
  -28.0980  -21.6900   17.6370 N   0  0  0  0  0  0  0  0  0  0  0  0
  -27.6070  -23.1540   22.2050 C   0  0  0  0  0  1  0  0  0  0  0  0
  -27.9130  -23.8100   20.8450 C   0  0  0  0  0  3  0  0  0  0  0  0
  -28.5880  -25.2360   21.0920 C   0  0  0  0  0  2  0  0  0  0  0  0
  -28.4140  -26.4050   20.2210 O   0  0  0  0  0  0  0  0  0  0  0  0
  -24.6260  -31.8110   23.2290 C   0  0  0  0  0  0  0  0  0  0  0  0
  -27.2740  -27.2040   20.3140 C   0  0  0  0  0  0  0  0  0  0  0  0
  -23.4440  -30.3940   21.5900 C   0  0  0  0  0  3  0  0  0  0  0  0
  -24.9120  -28.8020   20.2380 C   0  0  0  0  0  0  0  0  0  0  0  0
  -25.9860  -30.7000   21.4470 C   0  0  0  0  0  2  0  0  0  0  0  0
  -26.0720  -29.3070   20.8420 C   0  0  0  0  0  0  0  0  0  0  0  0
  -27.2610  -28.5200   20.8670 C   0  0  0  0  0  3  0  0  0  0  0  0
  -26.0910  -26.7410   19.7090 C   0  0  0  0  0  3  0  0  0  0  0  0
  -24.9220  -27.5200   19.6690 C   0  0  0  0  0  3  0  0  0  0  0  0
  -23.6810  -29.6830   20.2330 C   0  0  0  0  0  2  0  0  0  0  0  0
  -24.7040  -30.9850   22.1480 N   0  0  0  0  0  0  0  0  0  0  0  0
  -23.5350  -32.1080   23.7360 O   0  0  0  0  0  0  0  0  0  0  0  0
  -22.7510  -29.4030   22.5550 C   0  0  0  0  0  0  0  0  0  0  0  0
  -21.4270  -29.2340   22.4000 N   0  0  0  0  0  0  0  0  0  0  0  0
  -23.4050  -28.7850   23.4000 O   0  0  0  0  0  0  0  0  0  0  0  0
  -20.9570  -29.7810   21.6920 H   0  0  0  0  0  0  0  0  0  0  0  0
  -18.0320  -28.0710   22.8340 C   0  0  0  0  0  0  0  0  0  0  0  0
  -20.5840  -28.3180   23.1700 C   0  0  0  0  0  3  0  0  0  0  0  0
  -20.6920  -26.8760   22.6250 C   0  0  0  0  0  2  0  0  0  0  0  0
  -19.6160  -26.5380   21.5890 C   0  0  0  0  0  2  0  0  0  0  0  0
  -18.2180  -26.7060   22.1920 C   0  0  0  0  0  2  0  0  0  0  0  0
  -19.1430  -28.8350   23.2790 C   0  0  0  0  0  0  0  0  0  0  0  0
  -18.9180  -30.1120   23.8390 C   0  0  0  0  0  3  0  0  0  0  0  0
  -17.6130  -30.6250   23.9580 C   0  0  0  0  0  3  0  0  0  0  0  0
  -16.5140  -29.8580   23.5310 C   0  0  0  0  0  3  0  0  0  0  0  0
  -16.7240  -28.5840   22.9740 C   0  0  0  0  0  3  0  0  0  0  0  0
  -25.9030  -32.4430   23.8680 C   0  0  0  0  0  3  0  0  0  0  0  0
  -26.4050  -31.6670   25.1480 C   0  0  1  0  0  0  0  0  0  0  0  0
  -25.2960  -31.4190   26.1960 C   0  0  0  0  0  1  0  0  0  0  0  0
  -27.0000  -30.2940   24.7560 C   0  0  0  0  0  1  0  0  0  0  0  0
  -27.5410  -32.4630   25.8330 C   0  0  0  0  0  1  0  0  0  0  0  0
  -25.5910  -33.8390   24.1960 N   0  0  0  0  0  0  0  0  0  0  0  0
  -25.9330  -34.8930   23.4430 C   0  0  0  0  0  0  0  0  0  0  0  0
  -26.6120  -34.7910   22.4180 O   0  0  0  0  0  0  0  0  0  0  0  0
  -24.9920  -33.9930   24.9930 H   0  0  0  0  0  0  0  0  0  0  0  0
  -24.2100  -36.6870   23.0770 C   0  0  0  0  0  1  0  0  0  0  0  0
  -25.4430  -36.2810   23.9000 C   0  0  0  0  0  3  0  0  0  0  0  0
  -27.5680  -37.1640   24.7560 C   0  0  0  0  0  1  0  0  0  0  0  0
  -26.4770  -37.3340   23.7980 N   0  0  0  0  0  0  0  0  0  0  0  0
  -26.0700  -38.2540   23.9430 H   0  0  0  0  0  0  0  0  0  0  0  0
  -30.7540  -19.6570   19.1560 N   0  0  0  0  0  0  0  0  0  0  0  0
  -31.0270  -19.3750   18.2190 H   0  0  0  0  0  0  0  0  0  0  0  0
  -30.9400  -18.5290   20.1080 C   0  0  0  0  0  2  0  0  0  0  0  0
  -31.1970  -14.7880   19.9780 C   0  0  0  0  0  0  0  0  0  0  0  0
  -30.8670  -12.5120   18.9940 C   0  0  0  0  0  2  0  0  0  0  0  0
  -29.9120  -12.5900   17.7820 C   0  0  0  0  0  2  0  0  0  0  0  0
  -28.4410  -12.4850   18.2260 C   0  0  0  0  0  2  0  0  0  0  0  0
  -28.1190  -13.4040   19.4330 C   0  0  0  0  0  3  0  0  0  0  0  0
  -29.1910  -13.2860   20.5360 C   0  0  0  0  0  2  0  0  0  0  0  0
  -30.5050  -13.5930   19.9430 N   0  0  0  0  0  0  0  0  0  0  0  0
  -32.2760  -14.8980   19.3870 O   0  0  0  0  0  0  0  0  0  0  0  0
  -28.8400  -16.8130   21.8200 C   0  0  0  0  0  2  0  0  0  0  0  0
  -28.7420  -17.3590   20.3830 C   0  0  0  0  0  2  0  0  0  0  0  0
  -30.2000  -16.0980   21.8830 C   0  0  0  0  0  2  0  0  0  0  0  0
  -30.1460  -17.1850   19.7950 C   0  0  0  0  0  3  0  0  0  0  0  0
  -30.5710  -15.9120   20.4840 N   0  0  0  0  0  0  0  0  0  0  0  0
  -25.7640  -14.0750   20.2190 C   0  0  0  0  0  0  0  0  0  0  0  0
  -24.6880  -13.3400   20.6300 C   0  0  0  0  0  0  0  0  0  0  0  0
  -25.1080  -11.9770   20.5920 C   0  0  0  0  0  0  0  0  0  0  0  0
  -26.7770  -13.1660   19.9590 N   0  0  0  0  0  0  0  0  0  0  0  0
  -26.3870  -11.8960   20.2410 N   0  0  0  0  0  0  0  0  0  0  0  0
  -24.3460  -10.7420   20.8090 C   0  0  0  0  0  0  0  0  0  0  0  0
  -24.7260   -9.8010   21.7920 C   0  0  0  0  0  3  0  0  0  0  0  0
  -23.9620   -8.6310   21.9930 C   0  0  0  0  0  3  0  0  0  0  0  0
  -22.8070   -8.3930   21.2110 C   0  0  0  0  0  0  0  0  0  0  0  0
  -22.4480   -9.3220   20.2190 C   0  0  0  0  0  3  0  0  0  0  0  0
  -23.2100  -10.4830   20.0160 C   0  0  0  0  0  3  0  0  0  0  0  0
  -22.0210   -7.2720   21.3180 O   0  0  0  0  0  0  0  0  0  0  0  0
  -21.8490   -6.6260   22.5170 C   0  0  0  0  0  0  0  0  0  0  0  0
  -21.3390   -7.2890   23.6550 C   0  0  0  0  0  3  0  0  0  0  0  0
  -21.1170   -6.5700   24.8450 C   0  0  0  0  0  3  0  0  0  0  0  0
  -21.3930   -5.1910   24.8970 C   0  0  0  0  0  0  0  0  0  0  0  0
  -21.8940   -4.5290   23.7630 C   0  0  0  0  0  3  0  0  0  0  0  0
  -22.1200   -5.2440   22.5740 C   0  0  0  0  0  0  0  0  0  0  0  0
  -22.5830   -4.5980   21.4770 F   0  0  0  0  0  0  0  0  0  0  0  0
  -21.1710   -4.4950   26.0380 F   0  0  0  0  0  0  0  0  0  0  0  0
  -23.3200  -13.8690   20.9520 C   0  0  0  0  0  0  0  0  0  0  0  0
  -22.6110  -13.2190   21.8660 N   0  0  0  0  0  0  0  0  0  0  0  0
  -22.8920  -14.8950   20.4250 O   0  0  0  0  0  0  0  0  0  0  0  0
  -22.9730  -12.3910   22.3160 H   0  0  0  0  0  0  0  0  0  0  0  0
  -21.6990  -13.5610   22.1330 H   0  0  0  0  0  0  0  0  0  0  0  0
  -25.9490  -15.4360   20.0240 N   0  0  0  0  0  0  0  0  0  0  0  0
  -25.2090  -16.1120   20.1690 H   0  0  0  0  0  0  0  0  0  0  0  0
  -26.8100  -15.8490   19.6930 H   0  0  0  0  0  0  0  0  0  0  0  0
  1  6  1  0
  2  1  1  0
  2 11  1  0
  3 54  1  0
  3  1  2  0
  4  2  2  0
  5  3  1  0
  7  4  1  0
  8  5  1  0
  9  5  2  0
  9  4  1  0
 11 12  1  0
 11 10  1  0
 13 15  1  0
 13 12  1  0
 14 25  2  0
 15 20  1  0
 16 24  1  0
 16 26  1  0
 17 19  1  0
 18 24  1  0
 19 20  2  0
 19 18  1  0
 21 15  2  0
 22 21  1  0
 22 17  2  0
 23 17  1  0
 23 16  1  0
 24 14  1  0
 26 28  2  0
 27 26  1  0
 29 27  1  0
 30 39  2  0
 30 35  1  0
 31 27  1  0
 31 35  1  0
 32 31  1  0
 33 34  1  0
 33 32  1  0
 34 30  1  0
 35 36  2  0
 36 37  1  0
 38 37  2  0
 39 38  1  0
 40 14  1  0
 40 45  1  0
 40 41  1  0
 41 44  1  1
 41 42  1  0
 43 41  1  0
 45 48  1  0
 46 50  1  0
 46 45  1  0
 47 46  2  0
 50 49  1  0
 52 50  1  0
 52 53  1  0
 52 51  1  0
 54 56  1  0
 55 54  1  0
 57 69  1  0
 58 63  1  0
 59 60  1  0
 59 58  1  0
 61 60  1  0
 61 73  1  0
 61 62  1  0
 63 57  1  0
 63 62  1  0
 64 57  2  0
 65 67  1  0
 66 65  1  0
 68 56  1  0
 68 66  1  0
 68 69  1  0
 69 67  1  0
 70 71  2  0
 71 90  1  0
 72 71  1  0
 72 75  1  0
 73 70  1  0
 73 74  1  0
 74 72  2  0
 75 76  1  0
 76 77  2  0
 78 81  1  0
 78 77  1  0
 79 78  2  0
 80 79  1  0
 80 75  2  0
 81 82  1  0
 82 87  2  0
 82 83  1  0
 83 84  2  0
 84 85  1  0
 85 89  1  0
 86 85  2  0
 87 86  1  0
 88 87  1  0
 90 91  1  0
 91 94  1  0
 91 93  1  0
 92 90  2  0
 95 96  1  0
 95 70  1  0
 97 95  1  0
M  ISO  4  12 101  13 101  57 100  69 100
M  END
>  <TORSDO>  (77) 
F 20

>  <SCORE>  (77) 
-12.441

>  <name>  (77) 
76

>  <ligand_id>  (77) 
76

>  <original_smiles>  (77) 
[H]c1c([H])c([H])c2c(c1[H])C([H])([H])C([H])([H])C([H])([H])C2([H])N([H])C(=O)C1([H])N(C(=O)C([H])(N([H])C(=O)C([H])(N([H])C([H])([H])[H])C([H])([H])[H])C(C([H])([H])[H])(C([H])([H])[H])C([H])([H])[H])C([H])([H])c2c([H])c(OC([H])([H])C([H])(c3c(C([H])([H])[H])nc(C([H])([H])[H])c(N([H])C([H])([H])C4([H])N(C(=O)N5C([H])([H])C([H])([H])C([H])([H])C([H])(n6nc(-c7c([H])c([H])c(Oc8c([H])c([H])c(F)c([H])c8F)c([H])c7[H])c(C(=O)N([H])[H])c6N([H])[H])C5([H])[H])C([H])([H])C([H])([H])C4([H])[H])c3C([H])([H])[H])C([H])([H])[H])c([H])c([H])c2C1([H])[H]

>  <smiles>  (77) 
[H]c1c([H])c([H])c2c(c1[H])C([H])([H])C([H])([H])C([H])([H])C2([H])N([H])C(=O)C1([H])N(C(=O)C([H])(N([H])C(=O)C([H])(N([H])C([H])([H])[H])C([H])([H])[H])C(C([H])([H])[H])(C([H])([H])[H])C([H])([H])[H])C([H])([H])c2c([H])c(OC([H])([H])C([H])(c3c(C([H])([H])[H])nc(C([H])([H])[H])c(N([H])C([H])([H])C4([H])N(C(=O)N5C([H])([H])C([H])([H])C([H])([H])C([H])(n6nc(-c7c([H])c([H])c(Oc8c([H])c([H])c(F)c([H])c8F)c([H])c7[H])c(C(=O)N([H])[H])c6N([H])[H])C5([H])[H])C([H])([H])C([H])([H])C4([H])[H])c3C([H])([H])[H])C([H])([H])[H])c([H])c([H])c2C1([H])[H]

$$$$
77:0:0
     RDKit          3D

 89 98  0  0  1  0  0  0  0  0999 V2000
  -30.5060  -15.3860   20.2530 C   0  0  0  0  0  0  0  0  0  0  0  0
  -30.5070  -12.8910   19.5050 C   0  0  0  0  0  2  0  0  0  0  0  0
  -29.6330  -12.5590   18.2700 C   0  0  0  0  0  2  0  0  0  0  0  0
  -28.1800  -12.2810   18.6910 C   0  0  0  0  0  2  0  0  0  0  0  0
  -27.6760  -13.3000   19.7440 C   0  0  0  0  0  3  0  0  0  0  0  0
  -28.6920  -13.5630   20.8770 C   0  0  0  0  0  2  0  0  0  0  0  0
  -29.9110  -14.0820   20.2280 N   0  0  0  0  0  0  0  0  0  0  0  0
  -31.7340  -15.3070   20.0910 O   0  0  0  0  0  0  0  0  0  0  0  0
  -27.9510  -21.3530   20.1850 C   0  0  0  0  0  3  0  0  0  0  0  0
  -30.5010  -20.9210   19.3920 C   0  0  0  0  0  2  0  0  0  0  0  0
  -28.5440  -19.9610   20.2270 C   0  0  0  0  0  0  0  0  0  0  0  0
  -29.8640  -19.6880   19.8260 C   0  0  0  0  0  0  0  0  0  0  0  0
  -29.9190  -22.2810   19.3430 C   0  0  0  0  0  0  0  0  0  0  0  0
  -28.5740  -22.6420   19.7470 C   0  0  0  0  0  0  0  0  0  0  0  0
  -27.8880  -18.6460   20.7790 C   0  0  0  0  0  3  0  0  0  0  0  0
  -30.5560  -18.1570   19.9290 C   0  0  0  0  0  3  0  0  0  0  0  0
  -28.3990  -17.1340   20.3680 C   0  0  0  0  0  3  0  0  0  0  0  0
  -30.7950  -23.3960   18.8010 C   0  0  0  0  0  1  0  0  0  0  0  0
  -29.8570  -16.7480   20.2160 N   0  0  0  0  0  0  0  0  0  0  0  0
  -25.2930  -13.8530   20.4540 C   0  0  0  0  0  0  0  0  0  0  0  0
  -24.2300  -13.0770   20.8180 C   0  0  0  0  0  0  0  0  0  0  0  0
  -24.7030  -11.7280   20.8130 C   0  0  0  0  0  0  0  0  0  0  0  0
  -26.3440  -12.9800   20.2420 N   0  0  0  0  0  0  0  0  0  0  0  0
  -26.0020  -11.6960   20.5250 N   0  0  0  0  0  0  0  0  0  0  0  0
  -23.9760  -10.4670   21.0040 C   0  0  0  0  0  0  0  0  0  0  0  0
  -24.3960   -9.5050   21.9500 C   0  0  0  0  0  3  0  0  0  0  0  0
  -23.6640   -8.3110   22.1320 C   0  0  0  0  0  3  0  0  0  0  0  0
  -22.4980   -8.0700   21.3670 C   0  0  0  0  0  0  0  0  0  0  0  0
  -22.0980   -9.0190   20.4090 C   0  0  0  0  0  3  0  0  0  0  0  0
  -22.8310  -10.2040   20.2260 C   0  0  0  0  0  3  0  0  0  0  0  0
  -21.7390   -6.9280   21.4560 O   0  0  0  0  0  0  0  0  0  0  0  0
  -21.6760   -6.1940   22.6140 C   0  0  0  0  0  0  0  0  0  0  0  0
  -21.2250   -6.7550   23.8290 C   0  0  0  0  0  3  0  0  0  0  0  0
  -21.1120   -5.9470   24.9780 C   0  0  0  0  0  3  0  0  0  0  0  0
  -21.4360   -4.5790   24.9120 C   0  0  0  0  0  0  0  0  0  0  0  0
  -21.8790   -4.0170   23.7020 C   0  0  0  0  0  3  0  0  0  0  0  0
  -21.9960   -4.8220   22.5550 C   0  0  0  0  0  0  0  0  0  0  0  0
  -22.4020   -4.2700   21.3870 F   0  0  0  0  0  0  0  0  0  0  0  0
  -21.3210   -3.8010   26.0140 F   0  0  0  0  0  0  0  0  0  0  0  0
  -22.8270  -13.5530   21.0530 C   0  0  0  0  0  0  0  0  0  0  0  0
  -22.0870  -12.8790   21.9250 N   0  0  0  0  0  0  0  0  0  0  0  0
  -22.3950  -14.5630   20.4960 O   0  0  0  0  0  0  0  0  0  0  0  0
  -22.4510  -12.0650   22.3990 H   0  0  0  0  0  0  0  0  0  0  0  0
  -21.1440  -13.1830   22.1240 H   0  0  0  0  0  0  0  0  0  0  0  0
  -25.4460  -15.2200   20.2520 N   0  0  0  0  0  0  0  0  0  0  0  0
  -24.6600  -15.8570   20.3110 H   0  0  0  0  0  0  0  0  0  0  0  0
  -26.2800  -15.6530   19.8810 H   0  0  0  0  0  0  0  0  0  0  0  0
  -27.7490  -24.1960   19.5690 C   0  0  0  0  0  2  0  0  0  0  0  0
  -28.1100  -25.8060   19.6610 O   0  0  0  0  0  0  0  0  0  0  0  0
  -24.5040  -31.6180   22.9230 C   0  0  0  0  0  0  0  0  0  0  0  0
  -27.1010  -26.9160   19.6630 C   0  0  0  0  0  0  0  0  0  0  0  0
  -23.3160  -30.2810   21.2340 C   0  0  0  0  0  3  0  0  0  0  0  0
  -24.7760  -28.7730   19.7210 C   0  0  0  0  0  0  0  0  0  0  0  0
  -25.8780  -30.5410   21.0720 C   0  0  0  0  0  2  0  0  0  0  0  0
  -25.9660  -29.1630   20.3490 C   0  0  0  0  0  0  0  0  0  0  0  0
  -27.1220  -28.2590   20.2960 C   0  0  0  0  0  3  0  0  0  0  0  0
  -25.8770  -26.6880   18.9940 C   0  0  0  0  0  3  0  0  0  0  0  0
  -24.7580  -27.5570   19.0210 C   0  0  0  0  0  3  0  0  0  0  0  0
  -23.5410  -29.6690   19.8250 C   0  0  0  0  0  2  0  0  0  0  0  0
  -24.5880  -30.8380   21.7970 N   0  0  0  0  0  0  0  0  0  0  0  0
  -23.4170  -31.8620   23.4700 O   0  0  0  0  0  0  0  0  0  0  0  0
  -22.6500  -29.2270   22.1590 C   0  0  0  0  0  0  0  0  0  0  0  0
  -21.3170  -29.0690   22.0630 N   0  0  0  0  0  0  0  0  0  0  0  0
  -23.3400  -28.5560   22.9300 O   0  0  0  0  0  0  0  0  0  0  0  0
  -20.8130  -29.6620   21.4190 H   0  0  0  0  0  0  0  0  0  0  0  0
  -17.9410  -27.8670   22.6410 C   0  0  0  0  0  0  0  0  0  0  0  0
  -20.5140  -28.0880   22.8040 C   0  0  0  0  0  3  0  0  0  0  0  0
  -20.5700  -26.7000   22.1240 C   0  0  0  0  0  2  0  0  0  0  0  0
  -19.4190  -26.4640   21.1410 C   0  0  0  0  0  2  0  0  0  0  0  0
  -18.0700  -26.5720   21.8570 C   0  0  0  0  0  2  0  0  0  0  0  0
  -19.0890  -28.5870   23.0710 C   0  0  0  0  0  0  0  0  0  0  0  0
  -18.9100  -29.8010   23.7680 C   0  0  0  0  0  3  0  0  0  0  0  0
  -17.6190  -30.2940   24.0380 C   0  0  0  0  0  3  0  0  0  0  0  0
  -16.4870  -29.5720   23.6220 C   0  0  0  0  0  3  0  0  0  0  0  0
  -16.6500  -28.3600   22.9270 C   0  0  0  0  0  3  0  0  0  0  0  0
  -25.7700  -32.2530   23.5720 C   0  0  0  0  0  3  0  0  0  0  0  0
  -25.4260  -33.6240   23.9910 N   0  0  0  0  0  0  0  0  0  0  0  0
  -25.7130  -34.7350   23.3000 C   0  0  0  0  0  0  0  0  0  0  0  0
  -26.3580  -34.7160   22.2490 O   0  0  0  0  0  0  0  0  0  0  0  0
  -24.8490  -33.7090   24.8160 H   0  0  0  0  0  0  0  0  0  0  0  0
  -23.9300  -36.5030   23.1150 C   0  0  0  0  0  1  0  0  0  0  0  0
  -25.2050  -36.0790   23.8610 C   0  0  0  0  0  3  0  0  0  0  0  0
  -27.3400  -36.9710   24.6880 C   0  0  0  0  0  1  0  0  0  0  0  0
  -26.2050  -37.1670   23.7880 N   0  0  0  0  0  0  0  0  0  0  0  0
  -25.7790  -38.0620   24.0080 H   0  0  0  0  0  0  0  0  0  0  0  0
  -26.3120  -31.4290   24.8060 C   0  0  1  0  0  0  0  0  0  0  0  0
  -25.2340  -31.1220   25.8710 C   0  0  0  0  0  1  0  0  0  0  0  0
  -26.9140  -30.0800   24.3480 C   0  0  0  0  0  1  0  0  0  0  0  0
  -27.4550  -32.2100   25.4950 C   0  0  0  0  0  1  0  0  0  0  0  0
  2  7  1  0
  3  4  1  0
  3  2  1  0
  5  4  1  0
  5 23  1  0
  5  6  1  0
  7  1  1  0
  7  6  1  0
  8  1  2  0
  9 11  2  0
 10 12  1  0
 11 15  1  0
 12 16  2  0
 12 11  1  0
 13 10  1  0
 13 14  2  0
 14  9  1  0
 16 19  1  0
 17 15  2  0
 18 13  1  0
 19  1  1  0
 19 17  1  0
 20 21  2  0
 21 40  1  0
 22 21  1  0
 22 25  1  0
 23 20  1  0
 23 24  1  0
 24 22  2  0
 25 26  1  0
 26 27  2  0
 28 31  1  0
 28 27  1  0
 29 28  2  0
 30 29  1  0
 30 25  2  0
 31 32  1  0
 32 33  1  0
 33 34  2  0
 35 34  1  0
 35 39  1  0
 36 35  2  0
 37 32  2  0
 37 36  1  0
 38 37  1  0
 40 41  1  0
 41 44  1  0
 41 43  1  0
 42 40  2  0
 45 46  1  0
 45 20  1  0
 47 45  1  0
 48 49  1  0
 48 14  1  0
 49 51  1  0
 50 61  2  0
 51 56  1  0
 52 60  1  0
 52 62  1  0
 53 59  1  0
 53 55  1  0
 54 60  1  0
 55 54  1  0
 56 55  2  0
 57 58  1  0
 57 51  2  0
 58 53  2  0
 59 52  1  0
 60 50  1  0
 62 64  2  0
 63 62  1  0
 65 63  1  0
 66 75  2  0
 66 71  1  0
 67 63  1  0
 67 71  1  0
 68 67  1  0
 69 70  1  0
 69 68  1  0
 70 66  1  0
 71 72  2  0
 72 73  1  0
 74 73  2  0
 75 74  1  0
 76 50  1  0
 76 77  1  0
 76 86  1  0
 77 80  1  0
 78 82  1  0
 78 77  1  0
 79 78  2  0
 82 81  1  0
 84 82  1  0
 84 85  1  0
 84 83  1  0
 86 89  1  1
 86 87  1  0
 88 86  1  0
M  ISO  4   1 100  19 100  48 101  49 101
M  END
>  <TORSDO>  (78) 
F 16

>  <SCORE>  (78) 
-15.783

>  <name>  (78) 
77

>  <ligand_id>  (78) 
77

>  <original_smiles>  (78) 
[H]c1c([H])c([H])c2c(c1[H])C([H])([H])C([H])([H])C([H])([H])C2([H])N([H])C(=O)C1([H])N(C(=O)C([H])(N([H])C(=O)C([H])(N([H])C([H])([H])[H])C([H])([H])[H])C(C([H])([H])[H])(C([H])([H])[H])C([H])([H])[H])C([H])([H])c2c([H])c(OC([H])([H])c3c([H])c4c(c([H])c3C([H])([H])[H])C([H])([H])N(C(=O)N3C([H])([H])C([H])([H])C([H])([H])C([H])(n5nc(-c6c([H])c([H])c(Oc7c([H])c([H])c(F)c([H])c7F)c([H])c6[H])c(C(=O)N([H])[H])c5N([H])[H])C3([H])[H])C([H])([H])C4([H])[H])c([H])c([H])c2C1([H])[H]

>  <smiles>  (78) 
[H]c1c([H])c([H])c2c(c1[H])C([H])([H])C([H])([H])C([H])([H])C2([H])N([H])C(=O)C1([H])N(C(=O)C([H])(N([H])C(=O)C([H])(N([H])C([H])([H])[H])C([H])([H])[H])C(C([H])([H])[H])(C([H])([H])[H])C([H])([H])[H])C([H])([H])c2c([H])c(OC([H])([H])c3c([H])c4c(c([H])c3C([H])([H])[H])C([H])([H])N(C(=O)N3C([H])([H])C([H])([H])C([H])([H])C([H])(n5nc(-c6c([H])c([H])c(Oc7c([H])c([H])c(F)c([H])c7F)c([H])c6[H])c(C(=O)N([H])[H])c5N([H])[H])C3([H])[H])C([H])([H])C4([H])[H])c([H])c([H])c2C1([H])[H]

$$$$
78:0:0
     RDKit          3D

 98101  0  0  1  0  0  0  0  0999 V2000
  -24.6660  -15.5090   20.1080 C   0  0  0  0  0  1  0  0  0  0  0  0
  -26.9160  -15.3810   21.8810 C   0  0  0  0  0  2  0  0  0  0  0  0
  -26.1140  -16.7520   20.7890 C   0  0  0  0  0  1  0  0  0  0  0  0
  -23.7210  -13.8760   20.7860 C   0  0  0  0  0  1  0  0  0  0  0  0
  -26.2940  -13.7230   22.8550 C   0  0  0  0  0  3  0  0  0  0  0  0
  -24.0670  -15.3540   18.7130 C   0  0  0  0  0  2  0  0  0  0  0  0
  -23.2270  -13.9510   18.6610 C   0  0  0  0  0  2  0  0  0  0  0  0
  -22.4780  -13.4790   19.9420 C   0  0  2  0  0  0  0  0  0  0  0  0
  -21.0970  -14.1920   20.2100 C   0  0  0  0  0  1  0  0  0  0  0  0
  -21.9520  -11.9710   20.0760 C   0  0  0  0  0  1  0  0  0  0  0  0
  -24.5110  -12.9460   22.3160 N   0  0  0  0  0 15  0  0  0  0  0  0
  -30.8020  -13.0860   18.2430 C   0  0  0  0  0  0  0  0  0  0  0  0
  -30.1880  -11.1120   16.7530 C   0  0  0  0  0  3  0  0  0  0  0  0
  -28.7320  -10.8540   16.2310 C   0  0  0  0  0  3  0  0  0  0  0  0
  -27.5370  -11.2570   17.1280 C   0  0  0  0  0  2  0  0  0  0  0  0
  -28.0530  -11.8000   18.4780 C   0  0  0  0  0  3  0  0  0  0  0  0
  -29.3800  -11.1950   18.9890 C   0  0  0  0  0  2  0  0  0  0  0  0
  -30.3060  -11.8180   18.0780 N   0  0  0  0  0  0  0  0  0  0  0  0
  -31.4100  -13.5460   17.2630 O   0  0  0  0  0  0  0  0  0  0  0  0
  -29.6120  -16.0460   20.7760 C   0  0  0  0  0  3  0  0  0  0  0  0
  -29.2090  -13.7460   21.8100 C   0  0  0  0  0  3  0  0  0  0  0  0
  -30.2790  -15.3380   19.4390 C   0  0  0  0  0  2  0  0  0  0  0  0
  -30.4490  -13.3950   20.8550 C   0  0  0  0  0  3  0  0  0  0  0  0
  -28.5390  -15.1460   21.5950 C   0  0  0  0  0  0  0  0  0  0  0  0
  -30.3880  -13.8190   19.4090 N   0  0  0  0  0  0  0  0  0  0  0  0
  -26.8050  -13.3510   19.9480 C   0  0  0  0  0  3  0  0  0  0  0  0
  -26.0780  -13.3340   20.9990 C   0  0  0  0  0  3  0  0  0  0  0  0
  -25.6830  -11.6170   20.7980 C   0  0  0  0  0  3  0  0  0  0  0  0
  -27.1020  -12.0710   19.4620 N   0  0  0  0  0  0  0  0  0  0  0  0
  -26.4550  -11.0620   19.9570 N   0  0  0  0  0  2  0  0  0  0  0  0
  -24.7650  -10.2040   21.2150 C   0  0  0  0  0  0  0  0  0  0  0  0
  -25.2040   -8.8460   21.6920 C   0  0  0  0  0  3  0  0  0  0  0  0
  -24.3690   -7.6510   21.9950 C   0  0  0  0  0  3  0  0  0  0  0  0
  -23.0130   -7.6050   21.6680 C   0  0  0  0  0  0  0  0  0  0  0  0
  -22.5290   -8.7960   21.0850 C   0  0  0  0  0  3  0  0  0  0  0  0
  -23.3540   -9.9980   21.0190 C   0  0  0  0  0  3  0  0  0  0  0  0
  -22.1860   -6.4660   21.8140 O   0  0  0  0  0  0  0  0  0  0  0  0
  -21.8810   -5.8490   23.0360 C   0  0  0  0  0  0  0  0  0  0  0  0
  -21.1130   -6.5070   24.0250 C   0  0  0  0  0  3  0  0  0  0  0  0
  -20.7630   -5.8560   25.2320 C   0  0  0  0  0  3  0  0  0  0  0  0
  -21.1830   -4.5360   25.4820 C   0  0  0  0  0  0  0  0  0  0  0  0
  -21.9090   -3.8550   24.4990 C   0  0  0  0  0  3  0  0  0  0  0  0
  -22.2540   -4.4990   23.2890 C   0  0  0  0  0  0  0  0  0  0  0  0
  -22.9440   -3.7990   22.3530 F   0  0  0  0  0  0  0  0  0  0  0  0
  -20.8620   -3.9350   26.6410 F   0  0  0  0  0  0  0  0  0  0  0  0
  -24.9410  -15.1280   22.9120 C   0  0  0  0  0  3  0  0  0  0  0  0
  -24.6690  -14.6350   24.2350 N   0  0  0  0  0  0  0  0  0  0  0  0
  -23.8190  -15.6430   22.8280 O   0  0  0  0  0  1  0  0  0  0  0  0
  -23.9070  -14.8490   24.7940 H   0  0  0  0  0  0  0  0  0  0  0  0
  -24.6150  -13.6620   24.1190 H   0  0  0  0  0  0  0  0  0  0  0  0
  -27.2680  -14.4450   19.3600 N   0  0  0  0  0  0  0  0  0  0  0  0
  -26.4380  -14.9590   19.5960 H   0  0  0  0  0  0  0  0  0  0  0  0
  -27.2460  -13.9540   18.5020 H   0  0  0  0  0  0  0  0  0  0  0  0
  -27.0570  -13.1780   23.8610 N   0  0  0  0  0  0  0  0  0  0  0  0
  -27.6370  -13.8890   24.3300 H   0  0  0  0  0  0  0  0  0  0  0  0
  -26.6200  -12.5700   24.5870 H   0  0  0  0  0  0  0  0  0  0  0  0
  -26.6110  -19.4560   20.3930 C   0  0  0  0  0 15  0  0  0  0  0  0
  -27.5150  -21.9860   20.3780 O   0  0  0  0  0 15  0  0  0  0  0  0
  -26.2710  -30.7080   22.9550 C   0  0  0  0  0  0  0  0  0  0  0  0
  -27.4960  -24.0300   20.2550 C   0  0  0  0  0  2  0  0  0  0  0  0
  -25.1630  -29.3700   21.2400 C   0  0  0  0  0  3  0  0  0  0  0  0
  -26.4000  -27.3570   19.9290 C   0  0  0  0  0  0  0  0  0  0  0  0
  -27.6250  -28.7010   21.5720 C   0  0  0  0  0  2  0  0  0  0  0  0
  -27.4120  -27.1470   20.8630 C   0  0  0  0  0  0  0  0  0  0  0  0
  -27.9190  -25.5650   20.9630 C   0  0  0  0  0  2  0  0  0  0  0  0
  -26.8450  -24.8800   19.2010 C   0  0  0  0  0  3  0  0  0  0  0  0
  -26.2900  -26.2420   19.0640 C   0  0  0  0  0  3  0  0  0  0  0  0
  -25.4810  -28.6400   19.8680 C   0  0  0  0  0  2  0  0  0  0  0  0
  -26.4360  -29.6930   21.9630 N   0  0  0  0  0  0  0  0  0  0  0  0
  -25.1370  -31.1250   23.3010 O   0  0  0  0  0  0  0  0  0  0  0  0
  -24.2590  -28.4980   22.1690 C   0  0  0  0  0  0  0  0  0  0  0  0
  -22.9170  -28.5360   22.0230 N   0  0  0  0  0  0  0  0  0  0  0  0
  -24.8010  -27.7770   23.0180 O   0  0  0  0  0  0  0  0  0  0  0  0
  -22.5260  -29.1620   21.3270 H   0  0  0  0  0  0  0  0  0  0  0  0
  -19.4290  -27.6790   22.4900 C   0  0  0  0  0  0  0  0  0  0  0  0
  -21.9960  -27.6530   22.7480 C   0  0  0  0  0  3  0  0  0  0  0  0
  -21.9430  -26.2670   22.0770 C   0  0  0  0  0  2  0  0  0  0  0  0
  -20.8220  -26.1500   21.0350 C   0  0  0  0  0  2  0  0  0  0  0  0
  -19.4560  -26.3890   21.6910 C   0  0  0  0  0  2  0  0  0  0  0  0
  -20.6210  -28.2820   22.9690 C   0  0  0  0  0  0  0  0  0  0  0  0
  -20.5300  -29.4930   23.6860 C   0  0  0  0  0  3  0  0  0  0  0  0
  -19.2810  -30.1030   23.9180 C   0  0  0  0  0  3  0  0  0  0  0  0
  -18.1020  -29.4940   23.4470 C   0  0  0  0  0  3  0  0  0  0  0  0
  -18.1790  -28.2810   22.7400 C   0  0  0  0  0  3  0  0  0  0  0  0
  -27.4400  -31.4090   23.7370 C   0  0  0  0  0  3  0  0  0  0  0  0
  -26.9830  -32.7390   24.2440 N   0  0  0  0  0  0  0  0  0  0  0  0
  -27.4260  -33.9520   23.8700 C   0  0  0  0  0  0  0  0  0  0  0  0
  -28.2940  -34.0880   23.0080 O   0  0  0  0  0  0  0  0  0  0  0  0
  -26.2190  -32.7080   24.9030 H   0  0  0  0  0  0  0  0  0  0  0  0
  -25.7910  -35.8730   23.6330 C   0  0  0  0  0  1  0  0  0  0  0  0
  -26.8300  -35.2140   24.5550 C   0  0  0  0  0  3  0  0  0  0  0  0
  -28.7010  -35.8280   26.0370 C   0  0  0  0  0  1  0  0  0  0  0  0
  -27.8420  -36.2330   24.9290 N   0  0  0  0  0  0  0  0  0  0  0  0
  -27.3920  -37.1090   25.1780 H   0  0  0  0  0  0  0  0  0  0  0  0
  -27.9550  -30.5760   24.9850 C   0  0  1  0  0  0  0  0  0  0  0  0
  -26.8300  -30.1560   25.9630 C   0  0  0  0  0  1  0  0  0  0  0  0
  -28.6680  -29.2960   24.5290 C   0  0  0  0  0  1  0  0  0  0  0  0
  -28.9970  -31.3940   25.7810 C   0  0  0  0  0  1  0  0  0  0  0  0
  3  2  1  0
  5 46  1  0
  5 54  1  0
  6  1  1  0
  7  6  1  0
  7  8  1  0
  8 10  1  6
  8  9  1  0
  8  4  1  0
 12 25  1  0
 13 18  1  0
 14 13  2  0
 14 15  1  0
 16 15  1  0
 16 17  1  0
 16 29  1  0
 18 12  1  0
 18 17  1  0
 19 12  2  0
 20 24  2  0
 22 20  1  0
 23 21  2  0
 24 21  1  0
 24  2  1  0
 25 22  1  0
 25 23  1  0
 26 51  1  0
 26 27  1  0
 27  5  1  0
 28 27  1  0
 28 31  1  0
 29 26  1  0
 29 30  1  0
 30 28  1  0
 31 32  1  0
 32 33  2  0
 34 37  1  0
 34 33  1  0
 35 34  2  0
 36 35  1  0
 36 31  2  0
 37 38  1  0
 38 43  2  0
 38 39  1  0
 39 40  2  0
 40 41  1  0
 41 45  1  0
 42 41  2  0
 43 42  1  0
 44 43  1  0
 46 48  1  0
 46 47  1  0
 47 49  1  0
 50 47  1  0
 51 52  1  0
 53 51  1  0
 54 55  1  0
 54 56  1  0
 59 70  2  0
 60 65  1  0
 61 69  1  0
 61 71  1  0
 62 64  2  0
 63 69  1  0
 64 65  1  0
 64 63  1  0
 66 60  1  0
 67 66  2  0
 67 62  1  0
 68 62  1  0
 68 61  1  0
 69 59  1  0
 71 73  2  0
 72 71  1  0
 74 72  1  0
 75 84  2  0
 75 80  1  0
 76 72  1  0
 76 80  1  0
 77 76  1  0
 78 79  1  0
 78 77  1  0
 79 75  1  0
 80 81  2  0
 81 82  1  0
 83 82  2  0
 84 83  1  0
 85 59  1  0
 85 86  1  0
 85 95  1  0
 86 89  1  0
 87 86  1  0
 87 91  1  0
 88 87  2  0
 91 90  1  0
 91 93  1  0
 93 94  1  0
 93 92  1  0
 95 98  1  1
 95 96  1  0
 97 95  1  0
M  ISO  4  12 100  25 100  57 101  58 101
M  END
>  <TORSDO>  (79) 
F 18

>  <SCORE>  (79) 
28.326

>  <name>  (79) 
78

>  <ligand_id>  (79) 
78

>  <original_smiles>  (79) 
[H]c1c([H])c([H])c2c(c1[H])C([H])([H])C([H])([H])C([H])([H])C2([H])N([H])C(=O)C1([H])N(C(=O)C([H])(N([H])C(=O)C([H])(N([H])C([H])([H])[H])C([H])([H])[H])C(C([H])([H])[H])(C([H])([H])[H])C([H])([H])[H])C([H])([H])c2c([H])c(OC([H])([H])c3c4c(nc(N([H])[H])c3C3([H])C([H])([H])C([H])([H])N(C(=O)N5C([H])([H])C([H])([H])C([H])([H])C([H])(n6nc(-c7c([H])c([H])c(Oc8c([H])c([H])c(F)c([H])c8F)c([H])c7[H])c(C(=O)N([H])[H])c6N([H])[H])C5([H])[H])C([H])([H])C3([H])[H])C(C([H])([H])[H])(C([H])([H])[H])C([H])([H])C4([H])[H])c([H])c([H])c2C1([H])[H]

>  <smiles>  (79) 
[H]c1c([H])c([H])c2c(c1[H])C([H])([H])C([H])([H])C([H])([H])C2([H])N([H])C(=O)C1([H])N(C(=O)C([H])(N([H])C(=O)C([H])(N([H])C([H])([H])[H])C([H])([H])[H])C(C([H])([H])[H])(C([H])([H])[H])C([H])([H])[H])C([H])([H])c2c([H])c(OC([H])([H])c3c4c(nc(N([H])[H])c3C3([H])C([H])([H])C([H])([H])N(C(=O)N5C([H])([H])C([H])([H])C([H])([H])C([H])(n6nc(-c7c([H])c([H])c(Oc8c([H])c([H])c(F)c([H])c8F)c([H])c7[H])c(C(=O)N([H])[H])c6N([H])[H])C5([H])[H])C([H])([H])C3([H])[H])C(C([H])([H])[H])(C([H])([H])[H])C([H])([H])C4([H])[H])c([H])c([H])c2C1([H])[H]

$$$$
79:0:0
     RDKit          3D

100106  0  0  1  0  0  0  0  0999 V2000
  -25.4500  -23.9390   19.8200 C   0  0  0  0  0  2  0  0  0  0  0  0
  -25.3530  -22.5730   19.2440 C   0  0  0  0  0  3  0  0  0  0  0  0
  -24.8490  -25.3650   19.5090 C   0  0  0  0  0  3  0  0  0  0  0  0
  -24.1280  -23.0680   18.4350 C   0  0  0  0  0  0  0  0  0  0  0  0
  -23.4480  -25.7700   18.7620 C   0  0  0  0  0  0  0  0  0  0  0  0
  -23.3130  -24.3640   18.3230 N   0  0  0  0  0  0  0  0  0  0  0  0
  -23.6700  -22.0880   17.5500 N   0  0  0  0  0  0  0  0  0  0  0  0
  -24.2130  -21.2310   17.5390 H   0  0  0  0  0  0  0  0  0  0  0  0
  -30.6880  -16.6510   19.9770 C   0  0  0  0  0  0  0  0  0  0  0  0
  -31.5680  -14.0390   19.7460 C   0  0  0  0  0  2  0  0  0  0  0  0
  -30.9540  -13.2190   18.5570 C   0  0  0  0  0  2  0  0  0  0  0  0
  -29.4890  -12.8490   18.8460 C   0  0  0  0  0  2  0  0  0  0  0  0
  -28.8000  -14.0250   19.5670 C   0  0  0  0  0  3  0  0  0  0  0  0
  -29.5410  -14.5130   20.8030 C   0  0  0  0  0  2  0  0  0  0  0  0
  -30.6370  -15.2050   20.2080 N   0  0  0  0  0  0  0  0  0  0  0  0
  -31.9260  -16.7880   19.7020 O   0  0  0  0  0  0  0  0  0  0  0  0
  -27.9620  -20.3500   18.6020 C   0  0  0  0  0  2  0  0  0  0  0  0
  -27.3660  -20.0680   20.6410 C   0  0  0  0  0  2  0  0  0  0  0  0
  -28.9850  -18.8330   18.6700 C   0  0  0  0  0  2  0  0  0  0  0  0
  -28.3410  -18.5210   20.7460 C   0  0  0  0  0  2  0  0  0  0  0  0
  -26.4980  -20.9220   19.3810 C   0  0  0  0  0  2  0  0  0  0  0  0
  -29.4840  -17.7840   19.8270 N   0  0  0  0  0  0  0  0  0  0  0  0
  -26.4800  -14.7730   20.1060 C   0  0  0  0  0  0  0  0  0  0  0  0
  -25.3620  -14.0880   20.4620 C   0  0  0  0  0  0  0  0  0  0  0  0
  -25.7410  -12.7110   20.5090 C   0  0  0  0  0  0  0  0  0  0  0  0
  -27.4480  -13.8090   19.9410 N   0  0  0  0  0  0  0  0  0  0  0  0
  -27.0320  -12.5670   20.2620 N   0  0  0  0  0  0  0  0  0  0  0  0
  -24.9360  -11.5120   20.6960 C   0  0  0  0  0  0  0  0  0  0  0  0
  -25.1410  -10.6450   21.7900 C   0  0  0  0  0  3  0  0  0  0  0  0
  -24.3320   -9.5000   21.9470 C   0  0  0  0  0  3  0  0  0  0  0  0
  -23.3130   -9.2210   21.0070 C   0  0  0  0  0  0  0  0  0  0  0  0
  -23.1350  -10.0740   19.9040 C   0  0  0  0  0  3  0  0  0  0  0  0
  -23.9430  -11.2090   19.7450 C   0  0  0  0  0  3  0  0  0  0  0  0
  -22.4910   -8.1230   21.0660 O   0  0  0  0  0  0  0  0  0  0  0  0
  -22.1210   -7.5710   22.2650 C   0  0  0  0  0  0  0  0  0  0  0  0
  -21.3860   -8.2980   23.2260 C   0  0  0  0  0  3  0  0  0  0  0  0
  -20.9660   -7.6680   24.4130 C   0  0  0  0  0  3  0  0  0  0  0  0
  -21.2690   -6.3110   24.6360 C   0  0  0  0  0  0  0  0  0  0  0  0
  -21.9980   -5.5850   23.6780 C   0  0  0  0  0  3  0  0  0  0  0  0
  -22.4200   -6.2130   22.4940 C   0  0  0  0  0  0  0  0  0  0  0  0
  -23.1030   -5.5050   21.5630 F   0  0  0  0  0  0  0  0  0  0  0  0
  -20.8590   -5.7020   25.7730 F   0  0  0  0  0  0  0  0  0  0  0  0
  -23.9980  -14.6750   20.6340 C   0  0  0  0  0  0  0  0  0  0  0  0
  -23.2030  -14.1120   21.5330 N   0  0  0  0  0  0  0  0  0  0  0  0
  -23.6520  -15.6730   20.0010 O   0  0  0  0  0  0  0  0  0  0  0  0
  -23.5030  -13.3070   22.0640 H   0  0  0  0  0  0  0  0  0  0  0  0
  -22.2810  -14.4910   21.6950 H   0  0  0  0  0  0  0  0  0  0  0  0
  -26.7480  -16.1200   19.8820 N   0  0  0  0  0  0  0  0  0  0  0  0
  -26.0220  -16.8250   19.9460 H   0  0  0  0  0  0  0  0  0  0  0  0
  -27.6400  -16.4970   19.5900 H   0  0  0  0  0  0  0  0  0  0  0  0
  -23.5850  -23.7100   15.5540 C   0  0  0  0  0  2  0  0  0  0  0  0
  -23.7850  -22.3180   14.9930 C   0  0  0  0  0  2  0  0  0  0  0  0
  -23.0500  -22.5070   16.2970 C   0  0  0  0  0  3  0  0  0  0  0  0
  -22.3990  -29.0580   16.5440 C   0  0  0  0  0 15  0  0  0  0  0  0
  -22.3060  -27.1660   18.3190 O   0  0  0  0  0  0  0  0  0  0  0  0
  -26.2330  -26.2150   19.8070 C   0  0  0  0  0  3  0  0  0  0  0  0
  -25.7940  -28.1540   17.9420 C   0  0  0  0  0  1  0  0  0  0  0  0
  -26.6220  -26.9820   18.4720 C   0  0  0  0  0  2  0  0  0  0  0  0
  -27.2370  -25.9180   21.1110 C   0  0  0  0  0  2  0  0  0  0  0  0
  -28.7400  -26.2500   21.2910 O   0  0  0  0  0  0  0  0  0  0  0  0
  -26.5600  -30.4020   26.1430 C   0  0  0  0  0  0  0  0  0  0  0  0
  -28.8600  -27.5920   21.3920 C   0  0  0  0  0  0  0  0  0  0  0  0
  -25.6240  -30.4560   23.8930 C   0  0  0  0  0  3  0  0  0  0  0  0
  -27.0900  -29.6160   21.9950 C   0  0  0  0  0  0  0  0  0  0  0  0
  -28.1090  -30.0550   24.2230 C   0  0  0  0  0  2  0  0  0  0  0  0
  -28.0800  -29.2790   22.9280 C   0  0  0  0  0  0  0  0  0  0  0  0
  -28.9670  -28.2160   22.6530 C   0  0  0  0  0  3  0  0  0  0  0  0
  -28.1530  -28.1920   20.3650 C   0  0  0  0  0  3  0  0  0  0  0  0
  -27.1430  -29.0960   20.6990 C   0  0  0  0  0  3  0  0  0  0  0  0
  -26.0550  -30.6250   22.4130 C   0  0  0  0  0  2  0  0  0  0  0  0
  -26.7790  -30.3130   24.8050 N   0  0  0  0  0  0  0  0  0  0  0  0
  -25.4330  -30.6440   26.6030 O   0  0  0  0  0  0  0  0  0  0  0  0
  -24.7350  -29.2310   24.0600 C   0  0  0  0  0  0  0  0  0  0  0  0
  -23.4920  -29.3600   23.6780 N   0  0  0  0  0  0  0  0  0  0  0  0
  -25.1520  -28.1640   24.5100 O   0  0  0  0  0  0  0  0  0  0  0  0
  -23.1360  -30.2500   23.3620 H   0  0  0  0  0  0  0  0  0  0  0  0
  -19.9710  -28.0850   22.4400 C   0  0  0  0  0  0  0  0  0  0  0  0
  -22.8530  -28.1550   23.2550 C   0  0  0  0  0  2  0  0  0  0  0  0
  -23.7600  -27.8710   21.4320 C   0  0  0  0  0 15  0  0  0  0  0  0
  -22.2320  -27.3660   19.8820 C   0  0  0  0  0  1  0  0  0  0  0  0
  -20.3360  -27.3290   20.7740 C   0  0  0  0  0  1  0  0  0  0  0  0
  -21.0730  -28.3990   23.5150 C   0  0  0  0  0  0  0  0  0  0  0  0
  -20.7430  -29.4350   24.4980 C   0  0  0  0  0  3  0  0  0  0  0  0
  -19.5550  -30.2130   24.5300 C   0  0  0  0  0  3  0  0  0  0  0  0
  -18.5870  -29.9890   23.5440 C   0  0  0  0  0  3  0  0  0  0  0  0
  -18.8090  -28.9760   22.5540 C   0  0  0  0  0  3  0  0  0  0  0  0
  -27.7220  -30.2110   27.1490 C   0  0  0  0  0  3  0  0  0  0  0  0
  -27.8740  -31.4870   27.8560 N   0  0  0  0  0  0  0  0  0  0  0  0
  -28.6780  -32.4760   27.4490 C   0  0  0  0  0  0  0  0  0  0  0  0
  -29.4380  -32.3720   26.4820 O   0  0  0  0  0  0  0  0  0  0  0  0
  -27.2420  -31.6660   28.6240 H   0  0  0  0  0  0  0  0  0  0  0  0
  -27.6850  -34.7800   27.5590 C   0  0  0  0  0  1  0  0  0  0  0  0
  -28.6340  -33.7880   28.2480 C   0  0  0  0  0  3  0  0  0  0  0  0
  -30.8660  -33.6050   29.2510 C   0  0  0  0  0  1  0  0  0  0  0  0
  -29.9660  -34.4060   28.4230 N   0  0  0  0  0  0  0  0  0  0  0  0
  -29.8840  -35.3260   28.8460 H   0  0  0  0  0  0  0  0  0  0  0  0
  -27.4830  -29.0240   28.1570 C   0  0  1  0  0  0  0  0  0  0  0  0
  -26.0490  -28.9710   28.7310 C   0  0  0  0  0  1  0  0  0  0  0  0
  -27.7620  -27.6600   27.4830 C   0  0  0  0  0  1  0  0  0  0  0  0
  -28.4750  -29.1450   29.3310 C   0  0  0  0  0  1  0  0  0  0  0  0
  2  1  1  0
  3 56  1  0
  3  1  1  0
  4  2  2  0
  5  3  1  0
  6  4  1  0
  6  5  2  0
  7  4  1  0
  8  7  1  0
  9 15  1  0
 10 15  1  0
 11 12  1  0
 11 10  1  0
 13 12  1  0
 13 26  1  0
 13 14  1  0
 15 14  1  0
 16  9  2  0
 17 19  1  0
 17 21  1  0
 18 20  1  0
 19 22  1  0
 21 18  1  0
 22  9  1  0
 22 20  1  0
 23 24  2  0
 24 25  1  0
 24 43  1  0
 25 28  1  0
 26 23  1  0
 26 27  1  0
 27 25  2  0
 28 29  1  0
 29 30  2  0
 31 34  1  0
 31 30  1  0
 32 31  2  0
 33 32  1  0
 33 28  2  0
 34 35  1  0
 35 40  2  0
 35 36  1  0
 36 37  2  0
 37 38  1  0
 38 42  1  0
 39 38  2  0
 40 39  1  0
 41 40  1  0
 43 44  1  0
 44 47  1  0
 44 46  1  0
 45 43  2  0
 48 49  1  0
 48 23  1  0
 50 48  1  0
 51 53  1  0
 52 51  1  0
 52 53  1  0
 53  7  1  0
 55  5  1  0
 55 80  1  0
 56 58  1  0
 56 59  1  0
 57 58  1  0
 59 60  1  0
 60 62  1  0
 61 72  2  0
 62 67  1  0
 63 73  1  0
 63 71  1  0
 64 70  1  0
 64 66  1  0
 65 71  1  0
 66 65  1  0
 67 66  2  0
 68 69  1  0
 68 62  2  0
 69 64  2  0
 70 63  1  0
 71 61  1  0
 73 75  2  0
 74 73  1  0
 76 74  1  0
 77 86  2  0
 77 82  1  0
 78 82  1  0
 78 74  1  0
 81 77  1  0
 82 83  2  0
 83 84  1  0
 85 84  2  0
 86 85  1  0
 87 61  1  0
 87 88  1  0
 87 97  1  0
 88 91  1  0
 89 88  1  0
 89 93  1  0
 90 89  2  0
 93 92  1  0
 93 95  1  0
 95 96  1  0
 95 94  1  0
 97 98  1  1
 97100  1  0
 99 97  1  0
M  ISO  4   9 100  22 100  59 101  60 101
M  END
>  <TORSDO>  (80) 
F 21

>  <SCORE>  (80) 
-1.251

>  <name>  (80) 
79

>  <ligand_id>  (80) 
79

>  <original_smiles>  (80) 
[H]c1c([H])c([H])c2c(c1[H])C([H])([H])C([H])([H])C([H])([H])C2([H])N([H])C(=O)C1([H])N(C(=O)C([H])(N([H])C(=O)C([H])(N([H])C([H])([H])[H])C([H])([H])[H])C(C([H])([H])[H])(C([H])([H])[H])C([H])([H])[H])C([H])([H])c2c([H])c(OC([H])([H])C([H])(c3c(OC([H])([H])[H])nc(N([H])C4([H])C([H])([H])C4([H])[H])c(C4([H])C([H])([H])C([H])([H])N(C(=O)N5C([H])([H])C([H])([H])C([H])([H])C([H])(n6nc(-c7c([H])c([H])c(Oc8c([H])c([H])c(F)c([H])c8F)c([H])c7[H])c(C(=O)N([H])[H])c6N([H])[H])C5([H])[H])C([H])([H])C4([H])[H])c3[H])C([H])([H])C([H])([H])[H])c([H])c([H])c2C1([H])[H]

>  <smiles>  (80) 
[H]c1c([H])c([H])c2c(c1[H])C([H])([H])C([H])([H])C([H])([H])C2([H])N([H])C(=O)C1([H])N(C(=O)C([H])(N([H])C(=O)C([H])(N([H])C([H])([H])[H])C([H])([H])[H])C(C([H])([H])[H])(C([H])([H])[H])C([H])([H])[H])C([H])([H])c2c([H])c(OC([H])([H])C([H])(c3c(OC([H])([H])[H])nc(N([H])C4([H])C([H])([H])C4([H])[H])c(C4([H])C([H])([H])C([H])([H])N(C(=O)N5C([H])([H])C([H])([H])C([H])([H])C([H])(n6nc(-c7c([H])c([H])c(Oc8c([H])c([H])c(F)c([H])c8F)c([H])c7[H])c(C(=O)N([H])[H])c6N([H])[H])C5([H])[H])C([H])([H])C4([H])[H])c3[H])C([H])([H])C([H])([H])[H])c([H])c([H])c2C1([H])[H]

$$$$
80:0:0
     RDKit          3D

 91100  0  0  1  0  0  0  0  0999 V2000
  -30.1800  -22.6520   21.8290 C   0  0  0  0  0  3  0  0  0  0  0  0
  -30.8170  -21.7520   22.6100 C   0  0  0  0  0  0  0  0  0  0  0  0
  -30.4520  -20.4560   22.1600 C   0  0  0  0  0  0  0  0  0  0  0  0
  -29.6700  -20.5390   21.0140 C   0  0  0  0  0  0  0  0  0  0  0  0
  -31.7390  -22.0890   23.7540 C   0  0  0  0  0  1  0  0  0  0  0  0
  -30.9380  -19.2270   22.9040 C   0  0  0  0  0  1  0  0  0  0  0  0
  -29.3930  -22.0380   20.8730 N   0  0  0  0  0  0  0  0  0  0  0  0
  -30.4290  -15.0860   20.0790 C   0  0  0  0  0  0  0  0  0  0  0  0
  -30.2580  -12.7480   19.0680 C   0  0  0  0  0  2  0  0  0  0  0  0
  -29.2830  -12.6850   17.8690 C   0  0  0  0  0  2  0  0  0  0  0  0
  -27.8410  -12.4450   18.3500 C   0  0  0  0  0  2  0  0  0  0  0  0
  -27.4680  -13.3420   19.5570 C   0  0  0  0  0  3  0  0  0  0  0  0
  -28.5670  -13.3490   20.6410 C   0  0  0  0  0  2  0  0  0  0  0  0
  -29.7900  -13.8360   19.9870 N   0  0  0  0  0  0  0  0  0  0  0  0
  -31.6330  -15.0710   19.7870 O   0  0  0  0  0  0  0  0  0  0  0  0
  -28.2070  -18.2290   20.9660 C   0  0  0  0  0  2  0  0  0  0  0  0
  -28.3770  -16.7000   20.5980 C   0  0  0  0  0  2  0  0  0  0  0  0
  -30.3330  -17.8170   20.0530 C   0  0  0  0  0  2  0  0  0  0  0  0
  -29.2820  -19.0990   20.2720 C   0  0  0  0  0  3  0  0  0  0  0  0
  -29.7680  -16.3730   20.2310 N   0  0  0  0  0  0  0  0  0  0  0  0
  -25.1000  -13.8880   20.3500 C   0  0  0  0  0  0  0  0  0  0  0  0
  -24.0580  -13.1010   20.7490 C   0  0  0  0  0  0  0  0  0  0  0  0
  -24.5420  -11.7580   20.7170 C   0  0  0  0  0  0  0  0  0  0  0  0
  -26.1510  -13.0250   20.0930 N   0  0  0  0  0  0  0  0  0  0  0  0
  -25.8270  -11.7380   20.3810 N   0  0  0  0  0  0  0  0  0  0  0  0
  -23.8380  -10.4870   20.9290 C   0  0  0  0  0  0  0  0  0  0  0  0
  -24.3050   -9.5280   21.8540 C   0  0  0  0  0  3  0  0  0  0  0  0
  -23.5970   -8.3240   22.0560 C   0  0  0  0  0  3  0  0  0  0  0  0
  -22.4080   -8.0690   21.3310 C   0  0  0  0  0  0  0  0  0  0  0  0
  -21.9620   -9.0170   20.3940 C   0  0  0  0  0  3  0  0  0  0  0  0
  -22.6700  -10.2130   20.1900 C   0  0  0  0  0  3  0  0  0  0  0  0
  -21.6690   -6.9170   21.4430 O   0  0  0  0  0  0  0  0  0  0  0  0
  -21.6580   -6.1790   22.5990 C   0  0  0  0  0  0  0  0  0  0  0  0
  -21.2630   -6.7360   23.8350 C   0  0  0  0  0  3  0  0  0  0  0  0
  -21.2000   -5.9240   24.9850 C   0  0  0  0  0  3  0  0  0  0  0  0
  -21.5220   -4.5550   24.9000 C   0  0  0  0  0  0  0  0  0  0  0  0
  -21.9100   -3.9980   23.6690 C   0  0  0  0  0  3  0  0  0  0  0  0
  -21.9750   -4.8080   22.5220 C   0  0  0  0  0  0  0  0  0  0  0  0
  -22.3300   -4.2610   21.3340 F   0  0  0  0  0  0  0  0  0  0  0  0
  -21.4540   -3.7740   26.0030 F   0  0  0  0  0  0  0  0  0  0  0  0
  -22.6610  -13.5610   21.0460 C   0  0  0  0  0  0  0  0  0  0  0  0
  -21.9640  -12.8670   21.9380 N   0  0  0  0  0  0  0  0  0  0  0  0
  -22.1960  -14.5740   20.5220 O   0  0  0  0  0  0  0  0  0  0  0  0
  -22.3520  -12.0470   22.3800 H   0  0  0  0  0  0  0  0  0  0  0  0
  -21.0290  -13.1590   22.1850 H   0  0  0  0  0  0  0  0  0  0  0  0
  -25.2300  -15.2600   20.1540 N   0  0  0  0  0  0  0  0  0  0  0  0
  -24.4520  -15.8990   20.2760 H   0  0  0  0  0  0  0  0  0  0  0  0
  -26.0570  -15.7100   19.7860 H   0  0  0  0  0  0  0  0  0  0  0  0
  -28.6430  -23.1310   19.9950 C   0  0  0  0  0  2  0  0  0  0  0  0
  -28.0500  -24.6430   20.5970 C   0  0  0  0  0  2  0  0  0  0  0  0
  -28.2960  -26.1620   20.2300 O   0  0  0  0  0  0  0  0  0  0  0  0
  -24.6480  -31.9040   23.2200 C   0  0  0  0  0  0  0  0  0  0  0  0
  -27.2390  -27.1590   20.2140 C   0  0  0  0  0  0  0  0  0  0  0  0
  -23.4550  -30.5000   21.5860 C   0  0  0  0  0  3  0  0  0  0  0  0
  -24.9090  -28.9200   20.1660 C   0  0  0  0  0  0  0  0  0  0  0  0
  -26.0100  -30.7650   21.4210 C   0  0  0  0  0  2  0  0  0  0  0  0
  -26.0890  -29.3660   20.7750 C   0  0  0  0  0  0  0  0  0  0  0  0
  -27.2570  -28.5070   20.7720 C   0  0  0  0  0  3  0  0  0  0  0  0
  -26.0320  -26.8230   19.5650 C   0  0  0  0  0  3  0  0  0  0  0  0
  -24.8960  -27.6630   19.5410 C   0  0  0  0  0  3  0  0  0  0  0  0
  -23.6800  -29.8190   20.2080 C   0  0  0  0  0  2  0  0  0  0  0  0
  -24.7250  -31.0800   22.1300 N   0  0  0  0  0  0  0  0  0  0  0  0
  -23.5610  -32.1880   23.7460 O   0  0  0  0  0  0  0  0  0  0  0  0
  -22.7780  -29.4950   22.5520 C   0  0  0  0  0  0  0  0  0  0  0  0
  -21.4490  -29.3230   22.4280 N   0  0  0  0  0  0  0  0  0  0  0  0
  -23.4510  -28.8710   23.3760 O   0  0  0  0  0  0  0  0  0  0  0  0
  -20.9610  -29.8780   21.7390 H   0  0  0  0  0  0  0  0  0  0  0  0
  -18.0700  -28.1180   22.9460 C   0  0  0  0  0  0  0  0  0  0  0  0
  -20.6300  -28.3870   23.2030 C   0  0  0  0  0  3  0  0  0  0  0  0
  -20.7320  -26.9520   22.6330 C   0  0  0  0  0  2  0  0  0  0  0  0
  -19.6280  -26.6250   21.6230 C   0  0  0  0  0  2  0  0  0  0  0  0
  -18.2470  -26.7680   22.2700 C   0  0  0  0  0  2  0  0  0  0  0  0
  -19.1880  -28.8840   23.3700 C   0  0  0  0  0  0  0  0  0  0  0  0
  -18.9670  -30.1450   23.9640 C   0  0  0  0  0  3  0  0  0  0  0  0
  -17.6610  -30.6420   24.1360 C   0  0  0  0  0  3  0  0  0  0  0  0
  -16.5580  -29.8730   23.7270 C   0  0  0  0  0  3  0  0  0  0  0  0
  -16.7630  -28.6130   23.1370 C   0  0  0  0  0  3  0  0  0  0  0  0
  -25.9240  -32.5490   23.8450 C   0  0  0  0  0  3  0  0  0  0  0  0
  -25.6020  -33.9460   24.1780 N   0  0  0  0  0  0  0  0  0  0  0  0
  -25.9250  -35.0060   23.4270 C   0  0  0  0  0  0  0  0  0  0  0  0
  -26.5900  -34.9100   22.3920 O   0  0  0  0  0  0  0  0  0  0  0  0
  -25.0080  -34.0910   24.9810 H   0  0  0  0  0  0  0  0  0  0  0  0
  -24.1860  -36.7960   23.0950 C   0  0  0  0  0  1  0  0  0  0  0  0
  -25.4350  -36.3910   23.8940 C   0  0  0  0  0  3  0  0  0  0  0  0
  -27.5710  -37.2850   24.7130 C   0  0  0  0  0  1  0  0  0  0  0  0
  -26.4620  -37.4500   23.7780 N   0  0  0  0  0  0  0  0  0  0  0  0
  -26.0520  -38.3680   23.9320 H   0  0  0  0  0  0  0  0  0  0  0  0
  -26.4390  -31.7840   25.1270 C   0  0  1  0  0  0  0  0  0  0  0  0
  -25.3440  -31.5480   26.1940 C   0  0  0  0  0  1  0  0  0  0  0  0
  -27.0290  -30.4060   24.7480 C   0  0  0  0  0  1  0  0  0  0  0  0
  -27.5830  -32.5870   25.7880 C   0  0  0  0  0  1  0  0  0  0  0  0
  1  2  2  0
  2  5  1  0
  3  2  1  0
  3  6  1  0
  4  3  2  0
  7  4  1  0
  7  1  1  0
  8 20  1  0
  9 14  1  0
 10 11  1  0
 10  9  1  0
 12 11  1  0
 12 24  1  0
 12 13  1  0
 14  8  1  0
 14 13  1  0
 15  8  2  0
 17 16  1  0
 18 20  1  0
 18 19  1  0
 19 16  1  0
 19  4  1  0
 20 17  1  0
 21 22  2  0
 22 41  1  0
 23 22  1  0
 23 26  1  0
 24 21  1  0
 24 25  1  0
 25 23  2  0
 26 27  1  0
 27 28  2  0
 29 32  1  0
 29 28  1  0
 30 29  2  0
 31 30  1  0
 31 26  2  0
 32 33  1  0
 33 34  1  0
 34 35  2  0
 36 35  1  0
 36 40  1  0
 37 36  2  0
 38 33  2  0
 38 37  1  0
 39 38  1  0
 41 42  1  0
 42 45  1  0
 42 44  1  0
 43 41  2  0
 46 47  1  0
 46 21  1  0
 48 46  1  0
 49 50  1  0
 49  7  1  0
 51 50  1  0
 52 63  2  0
 53 51  1  0
 53 58  1  0
 54 62  1  0
 54 64  1  0
 55 61  1  0
 55 57  1  0
 56 62  1  0
 57 56  1  0
 58 57  2  0
 59 53  2  0
 60 59  1  0
 60 55  2  0
 61 54  1  0
 62 52  1  0
 64 66  2  0
 65 64  1  0
 67 65  1  0
 68 77  2  0
 68 73  1  0
 69 65  1  0
 69 73  1  0
 70 69  1  0
 71 72  1  0
 71 70  1  0
 72 68  1  0
 73 74  2  0
 74 75  1  0
 76 75  2  0
 77 76  1  0
 78 52  1  0
 78 79  1  0
 78 88  1  0
 79 82  1  0
 80 84  1  0
 80 79  1  0
 81 80  2  0
 84 83  1  0
 86 84  1  0
 86 87  1  0
 86 85  1  0
 88 91  1  1
 88 89  1  0
 90 88  1  0
M  ISO  4   8 100  20 100  50 101  51 101
M  END
>  <TORSDO>  (81) 
F 18

>  <SCORE>  (81) 
-14.208

>  <name>  (81) 
80

>  <ligand_id>  (81) 
80

>  <original_smiles>  (81) 
[H]c1c([H])c([H])c2c(c1[H])C([H])([H])C([H])([H])C([H])([H])C2([H])N([H])C(=O)C1([H])N(C(=O)C([H])(N([H])C(=O)C([H])(N([H])C([H])([H])[H])C([H])([H])[H])C(C([H])([H])[H])(C([H])([H])[H])C([H])([H])[H])C([H])([H])c2c([H])c(OC([H])([H])C([H])([H])n3c([H])c(C([H])([H])[H])c(C([H])([H])[H])c3C3([H])C([H])([H])N(C(=O)N4C([H])([H])C([H])([H])C([H])([H])C([H])(n5nc(-c6c([H])c([H])c(Oc7c([H])c([H])c(F)c([H])c7F)c([H])c6[H])c(C(=O)N([H])[H])c5N([H])[H])C4([H])[H])C([H])([H])C3([H])[H])c([H])c([H])c2C1([H])[H]

>  <smiles>  (81) 
[H]c1c([H])c([H])c2c(c1[H])C([H])([H])C([H])([H])C([H])([H])C2([H])N([H])C(=O)C1([H])N(C(=O)C([H])(N([H])C(=O)C([H])(N([H])C([H])([H])[H])C([H])([H])[H])C(C([H])([H])[H])(C([H])([H])[H])C([H])([H])[H])C([H])([H])c2c([H])c(OC([H])([H])C([H])([H])n3c([H])c(C([H])([H])[H])c(C([H])([H])[H])c3C3([H])C([H])([H])N(C(=O)N4C([H])([H])C([H])([H])C([H])([H])C([H])(n5nc(-c6c([H])c([H])c(Oc7c([H])c([H])c(F)c([H])c7F)c([H])c6[H])c(C(=O)N([H])[H])c5N([H])[H])C4([H])[H])C([H])([H])C3([H])[H])c([H])c([H])c2C1([H])[H]

$$$$
81:0:0
     RDKit          3D

 92101  0  0  1  0  0  0  0  0999 V2000
  -26.5190  -21.3210   20.3400 C   0  0  0  0  0  2  0  0  0  0  0  0
  -27.3700  -21.5820   19.1010 C   0  0  0  0  0  2  0  0  0  0  0  0
  -27.6970  -21.7680   21.1970 C   0  0  0  0  0  2  0  0  0  0  0  0
  -28.6150  -21.9040   19.9610 C   0  0  1  0  0  0  0  0  0  0  0  0
  -31.0240  -20.8190   19.7440 C   0  0  0  0  0  3  0  0  0  0  0  0
  -29.3380  -19.1420   20.0690 C   0  0  0  0  0  3  0  0  0  0  0  0
  -29.6490  -20.5970   19.9280 C   0  0  0  0  0  0  0  0  0  0  0  0
  -31.9340  -19.7380   19.7040 C   0  0  0  0  0  0  0  0  0  0  0  0
  -30.3230  -18.0210   20.0240 C   0  0  0  0  0  0  0  0  0  0  0  0
  -33.4080  -20.0190   19.5050 C   0  0  0  0  0  1  0  0  0  0  0  0
  -31.6010  -18.4280   19.8350 N   0  0  0  0  0  0  0  0  0  0  0  0
  -30.8280  -15.3170   20.0790 C   0  0  0  0  0  0  0  0  0  0  0  0
  -30.7290  -12.9100   19.2640 C   0  0  0  0  0  2  0  0  0  0  0  0
  -29.7790  -12.7730   18.0530 C   0  0  0  0  0  2  0  0  0  0  0  0
  -28.3310  -12.5480   18.5250 C   0  0  0  0  0  2  0  0  0  0  0  0
  -27.9210  -13.5270   19.6560 C   0  0  0  0  0  3  0  0  0  0  0  0
  -28.9950  -13.6360   20.7600 C   0  0  0  0  0  2  0  0  0  0  0  0
  -30.2440  -14.0470   20.1020 N   0  0  0  0  0  0  0  0  0  0  0  0
  -32.0310  -15.3430   19.7900 O   0  0  0  0  0  0  0  0  0  0  0  0
  -30.0380  -16.5110   20.1700 N   0  0  0  0  0  0  0  0  0  0  0  0
  -29.0680  -16.3070   20.3440 H   0  0  0  0  0  0  0  0  0  0  0  0
  -25.5790  -14.1010   20.5110 C   0  0  0  0  0  0  0  0  0  0  0  0
  -24.5210  -13.3250   20.8960 C   0  0  0  0  0  0  0  0  0  0  0  0
  -24.9680  -11.9720   20.7990 C   0  0  0  0  0  0  0  0  0  0  0  0
  -26.6000  -13.2220   20.1980 N   0  0  0  0  0  0  0  0  0  0  0  0
  -26.2460  -11.9340   20.4380 N   0  0  0  0  0  0  0  0  0  0  0  0
  -24.2340  -10.7120   20.9700 C   0  0  0  0  0  0  0  0  0  0  0  0
  -24.6340   -9.7450   21.9170 C   0  0  0  0  0  3  0  0  0  0  0  0
  -23.8990   -8.5500   22.0780 C   0  0  0  0  0  3  0  0  0  0  0  0
  -22.7480   -8.3140   21.2880 C   0  0  0  0  0  0  0  0  0  0  0  0
  -22.3660   -9.2700   20.3300 C   0  0  0  0  0  3  0  0  0  0  0  0
  -23.1020  -10.4560   20.1690 C   0  0  0  0  0  3  0  0  0  0  0  0
  -21.9870   -7.1720   21.3570 O   0  0  0  0  0  0  0  0  0  0  0  0
  -21.8230   -6.4860   22.5340 C   0  0  0  0  0  0  0  0  0  0  0  0
  -21.2390   -7.0860   23.6720 C   0  0  0  0  0  3  0  0  0  0  0  0
  -21.0250   -6.3240   24.8380 C   0  0  0  0  0  3  0  0  0  0  0  0
  -21.3840   -4.9630   24.8650 C   0  0  0  0  0  0  0  0  0  0  0  0
  -21.9590   -4.3630   23.7320 C   0  0  0  0  0  3  0  0  0  0  0  0
  -22.1740   -5.1210   22.5680 C   0  0  0  0  0  0  0  0  0  0  0  0
  -22.7090   -4.5320   21.4720 F   0  0  0  0  0  0  0  0  0  0  0  0
  -21.1710   -4.2290   25.9820 F   0  0  0  0  0  0  0  0  0  0  0  0
  -23.1400  -13.8090   21.2320 C   0  0  0  0  0  0  0  0  0  0  0  0
  -22.4370  -13.0970   22.1060 N   0  0  0  0  0  0  0  0  0  0  0  0
  -22.6950  -14.8510   20.7550 O   0  0  0  0  0  0  0  0  0  0  0  0
  -22.8100  -12.2540   22.5150 H   0  0  0  0  0  0  0  0  0  0  0  0
  -21.5100  -13.4020   22.3670 H   0  0  0  0  0  0  0  0  0  0  0  0
  -25.7500  -15.4770   20.3740 N   0  0  0  0  0  0  0  0  0  0  0  0
  -24.9890  -16.1290   20.5310 H   0  0  0  0  0  0  0  0  0  0  0  0
  -26.5700  -15.9170   19.9800 H   0  0  0  0  0  0  0  0  0  0  0  0
  -29.1270  -23.5180   19.7730 C   0  0  0  0  0  3  0  0  0  0  0  0
  -28.0830  -24.8630   19.6500 C   0  0  0  0  0  3  0  0  0  0  0  0
  -28.3630  -26.4020   19.7800 O   0  0  0  0  0  0  0  0  0  0  0  0
  -24.7130  -31.8610   23.1770 C   0  0  0  0  0  0  0  0  0  0  0  0
  -27.2940  -27.3820   19.8000 C   0  0  0  0  0  0  0  0  0  0  0  0
  -23.5000  -30.5520   21.4780 C   0  0  0  0  0  3  0  0  0  0  0  0
  -24.9400  -29.0980   19.9250 C   0  0  0  0  0  0  0  0  0  0  0  0
  -26.0460  -30.8720   21.2710 C   0  0  0  0  0  2  0  0  0  0  0  0
  -26.1270  -29.5230   20.5330 C   0  0  0  0  0  0  0  0  0  0  0  0
  -27.3050  -28.6850   20.4510 C   0  0  0  0  0  3  0  0  0  0  0  0
  -26.0740  -27.0660   19.1610 C   0  0  0  0  0  3  0  0  0  0  0  0
  -24.9260  -27.8850   19.2220 C   0  0  0  0  0  3  0  0  0  0  0  0
  -23.6990  -29.9690   20.0540 C   0  0  0  0  0  2  0  0  0  0  0  0
  -24.7750  -31.1150   22.0310 N   0  0  0  0  0  0  0  0  0  0  0  0
  -23.6350  -32.0900   23.7460 O   0  0  0  0  0  0  0  0  0  0  0  0
  -22.8590  -29.4740   22.3880 C   0  0  0  0  0  0  0  0  0  0  0  0
  -21.5340  -29.2760   22.2690 N   0  0  0  0  0  0  0  0  0  0  0  0
  -23.5580  -28.8200   23.1660 O   0  0  0  0  0  0  0  0  0  0  0  0
  -21.0250  -29.8580   21.6170 H   0  0  0  0  0  0  0  0  0  0  0  0
  -18.1890  -27.9620   22.7410 C   0  0  0  0  0  0  0  0  0  0  0  0
  -20.7460  -28.2760   22.9940 C   0  0  0  0  0  3  0  0  0  0  0  0
  -20.8770  -26.8820   22.3360 C   0  0  0  0  0  2  0  0  0  0  0  0
  -19.7700  -26.5890   21.3190 C   0  0  0  0  0  2  0  0  0  0  0  0
  -18.3930  -26.6600   21.9850 C   0  0  0  0  0  2  0  0  0  0  0  0
  -19.2940  -28.7290   23.2000 C   0  0  0  0  0  0  0  0  0  0  0  0
  -19.0480  -29.9480   23.8700 C   0  0  0  0  0  3  0  0  0  0  0  0
  -17.7330  -30.4010   24.0830 C   0  0  0  0  0  3  0  0  0  0  0  0
  -16.6440  -29.6320   23.6380 C   0  0  0  0  0  3  0  0  0  0  0  0
  -16.8730  -28.4150   22.9720 C   0  0  0  0  0  3  0  0  0  0  0  0
  -25.9940  -32.4790   23.8170 C   0  0  0  0  0  3  0  0  0  0  0  0
  -26.5050  -31.6750   25.0750 C   0  0  1  0  0  0  0  0  0  0  0  0
  -25.4120  -31.4180   26.1380 C   0  0  0  0  0  1  0  0  0  0  0  0
  -27.0830  -30.3050   24.6530 C   0  0  0  0  0  1  0  0  0  0  0  0
  -27.6580  -32.4490   25.7560 C   0  0  0  0  0  1  0  0  0  0  0  0
  -25.6810  -33.8680   24.1880 N   0  0  0  0  0  0  0  0  0  0  0  0
  -25.9770  -34.9440   23.4460 C   0  0  0  0  0  0  0  0  0  0  0  0
  -26.6080  -34.8700   22.3880 O   0  0  0  0  0  0  0  0  0  0  0  0
  -25.1130  -33.9980   25.0130 H   0  0  0  0  0  0  0  0  0  0  0  0
  -24.2060  -36.7200   23.2320 C   0  0  0  0  0  1  0  0  0  0  0  0
  -25.5010  -36.3180   23.9570 C   0  0  0  0  0  3  0  0  0  0  0  0
  -27.6650  -37.2280   24.6800 C   0  0  0  0  0  1  0  0  0  0  0  0
  -26.5110  -37.3870   23.8000 N   0  0  0  0  0  0  0  0  0  0  0  0
  -26.0980  -38.2990   23.9800 H   0  0  0  0  0  0  0  0  0  0  0  0
  1  3  1  0
  2  4  1  0
  2  1  1  0
  4  3  1  0
  5  7  1  0
  7  4  1  0
  7  6  2  0
  8  5  2  0
  8 11  1  0
  9  6  1  0
  9 20  1  0
 10  8  1  0
 11  9  2  0
 12 18  1  0
 12 20  1  0
 13 18  1  0
 14 15  1  0
 14 13  1  0
 16 15  1  0
 16 25  1  0
 16 17  1  0
 18 17  1  0
 19 12  2  0
 20 21  1  0
 22 23  2  0
 23 42  1  0
 24 23  1  0
 24 27  1  0
 25 26  1  0
 25 22  1  0
 26 24  2  0
 27 28  1  0
 28 29  2  0
 30 33  1  0
 30 29  1  0
 31 30  2  0
 32 31  1  0
 32 27  2  0
 33 34  1  0
 34 39  2  0
 34 35  1  0
 35 36  2  0
 36 37  1  0
 37 41  1  0
 38 37  2  0
 39 38  1  0
 40 39  1  0
 42 43  1  0
 43 46  1  0
 43 45  1  0
 44 42  2  0
 47 22  1  0
 47 48  1  0
 49 47  1  0
  4 50  1  6
 51 50  2  0
 51 52  1  0
 52 54  1  0
 53 64  2  0
 54 59  1  0
 55 63  1  0
 55 65  1  0
 56 62  1  0
 56 58  1  0
 57 63  1  0
 58 57  1  0
 59 58  2  0
 60 61  1  0
 60 54  2  0
 61 56  2  0
 62 55  1  0
 63 53  1  0
 65 67  2  0
 66 65  1  0
 68 66  1  0
 69 78  2  0
 69 74  1  0
 70 66  1  0
 70 74  1  0
 71 70  1  0
 72 73  1  0
 72 71  1  0
 73 69  1  0
 74 75  2  0
 75 76  1  0
 77 76  2  0
 78 77  1  0
 79 53  1  0
 79 84  1  0
 79 80  1  0
 80 83  1  1
 80 81  1  0
 82 80  1  0
 84 87  1  0
 85 89  1  0
 85 84  1  0
 86 85  2  0
 89 88  1  0
 91 89  1  0
 91 92  1  0
 91 90  1  0
M  ISO  4  12 100  20 100  51 101  52 101
M  END
>  <TORSDO>  (82) 
F 19

>  <SCORE>  (82) 
-13.652

>  <name>  (82) 
81

>  <ligand_id>  (82) 
81

>  <original_smiles>  (82) 
[H]c1c([H])c([H])c2c(c1[H])C([H])([H])C([H])([H])C([H])([H])C2([H])N([H])C(=O)C1([H])N(C(=O)C([H])(N([H])C(=O)C([H])(N([H])C([H])([H])[H])C([H])([H])[H])C(C([H])([H])[H])(C([H])([H])[H])C([H])([H])[H])C([H])([H])c2c([H])c(OC([H])([H])C([H])([H])C3(c4c([H])c(N([H])C(=O)N5C([H])([H])C([H])([H])C([H])([H])C([H])(n6nc(-c7c([H])c([H])c(Oc8c([H])c([H])c(F)c([H])c8F)c([H])c7[H])c(C(=O)N([H])[H])c6N([H])[H])C5([H])[H])nc(C([H])([H])[H])c4[H])C([H])([H])C([H])([H])C3([H])[H])c([H])c([H])c2C1([H])[H]

>  <smiles>  (82) 
[H]c1c([H])c([H])c2c(c1[H])C([H])([H])C([H])([H])C([H])([H])C2([H])N([H])C(=O)C1([H])N(C(=O)C([H])(N([H])C(=O)C([H])(N([H])C([H])([H])[H])C([H])([H])[H])C(C([H])([H])[H])(C([H])([H])[H])C([H])([H])[H])C([H])([H])c2c([H])c(OC([H])([H])C([H])([H])C3(c4c([H])c(N([H])C(=O)N5C([H])([H])C([H])([H])C([H])([H])C([H])(n6nc(-c7c([H])c([H])c(Oc8c([H])c([H])c(F)c([H])c8F)c([H])c7[H])c(C(=O)N([H])[H])c6N([H])[H])C5([H])[H])nc(C([H])([H])[H])c4[H])C([H])([H])C([H])([H])C3([H])[H])c([H])c([H])c2C1([H])[H]

$$$$
82:0:0
     RDKit          3D

 94104  0  0  1  0  0  0  0  0999 V2000
  -28.8550  -21.4160   21.3230 C   0  0  0  0  0  3  0  0  0  0  0  0
  -29.4590  -20.7170   20.2350 C   0  0  0  0  0  0  0  0  0  0  0  0
  -29.7560  -21.5700   19.1320 C   0  0  0  0  0  0  0  0  0  0  0  0
  -29.4020  -22.9430   19.0730 C   0  0  0  0  0  3  0  0  0  0  0  0
  -28.4980  -22.8150   21.2770 C   0  0  0  0  0  0  0  0  0  0  0  0
  -28.7100  -23.6280   20.1130 C   0  0  0  0  0  0  0  0  0  0  0  0
  -30.4590  -21.1410   17.8660 C   0  0  0  0  0  3  0  0  0  0  0  0
  -29.8000  -23.5440   17.7450 C   0  0  0  0  0  3  0  0  0  0  0  0
  -30.4330  -22.3830   16.9490 C   0  0  0  0  0  3  0  0  0  0  0  0
  -27.8330  -23.4220   22.5020 C   0  0  0  0  0  1  0  0  0  0  0  0
  -30.6460  -14.7780   20.2530 C   0  0  0  0  0  0  0  0  0  0  0  0
  -30.3620  -12.5140   19.2490 C   0  0  0  0  0  2  0  0  0  0  0  0
  -29.4080  -12.5910   18.0400 C   0  0  0  0  0  2  0  0  0  0  0  0
  -27.9460  -12.4310   18.4970 C   0  0  0  0  0  2  0  0  0  0  0  0
  -27.5980  -13.3270   19.7160 C   0  0  0  0  0  3  0  0  0  0  0  0
  -28.6770  -13.2630   20.8190 C   0  0  0  0  0  2  0  0  0  0  0  0
  -29.9620  -13.5850   20.1910 N   0  0  0  0  0  0  0  0  0  0  0  0
  -31.8350  -14.8130   19.9200 O   0  0  0  0  0  0  0  0  0  0  0  0
  -29.8940  -18.3880   21.5870 C   0  0  0  0  0  2  0  0  0  0  0  0
  -29.0020  -18.2010   19.3690 C   0  0  0  0  0  2  0  0  0  0  0  0
  -30.4990  -16.9250   21.4820 C   0  0  0  0  0  2  0  0  0  0  0  0
  -29.6220  -16.7540   19.2120 C   0  0  0  0  0  2  0  0  0  0  0  0
  -29.8520  -19.1640   20.2420 C   0  0  0  0  0  3  0  0  0  0  0  0
  -29.9630  -15.9810   20.4460 N   0  0  0  0  0  0  0  0  0  0  0  0
  -25.2330  -13.9220   20.5020 C   0  0  0  0  0  0  0  0  0  0  0  0
  -24.1690  -13.1520   20.8810 C   0  0  0  0  0  0  0  0  0  0  0  0
  -24.6210  -11.7970   20.8220 C   0  0  0  0  0  0  0  0  0  0  0  0
  -26.2650  -13.0390   20.2330 N   0  0  0  0  0  0  0  0  0  0  0  0
  -25.9050  -11.7540   20.4900 N   0  0  0  0  0  0  0  0  0  0  0  0
  -23.8880  -10.5380   21.0080 C   0  0  0  0  0  0  0  0  0  0  0  0
  -24.3140   -9.5690   21.9430 C   0  0  0  0  0  3  0  0  0  0  0  0
  -23.5820   -8.3750   22.1190 C   0  0  0  0  0  3  0  0  0  0  0  0
  -22.4100   -8.1420   21.3610 C   0  0  0  0  0  0  0  0  0  0  0  0
  -22.0040   -9.0990   20.4140 C   0  0  0  0  0  3  0  0  0  0  0  0
  -22.7360  -10.2850   20.2370 C   0  0  0  0  0  3  0  0  0  0  0  0
  -21.6500   -7.0000   21.4460 O   0  0  0  0  0  0  0  0  0  0  0  0
  -21.5690   -6.2750   22.6070 C   0  0  0  0  0  0  0  0  0  0  0  0
  -21.0730   -6.8380   23.8030 C   0  0  0  0  0  3  0  0  0  0  0  0
  -20.9380   -6.0380   24.9550 C   0  0  0  0  0  3  0  0  0  0  0  0
  -21.2900   -4.6760   24.9130 C   0  0  0  0  0  0  0  0  0  0  0  0
  -21.7790   -4.1120   23.7220 C   0  0  0  0  0  3  0  0  0  0  0  0
  -21.9150   -4.9090   22.5710 C   0  0  0  0  0  0  0  0  0  0  0  0
  -22.3650   -4.3550   21.4190 F   0  0  0  0  0  0  0  0  0  0  0  0
  -21.1540   -3.9050   26.0190 F   0  0  0  0  0  0  0  0  0  0  0  0
  -22.7800  -13.6340   21.1850 C   0  0  0  0  0  0  0  0  0  0  0  0
  -22.0690  -12.9350   22.0610 N   0  0  0  0  0  0  0  0  0  0  0  0
  -22.3390  -14.6680   20.6840 O   0  0  0  0  0  0  0  0  0  0  0  0
  -22.4420  -12.1000   22.4870 H   0  0  0  0  0  0  0  0  0  0  0  0
  -21.1380  -13.2380   22.3100 H   0  0  0  0  0  0  0  0  0  0  0  0
  -25.4070  -15.2940   20.3420 N   0  0  0  0  0  0  0  0  0  0  0  0
  -24.6570  -15.9610   20.4780 H   0  0  0  0  0  0  0  0  0  0  0  0
  -26.2730  -15.7270   20.0450 H   0  0  0  0  0  0  0  0  0  0  0  0
  -27.9000  -24.9750   19.8320 C   0  0  0  0  0  2  0  0  0  0  0  0
  -28.2760  -26.3940   20.1580 O   0  0  0  0  0  0  0  0  0  0  0  0
  -24.6290  -31.8840   23.2310 C   0  0  0  0  0  0  0  0  0  0  0  0
  -27.2110  -27.3370   20.0830 C   0  0  0  0  0  0  0  0  0  0  0  0
  -23.4180  -30.5230   21.5740 C   0  0  0  0  0  3  0  0  0  0  0  0
  -24.8600  -29.0080   20.1050 C   0  0  0  0  0  0  0  0  0  0  0  0
  -25.9660  -30.8250   21.3910 C   0  0  0  0  0  2  0  0  0  0  0  0
  -26.0390  -29.4580   20.7140 C   0  0  0  0  0  0  0  0  0  0  0  0
  -27.2160  -28.6350   20.6970 C   0  0  0  0  0  3  0  0  0  0  0  0
  -26.0070  -26.9810   19.4200 C   0  0  0  0  0  3  0  0  0  0  0  0
  -24.8520  -27.7740   19.4470 C   0  0  0  0  0  3  0  0  0  0  0  0
  -23.6260  -29.8840   20.1780 C   0  0  0  0  0  2  0  0  0  0  0  0
  -24.6910  -31.0930   22.1210 N   0  0  0  0  0  0  0  0  0  0  0  0
  -23.5490  -32.1510   23.7740 O   0  0  0  0  0  0  0  0  0  0  0  0
  -22.7580  -29.4840   22.5150 C   0  0  0  0  0  0  0  0  0  0  0  0
  -21.4340  -29.2980   22.3790 N   0  0  0  0  0  0  0  0  0  0  0  0
  -23.4370  -28.8510   23.3270 O   0  0  0  0  0  0  0  0  0  0  0  0
  -20.9440  -29.8660   21.7000 H   0  0  0  0  0  0  0  0  0  0  0  0
  -18.0580  -28.0790   22.8570 C   0  0  0  0  0  0  0  0  0  0  0  0
  -20.6160  -28.3470   23.1350 C   0  0  0  0  0  3  0  0  0  0  0  0
  -20.7250  -26.9230   22.5430 C   0  0  0  0  0  2  0  0  0  0  0  0
  -19.6260  -26.6090   21.5240 C   0  0  0  0  0  2  0  0  0  0  0  0
  -18.2410  -26.7390   22.1650 C   0  0  0  0  0  2  0  0  0  0  0  0
  -19.1730  -28.8420   23.2980 C   0  0  0  0  0  0  0  0  0  0  0  0
  -18.9430  -30.0950   23.9050 C   0  0  0  0  0  3  0  0  0  0  0  0
  -17.6350  -30.5840   24.0790 C   0  0  0  0  0  3  0  0  0  0  0  0
  -16.5360  -29.8190   23.6520 C   0  0  0  0  0  3  0  0  0  0  0  0
  -16.7500  -28.5680   23.0460 C   0  0  0  0  0  3  0  0  0  0  0  0
  -25.9140  -32.5060   23.8590 C   0  0  0  0  0  3  0  0  0  0  0  0
  -25.6070  -33.9020   24.2030 N   0  0  0  0  0  0  0  0  0  0  0  0
  -25.8990  -34.9590   23.4330 C   0  0  0  0  0  0  0  0  0  0  0  0
  -26.5270  -34.8600   22.3770 O   0  0  0  0  0  0  0  0  0  0  0  0
  -25.0490  -34.0500   25.0320 H   0  0  0  0  0  0  0  0  0  0  0  0
  -24.1340  -36.7340   23.1740 C   0  0  0  0  0  1  0  0  0  0  0  0
  -25.4230  -36.3440   23.9150 C   0  0  0  0  0  3  0  0  0  0  0  0
  -27.5860  -37.2590   24.6310 C   0  0  0  0  0  1  0  0  0  0  0  0
  -26.4340  -37.4080   23.7430 N   0  0  0  0  0  0  0  0  0  0  0  0
  -26.0260  -38.3240   23.9080 H   0  0  0  0  0  0  0  0  0  0  0  0
  -26.4190  -31.7230   25.1320 C   0  0  1  0  0  0  0  0  0  0  0  0
  -25.3220  -31.4820   26.1950 C   0  0  0  0  0  1  0  0  0  0  0  0
  -27.0030  -30.3480   24.7310 C   0  0  0  0  0  1  0  0  0  0  0  0
  -27.5670  -32.5130   25.8030 C   0  0  0  0  0  1  0  0  0  0  0  0
  2  1  2  0
  3  2  1  0
  4  8  1  0
  4  3  1  0
  4  6  1  0
  5  1  1  0
  5 10  1  0
  6  5  2  0
  7  3  2  0
  9  8  2  0
  9  7  1  0
 11 24  1  0
 12 17  1  0
 13 14  1  0
 13 12  1  0
 15 14  1  0
 15 28  1  0
 15 16  1  0
 17 11  1  0
 17 16  1  0
 18 11  2  0
 20 23  1  0
 21 19  1  0
 22 20  1  0
 22 24  1  0
 23  2  1  0
 23 19  1  0
 24 21  1  0
 25 26  2  0
 26 45  1  0
 27 26  1  0
 27 30  1  0
 28 29  1  0
 28 25  1  0
 29 27  2  0
 30 31  1  0
 31 32  2  0
 33 36  1  0
 33 32  1  0
 34 33  2  0
 35 34  1  0
 35 30  2  0
 36 37  1  0
 37 38  1  0
 38 39  2  0
 40 39  1  0
 40 44  1  0
 41 40  2  0
 42 37  2  0
 42 41  1  0
 43 42  1  0
 45 46  1  0
 46 49  1  0
 46 48  1  0
 47 45  2  0
 50 51  1  0
 50 25  1  0
 52 50  1  0
 53  6  1  0
 53 54  1  0
 55 66  2  0
 56 54  1  0
 56 61  1  0
 57 65  1  0
 57 67  1  0
 58 64  1  0
 58 60  1  0
 59 65  1  0
 60 59  1  0
 61 60  2  0
 62 63  1  0
 62 56  2  0
 63 58  2  0
 64 57  1  0
 65 55  1  0
 67 69  2  0
 68 67  1  0
 70 68  1  0
 71 80  2  0
 71 76  1  0
 72 68  1  0
 72 76  1  0
 73 72  1  0
 74 75  1  0
 74 73  1  0
 75 71  1  0
 76 77  2  0
 77 78  1  0
 79 78  2  0
 80 79  1  0
 81 55  1  0
 81 82  1  0
 81 91  1  0
 82 85  1  0
 83 87  1  0
 83 82  1  0
 84 83  2  0
 87 86  1  0
 89 90  1  0
 89 87  1  0
 89 88  1  0
 91 94  1  1
 91 92  1  0
 93 91  1  0
M  ISO  4  11 100  24 100  53 101  54 101
M  END
>  <TORSDO>  (83) 
F 17

>  <SCORE>  (83) 
-14.695

>  <name>  (83) 
82

>  <ligand_id>  (83) 
82

>  <original_smiles>  (83) 
[H]c1c([H])c([H])c2c(c1[H])C([H])([H])C([H])([H])C([H])([H])C2([H])N([H])C(=O)C1([H])N(C(=O)C([H])(N([H])C(=O)C([H])(N([H])C([H])([H])[H])C([H])([H])[H])C(C([H])([H])[H])(C([H])([H])[H])C([H])([H])[H])C([H])([H])c2c([H])c(OC([H])([H])c3c(C([H])([H])[H])c([H])c(C4([H])C([H])([H])C([H])([H])N(C(=O)N5C([H])([H])C([H])([H])C([H])([H])C([H])(n6nc(-c7c([H])c([H])c(Oc8c([H])c([H])c(F)c([H])c8F)c([H])c7[H])c(C(=O)N([H])[H])c6N([H])[H])C5([H])[H])C([H])([H])C4([H])[H])c4c3C([H])([H])C([H])([H])C4([H])[H])c([H])c([H])c2C1([H])[H]

>  <smiles>  (83) 
[H]c1c([H])c([H])c2c(c1[H])C([H])([H])C([H])([H])C([H])([H])C2([H])N([H])C(=O)C1([H])N(C(=O)C([H])(N([H])C(=O)C([H])(N([H])C([H])([H])[H])C([H])([H])[H])C(C([H])([H])[H])(C([H])([H])[H])C([H])([H])[H])C([H])([H])c2c([H])c(OC([H])([H])c3c(C([H])([H])[H])c([H])c(C4([H])C([H])([H])C([H])([H])N(C(=O)N5C([H])([H])C([H])([H])C([H])([H])C([H])(n6nc(-c7c([H])c([H])c(Oc8c([H])c([H])c(F)c([H])c8F)c([H])c7[H])c(C(=O)N([H])[H])c6N([H])[H])C5([H])[H])C([H])([H])C4([H])[H])c4c3C([H])([H])C([H])([H])C4([H])[H])c([H])c([H])c2C1([H])[H]

$$$$
83:0:0
     RDKit          3D

 96106  0  0  1  0  0  0  0  0999 V2000
  -28.9290  -19.7150   20.4490 C   0  0  0  0  0  3  0  0  0  0  0  0
  -28.8270  -21.1230   20.4150 C   0  0  0  0  0  3  0  0  0  0  0  0
  -29.8410  -19.0200   19.6210 C   0  0  0  0  0  0  0  0  0  0  0  0
  -29.5920  -21.8960   19.5160 C   0  0  0  0  0  0  0  0  0  0  0  0
  -30.6660  -19.7940   18.7480 C   0  0  0  0  0  0  0  0  0  0  0  0
  -30.5060  -21.2120   18.6660 C   0  0  0  0  0  0  0  0  0  0  0  0
  -31.7270  -19.1080   17.8820 C   0  0  0  0  0  1  0  0  0  0  0  0
  -31.2920  -22.0010   17.6190 C   0  0  0  0  0  1  0  0  0  0  0  0
  -30.4200  -24.4480   19.5770 C   0  0  0  0  0  2  0  0  0  0  0  0
  -29.3350  -23.3990   19.4230 C   0  0  0  0  0  3  0  0  0  0  0  0
  -29.3450  -24.3400   20.6280 C   0  0  0  0  0  3  0  0  0  0  0  0
  -28.2520  -25.3990   20.8190 C   0  0  0  0  0  2  0  0  0  0  0  0
  -28.4730  -26.7040   20.2300 O   0  0  0  0  0  0  0  0  0  0  0  0
  -24.6780  -31.9720   23.2070 C   0  0  0  0  0  0  0  0  0  0  0  0
  -27.3310  -27.4820   20.1900 C   0  0  0  0  0  0  0  0  0  0  0  0
  -23.4710  -30.5230   21.6090 C   0  0  0  0  0  3  0  0  0  0  0  0
  -24.9260  -28.9810   20.1920 C   0  0  0  0  0  0  0  0  0  0  0  0
  -25.9920  -30.9040   21.3750 C   0  0  0  0  0  2  0  0  0  0  0  0
  -26.0870  -29.5230   20.7570 C   0  0  0  0  0  0  0  0  0  0  0  0
  -27.2970  -28.7830   20.7500 C   0  0  0  0  0  3  0  0  0  0  0  0
  -26.1550  -26.9710   19.5970 C   0  0  0  0  0  3  0  0  0  0  0  0
  -24.9560  -27.7050   19.6050 C   0  0  0  0  0  3  0  0  0  0  0  0
  -23.6710  -29.8230   20.2390 C   0  0  0  0  0  2  0  0  0  0  0  0
  -24.7320  -31.1490   22.1210 N   0  0  0  0  0  0  0  0  0  0  0  0
  -23.5990  -32.2430   23.7540 O   0  0  0  0  0  0  0  0  0  0  0  0
  -22.8440  -29.5120   22.5970 C   0  0  0  0  0  0  0  0  0  0  0  0
  -21.5230  -29.2970   22.4780 N   0  0  0  0  0  0  0  0  0  0  0  0
  -23.5420  -28.9230   23.4260 O   0  0  0  0  0  0  0  0  0  0  0  0
  -21.0190  -29.8260   21.7780 H   0  0  0  0  0  0  0  0  0  0  0  0
  -18.1830  -28.0120   22.9830 C   0  0  0  0  0  0  0  0  0  0  0  0
  -20.7280  -28.3620   23.2740 C   0  0  0  0  0  3  0  0  0  0  0  0
  -20.8830  -26.9150   22.7520 C   0  0  0  0  0  2  0  0  0  0  0  0
  -19.8050  -26.5190   21.7400 C   0  0  0  0  0  2  0  0  0  0  0  0
  -18.4110  -26.6430   22.3620 C   0  0  0  0  0  2  0  0  0  0  0  0
  -19.2710  -28.8250   23.3970 C   0  0  0  0  0  0  0  0  0  0  0  0
  -19.0050  -30.1020   23.9360 C   0  0  0  0  0  3  0  0  0  0  0  0
  -17.6820  -30.5670   24.0670 C   0  0  0  0  0  3  0  0  0  0  0  0
  -16.6090  -29.7510   23.6720 C   0  0  0  0  0  3  0  0  0  0  0  0
  -16.8590  -28.4760   23.1350 C   0  0  0  0  0  3  0  0  0  0  0  0
  -25.9630  -32.6320   23.7970 C   0  0  0  0  0  3  0  0  0  0  0  0
  -26.5510  -31.8490   25.0350 C   0  0  1  0  0  0  0  0  0  0  0  0
  -25.4990  -31.5240   26.1210 C   0  0  0  0  0  1  0  0  0  0  0  0
  -27.1910  -30.5160   24.5840 C   0  0  0  0  0  1  0  0  0  0  0  0
  -27.6770  -32.6800   25.6950 C   0  0  0  0  0  1  0  0  0  0  0  0
  -25.6210  -34.0110   24.1690 N   0  0  0  0  0  0  0  0  0  0  0  0
  -25.8990  -35.0900   23.4250 C   0  0  0  0  0  0  0  0  0  0  0  0
  -26.5420  -35.0320   22.3740 O   0  0  0  0  0  0  0  0  0  0  0  0
  -25.0450  -34.1290   24.9900 H   0  0  0  0  0  0  0  0  0  0  0  0
  -24.1080  -36.8350   23.1580 C   0  0  0  0  0  1  0  0  0  0  0  0
  -25.3800  -36.4510   23.9280 C   0  0  0  0  0  3  0  0  0  0  0  0
  -27.5080  -37.3800   24.7280 C   0  0  0  0  0  1  0  0  0  0  0  0
  -26.3780  -37.5390   23.8170 N   0  0  0  0  0  0  0  0  0  0  0  0
  -25.9470  -38.4410   23.9990 H   0  0  0  0  0  0  0  0  0  0  0  0
  -29.8000  -17.5030   19.5630 C   0  0  0  0  0  0  0  0  0  0  0  0
  -29.6320  -16.9440   18.4760 O   0  0  0  0  0  0  0  0  0  0  0  0
  -30.8030  -14.5350   19.7370 C   0  0  0  0  0  0  0  0  0  0  0  0
  -30.2600  -12.5050   18.4330 C   0  0  0  0  0  2  0  0  0  0  0  0
  -29.1590  -12.7950   17.3950 C   0  0  0  0  0  2  0  0  0  0  0  0
  -27.7650  -12.6170   18.0250 C   0  0  0  0  0  2  0  0  0  0  0  0
  -27.6230  -13.3680   19.3750 C   0  0  0  0  0  3  0  0  0  0  0  0
  -28.8200  -13.0740   20.3060 C   0  0  0  0  0  2  0  0  0  0  0  0
  -30.0600  -13.4040   19.5820 N   0  0  0  0  0  0  0  0  0  0  0  0
  -31.7420  -14.8280   18.9920 O   0  0  0  0  0  0  0  0  0  0  0  0
  -30.9380  -16.2080   22.9910 C   0  0  0  0  0  2  0  0  0  0  0  0
  -30.5330  -17.3470   22.0730 C   0  0  0  0  0  2  0  0  0  0  0  0
  -31.3060  -15.0770   22.0360 C   0  0  0  0  0  2  0  0  0  0  0  0
  -29.8630  -16.6440   20.8780 C   0  0  0  0  0  3  0  0  0  0  0  0
  -30.5280  -15.3050   20.8150 N   0  0  0  0  0  0  0  0  0  0  0  0
  -25.3590  -13.9270   20.4660 C   0  0  0  0  0  0  0  0  0  0  0  0
  -24.3450  -13.1320   20.9270 C   0  0  0  0  0  0  0  0  0  0  0  0
  -24.7760  -11.7850   20.7270 C   0  0  0  0  0  0  0  0  0  0  0  0
  -26.3470  -13.0620   20.0210 N   0  0  0  0  0  0  0  0  0  0  0  0
  -26.0080  -11.7650   20.2340 N   0  0  0  0  0  0  0  0  0  0  0  0
  -24.0650  -10.5150   20.9250 C   0  0  0  0  0  0  0  0  0  0  0  0
  -24.5470   -9.5290   21.8140 C   0  0  0  0  0  3  0  0  0  0  0  0
  -23.8370   -8.3240   22.0010 C   0  0  0  0  0  3  0  0  0  0  0  0
  -22.6300   -8.0950   21.2990 C   0  0  0  0  0  0  0  0  0  0  0  0
  -22.1660   -9.0680   20.3970 C   0  0  0  0  0  3  0  0  0  0  0  0
  -22.8770  -10.2650   20.2080 C   0  0  0  0  0  3  0  0  0  0  0  0
  -21.8860   -6.9440   21.3980 O   0  0  0  0  0  0  0  0  0  0  0  0
  -21.8040   -6.2400   22.5730 C   0  0  0  0  0  0  0  0  0  0  0  0
  -21.3230   -6.8290   23.7630 C   0  0  0  0  0  3  0  0  0  0  0  0
  -21.1890   -6.0500   24.9290 C   0  0  0  0  0  3  0  0  0  0  0  0
  -21.5260   -4.6830   24.9070 C   0  0  0  0  0  0  0  0  0  0  0  0
  -21.9980   -4.0930   23.7220 C   0  0  0  0  0  3  0  0  0  0  0  0
  -22.1340   -4.8700   22.5570 C   0  0  0  0  0  0  0  0  0  0  0  0
  -22.5710   -4.2920   21.4120 F   0  0  0  0  0  0  0  0  0  0  0  0
  -21.3890   -3.9320   26.0250 F   0  0  0  0  0  0  0  0  0  0  0  0
  -23.0090  -13.5910   21.4350 C   0  0  0  0  0  0  0  0  0  0  0  0
  -22.4200  -12.8490   22.3670 N   0  0  0  0  0  0  0  0  0  0  0  0
  -22.5010  -14.6400   21.0410 O   0  0  0  0  0  0  0  0  0  0  0  0
  -22.8470  -11.9990   22.7050 H   0  0  0  0  0  0  0  0  0  0  0  0
  -21.5290  -13.1350   22.7480 H   0  0  0  0  0  0  0  0  0  0  0  0
  -25.5170  -15.3060   20.3660 N   0  0  0  0  0  0  0  0  0  0  0  0
  -24.7790  -15.9530   20.6210 H   0  0  0  0  0  0  0  0  0  0  0  0
  -26.3040  -15.7570   19.9180 H   0  0  0  0  0  0  0  0  0  0  0  0
  2  1  1  0
  3  1  2  0
  4  2  2  0
  5  3  1  0
  6  5  2  0
  6  4  1  0
  7  5  1  0
  8  6  1  0
  9 11  1  0
 10  4  1  0
 10  9  1  0
 10 11  1  0
 11 12  1  0
 13 12  1  0
 14 25  2  0
 15 13  1  0
 15 20  1  0
 16 24  1  0
 16 26  1  0
 17 23  1  0
 17 19  1  0
 18 24  1  0
 19 18  1  0
 20 19  2  0
 21 22  1  0
 21 15  2  0
 22 17  2  0
 23 16  1  0
 24 14  1  0
 26 28  2  0
 27 26  1  0
 29 27  1  0
 30 39  2  0
 30 35  1  0
 31 27  1  0
 31 35  1  0
 32 31  1  0
 33 34  1  0
 33 32  1  0
 34 30  1  0
 35 36  2  0
 36 37  1  0
 38 37  2  0
 39 38  1  0
 40 14  1  0
 40 45  1  0
 40 41  1  0
 41 44  1  1
 41 42  1  0
 43 41  1  0
 45 48  1  0
 46 50  1  0
 46 45  1  0
 47 46  2  0
 50 49  1  0
 52 50  1  0
 52 53  1  0
 52 51  1  0
 54  3  1  0
 55 54  2  0
 56 68  1  0
 57 62  1  0
 58 59  1  0
 58 57  1  0
 60 59  1  0
 60 72  1  0
 60 61  1  0
 62 56  1  0
 62 61  1  0
 63 56  2  0
 65 64  1  0
 66 64  1  0
 67 54  1  0
 67 65  1  0
 68 67  1  0
 68 66  1  0
 69 70  2  0
 70 89  1  0
 71 74  1  0
 71 70  1  0
 72 73  1  0
 72 69  1  0
 73 71  2  0
 74 75  1  0
 75 76  2  0
 77 80  1  0
 77 76  1  0
 78 77  2  0
 79 78  1  0
 79 74  2  0
 80 81  1  0
 81 82  1  0
 82 83  2  0
 84 83  1  0
 84 88  1  0
 85 84  2  0
 86 81  2  0
 86 85  1  0
 87 86  1  0
 89 90  1  0
 90 92  1  0
 90 93  1  0
 91 89  2  0
 94 69  1  0
 94 95  1  0
 96 94  1  0
M  ISO  4  12 101  13 101  56 100  68 100
M  END
>  <TORSDO>  (84) 
F 19

>  <SCORE>  (84) 
-12.296

>  <name>  (84) 
83

>  <ligand_id>  (84) 
83

>  <original_smiles>  (84) 
[H]c1c([H])c([H])c2c(c1[H])C([H])([H])C([H])([H])C([H])([H])C2([H])N([H])C(=O)C1([H])N(C(=O)C([H])(N([H])C(=O)C([H])(N([H])C([H])([H])[H])C([H])([H])[H])C(C([H])([H])[H])(C([H])([H])[H])C([H])([H])[H])C([H])([H])c2c([H])c(OC([H])([H])C3([H])C([H])([H])C3([H])c3c([H])c([H])c(C(=O)C4([H])N(C(=O)N5C([H])([H])C([H])([H])C([H])([H])C([H])(n6nc(-c7c([H])c([H])c(Oc8c([H])c([H])c(F)c([H])c8F)c([H])c7[H])c(C(=O)N([H])[H])c6N([H])[H])C5([H])[H])C([H])([H])C([H])([H])C4([H])[H])c(C([H])([H])[H])c3C([H])([H])[H])c([H])c([H])c2C1([H])[H]

>  <smiles>  (84) 
[H]c1c([H])c([H])c2c(c1[H])C([H])([H])C([H])([H])C([H])([H])C2([H])N([H])C(=O)C1([H])N(C(=O)C([H])(N([H])C(=O)C([H])(N([H])C([H])([H])[H])C([H])([H])[H])C(C([H])([H])[H])(C([H])([H])[H])C([H])([H])[H])C([H])([H])c2c([H])c(OC([H])([H])C3([H])C([H])([H])C3([H])c3c([H])c([H])c(C(=O)C4([H])N(C(=O)N5C([H])([H])C([H])([H])C([H])([H])C([H])(n6nc(-c7c([H])c([H])c(Oc8c([H])c([H])c(F)c([H])c8F)c([H])c7[H])c(C(=O)N([H])[H])c6N([H])[H])C5([H])[H])C([H])([H])C([H])([H])C4([H])[H])c(C([H])([H])[H])c3C([H])([H])[H])c([H])c([H])c2C1([H])[H]

$$$$
84:0:0
     RDKit          3D

 92102  0  0  1  0  0  0  0  0999 V2000
  -28.7030  -21.7180   20.4910 C   0  0  0  0  0  0  0  0  0  0  0  0
  -28.8490  -23.1440   19.9790 C   0  0  0  0  0  0  0  0  0  0  0  0
  -29.5510  -20.7050   19.9040 C   0  0  0  0  0  0  0  0  0  0  0  0
  -29.8330  -22.9120   19.0430 C   0  0  0  0  0  0  0  0  0  0  0  0
  -27.7190  -21.3690   21.5800 C   0  0  0  0  0  1  0  0  0  0  0  0
  -30.3910  -23.9360   18.0970 C   0  0  0  0  0  1  0  0  0  0  0  0
  -30.2860  -21.5510   19.0360 N   0  0  0  0  0  0  0  0  0  0  0  0
  -30.7070  -15.3980   19.8770 C   0  0  0  0  0  0  0  0  0  0  0  0
  -30.5520  -13.0080   18.9460 C   0  0  0  0  0  2  0  0  0  0  0  0
  -29.5570  -12.8820   17.7710 C   0  0  0  0  0  2  0  0  0  0  0  0
  -28.1340  -12.6210   18.2940 C   0  0  0  0  0  2  0  0  0  0  0  0
  -27.7680  -13.5480   19.4850 C   0  0  0  0  0  3  0  0  0  0  0  0
  -28.8910  -13.6510   20.5380 C   0  0  0  0  0  2  0  0  0  0  0  0
  -30.0840  -14.1330   19.8290 N   0  0  0  0  0  0  0  0  0  0  0  0
  -31.9040  -15.3690   19.5620 O   0  0  0  0  0  0  0  0  0  0  0  0
  -29.3150  -17.6940   20.7360 C   0  0  0  0  0  2  0  0  0  0  0  0
  -30.2990  -17.9180   18.9350 C   0  0  0  0  0  2  0  0  0  0  0  0
  -29.9440  -19.0260   20.0470 C   0  0  0  0  0  3  0  0  0  0  0  0
  -30.0070  -16.6860   19.7990 N   0  0  0  0  0  0  0  0  0  0  0  0
  -25.4600  -14.0740   20.4320 C   0  0  0  0  0  0  0  0  0  0  0  0
  -24.4230  -13.2810   20.8390 C   0  0  0  0  0  0  0  0  0  0  0  0
  -24.8830  -11.9330   20.7190 C   0  0  0  0  0  0  0  0  0  0  0  0
  -26.4790  -13.2100   20.0770 N   0  0  0  0  0  0  0  0  0  0  0  0
  -26.1510  -11.9130   20.3180 N   0  0  0  0  0  0  0  0  0  0  0  0
  -24.1690  -10.6630   20.9030 C   0  0  0  0  0  0  0  0  0  0  0  0
  -24.5870   -9.7120   21.8610 C   0  0  0  0  0  3  0  0  0  0  0  0
  -23.8690   -8.5080   22.0350 C   0  0  0  0  0  3  0  0  0  0  0  0
  -22.7200   -8.2460   21.2510 C   0  0  0  0  0  0  0  0  0  0  0  0
  -22.3230   -9.1860   20.2830 C   0  0  0  0  0  3  0  0  0  0  0  0
  -23.0410  -10.3800   20.1070 C   0  0  0  0  0  3  0  0  0  0  0  0
  -21.9750   -7.0950   21.3350 O   0  0  0  0  0  0  0  0  0  0  0  0
  -21.8030   -6.4320   22.5240 C   0  0  0  0  0  0  0  0  0  0  0  0
  -21.1570   -7.0330   23.6260 C   0  0  0  0  0  3  0  0  0  0  0  0
  -20.9430   -6.2920   24.8060 C   0  0  0  0  0  3  0  0  0  0  0  0
  -21.3600   -4.9500   24.8810 C   0  0  0  0  0  0  0  0  0  0  0  0
  -21.9960   -4.3470   23.7820 C   0  0  0  0  0  3  0  0  0  0  0  0
  -22.2150   -5.0850   22.6060 C   0  0  0  0  0  0  0  0  0  0  0  0
  -22.8090   -4.4930   21.5410 F   0  0  0  0  0  0  0  0  0  0  0  0
  -21.1460   -4.2350   26.0100 F   0  0  0  0  0  0  0  0  0  0  0  0
  -23.0470  -13.7450   21.2190 C   0  0  0  0  0  0  0  0  0  0  0  0
  -22.3790  -13.0220   22.1100 N   0  0  0  0  0  0  0  0  0  0  0  0
  -22.5780  -14.7850   20.7620 O   0  0  0  0  0  0  0  0  0  0  0  0
  -22.7750  -12.1810   22.5040 H   0  0  0  0  0  0  0  0  0  0  0  0
  -21.4570  -13.3110   22.4020 H   0  0  0  0  0  0  0  0  0  0  0  0
  -25.6180  -15.4500   20.3060 N   0  0  0  0  0  0  0  0  0  0  0  0
  -24.8690  -16.1070   20.4970 H   0  0  0  0  0  0  0  0  0  0  0  0
  -26.4500  -15.8920   19.9360 H   0  0  0  0  0  0  0  0  0  0  0  0
  -32.5770  -20.5050   18.8100 C   0  0  0  0  0  2  0  0  0  0  0  0
  -32.6350  -21.8500   18.1440 C   0  0  0  0  0  2  0  0  0  0  0  0
  -31.3360  -21.0590   18.1370 C   0  0  0  0  0  3  0  0  0  0  0  0
  -27.9770  -24.6140   20.2670 C   0  0  0  0  0  2  0  0  0  0  0  0
  -28.3160  -26.1800   20.0690 O   0  0  0  0  0  0  0  0  0  0  0  0
  -24.6670  -31.9550   23.1990 C   0  0  0  0  0  0  0  0  0  0  0  0
  -27.2800  -27.2340   20.0690 C   0  0  0  0  0  0  0  0  0  0  0  0
  -23.4810  -30.5690   21.5460 C   0  0  0  0  0  3  0  0  0  0  0  0
  -24.9440  -29.0290   20.0840 C   0  0  0  0  0  0  0  0  0  0  0  0
  -26.0390  -30.8420   21.3810 C   0  0  0  0  0  2  0  0  0  0  0  0
  -26.1290  -29.4540   20.6990 C   0  0  0  0  0  0  0  0  0  0  0  0
  -27.2970  -28.5770   20.6680 C   0  0  0  0  0  3  0  0  0  0  0  0
  -26.0650  -26.9510   19.4050 C   0  0  0  0  0  3  0  0  0  0  0  0
  -24.9320  -27.7960   19.4190 C   0  0  0  0  0  3  0  0  0  0  0  0
  -23.7070  -29.9190   20.1570 C   0  0  0  0  0  2  0  0  0  0  0  0
  -24.7490  -31.1450   22.0960 N   0  0  0  0  0  0  0  0  0  0  0  0
  -23.5780  -32.2170   23.7360 O   0  0  0  0  0  0  0  0  0  0  0  0
  -22.8180  -29.5400   22.4970 C   0  0  0  0  0  0  0  0  0  0  0  0
  -21.4920  -29.3370   22.3670 N   0  0  0  0  0  0  0  0  0  0  0  0
  -23.4990  -28.9240   23.3200 O   0  0  0  0  0  0  0  0  0  0  0  0
  -20.9960  -29.8860   21.6800 H   0  0  0  0  0  0  0  0  0  0  0  0
  -18.1360  -28.0710   22.8910 C   0  0  0  0  0  0  0  0  0  0  0  0
  -20.6950  -28.3700   23.1280 C   0  0  0  0  0  3  0  0  0  0  0  0
  -20.8090  -26.9540   22.5200 C   0  0  0  0  0  2  0  0  0  0  0  0
  -19.6980  -26.6360   21.5130 C   0  0  0  0  0  2  0  0  0  0  0  0
  -18.3230  -26.7430   22.1790 C   0  0  0  0  0  2  0  0  0  0  0  0
  -19.2470  -28.8430   23.3220 C   0  0  0  0  0  0  0  0  0  0  0  0
  -19.0130  -30.0840   23.9540 C   0  0  0  0  0  3  0  0  0  0  0  0
  -17.7030  -30.5560   24.1530 C   0  0  0  0  0  3  0  0  0  0  0  0
  -16.6060  -29.7810   23.7360 C   0  0  0  0  0  3  0  0  0  0  0  0
  -16.8230  -28.5400   23.1120 C   0  0  0  0  0  3  0  0  0  0  0  0
  -25.9330  -32.6060   23.8310 C   0  0  0  0  0  3  0  0  0  0  0  0
  -25.6020  -33.9990   24.1810 N   0  0  0  0  0  0  0  0  0  0  0  0
  -25.8980  -35.0670   23.4300 C   0  0  0  0  0  0  0  0  0  0  0  0
  -26.5440  -34.9880   22.3830 O   0  0  0  0  0  0  0  0  0  0  0  0
  -25.0220  -34.1310   24.9970 H   0  0  0  0  0  0  0  0  0  0  0  0
  -24.1320  -36.8390   23.1420 C   0  0  0  0  0  1  0  0  0  0  0  0
  -25.3990  -36.4440   23.9170 C   0  0  0  0  0  3  0  0  0  0  0  0
  -27.5260  -37.3670   24.7250 C   0  0  0  0  0  1  0  0  0  0  0  0
  -26.4110  -37.5150   23.7940 N   0  0  0  0  0  0  0  0  0  0  0  0
  -25.9910  -38.4280   23.9470 H   0  0  0  0  0  0  0  0  0  0  0  0
  -26.4550  -31.8340   25.1070 C   0  0  1  0  0  0  0  0  0  0  0  0
  -25.3580  -31.5600   26.1620 C   0  0  0  0  0  1  0  0  0  0  0  0
  -27.0730  -30.4730   24.7150 C   0  0  0  0  0  1  0  0  0  0  0  0
  -27.5850  -32.6450   25.7840 C   0  0  0  0  0  1  0  0  0  0  0  0
  1  5  1  0
  2 51  1  0
  2  1  1  0
  3  1  2  0
  4  2  2  0
  6  4  1  0
  7  4  1  0
  7  3  1  0
  9 14  1  0
 10 11  1  0
 10  9  1  0
 12 11  1  0
 12 23  1  0
 12 13  1  0
 14  8  1  0
 14 13  1  0
 15  8  2  0
 17 19  1  0
 17 18  1  0
 18  3  1  0
 18 16  1  0
 19  8  1  0
 19 16  1  0
 20 21  2  0
 21 40  1  0
 22 21  1  0
 22 25  1  0
 23 24  1  0
 23 20  1  0
 24 22  2  0
 25 26  1  0
 26 27  2  0
 28 31  1  0
 28 27  1  0
 29 28  2  0
 30 29  1  0
 30 25  2  0
 31 32  1  0
 32 37  2  0
 32 33  1  0
 33 34  2  0
 34 35  1  0
 35 39  1  0
 36 35  2  0
 37 36  1  0
 38 37  1  0
 40 41  1  0
 41 44  1  0
 41 43  1  0
 42 40  2  0
 45 20  1  0
 45 46  1  0
 47 45  1  0
 49 48  1  0
 50 49  1  0
 50 48  1  0
 50  7  1  0
 52 54  1  0
 52 51  1  0
 53 64  2  0
 54 59  1  0
 55 63  1  0
 55 65  1  0
 56 62  1  0
 56 58  1  0
 57 63  1  0
 58 57  1  0
 59 58  2  0
 60 61  1  0
 60 54  2  0
 61 56  2  0
 62 55  1  0
 63 53  1  0
 65 67  2  0
 66 65  1  0
 68 66  1  0
 69 78  2  0
 69 74  1  0
 70 66  1  0
 70 74  1  0
 71 70  1  0
 72 73  1  0
 72 71  1  0
 73 69  1  0
 74 75  2  0
 75 76  1  0
 77 76  2  0
 78 77  1  0
 79 53  1  0
 79 80  1  0
 79 89  1  0
 80 83  1  0
 81 85  1  0
 81 80  1  0
 82 81  2  0
 85 84  1  0
 87 85  1  0
 87 88  1  0
 87 86  1  0
 89 92  1  1
 89 90  1  0
 91 89  1  0
M  ISO  4   8 100  19 100  51 101  52 101
M  END
>  <TORSDO>  (85) 
F 18

>  <SCORE>  (85) 
-14.900

>  <name>  (85) 
84

>  <ligand_id>  (85) 
84

>  <original_smiles>  (85) 
[H]c1c([H])c([H])c2c(c1[H])C([H])([H])C([H])([H])C([H])([H])C2([H])N([H])C(=O)C1([H])N(C(=O)C([H])(N([H])C(=O)C([H])(N([H])C([H])([H])[H])C([H])([H])[H])C(C([H])([H])[H])(C([H])([H])[H])C([H])([H])[H])C([H])([H])c2c([H])c(OC([H])([H])c3c(C([H])([H])[H])c(C4([H])C([H])([H])N(C(=O)N5C([H])([H])C([H])([H])C([H])([H])C([H])(n6nc(-c7c([H])c([H])c(Oc8c([H])c([H])c(F)c([H])c8F)c([H])c7[H])c(C(=O)N([H])[H])c6N([H])[H])C5([H])[H])C4([H])[H])n(C4([H])C([H])([H])C4([H])[H])c3C([H])([H])[H])c([H])c([H])c2C1([H])[H]

>  <smiles>  (85) 
[H]c1c([H])c([H])c2c(c1[H])C([H])([H])C([H])([H])C([H])([H])C2([H])N([H])C(=O)C1([H])N(C(=O)C([H])(N([H])C(=O)C([H])(N([H])C([H])([H])[H])C([H])([H])[H])C(C([H])([H])[H])(C([H])([H])[H])C([H])([H])[H])C([H])([H])c2c([H])c(OC([H])([H])c3c(C([H])([H])[H])c(C4([H])C([H])([H])N(C(=O)N5C([H])([H])C([H])([H])C([H])([H])C([H])(n6nc(-c7c([H])c([H])c(Oc8c([H])c([H])c(F)c([H])c8F)c([H])c7[H])c(C(=O)N([H])[H])c6N([H])[H])C5([H])[H])C4([H])[H])n(C4([H])C([H])([H])C4([H])[H])c3C([H])([H])[H])c([H])c([H])c2C1([H])[H]

$$$$
85:0:0
     RDKit          3D

 91100  0  0  1  0  0  0  0  0999 V2000
  -30.6640  -14.8690   20.4400 C   0  0  0  0  0  0  0  0  0  0  0  0
  -30.3710  -12.5740   19.4620 C   0  0  0  0  0  2  0  0  0  0  0  0
  -29.4680  -12.5640   18.2140 C   0  0  0  0  0  2  0  0  0  0  0  0
  -28.0020  -12.3660   18.6320 C   0  0  0  0  0  2  0  0  0  0  0  0
  -27.5910  -13.3040   19.7960 C   0  0  0  0  0  3  0  0  0  0  0  0
  -28.6350  -13.3430   20.9380 C   0  0  0  0  0  2  0  0  0  0  0  0
  -29.9220  -13.6980   20.3320 N   0  0  0  0  0  0  0  0  0  0  0  0
  -31.8690  -14.7680   20.1900 O   0  0  0  0  0  0  0  0  0  0  0  0
  -27.7260  -22.5190   19.7340 C   0  0  0  0  0  3  0  0  0  0  0  0
  -28.6400  -23.5610   20.0600 C   0  0  0  0  0  0  0  0  0  0  0  0
  -29.8190  -23.0100   20.6370 C   0  0  0  0  0  0  0  0  0  0  0  0
  -29.1100  -20.7580   20.4370 C   0  0  0  0  0  0  0  0  0  0  0  0
  -30.6460  -18.7530   21.0570 C   0  0  0  0  0  3  0  0  0  0  0  0
  -28.4560  -18.2170   20.1900 C   0  0  0  0  0  3  0  0  0  0  0  0
  -31.0730  -17.3620   20.4210 C   0  0  0  0  0  3  0  0  0  0  0  0
  -28.7700  -16.7420   20.7690 C   0  0  0  0  0  3  0  0  0  0  0  0
  -30.9750  -23.9080   21.0260 C   0  0  0  0  0  1  0  0  0  0  0  0
  -27.9520  -21.1720   19.9170 N   0  0  0  0  0  0  0  0  0  0  0  0
  -30.0300  -21.6570   20.8190 N   0  0  0  0  0  0  0  0  0  0  0  0
  -29.3830  -19.3260   20.5550 N   0  0  0  0  0  0  0  0  0  0  0  0
  -30.1430  -16.1860   20.5590 N   0  0  0  0  0  0  0  0  0  0  0  0
  -25.2030  -13.8980   20.5000 C   0  0  0  0  0  0  0  0  0  0  0  0
  -24.1340  -13.1280   20.8610 C   0  0  0  0  0  0  0  0  0  0  0  0
  -24.6000  -11.7770   20.8540 C   0  0  0  0  0  0  0  0  0  0  0  0
  -26.2500  -13.0170   20.2850 N   0  0  0  0  0  0  0  0  0  0  0  0
  -25.8950  -11.7380   20.5670 N   0  0  0  0  0  0  0  0  0  0  0  0
  -23.8710  -10.5160   21.0420 C   0  0  0  0  0  0  0  0  0  0  0  0
  -24.2940   -9.5530   21.9820 C   0  0  0  0  0  3  0  0  0  0  0  0
  -23.5640   -8.3570   22.1590 C   0  0  0  0  0  3  0  0  0  0  0  0
  -22.3980   -8.1180   21.3940 C   0  0  0  0  0  0  0  0  0  0  0  0
  -21.9950   -9.0700   20.4410 C   0  0  0  0  0  3  0  0  0  0  0  0
  -22.7260  -10.2570   20.2620 C   0  0  0  0  0  3  0  0  0  0  0  0
  -21.6410   -6.9750   21.4790 O   0  0  0  0  0  0  0  0  0  0  0  0
  -21.5820   -6.2360   22.6340 C   0  0  0  0  0  0  0  0  0  0  0  0
  -21.1550   -6.7970   23.8570 C   0  0  0  0  0  3  0  0  0  0  0  0
  -21.0430   -5.9850   25.0020 C   0  0  0  0  0  3  0  0  0  0  0  0
  -21.3470   -4.6120   24.9270 C   0  0  0  0  0  0  0  0  0  0  0  0
  -21.7680   -4.0510   23.7080 C   0  0  0  0  0  3  0  0  0  0  0  0
  -21.8810   -4.8610   22.5640 C   0  0  0  0  0  0  0  0  0  0  0  0
  -22.2660   -4.3100   21.3880 F   0  0  0  0  0  0  0  0  0  0  0  0
  -21.2320   -3.8310   26.0250 F   0  0  0  0  0  0  0  0  0  0  0  0
  -22.7320  -13.6070   21.0990 C   0  0  0  0  0  0  0  0  0  0  0  0
  -21.9900  -12.9240   21.9630 N   0  0  0  0  0  0  0  0  0  0  0  0
  -22.3030  -14.6230   20.5540 O   0  0  0  0  0  0  0  0  0  0  0  0
  -22.3510  -12.1030   22.4260 H   0  0  0  0  0  0  0  0  0  0  0  0
  -21.0490  -13.2280   22.1680 H   0  0  0  0  0  0  0  0  0  0  0  0
  -25.3630  -15.2670   20.3070 N   0  0  0  0  0  0  0  0  0  0  0  0
  -24.5870  -15.9130   20.3920 H   0  0  0  0  0  0  0  0  0  0  0  0
  -26.2020  -15.7010   19.9490 H   0  0  0  0  0  0  0  0  0  0  0  0
  -28.4540  -25.0690   19.4930 C   0  0  0  0  0  2  0  0  0  0  0  0
  -28.3380  -26.3520   20.2910 O   0  0  0  0  0  0  0  0  0  0  0  0
  -24.6160  -31.8850   23.2290 C   0  0  0  0  0  0  0  0  0  0  0  0
  -27.2440  -27.2600   20.1840 C   0  0  0  0  0  0  0  0  0  0  0  0
  -23.4270  -30.4830   21.5860 C   0  0  0  0  0  3  0  0  0  0  0  0
  -24.8880  -28.9340   20.1600 C   0  0  0  0  0  0  0  0  0  0  0  0
  -25.9740  -30.7880   21.4200 C   0  0  0  0  0  2  0  0  0  0  0  0
  -26.0580  -29.4040   20.7670 C   0  0  0  0  0  0  0  0  0  0  0  0
  -27.2340  -28.5780   20.7700 C   0  0  0  0  0  3  0  0  0  0  0  0
  -26.0380  -26.8650   19.5580 C   0  0  0  0  0  3  0  0  0  0  0  0
  -24.8860  -27.6740   19.5450 C   0  0  0  0  0  3  0  0  0  0  0  0
  -23.6510  -29.8120   20.2050 C   0  0  0  0  0  2  0  0  0  0  0  0
  -24.6910  -31.0710   22.1340 N   0  0  0  0  0  0  0  0  0  0  0  0
  -23.5280  -32.1590   23.7560 O   0  0  0  0  0  0  0  0  0  0  0  0
  -22.7600  -29.4640   22.5440 C   0  0  0  0  0  0  0  0  0  0  0  0
  -21.4320  -29.2920   22.4210 N   0  0  0  0  0  0  0  0  0  0  0  0
  -23.4380  -28.8330   23.3590 O   0  0  0  0  0  0  0  0  0  0  0  0
  -20.9430  -29.8530   21.7380 H   0  0  0  0  0  0  0  0  0  0  0  0
  -18.0530  -28.1000   22.9350 C   0  0  0  0  0  0  0  0  0  0  0  0
  -20.6130  -28.3530   23.1920 C   0  0  0  0  0  3  0  0  0  0  0  0
  -20.7080  -26.9240   22.6100 C   0  0  0  0  0  2  0  0  0  0  0  0
  -19.6010  -26.6090   21.5990 C   0  0  0  0  0  2  0  0  0  0  0  0
  -18.2220  -26.7540   22.2510 C   0  0  0  0  0  2  0  0  0  0  0  0
  -19.1750  -28.8580   23.3620 C   0  0  0  0  0  0  0  0  0  0  0  0
  -18.9610  -30.1170   23.9640 C   0  0  0  0  0  3  0  0  0  0  0  0
  -17.6580  -30.6200   24.1400 C   0  0  0  0  0  3  0  0  0  0  0  0
  -16.5500  -29.8590   23.7270 C   0  0  0  0  0  3  0  0  0  0  0  0
  -16.7480  -28.6010   23.1300 C   0  0  0  0  0  3  0  0  0  0  0  0
  -25.8900  -32.5270   23.8570 C   0  0  0  0  0  3  0  0  0  0  0  0
  -25.5690  -33.9230   24.1870 N   0  0  0  0  0  0  0  0  0  0  0  0
  -25.8880  -34.9810   23.4280 C   0  0  0  0  0  0  0  0  0  0  0  0
  -26.5530  -34.8820   22.3930 O   0  0  0  0  0  0  0  0  0  0  0  0
  -24.9770  -34.0730   24.9920 H   0  0  0  0  0  0  0  0  0  0  0  0
  -24.1420  -36.7600   23.0920 C   0  0  0  0  0  1  0  0  0  0  0  0
  -25.3950  -36.3660   23.8900 C   0  0  0  0  0  3  0  0  0  0  0  0
  -27.5310  -37.2700   24.6970 C   0  0  0  0  0  1  0  0  0  0  0  0
  -26.4170  -37.4280   23.7650 N   0  0  0  0  0  0  0  0  0  0  0  0
  -26.0050  -38.3440   23.9160 H   0  0  0  0  0  0  0  0  0  0  0  0
  -26.4030  -31.7600   25.1380 C   0  0  1  0  0  0  0  0  0  0  0  0
  -25.3060  -31.5230   26.2020 C   0  0  0  0  0  1  0  0  0  0  0  0
  -26.9920  -30.3830   24.7560 C   0  0  0  0  0  1  0  0  0  0  0  0
  -27.5470  -32.5610   25.8030 C   0  0  0  0  0  1  0  0  0  0  0  0
  1 21  1  0
  2  7  1  0
  3  4  1  0
  3  2  1  0
  5  4  1  0
  5 25  1  0
  5  6  1  0
  7  1  1  0
  7  6  1  0
  8  1  2  0
  9 18  1  0
  9 10  2  0
 10 11  1  0
 11 19  2  0
 11 17  1  0
 12 20  1  0
 12 19  1  0
 14 20  1  0
 14 16  2  0
 15 21  1  0
 15 13  2  0
 18 12  2  0
 20 13  1  0
 21 16  1  0
 22 23  2  0
 23 42  1  0
 24 23  1  0
 24 27  1  0
 25 22  1  0
 25 26  1  0
 26 24  2  0
 27 28  1  0
 28 29  2  0
 30 33  1  0
 30 29  1  0
 31 30  2  0
 32 31  1  0
 32 27  2  0
 33 34  1  0
 34 35  1  0
 35 36  2  0
 37 36  1  0
 37 41  1  0
 38 37  2  0
 39 34  2  0
 39 38  1  0
 40 39  1  0
 42 43  1  0
 43 46  1  0
 43 45  1  0
 44 42  2  0
 47 48  1  0
 47 22  1  0
 49 47  1  0
 50 10  1  0
 50 51  1  0
 52 63  2  0
 53 51  1  0
 53 58  1  0
 54 62  1  0
 54 64  1  0
 55 61  1  0
 55 57  1  0
 56 62  1  0
 57 58  2  0
 57 56  1  0
 59 53  2  0
 60 59  1  0
 60 55  2  0
 61 54  1  0
 62 52  1  0
 64 66  2  0
 65 64  1  0
 67 65  1  0
 68 77  2  0
 68 73  1  0
 69 65  1  0
 69 73  1  0
 70 69  1  0
 71 72  1  0
 71 70  1  0
 72 68  1  0
 73 74  2  0
 74 75  1  0
 76 75  2  0
 77 76  1  0
 78 52  1  0
 78 79  1  0
 78 88  1  0
 79 82  1  0
 80 84  1  0
 80 79  1  0
 81 80  2  0
 84 83  1  0
 86 84  1  0
 86 87  1  0
 86 85  1  0
 88 91  1  1
 88 89  1  0
 90 88  1  0
M  ISO  4   1 100  21 100  50 101  51 101
M  END
>  <TORSDO>  (86) 
F 16

>  <SCORE>  (86) 
-15.817

>  <name>  (86) 
85

>  <ligand_id>  (86) 
85

>  <original_smiles>  (86) 
[H]c1nc(N2C([H])([H])C([H])([H])N(C(=O)N3C([H])([H])C([H])([H])C([H])([H])C([H])(n4nc(-c5c([H])c([H])c(Oc6c([H])c([H])c(F)c([H])c6F)c([H])c5[H])c(C(=O)N([H])[H])c4N([H])[H])C3([H])[H])C([H])([H])C2([H])[H])nc(C([H])([H])[H])c1C([H])([H])Oc1c([H])c([H])c2c(c1[H])C([H])([H])N(C(=O)C([H])(N([H])C(=O)C([H])(N([H])C([H])([H])[H])C([H])([H])[H])C(C([H])([H])[H])(C([H])([H])[H])C([H])([H])[H])C([H])(C(=O)N([H])C1([H])c3c([H])c([H])c([H])c([H])c3C([H])([H])C([H])([H])C1([H])[H])C2([H])[H]

>  <smiles>  (86) 
[H]c1nc(N2C([H])([H])C([H])([H])N(C(=O)N3C([H])([H])C([H])([H])C([H])([H])C([H])(n4nc(-c5c([H])c([H])c(Oc6c([H])c([H])c(F)c([H])c6F)c([H])c5[H])c(C(=O)N([H])[H])c4N([H])[H])C3([H])[H])C([H])([H])C2([H])[H])nc(C([H])([H])[H])c1C([H])([H])Oc1c([H])c([H])c2c(c1[H])C([H])([H])N(C(=O)C([H])(N([H])C(=O)C([H])(N([H])C([H])([H])[H])C([H])([H])[H])C(C([H])([H])[H])(C([H])([H])[H])C([H])([H])[H])C([H])(C(=O)N([H])C1([H])c3c([H])c([H])c([H])c([H])c3C([H])([H])C([H])([H])C1([H])[H])C2([H])[H]

$$$$
86:0:0
     RDKit          3D

106116  0  0  1  0  0  0  0  0999 V2000
  -29.4510  -20.5560   21.2360 C   0  0  0  0  0  3  0  0  0  0  0  0
  -29.7510  -19.9760   19.9870 C   0  0  0  0  0  0  0  0  0  0  0  0
  -29.3470  -21.9570   21.4230 C   0  0  0  0  0  0  0  0  0  0  0  0
  -29.9940  -20.8750   18.9010 C   0  0  0  0  0  0  0  0  0  0  0  0
  -29.5610  -22.8760   20.3480 C   0  0  0  0  0  0  0  0  0  0  0  0
  -29.9070  -22.3060   19.0780 C   0  0  0  0  0  0  0  0  0  0  0  0
  -29.0020  -22.4280   22.8290 C   0  0  0  0  0  1  0  0  0  0  0  0
  -30.3440  -20.2580   17.5430 C   0  0  0  0  0  1  0  0  0  0  0  0
  -30.7170  -14.7950   20.0510 C   0  0  0  0  0  0  0  0  0  0  0  0
  -30.3590  -12.5730   18.9830 C   0  0  0  0  0  2  0  0  0  0  0  0
  -29.3420  -12.6610   17.8270 C   0  0  0  0  0  2  0  0  0  0  0  0
  -27.9100  -12.4450   18.3540 C   0  0  0  0  0  2  0  0  0  0  0  0
  -27.6060  -13.3150   19.5950 C   0  0  0  0  0  3  0  0  0  0  0  0
  -28.7490  -13.2330   20.6430 C   0  0  0  0  0  2  0  0  0  0  0  0
  -29.9960  -13.6200   19.9650 N   0  0  0  0  0  0  0  0  0  0  0  0
  -31.9040  -14.7680   19.7240 O   0  0  0  0  0  0  0  0  0  0  0  0
  -28.3990  -17.8010   20.3570 C   0  0  0  0  0  2  0  0  0  0  0  0
  -28.6630  -16.3080   20.1860 C   0  0  0  0  0  2  0  0  0  0  0  0
  -29.6620  -18.4170   19.8040 C   0  0  0  0  0  3  0  0  0  0  0  0
  -30.7200  -17.4170   20.3840 C   0  0  0  0  0  3  0  0  0  0  0  0
  -32.0940  -17.6210   19.7210 C   0  0  0  0  0  1  0  0  0  0  0  0
  -30.1040  -16.0290   20.2980 N   0  0  0  0  0  0  0  0  0  0  0  0
  -25.2790  -13.9450   20.4760 C   0  0  0  0  0  0  0  0  0  0  0  0
  -24.2280  -13.1760   20.8910 C   0  0  0  0  0  0  0  0  0  0  0  0
  -24.6750  -11.8230   20.8050 C   0  0  0  0  0  0  0  0  0  0  0  0
  -26.2970  -13.0530   20.1670 N   0  0  0  0  0  0  0  0  0  0  0  0
  -25.9450  -11.7730   20.4270 N   0  0  0  0  0  0  0  0  0  0  0  0
  -23.9520  -10.5640   21.0010 C   0  0  0  0  0  0  0  0  0  0  0  0
  -24.4130   -9.5860   21.9070 C   0  0  0  0  0  3  0  0  0  0  0  0
  -23.6900   -8.3880   22.0920 C   0  0  0  0  0  3  0  0  0  0  0  0
  -22.4960   -8.1640   21.3690 C   0  0  0  0  0  0  0  0  0  0  0  0
  -22.0550   -9.1320   20.4490 C   0  0  0  0  0  3  0  0  0  0  0  0
  -22.7780  -10.3210   20.2620 C   0  0  0  0  0  3  0  0  0  0  0  0
  -21.7390   -7.0210   21.4680 O   0  0  0  0  0  0  0  0  0  0  0  0
  -21.7060   -6.2800   22.6220 C   0  0  0  0  0  0  0  0  0  0  0  0
  -21.2330   -6.8180   23.8390 C   0  0  0  0  0  3  0  0  0  0  0  0
  -21.1510   -6.0000   24.9830 C   0  0  0  0  0  3  0  0  0  0  0  0
  -21.5300   -4.6470   24.9120 C   0  0  0  0  0  0  0  0  0  0  0  0
  -21.9970   -4.1090   23.7000 C   0  0  0  0  0  3  0  0  0  0  0  0
  -22.0820   -4.9230   22.5570 C   0  0  0  0  0  0  0  0  0  0  0  0
  -22.5120   -4.3960   21.3860 F   0  0  0  0  0  0  0  0  0  0  0  0
  -21.4440   -3.8600   26.0090 F   0  0  0  0  0  0  0  0  0  0  0  0
  -22.8530  -13.6610   21.2490 C   0  0  0  0  0  0  0  0  0  0  0  0
  -22.1720  -12.9560   22.1460 N   0  0  0  0  0  0  0  0  0  0  0  0
  -22.3930  -14.6970   20.7710 O   0  0  0  0  0  0  0  0  0  0  0  0
  -22.5580  -12.1160   22.5510 H   0  0  0  0  0  0  0  0  0  0  0  0
  -21.2520  -13.2580   22.4310 H   0  0  0  0  0  0  0  0  0  0  0  0
  -25.4350  -15.3190   20.3140 N   0  0  0  0  0  0  0  0  0  0  0  0
  -24.6710  -15.9650   20.4870 H   0  0  0  0  0  0  0  0  0  0  0  0
  -26.2580  -15.7710   19.9410 H   0  0  0  0  0  0  0  0  0  0  0  0
  -29.2750  -23.3200   16.8880 C   0  0  0  0  0  2  0  0  0  0  0  0
  -31.5740  -23.2970   17.5630 C   0  0  0  0  0  2  0  0  0  0  0  0
  -30.1710  -23.6580   15.6790 C   0  0  0  0  0  3  0  0  0  0  0  0
  -31.4600  -24.1790   16.3190 C   0  0  0  0  0  3  0  0  0  0  0  0
  -30.1920  -23.1930   18.0220 N   0  0  0  0  0  0  0  0  0  0  0  0
  -32.6000  -24.1030   15.4020 N   0  0  0  0  0  4  0  0  0  0  0  0
  -32.7710  -23.1590   15.1100 H   0  0  0  0  0  0  0  0  0  0  0  0
  -33.4280  -24.4800   15.8260 H   0  0  0  0  0  0  0  0  0  0  0  0
  -32.3720  -24.6500   14.5910 H   0  0  0  0  0  0  0  0  0  0  0  0
  -29.5850  -24.6430   14.7870 N   0  0  0  0  0  0  0  0  0  0  0  0
  -29.2700  -25.4390   15.3340 H   0  0  0  0  0  0  0  0  0  0  0  0
  -28.7300  -24.2620   14.3930 H   0  0  0  0  0  0  0  0  0  0  0  0
  -30.8980  -25.0980   20.5580 C   0  0  0  0  0  1  0  0  0  0  0  0
  -29.5120  -24.4380   20.6180 C   0  0  0  0  0  3  0  0  0  0  0  0
  -28.4330  -25.3000   19.8630 C   0  0  0  0  0  2  0  0  0  0  0  0
  -28.4560  -26.7210   20.2220 O   0  0  0  0  0  0  0  0  0  0  0  0
  -24.5970  -31.9140   23.2740 C   0  0  0  0  0  0  0  0  0  0  0  0
  -27.2890  -27.4810   20.1620 C   0  0  0  0  0  0  0  0  0  0  0  0
  -23.4160  -30.5330   21.5990 C   0  0  0  0  0  3  0  0  0  0  0  0
  -24.8910  -29.0210   20.1620 C   0  0  0  0  0  0  0  0  0  0  0  0
  -25.9450  -30.8960   21.4320 C   0  0  0  0  0  2  0  0  0  0  0  0
  -26.0440  -29.5300   20.7710 C   0  0  0  0  0  0  0  0  0  0  0  0
  -27.2430  -28.7680   20.7660 C   0  0  0  0  0  3  0  0  0  0  0  0
  -26.1170  -27.0120   19.5260 C   0  0  0  0  0  3  0  0  0  0  0  0
  -24.9260  -27.7650   19.5330 C   0  0  0  0  0  3  0  0  0  0  0  0
  -23.6450  -29.8780   20.2110 C   0  0  0  0  0  2  0  0  0  0  0  0
  -24.6710  -31.1280   22.1610 N   0  0  0  0  0  0  0  0  0  0  0  0
  -23.5080  -32.1700   23.8080 O   0  0  0  0  0  0  0  0  0  0  0  0
  -22.7600  -29.4930   22.5380 C   0  0  0  0  0  0  0  0  0  0  0  0
  -21.4360  -29.3050   22.3980 N   0  0  0  0  0  0  0  0  0  0  0  0
  -23.4400  -28.8560   23.3480 O   0  0  0  0  0  0  0  0  0  0  0  0
  -20.9470  -29.8720   21.7190 H   0  0  0  0  0  0  0  0  0  0  0  0
  -18.0620  -28.1030   22.8770 C   0  0  0  0  0  0  0  0  0  0  0  0
  -20.6200  -28.3500   23.1480 C   0  0  0  0  0  3  0  0  0  0  0  0
  -20.7190  -26.9340   22.5370 C   0  0  0  0  0  2  0  0  0  0  0  0
  -19.6150  -26.6370   21.5170 C   0  0  0  0  0  2  0  0  0  0  0  0
  -18.2350  -26.7690   22.1690 C   0  0  0  0  0  2  0  0  0  0  0  0
  -19.1830  -28.8510   23.3240 C   0  0  0  0  0  0  0  0  0  0  0  0
  -18.9680  -30.1000   23.9470 C   0  0  0  0  0  3  0  0  0  0  0  0
  -17.6650  -30.6000   24.1280 C   0  0  0  0  0  3  0  0  0  0  0  0
  -16.5580  -29.8480   23.6970 C   0  0  0  0  0  3  0  0  0  0  0  0
  -16.7580  -28.6020   23.0770 C   0  0  0  0  0  3  0  0  0  0  0  0
  -25.8710  -32.5470   23.9140 C   0  0  0  0  0  3  0  0  0  0  0  0
  -25.5600  -33.9470   24.2310 N   0  0  0  0  0  0  0  0  0  0  0  0
  -25.8840  -34.9910   23.4570 C   0  0  0  0  0  0  0  0  0  0  0  0
  -26.5470  -34.8770   22.4230 O   0  0  0  0  0  0  0  0  0  0  0  0
  -24.9700  -34.1070   25.0350 H   0  0  0  0  0  0  0  0  0  0  0  0
  -24.1500  -36.7770   23.0910 C   0  0  0  0  0  1  0  0  0  0  0  0
  -25.3960  -36.3840   23.9020 C   0  0  0  0  0  3  0  0  0  0  0  0
  -27.5240  -37.2940   24.7240 C   0  0  0  0  0  1  0  0  0  0  0  0
  -26.4250  -37.4380   23.7720 N   0  0  0  0  0  0  0  0  0  0  0  0
  -26.0150  -38.3590   23.9010 H   0  0  0  0  0  0  0  0  0  0  0  0
  -26.3650  -31.7790   25.2020 C   0  0  1  0  0  0  0  0  0  0  0  0
  -25.2510  -31.5390   26.2480 C   0  0  0  0  0  1  0  0  0  0  0  0
  -26.9620  -30.4040   24.8240 C   0  0  0  0  0  1  0  0  0  0  0  0
  -27.5000  -32.5760   25.8880 C   0  0  0  0  0  1  0  0  0  0  0  0
  1  3  1  0
  2  1  2  0
  3  7  1  0
  4  6  2  0
  4  2  1  0
  5 64  1  0
  5  3  2  0
  6  5  1  0
  8  4  1  0
  9 22  1  0
 10 15  1  0
 11 12  1  0
 11 10  1  0
 13 12  1  0
 13 26  1  0
 13 14  1  0
 15  9  1  0
 15 14  1  0
 16  9  2  0
 18 22  1  0
 18 17  1  0
 19  2  1  0
 19 17  1  0
 19 20  1  0
 20 21  1  0
 22 20  1  0
 23 24  2  0
 24 43  1  0
 25 24  1  0
 25 28  1  0
 26 27  1  0
 26 23  1  0
 27 25  2  0
 28 29  1  0
 29 30  2  0
 31 34  1  0
 31 30  1  0
 32 31  2  0
 33 32  1  0
 33 28  2  0
 34 35  1  0
 35 36  1  0
 36 37  2  0
 38 37  1  0
 38 42  1  0
 39 38  2  0
 40 35  2  0
 40 39  1  0
 41 40  1  0
 43 44  1  0
 44 47  1  0
 44 46  1  0
 45 43  2  0
 48 23  1  0
 48 49  1  0
 50 48  1  0
 51 55  1  0
 52 55  1  0
 53 60  1  0
 53 54  1  0
 53 51  1  0
 54 56  1  0
 54 52  1  0
 55  6  1  0
 56 58  1  0
 57 56  1  0
 59 56  1  0
 60 61  1  0
 62 60  1  0
 64 63  1  0
 65 66  1  0
 65 64  1  0
 67 78  2  0
 68 66  1  0
 68 73  1  0
 69 77  1  0
 69 79  1  0
 70 76  1  0
 70 72  1  0
 71 77  1  0
 72 71  1  0
 73 72  2  0
 74 75  1  0
 74 68  2  0
 75 70  2  0
 76 69  1  0
 77 67  1  0
 79 81  2  0
 80 79  1  0
 82 80  1  0
 83 92  2  0
 83 88  1  0
 84 80  1  0
 84 88  1  0
 85 84  1  0
 86 87  1  0
 86 85  1  0
 87 83  1  0
 88 89  2  0
 89 90  1  0
 91 90  2  0
 92 91  1  0
 93 67  1  0
 93 94  1  0
 93103  1  0
 94 97  1  0
 95 99  1  0
 95 94  1  0
 96 95  2  0
 99 98  1  0
101102  1  0
101 99  1  0
101100  1  0
103106  1  1
103104  1  0
105103  1  0
M  ISO  4   9 100  22 100  65 101  66 101
M  END
>  <TORSDO>  (87) 
F 21

>  <SCORE>  (87) 
-14.195

>  <name>  (87) 
86

>  <ligand_id>  (87) 
86

>  <original_smiles>  (87) 
[H]c1c([H])c([H])c2c(c1[H])C([H])([H])C([H])([H])C([H])([H])C2([H])N([H])C(=O)C1([H])N(C(=O)C([H])(N([H])C(=O)C([H])(N([H])C([H])([H])[H])C([H])([H])[H])C(C([H])([H])[H])(C([H])([H])[H])C([H])([H])[H])C([H])([H])c2c([H])c(OC([H])([H])C([H])(c3c(N4C([H])([H])C([H])(N([H])[H])C([H])([N+]([H])([H])[H])C4([H])[H])c(C([H])([H])[H])c(C4([H])C([H])([H])C([H])([H])N(C(=O)N5C([H])([H])C([H])([H])C([H])([H])C([H])(n6nc(-c7c([H])c([H])c(Oc8c([H])c([H])c(F)c([H])c8F)c([H])c7[H])c(C(=O)N([H])[H])c6N([H])[H])C5([H])[H])C4([H])C([H])([H])[H])c([H])c3C([H])([H])[H])C([H])([H])[H])c([H])c([H])c2C1([H])[H]

>  <smiles>  (87) 
[H]c1c([H])c([H])c2c(c1[H])C([H])([H])C([H])([H])C([H])([H])C2([H])N([H])C(=O)C1([H])N(C(=O)C([H])(N([H])C(=O)C([H])(N([H])C([H])([H])[H])C([H])([H])[H])C(C([H])([H])[H])(C([H])([H])[H])C([H])([H])[H])C([H])([H])c2c([H])c(OC([H])([H])C([H])(c3c(N4C([H])([H])C([H])(N([H])[H])C([H])([N+]([H])([H])[H])C4([H])[H])c(C([H])([H])[H])c(C4([H])C([H])([H])C([H])([H])N(C(=O)N5C([H])([H])C([H])([H])C([H])([H])C([H])(n6nc(-c7c([H])c([H])c(Oc8c([H])c([H])c(F)c([H])c8F)c([H])c7[H])c(C(=O)N([H])[H])c6N([H])[H])C5([H])[H])C4([H])C([H])([H])[H])c([H])c3C([H])([H])[H])C([H])([H])[H])c([H])c([H])c2C1([H])[H]

$$$$
87:0:0
     RDKit          3D

 94103  0  0  1  0  0  0  0  0999 V2000
  -28.9660  -23.5670   21.8310 C   0  0  0  0  0  0  0  0  0  0  0  0
  -28.9070  -22.1580   21.6000 C   0  0  0  0  0  0  0  0  0  0  0  0
  -28.9180  -24.4790   20.7360 C   0  0  0  0  0  0  0  0  0  0  0  0
  -28.8330  -21.6710   20.2680 C   0  0  0  0  0  0  0  0  0  0  0  0
  -28.9180  -23.8870   19.4430 C   0  0  0  0  0  0  0  0  0  0  0  0
  -29.0580  -24.1040   23.2600 C   0  0  0  0  0  1  0  0  0  0  0  0
  -28.8860  -21.1970   22.7850 C   0  0  0  0  0  1  0  0  0  0  0  0
  -28.9770  -24.7160   18.1750 C   0  0  0  0  0  1  0  0  0  0  0  0
  -28.8740  -22.5410   19.2300 N   0  0  0  0  0  0  0  0  0  0  0  0
  -28.9450  -26.0200   21.0310 C   0  0  0  0  0  2  0  0  0  0  0  0
  -28.7110  -26.9820   19.9770 O   0  0  0  0  0  0  0  0  0  0  0  0
  -24.6140  -31.9280   23.2470 C   0  0  0  0  0  0  0  0  0  0  0  0
  -27.5380  -27.7160   20.0500 C   0  0  0  0  0  0  0  0  0  0  0  0
  -23.5180  -30.5280   21.5310 C   0  0  0  0  0  3  0  0  0  0  0  0
  -25.0770  -29.1250   20.0750 C   0  0  0  0  0  0  0  0  0  0  0  0
  -26.0280  -31.0170   21.3990 C   0  0  0  0  0  2  0  0  0  0  0  0
  -26.1990  -29.6740   20.7110 C   0  0  0  0  0  0  0  0  0  0  0  0
  -27.4350  -28.9750   20.6990 C   0  0  0  0  0  3  0  0  0  0  0  0
  -26.3990  -27.1930   19.4090 C   0  0  0  0  0  3  0  0  0  0  0  0
  -25.1720  -27.8830   19.4240 C   0  0  0  0  0  3  0  0  0  0  0  0
  -23.7890  -29.9180   20.1300 C   0  0  0  0  0  2  0  0  0  0  0  0
  -24.7360  -31.1730   22.1170 N   0  0  0  0  0  0  0  0  0  0  0  0
  -23.5100  -32.1200   23.7760 O   0  0  0  0  0  0  0  0  0  0  0  0
  -22.9050  -29.4360   22.4400 C   0  0  0  0  0  0  0  0  0  0  0  0
  -21.5960  -29.1810   22.2740 N   0  0  0  0  0  0  0  0  0  0  0  0
  -23.6050  -28.8230   23.2490 O   0  0  0  0  0  0  0  0  0  0  0  0
  -21.0900  -29.7320   21.5950 H   0  0  0  0  0  0  0  0  0  0  0  0
  -18.2930  -27.7580   22.6370 C   0  0  0  0  0  0  0  0  0  0  0  0
  -20.8210  -28.1680   22.9900 C   0  0  0  0  0  3  0  0  0  0  0  0
  -21.0300  -26.7670   22.3690 C   0  0  0  0  0  2  0  0  0  0  0  0
  -19.9780  -26.4110   21.3150 C   0  0  0  0  0  2  0  0  0  0  0  0
  -18.5720  -26.4470   21.9230 C   0  0  0  0  0  2  0  0  0  0  0  0
  -19.3480  -28.5740   23.1230 C   0  0  0  0  0  0  0  0  0  0  0  0
  -19.0340  -29.8000   23.7480 C   0  0  0  0  0  3  0  0  0  0  0  0
  -17.6960  -30.2130   23.8940 C   0  0  0  0  0  3  0  0  0  0  0  0
  -16.6550  -29.3940   23.4250 C   0  0  0  0  0  3  0  0  0  0  0  0
  -16.9530  -28.1690   22.8020 C   0  0  0  0  0  3  0  0  0  0  0  0
  -25.8510  -32.6040   23.9160 C   0  0  0  0  0  3  0  0  0  0  0  0
  -25.4880  -33.9950   24.2160 N   0  0  0  0  0  0  0  0  0  0  0  0
  -25.8200  -35.0500   23.4600 C   0  0  0  0  0  0  0  0  0  0  0  0
  -26.5350  -34.9560   22.4580 O   0  0  0  0  0  0  0  0  0  0  0  0
  -24.8590  -34.1400   24.9930 H   0  0  0  0  0  0  0  0  0  0  0  0
  -24.0520  -36.7820   23.0140 C   0  0  0  0  0  1  0  0  0  0  0  0
  -25.2730  -36.4270   23.8800 C   0  0  0  0  0  3  0  0  0  0  0  0
  -27.3430  -37.3880   24.7830 C   0  0  0  0  0  1  0  0  0  0  0  0
  -26.2760  -37.5100   23.7940 N   0  0  0  0  0  0  0  0  0  0  0  0
  -25.8370  -38.4190   23.9120 H   0  0  0  0  0  0  0  0  0  0  0  0
  -26.3360  -31.8600   25.2210 C   0  0  1  0  0  0  0  0  0  0  0  0
  -25.2020  -31.5840   26.2360 C   0  0  0  0  0  1  0  0  0  0  0  0
  -26.9940  -30.5070   24.8640 C   0  0  0  0  0  1  0  0  0  0  0  0
  -27.4210  -32.7040   25.9310 C   0  0  0  0  0  1  0  0  0  0  0  0
  -28.5140  -20.1840   19.9090 C   0  0  0  0  0  2  0  0  0  0  0  0
  -31.2280  -14.9180   19.8630 C   0  0  0  0  0  0  0  0  0  0  0  0
  -30.9000  -12.6370   18.9620 C   0  0  0  0  0  2  0  0  0  0  0  0
  -29.9190  -12.6920   17.7750 C   0  0  0  0  0  2  0  0  0  0  0  0
  -28.4640  -12.5790   18.2700 C   0  0  0  0  0  2  0  0  0  0  0  0
  -28.1560  -13.5360   19.4540 C   0  0  0  0  0  3  0  0  0  0  0  0
  -29.2550  -13.4730   20.5360 C   0  0  0  0  0  2  0  0  0  0  0  0
  -30.5380  -13.7380   19.8760 N   0  0  0  0  0  0  0  0  0  0  0  0
  -32.3950  -14.9580   19.4580 O   0  0  0  0  0  0  0  0  0  0  0  0
  -29.7810  -18.2460   18.7200 C   0  0  0  0  0  2  0  0  0  0  0  0
  -29.2960  -17.9790   21.1110 C   0  0  0  0  0  2  0  0  0  0  0  0
  -30.8000  -17.0790   18.8370 C   0  0  0  0  0  2  0  0  0  0  0  0
  -30.3190  -16.7990   21.1800 C   0  0  0  0  0  2  0  0  0  0  0  0
  -29.6160  -19.0530   20.0280 C   0  0  0  0  0  3  0  0  0  0  0  0
  -30.4990  -16.0840   19.9000 N   0  0  0  0  0  0  0  0  0  0  0  0
  -25.8370  -14.1990   20.3330 C   0  0  0  0  0  0  0  0  0  0  0  0
  -24.7640  -13.4530   20.7420 C   0  0  0  0  0  0  0  0  0  0  0  0
  -25.1720  -12.0880   20.6440 C   0  0  0  0  0  0  0  0  0  0  0  0
  -26.8300  -13.2900   20.0120 N   0  0  0  0  0  0  0  0  0  0  0  0
  -26.4400  -12.0130   20.2590 N   0  0  0  0  0  0  0  0  0  0  0  0
  -24.4100  -10.8470   20.8380 C   0  0  0  0  0  0  0  0  0  0  0  0
  -24.7840   -9.8940   21.8100 C   0  0  0  0  0  3  0  0  0  0  0  0
  -24.0240   -8.7180   21.9900 C   0  0  0  0  0  3  0  0  0  0  0  0
  -22.8750   -8.4870   21.1980 C   0  0  0  0  0  0  0  0  0  0  0  0
  -22.5210   -9.4280   20.2150 C   0  0  0  0  0  3  0  0  0  0  0  0
  -23.2810  -10.5950   20.0330 C   0  0  0  0  0  3  0  0  0  0  0  0
  -22.0910   -7.3620   21.2850 O   0  0  0  0  0  0  0  0  0  0  0  0
  -21.8720   -6.7280   22.4810 C   0  0  0  0  0  0  0  0  0  0  0  0
  -21.3000   -7.3970   23.5860 C   0  0  0  0  0  3  0  0  0  0  0  0
  -21.0300   -6.6900   24.7740 C   0  0  0  0  0  3  0  0  0  0  0  0
  -21.3190   -5.3150   24.8580 C   0  0  0  0  0  0  0  0  0  0  0  0
  -21.8840   -4.6460   23.7570 C   0  0  0  0  0  3  0  0  0  0  0  0
  -22.1560   -5.3510   22.5720 C   0  0  0  0  0  0  0  0  0  0  0  0
  -22.6800   -4.6970   21.5070 F   0  0  0  0  0  0  0  0  0  0  0  0
  -21.0530   -4.6330   25.9960 F   0  0  0  0  0  0  0  0  0  0  0  0
  -23.4040  -13.9720   21.1100 C   0  0  0  0  0  0  0  0  0  0  0  0
  -22.7120  -13.2890   22.0150 N   0  0  0  0  0  0  0  0  0  0  0  0
  -22.9660  -15.0160   20.6300 O   0  0  0  0  0  0  0  0  0  0  0  0
  -23.0790  -12.4420   22.4240 H   0  0  0  0  0  0  0  0  0  0  0  0
  -21.8030  -13.6180   22.3060 H   0  0  0  0  0  0  0  0  0  0  0  0
  -26.0440  -15.5680   20.1880 N   0  0  0  0  0  0  0  0  0  0  0  0
  -25.3160  -16.2500   20.3660 H   0  0  0  0  0  0  0  0  0  0  0  0
  -26.9030  -15.9820   19.8490 H   0  0  0  0  0  0  0  0  0  0  0  0
  1  6  1  0
  2  1  1  0
  2  7  1  0
  3 10  1  0
  3  1  2  0
  4  2  2  0
  5  3  1  0
  8  5  1  0
  9  5  2  0
  9  4  1  0
 11 13  1  0
 11 10  1  0
 12 23  2  0
 13 18  1  0
 14 22  1  0
 14 24  1  0
 15 21  1  0
 15 17  1  0
 16 22  1  0
 17 16  1  0
 18 17  2  0
 19 20  1  0
 19 13  2  0
 20 15  2  0
 21 14  1  0
 22 12  1  0
 24 26  2  0
 25 24  1  0
 27 25  1  0
 28 37  2  0
 28 33  1  0
 29 25  1  0
 29 33  1  0
 30 29  1  0
 31 32  1  0
 31 30  1  0
 32 28  1  0
 33 34  2  0
 34 35  1  0
 36 35  2  0
 37 36  1  0
 38 12  1  0
 38 39  1  0
 38 48  1  0
 39 42  1  0
 40 44  1  0
 40 39  1  0
 41 40  2  0
 44 43  1  0
 46 44  1  0
 46 47  1  0
 46 45  1  0
 48 51  1  1
 48 49  1  0
 50 48  1  0
 52  4  1  0
 53 59  1  0
 53 66  1  0
 54 59  1  0
 55 56  1  0
 55 54  1  0
 57 56  1  0
 57 70  1  0
 57 58  1  0
 59 58  1  0
 60 53  2  0
 61 63  1  0
 61 65  1  0
 62 64  1  0
 63 66  1  0
 65 52  1  0
 65 62  1  0
 66 64  1  0
 67 68  2  0
 68 87  1  0
 69 68  1  0
 69 72  1  0
 70 71  1  0
 70 67  1  0
 71 69  2  0
 72 73  1  0
 73 74  2  0
 75 78  1  0
 75 74  1  0
 76 75  2  0
 77 76  1  0
 77 72  2  0
 78 79  1  0
 79 84  2  0
 79 80  1  0
 80 81  2  0
 81 82  1  0
 82 86  1  0
 83 82  2  0
 84 83  1  0
 85 84  1  0
 87 88  1  0
 88 91  1  0
 88 90  1  0
 89 87  2  0
 92 67  1  0
 92 93  1  0
 94 92  1  0
M  ISO  4  10 101  11 101  53 100  66 100
M  END
>  <TORSDO>  (88) 
F 18

>  <SCORE>  (88) 
-12.919

>  <name>  (88) 
87

>  <ligand_id>  (88) 
87

>  <original_smiles>  (88) 
[H]c1c([H])c([H])c2c(c1[H])C([H])([H])C([H])([H])C([H])([H])C2([H])N([H])C(=O)C1([H])N(C(=O)C([H])(N([H])C(=O)C([H])(N([H])C([H])([H])[H])C([H])([H])[H])C(C([H])([H])[H])(C([H])([H])[H])C([H])([H])[H])C([H])([H])c2c([H])c(OC([H])([H])c3c(C([H])([H])[H])nc(C([H])([H])C4([H])C([H])([H])C([H])([H])N(C(=O)N5C([H])([H])C([H])([H])C([H])([H])C([H])(n6nc(-c7c([H])c([H])c(Oc8c([H])c([H])c(F)c([H])c8F)c([H])c7[H])c(C(=O)N([H])[H])c6N([H])[H])C5([H])[H])C([H])([H])C4([H])[H])c(C([H])([H])[H])c3C([H])([H])[H])c([H])c([H])c2C1([H])[H]

>  <smiles>  (88) 
[H]c1c([H])c([H])c2c(c1[H])C([H])([H])C([H])([H])C([H])([H])C2([H])N([H])C(=O)C1([H])N(C(=O)C([H])(N([H])C(=O)C([H])(N([H])C([H])([H])[H])C([H])([H])[H])C(C([H])([H])[H])(C([H])([H])[H])C([H])([H])[H])C([H])([H])c2c([H])c(OC([H])([H])c3c(C([H])([H])[H])nc(C([H])([H])C4([H])C([H])([H])C([H])([H])N(C(=O)N5C([H])([H])C([H])([H])C([H])([H])C([H])(n6nc(-c7c([H])c([H])c(Oc8c([H])c([H])c(F)c([H])c8F)c([H])c7[H])c(C(=O)N([H])[H])c6N([H])[H])C5([H])[H])C([H])([H])C4([H])[H])c(C([H])([H])[H])c3C([H])([H])[H])c([H])c([H])c2C1([H])[H]

$$$$
88:0:0
     RDKit          3D

 94104  0  0  1  0  0  0  0  0999 V2000
  -28.5150  -20.2680   19.2650 C   0  0  0  0  0  3  0  0  0  0  0  0
  -29.5040  -19.7500   20.1810 C   0  0  0  0  0  0  0  0  0  0  0  0
  -28.1100  -21.6840   19.1280 C   0  0  0  0  0  0  0  0  0  0  0  0
  -28.6450  -22.8120   19.8870 C   0  0  0  0  0  0  0  0  0  0  0  0
  -30.0070  -20.9490   20.8740 C   0  0  0  0  0  0  0  0  0  0  0  0
  -26.9880  -21.9630   18.1400 C   0  0  0  0  0  1  0  0  0  0  0  0
  -29.6170  -22.3150   20.7460 N   0  0  0  0  0  0  0  0  0  0  0  0
  -31.0090  -20.7430   21.8290 N   0  0  0  0  0  0  0  0  0  0  0  0
  -31.3450  -19.7930   21.9330 H   0  0  0  0  0  0  0  0  0  0  0  0
  -30.6560  -15.2780   19.9130 C   0  0  0  0  0  0  0  0  0  0  0  0
  -30.5950  -12.8650   18.9540 C   0  0  0  0  0  2  0  0  0  0  0  0
  -29.5640  -12.6800   17.8100 C   0  0  0  0  0  2  0  0  0  0  0  0
  -28.1600  -12.3910   18.3710 C   0  0  0  0  0  2  0  0  0  0  0  0
  -27.8060  -13.3240   19.5530 C   0  0  0  0  0  3  0  0  0  0  0  0
  -28.9490  -13.4130   20.5820 C   0  0  0  0  0  2  0  0  0  0  0  0
  -30.1180  -13.9620   19.8690 N   0  0  0  0  0  0  0  0  0  0  0  0
  -31.8100  -15.3590   19.4680 O   0  0  0  0  0  0  0  0  0  0  0  0
  -30.4210  -17.7140   21.9860 C   0  0  0  0  0  2  0  0  0  0  0  0
  -29.7400  -16.3480   21.8230 C   0  0  0  0  0  2  0  0  0  0  0  0
  -29.7540  -18.1000   20.6910 C   0  0  0  0  0  3  0  0  0  0  0  0
  -29.8750  -16.4600   20.3430 N   0  0  0  0  0  0  0  0  0  0  0  0
  -25.5310  -13.8520   20.5830 C   0  0  0  0  0  0  0  0  0  0  0  0
  -24.4990  -13.0580   21.0010 C   0  0  0  0  0  0  0  0  0  0  0  0
  -24.9390  -11.7090   20.8230 C   0  0  0  0  0  0  0  0  0  0  0  0
  -26.5290  -12.9880   20.1690 N   0  0  0  0  0  0  0  0  0  0  0  0
  -26.1910  -11.6890   20.3790 N   0  0  0  0  0  0  0  0  0  0  0  0
  -24.2160  -10.4420   20.9930 C   0  0  0  0  0  0  0  0  0  0  0  0
  -24.6520   -9.4580   21.9070 C   0  0  0  0  0  3  0  0  0  0  0  0
  -23.9280   -8.2570   22.0680 C   0  0  0  0  0  3  0  0  0  0  0  0
  -22.7510   -8.0320   21.3120 C   0  0  0  0  0  0  0  0  0  0  0  0
  -22.3340   -9.0060   20.3870 C   0  0  0  0  0  3  0  0  0  0  0  0
  -23.0600  -10.1980   20.2250 C   0  0  0  0  0  3  0  0  0  0  0  0
  -21.9980   -6.8850   21.3810 O   0  0  0  0  0  0  0  0  0  0  0  0
  -21.8360   -6.2010   22.5590 C   0  0  0  0  0  0  0  0  0  0  0  0
  -21.2700   -6.8080   23.7020 C   0  0  0  0  0  3  0  0  0  0  0  0
  -21.0580   -6.0490   24.8700 C   0  0  0  0  0  3  0  0  0  0  0  0
  -21.4010   -4.6840   24.8960 C   0  0  0  0  0  0  0  0  0  0  0  0
  -21.9610   -4.0770   23.7580 C   0  0  0  0  0  3  0  0  0  0  0  0
  -22.1740   -4.8340   22.5910 C   0  0  0  0  0  0  0  0  0  0  0  0
  -22.6940   -4.2380   21.4910 F   0  0  0  0  0  0  0  0  0  0  0  0
  -21.1910   -3.9520   26.0150 F   0  0  0  0  0  0  0  0  0  0  0  0
  -23.1440  -13.5250   21.4440 C   0  0  0  0  0  0  0  0  0  0  0  0
  -22.5080  -12.7880   22.3470 N   0  0  0  0  0  0  0  0  0  0  0  0
  -22.6610  -14.5760   21.0250 O   0  0  0  0  0  0  0  0  0  0  0  0
  -22.9120  -11.9360   22.7070 H   0  0  0  0  0  0  0  0  0  0  0  0
  -21.6020  -13.0820   22.6870 H   0  0  0  0  0  0  0  0  0  0  0  0
  -25.6980  -15.2310   20.4950 N   0  0  0  0  0  0  0  0  0  0  0  0
  -24.9580  -15.8800   20.7380 H   0  0  0  0  0  0  0  0  0  0  0  0
  -26.5250  -15.6870   20.1330 H   0  0  0  0  0  0  0  0  0  0  0  0
  -30.2030  -21.2930   24.2000 C   0  0  0  0  0  2  0  0  0  0  0  0
  -31.6970  -21.0720   24.2730 C   0  0  0  0  0  2  0  0  0  0  0  0
  -31.0730  -21.6020   23.0040 C   0  0  0  0  0  3  0  0  0  0  0  0
  -27.9220  -24.3990   19.8690 C   0  0  0  0  0  2  0  0  0  0  0  0
  -28.3340  -25.9420   20.1580 O   0  0  0  0  0  0  0  0  0  0  0  0
  -24.8660  -31.8100   23.3420 C   0  0  0  0  0  0  0  0  0  0  0  0
  -27.3510  -27.0540   20.1260 C   0  0  0  0  0  0  0  0  0  0  0  0
  -23.6450  -30.4900   21.6620 C   0  0  0  0  0  3  0  0  0  0  0  0
  -25.0680  -28.9360   20.1670 C   0  0  0  0  0  0  0  0  0  0  0  0
  -26.2130  -30.6870   21.5040 C   0  0  0  0  0  2  0  0  0  0  0  0
  -26.2640  -29.3080   20.7970 C   0  0  0  0  0  0  0  0  0  0  0  0
  -27.4020  -28.3880   20.7550 C   0  0  0  0  0  3  0  0  0  0  0  0
  -26.1270  -26.8340   19.4490 C   0  0  0  0  0  3  0  0  0  0  0  0
  -25.0230  -27.7180   19.4750 C   0  0  0  0  0  3  0  0  0  0  0  0
  -23.8580  -29.8610   20.2590 C   0  0  0  0  0  2  0  0  0  0  0  0
  -24.9300  -31.0190   22.2240 N   0  0  0  0  0  0  0  0  0  0  0  0
  -23.7850  -32.0920   23.8810 O   0  0  0  0  0  0  0  0  0  0  0  0
  -22.9490  -29.4630   22.5920 C   0  0  0  0  0  0  0  0  0  0  0  0
  -21.6220  -29.2950   22.4500 N   0  0  0  0  0  0  0  0  0  0  0  0
  -23.6100  -28.8200   23.4120 O   0  0  0  0  0  0  0  0  0  0  0  0
  -21.1440  -29.8670   21.7660 H   0  0  0  0  0  0  0  0  0  0  0  0
  -18.2390  -28.0580   22.8820 C   0  0  0  0  0  0  0  0  0  0  0  0
  -20.7940  -28.3350   23.1870 C   0  0  0  0  0  3  0  0  0  0  0  0
  -20.9130  -26.9160   22.5820 C   0  0  0  0  0  2  0  0  0  0  0  0
  -19.8270  -26.6080   21.5460 C   0  0  0  0  0  2  0  0  0  0  0  0
  -18.4350  -26.7270   22.1760 C   0  0  0  0  0  2  0  0  0  0  0  0
  -19.3470  -28.8190   23.3430 C   0  0  0  0  0  0  0  0  0  0  0  0
  -19.1070  -30.0640   23.9660 C   0  0  0  0  0  3  0  0  0  0  0  0
  -17.7960  -30.5450   24.1330 C   0  0  0  0  0  3  0  0  0  0  0  0
  -16.7030  -29.7810   23.6880 C   0  0  0  0  0  3  0  0  0  0  0  0
  -16.9270  -28.5390   23.0670 C   0  0  0  0  0  3  0  0  0  0  0  0
  -26.1500  -32.4140   23.9880 C   0  0  0  0  0  3  0  0  0  0  0  0
  -25.8590  -33.8120   24.3510 N   0  0  0  0  0  0  0  0  0  0  0  0
  -26.1800  -34.8800   23.6070 C   0  0  0  0  0  0  0  0  0  0  0  0
  -26.8140  -34.7900   22.5540 O   0  0  0  0  0  0  0  0  0  0  0  0
  -25.2950  -33.9560   25.1750 H   0  0  0  0  0  0  0  0  0  0  0  0
  -24.4520  -36.6970   23.3670 C   0  0  0  0  0  1  0  0  0  0  0  0
  -25.7260  -36.2650   24.1110 C   0  0  0  0  0  3  0  0  0  0  0  0
  -27.9010  -37.1250   24.8630 C   0  0  0  0  0  1  0  0  0  0  0  0
  -26.7600  -37.3130   23.9690 N   0  0  0  0  0  0  0  0  0  0  0  0
  -26.3670  -38.2340   24.1480 H   0  0  0  0  0  0  0  0  0  0  0  0
  -26.6370  -31.6140   25.2600 C   0  0  1  0  0  0  0  0  0  0  0  0
  -25.5290  -31.3830   26.3130 C   0  0  0  0  0  1  0  0  0  0  0  0
  -27.1980  -30.2310   24.8580 C   0  0  0  0  0  1  0  0  0  0  0  0
  -27.7970  -32.3770   25.9440 C   0  0  0  0  0  1  0  0  0  0  0  0
  1  2  1  0
  2  5  2  0
  3  1  2  0
  3  4  1  0
  4  7  2  0
  5  8  1  0
  6  3  1  0
  7  5  1  0
  8  9  1  0
  8 52  1  0
 10 21  1  0
 11 16  1  0
 12 13  1  0
 12 11  1  0
 14 13  1  0
 14 25  1  0
 14 15  1  0
 16 10  1  0
 16 15  1  0
 17 10  2  0
 19 18  1  0
 20  2  1  0
 20 18  1  0
 21 20  1  0
 21 19  1  0
 22 23  2  0
 23 42  1  0
 24 27  1  0
 24 23  1  0
 25 26  1  0
 25 22  1  0
 26 24  2  0
 27 28  1  0
 28 29  2  0
 30 33  1  0
 30 29  1  0
 31 30  2  0
 32 31  1  0
 32 27  2  0
 33 34  1  0
 34 39  2  0
 34 35  1  0
 35 36  2  0
 36 37  1  0
 37 41  1  0
 38 37  2  0
 39 38  1  0
 40 39  1  0
 42 43  1  0
 43 46  1  0
 43 45  1  0
 44 42  2  0
 47 22  1  0
 47 48  1  0
 49 47  1  0
 50 51  1  0
 52 50  1  0
 52 51  1  0
 53  4  1  0
 53 54  1  0
 55 66  2  0
 56 54  1  0
 56 61  1  0
 57 65  1  0
 57 67  1  0
 58 64  1  0
 58 60  1  0
 59 65  1  0
 60 59  1  0
 61 60  2  0
 62 63  1  0
 62 56  2  0
 63 58  2  0
 64 57  1  0
 65 55  1  0
 67 69  2  0
 68 67  1  0
 70 68  1  0
 71 80  2  0
 71 76  1  0
 72 68  1  0
 72 76  1  0
 73 72  1  0
 74 75  1  0
 74 73  1  0
 75 71  1  0
 76 77  2  0
 77 78  1  0
 79 78  2  0
 80 79  1  0
 81 55  1  0
 81 82  1  0
 81 91  1  0
 82 85  1  0
 83 87  1  0
 83 82  1  0
 84 83  2  0
 87 86  1  0
 89 87  1  0
 89 90  1  0
 89 88  1  0
 91 94  1  1
 91 92  1  0
 93 91  1  0
M  ISO  4  10 100  21 100  53 101  54 101
M  END
>  <TORSDO>  (89) 
F 18

>  <SCORE>  (89) 
-15.651

>  <name>  (89) 
88

>  <ligand_id>  (89) 
88

>  <original_smiles>  (89) 
[H]c1c([H])c([H])c2c(c1[H])C([H])([H])C([H])([H])C([H])([H])C2([H])N([H])C(=O)C1([H])N(C(=O)C([H])(N([H])C(=O)C([H])(N([H])C([H])([H])[H])C([H])([H])[H])C(C([H])([H])[H])(C([H])([H])[H])C([H])([H])[H])C([H])([H])c2c([H])c(OC([H])([H])c3nc(N([H])C4([H])C([H])([H])C4([H])[H])c(C4([H])N(C(=O)N5C([H])([H])C([H])([H])C([H])([H])C([H])(n6nc(-c7c([H])c([H])c(Oc8c([H])c([H])c(F)c([H])c8F)c([H])c7[H])c(C(=O)N([H])[H])c6N([H])[H])C5([H])[H])C([H])([H])C4([H])[H])c([H])c3C([H])([H])[H])c([H])c([H])c2C1([H])[H]

>  <smiles>  (89) 
[H]c1c([H])c([H])c2c(c1[H])C([H])([H])C([H])([H])C([H])([H])C2([H])N([H])C(=O)C1([H])N(C(=O)C([H])(N([H])C(=O)C([H])(N([H])C([H])([H])[H])C([H])([H])[H])C(C([H])([H])[H])(C([H])([H])[H])C([H])([H])[H])C([H])([H])c2c([H])c(OC([H])([H])c3nc(N([H])C4([H])C([H])([H])C4([H])[H])c(C4([H])N(C(=O)N5C([H])([H])C([H])([H])C([H])([H])C([H])(n6nc(-c7c([H])c([H])c(Oc8c([H])c([H])c(F)c([H])c8F)c([H])c7[H])c(C(=O)N([H])[H])c6N([H])[H])C5([H])[H])C([H])([H])C4([H])[H])c([H])c3C([H])([H])[H])c([H])c([H])c2C1([H])[H]

$$$$
89:0:0
     RDKit          3D

 97106  0  0  1  0  0  0  0  0999 V2000
  -30.0450  -21.6060   18.5160 C   0  0  0  0  0  0  0  0  0  0  0  0
  -29.7210  -23.0310   18.5220 C   0  0  0  0  0  0  0  0  0  0  0  0
  -29.3080  -20.6410   19.2860 C   0  0  0  0  0  0  0  0  0  0  0  0
  -28.6500  -23.5750   19.3150 C   0  0  0  0  0  0  0  0  0  0  0  0
  -28.3300  -21.2950   20.1100 C   0  0  0  0  0  0  0  0  0  0  0  0
  -31.1590  -21.0990   17.6080 C   0  0  0  0  0  1  0  0  0  0  0  0
  -30.4980  -23.9710   17.6050 C   0  0  0  0  0  1  0  0  0  0  0  0
  -27.4510  -20.4930   21.0510 C   0  0  0  0  0  1  0  0  0  0  0  0
  -28.0310  -22.6470   20.1110 N   0  0  0  0  0  0  0  0  0  0  0  0
  -29.3650  -19.0030   19.0640 C   0  0  0  0  0  2  0  0  0  0  0  0
  -30.8760  -15.2340   19.5550 C   0  0  0  0  0  0  0  0  0  0  0  0
  -30.6230  -12.8440   18.7570 C   0  0  0  0  0  2  0  0  0  0  0  0
  -29.6050  -12.7420   17.6000 C   0  0  0  0  0  2  0  0  0  0  0  0
  -28.1740  -12.5750   18.1460 C   0  0  0  0  0  2  0  0  0  0  0  0
  -27.8590  -13.5800   19.2840 C   0  0  0  0  0  3  0  0  0  0  0  0
  -28.9910  -13.6380   20.3280 C   0  0  0  0  0  2  0  0  0  0  0  0
  -30.2340  -13.9980   19.6210 N   0  0  0  0  0  0  0  0  0  0  0  0
  -31.9860  -15.2700   19.0150 O   0  0  0  0  0  0  0  0  0  0  0  0
  -31.3130  -18.5670   20.6970 C   0  0  0  0  0  2  0  0  0  0  0  0
  -30.1330  -16.5950   21.4020 C   0  0  0  0  0  2  0  0  0  0  0  0
  -31.2950  -17.5120   21.7980 C   0  0  0  0  0  3  0  0  0  0  0  0
  -30.5510  -17.9350   19.5160 C   0  0  0  0  0  3  0  0  0  0  0  0
  -30.2390  -16.4450   19.9440 N   0  0  0  0  0  0  0  0  0  0  0  0
  -25.6000  -14.2390   20.2970 C   0  0  0  0  0  0  0  0  0  0  0  0
  -24.5360  -13.4990   20.7330 C   0  0  0  0  0  0  0  0  0  0  0  0
  -24.9160  -12.1300   20.5830 C   0  0  0  0  0  0  0  0  0  0  0  0
  -26.5610  -13.3240   19.9000 N   0  0  0  0  0  0  0  0  0  0  0  0
  -26.1650  -12.0460   20.1370 N   0  0  0  0  0  0  0  0  0  0  0  0
  -24.1420  -10.8980   20.7810 C   0  0  0  0  0  0  0  0  0  0  0  0
  -24.5830   -9.8780   21.6520 C   0  0  0  0  0  3  0  0  0  0  0  0
  -23.8090   -8.7120   21.8400 C   0  0  0  0  0  3  0  0  0  0  0  0
  -22.5800   -8.5580   21.1570 C   0  0  0  0  0  0  0  0  0  0  0  0
  -22.1560   -9.5660   20.2720 C   0  0  0  0  0  3  0  0  0  0  0  0
  -22.9300  -10.7240   20.0830 C   0  0  0  0  0  3  0  0  0  0  0  0
  -21.7750   -7.4490   21.2570 O   0  0  0  0  0  0  0  0  0  0  0  0
  -21.7470   -6.6800   22.3940 C   0  0  0  0  0  0  0  0  0  0  0  0
  -21.3750   -7.2150   23.6470 C   0  0  0  0  0  3  0  0  0  0  0  0
  -21.2940   -6.3750   24.7750 C   0  0  0  0  0  3  0  0  0  0  0  0
  -21.5730   -5.0010   24.6510 C   0  0  0  0  0  0  0  0  0  0  0  0
  -21.9360   -4.4650   23.4030 C   0  0  0  0  0  3  0  0  0  0  0  0
  -22.0210   -5.3030   22.2780 C   0  0  0  0  0  0  0  0  0  0  0  0
  -22.3520   -4.7780   21.0730 F   0  0  0  0  0  0  0  0  0  0  0  0
  -21.4850   -4.1910   25.7320 F   0  0  0  0  0  0  0  0  0  0  0  0
  -23.2020  -14.0310   21.1710 C   0  0  0  0  0  0  0  0  0  0  0  0
  -22.5260  -13.3290   22.0730 N   0  0  0  0  0  0  0  0  0  0  0  0
  -22.7710  -15.1040   20.7470 O   0  0  0  0  0  0  0  0  0  0  0  0
  -22.8880  -12.4610   22.4390 H   0  0  0  0  0  0  0  0  0  0  0  0
  -21.6330  -13.6650   22.4050 H   0  0  0  0  0  0  0  0  0  0  0  0
  -25.8240  -15.6080   20.1800 N   0  0  0  0  0  0  0  0  0  0  0  0
  -25.1110  -16.2920   20.4070 H   0  0  0  0  0  0  0  0  0  0  0  0
  -26.6640  -16.0220   19.7980 H   0  0  0  0  0  0  0  0  0  0  0  0
  -31.8930  -19.3220   23.4030 C   0  0  0  0  0  1  0  0  0  0  0  0
  -31.1790  -18.0500   23.1730 N   0  0  0  0  0  4  0  0  0  0  0  0
  -31.5530  -17.3720   23.8180 H   0  0  0  0  0  0  0  0  0  0  0  0
  -30.2100  -18.1820   23.4130 H   0  0  0  0  0  0  0  0  0  0  0  0
  -27.8350  -24.9780   19.0230 C   0  0  0  0  0  2  0  0  0  0  0  0
  -28.1550  -26.4490   19.3720 O   0  0  0  0  0  0  0  0  0  0  0  0
  -24.4590  -31.7210   22.9620 C   0  0  0  0  0  0  0  0  0  0  0  0
  -27.0610  -27.3900   19.4330 C   0  0  0  0  0  0  0  0  0  0  0  0
  -23.2240  -30.3760   21.3090 C   0  0  0  0  0  3  0  0  0  0  0  0
  -24.6500  -28.9950   19.6840 C   0  0  0  0  0  0  0  0  0  0  0  0
  -25.7450  -30.7920   21.0050 C   0  0  0  0  0  2  0  0  0  0  0  0
  -25.8450  -29.4570   20.2510 C   0  0  0  0  0  0  0  0  0  0  0  0
  -27.0470  -28.6690   20.1170 C   0  0  0  0  0  3  0  0  0  0  0  0
  -25.8290  -27.0410   18.8240 C   0  0  0  0  0  3  0  0  0  0  0  0
  -24.6520  -27.8000   18.9570 C   0  0  0  0  0  3  0  0  0  0  0  0
  -23.3860  -29.8140   19.8730 C   0  0  0  0  0  2  0  0  0  0  0  0
  -24.4990  -30.9810   21.8130 N   0  0  0  0  0  0  0  0  0  0  0  0
  -23.3970  -31.9090   23.5750 O   0  0  0  0  0  0  0  0  0  0  0  0
  -22.6640  -29.2670   22.2340 C   0  0  0  0  0  0  0  0  0  0  0  0
  -21.3480  -29.0030   22.1470 N   0  0  0  0  0  0  0  0  0  0  0  0
  -23.4120  -28.6490   22.9950 O   0  0  0  0  0  0  0  0  0  0  0  0
  -20.7950  -29.5590   21.5100 H   0  0  0  0  0  0  0  0  0  0  0  0
  -18.0950  -27.4970   22.6680 C   0  0  0  0  0  0  0  0  0  0  0  0
  -20.6270  -27.9680   22.8950 C   0  0  0  0  0  3  0  0  0  0  0  0
  -20.8390  -26.5740   22.2600 C   0  0  0  0  0  2  0  0  0  0  0  0
  -19.7450  -26.1960   21.2570 C   0  0  0  0  0  2  0  0  0  0  0  0
  -18.3700  -26.1960   21.9320 C   0  0  0  0  0  2  0  0  0  0  0  0
  -19.1530  -28.3370   23.1050 C   0  0  0  0  0  0  0  0  0  0  0  0
  -18.8380  -29.5510   23.7540 C   0  0  0  0  0  3  0  0  0  0  0  0
  -17.4990  -29.9280   23.9670 C   0  0  0  0  0  3  0  0  0  0  0  0
  -16.4550  -29.0870   23.5430 C   0  0  0  0  0  3  0  0  0  0  0  0
  -16.7540  -27.8730   22.9000 C   0  0  0  0  0  3  0  0  0  0  0  0
  -25.7430  -32.3800   23.5490 C   0  0  0  0  0  3  0  0  0  0  0  0
  -26.3500  -31.5770   24.7640 C   0  0  1  0  0  0  0  0  0  0  0  0
  -25.3190  -31.2450   25.8680 C   0  0  0  0  0  1  0  0  0  0  0  0
  -26.9720  -30.2450   24.2850 C   0  0  0  0  0  1  0  0  0  0  0  0
  -27.4970  -32.3900   25.4090 C   0  0  0  0  0  1  0  0  0  0  0  0
  -25.3950  -33.7490   23.9640 N   0  0  0  0  0  0  0  0  0  0  0  0
  -25.6930  -34.8560   23.2690 C   0  0  0  0  0  0  0  0  0  0  0  0
  -26.3570  -34.8330   22.2290 O   0  0  0  0  0  0  0  0  0  0  0  0
  -24.8060  -33.8390   24.7780 H   0  0  0  0  0  0  0  0  0  0  0  0
  -23.9250  -36.6270   23.0250 C   0  0  0  0  0  1  0  0  0  0  0  0
  -25.1730  -36.2010   23.8140 C   0  0  0  0  0  3  0  0  0  0  0  0
  -27.2770  -37.0840   24.7200 C   0  0  0  0  0  1  0  0  0  0  0  0
  -26.1820  -37.2820   23.7740 N   0  0  0  0  0  0  0  0  0  0  0  0
  -25.7530  -38.1820   23.9710 H   0  0  0  0  0  0  0  0  0  0  0  0
  1  2  2  0
  1  3  1  0
  2  4  1  0
  3  5  2  0
  4  9  2  0
  5  9  1  0
  5  8  1  0
  6  1  1  0
  7  2  1  0
 10  3  1  0
 11 17  1  0
 11 23  1  0
 12 17  1  0
 13 14  1  0
 13 12  1  0
 15 14  1  0
 15 27  1  0
 15 16  1  0
 17 16  1  0
 18 11  2  0
 19 21  1  0
 20 21  1  0
 21 53  1  0
 22 10  1  0
 22 23  1  0
 22 19  1  0
 23 20  1  0
 24 25  2  0
 25 44  1  0
 26 25  1  0
 26 29  1  0
 27 28  1  0
 27 24  1  0
 28 26  2  0
 29 30  1  0
 30 31  2  0
 32 35  1  0
 32 31  1  0
 33 32  2  0
 34 33  1  0
 34 29  2  0
 35 36  1  0
 36 37  1  0
 37 38  2  0
 39 38  1  0
 39 43  1  0
 40 39  2  0
 41 36  2  0
 41 40  1  0
 42 41  1  0
 44 45  1  0
 45 48  1  0
 45 47  1  0
 46 44  2  0
 49 24  1  0
 49 50  1  0
 51 49  1  0
 53 52  1  0
 53 55  1  0
 53 54  1  0
 56  4  1  0
 56 57  1  0
 57 59  1  0
 58 69  2  0
 59 64  1  0
 60 68  1  0
 60 70  1  0
 61 67  1  0
 61 63  1  0
 62 68  1  0
 63 62  1  0
 64 63  2  0
 65 66  1  0
 65 59  2  0
 66 61  2  0
 67 60  1  0
 68 58  1  0
 70 72  2  0
 71 70  1  0
 73 71  1  0
 74 83  2  0
 74 79  1  0
 75 71  1  0
 75 79  1  0
 76 75  1  0
 77 78  1  0
 77 76  1  0
 78 74  1  0
 79 80  2  0
 80 81  1  0
 82 81  2  0
 83 82  1  0
 84 58  1  0
 84 89  1  0
 84 85  1  0
 85 88  1  1
 85 86  1  0
 87 85  1  0
 89 92  1  0
 90 94  1  0
 90 89  1  0
 91 90  2  0
 94 93  1  0
 96 94  1  0
 96 97  1  0
 96 95  1  0
M  ISO  4  11 100  23 100  56 101  57 101
M  END
>  <TORSDO>  (90) 
F 19

>  <SCORE>  (90) 
-11.768

>  <name>  (90) 
89

>  <ligand_id>  (90) 
89

>  <original_smiles>  (90) 
[H]c1c([H])c([H])c2c(c1[H])C([H])([H])C([H])([H])C([H])([H])C2([H])N([H])C(=O)C1([H])N(C(=O)C([H])(N([H])C(=O)C([H])(N([H])C([H])([H])[H])C([H])([H])[H])C(C([H])([H])[H])(C([H])([H])[H])C([H])([H])[H])C([H])([H])c2c([H])c(OC([H])([H])c3nc(C([H])([H])[H])c(C([H])([H])C4([H])N(C(=O)N5C([H])([H])C([H])([H])C([H])([H])C([H])(n6nc(-c7c([H])c([H])c(Oc8c([H])c([H])c(F)c([H])c8F)c([H])c7[H])c(C(=O)N([H])[H])c6N([H])[H])C5([H])[H])C([H])([H])C([H])([N+]([H])([H])C([H])([H])[H])C4([H])[H])c(C([H])([H])[H])c3C([H])([H])[H])c([H])c([H])c2C1([H])[H]

>  <smiles>  (90) 
[H]c1c([H])c([H])c2c(c1[H])C([H])([H])C([H])([H])C([H])([H])C2([H])N([H])C(=O)C1([H])N(C(=O)C([H])(N([H])C(=O)C([H])(N([H])C([H])([H])[H])C([H])([H])[H])C(C([H])([H])[H])(C([H])([H])[H])C([H])([H])[H])C([H])([H])c2c([H])c(OC([H])([H])c3nc(C([H])([H])[H])c(C([H])([H])C4([H])N(C(=O)N5C([H])([H])C([H])([H])C([H])([H])C([H])(n6nc(-c7c([H])c([H])c(Oc8c([H])c([H])c(F)c([H])c8F)c([H])c7[H])c(C(=O)N([H])[H])c6N([H])[H])C5([H])[H])C([H])([H])C([H])([N+]([H])([H])C([H])([H])[H])C4([H])[H])c(C([H])([H])[H])c3C([H])([H])[H])c([H])c([H])c2C1([H])[H]

$$$$
90:0:0
     RDKit          3D

 94104  0  0  1  0  0  0  0  0999 V2000
  -30.5350  -24.2960   20.6690 C   0  0  0  0  0  0  0  0  0  0  0  0
  -29.2140  -24.0450   20.2170 C   0  0  0  0  0  3  0  0  0  0  0  0
  -30.8890  -22.0160   21.0300 C   0  0  0  0  0  3  0  0  0  0  0  0
  -29.5820  -21.7100   20.5560 C   0  0  0  0  0  0  0  0  0  0  0  0
  -31.1420  -25.6850   20.6960 C   0  0  0  0  0  1  0  0  0  0  0  0
  -31.8590  -20.9780   21.5590 C   0  0  0  0  0  1  0  0  0  0  0  0
  -31.3500  -23.2930   21.0810 N   0  0  0  0  0  0  0  0  0  0  0  0
  -28.7600  -22.7430   20.1700 N   0  0  0  0  0  0  0  0  0  0  0  0
  -28.5370  -25.2390   18.0940 C   0  0  0  0  0  1  0  0  0  0  0  0
  -28.2870  -25.1570   19.6110 C   0  0  0  0  0  3  0  0  0  0  0  0
  -28.3490  -26.5330   20.1530 O   0  0  0  0  0  0  0  0  0  0  0  0
  -24.6170  -31.8760   23.2240 C   0  0  0  0  0  0  0  0  0  0  0  0
  -27.2110  -27.3570   20.1050 C   0  0  0  0  0  0  0  0  0  0  0  0
  -23.3990  -30.4850   21.5910 C   0  0  0  0  0  3  0  0  0  0  0  0
  -24.8360  -28.9550   20.1420 C   0  0  0  0  0  0  0  0  0  0  0  0
  -25.9370  -30.8130   21.3840 C   0  0  0  0  0  2  0  0  0  0  0  0
  -26.0110  -29.4410   20.7270 C   0  0  0  0  0  0  0  0  0  0  0  0
  -27.1990  -28.6540   20.7030 C   0  0  0  0  0  3  0  0  0  0  0  0
  -26.0040  -26.9240   19.5000 C   0  0  0  0  0  3  0  0  0  0  0  0
  -24.8340  -27.6990   19.5230 C   0  0  0  0  0  3  0  0  0  0  0  0
  -23.6000  -29.8250   20.2040 C   0  0  0  0  0  2  0  0  0  0  0  0
  -24.6710  -31.0740   22.1220 N   0  0  0  0  0  0  0  0  0  0  0  0
  -23.5390  -32.1490   23.7710 O   0  0  0  0  0  0  0  0  0  0  0  0
  -22.7510  -29.4570   22.5480 C   0  0  0  0  0  0  0  0  0  0  0  0
  -21.4260  -29.2730   22.4270 N   0  0  0  0  0  0  0  0  0  0  0  0
  -23.4380  -28.8310   23.3580 O   0  0  0  0  0  0  0  0  0  0  0  0
  -20.9310  -29.8290   21.7420 H   0  0  0  0  0  0  0  0  0  0  0  0
  -18.0560  -28.0630   22.9410 C   0  0  0  0  0  0  0  0  0  0  0  0
  -20.6140  -28.3320   23.2000 C   0  0  0  0  0  3  0  0  0  0  0  0
  -20.7200  -26.9020   22.6230 C   0  0  0  0  0  2  0  0  0  0  0  0
  -19.6150  -26.5760   21.6150 C   0  0  0  0  0  2  0  0  0  0  0  0
  -18.2350  -26.7150   22.2630 C   0  0  0  0  0  2  0  0  0  0  0  0
  -19.1730  -28.8300   23.3660 C   0  0  0  0  0  0  0  0  0  0  0  0
  -18.9520  -30.0920   23.9600 C   0  0  0  0  0  3  0  0  0  0  0  0
  -17.6460  -30.5880   24.1310 C   0  0  0  0  0  3  0  0  0  0  0  0
  -16.5420  -29.8190   23.7230 C   0  0  0  0  0  3  0  0  0  0  0  0
  -16.7480  -28.5580   23.1330 C   0  0  0  0  0  3  0  0  0  0  0  0
  -25.9060  -32.5080   23.8370 C   0  0  0  0  0  3  0  0  0  0  0  0
  -25.5940  -33.9000   24.1860 N   0  0  0  0  0  0  0  0  0  0  0  0
  -25.8970  -34.9610   23.4270 C   0  0  0  0  0  0  0  0  0  0  0  0
  -26.5400  -34.8710   22.3780 O   0  0  0  0  0  0  0  0  0  0  0  0
  -25.0220  -34.0440   25.0060 H   0  0  0  0  0  0  0  0  0  0  0  0
  -24.1380  -36.7360   23.1400 C   0  0  0  0  0  1  0  0  0  0  0  0
  -25.4090  -36.3420   23.9090 C   0  0  0  0  0  3  0  0  0  0  0  0
  -27.5590  -37.2430   24.6770 C   0  0  0  0  0  1  0  0  0  0  0  0
  -26.4270  -37.4060   23.7700 N   0  0  0  0  0  0  0  0  0  0  0  0
  -26.0150  -38.3200   23.9380 H   0  0  0  0  0  0  0  0  0  0  0  0
  -26.4410  -31.7250   25.0980 C   0  0  1  0  0  0  0  0  0  0  0  0
  -25.3610  -31.4690   26.1760 C   0  0  0  0  0  1  0  0  0  0  0  0
  -27.0280  -30.3560   24.6850 C   0  0  0  0  0  1  0  0  0  0  0  0
  -27.5950  -32.5190   25.7540 C   0  0  0  0  0  1  0  0  0  0  0  0
  -28.9960  -20.4350   20.4840 O   0  0  0  0  0  0  0  0  0  0  0  0
  -30.6050  -14.6760   20.1490 C   0  0  0  0  0  0  0  0  0  0  0  0
  -30.2810  -12.4640   19.0500 C   0  0  0  0  0  2  0  0  0  0  0  0
  -29.2960  -12.5730   17.8680 C   0  0  0  0  0  2  0  0  0  0  0  0
  -27.8480  -12.3850   18.3580 C   0  0  0  0  0  2  0  0  0  0  0  0
  -27.5230  -13.2590   19.5930 C   0  0  0  0  0  3  0  0  0  0  0  0
  -28.6240  -13.1680   20.6750 C   0  0  0  0  0  2  0  0  0  0  0  0
  -29.9080  -13.4970   20.0410 N   0  0  0  0  0  0  0  0  0  0  0  0
  -31.7710  -14.7490   19.7500 O   0  0  0  0  0  0  0  0  0  0  0  0
  -28.9480  -16.5660   19.8940 C   0  0  0  0  0  2  0  0  0  0  0  0
  -30.6600  -16.8630   21.4170 C   0  0  0  0  0  2  0  0  0  0  0  0
  -28.7890  -18.0020   20.4110 C   0  0  0  0  0  3  0  0  0  0  0  0
  -29.8670  -18.1850   21.4250 C   0  0  0  0  0  3  0  0  0  0  0  0
  -29.7450  -19.1940   20.2730 C   0  0  0  0  0  3  0  0  0  0  0  0
  -29.9740  -15.8030   20.6380 N   0  0  0  0  0  0  0  0  0  0  0  0
  -25.1630  -13.8560   20.4180 C   0  0  0  0  0  0  0  0  0  0  0  0
  -24.1130  -13.0770   20.8220 C   0  0  0  0  0  0  0  0  0  0  0  0
  -24.5790  -11.7280   20.7680 C   0  0  0  0  0  0  0  0  0  0  0  0
  -26.1990  -12.9780   20.1380 N   0  0  0  0  0  0  0  0  0  0  0  0
  -25.8580  -11.6950   20.4140 N   0  0  0  0  0  0  0  0  0  0  0  0
  -23.8660  -10.4620   20.9740 C   0  0  0  0  0  0  0  0  0  0  0  0
  -24.3280   -9.4970   21.8950 C   0  0  0  0  0  3  0  0  0  0  0  0
  -23.6120   -8.2960   22.0900 C   0  0  0  0  0  3  0  0  0  0  0  0
  -22.4230   -8.0520   21.3610 C   0  0  0  0  0  0  0  0  0  0  0  0
  -21.9820   -9.0070   20.4280 C   0  0  0  0  0  3  0  0  0  0  0  0
  -22.6980  -10.1990   20.2320 C   0  0  0  0  0  3  0  0  0  0  0  0
  -21.6780   -6.9020   21.4640 O   0  0  0  0  0  0  0  0  0  0  0  0
  -21.6480   -6.1660   22.6220 C   0  0  0  0  0  0  0  0  0  0  0  0
  -21.2300   -6.7250   23.8490 C   0  0  0  0  0  3  0  0  0  0  0  0
  -21.1450   -5.9150   24.9990 C   0  0  0  0  0  3  0  0  0  0  0  0
  -21.4710   -4.5470   24.9230 C   0  0  0  0  0  0  0  0  0  0  0  0
  -21.8840   -3.9890   23.7000 C   0  0  0  0  0  3  0  0  0  0  0  0
  -21.9680   -4.7950   22.5520 C   0  0  0  0  0  0  0  0  0  0  0  0
  -22.3420   -4.2480   21.3720 F   0  0  0  0  0  0  0  0  0  0  0  0
  -21.3840   -3.7660   26.0260 F   0  0  0  0  0  0  0  0  0  0  0  0
  -22.7240  -13.5480   21.1440 C   0  0  0  0  0  0  0  0  0  0  0  0
  -22.0310  -12.8450   22.0330 N   0  0  0  0  0  0  0  0  0  0  0  0
  -22.2630  -14.5730   20.6420 O   0  0  0  0  0  0  0  0  0  0  0  0
  -22.4160  -12.0170   22.4600 H   0  0  0  0  0  0  0  0  0  0  0  0
  -21.1010  -13.1440   22.2920 H   0  0  0  0  0  0  0  0  0  0  0  0
  -25.3140  -15.2280   20.2420 N   0  0  0  0  0  0  0  0  0  0  0  0
  -24.5520  -15.8810   20.3980 H   0  0  0  0  0  0  0  0  0  0  0  0
  -26.1490  -15.6740   19.8890 H   0  0  0  0  0  0  0  0  0  0  0  0
  1  5  1  0
  1  7  2  0
  2 10  1  0
  2  1  1  0
  3  7  1  0
  3  6  1  0
  4  3  1  0
  8  2  1  0
  8  4  2  0
 10  9  1  0
 10 11  1  0
 12 23  2  0
 13 11  1  0
 13 18  1  0
 14 22  1  0
 14 24  1  0
 15 21  1  0
 15 17  1  0
 16 22  1  0
 17 16  1  0
 18 17  2  0
 19 20  1  0
 19 13  2  0
 20 15  2  0
 21 14  1  0
 22 12  1  0
 24 26  2  0
 25 24  1  0
 27 25  1  0
 28 37  2  0
 28 33  1  0
 29 25  1  0
 29 33  1  0
 30 29  1  0
 31 32  1  0
 31 30  1  0
 32 28  1  0
 33 34  2  0
 34 35  1  0
 36 35  2  0
 37 36  1  0
 38 12  1  0
 38 39  1  0
 38 48  1  0
 39 42  1  0
 40 44  1  0
 40 39  1  0
 41 40  2  0
 44 43  1  0
 46 44  1  0
 46 47  1  0
 46 45  1  0
 48 51  1  1
 48 49  1  0
 50 48  1  0
 52  4  1  0
 53 66  1  0
 54 59  1  0
 55 56  1  0
 55 54  1  0
 57 56  1  0
 57 70  1  0
 57 58  1  0
 59 53  1  0
 59 58  1  0
 60 53  2  0
 61 66  1  0
 63 61  1  0
 63 64  1  0
 64 62  1  0
 65 63  1  0
 65 52  1  0
 65 64  1  0
 66 62  1  0
 67 68  2  0
 68 87  1  0
 69 68  1  0
 69 72  1  0
 70 71  1  0
 70 67  1  0
 71 69  2  0
 72 73  1  0
 73 74  2  0
 75 78  1  0
 75 74  1  0
 76 75  2  0
 77 76  1  0
 77 72  2  0
 78 79  1  0
 79 80  1  0
 80 81  2  0
 82 81  1  0
 82 86  1  0
 83 82  2  0
 84 79  2  0
 84 83  1  0
 85 84  1  0
 87 88  1  0
 88 91  1  0
 88 90  1  0
 89 87  2  0
 92 93  1  0
 92 67  1  0
 94 92  1  0
M  ISO  4  10 101  11 101  53 100  66 100
M  END
>  <TORSDO>  (91) 
F 18

>  <SCORE>  (91) 
-14.887

>  <name>  (91) 
90

>  <ligand_id>  (91) 
90

>  <original_smiles>  (91) 
[H]c1c([H])c([H])c2c(c1[H])C([H])([H])C([H])([H])C([H])([H])C2([H])N([H])C(=O)C1([H])N(C(=O)C([H])(N([H])C(=O)C([H])(N([H])C([H])([H])[H])C([H])([H])[H])C(C([H])([H])[H])(C([H])([H])[H])C([H])([H])[H])C([H])([H])c2c([H])c(OC([H])(c3nc(OC4([H])C5([H])C([H])([H])N(C(=O)N6C([H])([H])C([H])([H])C([H])([H])C([H])(n7nc(-c8c([H])c([H])c(Oc9c([H])c([H])c(F)c([H])c9F)c([H])c8[H])c(C(=O)N([H])[H])c7N([H])[H])C6([H])[H])C([H])([H])C45[H])c(C([H])([H])[H])nc3C([H])([H])[H])C([H])([H])[H])c([H])c([H])c2C1([H])[H]

>  <smiles>  (91) 
[H]c1c([H])c([H])c2c(c1[H])C([H])([H])C([H])([H])C([H])([H])C2([H])N([H])C(=O)C1([H])N(C(=O)C([H])(N([H])C(=O)C([H])(N([H])C([H])([H])[H])C([H])([H])[H])C(C([H])([H])[H])(C([H])([H])[H])C([H])([H])[H])C([H])([H])c2c([H])c(OC([H])(c3nc(OC4([H])C5([H])C([H])([H])N(C(=O)N6C([H])([H])C([H])([H])C([H])([H])C([H])(n7nc(-c8c([H])c([H])c(Oc9c([H])c([H])c(F)c([H])c9F)c([H])c8[H])c(C(=O)N([H])[H])c7N([H])[H])C6([H])[H])C([H])([H])C45[H])c(C([H])([H])[H])nc3C([H])([H])[H])C([H])([H])[H])c([H])c([H])c2C1([H])[H]

$$$$
91:0:0
     RDKit          3D

 92101  0  0  1  0  0  0  0  0999 V2000
  -30.4670  -21.1680   18.6260 C   0  0  0  0  0  3  0  0  0  0  0  0
  -28.9030  -21.7500   20.3120 C   0  0  0  0  0  3  0  0  0  0  0  0
  -29.6610  -20.6390   19.6520 C   0  0  0  0  0  0  0  0  0  0  0  0
  -30.5460  -22.5440   18.3240 C   0  0  0  0  0  0  0  0  0  0  0  0
  -28.9950  -23.2080   19.9420 C   0  0  0  0  0  0  0  0  0  0  0  0
  -31.5460  -23.0050   17.2880 C   0  0  0  0  0  1  0  0  0  0  0  0
  -29.8380  -23.5210   18.9350 N   0  0  0  0  0  0  0  0  0  0  0  0
  -30.7480  -15.0370   19.5420 C   0  0  0  0  0  0  0  0  0  0  0  0
  -30.5060  -12.7210   18.5050 C   0  0  0  0  0  2  0  0  0  0  0  0
  -29.4300  -12.6980   17.3930 C   0  0  0  0  0  2  0  0  0  0  0  0
  -28.0300  -12.4670   17.9970 C   0  0  0  0  0  2  0  0  0  0  0  0
  -27.7770  -13.3400   19.2530 C   0  0  0  0  0  3  0  0  0  0  0  0
  -28.9590  -13.2680   20.2280 C   0  0  0  0  0  2  0  0  0  0  0  0
  -30.1330  -13.7750   19.4990 N   0  0  0  0  0  0  0  0  0  0  0  0
  -31.8970  -15.0720   19.0760 O   0  0  0  0  0  0  0  0  0  0  0  0
  -29.3780  -18.3100   21.2410 C   0  0  0  0  0  2  0  0  0  0  0  0
  -29.9350  -19.0080   20.0110 C   0  0  0  0  0  3  0  0  0  0  0  0
  -30.0390  -16.8670   21.2190 C   0  0  0  0  0  3  0  0  0  0  0  0
  -29.9090  -17.6420   19.0610 C   0  0  0  0  0  3  0  0  0  0  0  0
  -29.4890  -15.9670   22.3280 C   0  0  0  0  0  1  0  0  0  0  0  0
  -30.8270  -17.7390   17.8320 C   0  0  0  0  0  1  0  0  0  0  0  0
  -30.0440  -16.2730   19.8450 N   0  0  0  0  0  0  0  0  0  0  0  0
  -25.5290  -13.9080   20.3340 C   0  0  0  0  0  0  0  0  0  0  0  0
  -24.5000  -13.1270   20.7880 C   0  0  0  0  0  0  0  0  0  0  0  0
  -24.9310  -11.7750   20.6250 C   0  0  0  0  0  0  0  0  0  0  0  0
  -26.5100  -13.0300   19.9050 N   0  0  0  0  0  0  0  0  0  0  0  0
  -26.1710  -11.7370   20.1460 N   0  0  0  0  0  0  0  0  0  0  0  0
  -24.2130  -10.5120   20.8390 C   0  0  0  0  0  0  0  0  0  0  0  0
  -24.6710   -9.5460   21.7620 C   0  0  0  0  0  3  0  0  0  0  0  0
  -23.9520   -8.3480   21.9600 C   0  0  0  0  0  3  0  0  0  0  0  0
  -22.7610   -8.1080   21.2340 C   0  0  0  0  0  0  0  0  0  0  0  0
  -22.3230   -9.0620   20.2990 C   0  0  0  0  0  3  0  0  0  0  0  0
  -23.0410  -10.2530   20.1000 C   0  0  0  0  0  3  0  0  0  0  0  0
  -22.0080   -6.9650   21.3450 O   0  0  0  0  0  0  0  0  0  0  0  0
  -21.8990   -6.2880   22.5320 C   0  0  0  0  0  0  0  0  0  0  0  0
  -21.3800   -6.8990   23.6940 C   0  0  0  0  0  3  0  0  0  0  0  0
  -21.2230   -6.1470   24.8760 C   0  0  0  0  0  3  0  0  0  0  0  0
  -21.5700   -4.7830   24.8940 C   0  0  0  0  0  0  0  0  0  0  0  0
  -22.0770   -4.1700   23.7350 C   0  0  0  0  0  3  0  0  0  0  0  0
  -22.2380   -4.9190   22.5570 C   0  0  0  0  0  0  0  0  0  0  0  0
  -22.7090   -4.3170   21.4390 F   0  0  0  0  0  0  0  0  0  0  0  0
  -21.4080   -4.0590   26.0270 F   0  0  0  0  0  0  0  0  0  0  0  0
  -23.1580  -13.6090   21.2570 C   0  0  0  0  0  0  0  0  0  0  0  0
  -22.5540  -12.8970   22.2000 N   0  0  0  0  0  0  0  0  0  0  0  0
  -22.6610  -14.6460   20.8240 O   0  0  0  0  0  0  0  0  0  0  0  0
  -22.9800  -12.0620   22.5690 H   0  0  0  0  0  0  0  0  0  0  0  0
  -21.6570  -13.1930   22.5570 H   0  0  0  0  0  0  0  0  0  0  0  0
  -25.7030  -15.2840   20.2280 N   0  0  0  0  0  0  0  0  0  0  0  0
  -24.9900  -15.9440   20.5170 H   0  0  0  0  0  0  0  0  0  0  0  0
  -26.5560  -15.7290   19.9080 H   0  0  0  0  0  0  0  0  0  0  0  0
  -28.1850  -24.5410   20.5400 C   0  0  0  0  0  2  0  0  0  0  0  0
  -28.5400  -26.0720   20.3330 O   0  0  0  0  0  0  0  0  0  0  0  0
  -24.8190  -31.8310   23.1860 C   0  0  0  0  0  0  0  0  0  0  0  0
  -27.5100  -27.0900   20.2620 C   0  0  0  0  0  0  0  0  0  0  0  0
  -23.6860  -30.4150   21.5220 C   0  0  0  0  0  3  0  0  0  0  0  0
  -25.1910  -28.8510   20.1450 C   0  0  0  0  0  0  0  0  0  0  0  0
  -26.2440  -30.6980   21.4330 C   0  0  0  0  0  2  0  0  0  0  0  0
  -26.3500  -29.2980   20.7900 C   0  0  0  0  0  0  0  0  0  0  0  0
  -27.5180  -28.4390   20.8240 C   0  0  0  0  0  3  0  0  0  0  0  0
  -26.3350  -26.7670   19.5540 C   0  0  0  0  0  3  0  0  0  0  0  0
  -25.2000  -27.6020   19.5040 C   0  0  0  0  0  3  0  0  0  0  0  0
  -23.9570  -29.7390   20.1520 C   0  0  0  0  0  2  0  0  0  0  0  0
  -24.9350  -31.0030   22.1020 N   0  0  0  0  0  0  0  0  0  0  0  0
  -23.7130  -32.1070   23.6760 O   0  0  0  0  0  0  0  0  0  0  0  0
  -22.9860  -29.4040   22.4650 C   0  0  0  0  0  0  0  0  0  0  0  0
  -21.6540  -29.2660   22.3430 N   0  0  0  0  0  0  0  0  0  0  0  0
  -23.6460  -28.7460   23.2740 O   0  0  0  0  0  0  0  0  0  0  0  0
  -21.1800  -29.8470   21.6670 H   0  0  0  0  0  0  0  0  0  0  0  0
  -18.2380  -28.1780   22.8860 C   0  0  0  0  0  0  0  0  0  0  0  0
  -20.8120  -28.3360   23.1020 C   0  0  0  0  0  3  0  0  0  0  0  0
  -20.8460  -26.9210   22.4780 C   0  0  0  0  0  2  0  0  0  0  0  0
  -19.7100  -26.6740   21.4800 C   0  0  0  0  0  2  0  0  0  0  0  0
  -18.3490  -26.8480   22.1600 C   0  0  0  0  0  2  0  0  0  0  0  0
  -19.3950  -28.8840   23.3140 C   0  0  0  0  0  0  0  0  0  0  0  0
  -19.2350  -30.1310   23.9560 C   0  0  0  0  0  3  0  0  0  0  0  0
  -17.9520  -30.6710   24.1730 C   0  0  0  0  0  3  0  0  0  0  0  0
  -16.8120  -29.9620   23.7600 C   0  0  0  0  0  3  0  0  0  0  0  0
  -16.9560  -28.7170   23.1220 C   0  0  0  0  0  3  0  0  0  0  0  0
  -26.0660  -32.4870   23.8500 C   0  0  0  0  0  3  0  0  0  0  0  0
  -25.6950  -33.8540   24.2500 N   0  0  0  0  0  0  0  0  0  0  0  0
  -25.9890  -34.9620   23.5560 C   0  0  0  0  0  0  0  0  0  0  0  0
  -26.6660  -34.9430   22.5250 O   0  0  0  0  0  0  0  0  0  0  0  0
  -25.0900  -33.9390   25.0550 H   0  0  0  0  0  0  0  0  0  0  0  0
  -24.2000  -36.7130   23.2910 C   0  0  0  0  0  1  0  0  0  0  0  0
  -25.4490  -36.3050   24.0890 C   0  0  0  0  0  3  0  0  0  0  0  0
  -27.5410  -37.2210   24.9940 C   0  0  0  0  0  1  0  0  0  0  0  0
  -26.4430  -37.3990   24.0480 N   0  0  0  0  0  0  0  0  0  0  0  0
  -26.0020  -38.2950   24.2380 H   0  0  0  0  0  0  0  0  0  0  0  0
  -26.6030  -31.6780   25.0940 C   0  0  1  0  0  0  0  0  0  0  0  0
  -25.5090  -31.3360   26.1340 C   0  0  0  0  0  1  0  0  0  0  0  0
  -27.2550  -30.3500   24.6460 C   0  0  0  0  0  1  0  0  0  0  0  0
  -27.7070  -32.4910   25.8100 C   0  0  0  0  0  1  0  0  0  0  0  0
  1  3  1  0
  3  2  2  0
  4  1  2  0
  4  7  1  0
  5  2  1  0
  5 51  1  0
  6  4  1  0
  7  5  2  0
  8 22  1  0
  9 14  1  0
 10 11  1  0
 10  9  1  0
 12 11  1  0
 12 26  1  0
 12 13  1  0
 14  8  1  0
 14 13  1  0
 15  8  2  0
 17  3  1  0
 17 16  1  0
 18 16  1  0
 18 20  1  0
 19 21  1  0
 19 22  1  0
 19 17  1  0
 22 18  1  0
 23 24  2  0
 24 43  1  0
 25 24  1  0
 25 28  1  0
 26 27  1  0
 26 23  1  0
 27 25  2  0
 28 29  1  0
 29 30  2  0
 31 34  1  0
 31 30  1  0
 32 31  2  0
 33 32  1  0
 33 28  2  0
 34 35  1  0
 35 40  2  0
 35 36  1  0
 36 37  2  0
 37 38  1  0
 38 42  1  0
 39 38  2  0
 40 39  1  0
 41 40  1  0
 43 44  1  0
 44 47  1  0
 44 46  1  0
 45 43  2  0
 48 23  1  0
 48 49  1  0
 50 48  1  0
 52 51  1  0
 53 64  2  0
 54 52  1  0
 54 59  1  0
 55 63  1  0
 55 65  1  0
 56 62  1  0
 56 58  1  0
 57 63  1  0
 58 59  2  0
 58 57  1  0
 60 54  2  0
 61 60  1  0
 61 56  2  0
 62 55  1  0
 63 53  1  0
 65 67  2  0
 66 65  1  0
 68 66  1  0
 69 78  2  0
 69 74  1  0
 70 66  1  0
 70 74  1  0
 71 70  1  0
 72 73  1  0
 72 71  1  0
 73 69  1  0
 74 75  2  0
 75 76  1  0
 77 76  2  0
 78 77  1  0
 79 53  1  0
 79 80  1  0
 79 89  1  0
 80 83  1  0
 81 85  1  0
 81 80  1  0
 82 81  2  0
 85 84  1  0
 87 85  1  0
 87 88  1  0
 87 86  1  0
 89 92  1  1
 89 90  1  0
 91 89  1  0
M  ISO  4   8 100  22 100  51 101  52 101
M  END
>  <TORSDO>  (92) 
F 17

>  <SCORE>  (92) 
-12.420

>  <name>  (92) 
91

>  <ligand_id>  (92) 
91

>  <original_smiles>  (92) 
[H]c1c([H])c([H])c2c(c1[H])C([H])([H])C([H])([H])C([H])([H])C2([H])N([H])C(=O)C1([H])N(C(=O)C([H])(N([H])C(=O)C([H])(N([H])C([H])([H])[H])C([H])([H])[H])C(C([H])([H])[H])(C([H])([H])[H])C([H])([H])[H])C([H])([H])c2c([H])c(OC([H])([H])c3nc(C([H])([H])[H])c([H])c(C4([H])C([H])([H])C([H])(C([H])([H])[H])N(C(=O)N5C([H])([H])C([H])([H])C([H])([H])C([H])(n6nc(-c7c([H])c([H])c(Oc8c([H])c([H])c(F)c([H])c8F)c([H])c7[H])c(C(=O)N([H])[H])c6N([H])[H])C5([H])[H])C4([H])C([H])([H])[H])c3[H])c([H])c([H])c2C1([H])[H]

>  <smiles>  (92) 
[H]c1c([H])c([H])c2c(c1[H])C([H])([H])C([H])([H])C([H])([H])C2([H])N([H])C(=O)C1([H])N(C(=O)C([H])(N([H])C(=O)C([H])(N([H])C([H])([H])[H])C([H])([H])[H])C(C([H])([H])[H])(C([H])([H])[H])C([H])([H])[H])C([H])([H])c2c([H])c(OC([H])([H])c3nc(C([H])([H])[H])c([H])c(C4([H])C([H])([H])C([H])(C([H])([H])[H])N(C(=O)N5C([H])([H])C([H])([H])C([H])([H])C([H])(n6nc(-c7c([H])c([H])c(Oc8c([H])c([H])c(F)c([H])c8F)c([H])c7[H])c(C(=O)N([H])[H])c6N([H])[H])C5([H])[H])C4([H])C([H])([H])[H])c3[H])c([H])c([H])c2C1([H])[H]

$$$$
92:0:0
     RDKit          3D

 98107  0  0  1  0  0  0  0  0999 V2000
  -30.8110  -22.4970   21.2670 C   0  0  0  0  0  2  0  0  0  0  0  0
  -28.9090  -22.3610   19.6500 C   0  0  0  0  0  2  0  0  0  0  0  0
  -29.6780  -20.2310   20.9280 C   0  0  0  0  0  3  0  0  0  0  0  0
  -31.0100  -21.0250   20.8170 C   0  0  0  0  0  3  0  0  0  0  0  0
  -28.5010  -20.9780   20.2300 C   0  0  0  0  0  3  0  0  0  0  0  0
  -32.1570  -20.3660   21.6080 C   0  0  0  0  0  1  0  0  0  0  0  0
  -29.6250  -23.1800   20.6670 N   0  0  2  0  0  4  0  0  0  0  0  0
  -28.9520  -23.2260   21.4220 H   0  0  0  0  0  0  0  0  0  0  0  0
  -30.0750  -16.4020   21.4410 C   0  0  0  0  0  3  0  0  0  0  0  0
  -30.5150  -15.9560   20.1810 C   0  0  0  0  0  0  0  0  0  0  0  0
  -29.8060  -18.7100   20.6100 C   0  0  0  0  0  0  0  0  0  0  0  0
  -29.7150  -17.7500   21.6610 C   0  0  0  0  0  0  0  0  0  0  0  0
  -30.4820  -16.8720   19.0880 C   0  0  0  0  0  0  0  0  0  0  0  0
  -30.1310  -18.2370   19.3000 C   0  0  0  0  0  0  0  0  0  0  0  0
  -29.3160  -18.1330   23.0810 C   0  0  0  0  0  1  0  0  0  0  0  0
  -30.8800  -16.4370   17.6690 C   0  0  0  0  0  1  0  0  0  0  0  0
  -30.2070  -19.1780   18.0940 C   0  0  0  0  0  1  0  0  0  0  0  0
  -31.2180  -14.6200   20.0410 C   0  0  0  0  0  0  0  0  0  0  0  0
  -30.8220  -12.4290   19.0360 C   0  0  0  0  0  2  0  0  0  0  0  0
  -29.7940  -12.5940   17.8960 C   0  0  0  0  0  2  0  0  0  0  0  0
  -28.3620  -12.4580   18.4420 C   0  0  0  0  0  2  0  0  0  0  0  0
  -28.1090  -13.3240   19.7060 C   0  0  0  0  0  3  0  0  0  0  0  0
  -29.2530  -13.1790   20.7300 C   0  0  0  0  0  2  0  0  0  0  0  0
  -30.5240  -13.4510   20.0500 N   0  0  0  0  0  0  0  0  0  0  0  0
  -32.3820  -14.6880   19.6420 O   0  0  0  0  0  0  0  0  0  0  0  0
  -25.8100  -13.8880   20.7040 C   0  0  0  0  0  0  0  0  0  0  0  0
  -24.7720  -13.0980   21.1190 C   0  0  0  0  0  0  0  0  0  0  0  0
  -25.2100  -11.7490   20.9490 C   0  0  0  0  0  0  0  0  0  0  0  0
  -26.8130  -13.0210   20.3060 N   0  0  0  0  0  0  0  0  0  0  0  0
  -26.4630  -11.7240   20.5140 N   0  0  0  0  0  0  0  0  0  0  0  0
  -24.4890  -10.4810   21.1190 C   0  0  0  0  0  0  0  0  0  0  0  0
  -24.9320   -9.4920   22.0230 C   0  0  0  0  0  3  0  0  0  0  0  0
  -24.2100   -8.2900   22.1820 C   0  0  0  0  0  3  0  0  0  0  0  0
  -23.0290   -8.0660   21.4340 C   0  0  0  0  0  0  0  0  0  0  0  0
  -22.6050   -9.0450   20.5160 C   0  0  0  0  0  3  0  0  0  0  0  0
  -23.3280  -10.2380   20.3570 C   0  0  0  0  0  3  0  0  0  0  0  0
  -22.2760   -6.9190   21.5030 O   0  0  0  0  0  0  0  0  0  0  0  0
  -22.1200   -6.2310   22.6790 C   0  0  0  0  0  0  0  0  0  0  0  0
  -21.5930   -6.8440   23.8370 C   0  0  0  0  0  3  0  0  0  0  0  0
  -21.3830   -6.0820   25.0030 C   0  0  0  0  0  3  0  0  0  0  0  0
  -21.6930   -4.7090   25.0130 C   0  0  0  0  0  0  0  0  0  0  0  0
  -22.2140   -4.0960   23.8600 C   0  0  0  0  0  3  0  0  0  0  0  0
  -22.4220   -4.8550   22.6950 C   0  0  0  0  0  0  0  0  0  0  0  0
  -22.9050   -4.2540   21.5790 F   0  0  0  0  0  0  0  0  0  0  0  0
  -21.4840   -3.9740   26.1300 F   0  0  0  0  0  0  0  0  0  0  0  0
  -23.4150  -13.5620   21.5610 C   0  0  0  0  0  0  0  0  0  0  0  0
  -22.7760  -12.8200   22.4590 N   0  0  0  0  0  0  0  0  0  0  0  0
  -22.9330  -14.6150   21.1460 O   0  0  0  0  0  0  0  0  0  0  0  0
  -23.1810  -11.9660   22.8130 H   0  0  0  0  0  0  0  0  0  0  0  0
  -21.8690  -13.1110   22.7990 H   0  0  0  0  0  0  0  0  0  0  0  0
  -25.9790  -15.2660   20.6110 N   0  0  0  0  0  0  0  0  0  0  0  0
  -25.2510  -15.9260   20.8600 H   0  0  0  0  0  0  0  0  0  0  0  0
  -26.8270  -15.7140   20.2830 H   0  0  0  0  0  0  0  0  0  0  0  0
  -27.4500  -21.1990   21.1610 O   0  0  0  0  0  0  0  0  0  0  0  0
  -27.0980  -20.3480   21.4080 H   0  0  0  0  0  0  0  0  0  0  0  0
  -29.9250  -24.5940   20.2710 C   0  0  0  0  0  2  0  0  0  0  0  0
  -28.6850  -25.3870   19.8170 C   0  0  0  0  0  2  0  0  0  0  0  0
  -28.8210  -26.8040   20.0160 O   0  0  0  0  0  0  0  0  0  0  0  0
  -24.7870  -31.6530   23.3220 C   0  0  0  0  0  0  0  0  0  0  0  0
  -27.6340  -27.5150   20.0070 C   0  0  0  0  0  0  0  0  0  0  0  0
  -23.6660  -30.3330   21.5600 C   0  0  0  0  0  3  0  0  0  0  0  0
  -25.1980  -28.9520   20.0680 C   0  0  0  0  0  0  0  0  0  0  0  0
  -26.1860  -30.7820   21.4520 C   0  0  0  0  0  2  0  0  0  0  0  0
  -26.3290  -29.4660   20.7160 C   0  0  0  0  0  0  0  0  0  0  0  0
  -27.5520  -28.7580   20.6780 C   0  0  0  0  0  3  0  0  0  0  0  0
  -26.4800  -27.0250   19.3490 C   0  0  0  0  0  3  0  0  0  0  0  0
  -25.2690  -27.7330   19.3820 C   0  0  0  0  0  3  0  0  0  0  0  0
  -23.9270  -29.7650   20.1420 C   0  0  0  0  0  2  0  0  0  0  0  0
  -24.8970  -30.9320   22.1700 N   0  0  0  0  0  0  0  0  0  0  0  0
  -23.6850  -31.8540   23.8510 O   0  0  0  0  0  0  0  0  0  0  0  0
  -23.0280  -29.2240   22.4270 C   0  0  0  0  0  0  0  0  0  0  0  0
  -21.7090  -29.0240   22.2680 N   0  0  0  0  0  0  0  0  0  0  0  0
  -23.7150  -28.5510   23.1990 O   0  0  0  0  0  0  0  0  0  0  0  0
  -21.2140  -29.6210   21.6210 H   0  0  0  0  0  0  0  0  0  0  0  0
  -18.3450  -27.7710   22.6730 C   0  0  0  0  0  0  0  0  0  0  0  0
  -20.9030  -28.0140   22.9540 C   0  0  0  0  0  3  0  0  0  0  0  0
  -21.0080  -26.6430   22.2470 C   0  0  0  0  0  2  0  0  0  0  0  0
  -19.9010  -26.4100   21.2130 C   0  0  0  0  0  2  0  0  0  0  0  0
  -18.5220  -26.4900   21.8750 C   0  0  0  0  0  2  0  0  0  0  0  0
  -19.4630  -28.4960   23.1650 C   0  0  0  0  0  0  0  0  0  0  0  0
  -19.2420  -29.7000   23.8680 C   0  0  0  0  0  3  0  0  0  0  0  0
  -17.9380  -30.1790   24.0850 C   0  0  0  0  0  3  0  0  0  0  0  0
  -16.8340  -29.4500   23.6110 C   0  0  0  0  0  3  0  0  0  0  0  0
  -17.0380  -28.2470   22.9110 C   0  0  0  0  0  3  0  0  0  0  0  0
  -26.0360  -32.2800   24.0150 C   0  0  0  0  0  3  0  0  0  0  0  0
  -26.5300  -31.4560   25.2660 C   0  0  1  0  0  0  0  0  0  0  0  0
  -25.4080  -31.1350   26.2800 C   0  0  0  0  0  1  0  0  0  0  0  0
  -27.1600  -30.1150   24.8220 C   0  0  0  0  0  1  0  0  0  0  0  0
  -27.6350  -32.2430   26.0080 C   0  0  0  0  0  1  0  0  0  0  0  0
  -25.6840  -33.6520   24.4000 N   0  0  0  0  0  0  0  0  0  0  0  0
  -25.9940  -34.7430   23.6870 C   0  0  0  0  0  0  0  0  0  0  0  0
  -26.6780  -34.7030   22.6600 O   0  0  0  0  0  0  0  0  0  0  0  0
  -25.0760  -33.7560   25.1980 H   0  0  0  0  0  0  0  0  0  0  0  0
  -24.2110  -36.4930   23.3940 C   0  0  0  0  0  1  0  0  0  0  0  0
  -25.4610  -36.0970   24.1950 C   0  0  0  0  0  3  0  0  0  0  0  0
  -27.5590  -37.0180   25.0760 C   0  0  0  0  0  1  0  0  0  0  0  0
  -26.4600  -37.1860   24.1300 N   0  0  0  0  0  0  0  0  0  0  0  0
  -26.0230  -38.0860   24.3070 H   0  0  0  0  0  0  0  0  0  0  0  0
  2  5  1  0
  2  7  1  0
  3 11  1  0
  4  3  1  0
  4  1  1  0
  4  6  1  0
  5  3  1  0
  5 54  1  0
  7  1  1  0
  7  8  1  1
  9 12  1  0
 10  9  2  0
 11 12  2  0
 12 15  1  0
 13 14  2  0
 13 10  1  0
 14 11  1  0
 16 13  1  0
 17 14  1  0
 18 24  1  0
 18 10  1  0
 19 24  1  0
 20 21  1  0
 20 19  1  0
 22 21  1  0
 22 29  1  0
 22 23  1  0
 24 23  1  0
 25 18  2  0
 26 27  2  0
 27 46  1  0
 28 27  1  0
 28 31  1  0
 29 30  1  0
 29 26  1  0
 30 28  2  0
 31 32  1  0
 32 33  2  0
 34 37  1  0
 34 33  1  0
 35 34  2  0
 36 35  1  0
 36 31  2  0
 37 38  1  0
 38 43  2  0
 38 39  1  0
 39 40  2  0
 40 41  1  0
 41 45  1  0
 42 41  2  0
 43 42  1  0
 44 43  1  0
 46 47  1  0
 47 50  1  0
 47 49  1  0
 48 46  2  0
 51 26  1  0
 51 52  1  0
 53 51  1  0
 54 55  1  0
 56  7  1  0
 57 58  1  0
 57 56  1  0
 59 70  2  0
 60 58  1  0
 60 65  1  0
 61 69  1  0
 61 71  1  0
 62 68  1  0
 62 64  1  0
 63 69  1  0
 64 63  1  0
 65 64  2  0
 66 67  1  0
 66 60  2  0
 67 62  2  0
 68 61  1  0
 69 59  1  0
 71 73  2  0
 72 71  1  0
 74 72  1  0
 75 84  2  0
 75 80  1  0
 76 72  1  0
 76 80  1  0
 77 76  1  0
 78 79  1  0
 78 77  1  0
 79 75  1  0
 80 81  2  0
 81 82  1  0
 83 82  2  0
 84 83  1  0
 85 59  1  0
 85 90  1  0
 85 86  1  0
 86 89  1  1
 86 87  1  0
 88 86  1  0
 90 93  1  0
 91 95  1  0
 91 90  1  0
 92 91  2  0
 95 94  1  0
 97 95  1  0
 97 98  1  0
 97 96  1  0
M  ISO  4  10 100  18 100  57 101  58 101
M  END
>  <TORSDO>  (93) 
F 20

>  <SCORE>  (93) 
-9.474

>  <name>  (93) 
92

>  <ligand_id>  (93) 
92

>  <original_smiles>  (93) 
[H]OC1([H])C([H])(c2c(C([H])([H])[H])c([H])c(C(=O)N3C([H])([H])C([H])([H])C([H])([H])C([H])(n4nc(-c5c([H])c([H])c(Oc6c([H])c([H])c(F)c([H])c6F)c([H])c5[H])c(C(=O)N([H])[H])c4N([H])[H])C3([H])[H])c(C([H])([H])[H])c2C([H])([H])[H])C([H])(C([H])([H])[H])C([H])([H])[N+]([H])(C([H])([H])C([H])([H])Oc2c([H])c([H])c3c(c2[H])C([H])([H])N(C(=O)C([H])(N([H])C(=O)C([H])(N([H])C([H])([H])[H])C([H])([H])[H])C(C([H])([H])[H])(C([H])([H])[H])C([H])([H])[H])C([H])(C(=O)N([H])C2([H])c4c([H])c([H])c([H])c([H])c4C([H])([H])C([H])([H])C2([H])[H])C3([H])[H])C1([H])[H]

>  <smiles>  (93) 
[H]OC1([H])C([H])(c2c(C([H])([H])[H])c([H])c(C(=O)N3C([H])([H])C([H])([H])C([H])([H])C([H])(n4nc(-c5c([H])c([H])c(Oc6c([H])c([H])c(F)c([H])c6F)c([H])c5[H])c(C(=O)N([H])[H])c4N([H])[H])C3([H])[H])c(C([H])([H])[H])c2C([H])([H])[H])C([H])(C([H])([H])[H])C([H])([H])[N+]([H])(C([H])([H])C([H])([H])Oc2c([H])c([H])c3c(c2[H])C([H])([H])N(C(=O)C([H])(N([H])C(=O)C([H])(N([H])C([H])([H])[H])C([H])([H])[H])C(C([H])([H])[H])(C([H])([H])[H])C([H])([H])[H])C([H])(C(=O)N([H])C2([H])c4c([H])c([H])c([H])c([H])c4C([H])([H])C([H])([H])C2([H])[H])C3([H])[H])C1([H])[H]

$$$$
93:0:0
     RDKit          3D

 92102  0  0  1  0  0  0  0  0999 V2000
  -29.3730  -20.4200   20.8820 C   0  0  0  0  0  3  0  0  0  0  0  0
  -29.3720  -19.2480   20.0490 C   0  0  0  0  0  0  0  0  0  0  0  0
  -29.0570  -21.2390   18.8780 C   0  0  0  0  0  3  0  0  0  0  0  0
  -29.1450  -21.6590   20.1560 N   0  0  0  0  0  0  0  0  0  0  0  0
  -29.2120  -19.8830   18.8270 N   0  0  0  0  0  0  0  0  0  0  0  0
  -29.1580  -19.3740   17.9540 H   0  0  0  0  0  0  0  0  0  0  0  0
  -30.7510  -15.0880   19.9400 C   0  0  0  0  0  0  0  0  0  0  0  0
  -30.5160  -12.7600   18.9150 C   0  0  0  0  0  2  0  0  0  0  0  0
  -29.4970  -12.7470   17.7490 C   0  0  0  0  0  2  0  0  0  0  0  0
  -28.0760  -12.5060   18.2840 C   0  0  0  0  0  2  0  0  0  0  0  0
  -27.7610  -13.3800   19.5250 C   0  0  0  0  0  3  0  0  0  0  0  0
  -28.8970  -13.3740   20.5700 C   0  0  0  0  0  2  0  0  0  0  0  0
  -30.1170  -13.8340   19.8880 N   0  0  0  0  0  0  0  0  0  0  0  0
  -31.8810  -15.1260   19.4390 O   0  0  0  0  0  0  0  0  0  0  0  0
  -28.6000  -17.1670   21.4540 C   0  0  0  0  0  2  0  0  0  0  0  0
  -29.9260  -16.5350   21.8870 C   0  0  0  0  0  2  0  0  0  0  0  0
  -29.2520  -17.5680   20.1290 C   0  0  0  0  0  3  0  0  0  0  0  0
  -30.1840  -16.3080   20.4710 N   0  0  0  0  0  0  0  0  0  0  0  0
  -25.4580  -13.9090   20.5000 C   0  0  0  0  0  0  0  0  0  0  0  0
  -24.4230  -13.1190   20.9140 C   0  0  0  0  0  0  0  0  0  0  0  0
  -24.8670  -11.7710   20.7520 C   0  0  0  0  0  0  0  0  0  0  0  0
  -26.4690  -13.0470   20.1160 N   0  0  0  0  0  0  0  0  0  0  0  0
  -26.1280  -11.7490   20.3310 N   0  0  0  0  0  0  0  0  0  0  0  0
  -24.1420  -10.5050   20.9200 C   0  0  0  0  0  0  0  0  0  0  0  0
  -24.5750   -9.5180   21.8320 C   0  0  0  0  0  3  0  0  0  0  0  0
  -23.8480   -8.3190   21.9890 C   0  0  0  0  0  3  0  0  0  0  0  0
  -22.6730   -8.0980   21.2310 C   0  0  0  0  0  0  0  0  0  0  0  0
  -22.2580   -9.0730   20.3070 C   0  0  0  0  0  3  0  0  0  0  0  0
  -22.9860  -10.2640   20.1490 C   0  0  0  0  0  3  0  0  0  0  0  0
  -21.9190   -6.9500   21.2970 O   0  0  0  0  0  0  0  0  0  0  0  0
  -21.7760   -6.2480   22.4660 C   0  0  0  0  0  0  0  0  0  0  0  0
  -21.2290   -6.8380   23.6270 C   0  0  0  0  0  3  0  0  0  0  0  0
  -21.0360   -6.0600   24.7860 C   0  0  0  0  0  3  0  0  0  0  0  0
  -21.3800   -4.6960   24.7860 C   0  0  0  0  0  0  0  0  0  0  0  0
  -21.9190   -4.1050   23.6300 C   0  0  0  0  0  3  0  0  0  0  0  0
  -22.1140   -4.8790   22.4720 C   0  0  0  0  0  0  0  0  0  0  0  0
  -22.6150   -4.3010   21.3540 F   0  0  0  0  0  0  0  0  0  0  0  0
  -21.1870   -3.9470   25.8970 F   0  0  0  0  0  0  0  0  0  0  0  0
  -23.0620  -13.5900   21.3340 C   0  0  0  0  0  0  0  0  0  0  0  0
  -22.4090  -12.8580   22.2300 N   0  0  0  0  0  0  0  0  0  0  0  0
  -22.5880  -14.6420   20.9050 O   0  0  0  0  0  0  0  0  0  0  0  0
  -22.8090  -12.0090   22.5990 H   0  0  0  0  0  0  0  0  0  0  0  0
  -21.5010  -13.1580   22.5560 H   0  0  0  0  0  0  0  0  0  0  0  0
  -25.6120  -15.2870   20.3860 N   0  0  0  0  0  0  0  0  0  0  0  0
  -24.8470  -15.9260   20.5760 H   0  0  0  0  0  0  0  0  0  0  0  0
  -26.4050  -15.7330   19.9460 H   0  0  0  0  0  0  0  0  0  0  0  0
  -27.4570  -22.5820   17.2750 C   0  0  0  0  0  2  0  0  0  0  0  0
  -28.1870  -21.5790   16.4130 C   0  0  0  0  0  2  0  0  0  0  0  0
  -28.8360  -22.1050   17.6760 C   0  0  0  0  0  3  0  0  0  0  0  0
  -29.1460  -23.2370   20.6200 C   0  0  0  0  0  3  0  0  0  0  0  0
  -28.2220  -24.5800   20.0740 C   0  0  0  0  0  3  0  0  0  0  0  0
  -28.3640  -26.1130   20.4550 O   0  0  0  0  0  0  0  0  0  0  0  0
  -24.6250  -31.8660   23.2520 C   0  0  0  0  0  0  0  0  0  0  0  0
  -27.3100  -27.1090   20.3300 C   0  0  0  0  0  0  0  0  0  0  0  0
  -23.4750  -30.4390   21.6030 C   0  0  0  0  0  3  0  0  0  0  0  0
  -24.9710  -28.8600   20.2240 C   0  0  0  0  0  0  0  0  0  0  0  0
  -26.0310  -30.7200   21.4920 C   0  0  0  0  0  2  0  0  0  0  0  0
  -26.1330  -29.3170   20.8570 C   0  0  0  0  0  0  0  0  0  0  0  0
  -27.3010  -28.4580   20.8910 C   0  0  0  0  0  3  0  0  0  0  0  0
  -26.1220  -26.7670   19.6470 C   0  0  0  0  0  3  0  0  0  0  0  0
  -24.9810  -27.6000   19.6030 C   0  0  0  0  0  3  0  0  0  0  0  0
  -23.7350  -29.7480   20.2370 C   0  0  0  0  0  2  0  0  0  0  0  0
  -24.7300  -31.0310   22.1700 N   0  0  0  0  0  0  0  0  0  0  0  0
  -23.5250  -32.1440   23.7540 O   0  0  0  0  0  0  0  0  0  0  0  0
  -22.7850  -29.4370   22.5640 C   0  0  0  0  0  0  0  0  0  0  0  0
  -21.4600  -29.2560   22.4180 N   0  0  0  0  0  0  0  0  0  0  0  0
  -23.4460  -28.8250   23.4070 O   0  0  0  0  0  0  0  0  0  0  0  0
  -20.9790  -29.8020   21.7150 H   0  0  0  0  0  0  0  0  0  0  0  0
  -18.0770  -28.0520   22.9020 C   0  0  0  0  0  0  0  0  0  0  0  0
  -20.6330  -28.3200   23.1860 C   0  0  0  0  0  3  0  0  0  0  0  0
  -20.7400  -26.8860   22.6140 C   0  0  0  0  0  2  0  0  0  0  0  0
  -19.6460  -26.5600   21.5940 C   0  0  0  0  0  2  0  0  0  0  0  0
  -18.2600  -26.7040   22.2270 C   0  0  0  0  0  2  0  0  0  0  0  0
  -19.1910  -28.8180   23.3390 C   0  0  0  0  0  0  0  0  0  0  0  0
  -18.9630  -30.0780   23.9330 C   0  0  0  0  0  3  0  0  0  0  0  0
  -17.6550  -30.5750   24.0910 C   0  0  0  0  0  3  0  0  0  0  0  0
  -16.5570  -29.8060   23.6680 C   0  0  0  0  0  3  0  0  0  0  0  0
  -16.7670  -28.5470   23.0800 C   0  0  0  0  0  3  0  0  0  0  0  0
  -25.8830  -32.5250   23.8980 C   0  0  0  0  0  3  0  0  0  0  0  0
  -26.3580  -31.7950   25.2140 C   0  0  1  0  0  0  0  0  0  0  0  0
  -25.2300  -31.5760   26.2480 C   0  0  0  0  0  1  0  0  0  0  0  0
  -26.9670  -30.4130   24.8860 C   0  0  0  0  0  1  0  0  0  0  0  0
  -27.4770  -32.6190   25.8960 C   0  0  0  0  0  1  0  0  0  0  0  0
  -25.5550  -33.9300   24.1850 N   0  0  0  0  0  0  0  0  0  0  0  0
  -25.8710  -34.9670   23.3960 C   0  0  0  0  0  0  0  0  0  0  0  0
  -26.5330  -34.8400   22.3620 O   0  0  0  0  0  0  0  0  0  0  0  0
  -24.9660  -34.1020   24.9860 H   0  0  0  0  0  0  0  0  0  0  0  0
  -24.1110  -36.7280   23.0240 C   0  0  0  0  0  1  0  0  0  0  0  0
  -25.3760  -36.3640   23.8190 C   0  0  0  0  0  3  0  0  0  0  0  0
  -27.5130  -37.3130   24.5780 C   0  0  0  0  0  1  0  0  0  0  0  0
  -26.3920  -37.4280   23.6490 N   0  0  0  0  0  0  0  0  0  0  0  0
  -25.9750  -38.3460   23.7700 H   0  0  0  0  0  0  0  0  0  0  0  0
  2  1  2  0
  3 49  1  0
  3  4  1  0
  4 50  1  0
  4  1  1  0
  5  3  1  0
  5  2  1  0
  6  5  1  0
  7 18  1  0
  8 13  1  0
  9 10  1  0
  9  8  1  0
 11 10  1  0
 11 22  1  0
 11 12  1  0
 13  7  1  0
 13 12  1  0
 14  7  2  0
 15 16  1  0
 17  2  1  0
 17 18  1  0
 17 15  1  0
 18 16  1  0
 19 20  2  0
 20 39  1  0
 21 20  1  0
 21 24  1  0
 22 23  1  0
 22 19  1  0
 23 21  2  0
 24 25  1  0
 25 26  2  0
 27 30  1  0
 27 26  1  0
 28 27  2  0
 29 28  1  0
 29 24  2  0
 30 31  1  0
 31 36  2  0
 31 32  1  0
 32 33  2  0
 34 33  1  0
 34 38  1  0
 35 34  2  0
 36 35  1  0
 37 36  1  0
 39 40  1  0
 40 43  1  0
 40 42  1  0
 41 39  2  0
 44 19  1  0
 44 45  1  0
 46 44  1  0
 47 49  1  0
 48 47  1  0
 48 49  1  0
 51 52  1  0
 51 50  2  0
 53 64  2  0
 54 52  1  0
 54 59  1  0
 55 63  1  0
 55 65  1  0
 56 62  1  0
 56 58  1  0
 57 63  1  0
 58 59  2  0
 58 57  1  0
 60 54  2  0
 61 60  1  0
 61 56  2  0
 62 55  1  0
 63 53  1  0
 65 67  2  0
 66 65  1  0
 68 66  1  0
 69 78  2  0
 69 74  1  0
 70 66  1  0
 70 74  1  0
 71 70  1  0
 72 73  1  0
 72 71  1  0
 73 69  1  0
 74 75  2  0
 75 76  1  0
 77 76  2  0
 78 77  1  0
 79 53  1  0
 79 84  1  0
 79 80  1  0
 80 83  1  1
 80 81  1  0
 82 80  1  0
 84 87  1  0
 85 89  1  0
 85 84  1  0
 86 85  2  0
 89 88  1  0
 91 92  1  0
 91 89  1  0
 91 90  1  0
M  ISO  4   7 100  18 100  51 101  52 101
M  END
>  <TORSDO>  (94) 
F 19

>  <SCORE>  (94) 
-12.430

>  <name>  (94) 
93

>  <ligand_id>  (94) 
93

>  <original_smiles>  (94) 
[H]c1c([H])c([H])c2c(c1[H])C([H])([H])C([H])([H])C([H])([H])C2([H])N([H])C(=O)C1([H])N(C(=O)C([H])(N([H])C(=O)C([H])(N([H])C([H])([H])[H])C([H])([H])[H])C(C([H])([H])[H])(C([H])([H])[H])C([H])([H])[H])C([H])([H])c2c([H])c(OC([H])([H])C([H])([H])n3c([H])c(C4([H])N(C(=O)N5C([H])([H])C([H])([H])C([H])([H])C([H])(n6nc(-c7c([H])c([H])c(Oc8c([H])c([H])c(F)c([H])c8F)c([H])c7[H])c(C(=O)N([H])[H])c6N([H])[H])C5([H])[H])C([H])([H])C4([H])[H])[n+]([H])c3C3([H])C([H])([H])C3([H])[H])c([H])c([H])c2C1([H])[H]

>  <smiles>  (94) 
[H]c1c([H])c([H])c2c(c1[H])C([H])([H])C([H])([H])C([H])([H])C2([H])N([H])C(=O)C1([H])N(C(=O)C([H])(N([H])C(=O)C([H])(N([H])C([H])([H])[H])C([H])([H])[H])C(C([H])([H])[H])(C([H])([H])[H])C([H])([H])[H])C([H])([H])c2c([H])c(OC([H])([H])C([H])([H])n3c([H])c(C4([H])N(C(=O)N5C([H])([H])C([H])([H])C([H])([H])C([H])(n6nc(-c7c([H])c([H])c(Oc8c([H])c([H])c(F)c([H])c8F)c([H])c7[H])c(C(=O)N([H])[H])c6N([H])[H])C5([H])[H])C([H])([H])C4([H])[H])[n+]([H])c3C3([H])C([H])([H])C3([H])[H])c([H])c([H])c2C1([H])[H]

$$$$
94:0:0
     RDKit          3D

 90 99  0  0  1  0  0  0  0  0999 V2000
  -27.9030  -21.9240   20.0220 C   0  0  0  0  0  2  0  0  0  0  0  0
  -28.5530  -23.3170   20.4620 C   0  0  0  0  0  3  0  0  0  0  0  0
  -29.8760  -22.4350   20.2860 C   0  0  0  0  0  3  0  0  0  0  0  0
  -29.0940  -21.0760   20.6190 C   0  0  0  0  0  3  0  0  0  0  0  0
  -31.0840  -22.7860   21.1450 C   0  0  0  0  0  1  0  0  0  0  0  0
  -30.3760  -18.7180   20.8410 C   0  0  0  0  0  2  0  0  0  0  0  0
  -28.6460  -18.4930   19.8860 C   0  0  0  0  0  2  0  0  0  0  0  0
  -29.8950  -17.5190   19.9440 C   0  0  0  0  0  3  0  0  0  0  0  0
  -29.5570  -19.6900   20.0090 N   0  0  1  0  0  4  0  0  0  0  0  0
  -30.0070  -19.8310   19.1190 H   0  0  0  0  0  0  0  0  0  0  0  0
  -30.5480  -14.8900   20.2870 C   0  0  0  0  0  0  0  0  0  0  0  0
  -30.4000  -12.5620   19.3450 C   0  0  0  0  0  2  0  0  0  0  0  0
  -29.4620  -12.5940   18.1160 C   0  0  0  0  0  2  0  0  0  0  0  0
  -27.9960  -12.4110   18.5480 C   0  0  0  0  0  2  0  0  0  0  0  0
  -27.6140  -13.2940   19.7630 C   0  0  0  0  0  3  0  0  0  0  0  0
  -28.6790  -13.2460   20.8810 C   0  0  0  0  0  2  0  0  0  0  0  0
  -29.9570  -13.6360   20.2750 N   0  0  0  0  0  0  0  0  0  0  0  0
  -31.7300  -14.9880   19.9410 O   0  0  0  0  0  0  0  0  0  0  0  0
  -29.7460  -16.0400   20.4480 N   0  0  0  0  0  0  0  0  0  0  0  0
  -28.8150  -15.8080   20.7640 H   0  0  0  0  0  0  0  0  0  0  0  0
  -25.2310  -13.8710   20.4970 C   0  0  0  0  0  0  0  0  0  0  0  0
  -24.1700  -13.0950   20.8710 C   0  0  0  0  0  0  0  0  0  0  0  0
  -24.6380  -11.7470   20.8420 C   0  0  0  0  0  0  0  0  0  0  0  0
  -26.2770  -12.9960   20.2620 N   0  0  0  0  0  0  0  0  0  0  0  0
  -25.9280  -11.7110   20.5290 N   0  0  0  0  0  0  0  0  0  0  0  0
  -23.9100  -10.4840   21.0330 C   0  0  0  0  0  0  0  0  0  0  0  0
  -24.3490   -9.5180   21.9670 C   0  0  0  0  0  3  0  0  0  0  0  0
  -23.6270   -8.3210   22.1510 C   0  0  0  0  0  3  0  0  0  0  0  0
  -22.4500   -8.0820   21.4060 C   0  0  0  0  0  0  0  0  0  0  0  0
  -22.0260   -9.0360   20.4640 C   0  0  0  0  0  3  0  0  0  0  0  0
  -22.7500  -10.2260   20.2760 C   0  0  0  0  0  3  0  0  0  0  0  0
  -21.7000   -6.9340   21.4980 O   0  0  0  0  0  0  0  0  0  0  0  0
  -21.6680   -6.1830   22.6450 C   0  0  0  0  0  0  0  0  0  0  0  0
  -21.2630   -6.7300   23.8820 C   0  0  0  0  0  3  0  0  0  0  0  0
  -21.1800   -5.9080   25.0250 C   0  0  0  0  0  3  0  0  0  0  0  0
  -21.4900   -4.5390   24.9280 C   0  0  0  0  0  0  0  0  0  0  0  0
  -21.8850   -3.9890   23.6950 C   0  0  0  0  0  3  0  0  0  0  0  0
  -21.9710   -4.8100   22.5580 C   0  0  0  0  0  0  0  0  0  0  0  0
  -22.3320   -4.2690   21.3680 F   0  0  0  0  0  0  0  0  0  0  0  0
  -21.4030   -3.7450   26.0210 F   0  0  0  0  0  0  0  0  0  0  0  0
  -22.7730  -13.5720   21.1400 C   0  0  0  0  0  0  0  0  0  0  0  0
  -22.0470  -12.8790   22.0120 N   0  0  0  0  0  0  0  0  0  0  0  0
  -22.3340  -14.5960   20.6170 O   0  0  0  0  0  0  0  0  0  0  0  0
  -22.4110  -12.0500   22.4560 H   0  0  0  0  0  0  0  0  0  0  0  0
  -21.1110  -13.1830   22.2390 H   0  0  0  0  0  0  0  0  0  0  0  0
  -25.3850  -15.2410   20.3090 N   0  0  0  0  0  0  0  0  0  0  0  0
  -24.6000  -15.8780   20.4020 H   0  0  0  0  0  0  0  0  0  0  0  0
  -26.2100  -15.6770   19.9180 H   0  0  0  0  0  0  0  0  0  0  0  0
  -28.1340  -24.7560   19.7370 C   0  0  0  0  0  2  0  0  0  0  0  0
  -28.2320  -26.2140   20.2570 O   0  0  0  0  0  0  0  0  0  0  0  0
  -24.6130  -31.8850   23.2410 C   0  0  0  0  0  0  0  0  0  0  0  0
  -27.1690  -27.1830   20.1700 C   0  0  0  0  0  0  0  0  0  0  0  0
  -23.4070  -30.4900   21.6090 C   0  0  0  0  0  3  0  0  0  0  0  0
  -24.8440  -28.9280   20.1710 C   0  0  0  0  0  0  0  0  0  0  0  0
  -25.9620  -30.7540   21.4340 C   0  0  0  0  0  2  0  0  0  0  0  0
  -26.0270  -29.3660   20.7770 C   0  0  0  0  0  0  0  0  0  0  0  0
  -27.1890  -28.5070   20.7660 C   0  0  0  0  0  3  0  0  0  0  0  0
  -25.9610  -26.8640   19.5060 C   0  0  0  0  0  3  0  0  0  0  0  0
  -24.8240  -27.6900   19.5210 C   0  0  0  0  0  3  0  0  0  0  0  0
  -23.6190  -29.8230   20.2270 C   0  0  0  0  0  2  0  0  0  0  0  0
  -24.6810  -31.0620   22.1490 N   0  0  0  0  0  0  0  0  0  0  0  0
  -23.5300  -32.1710   23.7700 O   0  0  0  0  0  0  0  0  0  0  0  0
  -22.7330  -29.4800   22.5700 C   0  0  0  0  0  0  0  0  0  0  0  0
  -21.4060  -29.3090   22.4430 N   0  0  0  0  0  0  0  0  0  0  0  0
  -23.4070  -28.8520   23.3920 O   0  0  0  0  0  0  0  0  0  0  0  0
  -20.9210  -29.8640   21.7530 H   0  0  0  0  0  0  0  0  0  0  0  0
  -18.0220  -28.1140   22.9440 C   0  0  0  0  0  0  0  0  0  0  0  0
  -20.5810  -28.3760   23.2160 C   0  0  0  0  0  3  0  0  0  0  0  0
  -20.6820  -26.9420   22.6450 C   0  0  0  0  0  2  0  0  0  0  0  0
  -19.5810  -26.6160   21.6310 C   0  0  0  0  0  2  0  0  0  0  0  0
  -18.1980  -26.7630   22.2730 C   0  0  0  0  0  2  0  0  0  0  0  0
  -19.1400  -28.8780   23.3730 C   0  0  0  0  0  0  0  0  0  0  0  0
  -18.9180  -30.1430   23.9620 C   0  0  0  0  0  3  0  0  0  0  0  0
  -17.6130  -30.6410   24.1290 C   0  0  0  0  0  3  0  0  0  0  0  0
  -16.5100  -29.8730   23.7170 C   0  0  0  0  0  3  0  0  0  0  0  0
  -16.7150  -28.6130   23.1290 C   0  0  0  0  0  3  0  0  0  0  0  0
  -25.8950  -32.5190   23.8630 C   0  0  0  0  0  3  0  0  0  0  0  0
  -25.5860  -33.9190   24.1940 N   0  0  0  0  0  0  0  0  0  0  0  0
  -25.9150  -34.9720   23.4340 C   0  0  0  0  0  0  0  0  0  0  0  0
  -26.5780  -34.8670   22.3990 O   0  0  0  0  0  0  0  0  0  0  0  0
  -24.9960  -34.0730   24.9980 H   0  0  0  0  0  0  0  0  0  0  0  0
  -24.1870  -36.7700   23.0950 C   0  0  0  0  0  1  0  0  0  0  0  0
  -25.4340  -36.3630   23.8960 C   0  0  0  0  0  3  0  0  0  0  0  0
  -27.5760  -37.2430   24.7120 C   0  0  0  0  0  1  0  0  0  0  0  0
  -26.4690  -37.4130   23.7750 N   0  0  0  0  0  0  0  0  0  0  0  0
  -26.0670  -38.3340   23.9220 H   0  0  0  0  0  0  0  0  0  0  0  0
  -26.4020  -31.7510   25.1460 C   0  0  1  0  0  0  0  0  0  0  0  0
  -25.3030  -31.5240   26.2120 C   0  0  0  0  0  1  0  0  0  0  0  0
  -26.9800  -30.3690   24.7680 C   0  0  0  0  0  1  0  0  0  0  0  0
  -27.5580  -32.5410   25.8050 C   0  0  0  0  0  1  0  0  0  0  0  0
  1  2  1  0
  2 49  1  0
  3  2  1  0
  3  4  1  0
  3  5  1  0
  4  1  1  0
  7  8  1  0
  7  9  1  0
  8 19  1  0
  8  6  1  0
  9 10  1  6
  9  4  1  0
  9  6  1  0
 11 19  1  0
 12 17  1  0
 13 14  1  0
 13 12  1  0
 15 14  1  0
 15 24  1  0
 15 16  1  0
 17 11  1  0
 17 16  1  0
 18 11  2  0
 19 20  1  0
 21 22  2  0
 22 41  1  0
 23 22  1  0
 23 26  1  0
 24 21  1  0
 24 25  1  0
 25 23  2  0
 26 27  1  0
 27 28  2  0
 29 32  1  0
 29 28  1  0
 30 29  2  0
 31 30  1  0
 31 26  2  0
 32 33  1  0
 33 34  1  0
 34 35  2  0
 36 35  1  0
 36 40  1  0
 37 36  2  0
 38 33  2  0
 38 37  1  0
 39 38  1  0
 41 42  1  0
 42 45  1  0
 42 44  1  0
 43 41  2  0
 46 47  1  0
 46 21  1  0
 48 46  1  0
 49 50  1  0
 51 62  2  0
 52 50  1  0
 52 57  1  0
 53 61  1  0
 53 63  1  0
 54 60  1  0
 54 56  1  0
 55 61  1  0
 56 55  1  0
 57 56  2  0
 58 59  1  0
 58 52  2  0
 59 54  2  0
 60 53  1  0
 61 51  1  0
 63 65  2  0
 64 63  1  0
 66 64  1  0
 67 76  2  0
 67 72  1  0
 68 64  1  0
 68 72  1  0
 69 68  1  0
 70 71  1  0
 70 69  1  0
 71 67  1  0
 72 73  2  0
 73 74  1  0
 75 74  2  0
 76 75  1  0
 77 51  1  0
 77 78  1  0
 77 87  1  0
 78 81  1  0
 79 83  1  0
 79 78  1  0
 80 79  2  0
 83 82  1  0
 85 83  1  0
 85 86  1  0
 85 84  1  0
 87 90  1  1
 87 88  1  0
 89 87  1  0
M  ISO  4  11 100  19 100  49 101  50 101
M  END
>  <TORSDO>  (95) 
F 18

>  <SCORE>  (95) 
-14.663

>  <name>  (95) 
94

>  <ligand_id>  (95) 
94

>  <original_smiles>  (95) 
[H]c1c([H])c([H])c2c(c1[H])C([H])([H])C([H])([H])C([H])([H])C2([H])N([H])C(=O)C1([H])N(C(=O)C([H])(N([H])C(=O)C([H])(N([H])C([H])([H])[H])C([H])([H])[H])C(C([H])([H])[H])(C([H])([H])[H])C([H])([H])[H])C([H])([H])c2c([H])c(OC([H])([H])C3([H])C([H])([H])C([H])([N+]4([H])C([H])([H])C([H])(N([H])C(=O)N5C([H])([H])C([H])([H])C([H])([H])C([H])(n6nc(-c7c([H])c([H])c(Oc8c([H])c([H])c(F)c([H])c8F)c([H])c7[H])c(C(=O)N([H])[H])c6N([H])[H])C5([H])[H])C4([H])[H])C3([H])C([H])([H])[H])c([H])c([H])c2C1([H])[H]

>  <smiles>  (95) 
[H]c1c([H])c([H])c2c(c1[H])C([H])([H])C([H])([H])C([H])([H])C2([H])N([H])C(=O)C1([H])N(C(=O)C([H])(N([H])C(=O)C([H])(N([H])C([H])([H])[H])C([H])([H])[H])C(C([H])([H])[H])(C([H])([H])[H])C([H])([H])[H])C([H])([H])c2c([H])c(OC([H])([H])C3([H])C([H])([H])C([H])([N+]4([H])C([H])([H])C([H])(N([H])C(=O)N5C([H])([H])C([H])([H])C([H])([H])C([H])(n6nc(-c7c([H])c([H])c(Oc8c([H])c([H])c(F)c([H])c8F)c([H])c7[H])c(C(=O)N([H])[H])c6N([H])[H])C5([H])[H])C4([H])[H])C3([H])C([H])([H])[H])c([H])c([H])c2C1([H])[H]

$$$$
95:0:0
     RDKit          3D

 94103  0  0  1  0  0  0  0  0999 V2000
  -27.3880  -24.6250   21.3750 C   0  0  0  0  0  0  0  0  0  0  0  0
  -29.0840  -24.0310   19.7650 C   0  0  0  0  0  0  0  0  0  0  0  0
  -28.2640  -25.1040   20.3560 C   0  0  0  0  0  0  0  0  0  0  0  0
  -27.2630  -23.2290   21.6250 C   0  0  0  0  0  0  0  0  0  0  0  0
  -28.9670  -22.6050   20.1590 C   0  0  0  0  0  0  0  0  0  0  0  0
  -26.6260  -25.6180   22.2470 C   0  0  0  0  0  1  0  0  0  0  0  0
  -30.1090  -24.4210   18.7140 C   0  0  0  0  0  1  0  0  0  0  0  0
  -26.2110  -22.6220   22.5460 C   0  0  0  0  0  1  0  0  0  0  0  0
  -28.0340  -22.2790   21.0600 N   0  0  0  0  0  0  0  0  0  0  0  0
  -28.3630  -26.5350   20.0550 O   0  0  0  0  0  0  0  0  0  0  0  0
  -24.5990  -31.9380   23.2980 C   0  0  0  0  0  0  0  0  0  0  0  0
  -27.2760  -27.4670   20.0510 C   0  0  0  0  0  0  0  0  0  0  0  0
  -23.4330  -30.6200   21.5750 C   0  0  0  0  0  3  0  0  0  0  0  0
  -24.9130  -29.1340   20.0940 C   0  0  0  0  0  0  0  0  0  0  0  0
  -25.9800  -30.9350   21.4470 C   0  0  0  0  0  2  0  0  0  0  0  0
  -26.0750  -29.5800   20.7330 C   0  0  0  0  0  0  0  0  0  0  0  0
  -27.2560  -28.7620   20.7020 C   0  0  0  0  0  3  0  0  0  0  0  0
  -26.0880  -27.1060   19.3790 C   0  0  0  0  0  3  0  0  0  0  0  0
  -24.9230  -27.9060   19.4100 C   0  0  0  0  0  3  0  0  0  0  0  0
  -23.6720  -30.0120   20.1690 C   0  0  0  0  0  2  0  0  0  0  0  0
  -24.6900  -31.1810   22.1640 N   0  0  0  0  0  0  0  0  0  0  0  0
  -23.5080  -32.1820   23.8310 O   0  0  0  0  0  0  0  0  0  0  0  0
  -22.7560  -29.5570   22.4770 C   0  0  0  0  0  0  0  0  0  0  0  0
  -21.4310  -29.3890   22.3300 N   0  0  0  0  0  0  0  0  0  0  0  0
  -23.4240  -28.8880   23.2690 O   0  0  0  0  0  0  0  0  0  0  0  0
  -20.9370  -29.9770   21.6750 H   0  0  0  0  0  0  0  0  0  0  0  0
  -18.0510  -28.1700   22.7880 C   0  0  0  0  0  0  0  0  0  0  0  0
  -20.6170  -28.3970   23.0330 C   0  0  0  0  0  3  0  0  0  0  0  0
  -20.7080  -27.0170   22.3370 C   0  0  0  0  0  2  0  0  0  0  0  0
  -19.5750  -26.7720   21.3330 C   0  0  0  0  0  2  0  0  0  0  0  0
  -18.2120  -26.8620   22.0250 C   0  0  0  0  0  2  0  0  0  0  0  0
  -19.1810  -28.8940   23.2530 C   0  0  0  0  0  0  0  0  0  0  0  0
  -18.9770  -30.1130   23.9340 C   0  0  0  0  0  3  0  0  0  0  0  0
  -17.6800  -30.6160   24.1450 C   0  0  0  0  0  3  0  0  0  0  0  0
  -16.5640  -29.8900   23.6930 C   0  0  0  0  0  3  0  0  0  0  0  0
  -16.7510  -28.6670   23.0250 C   0  0  0  0  0  3  0  0  0  0  0  0
  -25.8670  -32.5540   23.9680 C   0  0  0  0  0  3  0  0  0  0  0  0
  -25.5560  -33.9480   24.3250 N   0  0  0  0  0  0  0  0  0  0  0  0
  -25.8920  -35.0180   23.5900 C   0  0  0  0  0  0  0  0  0  0  0  0
  -26.5660  -34.9330   22.5610 O   0  0  0  0  0  0  0  0  0  0  0  0
  -24.9650  -34.0900   25.1320 H   0  0  0  0  0  0  0  0  0  0  0  0
  -24.1580  -36.8130   23.2820 C   0  0  0  0  0  1  0  0  0  0  0  0
  -25.4050  -36.3960   24.0790 C   0  0  0  0  0  3  0  0  0  0  0  0
  -27.5380  -37.2780   24.9190 C   0  0  0  0  0  1  0  0  0  0  0  0
  -26.4340  -37.4540   23.9790 N   0  0  0  0  0  0  0  0  0  0  0  0
  -26.0230  -38.3710   24.1390 H   0  0  0  0  0  0  0  0  0  0  0  0
  -26.3430  -31.7540   25.2430 C   0  0  1  0  0  0  0  0  0  0  0  0
  -25.2180  -31.4950   26.2730 C   0  0  0  0  0  1  0  0  0  0  0  0
  -26.9390  -30.3840   24.8430 C   0  0  0  0  0  1  0  0  0  0  0  0
  -27.4730  -32.5300   25.9600 C   0  0  0  0  0  1  0  0  0  0  0  0
  -29.7620  -21.2940   19.6080 C   0  0  0  0  0  2  0  0  0  0  0  0
  -28.9620  -18.8280   20.3830 C   0  0  0  0  0  2  0  0  0  0  0  0
  -30.9100  -18.9080   19.9560 C   0  0  0  0  0  2  0  0  0  0  0  0
  -30.1140  -17.8020   20.7380 C   0  0  0  0  0  3  0  0  0  0  0  0
  -29.9360  -19.9710   20.4350 N   0  0  1  0  0  4  0  0  0  0  0  0
  -30.1100  -20.2130   21.4010 H   0  0  0  0  0  0  0  0  0  0  0  0
  -30.8280  -15.1860   20.1310 C   0  0  0  0  0  0  0  0  0  0  0  0
  -30.7020  -12.8710   19.1170 C   0  0  0  0  0  2  0  0  0  0  0  0
  -29.7430  -12.9040   17.9050 C   0  0  0  0  0  2  0  0  0  0  0  0
  -28.2800  -12.7040   18.3540 C   0  0  0  0  0  2  0  0  0  0  0  0
  -27.9110  -13.5800   19.5810 C   0  0  0  0  0  3  0  0  0  0  0  0
  -28.9930  -13.5190   20.6820 C   0  0  0  0  0  2  0  0  0  0  0  0
  -30.2530  -13.9300   20.0560 N   0  0  0  0  0  0  0  0  0  0  0  0
  -32.0230  -15.3190   19.8450 O   0  0  0  0  0  0  0  0  0  0  0  0
  -29.9810  -16.2910   20.3370 N   0  0  0  0  0  0  0  0  0  0  0  0
  -29.0270  -15.9600   20.4100 H   0  0  0  0  0  0  0  0  0  0  0  0
  -25.5400  -14.1560   20.3690 C   0  0  0  0  0  0  0  0  0  0  0  0
  -24.4850  -13.3750   20.7550 C   0  0  0  0  0  0  0  0  0  0  0  0
  -24.9480  -12.0270   20.6980 C   0  0  0  0  0  0  0  0  0  0  0  0
  -26.5810  -13.2810   20.0990 N   0  0  0  0  0  0  0  0  0  0  0  0
  -26.2330  -11.9950   20.3610 N   0  0  0  0  0  0  0  0  0  0  0  0
  -24.2250  -10.7610   20.8890 C   0  0  0  0  0  0  0  0  0  0  0  0
  -24.6220   -9.8240   21.8680 C   0  0  0  0  0  3  0  0  0  0  0  0
  -23.8990   -8.6260   22.0470 C   0  0  0  0  0  3  0  0  0  0  0  0
  -22.7660   -8.3530   21.2430 C   0  0  0  0  0  0  0  0  0  0  0  0
  -22.3870   -9.2790   20.2570 C   0  0  0  0  0  3  0  0  0  0  0  0
  -23.1100  -10.4710   20.0780 C   0  0  0  0  0  3  0  0  0  0  0  0
  -22.0180   -7.2050   21.3290 O   0  0  0  0  0  0  0  0  0  0  0  0
  -21.8580   -6.5360   22.5160 C   0  0  0  0  0  0  0  0  0  0  0  0
  -21.2760   -7.1510   23.6430 C   0  0  0  0  0  3  0  0  0  0  0  0
  -21.0650   -6.4080   24.8220 C   0  0  0  0  0  3  0  0  0  0  0  0
  -21.4240   -5.0480   24.8730 C   0  0  0  0  0  0  0  0  0  0  0  0
  -22.0010   -4.4320   23.7480 C   0  0  0  0  0  3  0  0  0  0  0  0
  -22.2120   -5.1720   22.5730 C   0  0  0  0  0  0  0  0  0  0  0  0
  -22.7480   -4.5680   21.4850 F   0  0  0  0  0  0  0  0  0  0  0  0
  -21.2150   -4.3320   26.0020 F   0  0  0  0  0  0  0  0  0  0  0  0
  -23.0930  -13.8480   21.0570 C   0  0  0  0  0  0  0  0  0  0  0  0
  -22.3870  -13.1510   21.9400 N   0  0  0  0  0  0  0  0  0  0  0  0
  -22.6440  -14.8740   20.5470 O   0  0  0  0  0  0  0  0  0  0  0  0
  -22.7650  -12.3200   22.3740 H   0  0  0  0  0  0  0  0  0  0  0  0
  -21.4530  -13.4480   22.1810 H   0  0  0  0  0  0  0  0  0  0  0  0
  -25.6870  -15.5280   20.1890 N   0  0  0  0  0  0  0  0  0  0  0  0
  -24.8860  -16.1460   20.2660 H   0  0  0  0  0  0  0  0  0  0  0  0
  -26.4670  -15.9570   19.7070 H   0  0  0  0  0  0  0  0  0  0  0  0
  1  4  1  0
  1  6  1  0
  2  5  2  0
  2  3  1  0
  3  1  2  0
  4  8  1  0
  5  9  1  0
  7  2  1  0
  9  4  2  0
 10  3  1  0
 11 22  2  0
 12 10  1  0
 12 17  1  0
 13 21  1  0
 13 23  1  0
 14 20  1  0
 14 16  1  0
 15 21  1  0
 16 15  1  0
 17 16  2  0
 18 19  1  0
 18 12  2  0
 19 14  2  0
 20 13  1  0
 21 11  1  0
 23 25  2  0
 24 23  1  0
 26 24  1  0
 27 36  2  0
 27 32  1  0
 28 24  1  0
 28 32  1  0
 29 28  1  0
 30 31  1  0
 30 29  1  0
 31 27  1  0
 32 33  2  0
 33 34  1  0
 35 34  2  0
 36 35  1  0
 37 11  1  0
 37 38  1  0
 37 47  1  0
 38 41  1  0
 39 43  1  0
 39 38  1  0
 40 39  2  0
 43 42  1  0
 45 43  1  0
 45 46  1  0
 45 44  1  0
 47 50  1  1
 47 48  1  0
 49 47  1  0
 51  5  1  0
 51 55  1  0
 52 55  1  0
 52 54  1  0
 53 55  1  0
 53 54  1  0
 54 65  1  0
 55 56  1  1
 57 65  1  0
 58 63  1  0
 59 60  1  0
 59 58  1  0
 61 60  1  0
 61 70  1  0
 61 62  1  0
 63 57  1  0
 63 62  1  0
 64 57  2  0
 65 66  1  0
 67 68  2  0
 68 87  1  0
 69 68  1  0
 69 72  1  0
 70 71  1  0
 70 67  1  0
 71 69  2  0
 72 73  1  0
 73 74  2  0
 75 78  1  0
 75 74  1  0
 76 75  2  0
 77 76  1  0
 77 72  2  0
 78 79  1  0
 79 84  2  0
 79 80  1  0
 80 81  2  0
 81 82  1  0
 82 86  1  0
 83 82  2  0
 84 83  1  0
 85 84  1  0
 87 88  1  0
 88 91  1  0
 88 90  1  0
 89 87  2  0
 92 93  1  0
 92 67  1  0
 94 92  1  0
M  ISO  4   3 101  10 101  57 100  65 100
M  END
>  <TORSDO>  (96) 
F 18

>  <SCORE>  (96) 
-12.588

>  <name>  (96) 
95

>  <ligand_id>  (96) 
95

>  <original_smiles>  (96) 
[H]c1c([H])c([H])c2c(c1[H])C([H])([H])C([H])([H])C([H])([H])C2([H])N([H])C(=O)C1([H])N(C(=O)C([H])(N([H])C(=O)C([H])(N([H])C([H])([H])[H])C([H])([H])[H])C(C([H])([H])[H])(C([H])([H])[H])C([H])([H])[H])C([H])([H])c2c([H])c(Oc3c(C([H])([H])[H])c(C([H])([H])[H])nc(C([H])([H])[N+]4([H])C([H])([H])C([H])(N([H])C(=O)N5C([H])([H])C([H])([H])C([H])([H])C([H])(n6nc(-c7c([H])c([H])c(Oc8c([H])c([H])c(F)c([H])c8F)c([H])c7[H])c(C(=O)N([H])[H])c6N([H])[H])C5([H])[H])C4([H])[H])c3C([H])([H])[H])c([H])c([H])c2C1([H])[H]

>  <smiles>  (96) 
[H]c1c([H])c([H])c2c(c1[H])C([H])([H])C([H])([H])C([H])([H])C2([H])N([H])C(=O)C1([H])N(C(=O)C([H])(N([H])C(=O)C([H])(N([H])C([H])([H])[H])C([H])([H])[H])C(C([H])([H])[H])(C([H])([H])[H])C([H])([H])[H])C([H])([H])c2c([H])c(Oc3c(C([H])([H])[H])c(C([H])([H])[H])nc(C([H])([H])[N+]4([H])C([H])([H])C([H])(N([H])C(=O)N5C([H])([H])C([H])([H])C([H])([H])C([H])(n6nc(-c7c([H])c([H])c(Oc8c([H])c([H])c(F)c([H])c8F)c([H])c7[H])c(C(=O)N([H])[H])c6N([H])[H])C5([H])[H])C4([H])[H])c3C([H])([H])[H])c([H])c([H])c2C1([H])[H]

$$$$
96:0:0
     RDKit          3D

 95105  0  0  1  0  0  0  0  0999 V2000
  -31.2610  -15.5310   20.2700 C   0  0  0  0  0  0  0  0  0  0  0  0
  -31.0000  -13.1860   19.3510 C   0  0  0  0  0  2  0  0  0  0  0  0
  -30.1130  -13.1230   18.0900 C   0  0  0  0  0  2  0  0  0  0  0  0
  -28.6360  -12.9510   18.4890 C   0  0  0  0  0  2  0  0  0  0  0  0
  -28.2210  -13.9110   19.6360 C   0  0  0  0  0  3  0  0  0  0  0  0
  -29.2520  -13.9720   20.7860 C   0  0  0  0  0  2  0  0  0  0  0  0
  -30.5360  -14.3410   20.1820 N   0  0  0  0  0  0  0  0  0  0  0  0
  -32.4720  -15.4190   20.0460 O   0  0  0  0  0  0  0  0  0  0  0  0
  -29.6110  -22.8060   20.2060 C   0  0  0  0  0  2  0  0  0  0  0  0
  -28.7630  -23.9380   20.4280 C   0  0  0  0  0  3  0  0  0  0  0  0
  -29.1550  -21.3660   20.4610 C   0  0  0  0  0  0  0  0  0  0  0  0
  -27.1320  -22.3160   21.2910 C   0  0  0  0  0  0  0  0  0  0  0  0
  -31.1720  -19.6430   20.1830 C   0  0  0  0  0  3  0  0  0  0  0  0
  -28.9610  -18.8140   19.9950 C   0  0  0  0  0  3  0  0  0  0  0  0
  -31.6440  -18.0830   20.3720 C   0  0  0  0  0  3  0  0  0  0  0  0
  -29.3800  -17.4200   20.6790 C   0  0  0  0  0  3  0  0  0  0  0  0
  -27.9560  -21.2890   20.9830 N   0  0  0  0  0  0  0  0  0  0  0  0
  -27.4680  -23.6520   20.9390 N   0  0  0  0  0  0  0  0  0  0  0  0
  -29.7470  -20.0550   20.3160 N   0  0  0  0  0  0  0  0  0  0  0  0
  -30.7250  -16.8690   20.3500 N   0  0  0  0  0  0  0  0  0  0  0  0
  -26.1100  -22.0250   21.9100 O   0  0  0  0  0  0  0  0  0  0  0  0
  -25.8570  -14.5520   20.3740 C   0  0  0  0  0  0  0  0  0  0  0  0
  -24.7640  -13.8090   20.7190 C   0  0  0  0  0  0  0  0  0  0  0  0
  -25.1800  -12.4440   20.6560 C   0  0  0  0  0  0  0  0  0  0  0  0
  -26.8710  -13.6460   20.1200 N   0  0  0  0  0  0  0  0  0  0  0  0
  -26.4710  -12.3700   20.3570 N   0  0  0  0  0  0  0  0  0  0  0  0
  -24.4030  -11.2050   20.8060 C   0  0  0  0  0  0  0  0  0  0  0  0
  -24.7820  -10.2010   21.7230 C   0  0  0  0  0  3  0  0  0  0  0  0
  -24.0080   -9.0290   21.8620 C   0  0  0  0  0  3  0  0  0  0  0  0
  -22.8390   -8.8550   21.0850 C   0  0  0  0  0  0  0  0  0  0  0  0
  -22.4770   -9.8480   20.1580 C   0  0  0  0  0  3  0  0  0  0  0  0
  -23.2530  -11.0120   20.0150 C   0  0  0  0  0  3  0  0  0  0  0  0
  -22.0370   -7.7400   21.1370 O   0  0  0  0  0  0  0  0  0  0  0  0
  -21.9440   -6.9690   22.2690 C   0  0  0  0  0  0  0  0  0  0  0  0
  -21.5110   -7.5050   23.5010 C   0  0  0  0  0  3  0  0  0  0  0  0
  -21.3640   -6.6650   24.6220 C   0  0  0  0  0  3  0  0  0  0  0  0
  -21.6380   -5.2880   24.5110 C   0  0  0  0  0  0  0  0  0  0  0  0
  -22.0640   -4.7510   23.2830 C   0  0  0  0  0  3  0  0  0  0  0  0
  -22.2130   -5.5890   22.1640 C   0  0  0  0  0  0  0  0  0  0  0  0
  -22.6030   -5.0640   20.9780 F   0  0  0  0  0  0  0  0  0  0  0  0
  -21.4910   -4.4790   25.5850 F   0  0  0  0  0  0  0  0  0  0  0  0
  -23.3830  -14.3330   20.9830 C   0  0  0  0  0  0  0  0  0  0  0  0
  -22.6330  -13.6750   21.8580 N   0  0  0  0  0  0  0  0  0  0  0  0
  -22.9790  -15.3640   20.4450 O   0  0  0  0  0  0  0  0  0  0  0  0
  -22.9730  -12.8430   22.3150 H   0  0  0  0  0  0  0  0  0  0  0  0
  -21.7020  -14.0050   22.0710 H   0  0  0  0  0  0  0  0  0  0  0  0
  -26.0570  -15.9210   20.2260 N   0  0  0  0  0  0  0  0  0  0  0  0
  -25.2910  -16.5780   20.3430 H   0  0  0  0  0  0  0  0  0  0  0  0
  -26.8970  -16.3480   19.8610 H   0  0  0  0  0  0  0  0  0  0  0  0
  -25.3590  -25.0470   20.3690 C   0  0  0  0  0  2  0  0  0  0  0  0
  -25.0610  -24.3910   21.6680 C   0  0  0  0  0  2  0  0  0  0  0  0
  -26.5140  -24.7060   21.2840 C   0  0  0  0  0  3  0  0  0  0  0  0
  -30.7640  -25.5300   20.7990 C   0  0  0  0  0  1  0  0  0  0  0  0
  -29.2370  -25.5240   20.6700 C   0  0  0  0  0  3  0  0  0  0  0  0
  -28.9790  -26.7880   19.8070 O   0  0  0  0  0  0  0  0  0  0  0  0
  -24.8020  -31.7740   23.3700 C   0  0  0  0  0  0  0  0  0  0  0  0
  -27.8900  -27.7160   19.9250 C   0  0  0  0  0  0  0  0  0  0  0  0
  -23.8270  -30.5740   21.4470 C   0  0  0  0  0  3  0  0  0  0  0  0
  -25.4900  -29.3410   19.9180 C   0  0  0  0  0  0  0  0  0  0  0  0
  -26.3590  -30.9880   21.5580 C   0  0  0  0  0  2  0  0  0  0  0  0
  -26.5680  -29.7150   20.7300 C   0  0  0  0  0  0  0  0  0  0  0  0
  -27.7660  -28.9060   20.7450 C   0  0  0  0  0  3  0  0  0  0  0  0
  -26.8480  -27.5280   19.0030 C   0  0  0  0  0  3  0  0  0  0  0  0
  -25.6510  -28.2740   19.0250 C   0  0  0  0  0  3  0  0  0  0  0  0
  -24.1960  -30.1370   20.0020 C   0  0  0  0  0  2  0  0  0  0  0  0
  -25.0070  -31.1310   22.1790 N   0  0  0  0  0  0  0  0  0  0  0  0
  -23.6650  -31.9140   23.8410 O   0  0  0  0  0  0  0  0  0  0  0  0
  -23.1550  -29.3930   22.1910 C   0  0  0  0  0  0  0  0  0  0  0  0
  -21.8270  -29.2400   22.0320 N   0  0  0  0  0  0  0  0  0  0  0  0
  -23.8300  -28.6270   22.8820 O   0  0  0  0  0  0  0  0  0  0  0  0
  -21.3370  -29.9120   21.4600 H   0  0  0  0  0  0  0  0  0  0  0  0
  -18.4400  -28.0010   22.3840 C   0  0  0  0  0  0  0  0  0  0  0  0
  -21.0120  -28.1680   22.6100 C   0  0  0  0  0  3  0  0  0  0  0  0
  -21.0670  -26.8930   21.7360 C   0  0  0  0  0  2  0  0  0  0  0  0
  -19.9270  -26.8130   20.7150 C   0  0  0  0  0  2  0  0  0  0  0  0
  -18.5690  -26.8320   21.4230 C   0  0  0  0  0  2  0  0  0  0  0  0
  -19.5870  -28.6400   22.9290 C   0  0  0  0  0  0  0  0  0  0  0  0
  -19.4090  -29.7410   23.7920 C   0  0  0  0  0  3  0  0  0  0  0  0
  -18.1200  -30.2070   24.1130 C   0  0  0  0  0  3  0  0  0  0  0  0
  -16.9880  -29.5650   23.5780 C   0  0  0  0  0  3  0  0  0  0  0  0
  -17.1500  -28.4630   22.7200 C   0  0  0  0  0  3  0  0  0  0  0  0
  -25.9880  -32.3820   24.1800 C   0  0  0  0  0  3  0  0  0  0  0  0
  -25.6730  -33.7960   24.4370 N   0  0  0  0  0  0  0  0  0  0  0  0
  -26.0920  -34.8230   23.6880 C   0  0  0  0  0  0  0  0  0  0  0  0
  -26.8500  -34.6830   22.7250 O   0  0  0  0  0  0  0  0  0  0  0  0
  -25.0120  -33.9800   25.1780 H   0  0  0  0  0  0  0  0  0  0  0  0
  -24.4250  -36.6320   23.1470 C   0  0  0  0  0  1  0  0  0  0  0  0
  -25.5930  -36.2330   24.0650 C   0  0  0  0  0  3  0  0  0  0  0  0
  -27.6540  -37.1340   25.0480 C   0  0  0  0  0  1  0  0  0  0  0  0
  -26.6470  -37.2690   24.0000 N   0  0  0  0  0  0  0  0  0  0  0  0
  -26.2430  -38.2000   24.0650 H   0  0  0  0  0  0  0  0  0  0  0  0
  -26.2680  -31.6220   25.5360 C   0  0  1  0  0  0  0  0  0  0  0  0
  -25.0180  -31.4780   26.4370 C   0  0  0  0  0  1  0  0  0  0  0  0
  -26.8190  -30.2020   25.2730 C   0  0  0  0  0  1  0  0  0  0  0  0
  -27.3520  -32.3740   26.3420 C   0  0  0  0  0  1  0  0  0  0  0  0
  1 20  1  0
  2  7  1  0
  3  4  1  0
  3  2  1  0
  5  4  1  0
  5 25  1  0
  5  6  1  0
  7  1  1  0
  7  6  1  0
  8  1  2  0
  9 10  1  0
  9 11  1  0
 10 54  1  0
 10 18  1  0
 11 17  2  0
 12 21  2  0
 13 19  1  0
 13 15  2  0
 14 19  1  0
 14 16  2  0
 17 12  1  0
 18 52  1  0
 18 12  1  0
 19 11  1  0
 20 15  1  0
 20 16  1  0
 22 23  2  0
 23 42  1  0
 24 23  1  0
 24 27  1  0
 25 26  1  0
 25 22  1  0
 26 24  2  0
 27 28  1  0
 28 29  2  0
 30 33  1  0
 30 29  1  0
 31 30  2  0
 32 31  1  0
 32 27  2  0
 33 34  1  0
 34 35  1  0
 35 36  2  0
 37 36  1  0
 37 41  1  0
 38 37  2  0
 39 34  2  0
 39 38  1  0
 40 39  1  0
 42 43  1  0
 43 46  1  0
 43 45  1  0
 44 42  2  0
 47 48  1  0
 47 22  1  0
 49 47  1  0
 50 52  1  0
 50 51  1  0
 52 51  1  0
 54 53  1  0
 55 57  1  0
 55 54  1  0
 56 67  2  0
 57 62  1  0
 58 66  1  0
 58 68  1  0
 59 65  1  0
 59 61  1  0
 60 66  1  0
 61 62  2  0
 61 60  1  0
 63 64  1  0
 63 57  2  0
 64 59  2  0
 65 58  1  0
 66 56  1  0
 68 70  2  0
 69 68  1  0
 71 69  1  0
 72 81  2  0
 72 77  1  0
 73 69  1  0
 73 77  1  0
 74 73  1  0
 75 76  1  0
 75 74  1  0
 76 72  1  0
 77 78  2  0
 78 79  1  0
 80 79  2  0
 81 80  1  0
 82 56  1  0
 82 83  1  0
 82 92  1  0
 83 86  1  0
 84 88  1  0
 84 83  1  0
 85 84  2  0
 88 87  1  0
 90 88  1  0
 90 91  1  0
 90 89  1  0
 92 95  1  1
 92 93  1  0
 94 92  1  0
M  ISO  4   1 100  20 100  54 101  55 101
M  END
>  <TORSDO>  (97) 
F 17

>  <SCORE>  (97) 
-12.203

>  <name>  (97) 
96

>  <ligand_id>  (97) 
96

>  <original_smiles>  (97) 
[H]c1c([H])c([H])c2c(c1[H])C([H])([H])C([H])([H])C([H])([H])C2([H])N([H])C(=O)C1([H])N(C(=O)C([H])(N([H])C(=O)C([H])(N([H])C([H])([H])[H])C([H])([H])[H])C(C([H])([H])[H])(C([H])([H])[H])C([H])([H])[H])C([H])([H])c2c([H])c(OC([H])(c3c([H])c(N4C([H])([H])C([H])([H])N(C(=O)N5C([H])([H])C([H])([H])C([H])([H])C([H])(n6nc(-c7c([H])c([H])c(Oc8c([H])c([H])c(F)c([H])c8F)c([H])c7[H])c(C(=O)N([H])[H])c6N([H])[H])C5([H])[H])C([H])([H])C4([H])[H])nc(=O)n3C3([H])C([H])([H])C3([H])[H])C([H])([H])[H])c([H])c([H])c2C1([H])[H]

>  <smiles>  (97) 
[H]c1c([H])c([H])c2c(c1[H])C([H])([H])C([H])([H])C([H])([H])C2([H])N([H])C(=O)C1([H])N(C(=O)C([H])(N([H])C(=O)C([H])(N([H])C([H])([H])[H])C([H])([H])[H])C(C([H])([H])[H])(C([H])([H])[H])C([H])([H])[H])C([H])([H])c2c([H])c(OC([H])(c3c([H])c(N4C([H])([H])C([H])([H])N(C(=O)N5C([H])([H])C([H])([H])C([H])([H])C([H])(n6nc(-c7c([H])c([H])c(Oc8c([H])c([H])c(F)c([H])c8F)c([H])c7[H])c(C(=O)N([H])[H])c6N([H])[H])C5([H])[H])C([H])([H])C4([H])[H])nc(=O)n3C3([H])C([H])([H])C3([H])[H])C([H])([H])[H])c([H])c([H])c2C1([H])[H]

$$$$
