0:0:0
     RDKit          3D

 91100  0  0  1  0  0  0  0  0999 V2000
  -30.6160  -14.8280   20.4070 C   0  0  0  0  0  0  0  0  0  0  0  0
  -30.4050  -12.5350   19.4190 C   0  0  0  0  0  2  0  0  0  0  0  0
  -29.4870  -12.5860   18.1780 C   0  0  0  0  0  2  0  0  0  0  0  0
  -28.0120  -12.4210   18.5910 C   0  0  0  0  0  2  0  0  0  0  0  0
  -27.6210  -13.3270   19.7890 C   0  0  0  0  0  3  0  0  0  0  0  0
  -28.6650  -13.2720   20.9250 C   0  0  0  0  0  2  0  0  0  0  0  0
  -29.9610  -13.6150   20.3320 N   0  0  0  0  0  0  0  0  0  0  0  0
  -31.8300  -14.8610   20.1810 O   0  0  0  0  0  0  0  0  0  0  0  0
  -29.2930  -19.8370   21.1530 C   0  0  0  0  0  3  0  0  0  0  0  0
  -29.5550  -18.5000   20.6610 C   0  0  0  0  0  0  0  0  0  0  0  0
  -29.6170  -18.2720   19.3100 C   0  0  0  0  0  0  0  0  0  0  0  0
  -29.4380  -19.3430   18.3960 C   0  0  0  0  0  0  0  0  0  0  0  0
  -29.1490  -20.6730   18.8700 C   0  0  0  0  0  0  0  0  0  0  0  0
  -29.0890  -20.9780   20.2710 C   0  0  0  0  0  0  0  0  0  0  0  0
  -29.7790  -17.1200   21.3630 C   0  0  0  0  0  3  0  0  0  0  0  0
  -29.8540  -16.7740   19.0350 C   0  0  0  0  0  3  0  0  0  0  0  0
  -29.5160  -19.0450   16.9040 C   0  0  0  0  0  1  0  0  0  0  0  0
  -28.8110  -21.7580   17.8540 C   0  0  0  0  0  1  0  0  0  0  0  0
  -29.8680  -16.0110   20.3250 N   0  0  0  0  0  0  0  0  0  0  0  0
  -25.2260  -13.9280   20.4740 C   0  0  0  0  0  0  0  0  0  0  0  0
  -24.1520  -13.1600   20.8310 C   0  0  0  0  0  0  0  0  0  0  0  0
  -24.6130  -11.8070   20.8260 C   0  0  0  0  0  0  0  0  0  0  0  0
  -26.2710  -13.0440   20.2660 N   0  0  0  0  0  0  0  0  0  0  0  0
  -25.9100  -11.7640   20.5450 N   0  0  0  0  0  0  0  0  0  0  0  0
  -23.8790  -10.5480   21.0160 C   0  0  0  0  0  0  0  0  0  0  0  0
  -24.3020   -9.5810   21.9550 C   0  0  0  0  0  3  0  0  0  0  0  0
  -23.5670   -8.3890   22.1340 C   0  0  0  0  0  3  0  0  0  0  0  0
  -22.3980   -8.1540   21.3730 C   0  0  0  0  0  0  0  0  0  0  0  0
  -21.9940   -9.1100   20.4240 C   0  0  0  0  0  3  0  0  0  0  0  0
  -22.7280  -10.2930   20.2440 C   0  0  0  0  0  3  0  0  0  0  0  0
  -21.6370   -7.0140   21.4610 O   0  0  0  0  0  0  0  0  0  0  0  0
  -21.5860   -6.2670   22.6110 C   0  0  0  0  0  0  0  0  0  0  0  0
  -21.1730   -6.8230   23.8410 C   0  0  0  0  0  3  0  0  0  0  0  0
  -21.0690   -6.0040   24.9830 C   0  0  0  0  0  3  0  0  0  0  0  0
  -21.3700   -4.6320   24.8970 C   0  0  0  0  0  0  0  0  0  0  0  0
  -21.7780   -4.0770   23.6720 C   0  0  0  0  0  3  0  0  0  0  0  0
  -21.8820   -4.8920   22.5310 C   0  0  0  0  0  0  0  0  0  0  0  0
  -22.2550   -4.3470   21.3480 F   0  0  0  0  0  0  0  0  0  0  0  0
  -21.2640   -3.8440   25.9920 F   0  0  0  0  0  0  0  0  0  0  0  0
  -22.7510  -13.6420   21.0670 C   0  0  0  0  0  0  0  0  0  0  0  0
  -22.0070  -12.9630   21.9320 N   0  0  0  0  0  0  0  0  0  0  0  0
  -22.3240  -14.6590   20.5210 O   0  0  0  0  0  0  0  0  0  0  0  0
  -22.3640  -12.1400   22.3940 H   0  0  0  0  0  0  0  0  0  0  0  0
  -21.0660  -13.2700   22.1380 H   0  0  0  0  0  0  0  0  0  0  0  0
  -25.3990  -15.2950   20.2840 N   0  0  0  0  0  0  0  0  0  0  0  0
  -24.6360  -15.9570   20.3760 H   0  0  0  0  0  0  0  0  0  0  0  0
  -26.2650  -15.7280   19.9870 H   0  0  0  0  0  0  0  0  0  0  0  0
  -28.6920  -22.2610   20.7920 O   0  0  0  0  0  0  0  0  0  0  0  0
  -29.1410  -23.6360   20.3510 C   0  0  0  0  0  2  0  0  0  0  0  0
  -28.0570  -24.8500   20.1650 C   0  0  0  0  0  2  0  0  0  0  0  0
  -28.3450  -26.3440   20.2440 O   0  0  0  0  0  0  0  0  0  0  0  0
  -24.6530  -31.8880   23.2390 C   0  0  0  0  0  0  0  0  0  0  0  0
  -27.2590  -27.2670   20.1850 C   0  0  0  0  0  0  0  0  0  0  0  0
  -23.4550  -30.4910   21.5990 C   0  0  0  0  0  3  0  0  0  0  0  0
  -24.9100  -28.9420   20.1680 C   0  0  0  0  0  0  0  0  0  0  0  0
  -26.0030  -30.7910   21.4240 C   0  0  0  0  0  2  0  0  0  0  0  0
  -26.0850  -29.4090   20.7700 C   0  0  0  0  0  0  0  0  0  0  0  0
  -27.2620  -28.5860   20.7640 C   0  0  0  0  0  3  0  0  0  0  0  0
  -26.0560  -26.8810   19.5510 C   0  0  0  0  0  3  0  0  0  0  0  0
  -24.9030  -27.6870   19.5460 C   0  0  0  0  0  3  0  0  0  0  0  0
  -23.6750  -29.8220   20.2170 C   0  0  0  0  0  2  0  0  0  0  0  0
  -24.7240  -31.0760   22.1420 N   0  0  0  0  0  0  0  0  0  0  0  0
  -23.5670  -32.1650   23.7700 O   0  0  0  0  0  0  0  0  0  0  0  0
  -22.7910  -29.4720   22.5570 C   0  0  0  0  0  0  0  0  0  0  0  0
  -21.4640  -29.2930   22.4300 N   0  0  0  0  0  0  0  0  0  0  0  0
  -23.4690  -28.8460   23.3760 O   0  0  0  0  0  0  0  0  0  0  0  0
  -20.9750  -29.8510   21.7460 H   0  0  0  0  0  0  0  0  0  0  0  0
  -18.0890  -28.0830   22.9330 C   0  0  0  0  0  0  0  0  0  0  0  0
  -20.6470  -28.3540   23.2020 C   0  0  0  0  0  3  0  0  0  0  0  0
  -20.7540  -26.9210   22.6280 C   0  0  0  0  0  2  0  0  0  0  0  0
  -19.6540  -26.5930   21.6140 C   0  0  0  0  0  2  0  0  0  0  0  0
  -18.2710  -26.7340   22.2570 C   0  0  0  0  0  2  0  0  0  0  0  0
  -19.2050  -28.8500   23.3620 C   0  0  0  0  0  0  0  0  0  0  0  0
  -18.9800  -30.1110   23.9560 C   0  0  0  0  0  3  0  0  0  0  0  0
  -17.6730  -30.6060   24.1210 C   0  0  0  0  0  3  0  0  0  0  0  0
  -16.5720  -29.8370   23.7080 C   0  0  0  0  0  3  0  0  0  0  0  0
  -16.7810  -28.5760   23.1210 C   0  0  0  0  0  3  0  0  0  0  0  0
  -25.9310  -32.5280   23.8630 C   0  0  0  0  0  3  0  0  0  0  0  0
  -25.6110  -33.9220   24.2020 N   0  0  0  0  0  0  0  0  0  0  0  0
  -25.9220  -34.9820   23.4430 C   0  0  0  0  0  0  0  0  0  0  0  0
  -26.5760  -34.8890   22.4010 O   0  0  0  0  0  0  0  0  0  0  0  0
  -25.0260  -34.0680   25.0110 H   0  0  0  0  0  0  0  0  0  0  0  0
  -24.1640  -36.7570   23.1380 C   0  0  0  0  0  1  0  0  0  0  0  0
  -25.4300  -36.3650   23.9160 C   0  0  0  0  0  3  0  0  0  0  0  0
  -27.5750  -37.2730   24.6930 C   0  0  0  0  0  1  0  0  0  0  0  0
  -26.4470  -37.4300   23.7780 N   0  0  0  0  0  0  0  0  0  0  0  0
  -26.0350  -38.3450   23.9390 H   0  0  0  0  0  0  0  0  0  0  0  0
  -26.4530  -31.7540   25.1370 C   0  0  1  0  0  0  0  0  0  0  0  0
  -25.3630  -31.5080   26.2070 C   0  0  0  0  0  1  0  0  0  0  0  0
  -27.0420  -30.3800   24.7430 C   0  0  0  0  0  1  0  0  0  0  0  0
  -27.6010  -32.5530   25.7980 C   0  0  0  0  0  1  0  0  0  0  0  0
  2  7  1  0
  3  4  1  0
  3  2  1  0
  5  4  1  0
  5 23  1  0
  5  6  1  0
  7  1  1  0
  7  6  1  0
  8  1  2  0
 10  9  1  0
 10 15  2  0
 11 10  1  0
 12 13  2  0
 12 11  1  0
 13 14  1  0
 14 48  1  0
 14  9  2  0
 16 11  2  0
 16 19  1  0
 17 12  1  0
 18 13  1  0
 19  1  1  0
 19 15  1  0
 20 21  2  0
 21 40  1  0
 22 21  1  0
 22 25  1  0
 23 20  1  0
 23 24  1  0
 24 22  2  0
 25 26  1  0
 26 27  2  0
 28 31  1  0
 28 27  1  0
 29 28  2  0
 30 29  1  0
 30 25  2  0
 31 32  1  0
 32 33  1  0
 33 34  2  0
 35 34  1  0
 35 39  1  0
 36 35  2  0
 37 32  2  0
 37 36  1  0
 38 37  1  0
 40 41  1  0
 41 44  1  0
 41 43  1  0
 42 40  2  0
 45 46  1  0
 45 20  1  0
 47 45  1  0
 49 48  1  0
 50 51  1  0
 50 49  1  0
 52 63  2  0
 53 51  1  0
 53 58  1  0
 54 62  1  0
 54 64  1  0
 55 61  1  0
 55 57  1  0
 56 62  1  0
 57 56  1  0
 58 57  2  0
 59 53  2  0
 60 59  1  0
 60 55  2  0
 61 54  1  0
 62 52  1  0
 64 66  2  0
 65 64  1  0
 67 65  1  0
 68 77  2  0
 68 73  1  0
 69 65  1  0
 69 73  1  0
 70 69  1  0
 71 72  1  0
 71 70  1  0
 72 68  1  0
 73 74  2  0
 74 75  1  0
 76 75  2  0
 77 76  1  0
 78 52  1  0
 78 79  1  0
 78 88  1  0
 79 82  1  0
 80 84  1  0
 80 79  1  0
 81 80  2  0
 84 83  1  0
 86 84  1  0
 86 87  1  0
 86 85  1  0
 88 91  1  1
 88 89  1  0
 90 88  1  0
M  ISO  4   1 100  19 100  50 101  51 101
M  END
>  <TORSDO>  (1) 
F 18

>  <SCORE>  (1) 
-14.674

>  <name>  (1) 
0

>  <ligand_id>  (1) 
0

>  <original_smiles>  (1) 
[H]c1c([H])c([H])c2c(c1[H])C([H])([H])C([H])([H])C([H])([H])C2([H])N([H])C(=O)C1([H])N(C(=O)C([H])(N([H])C(=O)C([H])(N([H])C([H])([H])[H])C([H])([H])[H])C(C([H])([H])[H])(C([H])([H])[H])C([H])([H])[H])C([H])([H])c2c([H])c(OC([H])([H])C([H])([H])Oc3c([H])c4c(c(C([H])([H])[H])c3C([H])([H])[H])C([H])([H])N(C(=O)N3C([H])([H])C([H])([H])C([H])([H])C([H])(n5nc(-c6c([H])c([H])c(Oc7c([H])c([H])c(F)c([H])c7F)c([H])c6[H])c(C(=O)N([H])[H])c5N([H])[H])C3([H])[H])C4([H])[H])c([H])c([H])c2C1([H])[H]

>  <smiles>  (1) 
[H]c1c([H])c([H])c2c(c1[H])C([H])([H])C([H])([H])C([H])([H])C2([H])N([H])C(=O)C1([H])N(C(=O)C([H])(N([H])C(=O)C([H])(N([H])C([H])([H])[H])C([H])([H])[H])C(C([H])([H])[H])(C([H])([H])[H])C([H])([H])[H])C([H])([H])c2c([H])c(OC([H])([H])C([H])([H])Oc3c([H])c4c(c(C([H])([H])[H])c3C([H])([H])[H])C([H])([H])N(C(=O)N3C([H])([H])C([H])([H])C([H])([H])C([H])(n5nc(-c6c([H])c([H])c(Oc7c([H])c([H])c(F)c([H])c7F)c([H])c6[H])c(C(=O)N([H])[H])c5N([H])[H])C3([H])[H])C4([H])[H])c([H])c([H])c2C1([H])[H]

$$$$
1:0:0
     RDKit          3D

 95104  0  0  1  0  0  0  0  0999 V2000
  -31.4380  -23.1320   20.6300 C   0  0  0  0  0  0  0  0  0  0  0  0
  -30.6240  -24.1630   20.0830 C   0  0  0  0  0  0  0  0  0  0  0  0
  -30.9330  -21.8120   20.8270 C   0  0  0  0  0  0  0  0  0  0  0  0
  -28.8180  -22.5360   19.8360 C   0  0  0  0  0  0  0  0  0  0  0  0
  -29.2550  -23.9260   19.8050 C   0  0  0  0  0  0  0  0  0  0  0  0
  -29.6200  -21.4440   20.3930 C   0  0  0  0  0  0  0  0  0  0  0  0
  -32.8830  -23.4390   21.0500 C   0  0  0  0  0  1  0  0  0  0  0  0
  -31.2500  -25.5110   19.7270 C   0  0  0  0  0  1  0  0  0  0  0  0
  -31.8450  -20.7710   21.4910 C   0  0  0  0  0  1  0  0  0  0  0  0
  -27.4810  -22.2370   19.1620 C   0  0  0  0  0  1  0  0  0  0  0  0
  -27.5850  -19.7360   20.7680 C   0  0  0  0  0  1  0  0  0  0  0  0
  -29.1170  -19.9350   20.7050 C   0  0  0  0  0  3  0  0  0  0  0  0
  -29.9150  -18.6140   20.1730 C   0  0  0  0  0  2  0  0  0  0  0  0
  -30.5900  -14.8420   20.1870 C   0  0  0  0  0  0  0  0  0  0  0  0
  -30.4540  -12.4910   19.3750 C   0  0  0  0  0  2  0  0  0  0  0  0
  -29.5120  -12.4170   18.1560 C   0  0  0  0  0  2  0  0  0  0  0  0
  -28.0360  -12.2950   18.5940 C   0  0  0  0  0  2  0  0  0  0  0  0
  -27.6420  -13.2560   19.7510 C   0  0  0  0  0  3  0  0  0  0  0  0
  -28.7110  -13.2780   20.8640 C   0  0  0  0  0  2  0  0  0  0  0  0
  -29.9930  -13.6050   20.2260 N   0  0  0  0  0  0  0  0  0  0  0  0
  -31.8080  -14.9460   20.0210 O   0  0  0  0  0  0  0  0  0  0  0  0
  -28.2590  -17.0090   18.9900 C   0  0  0  0  0  2  0  0  0  0  0  0
  -29.3590  -16.1390   18.3900 C   0  0  0  0  0  2  0  0  0  0  0  0
  -29.1520  -17.2060   20.2150 C   0  0  0  0  0  3  0  0  0  0  0  0
  -29.7730  -15.8810   19.7680 N   0  0  0  0  0  0  0  0  0  0  0  0
  -25.2670  -13.8610   20.5240 C   0  0  0  0  0  0  0  0  0  0  0  0
  -24.2000  -13.0900   20.8910 C   0  0  0  0  0  0  0  0  0  0  0  0
  -24.6580  -11.7390   20.8430 C   0  0  0  0  0  0  0  0  0  0  0  0
  -26.3050  -12.9780   20.2640 N   0  0  0  0  0  0  0  0  0  0  0  0
  -25.9450  -11.6960   20.5230 N   0  0  0  0  0  0  0  0  0  0  0  0
  -23.9310  -10.4810   21.0270 C   0  0  0  0  0  0  0  0  0  0  0  0
  -24.3540   -9.5170   21.9670 C   0  0  0  0  0  3  0  0  0  0  0  0
  -23.6250   -8.3210   22.1370 C   0  0  0  0  0  3  0  0  0  0  0  0
  -22.4600   -8.0830   21.3700 C   0  0  0  0  0  0  0  0  0  0  0  0
  -22.0570   -9.0370   20.4190 C   0  0  0  0  0  3  0  0  0  0  0  0
  -22.7850  -10.2250   20.2470 C   0  0  0  0  0  3  0  0  0  0  0  0
  -21.7010   -6.9400   21.4540 O   0  0  0  0  0  0  0  0  0  0  0  0
  -21.6180   -6.2170   22.6160 C   0  0  0  0  0  0  0  0  0  0  0  0
  -21.1420   -6.7860   23.8180 C   0  0  0  0  0  3  0  0  0  0  0  0
  -21.0060   -5.9880   24.9710 C   0  0  0  0  0  3  0  0  0  0  0  0
  -21.3350   -4.6200   24.9230 C   0  0  0  0  0  0  0  0  0  0  0  0
  -21.8050   -4.0500   23.7270 C   0  0  0  0  0  3  0  0  0  0  0  0
  -21.9440   -4.8460   22.5770 C   0  0  0  0  0  0  0  0  0  0  0  0
  -22.3770   -4.2860   21.4220 F   0  0  0  0  0  0  0  0  0  0  0  0
  -21.1970   -3.8520   26.0290 F   0  0  0  0  0  0  0  0  0  0  0  0
  -22.8090  -13.5740   21.1760 C   0  0  0  0  0  0  0  0  0  0  0  0
  -22.0850  -12.8860   22.0510 N   0  0  0  0  0  0  0  0  0  0  0  0
  -22.3710  -14.6020   20.6590 O   0  0  0  0  0  0  0  0  0  0  0  0
  -22.4510  -12.0570   22.4960 H   0  0  0  0  0  0  0  0  0  0  0  0
  -21.1510  -13.1960   22.2790 H   0  0  0  0  0  0  0  0  0  0  0  0
  -25.4290  -15.2330   20.3790 N   0  0  0  0  0  0  0  0  0  0  0  0
  -24.6890  -15.8970   20.5870 H   0  0  0  0  0  0  0  0  0  0  0  0
  -26.3110  -15.6770   20.1650 H   0  0  0  0  0  0  0  0  0  0  0  0
  -28.2760  -25.1150   19.3720 C   0  0  0  0  0  2  0  0  0  0  0  0
  -28.4260  -26.5320   19.8390 O   0  0  0  0  0  0  0  0  0  0  0  0
  -24.5490  -31.7130   23.1110 C   0  0  0  0  0  0  0  0  0  0  0  0
  -27.2960  -27.3810   19.8110 C   0  0  0  0  0  0  0  0  0  0  0  0
  -23.3910  -30.3790   21.3880 C   0  0  0  0  0  3  0  0  0  0  0  0
  -24.8880  -28.9500   19.8830 C   0  0  0  0  0  0  0  0  0  0  0  0
  -25.9250  -30.7640   21.2420 C   0  0  0  0  0  2  0  0  0  0  0  0
  -26.0440  -29.4270   20.5150 C   0  0  0  0  0  0  0  0  0  0  0  0
  -27.2480  -28.6530   20.4720 C   0  0  0  0  0  3  0  0  0  0  0  0
  -26.1100  -26.9730   19.1520 C   0  0  0  0  0  3  0  0  0  0  0  0
  -24.9240  -27.7280   19.1960 C   0  0  0  0  0  3  0  0  0  0  0  0
  -23.6280  -29.7870   19.9730 C   0  0  0  0  0  2  0  0  0  0  0  0
  -24.6390  -30.9660   21.9690 N   0  0  0  0  0  0  0  0  0  0  0  0
  -23.4570  -31.9340   23.6510 O   0  0  0  0  0  0  0  0  0  0  0  0
  -22.7490  -29.2940   22.2840 C   0  0  0  0  0  0  0  0  0  0  0  0
  -21.4250  -29.1010   22.1510 N   0  0  0  0  0  0  0  0  0  0  0  0
  -23.4400  -28.6300   23.0630 O   0  0  0  0  0  0  0  0  0  0  0  0
  -20.9240  -29.6920   21.5000 H   0  0  0  0  0  0  0  0  0  0  0  0
  -18.0620  -27.8510   22.6220 C   0  0  0  0  0  0  0  0  0  0  0  0
  -20.6250  -28.1060   22.8650 C   0  0  0  0  0  3  0  0  0  0  0  0
  -20.7230  -26.7200   22.1850 C   0  0  0  0  0  2  0  0  0  0  0  0
  -19.6050  -26.4650   21.1690 C   0  0  0  0  0  2  0  0  0  0  0  0
  -18.2340  -26.5550   21.8460 C   0  0  0  0  0  2  0  0  0  0  0  0
  -19.1850  -28.5860   23.0870 C   0  0  0  0  0  0  0  0  0  0  0  0
  -18.9700  -29.8010   23.7730 C   0  0  0  0  0  3  0  0  0  0  0  0
  -17.6660  -30.2800   23.9990 C   0  0  0  0  0  3  0  0  0  0  0  0
  -16.5580  -29.5390   23.5510 C   0  0  0  0  0  3  0  0  0  0  0  0
  -16.7580  -28.3260   22.8670 C   0  0  0  0  0  3  0  0  0  0  0  0
  -25.8130  -32.3420   23.7750 C   0  0  0  0  0  3  0  0  0  0  0  0
  -26.3190  -31.5340   25.0330 C   0  0  1  0  0  0  0  0  0  0  0  0
  -25.2120  -31.2460   26.0730 C   0  0  0  0  0  1  0  0  0  0  0  0
  -26.9280  -30.1780   24.6070 C   0  0  0  0  0  1  0  0  0  0  0  0
  -27.4470  -32.3210   25.7400 C   0  0  0  0  0  1  0  0  0  0  0  0
  -25.4760  -33.7230   24.1480 N   0  0  0  0  0  0  0  0  0  0  0  0
  -25.7730  -34.8040   23.4150 C   0  0  0  0  0  0  0  0  0  0  0  0
  -26.4270  -34.7450   22.3710 O   0  0  0  0  0  0  0  0  0  0  0  0
  -24.8920  -33.8420   24.9640 H   0  0  0  0  0  0  0  0  0  0  0  0
  -23.9830  -36.5530   23.1620 C   0  0  0  0  0  1  0  0  0  0  0  0
  -25.2630  -36.1670   23.9210 C   0  0  0  0  0  3  0  0  0  0  0  0
  -27.3950  -37.0980   24.7040 C   0  0  0  0  0  1  0  0  0  0  0  0
  -26.2610  -37.2520   23.7970 N   0  0  0  0  0  0  0  0  0  0  0  0
  -25.8330  -38.1580   23.9740 H   0  0  0  0  0  0  0  0  0  0  0  0
  1  3  1  0
  1  7  1  0
  2  1  2  0
  3  9  1  0
  4  6  1  0
  5  4  2  0
  5  2  1  0
  6 12  1  0
  6  3  2  0
  8  2  1  0
 10  4  1  0
 12 11  1  0
 13 12  1  0
 14 20  1  0
 15 20  1  0
 16 17  1  0
 16 15  1  0
 18 17  1  0
 18 29  1  0
 18 19  1  0
 20 19  1  0
 21 14  2  0
 22 24  1  0
 23 22  1  0
 23 25  1  0
 24 13  1  0
 25 14  1  0
 25 24  1  0
 26 27  2  0
 27 46  1  0
 28 27  1  0
 28 31  1  0
 29 30  1  0
 29 26  1  0
 30 28  2  0
 31 32  1  0
 32 33  2  0
 34 37  1  0
 34 33  1  0
 35 34  2  0
 36 35  1  0
 36 31  2  0
 37 38  1  0
 38 39  1  0
 39 40  2  0
 41 40  1  0
 41 45  1  0
 42 41  2  0
 43 38  2  0
 43 42  1  0
 44 43  1  0
 46 47  1  0
 47 50  1  0
 47 49  1  0
 48 46  2  0
 51 26  1  0
 51 52  1  0
 53 51  1  0
 54  5  1  0
 54 55  1  0
 56 67  2  0
 57 55  1  0
 57 62  1  0
 58 66  1  0
 58 68  1  0
 59 65  1  0
 59 61  1  0
 60 66  1  0
 61 60  1  0
 62 61  2  0
 63 64  1  0
 63 57  2  0
 64 59  2  0
 65 58  1  0
 66 56  1  0
 68 70  2  0
 69 68  1  0
 71 69  1  0
 72 81  2  0
 72 77  1  0
 73 69  1  0
 73 77  1  0
 74 73  1  0
 75 76  1  0
 75 74  1  0
 76 72  1  0
 77 78  2  0
 78 79  1  0
 80 79  2  0
 81 80  1  0
 82 56  1  0
 82 87  1  0
 82 83  1  0
 83 86  1  1
 83 84  1  0
 85 83  1  0
 87 90  1  0
 88 92  1  0
 88 87  1  0
 89 88  2  0
 92 91  1  0
 94 92  1  0
 94 95  1  0
 94 93  1  0
M  ISO  4  14 100  25 100  54 101  55 101
M  END
>  <TORSDO>  (2) 
F 19

>  <SCORE>  (2) 
-12.228

>  <name>  (2) 
1

>  <ligand_id>  (2) 
1

>  <original_smiles>  (2) 
[H]c1c([H])c([H])c2c(c1[H])C([H])([H])C([H])([H])C([H])([H])C2([H])N([H])C(=O)C1([H])N(C(=O)C([H])(N([H])C(=O)C([H])(N([H])C([H])([H])[H])C([H])([H])[H])C(C([H])([H])[H])(C([H])([H])[H])C([H])([H])[H])C([H])([H])c2c([H])c(OC([H])([H])c3c(C([H])([H])[H])c(C([H])([H])[H])c(C([H])([H])[H])c(C([H])(C([H])([H])[H])C([H])([H])C4([H])N(C(=O)N5C([H])([H])C([H])([H])C([H])([H])C([H])(n6nc(-c7c([H])c([H])c(Oc8c([H])c([H])c(F)c([H])c8F)c([H])c7[H])c(C(=O)N([H])[H])c6N([H])[H])C5([H])[H])C([H])([H])C4([H])[H])c3C([H])([H])[H])c([H])c([H])c2C1([H])[H]

>  <smiles>  (2) 
[H]c1c([H])c([H])c2c(c1[H])C([H])([H])C([H])([H])C([H])([H])C2([H])N([H])C(=O)C1([H])N(C(=O)C([H])(N([H])C(=O)C([H])(N([H])C([H])([H])[H])C([H])([H])[H])C(C([H])([H])[H])(C([H])([H])[H])C([H])([H])[H])C([H])([H])c2c([H])c(OC([H])([H])c3c(C([H])([H])[H])c(C([H])([H])[H])c(C([H])([H])[H])c(C([H])(C([H])([H])[H])C([H])([H])C4([H])N(C(=O)N5C([H])([H])C([H])([H])C([H])([H])C([H])(n6nc(-c7c([H])c([H])c(Oc8c([H])c([H])c(F)c([H])c8F)c([H])c7[H])c(C(=O)N([H])[H])c6N([H])[H])C5([H])[H])C([H])([H])C4([H])[H])c3C([H])([H])[H])c([H])c([H])c2C1([H])[H]

$$$$
2:0:0
     RDKit          3D

 96105  0  0  1  0  0  0  0  0999 V2000
  -30.1900  -20.2190   20.1100 C   0  0  0  0  0  0  0  0  0  0  0  0
  -29.8310  -20.5250   21.4540 C   0  0  0  0  0  0  0  0  0  0  0  0
  -29.9740  -21.2900   19.1330 C   0  0  0  0  0  0  0  0  0  0  0  0
  -29.4630  -21.8490   21.8200 C   0  0  0  0  0  0  0  0  0  0  0  0
  -29.4680  -22.9200   20.8860 C   0  0  0  0  0  0  0  0  0  0  0  0
  -29.6110  -22.6680   19.4950 C   0  0  0  0  0  0  0  0  0  0  0  0
  -29.8630  -19.4660   22.5720 C   0  0  0  0  0  1  0  0  0  0  0  0
  -30.1920  -20.9360   17.6690 C   0  0  0  0  0  1  0  0  0  0  0  0
  -29.0940  -22.1210   23.2800 C   0  0  0  0  0  1  0  0  0  0  0  0
  -29.4020  -24.3540   21.4330 C   0  0  0  0  0  1  0  0  0  0  0  0
  -31.2280  -15.0430   19.3390 C   0  0  0  0  0  0  0  0  0  0  0  0
  -30.6910  -12.7680   18.4740 C   0  0  0  0  0  2  0  0  0  0  0  0
  -29.6600  -12.8740   17.3300 C   0  0  0  0  0  2  0  0  0  0  0  0
  -28.2440  -12.7660   17.9170 C   0  0  0  0  0  2  0  0  0  0  0  0
  -28.0320  -13.7110   19.1270 C   0  0  0  0  0  3  0  0  0  0  0  0
  -29.2020  -13.6630   20.1440 C   0  0  0  0  0  2  0  0  0  0  0  0
  -30.4550  -13.8970   19.4130 N   0  0  0  0  0  0  0  0  0  0  0  0
  -32.2770  -14.9950   18.6920 O   0  0  0  0  0  0  0  0  0  0  0  0
  -31.9020  -18.3710   20.8770 C   0  0  0  0  0  2  0  0  0  0  0  0
  -30.9170  -18.8150   19.7900 C   0  0  0  0  0  3  0  0  0  0  0  0
  -32.0330  -16.8280   20.7870 C   0  0  0  0  0  3  0  0  0  0  0  0
  -30.1420  -17.4500   19.4750 C   0  0  0  0  0  3  0  0  0  0  0  0
  -32.1870  -16.1350   22.1550 C   0  0  0  0  0  1  0  0  0  0  0  0
  -29.7900  -17.4040   17.9750 C   0  0  0  0  0  1  0  0  0  0  0  0
  -30.9170  -16.2360   19.9950 N   0  0  0  0  0  0  0  0  0  0  0  0
  -25.7930  -14.4210   20.1620 C   0  0  0  0  0  0  0  0  0  0  0  0
  -24.7130  -13.7050   20.6100 C   0  0  0  0  0  0  0  0  0  0  0  0
  -25.0720  -12.3280   20.4770 C   0  0  0  0  0  0  0  0  0  0  0  0
  -26.7320  -13.4870   19.7680 N   0  0  0  0  0  0  0  0  0  0  0  0
  -26.3140  -12.2170   20.0200 N   0  0  0  0  0  0  0  0  0  0  0  0
  -24.2800  -11.1110   20.7070 C   0  0  0  0  0  0  0  0  0  0  0  0
  -24.7320  -10.0990   21.5820 C   0  0  0  0  0  3  0  0  0  0  0  0
  -23.9530   -8.9440   21.8070 C   0  0  0  0  0  3  0  0  0  0  0  0
  -22.7020   -8.7950   21.1610 C   0  0  0  0  0  0  0  0  0  0  0  0
  -22.2660   -9.7970   20.2730 C   0  0  0  0  0  3  0  0  0  0  0  0
  -23.0470  -10.9430   20.0480 C   0  0  0  0  0  3  0  0  0  0  0  0
  -21.8870   -7.6980   21.2950 O   0  0  0  0  0  0  0  0  0  0  0  0
  -21.8770   -6.9390   22.4380 C   0  0  0  0  0  0  0  0  0  0  0  0
  -21.5800   -7.4990   23.7000 C   0  0  0  0  0  3  0  0  0  0  0  0
  -21.5180   -6.6710   24.8400 C   0  0  0  0  0  3  0  0  0  0  0  0
  -21.7400   -5.2870   24.7180 C   0  0  0  0  0  0  0  0  0  0  0  0
  -22.0270   -4.7260   23.4600 C   0  0  0  0  0  3  0  0  0  0  0  0
  -22.0950   -5.5520   22.3230 C   0  0  0  0  0  0  0  0  0  0  0  0
  -22.3510   -5.0030   21.1120 F   0  0  0  0  0  0  0  0  0  0  0  0
  -21.6710   -4.4930   25.8090 F   0  0  0  0  0  0  0  0  0  0  0  0
  -23.3940  -14.2670   21.0480 C   0  0  0  0  0  0  0  0  0  0  0  0
  -22.7160  -13.6040   21.9810 N   0  0  0  0  0  0  0  0  0  0  0  0
  -22.9770  -15.3350   20.6020 O   0  0  0  0  0  0  0  0  0  0  0  0
  -23.0720  -12.7580   22.3980 H   0  0  0  0  0  0  0  0  0  0  0  0
  -21.8270  -13.9700   22.2960 H   0  0  0  0  0  0  0  0  0  0  0  0
  -26.0570  -15.7780   20.0390 N   0  0  0  0  0  0  0  0  0  0  0  0
  -25.4240  -16.5010   20.3620 H   0  0  0  0  0  0  0  0  0  0  0  0
  -26.9830  -16.1200   19.8190 H   0  0  0  0  0  0  0  0  0  0  0  0
  -29.5100  -23.9320   18.4930 C   0  0  0  0  0  2  0  0  0  0  0  0
  -28.2470  -24.9670   18.5120 C   0  0  0  0  0  2  0  0  0  0  0  0
  -28.3920  -26.4590   18.6650 O   0  0  0  0  0  0  0  0  0  0  0  0
  -24.7860  -31.2450   22.8190 C   0  0  0  0  0  0  0  0  0  0  0  0
  -27.2450  -27.2710   18.8680 C   0  0  0  0  0  0  0  0  0  0  0  0
  -23.4820  -30.0600   21.0930 C   0  0  0  0  0  3  0  0  0  0  0  0
  -24.8430  -28.7990   19.3240 C   0  0  0  0  0  0  0  0  0  0  0  0
  -25.9970  -30.4840   20.7540 C   0  0  0  0  0  2  0  0  0  0  0  0
  -26.0530  -29.2250   19.8880 C   0  0  0  0  0  0  0  0  0  0  0  0
  -27.2530  -28.4790   19.6480 C   0  0  0  0  0  3  0  0  0  0  0  0
  -25.9980  -26.9060   18.3060 C   0  0  0  0  0  3  0  0  0  0  0  0
  -24.8220  -27.6480   18.5190 C   0  0  0  0  0  3  0  0  0  0  0  0
  -23.5990  -29.6150   19.6130 C   0  0  0  0  0  2  0  0  0  0  0  0
  -24.7780  -30.6080   21.6110 N   0  0  0  0  0  0  0  0  0  0  0  0
  -23.7500  -31.3910   23.4830 O   0  0  0  0  0  0  0  0  0  0  0  0
  -22.9320  -28.8860   21.9420 C   0  0  0  0  0  0  0  0  0  0  0  0
  -21.6170  -28.6260   21.8410 N   0  0  0  0  0  0  0  0  0  0  0  0
  -23.6840  -28.2230   22.6580 O   0  0  0  0  0  0  0  0  0  0  0  0
  -21.0560  -29.2250   21.2510 H   0  0  0  0  0  0  0  0  0  0  0  0
  -18.3890  -27.0150   22.1780 C   0  0  0  0  0  0  0  0  0  0  0  0
  -20.9020  -27.5370   22.5140 C   0  0  0  0  0  3  0  0  0  0  0  0
  -21.1720  -26.1800   21.8220 C   0  0  0  0  0  2  0  0  0  0  0  0
  -20.1190  -25.8240   20.7670 C   0  0  0  0  0  2  0  0  0  0  0  0
  -18.7240  -25.7560   21.3960 C   0  0  0  0  0  2  0  0  0  0  0  0
  -19.4110  -27.8580   22.6910 C   0  0  0  0  0  0  0  0  0  0  0  0
  -19.0420  -29.0310   23.3850 C   0  0  0  0  0  3  0  0  0  0  0  0
  -17.6860  -29.3590   23.5740 C   0  0  0  0  0  3  0  0  0  0  0  0
  -16.6810  -28.5120   23.0730 C   0  0  0  0  0  3  0  0  0  0  0  0
  -17.0310  -27.3450   22.3760 C   0  0  0  0  0  3  0  0  0  0  0  0
  -26.1000  -31.8350   23.4160 C   0  0  0  0  0  3  0  0  0  0  0  0
  -25.7880  -33.1690   23.9510 N   0  0  0  0  0  0  0  0  0  0  0  0
  -26.0940  -34.3240   23.3470 C   0  0  0  0  0  0  0  0  0  0  0  0
  -26.7240  -34.3790   22.2870 O   0  0  0  0  0  0  0  0  0  0  0  0
  -25.2040  -33.1970   24.7730 H   0  0  0  0  0  0  0  0  0  0  0  0
  -24.3300  -36.1170   23.3410 C   0  0  0  0  0  1  0  0  0  0  0  0
  -25.6180  -35.6250   24.0210 C   0  0  0  0  0  3  0  0  0  0  0  0
  -27.7780  -36.4200   24.8740 C   0  0  0  0  0  1  0  0  0  0  0  0
  -26.6340  -36.6990   24.0100 N   0  0  0  0  0  0  0  0  0  0  0  0
  -26.2270  -37.5860   24.2990 H   0  0  0  0  0  0  0  0  0  0  0  0
  -26.7430  -30.9220   24.5330 C   0  0  1  0  0  0  0  0  0  0  0  0
  -25.7510  -30.5220   25.6480 C   0  0  0  0  0  1  0  0  0  0  0  0
  -27.3120  -29.6160   23.9270 C   0  0  0  0  0  1  0  0  0  0  0  0
  -27.9370  -31.6580   25.1880 C   0  0  0  0  0  1  0  0  0  0  0  0
  1  2  1  0
  2  4  2  0
  2  7  1  0
  3  6  1  0
  3  1  2  0
  4  9  1  0
  5 10  1  0
  5  4  1  0
  6  5  2  0
  8  3  1  0
 11 17  1  0
 11 25  1  0
 12 17  1  0
 13 14  1  0
 13 12  1  0
 15 14  1  0
 15 29  1  0
 15 16  1  0
 17 16  1  0
 18 11  2  0
 20  1  1  0
 20 19  1  0
 21 19  1  0
 21 23  1  0
 22 24  1  0
 22 20  1  0
 22 25  1  0
 25 21  1  0
 26 27  2  0
 27 46  1  0
 28 27  1  0
 28 31  1  0
 29 30  1  0
 29 26  1  0
 30 28  2  0
 31 32  1  0
 32 33  2  0
 34 37  1  0
 34 33  1  0
 35 34  2  0
 36 35  1  0
 36 31  2  0
 37 38  1  0
 38 39  1  0
 39 40  2  0
 41 40  1  0
 41 45  1  0
 42 41  2  0
 43 38  2  0
 43 42  1  0
 44 43  1  0
 46 47  1  0
 47 50  1  0
 47 49  1  0
 48 46  2  0
 51 26  1  0
 51 52  1  0
 53 51  1  0
 54 55  1  0
 54  6  1  0
 55 56  1  0
 56 58  1  0
 57 68  2  0
 58 63  1  0
 59 67  1  0
 59 69  1  0
 60 66  1  0
 60 62  1  0
 61 67  1  0
 62 61  1  0
 63 62  2  0
 64 65  1  0
 64 58  2  0
 65 60  2  0
 66 59  1  0
 67 57  1  0
 69 71  2  0
 70 69  1  0
 72 70  1  0
 73 82  2  0
 73 78  1  0
 74 70  1  0
 74 78  1  0
 75 74  1  0
 76 77  1  0
 76 75  1  0
 77 73  1  0
 78 79  2  0
 79 80  1  0
 81 80  2  0
 82 81  1  0
 83 57  1  0
 83 84  1  0
 83 93  1  0
 84 87  1  0
 85 84  1  0
 85 89  1  0
 86 85  2  0
 89 88  1  0
 91 89  1  0
 91 92  1  0
 91 90  1  0
 93 96  1  1
 93 94  1  0
 95 93  1  0
M  ISO  4  11 100  25 100  55 101  56 101
M  END
>  <TORSDO>  (3) 
F 18

>  <SCORE>  (3) 
-7.364

>  <name>  (3) 
2

>  <ligand_id>  (3) 
2

>  <original_smiles>  (3) 
[H]c1c([H])c([H])c2c(c1[H])C([H])([H])C([H])([H])C([H])([H])C2([H])N([H])C(=O)C1([H])N(C(=O)C([H])(N([H])C(=O)C([H])(N([H])C([H])([H])[H])C([H])([H])[H])C(C([H])([H])[H])(C([H])([H])[H])C([H])([H])[H])C([H])([H])c2c([H])c(OC([H])([H])C([H])([H])c3c(C([H])([H])[H])c(C([H])([H])[H])c(C([H])([H])[H])c(C4([H])C([H])([H])C([H])(C([H])([H])[H])N(C(=O)N5C([H])([H])C([H])([H])C([H])([H])C([H])(n6nc(-c7c([H])c([H])c(Oc8c([H])c([H])c(F)c([H])c8F)c([H])c7[H])c(C(=O)N([H])[H])c6N([H])[H])C5([H])[H])C4([H])C([H])([H])[H])c3C([H])([H])[H])c([H])c([H])c2C1([H])[H]

>  <smiles>  (3) 
[H]c1c([H])c([H])c2c(c1[H])C([H])([H])C([H])([H])C([H])([H])C2([H])N([H])C(=O)C1([H])N(C(=O)C([H])(N([H])C(=O)C([H])(N([H])C([H])([H])[H])C([H])([H])[H])C(C([H])([H])[H])(C([H])([H])[H])C([H])([H])[H])C([H])([H])c2c([H])c(OC([H])([H])C([H])([H])c3c(C([H])([H])[H])c(C([H])([H])[H])c(C([H])([H])[H])c(C4([H])C([H])([H])C([H])(C([H])([H])[H])N(C(=O)N5C([H])([H])C([H])([H])C([H])([H])C([H])(n6nc(-c7c([H])c([H])c(Oc8c([H])c([H])c(F)c([H])c8F)c([H])c7[H])c(C(=O)N([H])[H])c6N([H])[H])C5([H])[H])C4([H])C([H])([H])[H])c3C([H])([H])[H])c([H])c([H])c2C1([H])[H]

$$$$
3:0:0
     RDKit          3D

 95104  0  0  1  0  0  0  0  0999 V2000
  -29.7610  -18.4650   20.0760 C   0  0  0  0  0  3  0  0  0  0  0  0
  -29.6310  -20.9090   20.5090 C   0  0  0  0  0  0  0  0  0  0  0  0
  -29.3700  -19.7710   19.6830 C   0  0  0  0  0  0  0  0  0  0  0  0
  -30.4250  -18.2230   21.2910 C   0  0  0  0  0  0  0  0  0  0  0  0
  -30.3270  -20.6700   21.7370 C   0  0  0  0  0  0  0  0  0  0  0  0
  -30.6920  -19.3420   22.1320 C   0  0  0  0  0  0  0  0  0  0  0  0
  -28.6860  -19.8970   18.3300 C   0  0  0  0  0  1  0  0  0  0  0  0
  -30.7130  -21.8340   22.6480 C   0  0  0  0  0  1  0  0  0  0  0  0
  -31.3840  -19.0920   23.4760 C   0  0  0  0  0  1  0  0  0  0  0  0
  -30.2700  -23.4020   19.8090 C   0  0  0  0  0  2  0  0  0  0  0  0
  -27.9760  -22.9350   20.8760 C   0  0  0  0  0  2  0  0  0  0  0  0
  -30.0940  -24.8300   20.4360 C   0  0  0  0  0  2  0  0  0  0  0  0
  -27.5870  -24.3270   20.3210 C   0  0  0  0  0  2  0  0  0  0  0  0
  -29.1560  -22.3440   20.0760 C   0  0  0  0  0  3  0  0  0  0  0  0
  -28.6550  -25.4080   20.6270 C   0  0  0  0  0  3  0  0  0  0  0  0
  -28.5540  -26.6960   19.9490 O   0  0  0  0  0  0  0  0  0  0  0  0
  -24.5620  -31.7630   23.1230 C   0  0  0  0  0  0  0  0  0  0  0  0
  -27.3690  -27.4160   20.0070 C   0  0  0  0  0  0  0  0  0  0  0  0
  -23.4240  -30.3580   21.4400 C   0  0  0  0  0  3  0  0  0  0  0  0
  -24.9410  -28.8920   20.0070 C   0  0  0  0  0  0  0  0  0  0  0  0
  -25.9440  -30.7830   21.2890 C   0  0  0  0  0  2  0  0  0  0  0  0
  -26.0800  -29.4230   20.6260 C   0  0  0  0  0  0  0  0  0  0  0  0
  -27.2990  -28.6930   20.6210 C   0  0  0  0  0  3  0  0  0  0  0  0
  -26.2150  -26.9240   19.3600 C   0  0  0  0  0  3  0  0  0  0  0  0
  -25.0050  -27.6420   19.3710 C   0  0  0  0  0  3  0  0  0  0  0  0
  -23.6740  -29.7170   20.0500 C   0  0  0  0  0  2  0  0  0  0  0  0
  -24.6600  -30.9830   22.0080 N   0  0  0  0  0  0  0  0  0  0  0  0
  -23.4640  -31.9930   23.6500 O   0  0  0  0  0  0  0  0  0  0  0  0
  -22.7890  -29.2970   22.3690 C   0  0  0  0  0  0  0  0  0  0  0  0
  -21.4690  -29.0880   22.2290 N   0  0  0  0  0  0  0  0  0  0  0  0
  -23.4810  -28.6680   23.1740 O   0  0  0  0  0  0  0  0  0  0  0  0
  -20.9690  -29.6480   21.5540 H   0  0  0  0  0  0  0  0  0  0  0  0
  -18.1170  -27.8160   22.6920 C   0  0  0  0  0  0  0  0  0  0  0  0
  -20.6700  -28.1130   22.9710 C   0  0  0  0  0  3  0  0  0  0  0  0
  -20.7990  -26.7020   22.3500 C   0  0  0  0  0  2  0  0  0  0  0  0
  -19.7020  -26.3900   21.3280 C   0  0  0  0  0  2  0  0  0  0  0  0
  -18.3180  -26.4910   21.9760 C   0  0  0  0  0  2  0  0  0  0  0  0
  -19.2220  -28.5850   23.1450 C   0  0  0  0  0  0  0  0  0  0  0  0
  -18.9820  -29.8250   23.7730 C   0  0  0  0  0  3  0  0  0  0  0  0
  -17.6690  -30.2990   23.9530 C   0  0  0  0  0  3  0  0  0  0  0  0
  -16.5770  -29.5260   23.5180 C   0  0  0  0  0  3  0  0  0  0  0  0
  -16.8020  -28.2850   22.8940 C   0  0  0  0  0  3  0  0  0  0  0  0
  -25.8170  -32.4230   23.7730 C   0  0  0  0  0  3  0  0  0  0  0  0
  -25.4590  -33.8040   24.1220 N   0  0  0  0  0  0  0  0  0  0  0  0
  -25.7630  -34.8800   23.3840 C   0  0  0  0  0  0  0  0  0  0  0  0
  -26.4470  -34.8160   22.3580 O   0  0  0  0  0  0  0  0  0  0  0  0
  -24.8480  -33.9240   24.9170 H   0  0  0  0  0  0  0  0  0  0  0  0
  -23.9820  -36.6230   23.0420 C   0  0  0  0  0  1  0  0  0  0  0  0
  -25.2260  -36.2430   23.8590 C   0  0  0  0  0  3  0  0  0  0  0  0
  -27.3180  -37.1840   24.7350 C   0  0  0  0  0  1  0  0  0  0  0  0
  -26.2260  -37.3310   23.7770 N   0  0  0  0  0  0  0  0  0  0  0  0
  -25.7870  -38.2340   23.9330 H   0  0  0  0  0  0  0  0  0  0  0  0
  -26.3430  -31.6430   25.0400 C   0  0  1  0  0  0  0  0  0  0  0  0
  -25.2460  -31.3430   26.0880 C   0  0  0  0  0  1  0  0  0  0  0  0
  -26.9800  -30.2970   24.6280 C   0  0  0  0  0  1  0  0  0  0  0  0
  -27.4580  -32.4630   25.7330 C   0  0  0  0  0  1  0  0  0  0  0  0
  -30.9480  -16.8010   21.6450 C   0  0  0  0  0  2  0  0  0  0  0  0
  -30.9670  -14.5960   20.4090 C   0  0  0  0  0  0  0  0  0  0  0  0
  -30.6580  -12.4200   19.2580 C   0  0  0  0  0  2  0  0  0  0  0  0
  -29.7190  -12.5910   18.0460 C   0  0  0  0  0  2  0  0  0  0  0  0
  -28.2450  -12.4590   18.4770 C   0  0  0  0  0  2  0  0  0  0  0  0
  -27.9060  -13.3260   19.7180 C   0  0  0  0  0  3  0  0  0  0  0  0
  -28.9550  -13.1260   20.8340 C   0  0  0  0  0  2  0  0  0  0  0  0
  -30.2750  -13.4290   20.2610 N   0  0  0  0  0  0  0  0  0  0  0  0
  -32.0960  -14.7550   19.9380 O   0  0  0  0  0  0  0  0  0  0  0  0
  -30.3200  -15.6050   21.0380 N   0  0  0  0  0  0  0  0  0  0  0  0
  -29.3710  -15.4130   21.3190 H   0  0  0  0  0  0  0  0  0  0  0  0
  -25.5150  -13.9670   20.4150 C   0  0  0  0  0  0  0  0  0  0  0  0
  -24.4360  -13.2120   20.7870 C   0  0  0  0  0  0  0  0  0  0  0  0
  -24.8800  -11.8530   20.7700 C   0  0  0  0  0  0  0  0  0  0  0  0
  -26.5490  -13.0720   20.1960 N   0  0  0  0  0  0  0  0  0  0  0  0
  -26.1710  -11.7950   20.4660 N   0  0  0  0  0  0  0  0  0  0  0  0
  -24.1370  -10.6020   20.9660 C   0  0  0  0  0  0  0  0  0  0  0  0
  -24.5480   -9.6420   21.9160 C   0  0  0  0  0  3  0  0  0  0  0  0
  -23.8070   -8.4550   22.1010 C   0  0  0  0  0  3  0  0  0  0  0  0
  -22.6410   -8.2200   21.3340 C   0  0  0  0  0  0  0  0  0  0  0  0
  -22.2490   -9.1690   20.3740 C   0  0  0  0  0  3  0  0  0  0  0  0
  -22.9910  -10.3480   20.1870 C   0  0  0  0  0  3  0  0  0  0  0  0
  -21.8720   -7.0850   21.4270 O   0  0  0  0  0  0  0  0  0  0  0  0
  -21.7860   -6.3670   22.5930 C   0  0  0  0  0  0  0  0  0  0  0  0
  -21.3210   -6.9490   23.7930 C   0  0  0  0  0  3  0  0  0  0  0  0
  -21.1820   -6.1570   24.9510 C   0  0  0  0  0  3  0  0  0  0  0  0
  -21.4990   -4.7860   24.9100 C   0  0  0  0  0  0  0  0  0  0  0  0
  -21.9580   -4.2040   23.7150 C   0  0  0  0  0  3  0  0  0  0  0  0
  -22.0980   -4.9930   22.5590 C   0  0  0  0  0  0  0  0  0  0  0  0
  -22.5210   -4.4230   21.4040 F   0  0  0  0  0  0  0  0  0  0  0  0
  -21.3590   -4.0240   26.0190 F   0  0  0  0  0  0  0  0  0  0  0  0
  -23.0440  -13.7080   21.0510 C   0  0  0  0  0  0  0  0  0  0  0  0
  -22.3090  -13.0330   21.9270 N   0  0  0  0  0  0  0  0  0  0  0  0
  -22.6180  -14.7300   20.5140 O   0  0  0  0  0  0  0  0  0  0  0  0
  -22.6640  -12.2030   22.3810 H   0  0  0  0  0  0  0  0  0  0  0  0
  -21.3760  -13.3490   22.1500 H   0  0  0  0  0  0  0  0  0  0  0  0
  -25.6980  -15.3350   20.2270 N   0  0  0  0  0  0  0  0  0  0  0  0
  -24.9440  -16.0040   20.3300 H   0  0  0  0  0  0  0  0  0  0  0  0
  -26.5590  -15.7580   19.9030 H   0  0  0  0  0  0  0  0  0  0  0  0
  1  4  1  0
  2  5  2  0
  3  1  2  0
  3  2  1  0
  4 57  1  0
  4  6  2  0
  5  6  1  0
  5  8  1  0
  6  9  1  0
  7  3  1  0
 10 14  1  0
 10 12  1  0
 12 15  1  0
 13 15  1  0
 13 11  1  0
 14  2  1  0
 14 11  1  0
 15 16  1  0
 16 18  1  0
 17 28  2  0
 18 23  1  0
 19 27  1  0
 19 29  1  0
 20 26  1  0
 20 22  1  0
 21 27  1  0
 22 21  1  0
 23 22  2  0
 24 25  1  0
 24 18  2  0
 25 20  2  0
 26 19  1  0
 27 17  1  0
 29 31  2  0
 30 29  1  0
 32 30  1  0
 33 42  2  0
 33 38  1  0
 34 30  1  0
 34 38  1  0
 35 34  1  0
 36 37  1  0
 36 35  1  0
 37 33  1  0
 38 39  2  0
 39 40  1  0
 41 40  2  0
 42 41  1  0
 43 17  1  0
 43 44  1  0
 43 53  1  0
 44 47  1  0
 45 49  1  0
 45 44  1  0
 46 45  2  0
 49 48  1  0
 51 49  1  0
 51 52  1  0
 51 50  1  0
 53 56  1  1
 53 54  1  0
 55 53  1  0
 58 66  1  0
 59 64  1  0
 60 61  1  0
 60 59  1  0
 62 61  1  0
 62 71  1  0
 62 63  1  0
 64 58  1  0
 64 63  1  0
 65 58  2  0
 66 67  1  0
 66 57  1  0
 68 69  2  0
 69 88  1  0
 70 69  1  0
 70 73  1  0
 71 68  1  0
 71 72  1  0
 72 70  2  0
 73 74  1  0
 74 75  2  0
 76 79  1  0
 76 75  1  0
 77 76  2  0
 78 77  1  0
 78 73  2  0
 79 80  1  0
 80 81  1  0
 81 82  2  0
 83 82  1  0
 83 87  1  0
 84 83  2  0
 85 80  2  0
 85 84  1  0
 86 85  1  0
 88 89  1  0
 89 92  1  0
 89 91  1  0
 90 88  2  0
 93 94  1  0
 93 68  1  0
 95 93  1  0
M  ISO  4  15 101  16 101  58 100  66 100
M  END
>  <TORSDO>  (4) 
F 18

>  <SCORE>  (4) 
-14.645

>  <name>  (4) 
3

>  <ligand_id>  (4) 
3

>  <original_smiles>  (4) 
[H]c1c([H])c([H])c2c(c1[H])C([H])([H])C([H])([H])C([H])([H])C2([H])N([H])C(=O)C1([H])N(C(=O)C([H])(N([H])C(=O)C([H])(N([H])C([H])([H])[H])C([H])([H])[H])C(C([H])([H])[H])(C([H])([H])[H])C([H])([H])[H])C([H])([H])c2c([H])c(OC3([H])C([H])([H])C([H])([H])C([H])(c4c(C([H])([H])[H])c([H])c(C([H])([H])N([H])C(=O)N5C([H])([H])C([H])([H])C([H])([H])C([H])(n6nc(-c7c([H])c([H])c(Oc8c([H])c([H])c(F)c([H])c8F)c([H])c7[H])c(C(=O)N([H])[H])c6N([H])[H])C5([H])[H])c(C([H])([H])[H])c4C([H])([H])[H])C([H])([H])C3([H])[H])c([H])c([H])c2C1([H])[H]

>  <smiles>  (4) 
[H]c1c([H])c([H])c2c(c1[H])C([H])([H])C([H])([H])C([H])([H])C2([H])N([H])C(=O)C1([H])N(C(=O)C([H])(N([H])C(=O)C([H])(N([H])C([H])([H])[H])C([H])([H])[H])C(C([H])([H])[H])(C([H])([H])[H])C([H])([H])[H])C([H])([H])c2c([H])c(OC3([H])C([H])([H])C([H])([H])C([H])(c4c(C([H])([H])[H])c([H])c(C([H])([H])N([H])C(=O)N5C([H])([H])C([H])([H])C([H])([H])C([H])(n6nc(-c7c([H])c([H])c(Oc8c([H])c([H])c(F)c([H])c8F)c([H])c7[H])c(C(=O)N([H])[H])c6N([H])[H])C5([H])[H])c(C([H])([H])[H])c4C([H])([H])[H])C([H])([H])C3([H])[H])c([H])c([H])c2C1([H])[H]

$$$$
4:0:0
     RDKit          3D

 92101  0  0  1  0  0  0  0  0999 V2000
  -30.5610  -22.2240   21.0090 C   0  0  0  0  0  3  0  0  0  0  0  0
  -28.0970  -22.8300   19.9080 C   0  0  0  0  0  3  0  0  0  0  0  0
  -29.8430  -21.1370   20.4400 C   0  0  0  0  0  0  0  0  0  0  0  0
  -30.0630  -23.5580   21.0810 C   0  0  0  0  0  0  0  0  0  0  0  0
  -28.5870  -21.4860   19.8590 C   0  0  0  0  0  0  0  0  0  0  0  0
  -28.7900  -23.8950   20.5470 C   0  0  0  0  0  0  0  0  0  0  0  0
  -30.8930  -24.5890   21.8190 C   0  0  0  0  0  1  0  0  0  0  0  0
  -27.6840  -20.4450   19.2180 C   0  0  0  0  0  1  0  0  0  0  0  0
  -30.7440  -18.8660   19.2830 C   0  0  0  0  0  2  0  0  0  0  0  0
  -30.5160  -19.7200   20.5110 C   0  0  0  0  0  3  0  0  0  0  0  0
  -29.9190  -18.2790   20.4150 C   0  0  0  0  0  3  0  0  0  0  0  0
  -30.4920  -17.0510   21.1950 C   0  0  0  0  0  2  0  0  0  0  0  0
  -30.6480  -14.5930   20.4640 C   0  0  0  0  0  0  0  0  0  0  0  0
  -30.3570  -12.3860   19.3640 C   0  0  0  0  0  2  0  0  0  0  0  0
  -29.4300  -12.5370   18.1400 C   0  0  0  0  0  2  0  0  0  0  0  0
  -27.9510  -12.4070   18.5510 C   0  0  0  0  0  2  0  0  0  0  0  0
  -27.5950  -13.2650   19.7950 C   0  0  0  0  0  3  0  0  0  0  0  0
  -28.6450  -13.1020   20.9190 C   0  0  0  0  0  2  0  0  0  0  0  0
  -29.9640  -13.4120   20.3480 N   0  0  0  0  0  0  0  0  0  0  0  0
  -31.7960  -14.7190   20.0340 O   0  0  0  0  0  0  0  0  0  0  0  0
  -29.9660  -15.6700   20.9430 N   0  0  0  0  0  0  0  0  0  0  0  0
  -29.0280  -15.4820   21.2650 H   0  0  0  0  0  0  0  0  0  0  0  0
  -25.1910  -13.8730   20.4720 C   0  0  0  0  0  0  0  0  0  0  0  0
  -24.1190  -13.1040   20.8380 C   0  0  0  0  0  0  0  0  0  0  0  0
  -24.5780  -11.7510   20.8290 C   0  0  0  0  0  0  0  0  0  0  0  0
  -26.2390  -12.9880   20.2660 N   0  0  0  0  0  0  0  0  0  0  0  0
  -25.8740  -11.7080   20.5380 N   0  0  0  0  0  0  0  0  0  0  0  0
  -23.8450  -10.4920   21.0230 C   0  0  0  0  0  0  0  0  0  0  0  0
  -24.2700   -9.5270   21.9640 C   0  0  0  0  0  3  0  0  0  0  0  0
  -23.5390   -8.3350   22.1480 C   0  0  0  0  0  3  0  0  0  0  0  0
  -22.3660   -8.0970   21.3910 C   0  0  0  0  0  0  0  0  0  0  0  0
  -21.9590   -9.0510   20.4410 C   0  0  0  0  0  3  0  0  0  0  0  0
  -22.6910  -10.2350   20.2550 C   0  0  0  0  0  3  0  0  0  0  0  0
  -21.6060   -6.9560   21.4820 O   0  0  0  0  0  0  0  0  0  0  0  0
  -21.5590   -6.2140   22.6340 C   0  0  0  0  0  0  0  0  0  0  0  0
  -21.1450   -6.7720   23.8630 C   0  0  0  0  0  3  0  0  0  0  0  0
  -21.0440   -5.9570   25.0080 C   0  0  0  0  0  3  0  0  0  0  0  0
  -21.3450   -4.5850   24.9260 C   0  0  0  0  0  0  0  0  0  0  0  0
  -21.7510   -4.0250   23.7020 C   0  0  0  0  0  3  0  0  0  0  0  0
  -21.8530   -4.8380   22.5580 C   0  0  0  0  0  0  0  0  0  0  0  0
  -22.2240   -4.2880   21.3770 F   0  0  0  0  0  0  0  0  0  0  0  0
  -21.2410   -3.8000   26.0240 F   0  0  0  0  0  0  0  0  0  0  0  0
  -22.7180  -13.5860   21.0870 C   0  0  0  0  0  0  0  0  0  0  0  0
  -21.9780  -12.9030   21.9530 N   0  0  0  0  0  0  0  0  0  0  0  0
  -22.2870  -14.6040   20.5480 O   0  0  0  0  0  0  0  0  0  0  0  0
  -22.3390  -12.0770   22.4060 H   0  0  0  0  0  0  0  0  0  0  0  0
  -21.0380  -13.2100   22.1640 H   0  0  0  0  0  0  0  0  0  0  0  0
  -25.3630  -15.2400   20.2800 N   0  0  0  0  0  0  0  0  0  0  0  0
  -24.5990  -15.9030   20.3590 H   0  0  0  0  0  0  0  0  0  0  0  0
  -26.2190  -15.6630   19.9450 H   0  0  0  0  0  0  0  0  0  0  0  0
  -28.0360  -25.2390   20.8740 C   0  0  0  0  0  2  0  0  0  0  0  0
  -28.2670  -26.4870   20.1270 O   0  0  0  0  0  0  0  0  0  0  0  0
  -24.5860  -31.8700   23.2210 C   0  0  0  0  0  0  0  0  0  0  0  0
  -27.1650  -27.3510   20.1150 C   0  0  0  0  0  0  0  0  0  0  0  0
  -23.3580  -30.4810   21.5880 C   0  0  0  0  0  3  0  0  0  0  0  0
  -24.7890  -28.9340   20.1420 C   0  0  0  0  0  0  0  0  0  0  0  0
  -25.8910  -30.8090   21.3650 C   0  0  0  0  0  2  0  0  0  0  0  0
  -25.9650  -29.4320   20.7200 C   0  0  0  0  0  0  0  0  0  0  0  0
  -27.1570  -28.6510   20.6970 C   0  0  0  0  0  3  0  0  0  0  0  0
  -25.9690  -26.9010   19.5090 C   0  0  0  0  0  3  0  0  0  0  0  0
  -24.7920  -27.6720   19.5290 C   0  0  0  0  0  3  0  0  0  0  0  0
  -23.5500  -29.8040   20.2070 C   0  0  0  0  0  2  0  0  0  0  0  0
  -24.6310  -31.0680   22.1180 N   0  0  0  0  0  0  0  0  0  0  0  0
  -23.5100  -32.1450   23.7730 O   0  0  0  0  0  0  0  0  0  0  0  0
  -22.7060  -29.4630   22.5560 C   0  0  0  0  0  0  0  0  0  0  0  0
  -21.3780  -29.2840   22.4430 N   0  0  0  0  0  0  0  0  0  0  0  0
  -23.3940  -28.8390   23.3680 O   0  0  0  0  0  0  0  0  0  0  0  0
  -20.8800  -29.8380   21.7610 H   0  0  0  0  0  0  0  0  0  0  0  0
  -18.0110  -28.0750   22.9640 C   0  0  0  0  0  0  0  0  0  0  0  0
  -20.5690  -28.3450   23.2230 C   0  0  0  0  0  3  0  0  0  0  0  0
  -20.6750  -26.9110   22.6540 C   0  0  0  0  0  2  0  0  0  0  0  0
  -19.5710  -26.5790   21.6490 C   0  0  0  0  0  2  0  0  0  0  0  0
  -18.1900  -26.7240   22.2930 C   0  0  0  0  0  2  0  0  0  0  0  0
  -19.1280  -28.8420   23.3870 C   0  0  0  0  0  0  0  0  0  0  0  0
  -18.9050  -30.1080   23.9730 C   0  0  0  0  0  3  0  0  0  0  0  0
  -17.5980  -30.6040   24.1400 C   0  0  0  0  0  3  0  0  0  0  0  0
  -16.4960  -29.8320   23.7340 C   0  0  0  0  0  3  0  0  0  0  0  0
  -16.7040  -28.5680   23.1520 C   0  0  0  0  0  3  0  0  0  0  0  0
  -25.8780  -32.4990   23.8280 C   0  0  0  0  0  3  0  0  0  0  0  0
  -26.4100  -31.7220   25.0950 C   0  0  1  0  0  0  0  0  0  0  0  0
  -25.3310  -31.4850   26.1770 C   0  0  0  0  0  1  0  0  0  0  0  0
  -26.9820  -30.3450   24.6860 C   0  0  0  0  0  1  0  0  0  0  0  0
  -27.5750  -32.5080   25.7420 C   0  0  0  0  0  1  0  0  0  0  0  0
  -25.5800  -33.8960   24.1680 N   0  0  0  0  0  0  0  0  0  0  0  0
  -25.9080  -34.9500   23.4080 C   0  0  0  0  0  0  0  0  0  0  0  0
  -26.5650  -34.8470   22.3710 O   0  0  0  0  0  0  0  0  0  0  0  0
  -25.0050  -34.0550   24.9830 H   0  0  0  0  0  0  0  0  0  0  0  0
  -24.1850  -36.7480   23.0780 C   0  0  0  0  0  1  0  0  0  0  0  0
  -25.4320  -36.3390   23.8760 C   0  0  0  0  0  3  0  0  0  0  0  0
  -27.5800  -37.2080   24.6880 C   0  0  0  0  0  1  0  0  0  0  0  0
  -26.4680  -37.3880   23.7570 N   0  0  0  0  0  0  0  0  0  0  0  0
  -26.0680  -38.3090   23.9150 H   0  0  0  0  0  0  0  0  0  0  0  0
  1  4  1  0
  2  6  1  0
  3  1  2  0
  4  7  1  0
  5  2  2  0
  5  3  1  0
  6 51  1  0
  6  4  2  0
  8  5  1  0
  9 11  1  0
  9 10  1  0
 10  3  1  0
 11 10  1  0
 11 12  1  0
 13 21  1  0
 14 19  1  0
 15 16  1  0
 15 14  1  0
 17 16  1  0
 17 26  1  0
 17 18  1  0
 19 13  1  0
 19 18  1  0
 20 13  2  0
 21 12  1  0
 21 22  1  0
 23 24  2  0
 24 43  1  0
 25 24  1  0
 25 28  1  0
 26 23  1  0
 26 27  1  0
 27 25  2  0
 28 29  1  0
 29 30  2  0
 31 34  1  0
 31 30  1  0
 32 31  2  0
 33 32  1  0
 33 28  2  0
 34 35  1  0
 35 36  1  0
 36 37  2  0
 38 37  1  0
 38 42  1  0
 39 38  2  0
 40 35  2  0
 40 39  1  0
 41 40  1  0
 43 44  1  0
 44 47  1  0
 44 46  1  0
 45 43  2  0
 48 49  1  0
 48 23  1  0
 50 48  1  0
 52 51  1  0
 53 64  2  0
 54 52  1  0
 54 59  1  0
 55 63  1  0
 55 65  1  0
 56 62  1  0
 56 58  1  0
 57 63  1  0
 58 57  1  0
 59 58  2  0
 60 61  1  0
 60 54  2  0
 61 56  2  0
 62 55  1  0
 63 53  1  0
 65 67  2  0
 66 65  1  0
 68 66  1  0
 69 78  2  0
 69 74  1  0
 70 66  1  0
 70 74  1  0
 71 70  1  0
 72 73  1  0
 72 71  1  0
 73 69  1  0
 74 75  2  0
 75 76  1  0
 77 76  2  0
 78 77  1  0
 79 53  1  0
 79 84  1  0
 79 80  1  0
 80 83  1  1
 80 81  1  0
 82 80  1  0
 84 87  1  0
 85 89  1  0
 85 84  1  0
 86 85  2  0
 89 88  1  0
 91 89  1  0
 91 92  1  0
 91 90  1  0
M  ISO  4  13 100  21 100  51 101  52 101
M  END
>  <TORSDO>  (5) 
F 19

>  <SCORE>  (5) 
-13.977

>  <name>  (5) 
4

>  <ligand_id>  (5) 
4

>  <original_smiles>  (5) 
[H]c1c([H])c([H])c2c(c1[H])C([H])([H])C([H])([H])C([H])([H])C2([H])N([H])C(=O)C1([H])N(C(=O)C([H])(N([H])C(=O)C([H])(N([H])C([H])([H])[H])C([H])([H])[H])C(C([H])([H])[H])(C([H])([H])[H])C([H])([H])[H])C([H])([H])c2c([H])c(OC([H])([H])c3c([H])c(C([H])([H])[H])c(C4([H])C([H])([H])C4([H])C([H])([H])N([H])C(=O)N4C([H])([H])C([H])([H])C([H])([H])C([H])(n5nc(-c6c([H])c([H])c(Oc7c([H])c([H])c(F)c([H])c7F)c([H])c6[H])c(C(=O)N([H])[H])c5N([H])[H])C4([H])[H])c([H])c3C([H])([H])[H])c([H])c([H])c2C1([H])[H]

>  <smiles>  (5) 
[H]c1c([H])c([H])c2c(c1[H])C([H])([H])C([H])([H])C([H])([H])C2([H])N([H])C(=O)C1([H])N(C(=O)C([H])(N([H])C(=O)C([H])(N([H])C([H])([H])[H])C([H])([H])[H])C(C([H])([H])[H])(C([H])([H])[H])C([H])([H])[H])C([H])([H])c2c([H])c(OC([H])([H])c3c([H])c(C([H])([H])[H])c(C4([H])C([H])([H])C4([H])C([H])([H])N([H])C(=O)N4C([H])([H])C([H])([H])C([H])([H])C([H])(n5nc(-c6c([H])c([H])c(Oc7c([H])c([H])c(F)c([H])c7F)c([H])c6[H])c(C(=O)N([H])[H])c5N([H])[H])C4([H])[H])c([H])c3C([H])([H])[H])c([H])c([H])c2C1([H])[H]

$$$$
5:0:0
     RDKit          3D

 97106  0  0  1  0  0  0  0  0999 V2000
  -31.2270  -21.9940   18.9090 C   0  0  0  0  0  1  0  0  0  0  0  0
  -30.4440  -21.5250   20.1440 C   0  0  0  0  0  3  0  0  0  0  0  0
  -31.0440  -17.7990   21.2880 C   0  0  0  0  0  2  0  0  0  0  0  0
  -29.1740  -19.3700   19.6470 C   0  0  0  0  0  2  0  0  0  0  0  0
  -29.7610  -17.1280   20.7440 C   0  0  0  0  0  3  0  0  0  0  0  0
  -30.8630  -19.3400   21.4750 C   0  0  0  0  0  3  0  0  0  0  0  0
  -29.3420  -17.8300   19.4050 C   0  0  2  0  0  0  0  0  0  0  0  0
  -32.1820  -19.9240   22.0400 C   0  0  0  0  0  1  0  0  0  0  0  0
  -30.3760  -17.5780   18.2860 C   0  0  0  0  0  1  0  0  0  0  0  0
  -27.9840  -17.3010   18.9000 C   0  0  0  0  0  1  0  0  0  0  0  0
  -30.4010  -20.0080   20.2000 N   0  0  2  0  0  4  0  0  0  0  0  0
  -31.1150  -19.7570   19.5310 H   0  0  0  0  0  0  0  0  0  0  0  0
  -30.5770  -14.6260   20.4760 C   0  0  0  0  0  0  0  0  0  0  0  0
  -30.3890  -12.4090   19.3970 C   0  0  0  0  0  2  0  0  0  0  0  0
  -29.4300  -12.5540   18.1920 C   0  0  0  0  0  2  0  0  0  0  0  0
  -27.9520  -12.4160   18.6180 C   0  0  0  0  0  2  0  0  0  0  0  0
  -27.6020  -13.2450   19.8880 C   0  0  0  0  0  3  0  0  0  0  0  0
  -28.6730  -13.0580   20.9890 C   0  0  0  0  0  2  0  0  0  0  0  0
  -29.9800  -13.4030   20.4010 N   0  0  0  0  0  0  0  0  0  0  0  0
  -31.7430  -14.8270   20.1240 O   0  0  0  0  0  0  0  0  0  0  0  0
  -29.7110  -15.6340   20.7520 N   0  0  0  0  0  0  0  0  0  0  0  0
  -28.7890  -15.2630   20.9320 H   0  0  0  0  0  0  0  0  0  0  0  0
  -25.2010  -13.8650   20.5750 C   0  0  0  0  0  0  0  0  0  0  0  0
  -24.1300  -13.0950   20.9330 C   0  0  0  0  0  0  0  0  0  0  0  0
  -24.5850  -11.7440   20.9070 C   0  0  0  0  0  0  0  0  0  0  0  0
  -26.2480  -12.9770   20.3640 N   0  0  0  0  0  0  0  0  0  0  0  0
  -25.8790  -11.6960   20.6140 N   0  0  0  0  0  0  0  0  0  0  0  0
  -23.8560  -10.4850   21.0900 C   0  0  0  0  0  0  0  0  0  0  0  0
  -24.2790   -9.5130   22.0210 C   0  0  0  0  0  3  0  0  0  0  0  0
  -23.5520   -8.3150   22.1900 C   0  0  0  0  0  3  0  0  0  0  0  0
  -22.3840   -8.0840   21.4210 C   0  0  0  0  0  0  0  0  0  0  0  0
  -21.9820   -9.0440   20.4780 C   0  0  0  0  0  3  0  0  0  0  0  0
  -22.7110  -10.2330   20.3090 C   0  0  0  0  0  3  0  0  0  0  0  0
  -21.6270   -6.9400   21.4960 O   0  0  0  0  0  0  0  0  0  0  0  0
  -21.5600   -6.1990   22.6470 C   0  0  0  0  0  0  0  0  0  0  0  0
  -21.0820   -6.7430   23.8600 C   0  0  0  0  0  3  0  0  0  0  0  0
  -20.9680   -5.9250   25.0030 C   0  0  0  0  0  3  0  0  0  0  0  0
  -21.3250   -4.5640   24.9300 C   0  0  0  0  0  0  0  0  0  0  0  0
  -21.7930   -4.0210   23.7210 C   0  0  0  0  0  3  0  0  0  0  0  0
  -21.9060   -4.8350   22.5820 C   0  0  0  0  0  0  0  0  0  0  0  0
  -22.3400   -4.3010   21.4140 F   0  0  0  0  0  0  0  0  0  0  0  0
  -21.2110   -3.7750   26.0230 F   0  0  0  0  0  0  0  0  0  0  0  0
  -22.7300  -13.5830   21.1920 C   0  0  0  0  0  0  0  0  0  0  0  0
  -21.9850  -12.8850   22.0390 N   0  0  0  0  0  0  0  0  0  0  0  0
  -22.3050  -14.6120   20.6730 O   0  0  0  0  0  0  0  0  0  0  0  0
  -22.3410  -12.0510   22.4800 H   0  0  0  0  0  0  0  0  0  0  0  0
  -21.0460  -13.1970   22.2470 H   0  0  0  0  0  0  0  0  0  0  0  0
  -25.3580  -15.2330   20.3940 N   0  0  0  0  0  0  0  0  0  0  0  0
  -24.5510  -15.8490   20.3900 H   0  0  0  0  0  0  0  0  0  0  0  0
  -26.1960  -15.6820   20.0560 H   0  0  0  0  0  0  0  0  0  0  0  0
  -29.4070  -23.5310   21.4180 C   0  0  0  0  0  2  0  0  0  0  0  0
  -28.3300  -22.9020   19.2070 C   0  0  0  0  0  2  0  0  0  0  0  0
  -29.7970  -24.8650   20.7250 C   0  0  0  0  0  2  0  0  0  0  0  0
  -27.6900  -24.3080   19.4020 C   0  0  0  0  0  2  0  0  0  0  0  0
  -29.1230  -22.3510   20.4440 C   0  0  0  0  0  3  0  0  0  0  0  0
  -28.7430  -25.4150   19.7150 C   0  0  0  0  0  3  0  0  0  0  0  0
  -28.3990  -26.7420   20.2070 O   0  0  0  0  0  0  0  0  0  0  0  0
  -24.5850  -31.8950   23.2400 C   0  0  0  0  0  0  0  0  0  0  0  0
  -27.1970  -27.4340   20.1110 C   0  0  0  0  0  0  0  0  0  0  0  0
  -23.3630  -30.5090   21.5950 C   0  0  0  0  0  3  0  0  0  0  0  0
  -24.8000  -28.9780   20.1430 C   0  0  0  0  0  0  0  0  0  0  0  0
  -25.8910  -30.8470   21.3910 C   0  0  0  0  0  2  0  0  0  0  0  0
  -25.9620  -29.4800   20.7360 C   0  0  0  0  0  0  0  0  0  0  0  0
  -27.1510  -28.7160   20.7210 C   0  0  0  0  0  3  0  0  0  0  0  0
  -26.0120  -26.9620   19.4990 C   0  0  0  0  0  3  0  0  0  0  0  0
  -24.8250  -27.7180   19.5220 C   0  0  0  0  0  3  0  0  0  0  0  0
  -23.5560  -29.8360   20.2090 C   0  0  0  0  0  2  0  0  0  0  0  0
  -24.6310  -31.1010   22.1300 N   0  0  0  0  0  0  0  0  0  0  0  0
  -23.5080  -32.1700   23.7850 O   0  0  0  0  0  0  0  0  0  0  0  0
  -22.7140  -29.4860   22.5520 C   0  0  0  0  0  0  0  0  0  0  0  0
  -21.3920  -29.2960   22.4170 N   0  0  0  0  0  0  0  0  0  0  0  0
  -23.3970  -28.8630   23.3700 O   0  0  0  0  0  0  0  0  0  0  0  0
  -20.8990  -29.8450   21.7250 H   0  0  0  0  0  0  0  0  0  0  0  0
  -18.0300  -28.0680   22.8870 C   0  0  0  0  0  0  0  0  0  0  0  0
  -20.5810  -28.3520   23.1830 C   0  0  0  0  0  3  0  0  0  0  0  0
  -20.7060  -26.9220   22.6100 C   0  0  0  0  0  2  0  0  0  0  0  0
  -19.6180  -26.5850   21.5860 C   0  0  0  0  0  2  0  0  0  0  0  0
  -18.2270  -26.7180   22.2140 C   0  0  0  0  0  2  0  0  0  0  0  0
  -19.1370  -28.8400   23.3280 C   0  0  0  0  0  0  0  0  0  0  0  0
  -18.9040  -30.1040   23.9130 C   0  0  0  0  0  3  0  0  0  0  0  0
  -17.5940  -30.5930   24.0700 C   0  0  0  0  0  3  0  0  0  0  0  0
  -16.5000  -29.8180   23.6490 C   0  0  0  0  0  3  0  0  0  0  0  0
  -16.7180  -28.5570   23.0630 C   0  0  0  0  0  3  0  0  0  0  0  0
  -25.8770  -32.5180   23.8570 C   0  0  0  0  0  3  0  0  0  0  0  0
  -25.5710  -33.9140   24.2020 N   0  0  0  0  0  0  0  0  0  0  0  0
  -25.8810  -34.9720   23.4430 C   0  0  0  0  0  0  0  0  0  0  0  0
  -26.5280  -34.8780   22.3960 O   0  0  0  0  0  0  0  0  0  0  0  0
  -24.9920  -34.0600   25.0160 H   0  0  0  0  0  0  0  0  0  0  0  0
  -24.1360  -36.7620   23.1430 C   0  0  0  0  0  1  0  0  0  0  0  0
  -25.3980  -36.3550   23.9210 C   0  0  0  0  0  3  0  0  0  0  0  0
  -27.5440  -37.2510   24.7090 C   0  0  0  0  0  1  0  0  0  0  0  0
  -26.4220  -37.4140   23.7890 N   0  0  0  0  0  0  0  0  0  0  0  0
  -26.0130  -38.3320   23.9410 H   0  0  0  0  0  0  0  0  0  0  0  0
  -26.3990  -31.7380   25.1260 C   0  0  1  0  0  0  0  0  0  0  0  0
  -25.3080  -31.5000   26.1970 C   0  0  0  0  0  1  0  0  0  0  0  0
  -26.9910  -30.3650   24.7300 C   0  0  0  0  0  1  0  0  0  0  0  0
  -27.5520  -32.5280   25.7910 C   0  0  0  0  0  1  0  0  0  0  0  0
  2  1  1  0
  2 11  1  0
  3  6  1  0
  4 11  1  0
  5 21  1  0
  5  3  1  0
  6  8  1  0
  7  4  1  0
  7  5  1  0
  7  9  1  6
 10  7  1  0
 11  6  1  0
 11 12  1  6
 13 21  1  0
 14 19  1  0
 15 16  1  0
 15 14  1  0
 17 16  1  0
 17 26  1  0
 17 18  1  0
 19 13  1  0
 19 18  1  0
 20 13  2  0
 21 22  1  0
 23 24  2  0
 24 43  1  0
 25 24  1  0
 25 28  1  0
 26 23  1  0
 26 27  1  0
 27 25  2  0
 28 29  1  0
 29 30  2  0
 31 34  1  0
 31 30  1  0
 32 31  2  0
 33 32  1  0
 33 28  2  0
 34 35  1  0
 35 36  1  0
 36 37  2  0
 38 37  1  0
 38 42  1  0
 39 38  2  0
 40 35  2  0
 40 39  1  0
 41 40  1  0
 43 44  1  0
 44 47  1  0
 44 46  1  0
 45 43  2  0
 48 23  1  0
 49 48  1  0
 50 48  1  0
 52 54  1  0
 52 55  1  0
 53 51  1  0
 54 56  1  0
 55  2  1  0
 55 51  1  0
 56 57  1  0
 56 53  1  0
 58 69  2  0
 59 57  1  0
 59 64  1  0
 60 68  1  0
 60 70  1  0
 61 67  1  0
 61 63  1  0
 62 68  1  0
 63 62  1  0
 64 63  2  0
 65 66  1  0
 65 59  2  0
 66 61  2  0
 67 60  1  0
 68 58  1  0
 70 72  2  0
 71 70  1  0
 73 71  1  0
 74 83  2  0
 74 79  1  0
 75 71  1  0
 75 79  1  0
 76 75  1  0
 77 78  1  0
 77 76  1  0
 78 74  1  0
 79 80  2  0
 80 81  1  0
 82 81  2  0
 83 82  1  0
 84 58  1  0
 84 85  1  0
 84 94  1  0
 85 88  1  0
 86 90  1  0
 86 85  1  0
 87 86  2  0
 90 89  1  0
 92 90  1  0
 92 93  1  0
 92 91  1  0
 94 97  1  1
 94 95  1  0
 96 94  1  0
M  ISO  4  13 100  21 100  56 101  57 101
M  END
>  <TORSDO>  (6) 
F 18

>  <SCORE>  (6) 
-15.295

>  <name>  (6) 
5

>  <ligand_id>  (6) 
5

>  <original_smiles>  (6) 
[H]c1c([H])c([H])c2c(c1[H])C([H])([H])C([H])([H])C([H])([H])C2([H])N([H])C(=O)C1([H])N(C(=O)C([H])(N([H])C(=O)C([H])(N([H])C([H])([H])[H])C([H])([H])[H])C(C([H])([H])[H])(C([H])([H])[H])C([H])([H])[H])C([H])([H])c2c([H])c(OC3([H])C([H])([H])C([H])([H])C([H])(C([H])(C([H])([H])[H])[N+]4([H])C([H])([H])C(C([H])([H])[H])(C([H])([H])[H])C([H])(N([H])C(=O)N5C([H])([H])C([H])([H])C([H])([H])C([H])(n6nc(-c7c([H])c([H])c(Oc8c([H])c([H])c(F)c([H])c8F)c([H])c7[H])c(C(=O)N([H])[H])c6N([H])[H])C5([H])[H])C([H])([H])C4([H])C([H])([H])[H])C([H])([H])C3([H])[H])c([H])c([H])c2C1([H])[H]

>  <smiles>  (6) 
[H]c1c([H])c([H])c2c(c1[H])C([H])([H])C([H])([H])C([H])([H])C2([H])N([H])C(=O)C1([H])N(C(=O)C([H])(N([H])C(=O)C([H])(N([H])C([H])([H])[H])C([H])([H])[H])C(C([H])([H])[H])(C([H])([H])[H])C([H])([H])[H])C([H])([H])c2c([H])c(OC3([H])C([H])([H])C([H])([H])C([H])(C([H])(C([H])([H])[H])[N+]4([H])C([H])([H])C(C([H])([H])[H])(C([H])([H])[H])C([H])(N([H])C(=O)N5C([H])([H])C([H])([H])C([H])([H])C([H])(n6nc(-c7c([H])c([H])c(Oc8c([H])c([H])c(F)c([H])c8F)c([H])c7[H])c(C(=O)N([H])[H])c6N([H])[H])C5([H])[H])C([H])([H])C4([H])C([H])([H])[H])C([H])([H])C3([H])[H])c([H])c([H])c2C1([H])[H]

$$$$
6:0:0
     RDKit          3D

101110  0  0  1  0  0  0  0  0999 V2000
  -30.4800  -22.7530   21.9930 C   0  0  0  0  0  2  0  0  0  0  0  0
  -29.5480  -21.5660   21.7110 C   0  0  0  0  0  3  0  0  0  0  0  0
  -29.4960  -23.6370   21.1920 C   0  0  0  0  0  3  0  0  0  0  0  0
  -29.1840  -22.3230   20.4030 C   0  0  0  0  0  3  0  0  0  0  0  0
  -29.8800  -19.1970   20.7630 C   0  0  0  0  0  3  0  0  0  0  0  0
  -31.2160  -18.3590   23.0740 C   0  0  0  0  0  3  0  0  0  0  0  0
  -30.0550  -20.1180   21.8250 C   0  0  0  0  0  0  0  0  0  0  0  0
  -30.3640  -17.8650   20.8400 C   0  0  0  0  0  0  0  0  0  0  0  0
  -30.7350  -19.6800   22.9920 C   0  0  0  0  0  0  0  0  0  0  0  0
  -31.0560  -17.4520   22.0080 C   0  0  0  0  0  0  0  0  0  0  0  0
  -30.9960  -20.6030   24.1730 C   0  0  0  0  0  1  0  0  0  0  0  0
  -31.6840  -16.0740   22.1500 C   0  0  0  0  0  1  0  0  0  0  0  0
  -30.2010  -16.9560   19.6160 C   0  0  0  0  0  2  0  0  0  0  0  0
  -30.5040  -14.5020   19.3760 C   0  0  0  0  0  0  0  0  0  0  0  0
  -30.2230  -12.1990   18.5510 C   0  0  0  0  0  2  0  0  0  0  0  0
  -29.1820  -12.1970   17.4140 C   0  0  0  0  0  2  0  0  0  0  0  0
  -27.7580  -12.0490   17.9820 C   0  0  0  0  0  2  0  0  0  0  0  0
  -27.4720  -13.0350   19.1460 C   0  0  0  0  0  3  0  0  0  0  0  0
  -28.6200  -13.0240   20.1820 C   0  0  0  0  0  2  0  0  0  0  0  0
  -29.8790  -13.2970   19.4680 N   0  0  0  0  0  0  0  0  0  0  0  0
  -31.5560  -14.6600   18.7520 O   0  0  0  0  0  0  0  0  0  0  0  0
  -29.8360  -15.5550   19.8760 N   0  0  0  0  0  0  0  0  0  0  0  0
  -28.9690  -15.3800   20.3590 H   0  0  0  0  0  0  0  0  0  0  0  0
  -25.1900  -13.6500   20.1670 C   0  0  0  0  0  0  0  0  0  0  0  0
  -24.1530  -12.8790   20.6210 C   0  0  0  0  0  0  0  0  0  0  0  0
  -24.5720  -11.5220   20.4660 C   0  0  0  0  0  0  0  0  0  0  0  0
  -26.1770  -12.7620   19.7690 N   0  0  0  0  0  0  0  0  0  0  0  0
  -25.8150  -11.4740   20.0030 N   0  0  0  0  0  0  0  0  0  0  0  0
  -23.8420  -10.2650   20.6760 C   0  0  0  0  0  0  0  0  0  0  0  0
  -24.2950   -9.2920   21.5920 C   0  0  0  0  0  3  0  0  0  0  0  0
  -23.5650   -8.1010   21.7920 C   0  0  0  0  0  3  0  0  0  0  0  0
  -22.3670   -7.8740   21.0730 C   0  0  0  0  0  0  0  0  0  0  0  0
  -21.9320   -8.8360   20.1450 C   0  0  0  0  0  3  0  0  0  0  0  0
  -22.6620  -10.0190   19.9450 C   0  0  0  0  0  3  0  0  0  0  0  0
  -21.6060   -6.7350   21.1830 O   0  0  0  0  0  0  0  0  0  0  0  0
  -21.5080   -6.0450   22.3630 C   0  0  0  0  0  0  0  0  0  0  0  0
  -21.0410   -6.6580   23.5480 C   0  0  0  0  0  3  0  0  0  0  0  0
  -20.8900   -5.8950   24.7220 C   0  0  0  0  0  3  0  0  0  0  0  0
  -21.1960   -4.5200   24.7160 C   0  0  0  0  0  0  0  0  0  0  0  0
  -21.6550   -3.9080   23.5360 C   0  0  0  0  0  3  0  0  0  0  0  0
  -21.8080   -4.6680   22.3630 C   0  0  0  0  0  0  0  0  0  0  0  0
  -22.2310   -4.0680   21.2240 F   0  0  0  0  0  0  0  0  0  0  0  0
  -21.0430   -3.7850   25.8410 F   0  0  0  0  0  0  0  0  0  0  0  0
  -22.8120  -13.3680   21.0850 C   0  0  0  0  0  0  0  0  0  0  0  0
  -22.1970  -12.6660   22.0300 N   0  0  0  0  0  0  0  0  0  0  0  0
  -22.3220  -14.4070   20.6440 O   0  0  0  0  0  0  0  0  0  0  0  0
  -22.6070  -11.8220   22.4040 H   0  0  0  0  0  0  0  0  0  0  0  0
  -21.3010  -12.9730   22.3810 H   0  0  0  0  0  0  0  0  0  0  0  0
  -25.3680  -15.0240   20.0390 N   0  0  0  0  0  0  0  0  0  0  0  0
  -24.6350  -15.6870   20.2670 H   0  0  0  0  0  0  0  0  0  0  0  0
  -26.1840  -15.4600   19.6290 H   0  0  0  0  0  0  0  0  0  0  0  0
  -31.4100  -25.3240   20.8310 C   0  0  0  0  0  1  0  0  0  0  0  0
  -29.9510  -24.9580   20.5070 C   0  0  0  0  0  3  0  0  0  0  0  0
  -29.0160  -26.1310   20.9080 C   0  0  0  0  0  2  0  0  0  0  0  0
  -29.0340  -27.2340   19.9930 O   0  0  0  0  0  0  0  0  0  0  0  0
  -24.7740  -31.9080   23.2690 C   0  0  0  0  0  0  0  0  0  0  0  0
  -27.8480  -27.9280   19.9810 C   0  0  0  0  0  0  0  0  0  0  0  0
  -23.7430  -30.5820   21.4520 C   0  0  0  0  0  3  0  0  0  0  0  0
  -25.3630  -29.2660   19.9840 C   0  0  0  0  0  0  0  0  0  0  0  0
  -26.2450  -31.1150   21.4190 C   0  0  0  0  0  2  0  0  0  0  0  0
  -26.4530  -29.8110   20.6760 C   0  0  0  0  0  0  0  0  0  0  0  0
  -27.7020  -29.1500   20.6750 C   0  0  0  0  0  3  0  0  0  0  0  0
  -26.7470  -27.3910   19.2840 C   0  0  0  0  0  3  0  0  0  0  0  0
  -25.5040  -28.0540   19.2840 C   0  0  0  0  0  3  0  0  0  0  0  0
  -24.0640  -30.0370   20.0340 C   0  0  0  0  0  2  0  0  0  0  0  0
  -24.9360  -31.2110   22.1080 N   0  0  0  0  0  0  0  0  0  0  0  0
  -23.6520  -32.0680   23.7690 O   0  0  0  0  0  0  0  0  0  0  0  0
  -23.1120  -29.4460   22.2870 C   0  0  0  0  0  0  0  0  0  0  0  0
  -21.7950  -29.2420   22.1220 N   0  0  0  0  0  0  0  0  0  0  0  0
  -23.8040  -28.7540   23.0390 O   0  0  0  0  0  0  0  0  0  0  0  0
  -21.2970  -29.8560   21.4930 H   0  0  0  0  0  0  0  0  0  0  0  0
  -18.4410  -27.9470   22.4840 C   0  0  0  0  0  0  0  0  0  0  0  0
  -20.9970  -28.2040   22.7720 C   0  0  0  0  0  3  0  0  0  0  0  0
  -21.1140  -26.8580   22.0200 C   0  0  0  0  0  2  0  0  0  0  0  0
  -20.0090  -26.6500   20.9800 C   0  0  0  0  0  2  0  0  0  0  0  0
  -18.6300  -26.6950   21.6440 C   0  0  0  0  0  2  0  0  0  0  0  0
  -19.5530  -28.6640   23.0000 C   0  0  0  0  0  0  0  0  0  0  0  0
  -19.3230  -29.8420   23.7440 C   0  0  0  0  0  3  0  0  0  0  0  0
  -18.0130  -30.3020   23.9770 C   0  0  0  0  0  3  0  0  0  0  0  0
  -16.9160  -29.5810   23.4770 C   0  0  0  0  0  3  0  0  0  0  0  0
  -17.1310  -28.4040   22.7370 C   0  0  0  0  0  3  0  0  0  0  0  0
  -25.9860  -32.5580   24.0080 C   0  0  0  0  0  3  0  0  0  0  0  0
  -26.4200  -31.7670   25.3030 C   0  0  1  0  0  0  0  0  0  0  0  0
  -25.2480  -31.4540   26.2620 C   0  0  0  0  0  1  0  0  0  0  0  0
  -27.0910  -30.4260   24.9230 C   0  0  0  0  0  1  0  0  0  0  0  0
  -27.4760  -32.5830   26.0870 C   0  0  0  0  0  1  0  0  0  0  0  0
  -25.6110  -33.9380   24.3410 N   0  0  0  0  0  0  0  0  0  0  0  0
  -25.9730  -35.0150   23.6300 C   0  0  0  0  0  0  0  0  0  0  0  0
  -26.7260  -34.9530   22.6550 O   0  0  0  0  0  0  0  0  0  0  0  0
  -24.9490  -34.0600   25.0920 H   0  0  0  0  0  0  0  0  0  0  0  0
  -24.2290  -36.7690   23.1690 C   0  0  0  0  0  1  0  0  0  0  0  0
  -25.4080  -36.3790   24.0730 C   0  0  0  0  0  3  0  0  0  0  0  0
  -27.4410  -37.2990   25.0980 C   0  0  0  0  0  1  0  0  0  0  0  0
  -26.4170  -37.4620   24.0700 N   0  0  0  0  0  0  0  0  0  0  0  0
  -25.9730  -38.3660   24.2060 H   0  0  0  0  0  0  0  0  0  0  0  0
  -27.7650  -22.1610   19.9580 N   0  0  2  0  0  4  0  0  0  0  0  0
  -27.2250  -22.0970   20.8080 H   0  0  0  0  0  0  0  0  0  0  0  0
  -28.1820  -20.7440   17.8710 C   0  0  0  0  0  1  0  0  0  0  0  0
  -27.4940  -20.8770   19.2440 C   0  0  0  0  0  2  0  0  0  0  0  0
  -25.7140  -23.4490   19.2010 C   0  0  0  0  0  1  0  0  0  0  0  0
  -27.2500  -23.3660   19.2500 C   0  0  0  0  0  2  0  0  0  0  0  0
  2  7  1  0
  2  1  1  0
  3 53  1  0
  3  1  1  0
  4 96  1  0
  4  3  1  0
  4  2  1  0
  5  8  2  0
  5  7  1  0
  7  9  2  0
  8 10  1  0
  9  6  1  0
  9 11  1  0
 10 12  1  0
 10  6  2  0
 13 22  1  0
 13  8  1  0
 14 20  1  0
 14 22  1  0
 15 20  1  0
 16 17  1  0
 16 15  1  0
 18 17  1  0
 18 27  1  0
 18 19  1  0
 20 19  1  0
 21 14  2  0
 22 23  1  0
 24 25  2  0
 25 44  1  0
 26 25  1  0
 26 29  1  0
 27 28  1  0
 27 24  1  0
 28 26  2  0
 29 30  1  0
 30 31  2  0
 32 35  1  0
 32 31  1  0
 33 32  2  0
 34 33  1  0
 34 29  2  0
 35 36  1  0
 36 37  1  0
 37 38  2  0
 39 38  1  0
 39 43  1  0
 40 39  2  0
 41 36  2  0
 41 40  1  0
 42 41  1  0
 44 45  1  0
 45 48  1  0
 45 47  1  0
 46 44  2  0
 49 24  1  0
 49 50  1  0
 51 49  1  0
 53 52  1  0
 53 54  1  0
 55 54  1  0
 56 67  2  0
 57 55  1  0
 57 62  1  0
 58 66  1  0
 58 68  1  0
 59 65  1  0
 59 61  1  0
 60 66  1  0
 61 60  1  0
 62 61  2  0
 63 57  2  0
 64 63  1  0
 64 59  2  0
 65 58  1  0
 66 56  1  0
 68 70  2  0
 69 68  1  0
 71 69  1  0
 72 81  2  0
 72 77  1  0
 73 69  1  0
 73 77  1  0
 74 73  1  0
 75 76  1  0
 75 74  1  0
 76 72  1  0
 77 78  2  0
 78 79  1  0
 80 79  2  0
 81 80  1  0
 82 56  1  0
 82 87  1  0
 82 83  1  0
 83 86  1  1
 83 84  1  0
 85 83  1  0
 87 90  1  0
 88 92  1  0
 88 87  1  0
 89 88  2  0
 92 91  1  0
 94 92  1  0
 94 95  1  0
 94 93  1  0
 96 97  1  1
 98 99  1  0
 99 96  1  0
100101  1  0
101 96  1  0
M  ISO  4  14 100  22 100  54 101  55 101
M  END
>  <TORSDO>  (7) 
F 23

>  <SCORE>  (7) 
-10.320

>  <name>  (7) 
6

>  <ligand_id>  (7) 
6

>  <original_smiles>  (7) 
[H]c1c([H])c([H])c2c(c1[H])C([H])([H])C([H])([H])C([H])([H])C2([H])N([H])C(=O)C1([H])N(C(=O)C([H])(N([H])C(=O)C([H])(N([H])C([H])([H])[H])C([H])([H])[H])C(C([H])([H])[H])(C([H])([H])[H])C([H])([H])[H])C([H])([H])c2c([H])c(OC([H])([H])C([H])(C([H])([H])[H])C3([H])C([H])([H])C([H])(c4c([H])c(C([H])([H])N([H])C(=O)N5C([H])([H])C([H])([H])C([H])([H])C([H])(n6nc(-c7c([H])c([H])c(Oc8c([H])c([H])c(F)c([H])c8F)c([H])c7[H])c(C(=O)N([H])[H])c6N([H])[H])C5([H])[H])c(C([H])([H])[H])c([H])c4C([H])([H])[H])C3([H])[N+]([H])(C([H])([H])C([H])([H])[H])C([H])([H])C([H])([H])[H])c([H])c([H])c2C1([H])[H]

>  <smiles>  (7) 
[H]c1c([H])c([H])c2c(c1[H])C([H])([H])C([H])([H])C([H])([H])C2([H])N([H])C(=O)C1([H])N(C(=O)C([H])(N([H])C(=O)C([H])(N([H])C([H])([H])[H])C([H])([H])[H])C(C([H])([H])[H])(C([H])([H])[H])C([H])([H])[H])C([H])([H])c2c([H])c(OC([H])([H])C([H])(C([H])([H])[H])C3([H])C([H])([H])C([H])(c4c([H])c(C([H])([H])N([H])C(=O)N5C([H])([H])C([H])([H])C([H])([H])C([H])(n6nc(-c7c([H])c([H])c(Oc8c([H])c([H])c(F)c([H])c8F)c([H])c7[H])c(C(=O)N([H])[H])c6N([H])[H])C5([H])[H])c(C([H])([H])[H])c([H])c4C([H])([H])[H])C3([H])[N+]([H])(C([H])([H])C([H])([H])[H])C([H])([H])C([H])([H])[H])c([H])c([H])c2C1([H])[H]

$$$$
7:0:0
     RDKit          3D

100110  0  0  1  0  0  0  0  0999 V2000
  -31.1720  -21.0220   20.6850 C   0  0  0  0  0  3  0  0  0  0  0  0
  -31.1490  -19.6980   21.1430 C   0  0  0  0  0  3  0  0  0  0  0  0
  -31.8750  -21.3810   19.5180 C   0  0  0  0  0  0  0  0  0  0  0  0
  -32.6030  -20.3800   18.8190 C   0  0  0  0  0  0  0  0  0  0  0  0
  -32.5580  -19.0280   19.2730 C   0  0  0  0  0  0  0  0  0  0  0  0
  -31.8330  -18.6800   20.4420 C   0  0  0  0  0  0  0  0  0  0  0  0
  -33.4290  -20.7550   17.5880 C   0  0  0  0  0  1  0  0  0  0  0  0
  -33.2790  -17.9300   18.4940 C   0  0  0  0  0  1  0  0  0  0  0  0
  -30.4080  -23.2270   18.5470 C   0  0  0  0  0  2  0  0  0  0  0  0
  -32.2210  -23.8070   20.2010 C   0  0  0  0  0  2  0  0  0  0  0  0
  -30.3290  -24.7130   18.1600 C   0  0  0  0  0  2  0  0  0  0  0  0
  -32.0720  -25.2830   19.7920 C   0  0  0  0  0  2  0  0  0  0  0  0
  -31.8100  -22.8470   19.0680 C   0  0  0  0  0  3  0  0  0  0  0  0
  -30.6980  -25.5850   19.3090 N   0  0  1  0  0  4  0  0  0  0  0  0
  -30.0680  -25.3660   20.0680 H   0  0  0  0  0  0  0  0  0  0  0  0
  -30.5020  -27.0340   19.0440 C   0  0  0  0  0  2  0  0  0  0  0  0
  -29.0230  -27.4100   18.8530 C   0  0  0  0  0  2  0  0  0  0  0  0
  -28.2730  -26.9890   19.9930 O   0  0  0  0  0  0  0  0  0  0  0  0
  -24.5100  -31.9770   23.4020 C   0  0  0  0  0  0  0  0  0  0  0  0
  -27.0900  -27.6670   20.1140 C   0  0  0  0  0  0  0  0  0  0  0  0
  -23.2660  -30.6340   21.7340 C   0  0  0  0  0  3  0  0  0  0  0  0
  -24.6870  -29.1320   20.2430 C   0  0  0  0  0  0  0  0  0  0  0  0
  -25.7840  -30.9950   21.5020 C   0  0  0  0  0  2  0  0  0  0  0  0
  -25.8520  -29.6440   20.8280 C   0  0  0  0  0  0  0  0  0  0  0  0
  -27.0550  -28.9110   20.7750 C   0  0  0  0  0  3  0  0  0  0  0  0
  -25.9100  -27.1460   19.5440 C   0  0  0  0  0  3  0  0  0  0  0  0
  -24.7060  -27.8760   19.6080 C   0  0  0  0  0  3  0  0  0  0  0  0
  -23.4470  -29.9920   20.3330 C   0  0  0  0  0  2  0  0  0  0  0  0
  -24.5390  -31.2140   22.2720 N   0  0  0  0  0  0  0  0  0  0  0  0
  -23.4410  -32.2360   23.9710 O   0  0  0  0  0  0  0  0  0  0  0  0
  -22.6260  -29.5870   22.6740 C   0  0  0  0  0  0  0  0  0  0  0  0
  -21.3120  -29.3660   22.5130 N   0  0  0  0  0  0  0  0  0  0  0  0
  -23.3100  -28.9740   23.4980 O   0  0  0  0  0  0  0  0  0  0  0  0
  -20.8210  -29.9150   21.8210 H   0  0  0  0  0  0  0  0  0  0  0  0
  -17.9710  -28.0430   22.8890 C   0  0  0  0  0  0  0  0  0  0  0  0
  -20.5050  -28.3990   23.2560 C   0  0  0  0  0  3  0  0  0  0  0  0
  -20.6840  -26.9720   22.6870 C   0  0  0  0  0  2  0  0  0  0  0  0
  -19.6350  -26.6060   21.6340 C   0  0  0  0  0  2  0  0  0  0  0  0
  -18.2250  -26.7000   22.2250 C   0  0  0  0  0  2  0  0  0  0  0  0
  -19.0430  -28.8470   23.3590 C   0  0  0  0  0  0  0  0  0  0  0  0
  -18.7550  -30.1030   23.9360 C   0  0  0  0  0  3  0  0  0  0  0  0
  -17.4280  -30.5560   24.0490 C   0  0  0  0  0  3  0  0  0  0  0  0
  -16.3700  -29.7490   23.5970 C   0  0  0  0  0  3  0  0  0  0  0  0
  -16.6420  -28.4940   23.0220 C   0  0  0  0  0  3  0  0  0  0  0  0
  -25.8120  -32.5750   24.0200 C   0  0  0  0  0  3  0  0  0  0  0  0
  -26.2830  -31.8280   25.3270 C   0  0  1  0  0  0  0  0  0  0  0  0
  -25.1510  -31.6060   26.3580 C   0  0  0  0  0  1  0  0  0  0  0  0
  -26.8820  -30.4450   24.9760 C   0  0  0  0  0  1  0  0  0  0  0  0
  -27.4070  -32.6350   26.0180 C   0  0  0  0  0  1  0  0  0  0  0  0
  -25.5570  -33.9950   24.2940 N   0  0  0  0  0  0  0  0  0  0  0  0
  -25.9450  -35.0040   23.5020 C   0  0  0  0  0  0  0  0  0  0  0  0
  -26.6260  -34.8350   22.4880 O   0  0  0  0  0  0  0  0  0  0  0  0
  -24.9590  -34.2050   25.0810 H   0  0  0  0  0  0  0  0  0  0  0  0
  -24.2920  -36.8440   23.0570 C   0  0  0  0  0  1  0  0  0  0  0  0
  -25.5070  -36.4260   23.9000 C   0  0  0  0  0  3  0  0  0  0  0  0
  -27.6630  -37.2580   24.7270 C   0  0  0  0  0  1  0  0  0  0  0  0
  -26.5810  -37.4330   23.7610 N   0  0  0  0  0  0  0  0  0  0  0  0
  -26.2090  -38.3740   23.8690 H   0  0  0  0  0  0  0  0  0  0  0  0
  -31.8580  -17.3590   20.8510 O   0  0  0  0  0  0  0  0  0  0  0  0
  -30.3490  -14.0520   19.7870 C   0  0  0  0  0  0  0  0  0  0  0  0
  -29.8800  -11.9190   18.6390 C   0  0  0  0  0  2  0  0  0  0  0  0
  -28.7940  -12.0390   17.5580 C   0  0  0  0  0  2  0  0  0  0  0  0
  -27.4000  -11.8510   18.1760 C   0  0  0  0  0  2  0  0  0  0  0  0
  -27.1760  -12.7510   19.4180 C   0  0  0  0  0  3  0  0  0  0  0  0
  -28.3570  -12.6370   20.4110 C   0  0  0  0  0  2  0  0  0  0  0  0
  -29.6180  -12.9090   19.6950 N   0  0  0  0  0  0  0  0  0  0  0  0
  -31.1600  -14.4080   18.9260 O   0  0  0  0  0  0  0  0  0  0  0  0
  -31.5900  -15.8230   22.6580 C   0  0  0  0  0  2  0  0  0  0  0  0
  -31.4590  -14.5230   21.8720 C   0  0  0  0  0  2  0  0  0  0  0  0
  -29.8210  -16.0580   21.0660 C   0  0  0  0  0  2  0  0  0  0  0  0
  -30.9040  -16.8650   21.7940 C   0  0  0  0  0  3  0  0  0  0  0  0
  -30.2980  -14.6700   20.9830 N   0  0  0  0  0  0  0  0  0  0  0  0
  -24.8750  -13.3130   20.4370 C   0  0  0  0  0  0  0  0  0  0  0  0
  -23.8730  -12.5180   20.9250 C   0  0  0  0  0  0  0  0  0  0  0  0
  -24.3440  -11.1740   20.8110 C   0  0  0  0  0  0  0  0  0  0  0  0
  -25.8960  -12.4510   20.0610 N   0  0  0  0  0  0  0  0  0  0  0  0
  -25.5840  -11.1590   20.3380 N   0  0  0  0  0  0  0  0  0  0  0  0
  -23.6650   -9.8970   21.0700 C   0  0  0  0  0  0  0  0  0  0  0  0
  -24.1710   -8.9660   22.0020 C   0  0  0  0  0  3  0  0  0  0  0  0
  -23.4870   -7.7550   22.2480 C   0  0  0  0  0  3  0  0  0  0  0  0
  -22.2860   -7.4650   21.5580 C   0  0  0  0  0  0  0  0  0  0  0  0
  -21.7990   -8.3850   20.6140 C   0  0  0  0  0  3  0  0  0  0  0  0
  -22.4840   -9.5880   20.3670 C   0  0  0  0  0  3  0  0  0  0  0  0
  -21.5710   -6.3020   21.7120 O   0  0  0  0  0  0  0  0  0  0  0  0
  -21.5630   -5.6130   22.8990 C   0  0  0  0  0  0  0  0  0  0  0  0
  -21.1070   -6.2020   24.0990 C   0  0  0  0  0  3  0  0  0  0  0  0
  -21.0500   -5.4370   25.2800 C   0  0  0  0  0  3  0  0  0  0  0  0
  -21.4380   -4.0830   25.2630 C   0  0  0  0  0  0  0  0  0  0  0  0
  -21.8870   -3.4950   24.0680 C   0  0  0  0  0  3  0  0  0  0  0  0
  -21.9450   -4.2570   22.8880 C   0  0  0  0  0  0  0  0  0  0  0  0
  -22.3570   -3.6780   21.7340 F   0  0  0  0  0  0  0  0  0  0  0  0
  -21.3760   -3.3460   26.3970 F   0  0  0  0  0  0  0  0  0  0  0  0
  -22.5190  -12.9690   21.3880 C   0  0  0  0  0  0  0  0  0  0  0  0
  -21.9200  -12.2480   22.3320 N   0  0  0  0  0  0  0  0  0  0  0  0
  -22.0000  -13.9940   20.9460 O   0  0  0  0  0  0  0  0  0  0  0  0
  -22.3520  -11.4160   22.7060 H   0  0  0  0  0  0  0  0  0  0  0  0
  -21.0190  -12.5350   22.6870 H   0  0  0  0  0  0  0  0  0  0  0  0
  -24.9990  -14.6870   20.2620 N   0  0  0  0  0  0  0  0  0  0  0  0
  -24.2500  -15.3360   20.4800 H   0  0  0  0  0  0  0  0  0  0  0  0
  -25.8030  -15.1410   19.8480 H   0  0  0  0  0  0  0  0  0  0  0  0
  1  2  1  0
  3  1  2  0
  4  5  2  0
  4  3  1  0
  5  6  1  0
  6 59  1  0
  6  2  2  0
  7  4  1  0
  8  5  1  0
  9 13  1  0
 11  9  1  0
 11 14  1  0
 12 10  1  0
 13  3  1  0
 13 10  1  0
 14 12  1  0
 14 15  1  1
 16 14  1  0
 17 16  1  0
 17 18  1  0
 18 20  1  0
 19 30  2  0
 20 25  1  0
 21 29  1  0
 21 31  1  0
 22 28  1  0
 22 24  1  0
 23 29  1  0
 24 23  1  0
 25 24  2  0
 26 27  1  0
 26 20  2  0
 27 22  2  0
 28 21  1  0
 29 19  1  0
 31 33  2  0
 32 31  1  0
 34 32  1  0
 35 44  2  0
 35 40  1  0
 36 32  1  0
 36 40  1  0
 37 36  1  0
 38 39  1  0
 38 37  1  0
 39 35  1  0
 40 41  2  0
 41 42  1  0
 43 42  2  0
 44 43  1  0
 45 19  1  0
 45 50  1  0
 45 46  1  0
 46 49  1  1
 46 47  1  0
 48 46  1  0
 50 53  1  0
 51 55  1  0
 51 50  1  0
 52 51  2  0
 55 54  1  0
 57 58  1  0
 57 55  1  0
 57 56  1  0
 60 72  1  0
 61 66  1  0
 62 63  1  0
 62 61  1  0
 64 63  1  0
 64 76  1  0
 64 65  1  0
 66 60  1  0
 66 65  1  0
 67 60  2  0
 69 68  1  0
 70 71  1  0
 71 59  1  0
 71 68  1  0
 72 70  1  0
 72 69  1  0
 73 74  2  0
 74 93  1  0
 75 74  1  0
 75 78  1  0
 76 77  1  0
 76 73  1  0
 77 75  2  0
 78 79  1  0
 79 80  2  0
 81 84  1  0
 81 80  1  0
 82 81  2  0
 83 82  1  0
 83 78  2  0
 84 85  1  0
 85 86  1  0
 86 87  2  0
 88 87  1  0
 88 92  1  0
 89 88  2  0
 90 85  2  0
 90 89  1  0
 91 90  1  0
 93 94  1  0
 94 97  1  0
 94 96  1  0
 95 93  2  0
 98 73  1  0
 98 99  1  0
100 98  1  0
M  ISO  4  17 101  18 101  60 100  72 100
M  END
>  <TORSDO>  (8) 
F 20

>  <SCORE>  (8) 
-10.927

>  <name>  (8) 
7

>  <ligand_id>  (8) 
7

>  <original_smiles>  (8) 
[H]c1c([H])c([H])c2c(c1[H])C([H])([H])C([H])([H])C([H])([H])C2([H])N([H])C(=O)C1([H])N(C(=O)C([H])(N([H])C(=O)C([H])(N([H])C([H])([H])[H])C([H])([H])[H])C(C([H])([H])[H])(C([H])([H])[H])C([H])([H])[H])C([H])([H])c2c([H])c(OC([H])([H])C([H])([H])[N+]3([H])C([H])([H])C([H])([H])C([H])(c4c([H])c([H])c(OC5([H])C([H])([H])N(C(=O)N6C([H])([H])C([H])([H])C([H])([H])C([H])(n7nc(-c8c([H])c([H])c(Oc9c([H])c([H])c(F)c([H])c9F)c([H])c8[H])c(C(=O)N([H])[H])c7N([H])[H])C6([H])[H])C([H])([H])C5([H])[H])c(C([H])([H])[H])c4C([H])([H])[H])C([H])([H])C3([H])[H])c([H])c([H])c2C1([H])[H]

>  <smiles>  (8) 
[H]c1c([H])c([H])c2c(c1[H])C([H])([H])C([H])([H])C([H])([H])C2([H])N([H])C(=O)C1([H])N(C(=O)C([H])(N([H])C(=O)C([H])(N([H])C([H])([H])[H])C([H])([H])[H])C(C([H])([H])[H])(C([H])([H])[H])C([H])([H])[H])C([H])([H])c2c([H])c(OC([H])([H])C([H])([H])[N+]3([H])C([H])([H])C([H])([H])C([H])(c4c([H])c([H])c(OC5([H])C([H])([H])N(C(=O)N6C([H])([H])C([H])([H])C([H])([H])C([H])(n7nc(-c8c([H])c([H])c(Oc9c([H])c([H])c(F)c([H])c9F)c([H])c8[H])c(C(=O)N([H])[H])c7N([H])[H])C6([H])[H])C([H])([H])C5([H])[H])c(C([H])([H])[H])c4C([H])([H])[H])C([H])([H])C3([H])[H])c([H])c([H])c2C1([H])[H]

$$$$
8:0:0
     RDKit          3D

 99109  0  0  1  0  0  0  0  0999 V2000
  -29.5970  -20.4670   20.8790 C   0  0  0  0  0  0  0  0  0  0  0  0
  -28.1860  -22.9660   21.1740 C   0  0  0  0  0  0  0  0  0  0  0  0
  -28.8110  -21.0080   19.7960 C   0  0  0  0  0  0  0  0  0  0  0  0
  -29.7400  -21.2710   22.0520 C   0  0  0  0  0  0  0  0  0  0  0  0
  -28.1100  -22.2530   19.9450 C   0  0  0  0  0  0  0  0  0  0  0  0
  -29.0630  -22.5010   22.1780 C   0  0  0  0  0  0  0  0  0  0  0  0
  -28.6780  -20.2580   18.4690 C   0  0  0  0  0  1  0  0  0  0  0  0
  -30.5940  -20.8690   23.2630 C   0  0  0  0  0  1  0  0  0  0  0  0
  -31.6360  -14.8710   20.7190 C   0  0  0  0  0  0  0  0  0  0  0  0
  -31.3520  -12.5600   19.8910 C   0  0  0  0  0  2  0  0  0  0  0  0
  -30.5290  -12.5580   18.5860 C   0  0  0  0  0  2  0  0  0  0  0  0
  -29.0160  -12.5250   18.8840 C   0  0  0  0  0  2  0  0  0  0  0  0
  -28.5960  -13.5530   19.9700 C   0  0  0  0  0  3  0  0  0  0  0  0
  -29.5440  -13.4500   21.1890 C   0  0  0  0  0  2  0  0  0  0  0  0
  -30.8960  -13.7180   20.6880 N   0  0  0  0  0  0  0  0  0  0  0  0
  -32.8470  -14.8070   20.4780 O   0  0  0  0  0  0  0  0  0  0  0  0
  -29.2340  -17.9270   21.0170 C   0  0  0  0  0  2  0  0  0  0  0  0
  -31.2480  -18.5720   19.8360 C   0  0  0  0  0  2  0  0  0  0  0  0
  -29.8260  -16.5520   21.4060 C   0  0  0  0  0  2  0  0  0  0  0  0
  -31.9130  -17.2290   20.2080 C   0  0  0  0  0  2  0  0  0  0  0  0
  -30.2730  -19.0520   20.9160 C   0  0  0  0  0  3  0  0  0  0  0  0
  -31.0280  -16.1120   20.6530 N   0  0  0  0  0  0  0  0  0  0  0  0
  -26.2180  -14.3710   20.5080 C   0  0  0  0  0  0  0  0  0  0  0  0
  -25.0620  -13.6930   20.7820 C   0  0  0  0  0  0  0  0  0  0  0  0
  -25.4010  -12.3060   20.7530 C   0  0  0  0  0  0  0  0  0  0  0  0
  -27.1950  -13.4000   20.3420 N   0  0  0  0  0  0  0  0  0  0  0  0
  -26.7010  -12.1520   20.5420 N   0  0  0  0  0  0  0  0  0  0  0  0
  -24.5540  -11.1120   20.8570 C   0  0  0  0  0  0  0  0  0  0  0  0
  -24.8640  -10.0640   21.7510 C   0  0  0  0  0  3  0  0  0  0  0  0
  -24.0250   -8.9330   21.8450 C   0  0  0  0  0  3  0  0  0  0  0  0
  -22.8620   -8.8450   21.0440 C   0  0  0  0  0  0  0  0  0  0  0  0
  -22.5700   -9.8810   20.1400 C   0  0  0  0  0  3  0  0  0  0  0  0
  -23.4090  -11.0030   20.0430 C   0  0  0  0  0  3  0  0  0  0  0  0
  -22.0000   -7.7740   21.0510 O   0  0  0  0  0  0  0  0  0  0  0  0
  -21.8800   -6.9550   22.1460 C   0  0  0  0  0  0  0  0  0  0  0  0
  -21.5130   -7.4560   23.4140 C   0  0  0  0  0  3  0  0  0  0  0  0
  -21.3340   -6.5710   24.4960 C   0  0  0  0  0  3  0  0  0  0  0  0
  -21.5090   -5.1860   24.3080 C   0  0  0  0  0  0  0  0  0  0  0  0
  -21.8700   -4.6850   23.0450 C   0  0  0  0  0  3  0  0  0  0  0  0
  -22.0510   -5.5680   21.9660 C   0  0  0  0  0  0  0  0  0  0  0  0
  -22.3770   -5.0790   20.7450 F   0  0  0  0  0  0  0  0  0  0  0  0
  -21.3300   -4.3330   25.3430 F   0  0  0  0  0  0  0  0  0  0  0  0
  -23.6950  -14.2900   20.9620 C   0  0  0  0  0  0  0  0  0  0  0  0
  -22.8500  -13.6600   21.7700 N   0  0  0  0  0  0  0  0  0  0  0  0
  -23.3860  -15.3510   20.4220 O   0  0  0  0  0  0  0  0  0  0  0  0
  -23.1090  -12.8000   22.2290 H   0  0  0  0  0  0  0  0  0  0  0  0
  -21.9300  -14.0440   21.9300 H   0  0  0  0  0  0  0  0  0  0  0  0
  -26.5130  -15.7230   20.3650 N   0  0  0  0  0  0  0  0  0  0  0  0
  -25.7930  -16.4350   20.4110 H   0  0  0  0  0  0  0  0  0  0  0  0
  -27.4150  -16.0880   20.0860 H   0  0  0  0  0  0  0  0  0  0  0  0
  -26.4430  -24.3200   22.6590 C   0  0  0  0  0  2  0  0  0  0  0  0
  -25.8410  -24.2090   21.2870 C   0  0  0  0  0  2  0  0  0  0  0  0
  -27.3530  -24.2030   21.4470 C   0  0  0  0  0  3  0  0  0  0  0  0
  -30.1700  -24.2900   23.2310 C   0  0  0  0  0  1  0  0  0  0  0  0
  -29.2440  -23.2150   23.3390 O   0  0  0  0  0  0  0  0  0  0  0  0
  -27.2160  -22.8090   18.8120 C   0  0  0  0  0  2  0  0  0  0  0  0
  -27.8570  -23.8760   17.8840 C   0  0  0  0  0  2  0  0  0  0  0  0
  -28.2380  -25.2070   18.5730 C   0  0  0  0  0  2  0  0  0  0  0  0
  -27.9880  -26.3640   17.7590 O   0  0  0  0  0  0  0  0  0  0  0  0
  -24.9340  -30.6330   22.5520 C   0  0  0  0  0  0  0  0  0  0  0  0
  -26.8600  -27.0700   18.1140 C   0  0  0  0  0  0  0  0  0  0  0  0
  -23.4100  -29.6040   20.8970 C   0  0  0  0  0  3  0  0  0  0  0  0
  -24.5370  -28.4630   18.9130 C   0  0  0  0  0  0  0  0  0  0  0  0
  -25.8560  -30.0690   20.3070 C   0  0  0  0  0  2  0  0  0  0  0  0
  -25.7950  -28.8790   19.3710 C   0  0  0  0  0  0  0  0  0  0  0  0
  -26.9610  -28.1910   18.9670 C   0  0  0  0  0  3  0  0  0  0  0  0
  -25.5870  -26.6680   17.6540 C   0  0  0  0  0  3  0  0  0  0  0  0
  -24.4270  -27.3580   18.0530 C   0  0  0  0  0  3  0  0  0  0  0  0
  -23.3390  -29.2540   19.3860 C   0  0  0  0  0  2  0  0  0  0  0  0
  -24.7630  -30.1010   21.3070 N   0  0  0  0  0  0  0  0  0  0  0  0
  -23.9810  -30.7470   23.3350 O   0  0  0  0  0  0  0  0  0  0  0  0
  -22.9370  -28.3770   21.7080 C   0  0  0  0  0  0  0  0  0  0  0  0
  -21.6260  -28.0940   21.6530 N   0  0  0  0  0  0  0  0  0  0  0  0
  -23.7420  -27.6910   22.3440 O   0  0  0  0  0  0  0  0  0  0  0  0
  -21.0300  -28.7130   21.1210 H   0  0  0  0  0  0  0  0  0  0  0  0
  -18.4650  -26.3780   21.9880 C   0  0  0  0  0  0  0  0  0  0  0  0
  -20.9630  -26.9650   22.3040 C   0  0  0  0  0  3  0  0  0  0  0  0
  -21.2640  -25.6410   21.5640 C   0  0  0  0  0  2  0  0  0  0  0  0
  -20.2070  -25.2800   20.5150 C   0  0  0  0  0  2  0  0  0  0  0  0
  -18.8250  -25.1540   21.1630 C   0  0  0  0  0  2  0  0  0  0  0  0
  -19.4690  -27.2370   22.5110 C   0  0  0  0  0  0  0  0  0  0  0  0
  -19.0790  -28.3790   23.2420 C   0  0  0  0  0  3  0  0  0  0  0  0
  -17.7180  -28.6700   23.4570 C   0  0  0  0  0  3  0  0  0  0  0  0
  -16.7290  -27.8080   22.9490 C   0  0  0  0  0  3  0  0  0  0  0  0
  -17.1030  -26.6650   22.2220 C   0  0  0  0  0  3  0  0  0  0  0  0
  -26.3250  -31.1430   23.0410 C   0  0  0  0  0  3  0  0  0  0  0  0
  -26.1020  -32.3800   23.8010 N   0  0  0  0  0  0  0  0  0  0  0  0
  -26.3750  -33.6100   23.3460 C   0  0  0  0  0  0  0  0  0  0  0  0
  -26.9130  -33.8180   22.2550 O   0  0  0  0  0  0  0  0  0  0  0  0
  -25.6130  -32.2880   24.6790 H   0  0  0  0  0  0  0  0  0  0  0  0
  -24.7010  -35.4510   23.7100 C   0  0  0  0  0  1  0  0  0  0  0  0
  -25.9870  -34.8010   24.2440 C   0  0  0  0  0  3  0  0  0  0  0  0
  -28.2190  -35.3570   25.1040 C   0  0  0  0  0  1  0  0  0  0  0  0
  -27.0510  -35.8220   24.3580 N   0  0  0  0  0  0  0  0  0  0  0  0
  -26.6990  -36.6600   24.8120 H   0  0  0  0  0  0  0  0  0  0  0  0
  -27.1020  -30.0820   23.9150 C   0  0  1  0  0  0  0  0  0  0  0  0
  -26.2640  -29.5030   25.0790 C   0  0  0  0  0  1  0  0  0  0  0  0
  -27.5780  -28.8980   23.0410 C   0  0  0  0  0  1  0  0  0  0  0  0
  -28.3730  -30.7280   24.5150 C   0  0  0  0  0  1  0  0  0  0  0  0
  1  4  1  0
  2 53  1  0
  2  6  1  0
  3  5  1  0
  3  1  2  0
  4  6  2  0
  4  8  1  0
  5  2  2  0
  6 55  1  0
  7  3  1  0
 10 15  1  0
 11 12  1  0
 11 10  1  0
 13 12  1  0
 13 26  1  0
 13 14  1  0
 15  9  1  0
 15 14  1  0
 16  9  2  0
 17 19  1  0
 18 20  1  0
 18 21  1  0
 20 22  1  0
 21  1  1  0
 21 17  1  0
 22  9  1  0
 22 19  1  0
 23 24  2  0
 24 43  1  0
 25 24  1  0
 25 28  1  0
 26 23  1  0
 26 27  1  0
 27 25  2  0
 28 29  1  0
 29 30  2  0
 31 34  1  0
 31 30  1  0
 32 31  2  0
 33 32  1  0
 33 28  2  0
 34 35  1  0
 35 36  1  0
 36 37  2  0
 38 37  1  0
 38 42  1  0
 39 38  2  0
 40 35  2  0
 40 39  1  0
 41 40  1  0
 43 44  1  0
 44 47  1  0
 44 46  1  0
 45 43  2  0
 48 49  1  0
 48 23  1  0
 50 48  1  0
 52 53  1  0
 52 51  1  0
 53 51  1  0
 54 55  1  0
 56  5  1  0
 57 58  1  0
 57 56  1  0
 59 61  1  0
 59 58  1  0
 60 71  2  0
 61 66  1  0
 62 70  1  0
 62 72  1  0
 63 65  1  0
 63 69  1  0
 64 70  1  0
 65 64  1  0
 66 65  2  0
 67 68  1  0
 67 61  2  0
 68 63  2  0
 69 62  1  0
 70 60  1  0
 72 74  2  0
 73 72  1  0
 75 73  1  0
 76 85  2  0
 76 81  1  0
 77 73  1  0
 77 81  1  0
 78 77  1  0
 79 80  1  0
 79 78  1  0
 80 76  1  0
 81 82  2  0
 82 83  1  0
 84 83  2  0
 85 84  1  0
 86 60  1  0
 86 87  1  0
 86 96  1  0
 87 90  1  0
 88 87  1  0
 88 92  1  0
 89 88  2  0
 92 91  1  0
 92 94  1  0
 94 95  1  0
 94 93  1  0
 96 99  1  1
 96 97  1  0
 98 96  1  0
M  ISO  4   9 100  22 100  58 101  59 101
M  END
>  <TORSDO>  (9) 
F 21

>  <SCORE>  (9) 
-9.344

>  <name>  (9) 
8

>  <ligand_id>  (9) 
8

>  <original_smiles>  (9) 
[H]c1c([H])c([H])c2c(c1[H])C([H])([H])C([H])([H])C([H])([H])C2([H])N([H])C(=O)C1([H])N(C(=O)C([H])(N([H])C(=O)C([H])(N([H])C([H])([H])[H])C([H])([H])[H])C(C([H])([H])[H])(C([H])([H])[H])C([H])([H])[H])C([H])([H])c2c([H])c(OC([H])([H])C([H])([H])C([H])([H])c3c(C([H])([H])[H])c(C4([H])C([H])([H])C([H])([H])N(C(=O)N5C([H])([H])C([H])([H])C([H])([H])C([H])(n6nc(-c7c([H])c([H])c(Oc8c([H])c([H])c(F)c([H])c8F)c([H])c7[H])c(C(=O)N([H])[H])c6N([H])[H])C5([H])[H])C([H])([H])C4([H])[H])c(C([H])([H])[H])c(OC([H])([H])[H])c3C3([H])C([H])([H])C3([H])[H])c([H])c([H])c2C1([H])[H]

>  <smiles>  (9) 
[H]c1c([H])c([H])c2c(c1[H])C([H])([H])C([H])([H])C([H])([H])C2([H])N([H])C(=O)C1([H])N(C(=O)C([H])(N([H])C(=O)C([H])(N([H])C([H])([H])[H])C([H])([H])[H])C(C([H])([H])[H])(C([H])([H])[H])C([H])([H])[H])C([H])([H])c2c([H])c(OC([H])([H])C([H])([H])C([H])([H])c3c(C([H])([H])[H])c(C4([H])C([H])([H])C([H])([H])N(C(=O)N5C([H])([H])C([H])([H])C([H])([H])C([H])(n6nc(-c7c([H])c([H])c(Oc8c([H])c([H])c(F)c([H])c8F)c([H])c7[H])c(C(=O)N([H])[H])c6N([H])[H])C5([H])[H])C([H])([H])C4([H])[H])c(C([H])([H])[H])c(OC([H])([H])[H])c3C3([H])C([H])([H])C3([H])[H])c([H])c([H])c2C1([H])[H]

$$$$
9:0:0
     RDKit          3D

 93102  0  0  1  0  0  0  0  0999 V2000
  -30.3170  -21.1640   21.5050 C   0  0  0  0  0  3  0  0  0  0  0  0
  -30.4250  -22.4730   22.0310 C   0  0  0  0  0  3  0  0  0  0  0  0
  -29.4830  -20.8600   20.4080 C   0  0  0  0  0  0  0  0  0  0  0  0
  -29.7150  -23.5880   21.5120 C   0  0  0  0  0  0  0  0  0  0  0  0
  -28.8050  -22.0610   19.8160 C   0  0  0  0  0  0  0  0  0  0  0  0
  -28.8970  -23.4680   20.3510 C   0  0  0  0  0  0  0  0  0  0  0  0
  -29.8240  -24.8950   22.2940 C   0  0  0  0  0  1  0  0  0  0  0  0
  -30.5470  -15.1830   19.9840 C   0  0  0  0  0  0  0  0  0  0  0  0
  -30.4410  -12.8430   18.9410 C   0  0  0  0  0  2  0  0  0  0  0  0
  -29.4270  -12.7540   17.7730 C   0  0  0  0  0  2  0  0  0  0  0  0
  -27.9890  -12.5020   18.2760 C   0  0  0  0  0  2  0  0  0  0  0  0
  -27.6430  -13.3740   19.5090 C   0  0  0  0  0  3  0  0  0  0  0  0
  -28.7830  -13.3220   20.5590 C   0  0  0  0  0  2  0  0  0  0  0  0
  -29.9700  -13.8960   19.8990 N   0  0  0  0  0  0  0  0  0  0  0  0
  -31.7300  -15.2410   19.6100 O   0  0  0  0  0  0  0  0  0  0  0  0
  -28.5130  -16.5000   20.9070 C   0  0  0  0  0  2  0  0  0  0  0  0
  -30.3210  -17.9390   20.2420 C   0  0  0  0  0  2  0  0  0  0  0  0
  -27.6080  -17.5970   20.3190 C   0  0  0  0  0  2  0  0  0  0  0  0
  -29.2640  -19.2570   20.0250 C   0  0  0  0  0  3  0  0  0  0  0  0
  -29.8270  -16.4210   20.2440 N   0  0  0  0  0  0  0  0  0  0  0  0
  -28.0940  -18.8640   20.7090 O   0  0  0  0  0  0  0  0  0  0  0  0
  -25.2980  -13.9200   20.3950 C   0  0  0  0  0  0  0  0  0  0  0  0
  -24.2690  -13.1310   20.8210 C   0  0  0  0  0  0  0  0  0  0  0  0
  -24.7400  -11.7870   20.7220 C   0  0  0  0  0  0  0  0  0  0  0  0
  -26.3370  -13.0580   20.0770 N   0  0  0  0  0  0  0  0  0  0  0  0
  -26.0090  -11.7660   20.3320 N   0  0  0  0  0  0  0  0  0  0  0  0
  -24.0310  -10.5170   20.9110 C   0  0  0  0  0  0  0  0  0  0  0  0
  -24.4710   -9.5580   21.8510 C   0  0  0  0  0  3  0  0  0  0  0  0
  -23.7580   -8.3530   22.0330 C   0  0  0  0  0  3  0  0  0  0  0  0
  -22.5930   -8.0960   21.2730 C   0  0  0  0  0  0  0  0  0  0  0  0
  -22.1680   -9.0430   20.3250 C   0  0  0  0  0  3  0  0  0  0  0  0
  -22.8800  -10.2420   20.1440 C   0  0  0  0  0  3  0  0  0  0  0  0
  -21.8540   -6.9400   21.3630 O   0  0  0  0  0  0  0  0  0  0  0  0
  -21.7270   -6.2620   22.5460 C   0  0  0  0  0  0  0  0  0  0  0  0
  -21.1500   -6.8590   23.6890 C   0  0  0  0  0  3  0  0  0  0  0  0
  -20.9790   -6.1020   24.8650 C   0  0  0  0  0  3  0  0  0  0  0  0
  -21.3750   -4.7520   24.8990 C   0  0  0  0  0  0  0  0  0  0  0  0
  -21.9510   -4.1580   23.7610 C   0  0  0  0  0  3  0  0  0  0  0  0
  -22.1250   -4.9100   22.5860 C   0  0  0  0  0  0  0  0  0  0  0  0
  -22.6620   -4.3320   21.4870 F   0  0  0  0  0  0  0  0  0  0  0  0
  -21.2040   -4.0240   26.0260 F   0  0  0  0  0  0  0  0  0  0  0  0
  -22.8890  -13.5940   21.1920 C   0  0  0  0  0  0  0  0  0  0  0  0
  -22.2330  -12.9010   22.1150 N   0  0  0  0  0  0  0  0  0  0  0  0
  -22.4060  -14.6150   20.7010 O   0  0  0  0  0  0  0  0  0  0  0  0
  -22.6490  -12.0910   22.5540 H   0  0  0  0  0  0  0  0  0  0  0  0
  -21.3180  -13.2070   22.4120 H   0  0  0  0  0  0  0  0  0  0  0  0
  -25.4030  -15.2920   20.2150 N   0  0  0  0  0  0  0  0  0  0  0  0
  -24.5960  -15.8920   20.3560 H   0  0  0  0  0  0  0  0  0  0  0  0
  -26.0950  -15.7040   19.6090 H   0  0  0  0  0  0  0  0  0  0  0  0
  -26.5810  -21.2590   18.6550 C   0  0  0  0  0  1  0  0  0  0  0  0
  -28.0080  -21.8280   18.5190 C   0  0  0  0  0  2  0  0  0  0  0  0
  -28.0360  -24.8030   19.8480 C   0  0  0  0  0  2  0  0  0  0  0  0
  -28.3410  -26.3100   20.0950 O   0  0  0  0  0  0  0  0  0  0  0  0
  -24.6240  -31.8190   23.2410 C   0  0  0  0  0  0  0  0  0  0  0  0
  -27.2860  -27.2960   20.0190 C   0  0  0  0  0  0  0  0  0  0  0  0
  -23.4560  -30.4960   21.5210 C   0  0  0  0  0  3  0  0  0  0  0  0
  -24.9380  -29.0200   20.0260 C   0  0  0  0  0  0  0  0  0  0  0  0
  -26.0070  -30.8080   21.3860 C   0  0  0  0  0  2  0  0  0  0  0  0
  -26.1090  -29.4520   20.6610 C   0  0  0  0  0  0  0  0  0  0  0  0
  -27.2880  -28.6140   20.6310 C   0  0  0  0  0  3  0  0  0  0  0  0
  -26.0860  -26.9680   19.3500 C   0  0  0  0  0  3  0  0  0  0  0  0
  -24.9400  -27.7890   19.3550 C   0  0  0  0  0  3  0  0  0  0  0  0
  -23.6990  -29.8990   20.1090 C   0  0  0  0  0  2  0  0  0  0  0  0
  -24.7150  -31.0550   22.1080 N   0  0  0  0  0  0  0  0  0  0  0  0
  -23.5300  -32.0610   23.7710 O   0  0  0  0  0  0  0  0  0  0  0  0
  -22.7770  -29.4280   22.4180 C   0  0  0  0  0  0  0  0  0  0  0  0
  -21.4520  -29.2570   22.2790 N   0  0  0  0  0  0  0  0  0  0  0  0
  -23.4510  -28.7550   23.2010 O   0  0  0  0  0  0  0  0  0  0  0  0
  -20.9600  -29.8450   21.6200 H   0  0  0  0  0  0  0  0  0  0  0  0
  -18.0680  -28.0640   22.7670 C   0  0  0  0  0  0  0  0  0  0  0  0
  -20.6360  -28.2740   22.9960 C   0  0  0  0  0  3  0  0  0  0  0  0
  -20.7020  -26.8870   22.3110 C   0  0  0  0  0  2  0  0  0  0  0  0
  -19.5790  -26.6600   21.2960 C   0  0  0  0  0  2  0  0  0  0  0  0
  -18.2150  -26.7720   21.9810 C   0  0  0  0  0  2  0  0  0  0  0  0
  -19.2060  -28.7790   23.2300 C   0  0  0  0  0  0  0  0  0  0  0  0
  -19.0150  -29.9910   23.9270 C   0  0  0  0  0  3  0  0  0  0  0  0
  -17.7200  -30.4970   24.1540 C   0  0  0  0  0  3  0  0  0  0  0  0
  -16.5980  -29.7750   23.7100 C   0  0  0  0  0  3  0  0  0  0  0  0
  -16.7720  -28.5580   23.0270 C   0  0  0  0  0  3  0  0  0  0  0  0
  -25.8920  -32.4380   23.9090 C   0  0  0  0  0  3  0  0  0  0  0  0
  -25.5900  -33.8410   24.2320 N   0  0  0  0  0  0  0  0  0  0  0  0
  -25.9040  -34.8840   23.4550 C   0  0  0  0  0  0  0  0  0  0  0  0
  -26.5500  -34.7680   22.4080 O   0  0  0  0  0  0  0  0  0  0  0  0
  -25.0250  -34.0080   25.0520 H   0  0  0  0  0  0  0  0  0  0  0  0
  -24.1510  -36.6590   23.1410 C   0  0  0  0  0  1  0  0  0  0  0  0
  -25.4300  -36.2780   23.9070 C   0  0  0  0  0  3  0  0  0  0  0  0
  -27.5860  -37.1980   24.6430 C   0  0  0  0  0  1  0  0  0  0  0  0
  -26.4510  -37.3350   23.7320 N   0  0  0  0  0  0  0  0  0  0  0  0
  -26.0450  -38.2550   23.8750 H   0  0  0  0  0  0  0  0  0  0  0  0
  -26.3470  -31.6630   25.2060 C   0  0  1  0  0  0  0  0  0  0  0  0
  -25.2070  -31.4410   26.2280 C   0  0  0  0  0  1  0  0  0  0  0  0
  -26.9240  -30.2780   24.8380 C   0  0  0  0  0  1  0  0  0  0  0  0
  -27.4840  -32.4390   25.9150 C   0  0  0  0  0  1  0  0  0  0  0  0
  1  2  1  0
  3  1  2  0
  4  2  2  0
  4  7  1  0
  5  6  2  0
  5  3  1  0
  6  4  1  0
  8 20  1  0
  9 14  1  0
 10 11  1  0
 10  9  1  0
 12 11  1  0
 12 25  1  0
 12 13  1  0
 14  8  1  0
 14 13  1  0
 15  8  2  0
 17 20  1  0
 18 21  1  0
 18 16  1  0
 19 17  1  0
 19  3  1  0
 19 21  1  0
 20 16  1  0
 22 23  2  0
 23 42  1  0
 24 23  1  0
 24 27  1  0
 25 26  1  0
 25 22  1  0
 26 24  2  0
 27 28  1  0
 28 29  2  0
 30 33  1  0
 30 29  1  0
 31 30  2  0
 32 31  1  0
 32 27  2  0
 33 34  1  0
 34 39  2  0
 34 35  1  0
 35 36  2  0
 36 37  1  0
 37 41  1  0
 38 37  2  0
 39 38  1  0
 40 39  1  0
 42 43  1  0
 43 46  1  0
 43 45  1  0
 44 42  2  0
 47 48  1  0
 47 22  1  0
 49 47  1  0
 51 50  1  0
 51  5  1  0
 52 53  1  0
 52  6  1  0
 54 65  2  0
 55 53  1  0
 55 60  1  0
 56 64  1  0
 56 66  1  0
 57 63  1  0
 57 59  1  0
 58 64  1  0
 59 58  1  0
 60 59  2  0
 61 62  1  0
 61 55  2  0
 62 57  2  0
 63 56  1  0
 64 54  1  0
 66 68  2  0
 67 66  1  0
 69 67  1  0
 70 79  2  0
 70 75  1  0
 71 67  1  0
 71 75  1  0
 72 71  1  0
 73 74  1  0
 73 72  1  0
 74 70  1  0
 75 76  2  0
 76 77  1  0
 78 77  2  0
 79 78  1  0
 80 54  1  0
 80 81  1  0
 80 90  1  0
 81 84  1  0
 82 86  1  0
 82 81  1  0
 83 82  2  0
 86 85  1  0
 88 89  1  0
 88 86  1  0
 88 87  1  0
 90 93  1  1
 90 91  1  0
 92 90  1  0
M  ISO  4   8 100  20 100  52 101  53 101
M  END
>  <TORSDO>  (10) 
F 18

>  <SCORE>  (10) 
-14.664

>  <name>  (10) 
9

>  <ligand_id>  (10) 
9

>  <original_smiles>  (10) 
[H]c1c([H])c([H])c2c(c1[H])C([H])([H])C([H])([H])C([H])([H])C2([H])N([H])C(=O)C1([H])N(C(=O)C([H])(N([H])C(=O)C([H])(N([H])C([H])([H])[H])C([H])([H])[H])C(C([H])([H])[H])(C([H])([H])[H])C([H])([H])[H])C([H])([H])c2c([H])c(OC([H])([H])c3c(C([H])([H])[H])c([H])c([H])c(C4([H])OC([H])([H])C([H])([H])N(C(=O)N5C([H])([H])C([H])([H])C([H])([H])C([H])(n6nc(-c7c([H])c([H])c(Oc8c([H])c([H])c(F)c([H])c8F)c([H])c7[H])c(C(=O)N([H])[H])c6N([H])[H])C5([H])[H])C4([H])[H])c3C([H])([H])C([H])([H])[H])c([H])c([H])c2C1([H])[H]

>  <smiles>  (10) 
[H]c1c([H])c([H])c2c(c1[H])C([H])([H])C([H])([H])C([H])([H])C2([H])N([H])C(=O)C1([H])N(C(=O)C([H])(N([H])C(=O)C([H])(N([H])C([H])([H])[H])C([H])([H])[H])C(C([H])([H])[H])(C([H])([H])[H])C([H])([H])[H])C([H])([H])c2c([H])c(OC([H])([H])c3c(C([H])([H])[H])c([H])c([H])c(C4([H])OC([H])([H])C([H])([H])N(C(=O)N5C([H])([H])C([H])([H])C([H])([H])C([H])(n6nc(-c7c([H])c([H])c(Oc8c([H])c([H])c(F)c([H])c8F)c([H])c7[H])c(C(=O)N([H])[H])c6N([H])[H])C5([H])[H])C4([H])[H])c3C([H])([H])C([H])([H])[H])c([H])c([H])c2C1([H])[H]

$$$$
10:0:0
     RDKit          3D

 98108  0  0  1  0  0  0  0  0999 V2000
  -29.0090  -24.2200   21.4240 C   0  0  0  0  0  0  0  0  0  0  0  0
  -29.3710  -23.0350   22.1600 C   0  0  0  0  0  0  0  0  0  0  0  0
  -28.7910  -24.0900   20.0090 C   0  0  0  0  0  0  0  0  0  0  0  0
  -29.4430  -21.7380   21.5520 C   0  0  0  0  0  0  0  0  0  0  0  0
  -29.0990  -22.7840   19.3960 C   0  0  0  0  0  0  0  0  0  0  0  0
  -29.4270  -21.5770   20.1420 C   0  0  0  0  0  0  0  0  0  0  0  0
  -29.7730  -23.1630   23.6260 C   0  0  0  0  0  1  0  0  0  0  0  0
  -29.5380  -20.4600   22.4000 C   0  0  0  0  0  1  0  0  0  0  0  0
  -29.0940  -22.6380   17.8790 C   0  0  0  0  0  1  0  0  0  0  0  0
  -28.9290  -26.1820   23.4730 C   0  0  0  0  0  2  0  0  0  0  0  0
  -27.5780  -25.8920   22.8940 C   0  0  0  0  0  2  0  0  0  0  0  0
  -28.8270  -25.6240   22.0540 C   0  0  0  0  0  3  0  0  0  0  0  0
  -29.5730  -20.2070   19.6300 N   0  0  0  0  0  0  0  0  0  0  0  0
  -28.7640  -19.6510   19.8820 H   0  0  0  0  0  0  0  0  0  0  0  0
  -31.1910  -19.2970   18.0200 C   0  0  0  0  0  2  0  0  0  0  0  0
  -31.4280  -17.7920   18.0060 C   0  0  0  0  0  2  0  0  0  0  0  0
  -30.7650  -19.2700   19.5000 C   0  0  0  0  0  3  0  0  0  0  0  0
  -30.5900  -17.6370   19.2880 C   0  0  0  0  0  3  0  0  0  0  0  0
  -31.9020  -15.3910   19.9760 C   0  0  0  0  0  0  0  0  0  0  0  0
  -31.6730  -13.0040   19.2600 C   0  0  0  0  0  2  0  0  0  0  0  0
  -30.7510  -12.9100   18.0220 C   0  0  0  0  0  2  0  0  0  0  0  0
  -29.2760  -12.8230   18.4560 C   0  0  0  0  0  2  0  0  0  0  0  0
  -28.9060  -13.8620   19.5430 C   0  0  0  0  0  3  0  0  0  0  0  0
  -29.9510  -13.9250   20.6730 C   0  0  0  0  0  2  0  0  0  0  0  0
  -31.2440  -14.1870   20.0400 N   0  0  0  0  0  0  0  0  0  0  0  0
  -33.0910  -15.3970   19.6410 O   0  0  0  0  0  0  0  0  0  0  0  0
  -31.2370  -16.5950   20.2220 N   0  0  0  0  0  0  0  0  0  0  0  0
  -31.7850  -17.1060   20.8980 H   0  0  0  0  0  0  0  0  0  0  0  0
  -26.5940  -14.5960   20.3600 C   0  0  0  0  0  0  0  0  0  0  0  0
  -25.4790  -13.8980   20.7130 C   0  0  0  0  0  0  0  0  0  0  0  0
  -25.8320  -12.5170   20.6260 C   0  0  0  0  0  0  0  0  0  0  0  0
  -27.5590  -13.6520   20.0600 N   0  0  0  0  0  0  0  0  0  0  0  0
  -27.1100  -12.3860   20.2900 N   0  0  0  0  0  0  0  0  0  0  0  0
  -25.0070  -11.3150   20.7850 C   0  0  0  0  0  0  0  0  0  0  0  0
  -25.3170  -10.3280   21.7470 C   0  0  0  0  0  3  0  0  0  0  0  0
  -24.4970   -9.1870   21.8940 C   0  0  0  0  0  3  0  0  0  0  0  0
  -23.3510   -9.0250   21.0780 C   0  0  0  0  0  0  0  0  0  0  0  0
  -23.0610   -9.9970   20.1050 C   0  0  0  0  0  3  0  0  0  0  0  0
  -23.8830  -11.1270   19.9550 C   0  0  0  0  0  3  0  0  0  0  0  0
  -22.5100   -7.9390   21.1380 O   0  0  0  0  0  0  0  0  0  0  0  0
  -22.2290   -7.3150   22.3250 C   0  0  0  0  0  0  0  0  0  0  0  0
  -21.6310   -8.0010   23.4030 C   0  0  0  0  0  3  0  0  0  0  0  0
  -21.2790   -7.3030   24.5760 C   0  0  0  0  0  3  0  0  0  0  0  0
  -21.5200   -5.9200   24.6680 C   0  0  0  0  0  0  0  0  0  0  0  0
  -22.1120   -5.2330   23.5930 C   0  0  0  0  0  3  0  0  0  0  0  0
  -22.4620   -5.9290   22.4240 C   0  0  0  0  0  0  0  0  0  0  0  0
  -23.0090   -5.2580   21.3830 F   0  0  0  0  0  0  0  0  0  0  0  0
  -21.1800   -5.2450   25.7910 F   0  0  0  0  0  0  0  0  0  0  0  0
  -24.1300  -14.4750   21.0280 C   0  0  0  0  0  0  0  0  0  0  0  0
  -23.3830  -13.8370   21.9200 N   0  0  0  0  0  0  0  0  0  0  0  0
  -23.7530  -15.5350   20.5210 O   0  0  0  0  0  0  0  0  0  0  0  0
  -23.7080  -12.9880   22.3640 H   0  0  0  0  0  0  0  0  0  0  0  0
  -22.4770  -14.2070   22.1600 H   0  0  0  0  0  0  0  0  0  0  0  0
  -26.8550  -15.9640   20.2440 N   0  0  0  0  0  0  0  0  0  0  0  0
  -26.1440  -16.6610   20.4410 H   0  0  0  0  0  0  0  0  0  0  0  0
  -27.7460  -16.3720   20.0110 H   0  0  0  0  0  0  0  0  0  0  0  0
  -28.2240  -25.3250   19.1240 C   0  0  0  0  0  2  0  0  0  0  0  0
  -28.2580  -26.7900   19.4800 O   0  0  0  0  0  0  0  0  0  0  0  0
  -24.7130  -31.9030   23.1690 C   0  0  0  0  0  0  0  0  0  0  0  0
  -27.1310  -27.6380   19.5450 C   0  0  0  0  0  0  0  0  0  0  0  0
  -23.4110  -30.6390   21.5000 C   0  0  0  0  0  3  0  0  0  0  0  0
  -24.7630  -29.2440   19.8290 C   0  0  0  0  0  0  0  0  0  0  0  0
  -25.9340  -31.0010   21.1700 C   0  0  0  0  0  2  0  0  0  0  0  0
  -25.9700  -29.6850   20.3920 C   0  0  0  0  0  0  0  0  0  0  0  0
  -27.1510  -28.8950   20.2370 C   0  0  0  0  0  3  0  0  0  0  0  0
  -25.8970  -27.2610   18.9660 C   0  0  0  0  0  3  0  0  0  0  0  0
  -24.7350  -28.0400   19.1030 C   0  0  0  0  0  3  0  0  0  0  0  0
  -23.5310  -30.1020   20.0480 C   0  0  0  0  0  2  0  0  0  0  0  0
  -24.7080  -31.1970   21.9990 N   0  0  0  0  0  0  0  0  0  0  0  0
  -23.6670  -32.1150   23.8010 O   0  0  0  0  0  0  0  0  0  0  0  0
  -22.8450  -29.5190   22.4090 C   0  0  0  0  0  0  0  0  0  0  0  0
  -21.5330  -29.2560   22.2900 N   0  0  0  0  0  0  0  0  0  0  0  0
  -23.5790  -28.9040   23.1850 O   0  0  0  0  0  0  0  0  0  0  0  0
  -21.0050  -29.8160   21.6360 H   0  0  0  0  0  0  0  0  0  0  0  0
  -18.2780  -27.7150   22.6530 C   0  0  0  0  0  0  0  0  0  0  0  0
  -20.7870  -28.2230   23.0110 C   0  0  0  0  0  3  0  0  0  0  0  0
  -21.0500  -26.8250   22.4070 C   0  0  0  0  0  2  0  0  0  0  0  0
  -20.0130  -26.4170   21.3560 C   0  0  0  0  0  2  0  0  0  0  0  0
  -18.6070  -26.4080   21.9550 C   0  0  0  0  0  2  0  0  0  0  0  0
  -19.2980  -28.5810   23.1320 C   0  0  0  0  0  0  0  0  0  0  0  0
  -18.9270  -29.8020   23.7380 C   0  0  0  0  0  3  0  0  0  0  0  0
  -17.5720  -30.1580   23.8700 C   0  0  0  0  0  3  0  0  0  0  0  0
  -16.5710  -29.2930   23.3990 C   0  0  0  0  0  3  0  0  0  0  0  0
  -16.9230  -28.0740   22.7980 C   0  0  0  0  0  3  0  0  0  0  0  0
  -26.0330  -32.4980   23.7510 C   0  0  0  0  0  3  0  0  0  0  0  0
  -26.5920  -31.6780   24.9810 C   0  0  1  0  0  0  0  0  0  0  0  0
  -25.5350  -31.4000   26.0760 C   0  0  0  0  0  1  0  0  0  0  0  0
  -27.1570  -30.3160   24.5150 C   0  0  0  0  0  1  0  0  0  0  0  0
  -27.7700  -32.4470   25.6240 C   0  0  0  0  0  1  0  0  0  0  0  0
  -25.7530  -33.8880   24.1390 N   0  0  0  0  0  0  0  0  0  0  0  0
  -26.0870  -34.9630   23.4160 C   0  0  0  0  0  0  0  0  0  0  0  0
  -26.7340  -34.8880   22.3670 O   0  0  0  0  0  0  0  0  0  0  0  0
  -25.1830  -34.0170   24.9610 H   0  0  0  0  0  0  0  0  0  0  0  0
  -24.3890  -36.8010   23.1560 C   0  0  0  0  0  1  0  0  0  0  0  0
  -25.6350  -36.3430   23.9330 C   0  0  0  0  0  3  0  0  0  0  0  0
  -27.7970  -37.1500   24.7710 C   0  0  0  0  0  1  0  0  0  0  0  0
  -26.6870  -37.3790   23.8490 N   0  0  0  0  0  0  0  0  0  0  0  0
  -26.3020  -38.3020   24.0310 H   0  0  0  0  0  0  0  0  0  0  0  0
  1 12  1  0
  1  2  1  0
  2  7  1  0
  3  1  2  0
  4  2  2  0
  4  8  1  0
  5  3  1  0
  5  6  2  0
  6  4  1  0
  9  5  1  0
 11 10  1  0
 12 11  1  0
 12 10  1  0
 13 14  1  0
 13  6  1  0
 15 17  1  0
 16 15  1  0
 16 18  1  0
 17 13  1  0
 18 17  1  0
 18 27  1  0
 19 25  1  0
 19 27  1  0
 20 25  1  0
 21 22  1  0
 21 20  1  0
 23 22  1  0
 23 32  1  0
 23 24  1  0
 25 24  1  0
 26 19  2  0
 27 28  1  0
 29 30  2  0
 30 49  1  0
 31 30  1  0
 31 34  1  0
 32 33  1  0
 32 29  1  0
 33 31  2  0
 34 35  1  0
 35 36  2  0
 37 40  1  0
 37 36  1  0
 38 37  2  0
 39 38  1  0
 39 34  2  0
 40 41  1  0
 41 46  2  0
 41 42  1  0
 42 43  2  0
 43 44  1  0
 44 48  1  0
 45 44  2  0
 46 45  1  0
 47 46  1  0
 49 50  1  0
 50 53  1  0
 50 52  1  0
 51 49  2  0
 54 29  1  0
 54 55  1  0
 56 54  1  0
 57 58  1  0
 57  3  1  0
 58 60  1  0
 59 70  2  0
 60 65  1  0
 61 69  1  0
 61 71  1  0
 62 68  1  0
 62 64  1  0
 63 69  1  0
 64 63  1  0
 65 64  2  0
 66 67  1  0
 66 60  2  0
 67 62  2  0
 68 61  1  0
 69 59  1  0
 71 73  2  0
 72 71  1  0
 74 72  1  0
 75 84  2  0
 75 80  1  0
 76 72  1  0
 76 80  1  0
 77 76  1  0
 78 79  1  0
 78 77  1  0
 79 75  1  0
 80 81  2  0
 81 82  1  0
 83 82  2  0
 84 83  1  0
 85 59  1  0
 85 90  1  0
 85 86  1  0
 86 89  1  1
 86 87  1  0
 88 86  1  0
 90 93  1  0
 91 95  1  0
 91 90  1  0
 92 91  2  0
 95 94  1  0
 97 95  1  0
 97 98  1  0
 97 96  1  0
M  ISO  4  19 100  27 100  57 101  58 101
M  END
>  <TORSDO>  (11) 
F 20

>  <SCORE>  (11) 
-11.305

>  <name>  (11) 
10

>  <ligand_id>  (11) 
10

>  <original_smiles>  (11) 
[H]c1c([H])c([H])c2c(c1[H])C([H])([H])C([H])([H])C([H])([H])C2([H])N([H])C(=O)C1([H])N(C(=O)C([H])(N([H])C(=O)C([H])(N([H])C([H])([H])[H])C([H])([H])[H])C(C([H])([H])[H])(C([H])([H])[H])C([H])([H])[H])C([H])([H])c2c([H])c(OC([H])([H])c3c(C([H])([H])[H])c(N([H])C4([H])C([H])([H])C([H])([H])C4([H])N([H])C(=O)N4C([H])([H])C([H])([H])C([H])([H])C([H])(n5nc(-c6c([H])c([H])c(Oc7c([H])c([H])c(F)c([H])c7F)c([H])c6[H])c(C(=O)N([H])[H])c5N([H])[H])C4([H])[H])c(C([H])([H])[H])c(C([H])([H])[H])c3C3([H])C([H])([H])C3([H])[H])c([H])c([H])c2C1([H])[H]

>  <smiles>  (11) 
[H]c1c([H])c([H])c2c(c1[H])C([H])([H])C([H])([H])C([H])([H])C2([H])N([H])C(=O)C1([H])N(C(=O)C([H])(N([H])C(=O)C([H])(N([H])C([H])([H])[H])C([H])([H])[H])C(C([H])([H])[H])(C([H])([H])[H])C([H])([H])[H])C([H])([H])c2c([H])c(OC([H])([H])c3c(C([H])([H])[H])c(N([H])C4([H])C([H])([H])C([H])([H])C4([H])N([H])C(=O)N4C([H])([H])C([H])([H])C([H])([H])C([H])(n5nc(-c6c([H])c([H])c(Oc7c([H])c([H])c(F)c([H])c7F)c([H])c6[H])c(C(=O)N([H])[H])c5N([H])[H])C4([H])[H])c(C([H])([H])[H])c(C([H])([H])[H])c3C3([H])C([H])([H])C3([H])[H])c([H])c([H])c2C1([H])[H]

$$$$
11:0:0
     RDKit          3D

 97106  0  0  1  0  0  0  0  0999 V2000
  -29.8140  -20.8970   20.6540 C   0  0  0  0  0  0  0  0  0  0  0  0
  -29.4330  -21.5600   19.4400 C   0  0  0  0  0  0  0  0  0  0  0  0
  -30.1050  -21.7990   21.7340 C   0  0  0  0  0  0  0  0  0  0  0  0
  -29.6880  -23.1840   21.7260 C   0  0  0  0  0  0  0  0  0  0  0  0
  -29.0750  -23.7920   20.5830 C   0  0  0  0  0  0  0  0  0  0  0  0
  -29.0820  -22.9780   19.3910 C   0  0  0  0  0  0  0  0  0  0  0  0
  -29.4180  -20.7150   18.1660 C   0  0  0  0  0  1  0  0  0  0  0  0
  -29.8190  -24.0130   23.0070 C   0  0  0  0  0  1  0  0  0  0  0  0
  -30.9600  -14.9270   20.3520 C   0  0  0  0  0  0  0  0  0  0  0  0
  -30.6780  -12.6470   19.3730 C   0  0  0  0  0  2  0  0  0  0  0  0
  -29.7270  -12.6730   18.1620 C   0  0  0  0  0  2  0  0  0  0  0  0
  -28.2730  -12.4700   18.6200 C   0  0  0  0  0  2  0  0  0  0  0  0
  -27.9010  -13.3720   19.8210 C   0  0  0  0  0  3  0  0  0  0  0  0
  -28.9830  -13.3820   20.9230 C   0  0  0  0  0  2  0  0  0  0  0  0
  -30.2620  -13.7360   20.2900 N   0  0  0  0  0  0  0  0  0  0  0  0
  -32.1430  -14.9250   19.9990 O   0  0  0  0  0  0  0  0  0  0  0  0
  -29.0400  -18.3130   19.9920 C   0  0  0  0  0  2  0  0  0  0  0  0
  -31.2990  -18.6000   20.8970 C   0  0  0  0  0  2  0  0  0  0  0  0
  -29.0990  -16.7500   20.3290 C   0  0  0  0  0  2  0  0  0  0  0  0
  -31.2350  -17.1440   21.4940 C   0  0  0  0  0  2  0  0  0  0  0  0
  -29.9100  -19.2880   20.8590 C   0  0  0  0  0  3  0  0  0  0  0  0
  -30.3960  -16.1380   20.7720 N   0  0  0  0  0  0  0  0  0  0  0  0
  -25.5510  -13.9320   20.6540 C   0  0  0  0  0  0  0  0  0  0  0  0
  -24.4950  -13.1410   21.0150 C   0  0  0  0  0  0  0  0  0  0  0  0
  -24.9540  -11.7930   20.9040 C   0  0  0  0  0  0  0  0  0  0  0  0
  -26.5830  -13.0600   20.3480 N   0  0  0  0  0  0  0  0  0  0  0  0
  -26.2350  -11.7680   20.5640 N   0  0  0  0  0  0  0  0  0  0  0  0
  -24.2300  -10.5270   21.0470 C   0  0  0  0  0  0  0  0  0  0  0  0
  -24.6510   -9.5350   21.9590 C   0  0  0  0  0  3  0  0  0  0  0  0
  -23.9220   -8.3350   22.0950 C   0  0  0  0  0  3  0  0  0  0  0  0
  -22.7570   -8.1170   21.3230 C   0  0  0  0  0  0  0  0  0  0  0  0
  -22.3570   -9.1010   20.3980 C   0  0  0  0  0  3  0  0  0  0  0  0
  -23.0860  -10.2920   20.2600 C   0  0  0  0  0  3  0  0  0  0  0  0
  -22.0000   -6.9710   21.3690 O   0  0  0  0  0  0  0  0  0  0  0  0
  -21.8800   -6.2370   22.5240 C   0  0  0  0  0  0  0  0  0  0  0  0
  -21.3430   -6.7900   23.7050 C   0  0  0  0  0  3  0  0  0  0  0  0
  -21.1660   -5.9800   24.8450 C   0  0  0  0  0  3  0  0  0  0  0  0
  -21.5190   -4.6180   24.8030 C   0  0  0  0  0  0  0  0  0  0  0  0
  -22.0460   -4.0640   23.6250 C   0  0  0  0  0  3  0  0  0  0  0  0
  -22.2230   -4.8720   22.4870 C   0  0  0  0  0  0  0  0  0  0  0  0
  -22.7090   -4.3280   21.3460 F   0  0  0  0  0  0  0  0  0  0  0  0
  -21.3470   -3.8380   25.8950 F   0  0  0  0  0  0  0  0  0  0  0  0
  -23.1070  -13.6080   21.3430 C   0  0  0  0  0  0  0  0  0  0  0  0
  -22.4090  -12.8780   22.2070 N   0  0  0  0  0  0  0  0  0  0  0  0
  -22.6570  -14.6550   20.8820 O   0  0  0  0  0  0  0  0  0  0  0  0
  -22.7940  -12.0320   22.5980 H   0  0  0  0  0  0  0  0  0  0  0  0
  -21.4820  -13.1710   22.4790 H   0  0  0  0  0  0  0  0  0  0  0  0
  -25.7060  -15.3090   20.5370 N   0  0  0  0  0  0  0  0  0  0  0  0
  -24.9410  -15.9580   20.6980 H   0  0  0  0  0  0  0  0  0  0  0  0
  -26.5530  -15.7670   20.2310 H   0  0  0  0  0  0  0  0  0  0  0  0
  -29.4910  -24.9010   17.7150 C   0  0  0  0  0  1  0  0  0  0  0  0
  -27.1920  -23.7390   17.7980 C   0  0  0  0  0  1  0  0  0  0  0  0
  -28.7080  -23.6140   18.0310 C   0  0  0  0  0  3  0  0  0  0  0  0
  -30.0620  -21.0080   24.1720 C   0  0  0  0  0  1  0  0  0  0  0  0
  -30.9130  -21.2670   22.9230 C   0  0  0  0  0  2  0  0  0  0  0  0
  -28.1570  -25.1040   20.7510 C   0  0  0  0  0  2  0  0  0  0  0  0
  -28.5330  -26.5450   20.5230 O   0  0  0  0  0  0  0  0  0  0  0  0
  -24.7490  -32.0010   23.4530 C   0  0  0  0  0  0  0  0  0  0  0  0
  -27.4500  -27.4600   20.4100 C   0  0  0  0  0  0  0  0  0  0  0  0
  -23.5870  -30.6180   21.7730 C   0  0  0  0  0  3  0  0  0  0  0  0
  -25.0800  -29.1000   20.3590 C   0  0  0  0  0  0  0  0  0  0  0  0
  -26.1360  -30.9470   21.6510 C   0  0  0  0  0  2  0  0  0  0  0  0
  -26.2400  -29.5760   20.9850 C   0  0  0  0  0  0  0  0  0  0  0  0
  -27.4280  -28.7730   20.9950 C   0  0  0  0  0  3  0  0  0  0  0  0
  -26.2690  -27.0690   19.7330 C   0  0  0  0  0  3  0  0  0  0  0  0
  -25.1020  -27.8540   19.7230 C   0  0  0  0  0  3  0  0  0  0  0  0
  -23.8350  -29.9630   20.3930 C   0  0  0  0  0  2  0  0  0  0  0  0
  -24.8420  -31.2040   22.3480 N   0  0  0  0  0  0  0  0  0  0  0  0
  -23.6540  -32.2660   23.9680 O   0  0  0  0  0  0  0  0  0  0  0  0
  -22.9080  -29.5880   22.7090 C   0  0  0  0  0  0  0  0  0  0  0  0
  -21.5980  -29.3600   22.5100 N   0  0  0  0  0  0  0  0  0  0  0  0
  -23.5630  -28.9960   23.5700 O   0  0  0  0  0  0  0  0  0  0  0  0
  -21.1300  -29.8890   21.7880 H   0  0  0  0  0  0  0  0  0  0  0  0
  -18.2500  -28.0150   22.8190 C   0  0  0  0  0  0  0  0  0  0  0  0
  -20.7720  -28.4000   23.2470 C   0  0  0  0  0  3  0  0  0  0  0  0
  -20.9760  -26.9640   22.7120 C   0  0  0  0  0  2  0  0  0  0  0  0
  -19.9570  -26.5700   21.6360 C   0  0  0  0  0  2  0  0  0  0  0  0
  -18.5300  -26.6630   22.1870 C   0  0  0  0  0  2  0  0  0  0  0  0
  -19.3020  -28.8380   23.3010 C   0  0  0  0  0  0  0  0  0  0  0  0
  -18.9880  -30.1000   23.8500 C   0  0  0  0  0  3  0  0  0  0  0  0
  -17.6530  -30.5420   23.9210 C   0  0  0  0  0  3  0  0  0  0  0  0
  -16.6140  -29.7190   23.4530 C   0  0  0  0  0  3  0  0  0  0  0  0
  -16.9130  -28.4560   22.9110 C   0  0  0  0  0  3  0  0  0  0  0  0
  -26.0130  -32.6340   24.1110 C   0  0  0  0  0  3  0  0  0  0  0  0
  -26.4970  -31.8590   25.3980 C   0  0  1  0  0  0  0  0  0  0  0  0
  -25.3710  -31.5920   26.4250 C   0  0  0  0  0  1  0  0  0  0  0  0
  -27.1170  -30.4930   25.0200 C   0  0  0  0  0  1  0  0  0  0  0  0
  -27.6120  -32.6660   26.1030 C   0  0  0  0  0  1  0  0  0  0  0  0
  -25.6920  -34.0290   24.4390 N   0  0  0  0  0  0  0  0  0  0  0  0
  -25.9930  -35.0820   23.6640 C   0  0  0  0  0  0  0  0  0  0  0  0
  -26.6380  -34.9790   22.6180 O   0  0  0  0  0  0  0  0  0  0  0  0
  -25.1120  -34.1830   25.2500 H   0  0  0  0  0  0  0  0  0  0  0  0
  -24.2100  -36.8320   23.3720 C   0  0  0  0  0  1  0  0  0  0  0  0
  -25.5000  -36.4670   24.1240 C   0  0  0  0  0  3  0  0  0  0  0  0
  -27.6480  -37.4150   24.8390 C   0  0  0  0  0  1  0  0  0  0  0  0
  -26.5020  -37.5410   23.9430 N   0  0  0  0  0  0  0  0  0  0  0  0
  -26.0810  -38.4540   24.0930 H   0  0  0  0  0  0  0  0  0  0  0  0
  1  3  1  0
  2  1  2  0
  3 55  1  0
  4  3  2  0
  4  8  1  0
  5 56  1  0
  5  4  1  0
  6  2  1  0
  6  5  2  0
  7  2  1  0
  9 22  1  0
 10 15  1  0
 11 12  1  0
 11 10  1  0
 13 12  1  0
 13 26  1  0
 13 14  1  0
 15  9  1  0
 15 14  1  0
 16  9  2  0
 17 19  1  0
 17 21  1  0
 18 20  1  0
 19 22  1  0
 21  1  1  0
 21 18  1  0
 22 20  1  0
 23 24  2  0
 24 43  1  0
 25 24  1  0
 25 28  1  0
 26 27  1  0
 26 23  1  0
 27 25  2  0
 28 29  1  0
 29 30  2  0
 31 34  1  0
 31 30  1  0
 32 31  2  0
 33 32  1  0
 33 28  2  0
 34 35  1  0
 35 36  1  0
 36 37  2  0
 38 37  1  0
 38 42  1  0
 39 38  2  0
 40 35  2  0
 40 39  1  0
 41 40  1  0
 43 44  1  0
 44 47  1  0
 44 46  1  0
 45 43  2  0
 48 23  1  0
 48 49  1  0
 50 48  1  0
 51 53  1  0
 52 53  1  0
 53  6  1  0
 55 54  1  0
 57 56  1  0
 58 69  2  0
 59 57  1  0
 59 64  1  0
 60 68  1  0
 60 70  1  0
 61 67  1  0
 61 63  1  0
 62 68  1  0
 63 64  2  0
 63 62  1  0
 65 59  2  0
 66 65  1  0
 66 61  2  0
 67 60  1  0
 68 58  1  0
 70 72  2  0
 71 70  1  0
 73 71  1  0
 74 83  2  0
 74 79  1  0
 75 71  1  0
 75 79  1  0
 76 75  1  0
 77 78  1  0
 77 76  1  0
 78 74  1  0
 79 80  2  0
 80 81  1  0
 82 81  2  0
 83 82  1  0
 84 58  1  0
 84 89  1  0
 84 85  1  0
 85 88  1  1
 85 86  1  0
 87 85  1  0
 89 92  1  0
 90 94  1  0
 90 89  1  0
 91 90  2  0
 94 93  1  0
 96 97  1  0
 96 94  1  0
 96 95  1  0
M  ISO  4   9 100  22 100  56 101  57 101
M  END
>  <TORSDO>  (12) 
F 19

>  <SCORE>  (12) 
-14.313

>  <name>  (12) 
11

>  <ligand_id>  (12) 
11

>  <original_smiles>  (12) 
[H]c1c([H])c([H])c2c(c1[H])C([H])([H])C([H])([H])C([H])([H])C2([H])N([H])C(=O)C1([H])N(C(=O)C([H])(N([H])C(=O)C([H])(N([H])C([H])([H])[H])C([H])([H])[H])C(C([H])([H])[H])(C([H])([H])[H])C([H])([H])[H])C([H])([H])c2c([H])c(OC([H])([H])c3c(C([H])([H])[H])c(C([H])([H])C([H])([H])[H])c(C4([H])C([H])([H])C([H])([H])N(C(=O)N5C([H])([H])C([H])([H])C([H])([H])C([H])(n6nc(-c7c([H])c([H])c(Oc8c([H])c([H])c(F)c([H])c8F)c([H])c7[H])c(C(=O)N([H])[H])c6N([H])[H])C5([H])[H])C([H])([H])C4([H])[H])c(C([H])([H])[H])c3C([H])(C([H])([H])[H])C([H])([H])[H])c([H])c([H])c2C1([H])[H]

>  <smiles>  (12) 
[H]c1c([H])c([H])c2c(c1[H])C([H])([H])C([H])([H])C([H])([H])C2([H])N([H])C(=O)C1([H])N(C(=O)C([H])(N([H])C(=O)C([H])(N([H])C([H])([H])[H])C([H])([H])[H])C(C([H])([H])[H])(C([H])([H])[H])C([H])([H])[H])C([H])([H])c2c([H])c(OC([H])([H])c3c(C([H])([H])[H])c(C([H])([H])C([H])([H])[H])c(C4([H])C([H])([H])C([H])([H])N(C(=O)N5C([H])([H])C([H])([H])C([H])([H])C([H])(n6nc(-c7c([H])c([H])c(Oc8c([H])c([H])c(F)c([H])c8F)c([H])c7[H])c(C(=O)N([H])[H])c6N([H])[H])C5([H])[H])C([H])([H])C4([H])[H])c(C([H])([H])[H])c3C([H])(C([H])([H])[H])C([H])([H])[H])c([H])c([H])c2C1([H])[H]

$$$$
12:0:0
     RDKit          3D

 96105  0  0  1  0  0  0  0  0999 V2000
  -28.0640  -23.0180   19.0310 C   0  0  0  0  0  3  0  0  0  0  0  0
  -28.7630  -24.0190   19.7450 C   0  0  0  0  0  0  0  0  0  0  0  0
  -28.3760  -21.6350   19.1340 C   0  0  0  0  0  0  0  0  0  0  0  0
  -29.7500  -23.5690   20.6740 C   0  0  0  0  0  0  0  0  0  0  0  0
  -30.0950  -22.1740   20.7650 C   0  0  0  0  0  0  0  0  0  0  0  0
  -29.4300  -21.1880   19.9760 C   0  0  0  0  0  0  0  0  0  0  0  0
  -30.5030  -24.5930   21.5160 C   0  0  0  0  0  1  0  0  0  0  0  0
  -31.2670  -21.7160   21.6260 C   0  0  0  0  0  1  0  0  0  0  0  0
  -28.0790  -20.7340   16.7850 C   0  0  0  0  0  1  0  0  0  0  0  0
  -26.0970  -20.8130   18.3770 C   0  0  0  0  0  1  0  0  0  0  0  0
  -27.6190  -20.6460   18.2490 C   0  0  0  0  0  3  0  0  0  0  0  0
  -28.5930  -25.5040   19.2660 C   0  0  0  0  0  2  0  0  0  0  0  0
  -28.3300  -26.5870   20.2060 O   0  0  0  0  0  0  0  0  0  0  0  0
  -24.5160  -31.8650   23.1870 C   0  0  0  0  0  0  0  0  0  0  0  0
  -27.1720  -27.3600   20.1280 C   0  0  0  0  0  0  0  0  0  0  0  0
  -23.3230  -30.4650   21.5370 C   0  0  0  0  0  3  0  0  0  0  0  0
  -24.7850  -28.9210   20.1170 C   0  0  0  0  0  0  0  0  0  0  0  0
  -25.8570  -30.8030   21.3640 C   0  0  0  0  0  2  0  0  0  0  0  0
  -25.9430  -29.4270   20.7190 C   0  0  0  0  0  0  0  0  0  0  0  0
  -27.1340  -28.6530   20.7240 C   0  0  0  0  0  3  0  0  0  0  0  0
  -25.9860  -26.8810   19.5270 C   0  0  0  0  0  3  0  0  0  0  0  0
  -24.8050  -27.6500   19.5170 C   0  0  0  0  0  3  0  0  0  0  0  0
  -23.5440  -29.7880   20.1570 C   0  0  0  0  0  2  0  0  0  0  0  0
  -24.5830  -31.0610   22.0870 N   0  0  0  0  0  0  0  0  0  0  0  0
  -23.4310  -32.1390   23.7170 O   0  0  0  0  0  0  0  0  0  0  0  0
  -22.6600  -29.4450   22.4930 C   0  0  0  0  0  0  0  0  0  0  0  0
  -21.3340  -29.2740   22.3640 N   0  0  0  0  0  0  0  0  0  0  0  0
  -23.3380  -28.8130   23.3070 O   0  0  0  0  0  0  0  0  0  0  0  0
  -20.8480  -29.8350   21.6790 H   0  0  0  0  0  0  0  0  0  0  0  0
  -17.9490  -28.1150   22.8750 C   0  0  0  0  0  0  0  0  0  0  0  0
  -20.5110  -28.3380   23.1310 C   0  0  0  0  0  3  0  0  0  0  0  0
  -20.5920  -26.9130   22.5400 C   0  0  0  0  0  2  0  0  0  0  0  0
  -19.4790  -26.6150   21.5290 C   0  0  0  0  0  2  0  0  0  0  0  0
  -18.1030  -26.7710   22.1830 C   0  0  0  0  0  2  0  0  0  0  0  0
  -19.0790  -28.8580   23.3060 C   0  0  0  0  0  0  0  0  0  0  0  0
  -18.8810  -30.1170   23.9130 C   0  0  0  0  0  3  0  0  0  0  0  0
  -17.5840  -30.6330   24.0930 C   0  0  0  0  0  3  0  0  0  0  0  0
  -16.4670  -29.8870   23.6770 C   0  0  0  0  0  3  0  0  0  0  0  0
  -16.6510  -28.6300   23.0750 C   0  0  0  0  0  3  0  0  0  0  0  0
  -25.7980  -32.4970   23.8150 C   0  0  0  0  0  3  0  0  0  0  0  0
  -26.3080  -31.7250   25.0940 C   0  0  1  0  0  0  0  0  0  0  0  0
  -25.2090  -31.4850   26.1560 C   0  0  0  0  0  1  0  0  0  0  0  0
  -26.8940  -30.3480   24.7040 C   0  0  0  0  0  1  0  0  0  0  0  0
  -27.4540  -32.5200   25.7640 C   0  0  0  0  0  1  0  0  0  0  0  0
  -25.4870  -33.8950   24.1440 N   0  0  0  0  0  0  0  0  0  0  0  0
  -25.8360  -34.9490   23.3950 C   0  0  0  0  0  0  0  0  0  0  0  0
  -26.5250  -34.8470   22.3760 O   0  0  0  0  0  0  0  0  0  0  0  0
  -24.8760  -34.0480   24.9340 H   0  0  0  0  0  0  0  0  0  0  0  0
  -24.1330  -36.7570   23.0000 C   0  0  0  0  0  1  0  0  0  0  0  0
  -25.3440  -36.3370   23.8480 C   0  0  0  0  0  3  0  0  0  0  0  0
  -27.4540  -37.2020   24.7590 C   0  0  0  0  0  1  0  0  0  0  0  0
  -26.3870  -37.3840   23.7790 N   0  0  0  0  0  0  0  0  0  0  0  0
  -25.9810  -38.3060   23.9200 H   0  0  0  0  0  0  0  0  0  0  0  0
  -29.9260  -19.8870   19.7930 O   0  0  0  0  0  0  0  0  0  0  0  0
  -30.7800  -14.6430   20.4310 C   0  0  0  0  0  0  0  0  0  0  0  0
  -30.4400  -12.4520   19.2980 C   0  0  0  0  0  2  0  0  0  0  0  0
  -29.5120  -12.5880   18.0750 C   0  0  0  0  0  2  0  0  0  0  0  0
  -28.0430  -12.4150   18.5000 C   0  0  0  0  0  2  0  0  0  0  0  0
  -27.6850  -13.2880   19.7270 C   0  0  0  0  0  3  0  0  0  0  0  0
  -28.7370  -13.1490   20.8570 C   0  0  0  0  0  2  0  0  0  0  0  0
  -30.0480  -13.4860   20.2890 N   0  0  0  0  0  0  0  0  0  0  0  0
  -31.9260  -14.6840   19.9710 O   0  0  0  0  0  0  0  0  0  0  0  0
  -28.8540  -17.7310   20.3330 C   0  0  0  0  0  2  0  0  0  0  0  0
  -31.2440  -18.1100   20.8670 C   0  0  0  0  0  2  0  0  0  0  0  0
  -28.9460  -16.3740   21.1100 C   0  0  0  0  0  2  0  0  0  0  0  0
  -31.2240  -16.7690   21.6640 C   0  0  0  0  0  2  0  0  0  0  0  0
  -29.8670  -18.8210   20.7810 C   0  0  0  0  0  3  0  0  0  0  0  0
  -30.2980  -15.7620   21.0910 N   0  0  0  0  0  0  0  0  0  0  0  0
  -25.2960  -13.9160   20.4330 C   0  0  0  0  0  0  0  0  0  0  0  0
  -24.2230  -13.1530   20.8060 C   0  0  0  0  0  0  0  0  0  0  0  0
  -24.6800  -11.7990   20.7900 C   0  0  0  0  0  0  0  0  0  0  0  0
  -26.3350  -13.0270   20.2110 N   0  0  0  0  0  0  0  0  0  0  0  0
  -25.9700  -11.7500   20.4900 N   0  0  0  0  0  0  0  0  0  0  0  0
  -23.9470  -10.5420   20.9830 C   0  0  0  0  0  0  0  0  0  0  0  0
  -24.3560   -9.5880   21.9400 C   0  0  0  0  0  3  0  0  0  0  0  0
  -23.6240   -8.3950   22.1200 C   0  0  0  0  0  3  0  0  0  0  0  0
  -22.4680   -8.1490   21.3400 C   0  0  0  0  0  0  0  0  0  0  0  0
  -22.0790   -9.0910   20.3720 C   0  0  0  0  0  3  0  0  0  0  0  0
  -22.8130  -10.2750   20.1910 C   0  0  0  0  0  3  0  0  0  0  0  0
  -21.7090   -7.0070   21.4280 O   0  0  0  0  0  0  0  0  0  0  0  0
  -21.6210   -6.2900   22.5940 C   0  0  0  0  0  0  0  0  0  0  0  0
  -21.1360   -6.8660   23.7880 C   0  0  0  0  0  3  0  0  0  0  0  0
  -20.9960   -6.0730   24.9450 C   0  0  0  0  0  3  0  0  0  0  0  0
  -21.3320   -4.7070   24.9090 C   0  0  0  0  0  0  0  0  0  0  0  0
  -21.8110   -4.1300   23.7190 C   0  0  0  0  0  3  0  0  0  0  0  0
  -21.9520   -4.9200   22.5630 C   0  0  0  0  0  0  0  0  0  0  0  0
  -22.3940   -4.3550   21.4140 F   0  0  0  0  0  0  0  0  0  0  0  0
  -21.1900   -3.9440   26.0170 F   0  0  0  0  0  0  0  0  0  0  0  0
  -22.8280  -13.6390   21.0620 C   0  0  0  0  0  0  0  0  0  0  0  0
  -22.0890  -12.9510   21.9260 N   0  0  0  0  0  0  0  0  0  0  0  0
  -22.3990  -14.6640   20.5330 O   0  0  0  0  0  0  0  0  0  0  0  0
  -22.4480  -12.1230   22.3770 H   0  0  0  0  0  0  0  0  0  0  0  0
  -21.1500  -13.2580   22.1400 H   0  0  0  0  0  0  0  0  0  0  0  0
  -25.4630  -15.2840   20.2410 N   0  0  0  0  0  0  0  0  0  0  0  0
  -24.6930  -15.9370   20.3370 H   0  0  0  0  0  0  0  0  0  0  0  0
  -26.3050  -15.7160   19.8860 H   0  0  0  0  0  0  0  0  0  0  0  0
  1  3  2  0
  1  2  1  0
  2  4  2  0
  3  6  1  0
  4  5  1  0
  4  7  1  0
  5  8  1  0
  6  5  2  0
  9 11  1  0
 11 10  1  0
 11  3  1  0
 12  2  1  0
 12 13  1  0
 14 25  2  0
 15 13  1  0
 15 20  1  0
 16 24  1  0
 16 26  1  0
 17 23  1  0
 17 19  1  0
 18 24  1  0
 19 20  2  0
 19 18  1  0
 21 15  2  0
 22 21  1  0
 22 17  2  0
 23 16  1  0
 24 14  1  0
 26 28  2  0
 27 26  1  0
 29 27  1  0
 30 39  2  0
 30 35  1  0
 31 27  1  0
 31 35  1  0
 32 31  1  0
 33 34  1  0
 33 32  1  0
 34 30  1  0
 35 36  2  0
 36 37  1  0
 38 37  2  0
 39 38  1  0
 40 14  1  0
 40 45  1  0
 40 41  1  0
 41 44  1  1
 41 42  1  0
 43 41  1  0
 45 48  1  0
 46 50  1  0
 46 45  1  0
 47 46  2  0
 50 49  1  0
 52 50  1  0
 52 53  1  0
 52 51  1  0
 54  6  1  0
 55 68  1  0
 56 61  1  0
 57 58  1  0
 57 56  1  0
 59 58  1  0
 59 72  1  0
 59 60  1  0
 61 55  1  0
 61 60  1  0
 62 55  2  0
 63 67  1  0
 63 65  1  0
 64 66  1  0
 67 54  1  0
 67 64  1  0
 68 65  1  0
 68 66  1  0
 69 70  2  0
 70 89  1  0
 71 70  1  0
 71 74  1  0
 72 69  1  0
 72 73  1  0
 73 71  2  0
 74 75  1  0
 75 76  2  0
 77 80  1  0
 77 76  1  0
 78 77  2  0
 79 78  1  0
 79 74  2  0
 80 81  1  0
 81 82  1  0
 82 83  2  0
 84 83  1  0
 84 88  1  0
 85 84  2  0
 86 81  2  0
 86 85  1  0
 87 86  1  0
 89 90  1  0
 90 93  1  0
 90 92  1  0
 91 89  2  0
 94 95  1  0
 94 69  1  0
 96 94  1  0
M  ISO  4  12 101  13 101  55 100  68 100
M  END
>  <TORSDO>  (13) 
F 19

>  <SCORE>  (13) 
-14.507

>  <name>  (13) 
12

>  <ligand_id>  (13) 
12

>  <original_smiles>  (13) 
[H]c1c([H])c([H])c2c(c1[H])C([H])([H])C([H])([H])C([H])([H])C2([H])N([H])C(=O)C1([H])N(C(=O)C([H])(N([H])C(=O)C([H])(N([H])C([H])([H])[H])C([H])([H])[H])C(C([H])([H])[H])(C([H])([H])[H])C([H])([H])[H])C([H])([H])c2c([H])c(OC([H])([H])c3c([H])c(C([H])(C([H])([H])[H])C([H])([H])[H])c(OC4([H])C([H])([H])C([H])([H])N(C(=O)N5C([H])([H])C([H])([H])C([H])([H])C([H])(n6nc(-c7c([H])c([H])c(Oc8c([H])c([H])c(F)c([H])c8F)c([H])c7[H])c(C(=O)N([H])[H])c6N([H])[H])C5([H])[H])C([H])([H])C4([H])[H])c(C([H])([H])[H])c3C([H])([H])[H])c([H])c([H])c2C1([H])[H]

>  <smiles>  (13) 
[H]c1c([H])c([H])c2c(c1[H])C([H])([H])C([H])([H])C([H])([H])C2([H])N([H])C(=O)C1([H])N(C(=O)C([H])(N([H])C(=O)C([H])(N([H])C([H])([H])[H])C([H])([H])[H])C(C([H])([H])[H])(C([H])([H])[H])C([H])([H])[H])C([H])([H])c2c([H])c(OC([H])([H])c3c([H])c(C([H])(C([H])([H])[H])C([H])([H])[H])c(OC4([H])C([H])([H])C([H])([H])N(C(=O)N5C([H])([H])C([H])([H])C([H])([H])C([H])(n6nc(-c7c([H])c([H])c(Oc8c([H])c([H])c(F)c([H])c8F)c([H])c7[H])c(C(=O)N([H])[H])c6N([H])[H])C5([H])[H])C([H])([H])C4([H])[H])c(C([H])([H])[H])c3C([H])([H])[H])c([H])c([H])c2C1([H])[H]

$$$$
13:0:0
     RDKit          3D

103112  0  0  1  0  0  0  0  0999 V2000
  -30.9290  -21.8540   24.5910 C   0  0  0  0  0  2  0  0  0  0  0  0
  -28.9400  -23.0580   23.7840 C   0  0  0  0  0  2  0  0  0  0  0  0
  -30.9830  -21.9120   23.0420 C   0  0  0  0  0  3  0  0  0  0  0  0
  -29.7800  -22.7680   25.0380 C   0  0  0  0  0  3  0  0  0  0  0  0
  -29.8900  -22.9240   22.5670 C   0  0  0  0  0  3  0  0  0  0  0  0
  -31.5220  -19.2570   20.2700 C   0  0  0  0  0  3  0  0  0  0  0  0
  -31.4280  -18.0710   22.3670 C   0  0  0  0  0  3  0  0  0  0  0  0
  -31.0400  -20.5140   22.3430 C   0  0  0  0  0  0  0  0  0  0  0  0
  -31.7140  -18.0690   20.9950 C   0  0  0  0  0  0  0  0  0  0  0  0
  -31.1770  -20.4630   20.9210 C   0  0  0  0  0  0  0  0  0  0  0  0
  -31.0730  -19.2600   23.0410 C   0  0  0  0  0  0  0  0  0  0  0  0
  -31.0010  -21.6880   20.0350 C   0  0  0  0  0  1  0  0  0  0  0  0
  -30.7710  -19.0780   24.5180 C   0  0  0  0  0  1  0  0  0  0  0  0
  -32.3220  -16.8410   20.3290 C   0  0  0  0  0  2  0  0  0  0  0  0
  -31.6710  -14.7390   19.1970 C   0  0  0  0  0  0  0  0  0  0  0  0
  -31.1550  -12.4340   18.4850 C   0  0  0  0  0  2  0  0  0  0  0  0
  -30.1340  -12.4080   17.3320 C   0  0  0  0  0  2  0  0  0  0  0  0
  -28.6940  -12.4190   17.8810 C   0  0  0  0  0  2  0  0  0  0  0  0
  -28.4730  -13.5230   18.9480 C   0  0  0  0  0  3  0  0  0  0  0  0
  -29.6020  -13.5230   20.0030 C   0  0  0  0  0  2  0  0  0  0  0  0
  -30.8970  -13.6260   19.3070 N   0  0  0  0  0  0  0  0  0  0  0  0
  -32.6260  -14.8110   18.4190 O   0  0  0  0  0  0  0  0  0  0  0  0
  -31.4020  -15.7340   20.0530 N   0  0  0  0  0  0  0  0  0  0  0  0
  -30.6150  -15.6160   20.6710 H   0  0  0  0  0  0  0  0  0  0  0  0
  -26.2430  -14.3970   19.8960 C   0  0  0  0  0  0  0  0  0  0  0  0
  -25.1390  -13.7520   20.3800 C   0  0  0  0  0  0  0  0  0  0  0  0
  -25.4370  -12.3550   20.3130 C   0  0  0  0  0  0  0  0  0  0  0  0
  -27.1530  -13.4040   19.5660 N   0  0  0  0  0  0  0  0  0  0  0  0
  -26.6750  -12.1700   19.8730 N   0  0  0  0  0  0  0  0  0  0  0  0
  -24.5950  -11.1840   20.5890 C   0  0  0  0  0  0  0  0  0  0  0  0
  -24.9850  -10.1930   21.5170 C   0  0  0  0  0  3  0  0  0  0  0  0
  -24.1500   -9.0870   21.7790 C   0  0  0  0  0  3  0  0  0  0  0  0
  -22.9070   -8.9630   21.1130 C   0  0  0  0  0  0  0  0  0  0  0  0
  -22.5330   -9.9380   20.1730 C   0  0  0  0  0  3  0  0  0  0  0  0
  -23.3690  -11.0360   19.9090 C   0  0  0  0  0  3  0  0  0  0  0  0
  -22.0430   -7.9080   21.2850 O   0  0  0  0  0  0  0  0  0  0  0  0
  -21.8840   -7.2980   22.5020 C   0  0  0  0  0  0  0  0  0  0  0  0
  -21.4880   -8.0170   23.6520 C   0  0  0  0  0  3  0  0  0  0  0  0
  -21.2710   -7.3380   24.8670 C   0  0  0  0  0  3  0  0  0  0  0  0
  -21.4360   -5.9420   24.9350 C   0  0  0  0  0  0  0  0  0  0  0  0
  -21.8250   -5.2230   23.7900 C   0  0  0  0  0  3  0  0  0  0  0  0
  -22.0440   -5.8990   22.5770 C   0  0  0  0  0  0  0  0  0  0  0  0
  -22.3970   -5.1980   21.4730 F   0  0  0  0  0  0  0  0  0  0  0  0
  -21.2200   -5.2890   26.1000 F   0  0  0  0  0  0  0  0  0  0  0  0
  -23.8400  -14.3830   20.7930 C   0  0  0  0  0  0  0  0  0  0  0  0
  -23.1620  -13.8050   21.7770 N   0  0  0  0  0  0  0  0  0  0  0  0
  -23.4450  -15.4280   20.2760 O   0  0  0  0  0  0  0  0  0  0  0  0
  -23.4980  -12.9590   22.2170 H   0  0  0  0  0  0  0  0  0  0  0  0
  -22.2940  -14.2110   22.0970 H   0  0  0  0  0  0  0  0  0  0  0  0
  -26.5440  -15.7410   19.6900 N   0  0  0  0  0  0  0  0  0  0  0  0
  -25.8750  -16.4820   19.8720 H   0  0  0  0  0  0  0  0  0  0  0  0
  -27.4100  -16.0790   19.2890 H   0  0  0  0  0  0  0  0  0  0  0  0
  -28.9970  -22.2460   26.1800 N   0  0  0  0  0  4  0  0  0  0  0  0
  -28.5640  -21.3630   25.9800 H   0  0  0  0  0  0  0  0  0  0  0  0
  -28.2760  -22.9010   26.4330 H   0  0  0  0  0  0  0  0  0  0  0  0
  -29.5880  -22.1330   26.9870 H   0  0  0  0  0  0  0  0  0  0  0  0
  -30.4650  -24.2670   22.2250 N   0  0  0  0  0  4  0  0  0  0  0  0
  -31.3720  -24.0910   21.8170 H   0  0  0  0  0  0  0  0  0  0  0  0
  -30.6430  -24.7770   23.0780 H   0  0  0  0  0  0  0  0  0  0  0  0
  -28.1820  -25.0090   21.3520 C   0  0  0  0  0  1  0  0  0  0  0  0
  -29.7220  -25.1500   21.2580 C   0  0  0  0  0  3  0  0  0  0  0  0
  -30.1710  -26.6460   21.4060 C   0  0  0  0  0  2  0  0  0  0  0  0
  -29.8400  -27.4840   20.2860 O   0  0  0  0  0  0  0  0  0  0  0  0
  -24.8550  -31.4710   23.4780 C   0  0  0  0  0  0  0  0  0  0  0  0
  -28.5640  -27.9990   20.2740 C   0  0  0  0  0  0  0  0  0  0  0  0
  -24.0740  -30.0060   21.6410 C   0  0  0  0  0  3  0  0  0  0  0  0
  -25.9090  -28.9630   20.2000 C   0  0  0  0  0  0  0  0  0  0  0  0
  -26.4620  -30.9090   21.6610 C   0  0  0  0  0  2  0  0  0  0  0  0
  -26.8820  -29.6470   20.9400 C   0  0  0  0  0  0  0  0  0  0  0  0
  -28.2100  -29.1660   20.9910 C   0  0  0  0  0  3  0  0  0  0  0  0
  -27.5920  -27.3650   19.4800 C   0  0  0  0  0  3  0  0  0  0  0  0
  -26.2620  -27.8220   19.4580 C   0  0  0  0  0  3  0  0  0  0  0  0
  -24.5020  -29.5170   20.2280 C   0  0  0  0  0  2  0  0  0  0  0  0
  -25.1410  -30.8100   22.3210 N   0  0  0  0  0  0  0  0  0  0  0  0
  -23.7140  -31.4550   23.9570 O   0  0  0  0  0  0  0  0  0  0  0  0
  -23.6090  -28.7840   22.4650 C   0  0  0  0  0  0  0  0  0  0  0  0
  -22.4230  -28.2530   22.1300 N   0  0  0  0  0  0  0  0  0  0  0  0
  -24.3190  -28.3190   23.3610 O   0  0  0  0  0  0  0  0  0  0  0  0
  -21.8900  -28.7080   21.4020 H   0  0  0  0  0  0  0  0  0  0  0  0
  -19.5600  -26.0550   21.9600 C   0  0  0  0  0  0  0  0  0  0  0  0
  -21.8020  -27.0770   22.7400 C   0  0  0  0  0  3  0  0  0  0  0  0
  -22.4560  -25.7720   22.2280 C   0  0  0  0  0  2  0  0  0  0  0  0
  -21.7340  -25.1690   21.0180 C   0  0  0  0  0  2  0  0  0  0  0  0
  -20.2770  -24.8550   21.3660 C   0  0  0  0  0  2  0  0  0  0  0  0
  -20.2780  -27.1060   22.5900 C   0  0  0  0  0  0  0  0  0  0  0  0
  -19.5660  -28.2140   23.0960 C   0  0  0  0  0  3  0  0  0  0  0  0
  -18.1650  -28.2830   22.9830 C   0  0  0  0  0  3  0  0  0  0  0  0
  -17.4570  -27.2340   22.3710 C   0  0  0  0  0  3  0  0  0  0  0  0
  -18.1540  -26.1210   21.8660 C   0  0  0  0  0  3  0  0  0  0  0  0
  -25.9410  -32.2930   24.2400 C   0  0  0  0  0  3  0  0  0  0  0  0
  -25.4630  -33.6800   24.3270 N   0  0  0  0  0  0  0  0  0  0  0  0
  -25.8480  -34.6690   23.5080 C   0  0  0  0  0  0  0  0  0  0  0  0
  -26.7080  -34.5190   22.6350 O   0  0  0  0  0  0  0  0  0  0  0  0
  -24.7190  -33.8640   24.9830 H   0  0  0  0  0  0  0  0  0  0  0  0
  -24.0770  -36.2200   22.6200 C   0  0  0  0  0  1  0  0  0  0  0  0
  -25.1690  -36.0400   23.6870 C   0  0  0  0  0  3  0  0  0  0  0  0
  -27.0370  -37.2230   24.7520 C   0  0  0  0  0  1  0  0  0  0  0  0
  -26.1130  -37.1740   23.6230 N   0  0  0  0  0  0  0  0  0  0  0  0
  -25.6100  -38.0570   23.5900 H   0  0  0  0  0  0  0  0  0  0  0  0
  -26.2650  -31.7190   25.6730 C   0  0  1  0  0  0  0  0  0  0  0  0
  -25.0090  -31.4630   26.5370 C   0  0  0  0  0  1  0  0  0  0  0  0
  -27.0450  -30.3880   25.5580 C   0  0  0  0  0  1  0  0  0  0  0  0
  -27.1780  -32.7060   26.4380 C   0  0  0  0  0  1  0  0  0  0  0  0
  1  4  1  0
  2  4  1  0
  3  8  1  0
  3  1  1  0
  4 53  1  0
  5 57  1  0
  5  3  1  0
  5  2  1  0
  6 10  2  0
  6  9  1  0
  7 11  1  0
  8 11  2  0
  9  7  2  0
 10  8  1  0
 11 13  1  0
 12 10  1  0
 14  9  1  0
 15 21  1  0
 15 23  1  0
 16 21  1  0
 17 18  1  0
 17 16  1  0
 19 18  1  0
 19 28  1  0
 19 20  1  0
 21 20  1  0
 22 15  2  0
 23 14  1  0
 23 24  1  0
 25 26  2  0
 26 45  1  0
 27 26  1  0
 27 30  1  0
 28 29  1  0
 28 25  1  0
 29 27  2  0
 30 31  1  0
 31 32  2  0
 33 36  1  0
 33 32  1  0
 34 33  2  0
 35 34  1  0
 35 30  2  0
 36 37  1  0
 37 42  2  0
 37 38  1  0
 38 39  2  0
 39 40  1  0
 40 44  1  0
 41 40  2  0
 42 41  1  0
 43 42  1  0
 45 46  1  0
 46 49  1  0
 46 48  1  0
 47 45  2  0
 50 51  1  0
 50 25  1  0
 52 50  1  0
 53 55  1  0
 53 56  1  0
 54 53  1  0
 57 59  1  0
 58 57  1  0
 61 60  1  0
 61 62  1  0
 61 57  1  0
 63 62  1  0
 64 75  2  0
 65 63  1  0
 65 70  1  0
 66 74  1  0
 66 76  1  0
 67 73  1  0
 67 69  1  0
 68 74  1  0
 69 70  2  0
 69 68  1  0
 71 65  2  0
 72 71  1  0
 72 67  2  0
 73 66  1  0
 74 64  1  0
 76 78  2  0
 77 76  1  0
 79 77  1  0
 80 85  1  0
 81 77  1  0
 82 81  1  0
 83 84  1  0
 83 82  1  0
 84 80  1  0
 85 81  1  0
 85 86  2  0
 87 86  1  0
 88 87  2  0
 89 80  2  0
 89 88  1  0
 90 64  1  0
 90 91  1  0
 90100  1  0
 91 94  1  0
 92 96  1  0
 92 91  1  0
 93 92  2  0
 96 95  1  0
 98 96  1  0
 98 97  1  0
 99 98  1  0
100103  1  1
100101  1  0
102100  1  0
M  ISO  4  15 100  23 100  62 101  63 101
M  END
>  <TORSDO>  (14) 
F 22

>  <SCORE>  (14) 
-5.434

>  <name>  (14) 
13

>  <ligand_id>  (14) 
13

>  <original_smiles>  (14) 
[H]c1c([H])c([H])c2c(c1[H])C([H])([H])C([H])([H])C([H])([H])C2([H])N([H])C(=O)C1([H])N(C(=O)C([H])(N([H])C(=O)C([H])(N([H])C([H])([H])[H])C([H])([H])[H])C(C([H])([H])[H])(C([H])([H])[H])C([H])([H])[H])C([H])([H])c2c([H])c(OC([H])([H])C([H])(C([H])([H])[H])[N+]([H])([H])C3([H])C([H])([H])C([H])([N+]([H])([H])[H])C([H])([H])C3([H])c3c(C([H])([H])[H])c([H])c(C([H])([H])N([H])C(=O)N4C([H])([H])C([H])([H])C([H])([H])C([H])(n5nc(-c6c([H])c([H])c(Oc7c([H])c([H])c(F)c([H])c7F)c([H])c6[H])c(C(=O)N([H])[H])c5N([H])[H])C4([H])[H])c([H])c3C([H])([H])[H])c([H])c([H])c2C1([H])[H]

>  <smiles>  (14) 
[H]c1c([H])c([H])c2c(c1[H])C([H])([H])C([H])([H])C([H])([H])C2([H])N([H])C(=O)C1([H])N(C(=O)C([H])(N([H])C(=O)C([H])(N([H])C([H])([H])[H])C([H])([H])[H])C(C([H])([H])[H])(C([H])([H])[H])C([H])([H])[H])C([H])([H])c2c([H])c(OC([H])([H])C([H])(C([H])([H])[H])[N+]([H])([H])C3([H])C([H])([H])C([H])([N+]([H])([H])[H])C([H])([H])C3([H])c3c(C([H])([H])[H])c([H])c(C([H])([H])N([H])C(=O)N4C([H])([H])C([H])([H])C([H])([H])C([H])(n5nc(-c6c([H])c([H])c(Oc7c([H])c([H])c(F)c([H])c7F)c([H])c6[H])c(C(=O)N([H])[H])c5N([H])[H])C4([H])[H])c([H])c3C([H])([H])[H])c([H])c([H])c2C1([H])[H]

$$$$
14:0:0
     RDKit          3D

 96105  0  0  1  0  0  0  0  0999 V2000
  -28.1410  -20.5380   19.0860 C   0  0  0  0  0  3  0  0  0  0  0  0
  -29.5400  -22.5480   20.4180 C   0  0  0  0  0  3  0  0  0  0  0  0
  -29.3220  -20.1800   19.7930 C   0  0  0  0  0  0  0  0  0  0  0  0
  -30.0390  -21.2280   20.4320 C   0  0  0  0  0  0  0  0  0  0  0  0
  -28.3190  -22.8840   19.7970 C   0  0  0  0  0  0  0  0  0  0  0  0
  -27.6330  -21.8720   19.0780 C   0  0  0  0  0  0  0  0  0  0  0  0
  -31.3680  -21.0200   21.1370 C   0  0  0  0  0  1  0  0  0  0  0  0
  -30.8750  -14.6740   20.1010 C   0  0  0  0  0  0  0  0  0  0  0  0
  -30.5990  -12.4460   19.1100 C   0  0  0  0  0  2  0  0  0  0  0  0
  -29.6210  -12.5910   17.9280 C   0  0  0  0  0  2  0  0  0  0  0  0
  -28.1590  -12.4680   18.4110 C   0  0  0  0  0  2  0  0  0  0  0  0
  -27.8450  -13.3310   19.6620 C   0  0  0  0  0  3  0  0  0  0  0  0
  -28.9450  -13.1830   20.7370 C   0  0  0  0  0  2  0  0  0  0  0  0
  -30.2340  -13.4730   20.0970 N   0  0  0  0  0  0  0  0  0  0  0  0
  -32.0520  -14.7860   19.7510 O   0  0  0  0  0  0  0  0  0  0  0  0
  -29.6250  -17.9460   21.1610 C   0  0  0  0  0  2  0  0  0  0  0  0
  -29.3010  -17.8180   18.6830 C   0  0  0  0  0  2  0  0  0  0  0  0
  -29.3720  -16.4110   21.0700 C   0  0  0  0  0  2  0  0  0  0  0  0
  -30.0890  -16.4930   18.6680 C   0  0  0  0  0  2  0  0  0  0  0  0
  -29.8270  -18.7100   19.8190 C   0  0  0  0  0  3  0  0  0  0  0  0
  -30.0440  -15.7440   19.9400 N   0  0  0  0  0  0  0  0  0  0  0  0
  -25.4850  -13.9200   20.4970 C   0  0  0  0  0  0  0  0  0  0  0  0
  -24.4310  -13.1430   20.8880 C   0  0  0  0  0  0  0  0  0  0  0  0
  -24.8840  -11.7890   20.7950 C   0  0  0  0  0  0  0  0  0  0  0  0
  -26.5170  -13.0440   20.1970 N   0  0  0  0  0  0  0  0  0  0  0  0
  -26.1610  -11.7550   20.4300 N   0  0  0  0  0  0  0  0  0  0  0  0
  -24.1570  -10.5260   20.9750 C   0  0  0  0  0  0  0  0  0  0  0  0
  -24.5770   -9.5590   21.9180 C   0  0  0  0  0  3  0  0  0  0  0  0
  -23.8540   -8.3590   22.0860 C   0  0  0  0  0  3  0  0  0  0  0  0
  -22.6960   -8.1140   21.3110 C   0  0  0  0  0  0  0  0  0  0  0  0
  -22.2920   -9.0690   20.3600 C   0  0  0  0  0  3  0  0  0  0  0  0
  -23.0140  -10.2620   20.1910 C   0  0  0  0  0  3  0  0  0  0  0  0
  -21.9480   -6.9660   21.3860 O   0  0  0  0  0  0  0  0  0  0  0  0
  -21.8070   -6.2740   22.5640 C   0  0  0  0  0  0  0  0  0  0  0  0
  -21.2090   -6.8580   23.7020 C   0  0  0  0  0  3  0  0  0  0  0  0
  -21.0180   -6.0910   24.8700 C   0  0  0  0  0  3  0  0  0  0  0  0
  -21.4180   -4.7420   24.8990 C   0  0  0  0  0  0  0  0  0  0  0  0
  -22.0100   -4.1570   23.7670 C   0  0  0  0  0  3  0  0  0  0  0  0
  -22.2010   -4.9220   22.6010 C   0  0  0  0  0  0  0  0  0  0  0  0
  -22.7520   -4.3450   21.5060 F   0  0  0  0  0  0  0  0  0  0  0  0
  -21.2300   -4.0050   26.0190 F   0  0  0  0  0  0  0  0  0  0  0  0
  -23.0480  -13.6140   21.2380 C   0  0  0  0  0  0  0  0  0  0  0  0
  -22.3560  -12.9000   22.1170 N   0  0  0  0  0  0  0  0  0  0  0  0
  -22.5900  -14.6550   20.7640 O   0  0  0  0  0  0  0  0  0  0  0  0
  -22.7400  -12.0580   22.5200 H   0  0  0  0  0  0  0  0  0  0  0  0
  -21.4320  -13.1980   22.3930 H   0  0  0  0  0  0  0  0  0  0  0  0
  -25.6500  -15.2950   20.3500 N   0  0  0  0  0  0  0  0  0  0  0  0
  -24.8910  -15.9540   20.4930 H   0  0  0  0  0  0  0  0  0  0  0  0
  -26.4870  -15.7290   19.9880 H   0  0  0  0  0  0  0  0  0  0  0  0
  -25.8580  -21.2840   17.5530 C   0  0  0  0  0  1  0  0  0  0  0  0
  -26.4710  -22.2250   18.4260 O   0  0  0  0  0  0  0  0  0  0  0  0
  -27.7390  -24.3070   20.0080 C   0  0  0  0  0  3  0  0  0  0  0  0
  -26.1330  -23.5730   21.8900 C   0  0  0  0  0  1  0  0  0  0  0  0
  -27.2900  -24.5030   21.4800 C   0  0  0  0  0  2  0  0  0  0  0  0
  -28.6820  -25.4420   19.4790 C   0  0  0  0  0  2  0  0  0  0  0  0
  -28.5570  -26.7830   20.0270 O   0  0  0  0  0  0  0  0  0  0  0  0
  -24.5910  -31.7980   23.1930 C   0  0  0  0  0  0  0  0  0  0  0  0
  -27.3760  -27.5050   19.9840 C   0  0  0  0  0  0  0  0  0  0  0  0
  -23.4420  -30.4540   21.4610 C   0  0  0  0  0  3  0  0  0  0  0  0
  -24.9550  -28.9930   20.0030 C   0  0  0  0  0  0  0  0  0  0  0  0
  -25.9690  -30.8370   21.3500 C   0  0  0  0  0  2  0  0  0  0  0  0
  -26.0880  -29.4940   20.6590 C   0  0  0  0  0  0  0  0  0  0  0  0
  -27.2930  -28.7510   20.6610 C   0  0  0  0  0  3  0  0  0  0  0  0
  -26.2370  -27.0450   19.2910 C   0  0  0  0  0  3  0  0  0  0  0  0
  -25.0300  -27.7670   19.3170 C   0  0  0  0  0  3  0  0  0  0  0  0
  -23.6970  -29.8330   20.0600 C   0  0  0  0  0  2  0  0  0  0  0  0
  -24.6840  -31.0460   22.0600 N   0  0  0  0  0  0  0  0  0  0  0  0
  -23.4960  -32.0330   23.7210 O   0  0  0  0  0  0  0  0  0  0  0  0
  -22.7820  -29.3850   22.3620 C   0  0  0  0  0  0  0  0  0  0  0  0
  -21.4590  -29.2060   22.2110 N   0  0  0  0  0  0  0  0  0  0  0  0
  -23.4580  -28.7180   23.1510 O   0  0  0  0  0  0  0  0  0  0  0  0
  -20.9650  -29.8040   21.5630 H   0  0  0  0  0  0  0  0  0  0  0  0
  -18.0790  -28.0190   22.6570 C   0  0  0  0  0  0  0  0  0  0  0  0
  -20.6410  -28.2240   22.9230 C   0  0  0  0  0  3  0  0  0  0  0  0
  -20.7180  -26.8330   22.2470 C   0  0  0  0  0  2  0  0  0  0  0  0
  -19.6060  -26.6000   21.2190 C   0  0  0  0  0  2  0  0  0  0  0  0
  -18.2320  -26.7170   21.8850 C   0  0  0  0  0  2  0  0  0  0  0  0
  -19.2110  -28.7340   23.1280 C   0  0  0  0  0  0  0  0  0  0  0  0
  -19.0170  -29.9580   23.8010 C   0  0  0  0  0  3  0  0  0  0  0  0
  -17.7210  -30.4720   24.0030 C   0  0  0  0  0  3  0  0  0  0  0  0
  -16.6040  -29.7510   23.5490 C   0  0  0  0  0  3  0  0  0  0  0  0
  -16.7820  -28.5250   22.8840 C   0  0  0  0  0  3  0  0  0  0  0  0
  -25.8550  -32.4210   23.8610 C   0  0  0  0  0  3  0  0  0  0  0  0
  -26.3170  -31.6450   25.1550 C   0  0  1  0  0  0  0  0  0  0  0  0
  -25.1820  -31.4160   26.1810 C   0  0  0  0  0  1  0  0  0  0  0  0
  -26.9080  -30.2670   24.7780 C   0  0  0  0  0  1  0  0  0  0  0  0
  -27.4300  -32.4400   25.8770 C   0  0  0  0  0  1  0  0  0  0  0  0
  -25.5450  -33.8220   24.1780 N   0  0  0  0  0  0  0  0  0  0  0  0
  -25.8960  -34.8730   23.4220 C   0  0  0  0  0  0  0  0  0  0  0  0
  -26.5870  -34.7660   22.4060 O   0  0  0  0  0  0  0  0  0  0  0  0
  -24.9350  -33.9770   24.9670 H   0  0  0  0  0  0  0  0  0  0  0  0
  -24.1780  -36.6670   23.0270 C   0  0  0  0  0  1  0  0  0  0  0  0
  -25.4000  -36.2620   23.8640 C   0  0  0  0  0  3  0  0  0  0  0  0
  -27.5080  -37.1630   24.7520 C   0  0  0  0  0  1  0  0  0  0  0  0
  -26.4330  -37.3170   23.7750 N   0  0  0  0  0  0  0  0  0  0  0  0
  -26.0180  -38.2370   23.8990 H   0  0  0  0  0  0  0  0  0  0  0  0
  1  3  1  0
  2  4  1  0
  3  4  2  0
  4  7  1  0
  5 52  1  0
  5  2  2  0
  6  1  2  0
  6  5  1  0
  9 14  1  0
 10 11  1  0
 10  9  1  0
 12 11  1  0
 12 25  1  0
 12 13  1  0
 14  8  1  0
 14 13  1  0
 15  8  2  0
 17 20  1  0
 18 16  1  0
 19 17  1  0
 19 21  1  0
 20  3  1  0
 20 16  1  0
 21  8  1  0
 21 18  1  0
 22 23  2  0
 23 42  1  0
 24 23  1  0
 24 27  1  0
 25 26  1  0
 25 22  1  0
 26 24  2  0
 27 28  1  0
 28 29  2  0
 30 33  1  0
 30 29  1  0
 31 30  2  0
 32 31  1  0
 32 27  2  0
 33 34  1  0
 34 39  2  0
 34 35  1  0
 35 36  2  0
 36 37  1  0
 37 41  1  0
 38 37  2  0
 39 38  1  0
 40 39  1  0
 42 43  1  0
 43 46  1  0
 43 45  1  0
 44 42  2  0
 47 48  1  0
 47 22  1  0
 49 47  1  0
 50 51  1  0
 51  6  1  0
 52 55  1  0
 52 54  1  0
 54 53  1  0
 55 56  1  0
 57 68  2  0
 58 56  1  0
 58 63  1  0
 59 67  1  0
 59 69  1  0
 60 66  1  0
 60 62  1  0
 61 67  1  0
 62 63  2  0
 62 61  1  0
 64 65  1  0
 64 58  2  0
 65 60  2  0
 66 59  1  0
 67 57  1  0
 69 71  2  0
 70 69  1  0
 72 70  1  0
 73 82  2  0
 73 78  1  0
 74 70  1  0
 74 78  1  0
 75 74  1  0
 76 77  1  0
 76 75  1  0
 77 73  1  0
 78 79  2  0
 79 80  1  0
 81 80  2  0
 82 81  1  0
 83 57  1  0
 83 88  1  0
 83 84  1  0
 84 87  1  1
 84 85  1  0
 86 84  1  0
 88 91  1  0
 89 93  1  0
 89 88  1  0
 90 89  2  0
 93 92  1  0
 95 93  1  0
 95 96  1  0
 95 94  1  0
M  ISO  4   8 100  21 100  55 101  56 101
M  END
>  <TORSDO>  (15) 
F 20

>  <SCORE>  (15) 
-13.920

>  <name>  (15) 
14

>  <ligand_id>  (15) 
14

>  <original_smiles>  (15) 
[H]c1c([H])c([H])c2c(c1[H])C([H])([H])C([H])([H])C([H])([H])C2([H])N([H])C(=O)C1([H])N(C(=O)C([H])(N([H])C(=O)C([H])(N([H])C([H])([H])[H])C([H])([H])[H])C(C([H])([H])[H])(C([H])([H])[H])C([H])([H])[H])C([H])([H])c2c([H])c(OC([H])([H])C([H])(c3c([H])c(C([H])([H])[H])c(C4([H])C([H])([H])C([H])([H])N(C(=O)N5C([H])([H])C([H])([H])C([H])([H])C([H])(n6nc(-c7c([H])c([H])c(Oc8c([H])c([H])c(F)c([H])c8F)c([H])c7[H])c(C(=O)N([H])[H])c6N([H])[H])C5([H])[H])C([H])([H])C4([H])[H])c([H])c3OC([H])([H])[H])C([H])([H])C([H])([H])[H])c([H])c([H])c2C1([H])[H]

>  <smiles>  (15) 
[H]c1c([H])c([H])c2c(c1[H])C([H])([H])C([H])([H])C([H])([H])C2([H])N([H])C(=O)C1([H])N(C(=O)C([H])(N([H])C(=O)C([H])(N([H])C([H])([H])[H])C([H])([H])[H])C(C([H])([H])[H])(C([H])([H])[H])C([H])([H])[H])C([H])([H])c2c([H])c(OC([H])([H])C([H])(c3c([H])c(C([H])([H])[H])c(C4([H])C([H])([H])C([H])([H])N(C(=O)N5C([H])([H])C([H])([H])C([H])([H])C([H])(n6nc(-c7c([H])c([H])c(Oc8c([H])c([H])c(F)c([H])c8F)c([H])c7[H])c(C(=O)N([H])[H])c6N([H])[H])C5([H])[H])C([H])([H])C4([H])[H])c([H])c3OC([H])([H])[H])C([H])([H])C([H])([H])[H])c([H])c([H])c2C1([H])[H]

$$$$
15:0:0
     RDKit          3D

 97106  0  0  1  0  0  0  0  0999 V2000
  -30.6230  -22.4430   22.7380 C   0  0  0  0  0  2  0  0  0  0  0  0
  -30.4610  -23.8920   22.2430 C   0  0  0  0  0  2  0  0  0  0  0  0
  -29.6960  -21.6170   21.8410 C   0  0  0  0  0  3  0  0  0  0  0  0
  -29.6970  -22.4380   20.5330 C   0  0  0  0  0  3  0  0  0  0  0  0
  -28.5630  -22.0610   19.5640 C   0  0  0  0  0  1  0  0  0  0  0  0
  -29.5970  -23.8390   21.0360 N   0  0  2  0  0  4  0  0  0  0  0  0
  -28.6590  -23.9500   21.3940 H   0  0  0  0  0  0  0  0  0  0  0  0
  -29.7950  -19.2680   20.7080 C   0  0  0  0  0  3  0  0  0  0  0  0
  -30.9750  -18.1630   22.9900 C   0  0  0  0  0  3  0  0  0  0  0  0
  -30.0020  -20.0980   21.8450 C   0  0  0  0  0  0  0  0  0  0  0  0
  -30.1800  -17.8970   20.6960 C   0  0  0  0  0  0  0  0  0  0  0  0
  -30.5790  -19.5120   23.0030 C   0  0  0  0  0  0  0  0  0  0  0  0
  -30.8150  -17.3600   21.8480 C   0  0  0  0  0  0  0  0  0  0  0  0
  -30.8220  -20.3040   24.2810 C   0  0  0  0  0  1  0  0  0  0  0  0
  -31.3830  -15.9490   21.9040 C   0  0  0  0  0  1  0  0  0  0  0  0
  -29.9730  -17.0680   19.4140 C   0  0  0  0  0  2  0  0  0  0  0  0
  -30.3180  -14.6150   19.1060 C   0  0  0  0  0  0  0  0  0  0  0  0
  -30.2180  -12.2220   18.5070 C   0  0  0  0  0  2  0  0  0  0  0  0
  -29.1550  -12.0000   17.4110 C   0  0  0  0  0  2  0  0  0  0  0  0
  -27.7620  -11.7920   18.0360 C   0  0  0  0  0  2  0  0  0  0  0  0
  -27.4160  -12.8690   19.0980 C   0  0  0  0  0  3  0  0  0  0  0  0
  -28.5840  -13.0620   20.0930 C   0  0  0  0  0  2  0  0  0  0  0  0
  -29.7950  -13.3750   19.3160 N   0  0  0  0  0  0  0  0  0  0  0  0
  -31.3280  -14.8070   18.4230 O   0  0  0  0  0  0  0  0  0  0  0  0
  -29.6150  -15.6520   19.5980 N   0  0  0  0  0  0  0  0  0  0  0  0
  -28.7770  -15.4470   20.1170 H   0  0  0  0  0  0  0  0  0  0  0  0
  -25.1630  -13.4150   20.2170 C   0  0  0  0  0  0  0  0  0  0  0  0
  -24.1800  -12.6150   20.7320 C   0  0  0  0  0  0  0  0  0  0  0  0
  -24.6420  -11.2720   20.5770 C   0  0  0  0  0  0  0  0  0  0  0  0
  -26.1650  -12.5580   19.7860 N   0  0  0  0  0  0  0  0  0  0  0  0
  -25.8630  -11.2620   20.0570 N   0  0  0  0  0  0  0  0  0  0  0  0
  -23.9710   -9.9930   20.8420 C   0  0  0  0  0  0  0  0  0  0  0  0
  -24.4820   -9.0700   21.7810 C   0  0  0  0  0  3  0  0  0  0  0  0
  -23.8070   -7.8550   22.0310 C   0  0  0  0  0  3  0  0  0  0  0  0
  -22.6070   -7.5550   21.3430 C   0  0  0  0  0  0  0  0  0  0  0  0
  -22.1160   -8.4660   20.3920 C   0  0  0  0  0  3  0  0  0  0  0  0
  -22.7910   -9.6720   20.1410 C   0  0  0  0  0  3  0  0  0  0  0  0
  -21.8980   -6.3890   21.5020 O   0  0  0  0  0  0  0  0  0  0  0  0
  -21.7810   -5.7790   22.7260 C   0  0  0  0  0  0  0  0  0  0  0  0
  -21.2170   -6.4420   23.8370 C   0  0  0  0  0  3  0  0  0  0  0  0
  -21.0510   -5.7560   25.0560 C   0  0  0  0  0  3  0  0  0  0  0  0
  -21.4400   -4.4070   25.1660 C   0  0  0  0  0  0  0  0  0  0  0  0
  -21.9970   -3.7430   24.0580 C   0  0  0  0  0  3  0  0  0  0  0  0
  -22.1640   -4.4270   22.8410 C   0  0  0  0  0  0  0  0  0  0  0  0
  -22.6830   -3.7770   21.7700 F   0  0  0  0  0  0  0  0  0  0  0  0
  -21.2740   -3.7450   26.3340 F   0  0  0  0  0  0  0  0  0  0  0  0
  -22.8430  -13.0610   21.2520 C   0  0  0  0  0  0  0  0  0  0  0  0
  -22.3110  -12.3650   22.2510 N   0  0  0  0  0  0  0  0  0  0  0  0
  -22.2850  -14.0610   20.8030 O   0  0  0  0  0  0  0  0  0  0  0  0
  -22.7810  -11.5570   22.6310 H   0  0  0  0  0  0  0  0  0  0  0  0
  -21.4230  -12.6460   22.6420 H   0  0  0  0  0  0  0  0  0  0  0  0
  -25.2810  -14.7930   20.0630 N   0  0  0  0  0  0  0  0  0  0  0  0
  -24.5380  -15.4310   20.3240 H   0  0  0  0  0  0  0  0  0  0  0  0
  -26.0650  -15.2590   19.6220 H   0  0  0  0  0  0  0  0  0  0  0  0
  -29.8140  -24.9530   20.0600 C   0  0  0  0  0  2  0  0  0  0  0  0
  -28.5150  -25.7340   19.7340 C   0  0  0  0  0  2  0  0  0  0  0  0
  -28.5690  -27.1180   20.1360 O   0  0  0  0  0  0  0  0  0  0  0  0
  -24.6910  -32.0880   23.4550 C   0  0  0  0  0  0  0  0  0  0  0  0
  -27.3870  -27.8440   20.1310 C   0  0  0  0  0  0  0  0  0  0  0  0
  -23.5040  -30.7700   21.7340 C   0  0  0  0  0  3  0  0  0  0  0  0
  -24.9760  -29.3380   20.2230 C   0  0  0  0  0  0  0  0  0  0  0  0
  -26.0280  -31.1630   21.5640 C   0  0  0  0  0  2  0  0  0  0  0  0
  -26.1280  -29.8330   20.8440 C   0  0  0  0  0  0  0  0  0  0  0  0
  -27.3350  -29.0950   20.7940 C   0  0  0  0  0  3  0  0  0  0  0  0
  -26.2110  -27.3760   19.4940 C   0  0  0  0  0  3  0  0  0  0  0  0
  -25.0120  -28.1090   19.5460 C   0  0  0  0  0  3  0  0  0  0  0  0
  -23.7210  -30.1780   20.3180 C   0  0  0  0  0  2  0  0  0  0  0  0
  -24.7580  -31.3530   22.3090 N   0  0  0  0  0  0  0  0  0  0  0  0
  -23.6050  -32.3180   24.0070 O   0  0  0  0  0  0  0  0  0  0  0  0
  -22.8640  -29.6860   22.6320 C   0  0  0  0  0  0  0  0  0  0  0  0
  -21.5500  -29.4640   22.4620 N   0  0  0  0  0  0  0  0  0  0  0  0
  -23.5490  -29.0470   23.4350 O   0  0  0  0  0  0  0  0  0  0  0  0
  -21.0570  -30.0360   21.7890 H   0  0  0  0  0  0  0  0  0  0  0  0
  -18.2080  -28.1390   22.8190 C   0  0  0  0  0  0  0  0  0  0  0  0
  -20.7480  -28.4680   23.1700 C   0  0  0  0  0  3  0  0  0  0  0  0
  -20.9130  -27.0680   22.5370 C   0  0  0  0  0  2  0  0  0  0  0  0
  -19.8500  -26.7530   21.4800 C   0  0  0  0  0  2  0  0  0  0  0  0
  -18.4470  -26.8260   22.0920 C   0  0  0  0  0  2  0  0  0  0  0  0
  -19.2890  -28.9170   23.3110 C   0  0  0  0  0  0  0  0  0  0  0  0
  -19.0140  -30.1470   23.9480 C   0  0  0  0  0  3  0  0  0  0  0  0
  -17.6900  -30.6000   24.0980 C   0  0  0  0  0  3  0  0  0  0  0  0
  -16.6230  -29.8170   23.6240 C   0  0  0  0  0  3  0  0  0  0  0  0
  -16.8820  -28.5890   22.9920 C   0  0  0  0  0  3  0  0  0  0  0  0
  -25.9680  -32.6970   24.1120 C   0  0  0  0  0  3  0  0  0  0  0  0
  -26.4770  -31.8790   25.3610 C   0  0  1  0  0  0  0  0  0  0  0  0
  -25.3680  -31.5630   26.3910 C   0  0  0  0  0  1  0  0  0  0  0  0
  -27.1040  -30.5360   24.9170 C   0  0  0  0  0  1  0  0  0  0  0  0
  -27.5940  -32.6680   26.0840 C   0  0  0  0  0  1  0  0  0  0  0  0
  -25.6530  -34.0820   24.4890 N   0  0  0  0  0  0  0  0  0  0  0  0
  -25.9970  -35.1630   23.7750 C   0  0  0  0  0  0  0  0  0  0  0  0
  -26.6840  -35.0980   22.7520 O   0  0  0  0  0  0  0  0  0  0  0  0
  -25.0420  -34.2080   25.2820 H   0  0  0  0  0  0  0  0  0  0  0  0
  -24.2540  -36.9520   23.4770 C   0  0  0  0  0  1  0  0  0  0  0  0
  -25.4990  -36.5320   24.2750 C   0  0  0  0  0  3  0  0  0  0  0  0
  -27.6250  -37.4100   25.1370 C   0  0  0  0  0  1  0  0  0  0  0  0
  -26.5240  -37.5950   24.1940 N   0  0  0  0  0  0  0  0  0  0  0  0
  -26.1110  -38.5090   24.3640 H   0  0  0  0  0  0  0  0  0  0  0  0
  2  1  1  0
  3 10  1  0
  3  1  1  0
  4  5  1  0
  4  6  1  0
  4  3  1  0
  6  7  1  1
  6  2  1  0
  8 10  1  0
  9 12  1  0
 10 12  2  0
 11  8  2  0
 11 13  1  0
 12 14  1  0
 13 15  1  0
 13  9  2  0
 16 25  1  0
 16 11  1  0
 17 23  1  0
 17 25  1  0
 18 23  1  0
 19 20  1  0
 19 18  1  0
 21 20  1  0
 21 30  1  0
 21 22  1  0
 23 22  1  0
 24 17  2  0
 25 26  1  0
 27 28  2  0
 28 47  1  0
 29 28  1  0
 29 32  1  0
 30 31  1  0
 30 27  1  0
 31 29  2  0
 32 33  1  0
 33 34  2  0
 35 38  1  0
 35 34  1  0
 36 35  2  0
 37 36  1  0
 37 32  2  0
 38 39  1  0
 39 44  2  0
 39 40  1  0
 40 41  2  0
 41 42  1  0
 42 46  1  0
 43 42  2  0
 44 43  1  0
 45 44  1  0
 47 48  1  0
 48 50  1  0
 48 51  1  0
 49 47  2  0
 52 27  1  0
 52 53  1  0
 54 52  1  0
 55  6  1  0
 56 55  1  0
 56 57  1  0
 58 69  2  0
 59 57  1  0
 59 64  1  0
 60 68  1  0
 60 70  1  0
 61 67  1  0
 61 63  1  0
 62 68  1  0
 63 62  1  0
 64 63  2  0
 65 66  1  0
 65 59  2  0
 66 61  2  0
 67 60  1  0
 68 58  1  0
 70 72  2  0
 71 70  1  0
 73 71  1  0
 74 83  2  0
 74 79  1  0
 75 71  1  0
 75 79  1  0
 76 75  1  0
 77 78  1  0
 77 76  1  0
 78 74  1  0
 79 80  2  0
 80 81  1  0
 82 81  2  0
 83 82  1  0
 84 58  1  0
 84 89  1  0
 84 85  1  0
 85 88  1  1
 85 86  1  0
 87 85  1  0
 89 92  1  0
 90 94  1  0
 90 89  1  0
 91 90  2  0
 94 93  1  0
 96 94  1  0
 96 97  1  0
 96 95  1  0
M  ISO  4  17 100  25 100  56 101  57 101
M  END
>  <TORSDO>  (16) 
F 20

>  <SCORE>  (16) 
-11.139

>  <name>  (16) 
15

>  <ligand_id>  (16) 
15

>  <original_smiles>  (16) 
[H]c1c([H])c([H])c2c(c1[H])C([H])([H])C([H])([H])C([H])([H])C2([H])N([H])C(=O)C1([H])N(C(=O)C([H])(N([H])C(=O)C([H])(N([H])C([H])([H])[H])C([H])([H])[H])C(C([H])([H])[H])(C([H])([H])[H])C([H])([H])[H])C([H])([H])c2c([H])c(OC([H])([H])C([H])([H])[N+]3([H])C([H])([H])C([H])([H])C([H])(c4c([H])c(C([H])([H])N([H])C(=O)N5C([H])([H])C([H])([H])C([H])([H])C([H])(n6nc(-c7c([H])c([H])c(Oc8c([H])c([H])c(F)c([H])c8F)c([H])c7[H])c(C(=O)N([H])[H])c6N([H])[H])C5([H])[H])c(C([H])([H])[H])c([H])c4C([H])([H])[H])C3([H])C([H])([H])[H])c([H])c([H])c2C1([H])[H]

>  <smiles>  (16) 
[H]c1c([H])c([H])c2c(c1[H])C([H])([H])C([H])([H])C([H])([H])C2([H])N([H])C(=O)C1([H])N(C(=O)C([H])(N([H])C(=O)C([H])(N([H])C([H])([H])[H])C([H])([H])[H])C(C([H])([H])[H])(C([H])([H])[H])C([H])([H])[H])C([H])([H])c2c([H])c(OC([H])([H])C([H])([H])[N+]3([H])C([H])([H])C([H])([H])C([H])(c4c([H])c(C([H])([H])N([H])C(=O)N5C([H])([H])C([H])([H])C([H])([H])C([H])(n6nc(-c7c([H])c([H])c(Oc8c([H])c([H])c(F)c([H])c8F)c([H])c7[H])c(C(=O)N([H])[H])c6N([H])[H])C5([H])[H])c(C([H])([H])[H])c([H])c4C([H])([H])[H])C3([H])C([H])([H])[H])c([H])c([H])c2C1([H])[H]

$$$$
16:0:0
     RDKit          3D

 95104  0  0  1  0  0  0  0  0999 V2000
  -29.4260  -20.8480   20.6880 C   0  0  0  0  0  2  0  0  0  0  0  0
  -31.0220  -22.2520   19.5450 C   0  0  0  0  0  3  0  0  0  0  0  0
  -29.7130  -22.3290   20.3400 C   0  0  0  0  0  3  0  0  0  0  0  0
  -31.4150  -20.7630   19.5540 C   0  0  0  0  0  3  0  0  0  0  0  0
  -32.1330  -23.1470   20.1210 C   0  0  0  0  0  1  0  0  0  0  0  0
  -32.2020  -20.4040   18.2780 C   0  0  0  0  0  1  0  0  0  0  0  0
  -30.1460  -20.0240   19.7060 N   0  0  0  0  0  0  0  0  0  0  0  0
  -30.7270  -14.5620   20.1830 C   0  0  0  0  0  0  0  0  0  0  0  0
  -30.4170  -12.3830   19.0910 C   0  0  0  0  0  2  0  0  0  0  0  0
  -29.4370  -12.5770   17.9130 C   0  0  0  0  0  2  0  0  0  0  0  0
  -27.9780  -12.4400   18.3910 C   0  0  0  0  0  2  0  0  0  0  0  0
  -27.6740  -13.2800   19.6610 C   0  0  0  0  0  3  0  0  0  0  0  0
  -28.7680  -13.0720   20.7330 C   0  0  0  0  0  2  0  0  0  0  0  0
  -30.0650  -13.3750   20.1140 N   0  0  0  0  0  0  0  0  0  0  0  0
  -31.9060  -14.6780   19.8350 O   0  0  0  0  0  0  0  0  0  0  0  0
  -29.2120  -17.9580   20.9490 C   0  0  0  0  0  2  0  0  0  0  0  0
  -30.6550  -17.7180   18.8900 C   0  0  0  0  0  2  0  0  0  0  0  0
  -29.4630  -16.4440   21.2540 C   0  0  0  0  0  2  0  0  0  0  0  0
  -29.8670  -16.3930   18.8240 C   0  0  0  0  0  2  0  0  0  0  0  0
  -30.3570  -18.6090   20.1250 C   0  0  0  0  0  3  0  0  0  0  0  0
  -29.9120  -15.6500   20.0920 N   0  0  0  0  0  0  0  0  0  0  0  0
  -25.3100  -13.8870   20.4800 C   0  0  0  0  0  0  0  0  0  0  0  0
  -24.2500  -13.1110   20.8690 C   0  0  0  0  0  0  0  0  0  0  0  0
  -24.7020  -11.7580   20.7920 C   0  0  0  0  0  0  0  0  0  0  0  0
  -26.3390  -13.0030   20.1900 N   0  0  0  0  0  0  0  0  0  0  0  0
  -25.9800  -11.7180   20.4380 N   0  0  0  0  0  0  0  0  0  0  0  0
  -23.9800  -10.4960   20.9810 C   0  0  0  0  0  0  0  0  0  0  0  0
  -24.4170   -9.5310   21.9150 C   0  0  0  0  0  3  0  0  0  0  0  0
  -23.6960   -8.3300   22.0900 C   0  0  0  0  0  3  0  0  0  0  0  0
  -22.5270   -8.0860   21.3320 C   0  0  0  0  0  0  0  0  0  0  0  0
  -22.1110   -9.0400   20.3870 C   0  0  0  0  0  3  0  0  0  0  0  0
  -22.8320  -10.2330   20.2100 C   0  0  0  0  0  3  0  0  0  0  0  0
  -21.7760   -6.9380   21.4180 O   0  0  0  0  0  0  0  0  0  0  0  0
  -21.6860   -6.2240   22.5860 C   0  0  0  0  0  0  0  0  0  0  0  0
  -21.1690   -6.7940   23.7720 C   0  0  0  0  0  3  0  0  0  0  0  0
  -21.0320   -6.0040   24.9300 C   0  0  0  0  0  3  0  0  0  0  0  0
  -21.3940   -4.6430   24.9040 C   0  0  0  0  0  0  0  0  0  0  0  0
  -21.8980   -4.0720   23.7220 C   0  0  0  0  0  3  0  0  0  0  0  0
  -22.0410   -4.8590   22.5660 C   0  0  0  0  0  0  0  0  0  0  0  0
  -22.5100   -4.2990   21.4250 F   0  0  0  0  0  0  0  0  0  0  0  0
  -21.2530   -3.8820   26.0140 F   0  0  0  0  0  0  0  0  0  0  0  0
  -22.8650  -13.5890   21.1950 C   0  0  0  0  0  0  0  0  0  0  0  0
  -22.1570  -12.8740   22.0630 N   0  0  0  0  0  0  0  0  0  0  0  0
  -22.4190  -14.6280   20.7130 O   0  0  0  0  0  0  0  0  0  0  0  0
  -22.5340  -12.0390   22.4860 H   0  0  0  0  0  0  0  0  0  0  0  0
  -21.2210  -13.1720   22.3060 H   0  0  0  0  0  0  0  0  0  0  0  0
  -25.4820  -15.2600   20.3280 N   0  0  0  0  0  0  0  0  0  0  0  0
  -24.7370  -15.9230   20.5050 H   0  0  0  0  0  0  0  0  0  0  0  0
  -26.3280  -15.6940   19.9810 H   0  0  0  0  0  0  0  0  0  0  0  0
  -28.6230  -22.9700   19.5550 N   0  0  0  0  0  4  0  0  0  0  0  0
  -27.7400  -22.7580   19.9910 H   0  0  0  0  0  0  0  0  0  0  0  0
  -28.6150  -22.5080   18.6580 H   0  0  0  0  0  0  0  0  0  0  0  0
  -28.7280  -24.4440   19.3200 C   0  0  0  0  0  2  0  0  0  0  0  0
  -28.3620  -25.3290   20.5360 C   0  0  0  0  0  2  0  0  0  0  0  0
  -28.4430  -26.7350   20.2120 O   0  0  0  0  0  0  0  0  0  0  0  0
  -24.5930  -31.9080   23.2280 C   0  0  0  0  0  0  0  0  0  0  0  0
  -27.2630  -27.4530   20.1900 C   0  0  0  0  0  0  0  0  0  0  0  0
  -23.3980  -30.4920   21.5910 C   0  0  0  0  0  3  0  0  0  0  0  0
  -24.8610  -28.9510   20.1810 C   0  0  0  0  0  0  0  0  0  0  0  0
  -25.9240  -30.8620   21.3940 C   0  0  0  0  0  2  0  0  0  0  0  0
  -26.0170  -29.4880   20.7600 C   0  0  0  0  0  0  0  0  0  0  0  0
  -27.2230  -28.7510   20.7530 C   0  0  0  0  0  3  0  0  0  0  0  0
  -26.0890  -26.9260   19.6060 C   0  0  0  0  0  3  0  0  0  0  0  0
  -24.8930  -27.6690   19.5990 C   0  0  0  0  0  3  0  0  0  0  0  0
  -23.6140  -29.8050   20.2150 C   0  0  0  0  0  2  0  0  0  0  0  0
  -24.6570  -31.1030   22.1280 N   0  0  0  0  0  0  0  0  0  0  0  0
  -23.5100  -32.1770   23.7650 O   0  0  0  0  0  0  0  0  0  0  0  0
  -22.7530  -29.4730   22.5570 C   0  0  0  0  0  0  0  0  0  0  0  0
  -21.4300  -29.2800   22.4290 N   0  0  0  0  0  0  0  0  0  0  0  0
  -23.4400  -28.8560   23.3760 O   0  0  0  0  0  0  0  0  0  0  0  0
  -20.9380  -29.8280   21.7360 H   0  0  0  0  0  0  0  0  0  0  0  0
  -18.0590  -28.0870   22.9540 C   0  0  0  0  0  0  0  0  0  0  0  0
  -20.6190  -28.3430   23.2050 C   0  0  0  0  0  3  0  0  0  0  0  0
  -20.7180  -26.9130   22.6280 C   0  0  0  0  0  2  0  0  0  0  0  0
  -19.6080  -26.5920   21.6220 C   0  0  0  0  0  2  0  0  0  0  0  0
  -18.2300  -26.7380   22.2760 C   0  0  0  0  0  2  0  0  0  0  0  0
  -19.1830  -28.8460   23.3780 C   0  0  0  0  0  0  0  0  0  0  0  0
  -18.9700  -30.1090   23.9730 C   0  0  0  0  0  3  0  0  0  0  0  0
  -17.6680  -30.6110   24.1520 C   0  0  0  0  0  3  0  0  0  0  0  0
  -16.5590  -29.8490   23.7430 C   0  0  0  0  0  3  0  0  0  0  0  0
  -16.7560  -28.5890   23.1500 C   0  0  0  0  0  3  0  0  0  0  0  0
  -25.8770  -32.5490   23.8450 C   0  0  0  0  0  3  0  0  0  0  0  0
  -26.4040  -31.7850   25.1210 C   0  0  1  0  0  0  0  0  0  0  0  0
  -25.3130  -31.5340   26.1900 C   0  0  0  0  0  1  0  0  0  0  0  0
  -27.0030  -30.4120   24.7310 C   0  0  0  0  0  1  0  0  0  0  0  0
  -27.5460  -32.5900   25.7830 C   0  0  0  0  0  1  0  0  0  0  0  0
  -25.5590  -33.9460   24.1740 N   0  0  0  0  0  0  0  0  0  0  0  0
  -25.8950  -34.9990   23.4190 C   0  0  0  0  0  0  0  0  0  0  0  0
  -26.5770  -34.8980   22.3950 O   0  0  0  0  0  0  0  0  0  0  0  0
  -24.9580  -34.0980   24.9680 H   0  0  0  0  0  0  0  0  0  0  0  0
  -24.1780  -36.7940   23.0250 C   0  0  0  0  0  1  0  0  0  0  0  0
  -25.3960  -36.3850   23.8690 C   0  0  0  0  0  3  0  0  0  0  0  0
  -27.5020  -37.2660   24.7690 C   0  0  0  0  0  1  0  0  0  0  0  0
  -26.4320  -37.4380   23.7910 N   0  0  0  0  0  0  0  0  0  0  0  0
  -26.0230  -38.3580   23.9250 H   0  0  0  0  0  0  0  0  0  0  0  0
  2  4  1  0
  2  5  1  0
  2  3  1  0
  3 50  1  0
  3  1  1  0
  4  6  1  0
  4  7  1  0
  7 20  1  0
  7  1  1  0
  9 14  1  0
 10 11  1  0
 10  9  1  0
 12 11  1  0
 12 25  1  0
 12 13  1  0
 14  8  1  0
 14 13  1  0
 15  8  2  0
 16 18  1  0
 19 17  1  0
 19 21  1  0
 20 17  1  0
 20 16  1  0
 21  8  1  0
 21 18  1  0
 22 23  2  0
 23 42  1  0
 24 23  1  0
 24 27  1  0
 25 26  1  0
 25 22  1  0
 26 24  2  0
 27 28  1  0
 28 29  2  0
 30 33  1  0
 30 29  1  0
 31 30  2  0
 32 31  1  0
 32 27  2  0
 33 34  1  0
 34 35  1  0
 35 36  2  0
 37 36  1  0
 37 41  1  0
 38 37  2  0
 39 34  2  0
 39 38  1  0
 40 39  1  0
 42 43  1  0
 43 46  1  0
 43 45  1  0
 44 42  2  0
 47 22  1  0
 47 48  1  0
 49 47  1  0
 50 51  1  0
 52 50  1  0
 53 50  1  0
 53 54  1  0
 55 54  1  0
 56 67  2  0
 57 55  1  0
 57 62  1  0
 58 66  1  0
 58 68  1  0
 59 65  1  0
 59 61  1  0
 60 66  1  0
 61 60  1  0
 62 61  2  0
 63 57  2  0
 64 63  1  0
 64 59  2  0
 65 58  1  0
 66 56  1  0
 68 70  2  0
 69 68  1  0
 71 69  1  0
 72 81  2  0
 72 77  1  0
 73 69  1  0
 73 77  1  0
 74 73  1  0
 75 76  1  0
 75 74  1  0
 76 72  1  0
 77 78  2  0
 78 79  1  0
 80 79  2  0
 81 80  1  0
 82 56  1  0
 82 87  1  0
 82 83  1  0
 83 86  1  1
 83 84  1  0
 85 83  1  0
 87 90  1  0
 88 92  1  0
 88 87  1  0
 89 88  2  0
 92 91  1  0
 94 92  1  0
 94 95  1  0
 94 93  1  0
M  ISO  4   8 100  21 100  54 101  55 101
M  END
>  <TORSDO>  (17) 
F 19

>  <SCORE>  (17) 
-14.210

>  <name>  (17) 
16

>  <ligand_id>  (17) 
16

>  <original_smiles>  (17) 
[H]c1c([H])c([H])c2c(c1[H])C([H])([H])C([H])([H])C([H])([H])C2([H])N([H])C(=O)C1([H])N(C(=O)C([H])(N([H])C(=O)C([H])(N([H])C([H])([H])[H])C([H])([H])[H])C(C([H])([H])[H])(C([H])([H])[H])C([H])([H])[H])C([H])([H])c2c([H])c(OC([H])([H])C([H])([H])[N+]([H])([H])C3([H])C([H])([H])N(C4([H])C([H])([H])C([H])([H])N(C(=O)N5C([H])([H])C([H])([H])C([H])([H])C([H])(n6nc(-c7c([H])c([H])c(Oc8c([H])c([H])c(F)c([H])c8F)c([H])c7[H])c(C(=O)N([H])[H])c6N([H])[H])C5([H])[H])C([H])([H])C4([H])[H])C([H])(C([H])([H])[H])C3([H])C([H])([H])[H])c([H])c([H])c2C1([H])[H]

>  <smiles>  (17) 
[H]c1c([H])c([H])c2c(c1[H])C([H])([H])C([H])([H])C([H])([H])C2([H])N([H])C(=O)C1([H])N(C(=O)C([H])(N([H])C(=O)C([H])(N([H])C([H])([H])[H])C([H])([H])[H])C(C([H])([H])[H])(C([H])([H])[H])C([H])([H])[H])C([H])([H])c2c([H])c(OC([H])([H])C([H])([H])[N+]([H])([H])C3([H])C([H])([H])N(C4([H])C([H])([H])C([H])([H])N(C(=O)N5C([H])([H])C([H])([H])C([H])([H])C([H])(n6nc(-c7c([H])c([H])c(Oc8c([H])c([H])c(F)c([H])c8F)c([H])c7[H])c(C(=O)N([H])[H])c6N([H])[H])C5([H])[H])C([H])([H])C4([H])[H])C([H])(C([H])([H])[H])C3([H])C([H])([H])[H])c([H])c([H])c2C1([H])[H]

$$$$
17:0:0
     RDKit          3D

 94103  0  0  1  0  0  0  0  0999 V2000
  -30.0350  -21.5800   21.5660 C   0  0  0  0  0  0  0  0  0  0  0  0
  -29.5260  -20.6460   20.6300 C   0  0  0  0  0  0  0  0  0  0  0  0
  -30.8990  -21.2040   22.6090 C   0  0  0  0  0  0  0  0  0  0  0  0
  -29.9690  -19.1780   20.6850 C   0  0  0  0  0  0  0  0  0  0  0  0
  -31.3350  -19.8650   22.6930 C   0  0  0  0  0  0  0  0  0  0  0  0
  -30.9730  -18.9270   21.6830 C   0  0  0  0  0  0  0  0  0  0  0  0
  -29.6040  -23.0590   21.3870 C   0  0  0  0  0  2  0  0  0  0  0  0
  -28.5970  -21.6290   19.7460 C   0  0  0  0  0  2  0  0  0  0  0  0
  -28.9020  -23.2680   20.0270 C   0  0  2  0  0  0  0  0  0  0  0  0
  -31.4080  -22.2850   23.5650 C   0  0  0  0  0  1  0  0  0  0  0  0
  -32.2350  -19.4360   23.8590 C   0  0  0  0  0  1  0  0  0  0  0  0
  -31.8110  -17.6520   21.6170 C   0  0  0  0  0  1  0  0  0  0  0  0
  -29.9500  -23.6780   18.9720 C   0  0  0  0  0  1  0  0  0  0  0  0
  -29.6280  -17.8250   19.7660 C   0  0  0  0  0  2  0  0  0  0  0  0
  -30.3550  -15.0750   19.8780 C   0  0  0  0  0  0  0  0  0  0  0  0
  -30.1770  -12.7270   18.9270 C   0  0  0  0  0  2  0  0  0  0  0  0
  -29.1710  -12.7130   17.7530 C   0  0  0  0  0  2  0  0  0  0  0  0
  -27.7390  -12.4860   18.2680 C   0  0  0  0  0  2  0  0  0  0  0  0
  -27.4100  -13.3690   19.5010 C   0  0  0  0  0  3  0  0  0  0  0  0
  -28.5370  -13.3660   20.5570 C   0  0  0  0  0  2  0  0  0  0  0  0
  -29.7670  -13.8050   19.8810 N   0  0  0  0  0  0  0  0  0  0  0  0
  -31.5050  -15.1320   19.4280 O   0  0  0  0  0  0  0  0  0  0  0  0
  -29.6150  -16.2660   20.1860 N   0  0  0  0  0  0  0  0  0  0  0  0
  -28.7380  -16.0260   20.6240 H   0  0  0  0  0  0  0  0  0  0  0  0
  -25.0800  -13.9080   20.4020 C   0  0  0  0  0  0  0  0  0  0  0  0
  -24.0470  -13.1180   20.8230 C   0  0  0  0  0  0  0  0  0  0  0  0
  -24.5170  -11.7720   20.7370 C   0  0  0  0  0  0  0  0  0  0  0  0
  -26.1100  -13.0440   20.0770 N   0  0  0  0  0  0  0  0  0  0  0  0
  -25.7860  -11.7520   20.3450 N   0  0  0  0  0  0  0  0  0  0  0  0
  -23.8100  -10.5000   20.9470 C   0  0  0  0  0  0  0  0  0  0  0  0
  -24.2770   -9.5400   21.8700 C   0  0  0  0  0  3  0  0  0  0  0  0
  -23.5690   -8.3360   22.0700 C   0  0  0  0  0  3  0  0  0  0  0  0
  -22.3800   -8.0820   21.3460 C   0  0  0  0  0  0  0  0  0  0  0  0
  -21.9320   -9.0320   20.4110 C   0  0  0  0  0  3  0  0  0  0  0  0
  -22.6410  -10.2280   20.2090 C   0  0  0  0  0  3  0  0  0  0  0  0
  -21.6390   -6.9310   21.4570 O   0  0  0  0  0  0  0  0  0  0  0  0
  -21.6030   -6.2060   22.6200 C   0  0  0  0  0  0  0  0  0  0  0  0
  -21.1720   -6.7750   23.8380 C   0  0  0  0  0  3  0  0  0  0  0  0
  -21.0840   -5.9770   24.9970 C   0  0  0  0  0  3  0  0  0  0  0  0
  -21.4160   -4.6110   24.9380 C   0  0  0  0  0  0  0  0  0  0  0  0
  -21.8400   -4.0410   23.7240 C   0  0  0  0  0  3  0  0  0  0  0  0
  -21.9300   -4.8360   22.5690 C   0  0  0  0  0  0  0  0  0  0  0  0
  -22.3180   -4.2770   21.3980 F   0  0  0  0  0  0  0  0  0  0  0  0
  -21.3240   -3.8410   26.0490 F   0  0  0  0  0  0  0  0  0  0  0  0
  -22.6670  -13.5790   21.1890 C   0  0  0  0  0  0  0  0  0  0  0  0
  -22.0000  -12.8610   22.0850 N   0  0  0  0  0  0  0  0  0  0  0  0
  -22.1910  -14.6120   20.7160 O   0  0  0  0  0  0  0  0  0  0  0  0
  -22.4010  -12.0260   22.4870 H   0  0  0  0  0  0  0  0  0  0  0  0
  -21.0750  -13.1470   22.3730 H   0  0  0  0  0  0  0  0  0  0  0  0
  -25.2230  -15.2840   20.2400 N   0  0  0  0  0  0  0  0  0  0  0  0
  -24.4620  -15.9320   20.4090 H   0  0  0  0  0  0  0  0  0  0  0  0
  -26.0330  -15.7280   19.8270 H   0  0  0  0  0  0  0  0  0  0  0  0
  -27.7830  -24.5790   20.0230 C   0  0  0  0  0  2  0  0  0  0  0  0
  -28.0320  -26.1400   20.1450 O   0  0  0  0  0  0  0  0  0  0  0  0
  -24.4720  -31.9040   23.2000 C   0  0  0  0  0  0  0  0  0  0  0  0
  -26.9730  -27.1410   20.1170 C   0  0  0  0  0  0  0  0  0  0  0  0
  -23.2320  -30.5010   21.5970 C   0  0  0  0  0  3  0  0  0  0  0  0
  -24.6450  -28.9160   20.1420 C   0  0  0  0  0  0  0  0  0  0  0  0
  -25.7840  -30.7560   21.3680 C   0  0  0  0  0  2  0  0  0  0  0  0
  -25.8420  -29.3570   20.7180 C   0  0  0  0  0  0  0  0  0  0  0  0
  -27.0050  -28.4870   20.6840 C   0  0  0  0  0  3  0  0  0  0  0  0
  -25.7410  -26.8110   19.5100 C   0  0  0  0  0  3  0  0  0  0  0  0
  -24.6090  -27.6570   19.5230 C   0  0  0  0  0  3  0  0  0  0  0  0
  -23.4210  -29.8180   20.2160 C   0  0  0  0  0  2  0  0  0  0  0  0
  -24.5180  -31.0760   22.1110 N   0  0  0  0  0  0  0  0  0  0  0  0
  -23.3980  -32.1920   23.7520 O   0  0  0  0  0  0  0  0  0  0  0  0
  -22.5750  -29.5000   22.5810 C   0  0  0  0  0  0  0  0  0  0  0  0
  -21.2500  -29.3030   22.4670 N   0  0  0  0  0  0  0  0  0  0  0  0
  -23.2630  -28.8990   23.4110 O   0  0  0  0  0  0  0  0  0  0  0  0
  -20.7470  -29.8390   21.7730 H   0  0  0  0  0  0  0  0  0  0  0  0
  -17.9030  -28.0150   22.9870 C   0  0  0  0  0  0  0  0  0  0  0  0
  -20.4510  -28.3640   23.2600 C   0  0  0  0  0  3  0  0  0  0  0  0
  -20.6020  -26.9200   22.7280 C   0  0  0  0  0  2  0  0  0  0  0  0
  -19.5170  -26.5360   21.7170 C   0  0  0  0  0  2  0  0  0  0  0  0
  -18.1260  -26.6550   22.3480 C   0  0  0  0  0  2  0  0  0  0  0  0
  -18.9950  -28.8240   23.4020 C   0  0  0  0  0  0  0  0  0  0  0  0
  -18.7320  -30.0920   23.9610 C   0  0  0  0  0  3  0  0  0  0  0  0
  -17.4110  -30.5550   24.1080 C   0  0  0  0  0  3  0  0  0  0  0  0
  -16.3330  -29.7450   23.7090 C   0  0  0  0  0  3  0  0  0  0  0  0
  -16.5800  -28.4770   23.1540 C   0  0  0  0  0  3  0  0  0  0  0  0
  -25.7630  -32.5440   23.7950 C   0  0  0  0  0  3  0  0  0  0  0  0
  -25.4560  -33.9420   24.1380 N   0  0  0  0  0  0  0  0  0  0  0  0
  -25.7530  -35.0020   23.3740 C   0  0  0  0  0  0  0  0  0  0  0  0
  -26.3820  -34.9050   22.3160 O   0  0  0  0  0  0  0  0  0  0  0  0
  -24.8920  -34.0920   24.9610 H   0  0  0  0  0  0  0  0  0  0  0  0
  -23.9960  -36.7850   23.1130 C   0  0  0  0  0  1  0  0  0  0  0  0
  -25.2800  -36.3870   23.8580 C   0  0  0  0  0  3  0  0  0  0  0  0
  -27.4450  -37.2900   24.5810 C   0  0  0  0  0  1  0  0  0  0  0  0
  -26.2970  -37.4480   23.6930 N   0  0  0  0  0  0  0  0  0  0  0  0
  -25.8910  -38.3640   23.8610 H   0  0  0  0  0  0  0  0  0  0  0  0
  -26.3080  -31.7770   25.0620 C   0  0  1  0  0  0  0  0  0  0  0  0
  -25.2370  -31.5370   26.1510 C   0  0  0  0  0  1  0  0  0  0  0  0
  -26.8890  -30.4010   24.6630 C   0  0  0  0  0  1  0  0  0  0  0  0
  -27.4680  -32.5780   25.7000 C   0  0  0  0  0  1  0  0  0  0  0  0
  1  3  1  0
  2  4  1  0
  2  1  2  0
  3  5  2  0
  3 10  1  0
  4  6  2  0
  5 11  1  0
  6  5  1  0
  7  1  1  0
  8  9  1  0
  8  2  1  0
  9 13  1  6
  9  7  1  0
 12  6  1  0
 14 23  1  0
 14  4  1  0
 15 21  1  0
 15 23  1  0
 16 21  1  0
 17 18  1  0
 17 16  1  0
 19 18  1  0
 19 28  1  0
 19 20  1  0
 21 20  1  0
 22 15  2  0
 23 24  1  0
 25 26  2  0
 26 45  1  0
 27 26  1  0
 27 30  1  0
 28 29  1  0
 28 25  1  0
 29 27  2  0
 30 31  1  0
 31 32  2  0
 33 36  1  0
 33 32  1  0
 34 33  2  0
 35 34  1  0
 35 30  2  0
 36 37  1  0
 37 38  1  0
 38 39  2  0
 40 39  1  0
 40 44  1  0
 41 40  2  0
 42 37  2  0
 42 41  1  0
 43 42  1  0
 45 46  1  0
 46 49  1  0
 46 48  1  0
 47 45  2  0
 50 25  1  0
 50 51  1  0
 52 50  1  0
 53  9  1  0
 53 54  1  0
 55 66  2  0
 56 54  1  0
 56 61  1  0
 57 65  1  0
 57 67  1  0
 58 64  1  0
 58 60  1  0
 59 65  1  0
 60 59  1  0
 61 60  2  0
 62 63  1  0
 62 56  2  0
 63 58  2  0
 64 57  1  0
 65 55  1  0
 67 69  2  0
 68 67  1  0
 70 68  1  0
 71 80  2  0
 71 76  1  0
 72 68  1  0
 72 76  1  0
 73 72  1  0
 74 75  1  0
 74 73  1  0
 75 71  1  0
 76 77  2  0
 77 78  1  0
 79 78  2  0
 80 79  1  0
 81 55  1  0
 81 82  1  0
 81 91  1  0
 82 85  1  0
 83 87  1  0
 83 82  1  0
 84 83  2  0
 87 86  1  0
 89 87  1  0
 89 90  1  0
 89 88  1  0
 91 94  1  1
 91 92  1  0
 93 91  1  0
M  ISO  4  15 100  23 100  53 101  54 101
M  END
>  <TORSDO>  (18) 
F 18

>  <SCORE>  (18) 
-13.410

>  <name>  (18) 
17

>  <ligand_id>  (18) 
17

>  <original_smiles>  (18) 
[H]c1c([H])c([H])c2c(c1[H])C([H])([H])C([H])([H])C([H])([H])C2([H])N([H])C(=O)C1([H])N(C(=O)C([H])(N([H])C(=O)C([H])(N([H])C([H])([H])[H])C([H])([H])[H])C(C([H])([H])[H])(C([H])([H])[H])C([H])([H])[H])C([H])([H])c2c([H])c(OC([H])([H])C3(C([H])([H])[H])C([H])([H])c4c(C([H])([H])[H])c(C([H])([H])[H])c(C([H])([H])[H])c(C([H])([H])N([H])C(=O)N5C([H])([H])C([H])([H])C([H])([H])C([H])(n6nc(-c7c([H])c([H])c(Oc8c([H])c([H])c(F)c([H])c8F)c([H])c7[H])c(C(=O)N([H])[H])c6N([H])[H])C5([H])[H])c4C3([H])[H])c([H])c([H])c2C1([H])[H]

>  <smiles>  (18) 
[H]c1c([H])c([H])c2c(c1[H])C([H])([H])C([H])([H])C([H])([H])C2([H])N([H])C(=O)C1([H])N(C(=O)C([H])(N([H])C(=O)C([H])(N([H])C([H])([H])[H])C([H])([H])[H])C(C([H])([H])[H])(C([H])([H])[H])C([H])([H])[H])C([H])([H])c2c([H])c(OC([H])([H])C3(C([H])([H])[H])C([H])([H])c4c(C([H])([H])[H])c(C([H])([H])[H])c(C([H])([H])[H])c(C([H])([H])N([H])C(=O)N5C([H])([H])C([H])([H])C([H])([H])C([H])(n6nc(-c7c([H])c([H])c(Oc8c([H])c([H])c(F)c([H])c8F)c([H])c7[H])c(C(=O)N([H])[H])c6N([H])[H])C5([H])[H])c4C3([H])[H])c([H])c([H])c2C1([H])[H]

$$$$
18:0:0
     RDKit          3D

 94103  0  0  1  0  0  0  0  0999 V2000
  -31.9510  -20.9760   19.5250 C   0  0  0  0  0  3  0  0  0  0  0  0
  -31.7550  -19.6350   19.8810 C   0  0  0  0  0  0  0  0  0  0  0  0
  -30.4670  -19.0900   20.1700 C   0  0  0  0  0  0  0  0  0  0  0  0
  -30.9220  -21.9220   19.5940 C   0  0  0  0  0  0  0  0  0  0  0  0
  -29.4050  -20.1090   20.2790 C   0  0  0  0  0  0  0  0  0  0  0  0
  -29.6230  -21.5540   20.0180 C   0  0  0  0  0  0  0  0  0  0  0  0
  -33.0190  -18.8030   20.1030 C   0  0  0  0  0  2  0  0  0  0  0  0
  -32.9660  -18.0250   21.4420 C   0  0  0  0  0  2  0  0  0  0  0  0
  -31.5670  -17.4670   21.8020 C   0  0  0  0  0  2  0  0  0  0  0  0
  -30.6150  -17.5160   20.5890 C   0  0  0  0  0  3  0  0  0  0  0  0
  -31.3220  -23.3590   19.3490 C   0  0  0  0  0  1  0  0  0  0  0  0
  -28.0440  -19.6740   20.7810 C   0  0  0  0  0  1  0  0  0  0  0  0
  -30.4550  -14.9750   20.0360 C   0  0  0  0  0  0  0  0  0  0  0  0
  -30.1290  -12.7560   18.9180 C   0  0  0  0  0  2  0  0  0  0  0  0
  -29.1250  -12.8720   17.7550 C   0  0  0  0  0  2  0  0  0  0  0  0
  -27.6890  -12.6660   18.2730 C   0  0  0  0  0  2  0  0  0  0  0  0
  -27.3910  -13.4880   19.5560 C   0  0  0  0  0  3  0  0  0  0  0  0
  -28.5220  -13.3920   20.6020 C   0  0  0  0  0  2  0  0  0  0  0  0
  -29.7630  -13.7840   19.9280 N   0  0  0  0  0  0  0  0  0  0  0  0
  -31.6220  -14.9900   19.6370 O   0  0  0  0  0  0  0  0  0  0  0  0
  -29.8420  -16.1880   20.4120 N   0  0  0  0  0  0  0  0  0  0  0  0
  -28.8680  -16.1710   20.6740 H   0  0  0  0  0  0  0  0  0  0  0  0
  -25.0420  -13.9930   20.4380 C   0  0  0  0  0  0  0  0  0  0  0  0
  -24.0210  -13.1850   20.8570 C   0  0  0  0  0  0  0  0  0  0  0  0
  -24.5200  -11.8460   20.7820 C   0  0  0  0  0  0  0  0  0  0  0  0
  -26.0920  -13.1470   20.1260 N   0  0  0  0  0  0  0  0  0  0  0  0
  -25.7910  -11.8500   20.3980 N   0  0  0  0  0  0  0  0  0  0  0  0
  -23.8370  -10.5630   20.9960 C   0  0  0  0  0  0  0  0  0  0  0  0
  -24.3250   -9.6120   21.9180 C   0  0  0  0  0  3  0  0  0  0  0  0
  -23.6390   -8.3940   22.1190 C   0  0  0  0  0  3  0  0  0  0  0  0
  -22.4510   -8.1210   21.4010 C   0  0  0  0  0  0  0  0  0  0  0  0
  -21.9830   -9.0620   20.4650 C   0  0  0  0  0  3  0  0  0  0  0  0
  -22.6710  -10.2690   20.2630 C   0  0  0  0  0  3  0  0  0  0  0  0
  -21.7330   -6.9540   21.5130 O   0  0  0  0  0  0  0  0  0  0  0  0
  -21.7250   -6.2230   22.6730 C   0  0  0  0  0  0  0  0  0  0  0  0
  -21.3050   -6.7770   23.9020 C   0  0  0  0  0  3  0  0  0  0  0  0
  -21.2460   -5.9710   25.0550 C   0  0  0  0  0  3  0  0  0  0  0  0
  -21.6000   -4.6100   24.9820 C   0  0  0  0  0  0  0  0  0  0  0  0
  -22.0130   -4.0540   23.7590 C   0  0  0  0  0  3  0  0  0  0  0  0
  -22.0730   -4.8590   22.6070 C   0  0  0  0  0  0  0  0  0  0  0  0
  -22.4530   -4.3130   21.4260 F   0  0  0  0  0  0  0  0  0  0  0  0
  -21.5350   -3.8320   26.0880 F   0  0  0  0  0  0  0  0  0  0  0  0
  -22.6310  -13.6210   21.2120 C   0  0  0  0  0  0  0  0  0  0  0  0
  -21.9700  -12.8950   22.1060 N   0  0  0  0  0  0  0  0  0  0  0  0
  -22.1410  -14.6430   20.7320 O   0  0  0  0  0  0  0  0  0  0  0  0
  -22.3830  -12.0690   22.5140 H   0  0  0  0  0  0  0  0  0  0  0  0
  -21.0390  -13.1680   22.3850 H   0  0  0  0  0  0  0  0  0  0  0  0
  -25.1590  -15.3700   20.2700 N   0  0  0  0  0  0  0  0  0  0  0  0
  -24.3770  -15.9970   20.4270 H   0  0  0  0  0  0  0  0  0  0  0  0
  -25.9650  -15.8360   19.8750 H   0  0  0  0  0  0  0  0  0  0  0  0
  -28.7400  -22.6240   20.4020 O   0  0  0  0  0  0  0  0  0  0  0  0
  -28.1290  -23.6960   19.5250 C   0  0  0  0  0  2  0  0  0  0  0  0
  -28.5410  -25.2700   19.2220 C   0  0  0  0  0  2  0  0  0  0  0  0
  -28.3300  -26.5390   20.0070 O   0  0  0  0  0  0  0  0  0  0  0  0
  -24.6580  -31.9190   23.1610 C   0  0  0  0  0  0  0  0  0  0  0  0
  -27.2160  -27.4110   19.9240 C   0  0  0  0  0  0  0  0  0  0  0  0
  -23.4270  -30.5660   21.5020 C   0  0  0  0  0  3  0  0  0  0  0  0
  -24.8540  -29.0550   19.9930 C   0  0  0  0  0  0  0  0  0  0  0  0
  -25.9640  -30.8800   21.2860 C   0  0  0  0  0  2  0  0  0  0  0  0
  -26.0310  -29.5180   20.5920 C   0  0  0  0  0  0  0  0  0  0  0  0
  -27.2080  -28.7040   20.5550 C   0  0  0  0  0  3  0  0  0  0  0  0
  -26.0180  -27.0110   19.3000 C   0  0  0  0  0  3  0  0  0  0  0  0
  -24.8520  -27.8080   19.3400 C   0  0  0  0  0  3  0  0  0  0  0  0
  -23.6180  -29.9310   20.0970 C   0  0  0  0  0  2  0  0  0  0  0  0
  -24.7030  -31.1390   22.0400 N   0  0  0  0  0  0  0  0  0  0  0  0
  -23.5840  -32.1780   23.7240 O   0  0  0  0  0  0  0  0  0  0  0  0
  -22.7820  -29.5220   22.4460 C   0  0  0  0  0  0  0  0  0  0  0  0
  -21.4540  -29.3420   22.3400 N   0  0  0  0  0  0  0  0  0  0  0  0
  -23.4770  -28.8780   23.2360 O   0  0  0  0  0  0  0  0  0  0  0  0
  -20.9470  -29.9180   21.6810 H   0  0  0  0  0  0  0  0  0  0  0  0
  -18.0960  -28.1000   22.8650 C   0  0  0  0  0  0  0  0  0  0  0  0
  -20.6560  -28.3770   23.0990 C   0  0  0  0  0  3  0  0  0  0  0  0
  -20.7610  -26.9610   22.4860 C   0  0  0  0  0  2  0  0  0  0  0  0
  -19.6460  -26.6550   21.4810 C   0  0  0  0  0  2  0  0  0  0  0  0
  -18.2740  -26.7720   22.1500 C   0  0  0  0  0  2  0  0  0  0  0  0
  -19.2150  -28.8610   23.2970 C   0  0  0  0  0  0  0  0  0  0  0  0
  -18.9940  -30.1050   23.9260 C   0  0  0  0  0  3  0  0  0  0  0  0
  -17.6870  -30.5890   24.1270 C   0  0  0  0  0  3  0  0  0  0  0  0
  -16.5830  -29.8260   23.7110 C   0  0  0  0  0  3  0  0  0  0  0  0
  -16.7890  -28.5830   23.0840 C   0  0  0  0  0  3  0  0  0  0  0  0
  -25.9500  -32.5410   23.7760 C   0  0  0  0  0  3  0  0  0  0  0  0
  -26.4900  -31.7400   25.0250 C   0  0  1  0  0  0  0  0  0  0  0  0
  -25.4150  -31.4770   26.1050 C   0  0  0  0  0  1  0  0  0  0  0  0
  -27.0680  -30.3730   24.5920 C   0  0  0  0  0  1  0  0  0  0  0  0
  -27.6510  -32.5190   25.6870 C   0  0  0  0  0  1  0  0  0  0  0  0
  -25.6440  -33.9290   24.1520 N   0  0  0  0  0  0  0  0  0  0  0  0
  -25.9710  -35.0060   23.4240 C   0  0  0  0  0  0  0  0  0  0  0  0
  -26.6310  -34.9340   22.3830 O   0  0  0  0  0  0  0  0  0  0  0  0
  -25.0600  -34.0590   24.9650 H   0  0  0  0  0  0  0  0  0  0  0  0
  -24.2510  -36.8180   23.1350 C   0  0  0  0  0  1  0  0  0  0  0  0
  -25.4910  -36.3800   23.9310 C   0  0  0  0  0  3  0  0  0  0  0  0
  -27.6280  -37.2270   24.7930 C   0  0  0  0  0  1  0  0  0  0  0  0
  -26.5290  -37.4320   23.8540 N   0  0  0  0  0  0  0  0  0  0  0  0
  -26.1260  -38.3480   24.0330 H   0  0  0  0  0  0  0  0  0  0  0  0
  1  4  2  0
  1  2  1  0
  2  7  1  0
  2  3  2  0
  3  5  1  0
  3 10  1  0
  4  6  1  0
  5 12  1  0
  6  5  2  0
  6 51  1  0
  7  8  1  0
  8  9  1  0
 10 21  1  0
 10  9  1  0
 11  4  1  0
 13 21  1  0
 14 19  1  0
 15 16  1  0
 15 14  1  0
 17 16  1  0
 17 26  1  0
 17 18  1  0
 19 13  1  0
 19 18  1  0
 20 13  2  0
 21 22  1  0
 23 24  2  0
 24 43  1  0
 25 24  1  0
 25 28  1  0
 26 27  1  0
 26 23  1  0
 27 25  2  0
 28 29  1  0
 29 30  2  0
 31 34  1  0
 31 30  1  0
 32 31  2  0
 33 32  1  0
 33 28  2  0
 34 35  1  0
 35 36  1  0
 36 37  2  0
 38 37  1  0
 38 42  1  0
 39 38  2  0
 40 35  2  0
 40 39  1  0
 41 40  1  0
 43 44  1  0
 44 47  1  0
 44 46  1  0
 45 43  2  0
 48 49  1  0
 48 23  1  0
 50 48  1  0
 52 51  1  0
 53 52  1  0
 53 54  1  0
 55 66  2  0
 56 54  1  0
 56 61  1  0
 57 65  1  0
 57 67  1  0
 58 64  1  0
 58 60  1  0
 59 65  1  0
 60 59  1  0
 61 60  2  0
 62 63  1  0
 62 56  2  0
 63 58  2  0
 64 57  1  0
 65 55  1  0
 67 69  2  0
 68 67  1  0
 70 68  1  0
 71 80  2  0
 71 76  1  0
 72 68  1  0
 72 76  1  0
 73 72  1  0
 74 75  1  0
 74 73  1  0
 75 71  1  0
 76 77  2  0
 77 78  1  0
 79 78  2  0
 80 79  1  0
 81 55  1  0
 81 86  1  0
 81 82  1  0
 82 85  1  1
 82 83  1  0
 84 82  1  0
 86 89  1  0
 87 91  1  0
 87 86  1  0
 88 87  2  0
 91 90  1  0
 93 91  1  0
 93 94  1  0
 93 92  1  0
M  ISO  4  13 100  21 100  53 101  54 101
M  END
>  <TORSDO>  (19) 
F 19

>  <SCORE>  (19) 
-12.740

>  <name>  (19) 
18

>  <ligand_id>  (19) 
18

>  <original_smiles>  (19) 
[H]c1c([H])c([H])c2c(c1[H])C([H])([H])C([H])([H])C([H])([H])C2([H])N([H])C(=O)C1([H])N(C(=O)C([H])(N([H])C(=O)C([H])(N([H])C([H])([H])[H])C([H])([H])[H])C(C([H])([H])[H])(C([H])([H])[H])C([H])([H])[H])C([H])([H])c2c([H])c(OC([H])([H])C([H])([H])Oc3c(C([H])([H])[H])c([H])c4c(c3C([H])([H])[H])C([H])(N([H])C(=O)N3C([H])([H])C([H])([H])C([H])([H])C([H])(n5nc(-c6c([H])c([H])c(Oc7c([H])c([H])c(F)c([H])c7F)c([H])c6[H])c(C(=O)N([H])[H])c5N([H])[H])C3([H])[H])C([H])([H])C([H])([H])C4([H])[H])c([H])c([H])c2C1([H])[H]

>  <smiles>  (19) 
[H]c1c([H])c([H])c2c(c1[H])C([H])([H])C([H])([H])C([H])([H])C2([H])N([H])C(=O)C1([H])N(C(=O)C([H])(N([H])C(=O)C([H])(N([H])C([H])([H])[H])C([H])([H])[H])C(C([H])([H])[H])(C([H])([H])[H])C([H])([H])[H])C([H])([H])c2c([H])c(OC([H])([H])C([H])([H])Oc3c(C([H])([H])[H])c([H])c4c(c3C([H])([H])[H])C([H])(N([H])C(=O)N3C([H])([H])C([H])([H])C([H])([H])C([H])(n5nc(-c6c([H])c([H])c(Oc7c([H])c([H])c(F)c([H])c7F)c([H])c6[H])c(C(=O)N([H])[H])c5N([H])[H])C3([H])[H])C([H])([H])C([H])([H])C4([H])[H])c([H])c([H])c2C1([H])[H]

$$$$
19:0:0
     RDKit          3D

103113  0  0  1  0  0  0  0  0999 V2000
  -30.2620  -21.8200   16.2930 C   0  0  0  0  0  2  0  0  0  0  0  0
  -30.7360  -19.8870   20.2220 C   0  0  0  0  0  3  0  0  0  0  0  0
  -29.9020  -19.3000   19.2530 C   0  0  0  0  0  0  0  0  0  0  0  0
  -29.6820  -19.9790   18.0180 C   0  0  0  0  0  0  0  0  0  0  0  0
  -30.4410  -21.1430   17.6820 C   0  0  0  0  0  0  0  0  0  0  0  0
  -31.4310  -21.5880   18.6160 C   0  0  0  0  0  0  0  0  0  0  0  0
  -31.5060  -21.0170   19.9060 C   0  0  0  0  0  0  0  0  0  0  0  0
  -28.6920  -19.3980   17.0060 C   0  0  0  0  0  1  0  0  0  0  0  0
  -32.5100  -22.6090   18.2740 C   0  0  0  0  0  1  0  0  0  0  0  0
  -29.9530  -16.8830   18.4950 C   0  0  0  0  0  2  0  0  0  0  0  0
  -29.4230  -17.8870   19.4880 C   0  0  0  0  0  3  0  0  0  0  0  0
  -30.3650  -16.7650   19.9340 C   0  0  0  0  0  3  0  0  0  0  0  0
  -30.6930  -14.4220   20.4180 C   0  0  0  0  0  0  0  0  0  0  0  0
  -30.3340  -12.2960   19.2740 C   0  0  0  0  0  2  0  0  0  0  0  0
  -29.4090  -12.5710   18.0700 C   0  0  0  0  0  2  0  0  0  0  0  0
  -27.9330  -12.4480   18.4940 C   0  0  0  0  0  2  0  0  0  0  0  0
  -27.6030  -13.2610   19.7730 C   0  0  0  0  0  3  0  0  0  0  0  0
  -28.6550  -13.0170   20.8830 C   0  0  0  0  0  2  0  0  0  0  0  0
  -29.9870  -13.2690   20.3150 N   0  0  0  0  0  0  0  0  0  0  0  0
  -31.8740  -14.5260   20.0910 O   0  0  0  0  0  0  0  0  0  0  0  0
  -29.9400  -15.5260   20.5200 N   0  0  0  0  0  0  0  0  0  0  0  0
  -28.9650  -15.4040   20.7390 H   0  0  0  0  0  0  0  0  0  0  0  0
  -25.1970  -13.8700   20.4520 C   0  0  0  0  0  0  0  0  0  0  0  0
  -24.1260  -13.0930   20.8150 C   0  0  0  0  0  0  0  0  0  0  0  0
  -24.5930  -11.7440   20.7990 C   0  0  0  0  0  0  0  0  0  0  0  0
  -26.2460  -12.9880   20.2420 N   0  0  0  0  0  0  0  0  0  0  0  0
  -25.8870  -11.7080   20.5110 N   0  0  0  0  0  0  0  0  0  0  0  0
  -23.8690  -10.4790   20.9900 C   0  0  0  0  0  0  0  0  0  0  0  0
  -24.2870   -9.5260   21.9430 C   0  0  0  0  0  3  0  0  0  0  0  0
  -23.5640   -8.3260   22.1190 C   0  0  0  0  0  3  0  0  0  0  0  0
  -22.4090   -8.0730   21.3420 C   0  0  0  0  0  0  0  0  0  0  0  0
  -22.0130   -9.0150   20.3770 C   0  0  0  0  0  3  0  0  0  0  0  0
  -22.7360  -10.2070   20.1980 C   0  0  0  0  0  3  0  0  0  0  0  0
  -21.6590   -6.9250   21.4260 O   0  0  0  0  0  0  0  0  0  0  0  0
  -21.5880   -6.1970   22.5850 C   0  0  0  0  0  0  0  0  0  0  0  0
  -21.1150   -6.7600   23.7910 C   0  0  0  0  0  3  0  0  0  0  0  0
  -20.9920   -5.9580   24.9430 C   0  0  0  0  0  3  0  0  0  0  0  0
  -21.3310   -4.5920   24.8900 C   0  0  0  0  0  0  0  0  0  0  0  0
  -21.7960   -4.0290   23.6890 C   0  0  0  0  0  3  0  0  0  0  0  0
  -21.9210   -4.8280   22.5390 C   0  0  0  0  0  0  0  0  0  0  0  0
  -22.3500   -4.2760   21.3790 F   0  0  0  0  0  0  0  0  0  0  0  0
  -21.2050   -3.8180   25.9930 F   0  0  0  0  0  0  0  0  0  0  0  0
  -22.7250  -13.5680   21.0670 C   0  0  0  0  0  0  0  0  0  0  0  0
  -21.9880  -12.8660   21.9220 N   0  0  0  0  0  0  0  0  0  0  0  0
  -22.2920  -14.5920   20.5430 O   0  0  0  0  0  0  0  0  0  0  0  0
  -22.3530  -12.0360   22.3650 H   0  0  0  0  0  0  0  0  0  0  0  0
  -21.0470  -13.1610   22.1370 H   0  0  0  0  0  0  0  0  0  0  0  0
  -25.3570  -15.2370   20.2640 N   0  0  0  0  0  0  0  0  0  0  0  0
  -24.5830  -15.8860   20.3560 H   0  0  0  0  0  0  0  0  0  0  0  0
  -26.2020  -15.6750   19.9200 H   0  0  0  0  0  0  0  0  0  0  0  0
  -31.9540  -22.3990   21.7570 C   0  0  0  0  0  1  0  0  0  0  0  0
  -32.4400  -21.4640   20.8030 O   0  0  0  0  0  0  0  0  0  0  0  0
  -30.4630  -23.3570   16.2840 C   0  0  0  0  0  2  0  0  0  0  0  0
  -29.6680  -25.7250   16.3350 C   0  0  0  0  0  2  0  0  0  0  0  0
  -27.9010  -24.0240   16.1270 C   0  0  0  0  0  2  0  0  0  0  0  0
  -29.3060  -25.8630   17.8340 C   0  0  0  0  0  2  0  0  0  0  0  0
  -27.6280  -24.0070   17.6430 C   0  0  0  0  0  2  0  0  0  0  0  0
  -29.3670  -24.3260   15.7650 C   0  0  0  0  0  3  0  0  0  0  0  0
  -28.7300  -24.6180   18.4350 N   0  0  2  0  0  4  0  0  0  0  0  0
  -29.4850  -23.9550   18.3310 H   0  0  0  0  0  0  0  0  0  0  0  0
  -28.4430  -24.6090   19.9000 C   0  0  0  0  0  2  0  0  0  0  0  0
  -29.0550  -25.7390   20.7610 C   0  0  0  0  0  2  0  0  0  0  0  0
  -28.8900  -27.0840   20.3080 O   0  0  0  0  0  0  0  0  0  0  0  0
  -24.5740  -31.8550   23.2800 C   0  0  0  0  0  0  0  0  0  0  0  0
  -27.6430  -27.6570   20.3150 C   0  0  0  0  0  0  0  0  0  0  0  0
  -23.5400  -30.3870   21.5780 C   0  0  0  0  0  3  0  0  0  0  0  0
  -25.1560  -28.9820   20.2150 C   0  0  0  0  0  0  0  0  0  0  0  0
  -26.0410  -30.9370   21.4980 C   0  0  0  0  0  2  0  0  0  0  0  0
  -26.2460  -29.5840   20.8570 C   0  0  0  0  0  0  0  0  0  0  0  0
  -27.4960  -28.9320   20.8970 C   0  0  0  0  0  3  0  0  0  0  0  0
  -26.5310  -27.0760   19.6600 C   0  0  0  0  0  3  0  0  0  0  0  0
  -25.2930  -27.7280   19.6100 C   0  0  0  0  0  3  0  0  0  0  0  0
  -23.8580  -29.7430   20.2050 C   0  0  0  0  0  2  0  0  0  0  0  0
  -24.7300  -31.0760   22.1740 N   0  0  0  0  0  0  0  0  0  0  0  0
  -23.4540  -32.0440   23.7730 O   0  0  0  0  0  0  0  0  0  0  0  0
  -22.9300  -29.3090   22.4980 C   0  0  0  0  0  0  0  0  0  0  0  0
  -21.6260  -29.0420   22.3180 N   0  0  0  0  0  0  0  0  0  0  0  0
  -23.6180  -28.7180   23.3330 O   0  0  0  0  0  0  0  0  0  0  0  0
  -21.1270  -29.5820   21.6260 H   0  0  0  0  0  0  0  0  0  0  0  0
  -18.3060  -27.6440   22.6470 C   0  0  0  0  0  0  0  0  0  0  0  0
  -20.8320  -28.0470   23.0340 C   0  0  0  0  0  3  0  0  0  0  0  0
  -21.0500  -26.6340   22.4480 C   0  0  0  0  0  2  0  0  0  0  0  0
  -20.0120  -26.2630   21.3840 C   0  0  0  0  0  2  0  0  0  0  0  0
  -18.5940  -26.3160   21.9700 C   0  0  0  0  0  2  0  0  0  0  0  0
  -19.3600  -28.4660   23.1290 C   0  0  0  0  0  0  0  0  0  0  0  0
  -19.0410  -29.7080   23.7180 C   0  0  0  0  0  3  0  0  0  0  0  0
  -17.7030  -30.1290   23.8390 C   0  0  0  0  0  3  0  0  0  0  0  0
  -16.6620  -29.3040   23.3790 C   0  0  0  0  0  3  0  0  0  0  0  0
  -16.9660  -28.0670   22.7850 C   0  0  0  0  0  3  0  0  0  0  0  0
  -25.7870  -32.5650   23.9630 C   0  0  0  0  0  3  0  0  0  0  0  0
  -25.3830  -33.9510   24.2410 N   0  0  0  0  0  0  0  0  0  0  0  0
  -25.6990  -35.0020   23.4740 C   0  0  0  0  0  0  0  0  0  0  0  0
  -26.4340  -34.9120   22.4840 O   0  0  0  0  0  0  0  0  0  0  0  0
  -24.7520  -34.1000   25.0150 H   0  0  0  0  0  0  0  0  0  0  0  0
  -23.8990  -36.6860   22.9840 C   0  0  0  0  0  1  0  0  0  0  0  0
  -25.1140  -36.3680   23.8700 C   0  0  0  0  0  3  0  0  0  0  0  0
  -27.1400  -37.3940   24.8030 C   0  0  0  0  0  1  0  0  0  0  0  0
  -26.0900  -37.4750   23.7890 N   0  0  0  0  0  0  0  0  0  0  0  0
  -25.6180  -38.3680   23.9010 H   0  0  0  0  0  0  0  0  0  0  0  0
  -26.2680  -31.8370   25.2770 C   0  0  1  0  0  0  0  0  0  0  0  0
  -25.1280  -31.5420   26.2780 C   0  0  0  0  0  1  0  0  0  0  0  0
  -26.9550  -30.4900   24.9460 C   0  0  0  0  0  1  0  0  0  0  0  0
  -27.3190  -32.7090   26.0020 C   0  0  0  0  0  1  0  0  0  0  0  0
  1  5  1  0
  3  2  2  0
  4  3  1  0
  5  4  2  0
  5  6  1  0
  6  7  2  0
  7  2  1  0
  7 52  1  0
  8  4  1  0
  9  6  1  0
 10 11  1  0
 10 12  1  0
 11  3  1  0
 11 12  1  0
 12 21  1  0
 13 21  1  0
 14 19  1  0
 15 16  1  0
 15 14  1  0
 17 16  1  0
 17 26  1  0
 17 18  1  0
 19 13  1  0
 19 18  1  0
 20 13  2  0
 21 22  1  0
 23 24  2  0
 24 43  1  0
 25 24  1  0
 25 28  1  0
 26 23  1  0
 26 27  1  0
 27 25  2  0
 28 29  1  0
 29 30  2  0
 31 34  1  0
 31 30  1  0
 32 31  2  0
 33 32  1  0
 33 28  2  0
 34 35  1  0
 35 36  1  0
 36 37  2  0
 38 37  1  0
 38 42  1  0
 39 38  2  0
 40 35  2  0
 40 39  1  0
 41 40  1  0
 43 44  1  0
 44 47  1  0
 44 46  1  0
 45 43  2  0
 48 49  1  0
 48 23  1  0
 50 48  1  0
 52 51  1  0
 53  1  1  0
 54 56  1  0
 55 57  1  0
 56 59  1  0
 57 59  1  0
 58 55  1  0
 58 53  1  0
 58 54  1  0
 59 61  1  0
 59 60  1  1
 61 62  1  0
 63 65  1  0
 63 62  1  0
 64 75  2  0
 65 70  1  0
 66 74  1  0
 66 76  1  0
 67 69  1  0
 68 74  1  0
 69 70  2  0
 69 68  1  0
 71 65  2  0
 72 71  1  0
 72 67  2  0
 73 67  1  0
 73 66  1  0
 74 64  1  0
 76 78  2  0
 77 76  1  0
 79 77  1  0
 80 89  2  0
 80 85  1  0
 81 77  1  0
 81 85  1  0
 82 81  1  0
 83 84  1  0
 83 82  1  0
 84 80  1  0
 85 86  2  0
 86 87  1  0
 88 87  2  0
 89 88  1  0
 90 64  1  0
 90 91  1  0
 90100  1  0
 91 94  1  0
 92 96  1  0
 92 91  1  0
 93 92  2  0
 96 95  1  0
 98 96  1  0
 98 99  1  0
 98 97  1  0
100103  1  1
100101  1  0
102100  1  0
M  ISO  4  13 100  21 100  62 101  63 101
M  END
>  <TORSDO>  (20) 
F 23

>  <SCORE>  (20) 
-11.642

>  <name>  (20) 
19

>  <ligand_id>  (20) 
19

>  <original_smiles>  (20) 
[H]c1c([H])c([H])c2c(c1[H])C([H])([H])C([H])([H])C([H])([H])C2([H])N([H])C(=O)C1([H])N(C(=O)C([H])(N([H])C(=O)C([H])(N([H])C([H])([H])[H])C([H])([H])[H])C(C([H])([H])[H])(C([H])([H])[H])C([H])([H])[H])C([H])([H])c2c([H])c(OC([H])([H])C([H])([H])[N+]3([H])C([H])([H])C([H])([H])C([H])(C([H])([H])C([H])([H])c4c(C([H])([H])[H])c(OC([H])([H])[H])c([H])c(C5([H])C([H])([H])C5([H])N([H])C(=O)N5C([H])([H])C([H])([H])C([H])([H])C([H])(n6nc(-c7c([H])c([H])c(Oc8c([H])c([H])c(F)c([H])c8F)c([H])c7[H])c(C(=O)N([H])[H])c6N([H])[H])C5([H])[H])c4C([H])([H])[H])C([H])([H])C3([H])[H])c([H])c([H])c2C1([H])[H]

>  <smiles>  (20) 
[H]c1c([H])c([H])c2c(c1[H])C([H])([H])C([H])([H])C([H])([H])C2([H])N([H])C(=O)C1([H])N(C(=O)C([H])(N([H])C(=O)C([H])(N([H])C([H])([H])[H])C([H])([H])[H])C(C([H])([H])[H])(C([H])([H])[H])C([H])([H])[H])C([H])([H])c2c([H])c(OC([H])([H])C([H])([H])[N+]3([H])C([H])([H])C([H])([H])C([H])(C([H])([H])C([H])([H])c4c(C([H])([H])[H])c(OC([H])([H])[H])c([H])c(C5([H])C([H])([H])C5([H])N([H])C(=O)N5C([H])([H])C([H])([H])C([H])([H])C([H])(n6nc(-c7c([H])c([H])c(Oc8c([H])c([H])c(F)c([H])c8F)c([H])c7[H])c(C(=O)N([H])[H])c6N([H])[H])C5([H])[H])c4C([H])([H])[H])C([H])([H])C3([H])[H])c([H])c([H])c2C1([H])[H]

$$$$
20:0:0
     RDKit          3D

 96105  0  0  1  0  0  0  0  0999 V2000
  -31.2780  -19.7220   20.4730 C   0  0  0  0  0  0  0  0  0  0  0  0
  -30.2950  -18.7210   20.4010 C   0  0  0  0  0  0  0  0  0  0  0  0
  -32.5830  -19.5220   19.9850 C   0  0  0  0  0  0  0  0  0  0  0  0
  -32.8400  -18.3400   19.2600 C   0  0  0  0  0  0  0  0  0  0  0  0
  -31.8420  -17.3330   19.1550 C   0  0  0  0  0  0  0  0  0  0  0  0
  -30.6560  -17.3560   19.9680 C   0  0  0  0  0  0  0  0  0  0  0  0
  -28.9640  -19.4820   20.7090 C   0  0  0  0  0  2  0  0  0  0  0  0
  -30.7710  -21.0360   21.0570 C   0  0  0  0  0  3  0  0  0  0  0  0
  -33.6670  -20.5890   20.1240 C   0  0  0  0  0  1  0  0  0  0  0  0
  -34.1930  -18.1680   18.5680 C   0  0  0  0  0  1  0  0  0  0  0  0
  -32.0220  -16.2850   18.0500 C   0  0  0  0  0  1  0  0  0  0  0  0
  -31.2220  -21.2250   22.5170 C   0  0  0  0  0  1  0  0  0  0  0  0
  -29.2970  -20.9600   21.0110 N   0  0  1  0  0  4  0  0  0  0  0  0
  -29.0150  -21.0680   21.9720 H   0  0  0  0  0  0  0  0  0  0  0  0
  -30.6190  -14.7950   20.4480 C   0  0  0  0  0  0  0  0  0  0  0  0
  -30.3770  -12.4950   19.5260 C   0  0  0  0  0  2  0  0  0  0  0  0
  -29.4920  -12.5020   18.2630 C   0  0  0  0  0  2  0  0  0  0  0  0
  -28.0120  -12.3420   18.6580 C   0  0  0  0  0  2  0  0  0  0  0  0
  -27.5850  -13.2900   19.8100 C   0  0  0  0  0  3  0  0  0  0  0  0
  -28.6070  -13.3080   20.9650 C   0  0  0  0  0  2  0  0  0  0  0  0
  -29.9100  -13.6190   20.3710 N   0  0  0  0  0  0  0  0  0  0  0  0
  -31.8430  -14.7110   20.4460 O   0  0  0  0  0  0  0  0  0  0  0  0
  -29.9880  -16.0390   20.2560 N   0  0  0  0  0  0  0  0  0  0  0  0
  -28.9820  -16.0400   20.2950 H   0  0  0  0  0  0  0  0  0  0  0  0
  -25.1860  -13.8810   20.4770 C   0  0  0  0  0  0  0  0  0  0  0  0
  -24.1110  -13.1100   20.8260 C   0  0  0  0  0  0  0  0  0  0  0  0
  -24.5780  -11.7600   20.8330 C   0  0  0  0  0  0  0  0  0  0  0  0
  -26.2350  -13.0000   20.2780 N   0  0  0  0  0  0  0  0  0  0  0  0
  -25.8770  -11.7200   20.5630 N   0  0  0  0  0  0  0  0  0  0  0  0
  -23.8460  -10.5000   21.0200 C   0  0  0  0  0  0  0  0  0  0  0  0
  -24.2610   -9.5430   21.9710 C   0  0  0  0  0  3  0  0  0  0  0  0
  -23.5300   -8.3470   22.1460 C   0  0  0  0  0  3  0  0  0  0  0  0
  -22.3720   -8.1010   21.3710 C   0  0  0  0  0  0  0  0  0  0  0  0
  -21.9770   -9.0470   20.4090 C   0  0  0  0  0  3  0  0  0  0  0  0
  -22.7080  -10.2350   20.2320 C   0  0  0  0  0  3  0  0  0  0  0  0
  -21.6160   -6.9570   21.4560 O   0  0  0  0  0  0  0  0  0  0  0  0
  -21.5490   -6.2210   22.6110 C   0  0  0  0  0  0  0  0  0  0  0  0
  -21.1130   -6.7830   23.8300 C   0  0  0  0  0  3  0  0  0  0  0  0
  -20.9920   -5.9720   24.9760 C   0  0  0  0  0  3  0  0  0  0  0  0
  -21.2980   -4.5990   24.9040 C   0  0  0  0  0  0  0  0  0  0  0  0
  -21.7260   -4.0370   23.6890 C   0  0  0  0  0  3  0  0  0  0  0  0
  -21.8490   -4.8450   22.5470 C   0  0  0  0  0  0  0  0  0  0  0  0
  -22.2420   -4.2920   21.3730 F   0  0  0  0  0  0  0  0  0  0  0  0
  -21.1740   -3.8190   26.0040 F   0  0  0  0  0  0  0  0  0  0  0  0
  -22.7050  -13.5890   21.0380 C   0  0  0  0  0  0  0  0  0  0  0  0
  -21.9500  -12.9100   21.8930 N   0  0  0  0  0  0  0  0  0  0  0  0
  -22.2850  -14.6020   20.4780 O   0  0  0  0  0  0  0  0  0  0  0  0
  -22.3030  -12.0940   22.3700 H   0  0  0  0  0  0  0  0  0  0  0  0
  -21.0020  -13.2090   22.0730 H   0  0  0  0  0  0  0  0  0  0  0  0
  -25.3440  -15.2490   20.2830 N   0  0  0  0  0  0  0  0  0  0  0  0
  -24.5600  -15.8870   20.3630 H   0  0  0  0  0  0  0  0  0  0  0  0
  -26.1850  -15.6970   19.9440 H   0  0  0  0  0  0  0  0  0  0  0  0
  -28.6000  -22.1370   20.2810 C   0  0  0  0  0  2  0  0  0  0  0  0
  -28.9730  -23.6950   20.6400 C   0  0  0  0  0  3  0  0  0  0  0  0
  -27.9910  -24.9040   20.1670 C   0  0  0  0  0  3  0  0  0  0  0  0
  -28.2780  -26.3820   20.3320 O   0  0  0  0  0  0  0  0  0  0  0  0
  -24.6050  -31.9150   23.2650 C   0  0  0  0  0  0  0  0  0  0  0  0
  -27.1960  -27.2960   20.2360 C   0  0  0  0  0  0  0  0  0  0  0  0
  -23.4000  -30.5140   21.6320 C   0  0  0  0  0  3  0  0  0  0  0  0
  -24.8460  -28.9580   20.2030 C   0  0  0  0  0  0  0  0  0  0  0  0
  -25.9430  -30.8170   21.4480 C   0  0  0  0  0  2  0  0  0  0  0  0
  -26.0220  -29.4350   20.7990 C   0  0  0  0  0  0  0  0  0  0  0  0
  -27.2020  -28.6210   20.7960 C   0  0  0  0  0  3  0  0  0  0  0  0
  -25.9960  -26.8970   19.5990 C   0  0  0  0  0  3  0  0  0  0  0  0
  -24.8410  -27.7000   19.5860 C   0  0  0  0  0  3  0  0  0  0  0  0
  -23.6110  -29.8390   20.2520 C   0  0  0  0  0  2  0  0  0  0  0  0
  -24.6690  -31.0990   22.1710 N   0  0  0  0  0  0  0  0  0  0  0  0
  -23.5210  -32.1970   23.7970 O   0  0  0  0  0  0  0  0  0  0  0  0
  -22.7330  -29.5010   22.5940 C   0  0  0  0  0  0  0  0  0  0  0  0
  -21.4060  -29.3260   22.4650 N   0  0  0  0  0  0  0  0  0  0  0  0
  -23.4080  -28.8760   23.4150 O   0  0  0  0  0  0  0  0  0  0  0  0
  -20.9210  -29.8750   21.7700 H   0  0  0  0  0  0  0  0  0  0  0  0
  -18.0260  -28.1360   22.9650 C   0  0  0  0  0  0  0  0  0  0  0  0
  -20.5850  -28.3940   23.2390 C   0  0  0  0  0  3  0  0  0  0  0  0
  -20.6870  -26.9610   22.6680 C   0  0  0  0  0  2  0  0  0  0  0  0
  -19.5860  -26.6350   21.6540 C   0  0  0  0  0  2  0  0  0  0  0  0
  -18.2030  -26.7840   22.2950 C   0  0  0  0  0  2  0  0  0  0  0  0
  -19.1450  -28.8990   23.3940 C   0  0  0  0  0  0  0  0  0  0  0  0
  -18.9270  -30.1630   23.9820 C   0  0  0  0  0  3  0  0  0  0  0  0
  -17.6230  -30.6670   24.1440 C   0  0  0  0  0  3  0  0  0  0  0  0
  -16.5180  -29.9010   23.7320 C   0  0  0  0  0  3  0  0  0  0  0  0
  -16.7200  -28.6370   23.1490 C   0  0  0  0  0  3  0  0  0  0  0  0
  -25.8890  -32.5480   23.8850 C   0  0  0  0  0  3  0  0  0  0  0  0
  -26.3990  -31.7820   25.1670 C   0  0  1  0  0  0  0  0  0  0  0  0
  -25.3010  -31.5550   26.2310 C   0  0  0  0  0  1  0  0  0  0  0  0
  -26.9790  -30.4010   24.7840 C   0  0  0  0  0  1  0  0  0  0  0  0
  -27.5490  -32.5780   25.8300 C   0  0  0  0  0  1  0  0  0  0  0  0
  -25.5810  -33.9490   24.2090 N   0  0  0  0  0  0  0  0  0  0  0  0
  -25.9070  -34.9970   23.4420 C   0  0  0  0  0  0  0  0  0  0  0  0
  -26.5670  -34.8890   22.4040 O   0  0  0  0  0  0  0  0  0  0  0  0
  -24.9990  -34.1100   25.0180 H   0  0  0  0  0  0  0  0  0  0  0  0
  -24.1700  -36.7850   23.1060 C   0  0  0  0  0  1  0  0  0  0  0  0
  -25.4260  -36.3890   23.8990 C   0  0  0  0  0  3  0  0  0  0  0  0
  -27.5690  -37.2830   24.6920 C   0  0  0  0  0  1  0  0  0  0  0  0
  -26.4530  -37.4430   23.7630 N   0  0  0  0  0  0  0  0  0  0  0  0
  -26.0480  -38.3630   23.9120 H   0  0  0  0  0  0  0  0  0  0  0  0
  1  8  1  0
  2  1  1  0
  2  7  1  0
  3  9  1  0
  3  1  2  0
  4  3  1  0
  5  4  2  0
  5  6  1  0
  6 23  1  0
  6  2  2  0
  7 13  1  0
  8 12  1  0
 10  4  1  0
 11  5  1  0
 13  8  1  0
 13 14  1  1
 16 21  1  0
 17 18  1  0
 17 16  1  0
 19 18  1  0
 19 28  1  0
 19 20  1  0
 21 15  1  0
 21 20  1  0
 22 15  2  0
 23 24  1  0
 23 15  1  0
 25 26  2  0
 26 27  1  0
 26 45  1  0
 27 30  1  0
 28 25  1  0
 28 29  1  0
 29 27  2  0
 30 31  1  0
 31 32  2  0
 33 36  1  0
 33 32  1  0
 34 33  2  0
 35 34  1  0
 35 30  2  0
 36 37  1  0
 37 38  1  0
 38 39  2  0
 40 39  1  0
 40 44  1  0
 41 40  2  0
 42 37  2  0
 42 41  1  0
 43 42  1  0
 45 46  1  0
 46 49  1  0
 46 48  1  0
 47 45  2  0
 50 51  1  0
 50 25  1  0
 52 50  1  0
 53 54  1  0
 53 13  1  0
 55 56  1  0
 55 54  2  0
 57 68  2  0
 58 56  1  0
 58 63  1  0
 59 67  1  0
 59 69  1  0
 60 66  1  0
 60 62  1  0
 61 67  1  0
 62 61  1  0
 63 62  2  0
 64 58  2  0
 65 64  1  0
 65 60  2  0
 66 59  1  0
 67 57  1  0
 69 71  2  0
 70 69  1  0
 72 70  1  0
 73 82  2  0
 73 78  1  0
 74 70  1  0
 74 78  1  0
 75 74  1  0
 76 77  1  0
 76 75  1  0
 77 73  1  0
 78 79  2  0
 79 80  1  0
 81 80  2  0
 82 81  1  0
 83 57  1  0
 83 88  1  0
 83 84  1  0
 84 87  1  1
 84 85  1  0
 86 84  1  0
 88 91  1  0
 89 93  1  0
 89 88  1  0
 90 89  2  0
 93 92  1  0
 95 93  1  0
 95 96  1  0
 95 94  1  0
M  ISO  4  15 100  23 100  55 101  56 101
M  END
>  <TORSDO>  (21) 
F 19

>  <SCORE>  (21) 
-14.453

>  <name>  (21) 
20

>  <ligand_id>  (21) 
20

>  <original_smiles>  (21) 
[H]c1c([H])c([H])c2c(c1[H])C([H])([H])C([H])([H])C([H])([H])C2([H])N([H])C(=O)C1([H])N(C(=O)C([H])(N([H])C(=O)C([H])(N([H])C([H])([H])[H])C([H])([H])[H])C(C([H])([H])[H])(C([H])([H])[H])C([H])([H])[H])C([H])([H])c2c([H])c(OC([H])([H])C([H])([H])C([H])([H])[N+]3([H])C([H])([H])c4c(N([H])C(=O)N5C([H])([H])C([H])([H])C([H])([H])C([H])(n6nc(-c7c([H])c([H])c(Oc8c([H])c([H])c(F)c([H])c8F)c([H])c7[H])c(C(=O)N([H])[H])c6N([H])[H])C5([H])[H])c(C([H])([H])[H])c(C([H])([H])[H])c(C([H])([H])[H])c4C3([H])C([H])([H])[H])c([H])c([H])c2C1([H])[H]

>  <smiles>  (21) 
[H]c1c([H])c([H])c2c(c1[H])C([H])([H])C([H])([H])C([H])([H])C2([H])N([H])C(=O)C1([H])N(C(=O)C([H])(N([H])C(=O)C([H])(N([H])C([H])([H])[H])C([H])([H])[H])C(C([H])([H])[H])(C([H])([H])[H])C([H])([H])[H])C([H])([H])c2c([H])c(OC([H])([H])C([H])([H])C([H])([H])[N+]3([H])C([H])([H])c4c(N([H])C(=O)N5C([H])([H])C([H])([H])C([H])([H])C([H])(n6nc(-c7c([H])c([H])c(Oc8c([H])c([H])c(F)c([H])c8F)c([H])c7[H])c(C(=O)N([H])[H])c6N([H])[H])C5([H])[H])c(C([H])([H])[H])c(C([H])([H])[H])c(C([H])([H])[H])c4C3([H])C([H])([H])[H])c([H])c([H])c2C1([H])[H]

$$$$
21:0:0
     RDKit          3D

100110  0  0  1  0  0  0  0  0999 V2000
  -25.9560  -20.5020   19.0430 C   0  0  0  0  0  3  0  0  0  0  0  0
  -28.6960  -20.1930   18.4940 C   0  0  0  0  0  3  0  0  0  0  0  0
  -26.7440  -21.6270   18.7760 C   0  0  0  0  0  0  0  0  0  0  0  0
  -28.1420  -21.5090   18.5630 C   0  0  0  0  0  0  0  0  0  0  0  0
  -26.5150  -19.2190   19.0190 C   0  0  0  0  0  0  0  0  0  0  0  0
  -27.8810  -19.0410   18.6890 C   0  0  0  0  0  0  0  0  0  0  0  0
  -26.0460  -22.9610   18.6530 C   0  0  0  0  0  2  0  0  0  0  0  0
  -26.8930  -23.9080   17.8190 C   0  0  0  0  0  2  0  0  0  0  0  0
  -29.0060  -22.7890   18.3470 C   0  0  0  0  0  3  0  0  0  0  0  0
  -25.5810  -18.0550   19.3140 C   0  0  0  0  0  1  0  0  0  0  0  0
  -30.2350  -22.7930   19.2730 C   0  0  0  0  0  1  0  0  0  0  0  0
  -28.2100  -24.0670   18.4840 N   0  0  1  0  0  4  0  0  0  0  0  0
  -28.0080  -24.1620   19.4690 H   0  0  0  0  0  0  0  0  0  0  0  0
  -28.3150  -17.7100   18.5360 N   0  0  0  0  0  0  0  0  0  0  0  0
  -27.5820  -17.0140   18.6380 H   0  0  0  0  0  0  0  0  0  0  0  0
  -29.6730  -17.1910   18.6620 C   0  0  0  0  0  2  0  0  0  0  0  0
  -31.3740  -14.4920   19.3820 C   0  0  0  0  0  0  0  0  0  0  0  0
  -31.1000  -12.0810   18.8880 C   0  0  0  0  0  2  0  0  0  0  0  0
  -30.0630  -11.8720   17.7690 C   0  0  0  0  0  2  0  0  0  0  0  0
  -28.6350  -11.8080   18.3490 C   0  0  0  0  0  2  0  0  0  0  0  0
  -28.3420  -12.9760   19.3280 C   0  0  0  0  0  3  0  0  0  0  0  0
  -29.4830  -13.1120   20.3610 C   0  0  0  0  0  2  0  0  0  0  0  0
  -30.7400  -13.3080   19.6210 N   0  0  0  0  0  0  0  0  0  0  0  0
  -32.3750  -14.5650   18.6610 O   0  0  0  0  0  0  0  0  0  0  0  0
  -31.2660  -17.5560   21.4440 C   0  0  0  0  0  2  0  0  0  0  0  0
  -29.7860  -17.2960   21.2030 C   0  0  0  0  0  2  0  0  0  0  0  0
  -31.9560  -16.2720   20.9740 C   0  0  0  0  0  2  0  0  0  0  0  0
  -29.7690  -16.3710   19.9830 C   0  0  0  0  0  3  0  0  0  0  0  0
  -30.9940  -15.5560   20.1330 N   0  0  0  0  0  0  0  0  0  0  0  0
  -26.1590  -13.7960   20.4110 C   0  0  0  0  0  0  0  0  0  0  0  0
  -25.0620  -13.1290   20.8840 C   0  0  0  0  0  0  0  0  0  0  0  0
  -25.3340  -11.7410   20.6850 C   0  0  0  0  0  0  0  0  0  0  0  0
  -27.0410  -12.8220   19.9720 N   0  0  0  0  0  0  0  0  0  0  0  0
  -26.5520  -11.5750   20.1880 N   0  0  0  0  0  0  0  0  0  0  0  0
  -24.4820  -10.5630   20.8860 C   0  0  0  0  0  0  0  0  0  0  0  0
  -24.8310   -9.5500   21.8060 C   0  0  0  0  0  3  0  0  0  0  0  0
  -23.9870   -8.4340   21.9940 C   0  0  0  0  0  3  0  0  0  0  0  0
  -22.7810   -8.3250   21.2620 C   0  0  0  0  0  0  0  0  0  0  0  0
  -22.4510   -9.3250   20.3320 C   0  0  0  0  0  3  0  0  0  0  0  0
  -23.2930  -10.4320   20.1410 C   0  0  0  0  0  3  0  0  0  0  0  0
  -21.9140   -7.2630   21.3590 O   0  0  0  0  0  0  0  0  0  0  0  0
  -21.7360   -6.5860   22.5390 C   0  0  0  0  0  0  0  0  0  0  0  0
  -21.2400   -7.2250   23.6960 C   0  0  0  0  0  3  0  0  0  0  0  0
  -21.0070   -6.4760   24.8680 C   0  0  0  0  0  3  0  0  0  0  0  0
  -21.2590   -5.0920   24.8810 C   0  0  0  0  0  0  0  0  0  0  0  0
  -21.7500   -4.4540   23.7280 C   0  0  0  0  0  3  0  0  0  0  0  0
  -21.9840   -5.1990   22.5590 C   0  0  0  0  0  0  0  0  0  0  0  0
  -22.4360   -4.5760   21.4440 F   0  0  0  0  0  0  0  0  0  0  0  0
  -21.0270   -4.3700   26.0030 F   0  0  0  0  0  0  0  0  0  0  0  0
  -23.7900  -13.7450   21.3920 C   0  0  0  0  0  0  0  0  0  0  0  0
  -23.1250  -13.0890   22.3360 N   0  0  0  0  0  0  0  0  0  0  0  0
  -23.4050  -14.8400   20.9850 O   0  0  0  0  0  0  0  0  0  0  0  0
  -23.4510  -12.1990   22.6840 H   0  0  0  0  0  0  0  0  0  0  0  0
  -22.2760  -13.4830   22.7160 H   0  0  0  0  0  0  0  0  0  0  0  0
  -26.4700  -15.1430   20.2860 N   0  0  0  0  0  0  0  0  0  0  0  0
  -25.7210  -15.8130   20.4130 H   0  0  0  0  0  0  0  0  0  0  0  0
  -27.1560  -15.4420   19.6050 H   0  0  0  0  0  0  0  0  0  0  0  0
  -28.8660  -25.3520   18.0680 C   0  0  0  0  0  2  0  0  0  0  0  0
  -29.3130  -26.3230   19.2030 C   0  0  0  0  0  2  0  0  0  0  0  0
  -28.4420  -26.5780   20.3170 O   0  0  0  0  0  0  0  0  0  0  0  0
  -24.6320  -31.8170   23.2780 C   0  0  0  0  0  0  0  0  0  0  0  0
  -27.3280  -27.3840   20.1950 C   0  0  0  0  0  0  0  0  0  0  0  0
  -23.4530  -30.4310   21.6050 C   0  0  0  0  0  3  0  0  0  0  0  0
  -24.9320  -28.9030   20.1920 C   0  0  0  0  0  0  0  0  0  0  0  0
  -25.9860  -30.7750   21.4660 C   0  0  0  0  0  2  0  0  0  0  0  0
  -26.0810  -29.4110   20.8100 C   0  0  0  0  0  0  0  0  0  0  0  0
  -27.2790  -28.6540   20.8200 C   0  0  0  0  0  3  0  0  0  0  0  0
  -26.1550  -26.8930   19.5930 C   0  0  0  0  0  3  0  0  0  0  0  0
  -24.9630  -27.6390   19.5830 C   0  0  0  0  0  3  0  0  0  0  0  0
  -23.6880  -29.7620   20.2250 C   0  0  0  0  0  2  0  0  0  0  0  0
  -24.7070  -31.0210   22.1730 N   0  0  0  0  0  0  0  0  0  0  0  0
  -23.5410  -32.0930   23.7960 O   0  0  0  0  0  0  0  0  0  0  0  0
  -22.7760  -29.4060   22.5430 C   0  0  0  0  0  0  0  0  0  0  0  0
  -21.4600  -29.2040   22.3630 N   0  0  0  0  0  0  0  0  0  0  0  0
  -23.4340  -28.7960   23.3900 O   0  0  0  0  0  0  0  0  0  0  0  0
  -20.9900  -29.7490   21.6530 H   0  0  0  0  0  0  0  0  0  0  0  0
  -18.0880  -27.9620   22.7270 C   0  0  0  0  0  0  0  0  0  0  0  0
  -20.6270  -28.2590   23.1060 C   0  0  0  0  0  3  0  0  0  0  0  0
  -20.7750  -26.8250   22.5470 C   0  0  0  0  0  2  0  0  0  0  0  0
  -19.7240  -26.4780   21.4890 C   0  0  0  0  0  2  0  0  0  0  0  0
  -18.3130  -26.6090   22.0710 C   0  0  0  0  0  2  0  0  0  0  0  0
  -19.1760  -28.7420   23.2000 C   0  0  0  0  0  0  0  0  0  0  0  0
  -18.9150  -30.0070   23.7690 C   0  0  0  0  0  3  0  0  0  0  0  0
  -17.5980  -30.4910   23.8730 C   0  0  0  0  0  3  0  0  0  0  0  0
  -16.5230  -29.7080   23.4180 C   0  0  0  0  0  3  0  0  0  0  0  0
  -16.7690  -28.4450   22.8510 C   0  0  0  0  0  3  0  0  0  0  0  0
  -25.9080  -32.4380   23.9260 C   0  0  0  0  0  3  0  0  0  0  0  0
  -26.3830  -31.6730   25.2210 C   0  0  1  0  0  0  0  0  0  0  0  0
  -25.2590  -31.4480   26.2570 C   0  0  0  0  0  1  0  0  0  0  0  0
  -26.9720  -30.2900   24.8560 C   0  0  0  0  0  1  0  0  0  0  0  0
  -27.5160  -32.4670   25.9130 C   0  0  0  0  0  1  0  0  0  0  0  0
  -25.6080  -33.8430   24.2320 N   0  0  0  0  0  0  0  0  0  0  0  0
  -25.9580  -34.8800   23.4600 C   0  0  0  0  0  0  0  0  0  0  0  0
  -26.6400  -34.7560   22.4390 O   0  0  0  0  0  0  0  0  0  0  0  0
  -25.0070  -34.0150   25.0240 H   0  0  0  0  0  0  0  0  0  0  0  0
  -24.2450  -36.6770   23.0640 C   0  0  0  0  0  1  0  0  0  0  0  0
  -25.4780  -36.2780   23.8920 C   0  0  0  0  0  3  0  0  0  0  0  0
  -27.6030  -37.1730   24.7330 C   0  0  0  0  0  1  0  0  0  0  0  0
  -26.5170  -37.3230   23.7680 N   0  0  0  0  0  0  0  0  0  0  0  0
  -26.1140  -38.2490   23.8850 H   0  0  0  0  0  0  0  0  0  0  0  0
  2  4  2  0
  2  6  1  0
  3  1  2  0
  4  3  1  0
  5  1  1  0
  5 10  1  0
  6  5  2  0
  7  3  1  0
  8 12  1  0
  8  7  1  0
  9 12  1  0
  9  4  1  0
  9 11  1  0
 12 13  1  1
 14 15  1  0
 14 16  1  0
 14  6  1  0
 17 23  1  0
 17 29  1  0
 18 23  1  0
 19 20  1  0
 19 18  1  0
 21 20  1  0
 21 33  1  0
 21 22  1  0
 23 22  1  0
 24 17  2  0
 26 25  1  0
 27 25  1  0
 28 16  1  0
 28 29  1  0
 28 26  1  0
 29 27  1  0
 30 31  2  0
 31 50  1  0
 32 31  1  0
 32 35  1  0
 33 34  1  0
 33 30  1  0
 34 32  2  0
 35 36  1  0
 36 37  2  0
 38 41  1  0
 38 37  1  0
 39 38  2  0
 40 39  1  0
 40 35  2  0
 41 42  1  0
 42 47  2  0
 42 43  1  0
 43 44  2  0
 44 45  1  0
 45 49  1  0
 46 45  2  0
 47 46  1  0
 48 47  1  0
 50 51  1  0
 51 53  1  0
 51 54  1  0
 52 50  2  0
 55 30  1  0
 55 56  1  0
 57 55  1  0
 58 12  1  0
 58 59  1  0
 59 60  1  0
 61 72  2  0
 62 60  1  0
 62 67  1  0
 63 71  1  0
 63 73  1  0
 64 70  1  0
 64 66  1  0
 65 71  1  0
 66 67  2  0
 66 65  1  0
 68 62  2  0
 69 68  1  0
 69 64  2  0
 70 63  1  0
 71 61  1  0
 73 75  2  0
 74 73  1  0
 76 74  1  0
 77 86  2  0
 77 82  1  0
 78 74  1  0
 78 82  1  0
 79 78  1  0
 80 81  1  0
 80 79  1  0
 81 77  1  0
 82 83  2  0
 83 84  1  0
 85 84  2  0
 86 85  1  0
 87 61  1  0
 87 92  1  0
 87 88  1  0
 88 91  1  1
 88 89  1  0
 90 88  1  0
 92 95  1  0
 93 97  1  0
 93 92  1  0
 94 93  2  0
 97 96  1  0
 99100  1  0
 99 97  1  0
 99 98  1  0
M  ISO  4  17 100  29 100  59 101  60 101
M  END
>  <TORSDO>  (22) 
F 20

>  <SCORE>  (22) 
-12.138

>  <name>  (22) 
21

>  <ligand_id>  (22) 
21

>  <original_smiles>  (22) 
[H]c1c([H])c([H])c2c(c1[H])C([H])([H])C([H])([H])C([H])([H])C2([H])N([H])C(=O)C1([H])N(C(=O)C([H])(N([H])C(=O)C([H])(N([H])C([H])([H])[H])C([H])([H])[H])C(C([H])([H])[H])(C([H])([H])[H])C([H])([H])[H])C([H])([H])c2c([H])c(OC([H])([H])C([H])([H])[N+]3([H])C([H])([H])C([H])([H])c4c([H])c(C([H])([H])[H])c(N([H])C([H])([H])C5([H])N(C(=O)N6C([H])([H])C([H])([H])C([H])([H])C([H])(n7nc(-c8c([H])c([H])c(Oc9c([H])c([H])c(F)c([H])c9F)c([H])c8[H])c(C(=O)N([H])[H])c7N([H])[H])C6([H])[H])C([H])([H])C([H])([H])C5([H])[H])c([H])c4C3([H])C([H])([H])[H])c([H])c([H])c2C1([H])[H]

>  <smiles>  (22) 
[H]c1c([H])c([H])c2c(c1[H])C([H])([H])C([H])([H])C([H])([H])C2([H])N([H])C(=O)C1([H])N(C(=O)C([H])(N([H])C(=O)C([H])(N([H])C([H])([H])[H])C([H])([H])[H])C(C([H])([H])[H])(C([H])([H])[H])C([H])([H])[H])C([H])([H])c2c([H])c(OC([H])([H])C([H])([H])[N+]3([H])C([H])([H])C([H])([H])c4c([H])c(C([H])([H])[H])c(N([H])C([H])([H])C5([H])N(C(=O)N6C([H])([H])C([H])([H])C([H])([H])C([H])(n7nc(-c8c([H])c([H])c(Oc9c([H])c([H])c(F)c([H])c9F)c([H])c8[H])c(C(=O)N([H])[H])c7N([H])[H])C6([H])[H])C([H])([H])C([H])([H])C5([H])[H])c([H])c4C3([H])C([H])([H])[H])c([H])c([H])c2C1([H])[H]

$$$$
22:0:0
     RDKit          3D

 96106  0  0  1  0  0  0  0  0999 V2000
  -31.1880  -20.7890   20.5320 C   0  0  0  0  0  3  0  0  0  0  0  0
  -30.7990  -20.0770   21.6840 C   0  0  0  0  0  0  0  0  0  0  0  0
  -30.6850  -22.9560   21.5900 C   0  0  0  0  0  0  0  0  0  0  0  0
  -31.1430  -22.1990   20.4720 C   0  0  0  0  0  0  0  0  0  0  0  0
  -30.3350  -20.8170   22.8060 C   0  0  0  0  0  0  0  0  0  0  0  0
  -30.3270  -22.2430   22.7750 C   0  0  0  0  0  0  0  0  0  0  0  0
  -31.6390  -22.8340   19.1830 C   0  0  0  0  0  1  0  0  0  0  0  0
  -29.8500  -20.0850   24.0600 C   0  0  0  0  0  1  0  0  0  0  0  0
  -29.9520  -23.0060   24.0470 C   0  0  0  0  0  1  0  0  0  0  0  0
  -31.3480  -14.8620   19.7240 C   0  0  0  0  0  0  0  0  0  0  0  0
  -30.8050  -12.8040   18.4460 C   0  0  0  0  0  2  0  0  0  0  0  0
  -29.7280  -13.0670   17.3730 C   0  0  0  0  0  2  0  0  0  0  0  0
  -28.3130  -12.9210   17.9680 C   0  0  0  0  0  2  0  0  0  0  0  0
  -28.1540  -13.7100   19.2890 C   0  0  0  0  0  3  0  0  0  0  0  0
  -29.3250  -13.3910   20.2540 C   0  0  0  0  0  2  0  0  0  0  0  0
  -30.5830  -13.7350   19.5720 N   0  0  0  0  0  0  0  0  0  0  0  0
  -32.3470  -15.0450   19.0190 O   0  0  0  0  0  0  0  0  0  0  0  0
  -29.7940  -17.8670   20.8700 C   0  0  0  0  0  2  0  0  0  0  0  0
  -32.2330  -17.9040   21.2970 C   0  0  0  0  0  2  0  0  0  0  0  0
  -29.7940  -16.3400   21.0790 C   0  0  0  0  0  2  0  0  0  0  0  0
  -32.2040  -16.3650   21.5000 C   0  0  0  0  0  2  0  0  0  0  0  0
  -30.8880  -18.5340   21.7110 C   0  0  0  0  0  3  0  0  0  0  0  0
  -31.0960  -15.7040   20.7730 N   0  0  0  0  0  0  0  0  0  0  0  0
  -25.8950  -14.3850   20.3260 C   0  0  0  0  0  0  0  0  0  0  0  0
  -24.8440  -13.6360   20.7820 C   0  0  0  0  0  0  0  0  0  0  0  0
  -25.2320  -12.2720   20.6180 C   0  0  0  0  0  0  0  0  0  0  0  0
  -26.8590  -13.4740   19.9170 N   0  0  0  0  0  0  0  0  0  0  0  0
  -26.4700  -12.1950   20.1500 N   0  0  0  0  0  0  0  0  0  0  0  0
  -24.4770  -11.0320   20.8230 C   0  0  0  0  0  0  0  0  0  0  0  0
  -24.9270  -10.0320   21.7140 C   0  0  0  0  0  3  0  0  0  0  0  0
  -24.1750   -8.8540   21.9040 C   0  0  0  0  0  3  0  0  0  0  0  0
  -22.9590   -8.6670   21.2050 C   0  0  0  0  0  0  0  0  0  0  0  0
  -22.5270   -9.6540   20.3020 C   0  0  0  0  0  3  0  0  0  0  0  0
  -23.2790  -10.8250   20.1100 C   0  0  0  0  0  3  0  0  0  0  0  0
  -22.1740   -7.5440   21.3100 O   0  0  0  0  0  0  0  0  0  0  0  0
  -22.0310   -6.8740   22.4990 C   0  0  0  0  0  0  0  0  0  0  0  0
  -21.5310   -7.5080   23.6560 C   0  0  0  0  0  3  0  0  0  0  0  0
  -21.3360   -6.7650   24.8380 C   0  0  0  0  0  3  0  0  0  0  0  0
  -21.6310   -5.3900   24.8610 C   0  0  0  0  0  0  0  0  0  0  0  0
  -22.1240   -4.7550   23.7070 C   0  0  0  0  0  3  0  0  0  0  0  0
  -22.3210   -5.4950   22.5280 C   0  0  0  0  0  0  0  0  0  0  0  0
  -22.7770   -4.8750   21.4130 F   0  0  0  0  0  0  0  0  0  0  0  0
  -21.4370   -4.6730   25.9920 F   0  0  0  0  0  0  0  0  0  0  0  0
  -23.5140  -14.1520   21.2530 C   0  0  0  0  0  0  0  0  0  0  0  0
  -22.8900  -13.4630   22.2020 N   0  0  0  0  0  0  0  0  0  0  0  0
  -23.0420  -15.1990   20.8130 O   0  0  0  0  0  0  0  0  0  0  0  0
  -23.2860  -12.6140   22.5780 H   0  0  0  0  0  0  0  0  0  0  0  0
  -22.0030  -13.7890   22.5600 H   0  0  0  0  0  0  0  0  0  0  0  0
  -26.1010  -15.7550   20.2060 N   0  0  0  0  0  0  0  0  0  0  0  0
  -25.3810  -16.4300   20.4440 H   0  0  0  0  0  0  0  0  0  0  0  0
  -26.9180  -16.1810   19.7860 H   0  0  0  0  0  0  0  0  0  0  0  0
  -31.1200  -25.4850   20.5070 C   0  0  0  0  0  2  0  0  0  0  0  0
  -29.2640  -25.2550   21.4260 C   0  0  0  0  0  2  0  0  0  0  0  0
  -30.6120  -24.5080   21.5930 C   0  0  0  0  0  3  0  0  0  0  0  0
  -30.0500  -26.4880   20.9560 C   0  0  0  0  0  3  0  0  0  0  0  0
  -29.5050  -27.1940   19.8440 O   0  0  0  0  0  0  0  0  0  0  0  0
  -24.9410  -31.3080   23.5150 C   0  0  0  0  0  0  0  0  0  0  0  0
  -28.2460  -27.7190   20.0070 C   0  0  0  0  0  0  0  0  0  0  0  0
  -23.9680  -29.9320   21.7040 C   0  0  0  0  0  3  0  0  0  0  0  0
  -25.6460  -28.8070   20.1470 C   0  0  0  0  0  0  0  0  0  0  0  0
  -26.4030  -30.7000   21.5920 C   0  0  0  0  0  2  0  0  0  0  0  0
  -26.7040  -29.4350   20.8160 C   0  0  0  0  0  0  0  0  0  0  0  0
  -28.0090  -28.8940   20.7540 C   0  0  0  0  0  3  0  0  0  0  0  0
  -27.1760  -27.1020   19.3320 C   0  0  0  0  0  3  0  0  0  0  0  0
  -25.8740  -27.6340   19.4050 C   0  0  0  0  0  3  0  0  0  0  0  0
  -24.2820  -29.4510   20.2620 C   0  0  0  0  0  2  0  0  0  0  0  0
  -25.1200  -30.6580   22.3310 N   0  0  0  0  0  0  0  0  0  0  0  0
  -23.8320  -31.3460   24.0640 O   0  0  0  0  0  0  0  0  0  0  0  0
  -23.4850  -28.7200   22.5330 C   0  0  0  0  0  0  0  0  0  0  0  0
  -22.2940  -28.1990   22.1930 N   0  0  0  0  0  0  0  0  0  0  0  0
  -24.1830  -28.2530   23.4350 O   0  0  0  0  0  0  0  0  0  0  0  0
  -21.7790  -28.6460   21.4460 H   0  0  0  0  0  0  0  0  0  0  0  0
  -19.4970  -25.9290   21.9180 C   0  0  0  0  0  0  0  0  0  0  0  0
  -21.6580  -27.0340   22.8060 C   0  0  0  0  0  3  0  0  0  0  0  0
  -22.3760  -25.7270   22.3950 C   0  0  0  0  0  2  0  0  0  0  0  0
  -21.7530  -25.0590   21.1650 C   0  0  0  0  0  2  0  0  0  0  0  0
  -20.2800  -24.7240   21.4230 C   0  0  0  0  0  2  0  0  0  0  0  0
  -20.1460  -27.0210   22.5540 C   0  0  0  0  0  0  0  0  0  0  0  0
  -19.3770  -28.1310   22.9620 C   0  0  0  0  0  3  0  0  0  0  0  0
  -17.9860  -28.1610   22.7490 C   0  0  0  0  0  3  0  0  0  0  0  0
  -17.3460  -27.0710   22.1340 C   0  0  0  0  0  3  0  0  0  0  0  0
  -18.1000  -25.9570   21.7250 C   0  0  0  0  0  3  0  0  0  0  0  0
  -26.1150  -32.0550   24.2230 C   0  0  0  0  0  3  0  0  0  0  0  0
  -26.5240  -31.4040   25.6020 C   0  0  1  0  0  0  0  0  0  0  0  0
  -25.3350  -31.2040   26.5700 C   0  0  0  0  0  1  0  0  0  0  0  0
  -27.1900  -30.0260   25.3780 C   0  0  0  0  0  1  0  0  0  0  0  0
  -27.5730  -32.2930   26.3110 C   0  0  0  0  0  1  0  0  0  0  0  0
  -25.7040  -33.4510   24.4070 N   0  0  0  0  0  0  0  0  0  0  0  0
  -26.0570  -34.4610   23.6000 C   0  0  0  0  0  0  0  0  0  0  0  0
  -26.8340  -34.3200   22.6520 O   0  0  0  0  0  0  0  0  0  0  0  0
  -25.0270  -33.6320   25.1340 H   0  0  0  0  0  0  0  0  0  0  0  0
  -24.2710  -36.1030   22.9430 C   0  0  0  0  0  1  0  0  0  0  0  0
  -25.4530  -35.8470   23.8920 C   0  0  0  0  0  3  0  0  0  0  0  0
  -27.4460  -36.9330   24.8280 C   0  0  0  0  0  1  0  0  0  0  0  0
  -26.4300  -36.9520   23.7790 N   0  0  0  0  0  0  0  0  0  0  0  0
  -25.9600  -37.8520   23.8090 H   0  0  0  0  0  0  0  0  0  0  0  0
  1  2  1  0
  2  5  2  0
  3  6  2  0
  4  1  2  0
  4  3  1  0
  5  8  1  0
  6  5  1  0
  6  9  1  0
  7  4  1  0
 10 23  1  0
 11 16  1  0
 12 13  1  0
 12 11  1  0
 14 13  1  0
 14 27  1  0
 14 15  1  0
 16 10  1  0
 16 15  1  0
 17 10  2  0
 18 20  1  0
 18 22  1  0
 19 21  1  0
 19 22  1  0
 22  2  1  0
 23 20  1  0
 23 21  1  0
 24 25  2  0
 25 44  1  0
 26 25  1  0
 26 29  1  0
 27 28  1  0
 27 24  1  0
 28 26  2  0
 29 30  1  0
 30 31  2  0
 32 35  1  0
 32 31  1  0
 33 32  2  0
 34 33  1  0
 34 29  2  0
 35 36  1  0
 36 41  2  0
 36 37  1  0
 37 38  2  0
 38 39  1  0
 39 43  1  0
 40 39  2  0
 41 40  1  0
 42 41  1  0
 44 45  1  0
 45 48  1  0
 45 47  1  0
 46 44  2  0
 49 24  1  0
 49 50  1  0
 51 49  1  0
 52 55  1  0
 52 54  1  0
 53 54  1  0
 54  3  1  0
 55 56  1  0
 55 53  1  0
 56 58  1  0
 57 68  2  0
 58 63  1  0
 59 67  1  0
 59 69  1  0
 60 66  1  0
 60 62  1  0
 61 67  1  0
 62 61  1  0
 63 62  2  0
 64 65  1  0
 64 58  2  0
 65 60  2  0
 66 59  1  0
 67 57  1  0
 69 71  2  0
 70 69  1  0
 72 70  1  0
 73 78  1  0
 74 70  1  0
 75 74  1  0
 76 77  1  0
 76 75  1  0
 77 73  1  0
 78 74  1  0
 78 79  2  0
 80 79  1  0
 81 80  2  0
 82 73  2  0
 82 81  1  0
 83 57  1  0
 83 88  1  0
 83 84  1  0
 84 87  1  1
 84 85  1  0
 86 84  1  0
 88 91  1  0
 89 93  1  0
 89 88  1  0
 90 89  2  0
 93 92  1  0
 95 96  1  0
 95 93  1  0
 95 94  1  0
M  ISO  4  10 100  23 100  55 101  56 101
M  END
>  <TORSDO>  (23) 
F 17

>  <SCORE>  (23) 
-9.262

>  <name>  (23) 
22

>  <ligand_id>  (23) 
22

>  <original_smiles>  (23) 
[H]c1c([H])c([H])c2c(c1[H])C([H])([H])C([H])([H])C([H])([H])C2([H])N([H])C(=O)C1([H])N(C(=O)C([H])(N([H])C(=O)C([H])(N([H])C([H])([H])[H])C([H])([H])[H])C(C([H])([H])[H])(C([H])([H])[H])C([H])([H])[H])C([H])([H])c2c([H])c(OC3([H])C([H])([H])C([H])(c4c(C([H])([H])[H])c([H])c(C5([H])C([H])([H])C([H])([H])N(C(=O)N6C([H])([H])C([H])([H])C([H])([H])C([H])(n7nc(-c8c([H])c([H])c(Oc9c([H])c([H])c(F)c([H])c9F)c([H])c8[H])c(C(=O)N([H])[H])c7N([H])[H])C6([H])[H])C([H])([H])C5([H])[H])c(C([H])([H])[H])c4C([H])([H])[H])C3([H])[H])c([H])c([H])c2C1([H])[H]

>  <smiles>  (23) 
[H]c1c([H])c([H])c2c(c1[H])C([H])([H])C([H])([H])C([H])([H])C2([H])N([H])C(=O)C1([H])N(C(=O)C([H])(N([H])C(=O)C([H])(N([H])C([H])([H])[H])C([H])([H])[H])C(C([H])([H])[H])(C([H])([H])[H])C([H])([H])[H])C([H])([H])c2c([H])c(OC3([H])C([H])([H])C([H])(c4c(C([H])([H])[H])c([H])c(C5([H])C([H])([H])C([H])([H])N(C(=O)N6C([H])([H])C([H])([H])C([H])([H])C([H])(n7nc(-c8c([H])c([H])c(Oc9c([H])c([H])c(F)c([H])c9F)c([H])c8[H])c(C(=O)N([H])[H])c7N([H])[H])C6([H])[H])C([H])([H])C5([H])[H])c(C([H])([H])[H])c4C([H])([H])[H])C3([H])[H])c([H])c([H])c2C1([H])[H]

$$$$
23:0:0
     RDKit          3D

 96105  0  0  1  0  0  0  0  0999 V2000
  -28.0880  -23.7590   20.5490 C   0  0  0  0  0  0  0  0  0  0  0  0
  -29.3850  -23.5620   18.4870 C   0  0  0  0  0  0  0  0  0  0  0  0
  -28.4000  -22.3910   20.8400 C   0  0  0  0  0  0  0  0  0  0  0  0
  -29.7440  -22.2250   18.8450 C   0  0  0  0  0  0  0  0  0  0  0  0
  -28.6220  -24.3830   19.3750 C   0  0  0  0  0  0  0  0  0  0  0  0
  -29.4280  -21.6970   20.1260 C   0  0  0  0  0  0  0  0  0  0  0  0
  -27.1950  -24.5280   21.5320 C   0  0  0  0  0  1  0  0  0  0  0  0
  -29.8600  -24.1380   17.1430 C   0  0  0  0  0  1  0  0  0  0  0  0
  -27.5450  -21.6310   21.8560 C   0  0  0  0  0  1  0  0  0  0  0  0
  -30.3890  -21.3090   17.8150 C   0  0  0  0  0  1  0  0  0  0  0  0
  -30.5990  -21.0200   22.3530 C   0  0  0  0  0  1  0  0  0  0  0  0
  -30.4110  -20.6820   20.8540 C   0  0  0  0  0  3  0  0  0  0  0  0
  -31.4080  -14.9590   19.9800 C   0  0  0  0  0  0  0  0  0  0  0  0
  -31.0920  -12.6790   19.0630 C   0  0  0  0  0  2  0  0  0  0  0  0
  -30.1280  -12.7040   17.8590 C   0  0  0  0  0  2  0  0  0  0  0  0
  -28.6700  -12.5880   18.3340 C   0  0  0  0  0  2  0  0  0  0  0  0
  -28.3410  -13.5750   19.4810 C   0  0  0  0  0  3  0  0  0  0  0  0
  -29.4140  -13.4940   20.5930 C   0  0  0  0  0  2  0  0  0  0  0  0
  -30.7010  -13.7870   19.9610 N   0  0  0  0  0  0  0  0  0  0  0  0
  -32.6020  -14.9340   19.6610 O   0  0  0  0  0  0  0  0  0  0  0  0
  -31.6740  -18.4920   19.9110 C   0  0  0  0  0  2  0  0  0  0  0  0
  -29.2180  -18.1940   20.5400 C   0  0  0  0  0  2  0  0  0  0  0  0
  -31.2920  -17.2560   19.0570 C   0  0  0  0  0  2  0  0  0  0  0  0
  -29.5800  -16.6630   20.7140 C   0  0  0  0  0  2  0  0  0  0  0  0
  -30.4720  -19.0890   20.6880 C   0  0  0  0  0  3  0  0  0  0  0  0
  -30.7220  -16.1620   19.8840 N   0  0  0  0  0  0  0  0  0  0  0  0
  -26.0040  -14.3100   20.2740 C   0  0  0  0  0  0  0  0  0  0  0  0
  -24.9140  -13.5880   20.6830 C   0  0  0  0  0  0  0  0  0  0  0  0
  -25.3050  -12.2180   20.6250 C   0  0  0  0  0  0  0  0  0  0  0  0
  -26.9960  -13.3770   20.0050 N   0  0  0  0  0  0  0  0  0  0  0  0
  -26.5790  -12.1140   20.2720 N   0  0  0  0  0  0  0  0  0  0  0  0
  -24.5200  -10.9930   20.8200 C   0  0  0  0  0  0  0  0  0  0  0  0
  -24.8830  -10.0330   21.7900 C   0  0  0  0  0  3  0  0  0  0  0  0
  -24.1040   -8.8700   21.9700 C   0  0  0  0  0  3  0  0  0  0  0  0
  -22.9470   -8.6610   21.1790 C   0  0  0  0  0  0  0  0  0  0  0  0
  -22.6060   -9.6100   20.1960 C   0  0  0  0  0  3  0  0  0  0  0  0
  -23.3870  -10.7630   20.0150 C   0  0  0  0  0  3  0  0  0  0  0  0
  -22.1430   -7.5490   21.2700 O   0  0  0  0  0  0  0  0  0  0  0  0
  -21.9480   -6.8980   22.4600 C   0  0  0  0  0  0  0  0  0  0  0  0
  -21.4300   -7.5600   23.5960 C   0  0  0  0  0  3  0  0  0  0  0  0
  -21.1780   -6.8370   24.7800 C   0  0  0  0  0  3  0  0  0  0  0  0
  -21.4380   -5.4530   24.8280 C   0  0  0  0  0  0  0  0  0  0  0  0
  -21.9470   -4.7920   23.6970 C   0  0  0  0  0  3  0  0  0  0  0  0
  -22.1980   -5.5120   22.5160 C   0  0  0  0  0  0  0  0  0  0  0  0
  -22.6680   -4.8660   21.4200 F   0  0  0  0  0  0  0  0  0  0  0  0
  -21.1900   -4.7560   25.9620 F   0  0  0  0  0  0  0  0  0  0  0  0
  -23.5520  -14.1350   20.9980 C   0  0  0  0  0  0  0  0  0  0  0  0
  -22.8220  -13.4790   21.8950 N   0  0  0  0  0  0  0  0  0  0  0  0
  -23.1420  -15.1730   20.4800 O   0  0  0  0  0  0  0  0  0  0  0  0
  -23.1670  -12.6350   22.3280 H   0  0  0  0  0  0  0  0  0  0  0  0
  -21.9080  -13.8290   22.1500 H   0  0  0  0  0  0  0  0  0  0  0  0
  -26.2180  -15.6670   20.0780 N   0  0  0  0  0  0  0  0  0  0  0  0
  -25.4730  -16.3490   20.1730 H   0  0  0  0  0  0  0  0  0  0  0  0
  -27.0550  -16.0500   19.6560 H   0  0  0  0  0  0  0  0  0  0  0  0
  -28.3050  -25.8440   18.9130 C   0  0  0  0  0  2  0  0  0  0  0  0
  -28.1760  -26.9180   19.8680 O   0  0  0  0  0  0  0  0  0  0  0  0
  -24.5660  -32.0190   23.3000 C   0  0  0  0  0  0  0  0  0  0  0  0
  -27.0150  -27.6760   19.9090 C   0  0  0  0  0  0  0  0  0  0  0  0
  -23.2620  -30.6780   21.6880 C   0  0  0  0  0  3  0  0  0  0  0  0
  -24.6290  -29.2020   20.1220 C   0  0  0  0  0  0  0  0  0  0  0  0
  -25.7770  -31.0380   21.3550 C   0  0  0  0  0  2  0  0  0  0  0  0
  -25.8250  -29.6900   20.6700 C   0  0  0  0  0  0  0  0  0  0  0  0
  -27.0180  -28.9330   20.5700 C   0  0  0  0  0  3  0  0  0  0  0  0
  -25.7940  -27.2160   19.3580 C   0  0  0  0  0  3  0  0  0  0  0  0
  -24.6130  -27.9640   19.4680 C   0  0  0  0  0  3  0  0  0  0  0  0
  -23.3910  -30.0610   20.2730 C   0  0  0  0  0  2  0  0  0  0  0  0
  -24.5550  -31.2620   22.1700 N   0  0  0  0  0  0  0  0  0  0  0  0
  -23.5180  -32.2700   23.9160 O   0  0  0  0  0  0  0  0  0  0  0  0
  -22.6740  -29.6130   22.6440 C   0  0  0  0  0  0  0  0  0  0  0  0
  -21.3560  -29.3760   22.5330 N   0  0  0  0  0  0  0  0  0  0  0  0
  -23.3950  -29.0060   23.4390 O   0  0  0  0  0  0  0  0  0  0  0  0
  -20.8300  -29.9310   21.8720 H   0  0  0  0  0  0  0  0  0  0  0  0
  -18.0670  -27.9700   22.9800 C   0  0  0  0  0  0  0  0  0  0  0  0
  -20.5940  -28.3960   23.3030 C   0  0  0  0  0  3  0  0  0  0  0  0
  -20.7980  -26.9610   22.7510 C   0  0  0  0  0  2  0  0  0  0  0  0
  -19.7410  -26.5480   21.7200 C   0  0  0  0  0  2  0  0  0  0  0  0
  -18.3410  -26.6180   22.3380 C   0  0  0  0  0  2  0  0  0  0  0  0
  -19.1250  -28.8100   23.4220 C   0  0  0  0  0  0  0  0  0  0  0  0
  -18.8150  -30.0650   23.9850 C   0  0  0  0  0  3  0  0  0  0  0  0
  -17.4800  -30.4880   24.1140 C   0  0  0  0  0  3  0  0  0  0  0  0
  -16.4360  -29.6470   23.6920 C   0  0  0  0  0  3  0  0  0  0  0  0
  -16.7300  -28.3900   23.1350 C   0  0  0  0  0  3  0  0  0  0  0  0
  -25.8900  -32.6220   23.8640 C   0  0  0  0  0  3  0  0  0  0  0  0
  -25.6170  -34.0180   24.2280 N   0  0  0  0  0  0  0  0  0  0  0  0
  -25.9240  -35.0750   23.4670 C   0  0  0  0  0  0  0  0  0  0  0  0
  -26.5440  -34.9780   22.4020 O   0  0  0  0  0  0  0  0  0  0  0  0
  -25.0640  -34.1720   25.0590 H   0  0  0  0  0  0  0  0  0  0  0  0
  -24.1920  -36.8830   23.2230 C   0  0  0  0  0  1  0  0  0  0  0  0
  -25.4710  -36.4610   23.9650 C   0  0  0  0  0  3  0  0  0  0  0  0
  -27.6520  -37.3200   24.6920 C   0  0  0  0  0  1  0  0  0  0  0  0
  -26.5050  -37.5070   23.8080 N   0  0  0  0  0  0  0  0  0  0  0  0
  -26.1130  -38.4290   23.9820 H   0  0  0  0  0  0  0  0  0  0  0  0
  -26.4670  -31.8200   25.0930 C   0  0  1  0  0  0  0  0  0  0  0  0
  -25.4210  -31.5580   26.2010 C   0  0  0  0  0  1  0  0  0  0  0  0
  -27.0360  -30.4530   24.6410 C   0  0  0  0  0  1  0  0  0  0  0  0
  -27.6440  -32.6030   25.7210 C   0  0  0  0  0  1  0  0  0  0  0  0
  1  3  1  0
  1  7  1  0
  2  4  2  0
  2  5  1  0
  3  9  1  0
  4  6  1  0
  5  1  2  0
  6  3  2  0
  6 12  1  0
  8  2  1  0
 10  4  1  0
 12 11  1  0
 14 19  1  0
 15 16  1  0
 15 14  1  0
 17 16  1  0
 17 30  1  0
 17 18  1  0
 19 13  1  0
 19 18  1  0
 20 13  2  0
 21 25  1  0
 22 25  1  0
 22 24  1  0
 23 26  1  0
 23 21  1  0
 25 12  1  0
 26 13  1  0
 26 24  1  0
 27 28  2  0
 28 47  1  0
 29 28  1  0
 29 32  1  0
 30 31  1  0
 30 27  1  0
 31 29  2  0
 32 33  1  0
 33 34  2  0
 35 38  1  0
 35 34  1  0
 36 35  2  0
 37 36  1  0
 37 32  2  0
 38 39  1  0
 39 44  2  0
 39 40  1  0
 40 41  2  0
 41 42  1  0
 42 46  1  0
 43 42  2  0
 44 43  1  0
 45 44  1  0
 47 48  1  0
 48 51  1  0
 48 50  1  0
 49 47  2  0
 52 53  1  0
 52 27  1  0
 54 52  1  0
 55  5  1  0
 55 56  1  0
 56 58  1  0
 57 68  2  0
 58 63  1  0
 59 67  1  0
 59 69  1  0
 60 66  1  0
 60 62  1  0
 61 67  1  0
 62 61  1  0
 63 62  2  0
 64 65  1  0
 64 58  2  0
 65 60  2  0
 66 59  1  0
 67 57  1  0
 69 71  2  0
 70 69  1  0
 72 70  1  0
 73 82  2  0
 73 78  1  0
 74 70  1  0
 74 78  1  0
 75 74  1  0
 76 77  1  0
 76 75  1  0
 77 73  1  0
 78 79  2  0
 79 80  1  0
 81 80  2  0
 82 81  1  0
 83 57  1  0
 83 84  1  0
 83 93  1  0
 84 87  1  0
 85 89  1  0
 85 84  1  0
 86 85  2  0
 89 88  1  0
 91 89  1  0
 91 92  1  0
 91 90  1  0
 93 96  1  1
 93 94  1  0
 95 93  1  0
M  ISO  4  13 100  26 100  55 101  56 101
M  END
>  <TORSDO>  (24) 
F 18

>  <SCORE>  (24) 
-13.349

>  <name>  (24) 
23

>  <ligand_id>  (24) 
23

>  <original_smiles>  (24) 
[H]c1c([H])c([H])c2c(c1[H])C([H])([H])C([H])([H])C([H])([H])C2([H])N([H])C(=O)C1([H])N(C(=O)C([H])(N([H])C(=O)C([H])(N([H])C([H])([H])[H])C([H])([H])[H])C(C([H])([H])[H])(C([H])([H])[H])C([H])([H])[H])C([H])([H])c2c([H])c(OC([H])([H])c3c(C([H])([H])[H])c(C([H])([H])[H])c(C([H])(C([H])([H])[H])C4([H])C([H])([H])C([H])([H])N(C(=O)N5C([H])([H])C([H])([H])C([H])([H])C([H])(n6nc(-c7c([H])c([H])c(Oc8c([H])c([H])c(F)c([H])c8F)c([H])c7[H])c(C(=O)N([H])[H])c6N([H])[H])C5([H])[H])C([H])([H])C4([H])[H])c(C([H])([H])[H])c3C([H])([H])[H])c([H])c([H])c2C1([H])[H]

>  <smiles>  (24) 
[H]c1c([H])c([H])c2c(c1[H])C([H])([H])C([H])([H])C([H])([H])C2([H])N([H])C(=O)C1([H])N(C(=O)C([H])(N([H])C(=O)C([H])(N([H])C([H])([H])[H])C([H])([H])[H])C(C([H])([H])[H])(C([H])([H])[H])C([H])([H])[H])C([H])([H])c2c([H])c(OC([H])([H])c3c(C([H])([H])[H])c(C([H])([H])[H])c(C([H])(C([H])([H])[H])C4([H])C([H])([H])C([H])([H])N(C(=O)N5C([H])([H])C([H])([H])C([H])([H])C([H])(n6nc(-c7c([H])c([H])c(Oc8c([H])c([H])c(F)c([H])c8F)c([H])c7[H])c(C(=O)N([H])[H])c6N([H])[H])C5([H])[H])C([H])([H])C4([H])[H])c(C([H])([H])[H])c3C([H])([H])[H])c([H])c([H])c2C1([H])[H]

$$$$
24:0:0
     RDKit          3D

100110  0  0  1  0  0  0  0  0999 V2000
  -28.5720  -20.6860   19.6920 C   0  0  0  0  0  3  0  0  0  0  0  0
  -27.9150  -21.9190   19.4790 C   0  0  0  0  0  0  0  0  0  0  0  0
  -29.9520  -23.1070   20.1190 C   0  0  0  0  0  0  0  0  0  0  0  0
  -28.5870  -23.1670   19.6770 C   0  0  0  0  0  0  0  0  0  0  0  0
  -30.6260  -21.8450   20.2340 C   0  0  0  0  0  0  0  0  0  0  0  0
  -29.9210  -20.6180   20.0850 C   0  0  0  0  0  0  0  0  0  0  0  0
  -26.4460  -21.8430   19.0790 C   0  0  0  0  0  1  0  0  0  0  0  0
  -32.1350  -21.8040   20.4970 C   0  0  0  0  0  1  0  0  0  0  0  0
  -31.4270  -17.6340   21.7070 C   0  0  0  0  0  2  0  0  0  0  0  0
  -30.6770  -18.9710   21.7430 C   0  0  0  0  0  2  0  0  0  0  0  0
  -30.2740  -18.1250   19.6250 C   0  0  0  0  0  2  0  0  0  0  0  0
  -31.2160  -17.0800   20.2850 C   0  0  0  0  0  3  0  0  0  0  0  0
  -30.5470  -19.3680   20.3500 N   0  0  0  0  0  0  0  0  0  0  0  0
  -31.4050  -14.5850   19.9830 C   0  0  0  0  0  0  0  0  0  0  0  0
  -31.1920  -12.1750   19.4720 C   0  0  0  0  0  2  0  0  0  0  0  0
  -30.2750  -11.9840   18.2470 C   0  0  0  0  0  2  0  0  0  0  0  0
  -28.7970  -11.9200   18.6780 C   0  0  0  0  0  2  0  0  0  0  0  0
  -28.4030  -13.0750   19.6380 C   0  0  0  0  0  3  0  0  0  0  0  0
  -29.4350  -13.2200   20.7780 C   0  0  0  0  0  2  0  0  0  0  0  0
  -30.7610  -13.3990   20.1660 N   0  0  0  0  0  0  0  0  0  0  0  0
  -32.5220  -14.6600   19.4630 O   0  0  0  0  0  0  0  0  0  0  0  0
  -30.7130  -15.6930   20.3180 N   0  0  0  0  0  0  0  0  0  0  0  0
  -29.7870  -15.5460   20.6890 H   0  0  0  0  0  0  0  0  0  0  0  0
  -26.1050  -13.8650   20.4810 C   0  0  0  0  0  0  0  0  0  0  0  0
  -24.9770  -13.1780   20.8440 C   0  0  0  0  0  0  0  0  0  0  0  0
  -25.2980  -11.7940   20.7070 C   0  0  0  0  0  0  0  0  0  0  0  0
  -27.0460  -12.9040   20.1530 N   0  0  0  0  0  0  0  0  0  0  0  0
  -26.5650  -11.6480   20.3450 N   0  0  0  0  0  0  0  0  0  0  0  0
  -24.4550  -10.5990   20.8460 C   0  0  0  0  0  0  0  0  0  0  0  0
  -24.7580   -9.5860   21.7810 C   0  0  0  0  0  3  0  0  0  0  0  0
  -23.9220   -8.4550   21.9080 C   0  0  0  0  0  3  0  0  0  0  0  0
  -22.7670   -8.3320   21.0990 C   0  0  0  0  0  0  0  0  0  0  0  0
  -22.4820   -9.3330   20.1530 C   0  0  0  0  0  3  0  0  0  0  0  0
  -23.3180  -10.4550   20.0250 C   0  0  0  0  0  3  0  0  0  0  0  0
  -21.9120   -7.2570   21.1350 O   0  0  0  0  0  0  0  0  0  0  0  0
  -21.6430   -6.5900   22.3030 C   0  0  0  0  0  0  0  0  0  0  0  0
  -21.0600   -7.2370   23.4140 C   0  0  0  0  0  3  0  0  0  0  0  0
  -20.7370   -6.4980   24.5700 C   0  0  0  0  0  3  0  0  0  0  0  0
  -20.9870   -5.1130   24.6140 C   0  0  0  0  0  0  0  0  0  0  0  0
  -21.5630   -4.4660   23.5060 C   0  0  0  0  0  3  0  0  0  0  0  0
  -21.8870   -5.2030   22.3530 C   0  0  0  0  0  0  0  0  0  0  0  0
  -22.4220   -4.5700   21.2810 F   0  0  0  0  0  0  0  0  0  0  0  0
  -20.6710   -4.4010   25.7200 F   0  0  0  0  0  0  0  0  0  0  0  0
  -23.6460  -13.7730   21.2030 C   0  0  0  0  0  0  0  0  0  0  0  0
  -22.8970  -13.1120   22.0800 N   0  0  0  0  0  0  0  0  0  0  0  0
  -23.2820  -14.8550   20.7440 O   0  0  0  0  0  0  0  0  0  0  0  0
  -23.2040  -12.2340   22.4710 H   0  0  0  0  0  0  0  0  0  0  0  0
  -22.0040  -13.4900   22.3640 H   0  0  0  0  0  0  0  0  0  0  0  0
  -26.4010  -15.2220   20.3840 N   0  0  0  0  0  0  0  0  0  0  0  0
  -25.7070  -15.9400   20.5640 H   0  0  0  0  0  0  0  0  0  0  0  0
  -27.2780  -15.5960   20.0430 H   0  0  0  0  0  0  0  0  0  0  0  0
  -26.8120  -24.7230   20.6560 C   0  0  0  0  0  1  0  0  0  0  0  0
  -27.7820  -24.5010   19.4830 C   0  0  0  0  0  3  0  0  0  0  0  0
  -28.5670  -25.8130   19.1240 C   0  0  0  0  0  2  0  0  0  0  0  0
  -27.9280  -26.7190   18.2070 O   0  0  0  0  0  0  0  0  0  0  0  0
  -25.2310  -30.9500   23.3380 C   0  0  0  0  0  0  0  0  0  0  0  0
  -26.9090  -27.5130   18.6850 C   0  0  0  0  0  0  0  0  0  0  0  0
  -23.6990  -30.3340   21.4950 C   0  0  0  0  0  3  0  0  0  0  0  0
  -24.7860  -29.2030   19.4830 C   0  0  0  0  0  0  0  0  0  0  0  0
  -26.2270  -30.4340   21.1110 C   0  0  0  0  0  2  0  0  0  0  0  0
  -26.0530  -29.3520   20.0630 C   0  0  0  0  0  0  0  0  0  0  0  0
  -27.1220  -28.5100   19.6680 C   0  0  0  0  0  3  0  0  0  0  0  0
  -25.6340  -27.3920   18.0980 C   0  0  0  0  0  3  0  0  0  0  0  0
  -24.5700  -28.2210   18.5000 C   0  0  0  0  0  3  0  0  0  0  0  0
  -23.6950  -30.1380   19.9570 C   0  0  0  0  0  2  0  0  0  0  0  0
  -25.0770  -30.5660   22.0380 N   0  0  0  0  0  0  0  0  0  0  0  0
  -24.2510  -31.1500   24.0670 O   0  0  0  0  0  0  0  0  0  0  0  0
  -22.9780  -29.1330   22.1490 C   0  0  0  0  0  0  0  0  0  0  0  0
  -21.6370  -29.1260   22.0710 N   0  0  0  0  0  0  0  0  0  0  0  0
  -23.6200  -28.2260   22.6860 O   0  0  0  0  0  0  0  0  0  0  0  0
  -21.1860  -29.9110   21.6240 H   0  0  0  0  0  0  0  0  0  0  0  0
  -18.1800  -28.1000   22.3200 C   0  0  0  0  0  0  0  0  0  0  0  0
  -20.7520  -28.0780   22.5800 C   0  0  0  0  0  3  0  0  0  0  0  0
  -20.7340  -26.8550   21.6320 C   0  0  0  0  0  2  0  0  0  0  0  0
  -19.6040  -26.9080   20.6000 C   0  0  0  0  0  2  0  0  0  0  0  0
  -18.2420  -26.9770   21.2990 C   0  0  0  0  0  2  0  0  0  0  0  0
  -19.3590  -28.6280   22.9090 C   0  0  0  0  0  0  0  0  0  0  0  0
  -19.2490  -29.6950   23.8270 C   0  0  0  0  0  3  0  0  0  0  0  0
  -17.9910  -30.2320   24.1590 C   0  0  0  0  0  3  0  0  0  0  0  0
  -16.8250  -29.6960   23.5860 C   0  0  0  0  0  3  0  0  0  0  0  0
  -16.9210  -28.6300   22.6720 C   0  0  0  0  0  3  0  0  0  0  0  0
  -26.6440  -31.1800   23.9600 C   0  0  0  0  0  3  0  0  0  0  0  0
  -26.5790  -32.4050   24.7670 N   0  0  0  0  0  0  0  0  0  0  0  0
  -27.1020  -33.5840   24.4020 C   0  0  0  0  0  0  0  0  0  0  0  0
  -27.7590  -33.7340   23.3680 O   0  0  0  0  0  0  0  0  0  0  0  0
  -26.0080  -32.3680   25.5980 H   0  0  0  0  0  0  0  0  0  0  0  0
  -25.7340  -35.6650   24.7500 C   0  0  0  0  0  1  0  0  0  0  0  0
  -26.8560  -34.7880   25.3290 C   0  0  0  0  0  3  0  0  0  0  0  0
  -29.0790  -34.9320   26.3610 C   0  0  0  0  0  1  0  0  0  0  0  0
  -28.0650  -35.6100   25.5590 N   0  0  0  0  0  0  0  0  0  0  0  0
  -27.8250  -36.4810   26.0250 H   0  0  0  0  0  0  0  0  0  0  0  0
  -27.1440  -29.9640   24.8310 C   0  0  1  0  0  0  0  0  0  0  0  0
  -26.1270  -29.5120   25.9060 C   0  0  0  0  0  1  0  0  0  0  0  0
  -27.4590  -28.7430   23.9360 C   0  0  0  0  0  1  0  0  0  0  0  0
  -28.4640  -30.3380   25.5460 C   0  0  0  0  0  1  0  0  0  0  0  0
  -30.7190  -24.3770   20.5290 C   0  0  0  0  0  2  0  0  0  0  0  0
  -29.2260  -25.3200   23.6170 C   0  0  0  0  0  2  0  0  0  0  0  0
  -29.5910  -24.0020   22.9270 C   0  0  0  0  0  2  0  0  0  0  0  0
  -29.6370  -26.0280   22.3220 C   0  0  0  0  0  2  0  0  0  0  0  0
  -30.5080  -24.8050   21.9890 C   0  0  0  0  0  3  0  0  0  0  0  0
  1  6  1  0
  2  4  1  0
  2  1  2  0
  3  5  1  0
  3 96  1  0
  4  3  2  0
  5  8  1  0
  6  5  2  0
  6 13  1  0
  7  2  1  0
  9 10  1  0
 11 12  1  0
 11 13  1  0
 12 22  1  0
 12  9  1  0
 13 10  1  0
 14 20  1  0
 14 22  1  0
 15 20  1  0
 16 17  1  0
 16 15  1  0
 18 17  1  0
 18 27  1  0
 18 19  1  0
 20 19  1  0
 21 14  2  0
 22 23  1  0
 24 25  2  0
 25 44  1  0
 26 25  1  0
 26 29  1  0
 27 28  1  0
 27 24  1  0
 28 26  2  0
 29 30  1  0
 30 31  2  0
 32 35  1  0
 32 31  1  0
 33 32  2  0
 34 33  1  0
 34 29  2  0
 35 36  1  0
 36 41  2  0
 36 37  1  0
 37 38  2  0
 38 39  1  0
 39 43  1  0
 40 39  2  0
 41 40  1  0
 42 41  1  0
 44 45  1  0
 45 48  1  0
 45 47  1  0
 46 44  2  0
 49 24  1  0
 49 50  1  0
 51 49  1  0
 53  4  1  0
 53 52  1  0
 54 53  1  0
 55 57  1  0
 55 54  1  0
 56 67  2  0
 57 62  1  0
 58 66  1  0
 58 68  1  0
 59 65  1  0
 59 61  1  0
 60 66  1  0
 61 60  1  0
 62 61  2  0
 63 64  1  0
 63 57  2  0
 64 59  2  0
 65 58  1  0
 66 56  1  0
 68 70  2  0
 69 68  1  0
 71 69  1  0
 72 81  2  0
 72 77  1  0
 73 69  1  0
 73 77  1  0
 74 73  1  0
 75 76  1  0
 75 74  1  0
 76 72  1  0
 77 78  2  0
 78 79  1  0
 80 79  2  0
 81 80  1  0
 82 56  1  0
 82 83  1  0
 82 92  1  0
 83 86  1  0
 84 83  1  0
 84 88  1  0
 85 84  2  0
 88 87  1  0
 88 90  1  0
 90 91  1  0
 90 89  1  0
 92 95  1  1
 92 93  1  0
 94 92  1  0
 96100  1  0
 98 97  1  0
 99 97  1  0
100 99  1  0
100 98  1  0
M  ISO  4  14 100  22 100  54 101  55 101
M  END
>  <TORSDO>  (25) 
F 21

>  <SCORE>  (25) 
-10.960

>  <name>  (25) 
24

>  <ligand_id>  (25) 
24

>  <original_smiles>  (25) 
[H]c1c([H])c([H])c2c(c1[H])C([H])([H])C([H])([H])C([H])([H])C2([H])N([H])C(=O)C1([H])N(C(=O)C([H])(N([H])C(=O)C([H])(N([H])C([H])([H])[H])C([H])([H])[H])C(C([H])([H])[H])(C([H])([H])[H])C([H])([H])[H])C([H])([H])c2c([H])c(OC([H])([H])C([H])(c3c(C([H])([H])[H])c([H])c(N4C([H])([H])C([H])([H])C([H])(N([H])C(=O)N5C([H])([H])C([H])([H])C([H])([H])C([H])(n6nc(-c7c([H])c([H])c(Oc8c([H])c([H])c(F)c([H])c8F)c([H])c7[H])c(C(=O)N([H])[H])c6N([H])[H])C5([H])[H])C4([H])[H])c(C([H])([H])[H])c3C([H])([H])C3([H])C([H])([H])C([H])([H])C3([H])[H])C([H])([H])[H])c([H])c([H])c2C1([H])[H]

>  <smiles>  (25) 
[H]c1c([H])c([H])c2c(c1[H])C([H])([H])C([H])([H])C([H])([H])C2([H])N([H])C(=O)C1([H])N(C(=O)C([H])(N([H])C(=O)C([H])(N([H])C([H])([H])[H])C([H])([H])[H])C(C([H])([H])[H])(C([H])([H])[H])C([H])([H])[H])C([H])([H])c2c([H])c(OC([H])([H])C([H])(c3c(C([H])([H])[H])c([H])c(N4C([H])([H])C([H])([H])C([H])(N([H])C(=O)N5C([H])([H])C([H])([H])C([H])([H])C([H])(n6nc(-c7c([H])c([H])c(Oc8c([H])c([H])c(F)c([H])c8F)c([H])c7[H])c(C(=O)N([H])[H])c6N([H])[H])C5([H])[H])C4([H])[H])c(C([H])([H])[H])c3C([H])([H])C3([H])C([H])([H])C([H])([H])C3([H])[H])C([H])([H])[H])c([H])c([H])c2C1([H])[H]

$$$$
25:0:0
     RDKit          3D

 97106  0  0  1  0  0  0  0  0999 V2000
  -29.7410  -19.6160   19.2490 C   0  0  0  0  0  0  0  0  0  0  0  0
  -30.0930  -20.7220   20.0170 C   0  0  0  0  0  0  0  0  0  0  0  0
  -29.9390  -18.2860   19.7040 C   0  0  0  0  0  0  0  0  0  0  0  0
  -30.6690  -20.5480   21.2930 C   0  0  0  0  0  0  0  0  0  0  0  0
  -30.8180  -19.2270   21.8070 C   0  0  0  0  0  0  0  0  0  0  0  0
  -30.4790  -18.0810   21.0150 C   0  0  0  0  0  0  0  0  0  0  0  0
  -29.2080  -20.0510   17.8990 C   0  0  0  0  0  3  0  0  0  0  0  0
  -29.2690  -21.5960   17.9090 C   0  0  0  0  0  3  0  0  0  0  0  0
  -29.8530  -22.0350   19.2770 C   0  0  0  0  0  3  0  0  0  0  0  0
  -29.6010  -17.1360   18.7640 C   0  0  0  0  0  1  0  0  0  0  0  0
  -31.1570  -21.7540   22.0890 C   0  0  0  0  0  1  0  0  0  0  0  0
  -31.3440  -19.0280   23.2340 C   0  0  0  0  0  1  0  0  0  0  0  0
  -28.9620  -22.9610   20.0240 N   0  0  0  0  0  4  0  0  0  0  0  0
  -29.2770  -22.9170   20.9810 H   0  0  0  0  0  0  0  0  0  0  0  0
  -28.0220  -22.5960   20.0110 H   0  0  0  0  0  0  0  0  0  0  0  0
  -28.9980  -24.3920   19.5880 C   0  0  0  0  0  2  0  0  0  0  0  0
  -28.3630  -25.3580   20.6180 C   0  0  0  0  0  2  0  0  0  0  0  0
  -28.4600  -26.7370   20.2040 O   0  0  0  0  0  0  0  0  0  0  0  0
  -24.5940  -31.9070   23.2360 C   0  0  0  0  0  0  0  0  0  0  0  0
  -27.2870  -27.4620   20.1930 C   0  0  0  0  0  0  0  0  0  0  0  0
  -23.4100  -30.4870   21.5970 C   0  0  0  0  0  3  0  0  0  0  0  0
  -24.8820  -28.9540   20.1860 C   0  0  0  0  0  0  0  0  0  0  0  0
  -25.9330  -30.8660   21.4070 C   0  0  0  0  0  2  0  0  0  0  0  0
  -26.0330  -29.4900   20.7770 C   0  0  0  0  0  0  0  0  0  0  0  0
  -27.2410  -28.7530   20.7710 C   0  0  0  0  0  3  0  0  0  0  0  0
  -26.1190  -26.9460   19.5890 C   0  0  0  0  0  3  0  0  0  0  0  0
  -24.9190  -27.6820   19.5900 C   0  0  0  0  0  3  0  0  0  0  0  0
  -23.6320  -29.8030   20.2210 C   0  0  0  0  0  2  0  0  0  0  0  0
  -24.6640  -31.1010   22.1390 N   0  0  0  0  0  0  0  0  0  0  0  0
  -23.5060  -32.1720   23.7680 O   0  0  0  0  0  0  0  0  0  0  0  0
  -22.7620  -29.4640   22.5580 C   0  0  0  0  0  0  0  0  0  0  0  0
  -21.4400  -29.2770   22.4290 N   0  0  0  0  0  0  0  0  0  0  0  0
  -23.4480  -28.8420   23.3740 O   0  0  0  0  0  0  0  0  0  0  0  0
  -20.9500  -29.8270   21.7400 H   0  0  0  0  0  0  0  0  0  0  0  0
  -18.0630  -28.0970   22.9450 C   0  0  0  0  0  0  0  0  0  0  0  0
  -20.6250  -28.3390   23.2020 C   0  0  0  0  0  3  0  0  0  0  0  0
  -20.7160  -26.9130   22.6150 C   0  0  0  0  0  2  0  0  0  0  0  0
  -19.6040  -26.6030   21.6070 C   0  0  0  0  0  2  0  0  0  0  0  0
  -18.2280  -26.7520   22.2610 C   0  0  0  0  0  2  0  0  0  0  0  0
  -19.1880  -28.8500   23.3730 C   0  0  0  0  0  0  0  0  0  0  0  0
  -18.9780  -30.1120   23.9710 C   0  0  0  0  0  3  0  0  0  0  0  0
  -17.6770  -30.6180   24.1470 C   0  0  0  0  0  3  0  0  0  0  0  0
  -16.5670  -29.8610   23.7340 C   0  0  0  0  0  3  0  0  0  0  0  0
  -16.7610  -28.6020   23.1380 C   0  0  0  0  0  3  0  0  0  0  0  0
  -25.8700  -32.5500   23.8630 C   0  0  0  0  0  3  0  0  0  0  0  0
  -26.3850  -31.7870   25.1440 C   0  0  1  0  0  0  0  0  0  0  0  0
  -25.2870  -31.5420   26.2060 C   0  0  0  0  0  1  0  0  0  0  0  0
  -26.9810  -30.4180   24.7530 C   0  0  0  0  0  1  0  0  0  0  0  0
  -27.5260  -32.5930   25.8070 C   0  0  0  0  0  1  0  0  0  0  0  0
  -25.5490  -33.9460   24.1840 N   0  0  0  0  0  0  0  0  0  0  0  0
  -25.8790  -34.9970   23.4220 C   0  0  0  0  0  0  0  0  0  0  0  0
  -26.5590  -34.8930   22.3980 O   0  0  0  0  0  0  0  0  0  0  0  0
  -24.9460  -34.1010   24.9790 H   0  0  0  0  0  0  0  0  0  0  0  0
  -24.1490  -36.7760   23.0290 C   0  0  0  0  0  1  0  0  0  0  0  0
  -25.3770  -36.3830   23.8670 C   0  0  0  0  0  3  0  0  0  0  0  0
  -27.4880  -37.2790   24.7400 C   0  0  0  0  0  1  0  0  0  0  0  0
  -26.4050  -37.4410   23.7720 N   0  0  0  0  0  0  0  0  0  0  0  0
  -25.9910  -38.3590   23.9100 H   0  0  0  0  0  0  0  0  0  0  0  0
  -30.8420  -16.6910   21.6080 C   0  0  0  0  0  2  0  0  0  0  0  0
  -30.8610  -14.4530   20.5210 C   0  0  0  0  0  0  0  0  0  0  0  0
  -30.5300  -12.3130   19.3510 C   0  0  0  0  0  2  0  0  0  0  0  0
  -29.6050  -12.5360   18.1380 C   0  0  0  0  0  2  0  0  0  0  0  0
  -28.1250  -12.4240   18.5550 C   0  0  0  0  0  2  0  0  0  0  0  0
  -27.7850  -13.2610   19.8180 C   0  0  0  0  0  3  0  0  0  0  0  0
  -28.8250  -13.0220   20.9350 C   0  0  0  0  0  2  0  0  0  0  0  0
  -30.1580  -13.3010   20.3750 N   0  0  0  0  0  0  0  0  0  0  0  0
  -31.9850  -14.6200   20.0440 O   0  0  0  0  0  0  0  0  0  0  0  0
  -30.2140  -15.4540   21.1370 N   0  0  0  0  0  0  0  0  0  0  0  0
  -29.2780  -15.2630   21.4580 H   0  0  0  0  0  0  0  0  0  0  0  0
  -25.3860  -13.8930   20.5030 C   0  0  0  0  0  0  0  0  0  0  0  0
  -24.3070  -13.1330   20.8640 C   0  0  0  0  0  0  0  0  0  0  0  0
  -24.7570  -11.7760   20.8420 C   0  0  0  0  0  0  0  0  0  0  0  0
  -26.4250  -13.0020   20.2830 N   0  0  0  0  0  0  0  0  0  0  0  0
  -26.0490  -11.7230   20.5430 N   0  0  0  0  0  0  0  0  0  0  0  0
  -24.0150  -10.5210   21.0290 C   0  0  0  0  0  0  0  0  0  0  0  0
  -24.4310   -9.5540   21.9710 C   0  0  0  0  0  3  0  0  0  0  0  0
  -23.6940   -8.3630   22.1470 C   0  0  0  0  0  3  0  0  0  0  0  0
  -22.5270   -8.1300   21.3800 C   0  0  0  0  0  0  0  0  0  0  0  0
  -22.1310   -9.0870   20.4280 C   0  0  0  0  0  3  0  0  0  0  0  0
  -22.8680  -10.2700   20.2510 C   0  0  0  0  0  3  0  0  0  0  0  0
  -21.7620   -6.9910   21.4650 O   0  0  0  0  0  0  0  0  0  0  0  0
  -21.6920   -6.2560   22.6220 C   0  0  0  0  0  0  0  0  0  0  0  0
  -21.2420   -6.8200   23.8370 C   0  0  0  0  0  3  0  0  0  0  0  0
  -21.1210   -6.0110   24.9840 C   0  0  0  0  0  3  0  0  0  0  0  0
  -21.4340   -4.6400   24.9190 C   0  0  0  0  0  0  0  0  0  0  0  0
  -21.8750   -4.0760   23.7090 C   0  0  0  0  0  3  0  0  0  0  0  0
  -22.0030   -4.8830   22.5640 C   0  0  0  0  0  0  0  0  0  0  0  0
  -22.4080   -4.3300   21.3960 F   0  0  0  0  0  0  0  0  0  0  0  0
  -21.3090   -3.8620   26.0190 F   0  0  0  0  0  0  0  0  0  0  0  0
  -22.9110  -13.6220   21.1240 C   0  0  0  0  0  0  0  0  0  0  0  0
  -22.1670  -12.9360   21.9830 N   0  0  0  0  0  0  0  0  0  0  0  0
  -22.4880  -14.6520   20.5970 O   0  0  0  0  0  0  0  0  0  0  0  0
  -22.5230  -12.1070   22.4370 H   0  0  0  0  0  0  0  0  0  0  0  0
  -21.2300  -13.2440   22.1940 H   0  0  0  0  0  0  0  0  0  0  0  0
  -25.5670  -15.2620   20.3260 N   0  0  0  0  0  0  0  0  0  0  0  0
  -24.8020  -15.9190   20.4260 H   0  0  0  0  0  0  0  0  0  0  0  0
  -26.4250  -15.6950   20.0120 H   0  0  0  0  0  0  0  0  0  0  0  0
  1  3  2  0
  1  2  1  0
  2  4  2  0
  3  6  1  0
  4  5  1  0
  4 11  1  0
  5 12  1  0
  6 59  1  0
  6  5  2  0
  7  8  2  0
  7  1  1  0
  8  9  1  0
  9  2  1  0
  9 13  1  0
 10  3  1  0
 13 14  1  0
 15 13  1  0
 16 13  1  0
 16 17  1  0
 18 17  1  0
 19 30  2  0
 20 18  1  0
 20 25  1  0
 21 29  1  0
 21 31  1  0
 22 28  1  0
 22 24  1  0
 23 29  1  0
 24 23  1  0
 25 24  2  0
 26 27  1  0
 26 20  2  0
 27 22  2  0
 28 21  1  0
 29 19  1  0
 31 33  2  0
 32 31  1  0
 34 32  1  0
 35 44  2  0
 35 40  1  0
 36 32  1  0
 36 40  1  0
 37 36  1  0
 38 39  1  0
 38 37  1  0
 39 35  1  0
 40 41  2  0
 41 42  1  0
 43 42  2  0
 44 43  1  0
 45 19  1  0
 45 50  1  0
 45 46  1  0
 46 49  1  1
 46 47  1  0
 48 46  1  0
 50 53  1  0
 51 55  1  0
 51 50  1  0
 52 51  2  0
 55 54  1  0
 57 55  1  0
 57 58  1  0
 57 56  1  0
 60 68  1  0
 61 66  1  0
 62 63  1  0
 62 61  1  0
 64 63  1  0
 64 73  1  0
 64 65  1  0
 66 60  1  0
 66 65  1  0
 67 60  2  0
 68 69  1  0
 68 59  1  0
 70 71  2  0
 71 90  1  0
 72 71  1  0
 72 75  1  0
 73 70  1  0
 73 74  1  0
 74 72  2  0
 75 76  1  0
 76 77  2  0
 78 81  1  0
 78 77  1  0
 79 78  2  0
 80 79  1  0
 80 75  2  0
 81 82  1  0
 82 83  1  0
 83 84  2  0
 85 84  1  0
 85 89  1  0
 86 85  2  0
 87 82  2  0
 87 86  1  0
 88 87  1  0
 90 91  1  0
 91 94  1  0
 91 93  1  0
 92 90  2  0
 95 96  1  0
 95 70  1  0
 97 95  1  0
M  ISO  4  17 101  18 101  60 100  68 100
M  END
>  <TORSDO>  (26) 
F 20

>  <SCORE>  (26) 
-14.089

>  <name>  (26) 
25

>  <ligand_id>  (26) 
25

>  <original_smiles>  (26) 
[H]c1c([H])c([H])c2c(c1[H])C([H])([H])C([H])([H])C([H])([H])C2([H])N([H])C(=O)C1([H])N(C(=O)C([H])(N([H])C(=O)C([H])(N([H])C([H])([H])[H])C([H])([H])[H])C(C([H])([H])[H])(C([H])([H])[H])C([H])([H])[H])C([H])([H])c2c([H])c(OC([H])([H])C([H])([H])[N+]([H])([H])C3([H])c4c(C([H])([H])[H])c(C([H])([H])[H])c(C([H])([H])N([H])C(=O)N5C([H])([H])C([H])([H])C([H])([H])C([H])(n6nc(-c7c([H])c([H])c(Oc8c([H])c([H])c(F)c([H])c8F)c([H])c7[H])c(C(=O)N([H])[H])c6N([H])[H])C5([H])[H])c(C([H])([H])[H])c4C([H])([H])C3([H])[H])c([H])c([H])c2C1([H])[H]

>  <smiles>  (26) 
[H]c1c([H])c([H])c2c(c1[H])C([H])([H])C([H])([H])C([H])([H])C2([H])N([H])C(=O)C1([H])N(C(=O)C([H])(N([H])C(=O)C([H])(N([H])C([H])([H])[H])C([H])([H])[H])C(C([H])([H])[H])(C([H])([H])[H])C([H])([H])[H])C([H])([H])c2c([H])c(OC([H])([H])C([H])([H])[N+]([H])([H])C3([H])c4c(C([H])([H])[H])c(C([H])([H])[H])c(C([H])([H])N([H])C(=O)N5C([H])([H])C([H])([H])C([H])([H])C([H])(n6nc(-c7c([H])c([H])c(Oc8c([H])c([H])c(F)c([H])c8F)c([H])c7[H])c(C(=O)N([H])[H])c6N([H])[H])C5([H])[H])c(C([H])([H])[H])c4C([H])([H])C3([H])[H])c([H])c([H])c2C1([H])[H]

$$$$
26:0:0
     RDKit          3D

100109  0  0  1  0  0  0  0  0999 V2000
  -32.8240  -21.3580   19.7210 C   0  0  0  0  0  1  0  0  0  0  0  0
  -31.3500  -21.2150   20.1620 C   0  0  0  0  0  3  0  0  0  0  0  0
  -30.2710  -14.4820   19.5840 C   0  0  0  0  0  0  0  0  0  0  0  0
  -29.8190  -12.3040   18.4830 C   0  0  0  0  0  2  0  0  0  0  0  0
  -28.6950  -12.4360   17.4340 C   0  0  0  0  0  2  0  0  0  0  0  0
  -27.3280  -12.1590   18.0840 C   0  0  0  0  0  2  0  0  0  0  0  0
  -27.1140  -12.9840   19.3700 C   0  0  0  0  0  3  0  0  0  0  0  0
  -28.3570  -12.9430   20.3100 C   0  0  0  0  0  2  0  0  0  0  0  0
  -29.5600  -13.3040   19.5380 N   0  0  0  0  0  0  0  0  0  0  0  0
  -31.4030  -14.5490   19.1020 O   0  0  0  0  0  0  0  0  0  0  0  0
  -29.3660  -17.9490   19.6660 C   0  0  0  0  0  0  0  0  0  0  0  0
  -29.6830  -19.3200   19.6800 C   0  0  0  0  0  0  0  0  0  0  0  0
  -30.9320  -19.7210   20.2250 C   0  0  0  0  0  0  0  0  0  0  0  0
  -31.4110  -17.3320   20.7960 C   0  0  0  0  0  0  0  0  0  0  0  0
  -30.2090  -16.9460   20.1510 C   0  0  0  0  0  0  0  0  0  0  0  0
  -31.7860  -18.7170   20.7890 C   0  0  0  0  0  0  0  0  0  0  0  0
  -28.0910  -17.3810   19.1540 C   0  0  0  0  0  3  0  0  0  0  0  0
  -28.2830  -15.8920   19.3800 C   0  0  0  0  0  3  0  0  0  0  0  0
  -28.6910  -20.3210   19.0840 C   0  0  0  0  0  1  0  0  0  0  0  0
  -32.2400  -16.3020   21.5490 C   0  0  0  0  0  1  0  0  0  0  0  0
  -29.6190  -15.6440   19.9310 N   0  0  0  0  0  0  0  0  0  0  0  0
  -24.8720  -13.5370   20.4920 C   0  0  0  0  0  0  0  0  0  0  0  0
  -23.8860  -12.7280   20.9820 C   0  0  0  0  0  0  0  0  0  0  0  0
  -24.3620  -11.3910   20.8210 C   0  0  0  0  0  0  0  0  0  0  0  0
  -25.8780  -12.6790   20.0630 N   0  0  0  0  0  0  0  0  0  0  0  0
  -25.5890  -11.3860   20.3240 N   0  0  0  0  0  0  0  0  0  0  0  0
  -23.6990  -10.1070   21.0500 C   0  0  0  0  0  0  0  0  0  0  0  0
  -24.1970   -9.1830   21.9930 C   0  0  0  0  0  3  0  0  0  0  0  0
  -23.5330   -7.9590   22.2090 C   0  0  0  0  0  3  0  0  0  0  0  0
  -22.3590   -7.6520   21.4810 C   0  0  0  0  0  0  0  0  0  0  0  0
  -21.8840   -8.5660   20.5240 C   0  0  0  0  0  3  0  0  0  0  0  0
  -22.5500   -9.7820   20.3040 C   0  0  0  0  0  3  0  0  0  0  0  0
  -21.6610   -6.4760   21.6090 O   0  0  0  0  0  0  0  0  0  0  0  0
  -21.5770   -5.8210   22.8100 C   0  0  0  0  0  0  0  0  0  0  0  0
  -21.0200   -6.4290   23.9550 C   0  0  0  0  0  3  0  0  0  0  0  0
  -20.8890   -5.6940   25.1500 C   0  0  0  0  0  3  0  0  0  0  0  0
  -21.3070   -4.3500   25.1990 C   0  0  0  0  0  0  0  0  0  0  0  0
  -21.8590   -3.7420   24.0590 C   0  0  0  0  0  3  0  0  0  0  0  0
  -21.9930   -4.4740   22.8660 C   0  0  0  0  0  0  0  0  0  0  0  0
  -22.5060   -3.8790   21.7650 F   0  0  0  0  0  0  0  0  0  0  0  0
  -21.1720   -3.6400   26.3440 F   0  0  0  0  0  0  0  0  0  0  0  0
  -22.5370  -13.1600   21.4770 C   0  0  0  0  0  0  0  0  0  0  0  0
  -21.9820  -12.4340   22.4400 N   0  0  0  0  0  0  0  0  0  0  0  0
  -21.9920  -14.1740   21.0440 O   0  0  0  0  0  0  0  0  0  0  0  0
  -22.4420  -11.6130   22.8040 H   0  0  0  0  0  0  0  0  0  0  0  0
  -21.0840  -12.7020   22.8180 H   0  0  0  0  0  0  0  0  0  0  0  0
  -24.9700  -14.9190   20.3480 N   0  0  0  0  0  0  0  0  0  0  0  0
  -24.2010  -15.5310   20.5960 H   0  0  0  0  0  0  0  0  0  0  0  0
  -25.7220  -15.4000   19.8720 H   0  0  0  0  0  0  0  0  0  0  0  0
  -34.1460  -18.8900   20.5850 C   0  0  0  0  0  1  0  0  0  0  0  0
  -32.9710  -19.1250   21.3590 O   0  0  0  0  0  0  0  0  0  0  0  0
  -32.0240  -22.9810   21.9850 C   0  0  0  0  0  1  0  0  0  0  0  0
  -30.9290  -22.0480   21.4210 C   0  0  0  0  0  3  0  0  0  0  0  0
  -29.5830  -22.8220   21.2720 C   0  0  0  0  0  2  0  0  0  0  0  0
  -29.6870  -24.1240   20.5530 N   0  0  0  0  0  4  0  0  0  0  0  0
  -30.5890  -24.5150   20.7760 H   0  0  0  0  0  0  0  0  0  0  0  0
  -29.6640  -23.9710   19.5560 H   0  0  0  0  0  0  0  0  0  0  0  0
  -28.6310  -25.1110   20.9300 C   0  0  0  0  0  2  0  0  0  0  0  0
  -28.8120  -26.5270   20.3220 C   0  0  0  0  0  2  0  0  0  0  0  0
  -27.8980  -26.7490   19.2380 O   0  0  0  0  0  0  0  0  0  0  0  0
  -24.4520  -31.7570   23.0430 C   0  0  0  0  0  0  0  0  0  0  0  0
  -26.7820  -27.5370   19.4550 C   0  0  0  0  0  0  0  0  0  0  0  0
  -23.0970  -30.5130   21.3840 C   0  0  0  0  0  3  0  0  0  0  0  0
  -24.4160  -29.0630   19.7490 C   0  0  0  0  0  0  0  0  0  0  0  0
  -25.6060  -30.8480   21.0310 C   0  0  0  0  0  2  0  0  0  0  0  0
  -25.6200  -29.5260   20.2940 C   0  0  0  0  0  0  0  0  0  0  0  0
  -26.8050  -28.7720   20.1480 C   0  0  0  0  0  3  0  0  0  0  0  0
  -25.5630  -27.0940   18.9000 C   0  0  0  0  0  3  0  0  0  0  0  0
  -24.3800  -27.8450   19.0510 C   0  0  0  0  0  3  0  0  0  0  0  0
  -23.1960  -29.9370   19.9450 C   0  0  0  0  0  2  0  0  0  0  0  0
  -24.4070  -31.0490   21.8770 N   0  0  0  0  0  0  0  0  0  0  0  0
  -23.4200  -32.0050   23.6830 O   0  0  0  0  0  0  0  0  0  0  0  0
  -22.4890  -29.4350   22.3100 C   0  0  0  0  0  0  0  0  0  0  0  0
  -21.1590  -29.2620   22.2320 N   0  0  0  0  0  0  0  0  0  0  0  0
  -23.2080  -28.7590   23.0500 O   0  0  0  0  0  0  0  0  0  0  0  0
  -20.6400  -29.8560   21.6000 H   0  0  0  0  0  0  0  0  0  0  0  0
  -17.8130  -28.0250   22.8050 C   0  0  0  0  0  0  0  0  0  0  0  0
  -20.3790  -28.2790   22.9820 C   0  0  0  0  0  3  0  0  0  0  0  0
  -20.4620  -26.8850   22.3190 C   0  0  0  0  0  2  0  0  0  0  0  0
  -19.3190  -26.6170   21.3350 C   0  0  0  0  0  2  0  0  0  0  0  0
  -17.9640  -26.7180   22.0430 C   0  0  0  0  0  2  0  0  0  0  0  0
  -18.9470  -28.7640   23.2300 C   0  0  0  0  0  0  0  0  0  0  0  0
  -18.7530  -29.9880   23.9080 C   0  0  0  0  0  3  0  0  0  0  0  0
  -17.4570  -30.4750   24.1570 C   0  0  0  0  0  3  0  0  0  0  0  0
  -16.3370  -29.7340   23.7440 C   0  0  0  0  0  3  0  0  0  0  0  0
  -16.5150  -28.5090   23.0760 C   0  0  0  0  0  3  0  0  0  0  0  0
  -25.7960  -32.3120   23.6110 C   0  0  0  0  0  3  0  0  0  0  0  0
  -26.3730  -31.4470   24.7980 C   0  0  1  0  0  0  0  0  0  0  0  0
  -25.3450  -31.1650   25.9170 C   0  0  0  0  0  1  0  0  0  0  0  0
  -26.8940  -30.0860   24.2800 C   0  0  0  0  0  1  0  0  0  0  0  0
  -27.5860  -32.1690   25.4330 C   0  0  0  0  0  1  0  0  0  0  0  0
  -25.5580  -33.6960   24.0410 N   0  0  0  0  0  0  0  0  0  0  0  0
  -25.8810  -34.7810   23.3240 C   0  0  0  0  0  0  0  0  0  0  0  0
  -26.4850  -34.7180   22.2500 O   0  0  0  0  0  0  0  0  0  0  0  0
  -25.0200  -33.8210   24.8860 H   0  0  0  0  0  0  0  0  0  0  0  0
  -24.2010  -36.6490   23.1700 C   0  0  0  0  0  1  0  0  0  0  0  0
  -25.4690  -36.1550   23.8870 C   0  0  0  0  0  3  0  0  0  0  0  0
  -27.6690  -36.9220   24.6590 C   0  0  0  0  0  1  0  0  0  0  0  0
  -26.5320  -37.1790   23.7800 N   0  0  0  0  0  0  0  0  0  0  0  0
  -26.1640  -38.1000   24.0020 H   0  0  0  0  0  0  0  0  0  0  0  0
  2  1  1  0
  2 13  1  0
  2 53  1  0
  3 21  1  0
  4  9  1  0
  5  6  1  0
  5  4  1  0
  7  6  1  0
  7 25  1  0
  7  8  1  0
  9  3  1  0
  9  8  1  0
 10  3  2  0
 11 12  2  0
 11 15  1  0
 12 13  1  0
 13 16  2  0
 14 20  1  0
 15 14  2  0
 16 14  1  0
 16 51  1  0
 17 18  2  0
 17 11  1  0
 18 21  1  0
 19 12  1  0
 21 15  1  0
 22 23  2  0
 23 42  1  0
 24 23  1  0
 24 27  1  0
 25 26  1  0
 25 22  1  0
 26 24  2  0
 27 28  1  0
 28 29  2  0
 30 33  1  0
 30 29  1  0
 31 30  2  0
 32 31  1  0
 32 27  2  0
 33 34  1  0
 34 39  2  0
 34 35  1  0
 35 36  2  0
 36 37  1  0
 37 41  1  0
 38 37  2  0
 39 38  1  0
 40 39  1  0
 42 43  1  0
 43 45  1  0
 43 46  1  0
 44 42  2  0
 47 22  1  0
 47 48  1  0
 49 47  1  0
 50 51  1  0
 53 52  1  0
 54 53  1  0
 55 56  1  0
 55 58  1  0
 55 54  1  0
 57 55  1  0
 59 58  1  0
 60 62  1  0
 60 59  1  0
 61 72  2  0
 62 67  1  0
 63 71  1  0
 63 73  1  0
 64 70  1  0
 64 66  1  0
 65 71  1  0
 66 65  1  0
 67 66  2  0
 68 69  1  0
 68 62  2  0
 69 64  2  0
 70 63  1  0
 71 61  1  0
 73 75  2  0
 74 73  1  0
 76 74  1  0
 77 86  2  0
 77 82  1  0
 78 74  1  0
 78 82  1  0
 79 78  1  0
 80 81  1  0
 80 79  1  0
 81 77  1  0
 82 83  2  0
 83 84  1  0
 85 84  2  0
 86 85  1  0
 87 61  1  0
 87 92  1  0
 87 88  1  0
 88 91  1  1
 88 89  1  0
 90 88  1  0
 92 95  1  0
 93 97  1  0
 93 92  1  0
 94 93  2  0
 97 96  1  0
 99 97  1  0
 99100  1  0
 99 98  1  0
M  ISO  4   3 100  21 100  59 101  60 101
M  END
>  <TORSDO>  (27) 
F 22

>  <SCORE>  (27) 
-9.893

>  <name>  (27) 
26

>  <ligand_id>  (27) 
26

>  <original_smiles>  (27) 
[H]c1c([H])c([H])c2c(c1[H])C([H])([H])C([H])([H])C([H])([H])C2([H])N([H])C(=O)C1([H])N(C(=O)C([H])(N([H])C(=O)C([H])(N([H])C([H])([H])[H])C([H])([H])[H])C(C([H])([H])[H])(C([H])([H])[H])C([H])([H])[H])C([H])([H])c2c([H])c(OC([H])([H])C([H])([H])[N+]([H])([H])C([H])([H])C([H])(C([H])([H])[H])C([H])(c3c(OC([H])([H])[H])c(C([H])([H])[H])c4c(c3C([H])([H])[H])C([H])([H])C([H])([H])N4C(=O)N3C([H])([H])C([H])([H])C([H])([H])C([H])(n4nc(-c5c([H])c([H])c(Oc6c([H])c([H])c(F)c([H])c6F)c([H])c5[H])c(C(=O)N([H])[H])c4N([H])[H])C3([H])[H])C([H])([H])[H])c([H])c([H])c2C1([H])[H]

>  <smiles>  (27) 
[H]c1c([H])c([H])c2c(c1[H])C([H])([H])C([H])([H])C([H])([H])C2([H])N([H])C(=O)C1([H])N(C(=O)C([H])(N([H])C(=O)C([H])(N([H])C([H])([H])[H])C([H])([H])[H])C(C([H])([H])[H])(C([H])([H])[H])C([H])([H])[H])C([H])([H])c2c([H])c(OC([H])([H])C([H])([H])[N+]([H])([H])C([H])([H])C([H])(C([H])([H])[H])C([H])(c3c(OC([H])([H])[H])c(C([H])([H])[H])c4c(c3C([H])([H])[H])C([H])([H])C([H])([H])N4C(=O)N3C([H])([H])C([H])([H])C([H])([H])C([H])(n4nc(-c5c([H])c([H])c(Oc6c([H])c([H])c(F)c([H])c6F)c([H])c5[H])c(C(=O)N([H])[H])c4N([H])[H])C3([H])[H])C([H])([H])[H])c([H])c([H])c2C1([H])[H]

$$$$
27:0:0
     RDKit          3D

 97106  0  0  1  0  0  0  0  0999 V2000
  -29.7680  -21.4940   20.4350 C   0  0  0  0  0  2  0  0  0  0  0  0
  -28.8800  -20.8910   18.2830 C   0  0  0  0  0  2  0  0  0  0  0  0
  -29.3010  -20.0240   20.3690 C   0  0  0  0  0  3  0  0  0  0  0  0
  -29.5000  -22.0760   19.0380 C   0  0  0  0  0  3  0  0  0  0  0  0
  -29.3720  -19.7490   18.9740 O   0  0  0  0  0  0  0  0  0  0  0  0
  -29.9740  -17.6130   20.7450 C   0  0  0  0  0  3  0  0  0  0  0  0
  -31.2120  -18.1330   23.2000 C   0  0  0  0  0  3  0  0  0  0  0  0
  -30.0320  -18.9550   21.2100 C   0  0  0  0  0  0  0  0  0  0  0  0
  -30.6390  -19.2010   22.4770 C   0  0  0  0  0  0  0  0  0  0  0  0
  -31.1320  -16.8080   22.7330 C   0  0  0  0  0  0  0  0  0  0  0  0
  -30.4980  -16.5420   21.5040 C   0  0  0  0  0  0  0  0  0  0  0  0
  -30.6620  -20.5650   23.1480 C   0  0  0  0  0  1  0  0  0  0  0  0
  -31.6840  -15.6790   23.5860 C   0  0  0  0  0  1  0  0  0  0  0  0
  -30.7000  -14.4250   20.1890 C   0  0  0  0  0  0  0  0  0  0  0  0
  -30.2970  -12.3570   18.8890 C   0  0  0  0  0  2  0  0  0  0  0  0
  -29.2840  -12.6200   17.7560 C   0  0  0  0  0  2  0  0  0  0  0  0
  -27.8330  -12.4920   18.2600 C   0  0  0  0  0  2  0  0  0  0  0  0
  -27.5880  -13.2870   19.5700 C   0  0  0  0  0  3  0  0  0  0  0  0
  -28.6880  -12.9620   20.6030 C   0  0  0  0  0  2  0  0  0  0  0  0
  -29.9990  -13.2750   19.9980 N   0  0  0  0  0  0  0  0  0  0  0  0
  -31.7100  -14.7240   19.5450 O   0  0  0  0  0  0  0  0  0  0  0  0
  -30.1970  -15.1990   21.1630 N   0  0  0  0  0  0  0  0  0  0  0  0
  -29.4440  -14.7730   21.6840 H   0  0  0  0  0  0  0  0  0  0  0  0
  -25.2350  -13.9340   20.3990 C   0  0  0  0  0  0  0  0  0  0  0  0
  -24.1730  -13.1770   20.8160 C   0  0  0  0  0  0  0  0  0  0  0  0
  -24.6070  -11.8160   20.7460 C   0  0  0  0  0  0  0  0  0  0  0  0
  -26.2520  -13.0360   20.1090 N   0  0  0  0  0  0  0  0  0  0  0  0
  -25.8780  -11.7580   20.3720 N   0  0  0  0  0  0  0  0  0  0  0  0
  -23.8690  -10.5650   20.9630 C   0  0  0  0  0  0  0  0  0  0  0  0
  -24.3280   -9.5840   21.8690 C   0  0  0  0  0  3  0  0  0  0  0  0
  -23.5930   -8.3970   22.0720 C   0  0  0  0  0  3  0  0  0  0  0  0
  -22.3840   -8.1820   21.3690 C   0  0  0  0  0  0  0  0  0  0  0  0
  -21.9420   -9.1520   20.4530 C   0  0  0  0  0  3  0  0  0  0  0  0
  -22.6780  -10.3310   20.2480 C   0  0  0  0  0  3  0  0  0  0  0  0
  -21.6190   -7.0470   21.4800 O   0  0  0  0  0  0  0  0  0  0  0  0
  -21.6040   -6.2990   22.6300 C   0  0  0  0  0  0  0  0  0  0  0  0
  -21.2520   -6.8590   23.8780 C   0  0  0  0  0  3  0  0  0  0  0  0
  -21.1780   -6.0400   25.0220 C   0  0  0  0  0  3  0  0  0  0  0  0
  -21.4490   -4.6620   24.9220 C   0  0  0  0  0  0  0  0  0  0  0  0
  -21.7970   -4.1030   23.6790 C   0  0  0  0  0  3  0  0  0  0  0  0
  -21.8700   -4.9180   22.5370 C   0  0  0  0  0  0  0  0  0  0  0  0
  -22.1840   -4.3700   21.3380 F   0  0  0  0  0  0  0  0  0  0  0  0
  -21.3730   -3.8730   26.0190 F   0  0  0  0  0  0  0  0  0  0  0  0
  -22.8000  -13.6750   21.1660 C   0  0  0  0  0  0  0  0  0  0  0  0
  -22.1100  -12.9870   22.0700 N   0  0  0  0  0  0  0  0  0  0  0  0
  -22.3490  -14.7090   20.6750 O   0  0  0  0  0  0  0  0  0  0  0  0
  -22.4870  -12.1480   22.4850 H   0  0  0  0  0  0  0  0  0  0  0  0
  -21.1940  -13.3070   22.3510 H   0  0  0  0  0  0  0  0  0  0  0  0
  -25.4160  -15.3030   20.2270 N   0  0  0  0  0  0  0  0  0  0  0  0
  -24.6680  -15.9720   20.3720 H   0  0  0  0  0  0  0  0  0  0  0  0
  -26.2590  -15.7280   19.8630 H   0  0  0  0  0  0  0  0  0  0  0  0
  -28.6340  -23.2890   18.9850 N   0  0  0  0  0  4  0  0  0  0  0  0
  -27.6910  -23.0470   19.2550 H   0  0  0  0  0  0  0  0  0  0  0  0
  -28.5880  -23.5700   18.0150 H   0  0  0  0  0  0  0  0  0  0  0  0
  -29.0630  -24.4750   19.7800 C   0  0  0  0  0  2  0  0  0  0  0  0
  -28.6250  -25.8110   19.1290 C   0  0  0  0  0  2  0  0  0  0  0  0
  -28.3640  -26.8290   20.1130 O   0  0  0  0  0  0  0  0  0  0  0  0
  -24.5090  -31.9530   23.2210 C   0  0  0  0  0  0  0  0  0  0  0  0
  -27.1560  -27.5060   20.1220 C   0  0  0  0  0  0  0  0  0  0  0  0
  -23.2960  -30.5360   21.5990 C   0  0  0  0  0  3  0  0  0  0  0  0
  -24.7420  -28.9980   20.1740 C   0  0  0  0  0  0  0  0  0  0  0  0
  -25.8200  -30.9060   21.3760 C   0  0  0  0  0  2  0  0  0  0  0  0
  -25.9050  -29.5310   20.7410 C   0  0  0  0  0  0  0  0  0  0  0  0
  -27.1100  -28.7900   20.7150 C   0  0  0  0  0  3  0  0  0  0  0  0
  -25.9550  -26.9710   19.5930 C   0  0  0  0  0  3  0  0  0  0  0  0
  -24.7600  -27.7140   19.6060 C   0  0  0  0  0  3  0  0  0  0  0  0
  -23.4970  -29.8550   20.2210 C   0  0  0  0  0  2  0  0  0  0  0  0
  -24.5610  -31.1460   22.1230 N   0  0  0  0  0  0  0  0  0  0  0  0
  -23.4310  -32.2220   23.7690 O   0  0  0  0  0  0  0  0  0  0  0  0
  -22.6590  -29.5140   22.5690 C   0  0  0  0  0  0  0  0  0  0  0  0
  -21.3400  -29.3010   22.4330 N   0  0  0  0  0  0  0  0  0  0  0  0
  -23.3480  -28.9160   23.3990 O   0  0  0  0  0  0  0  0  0  0  0  0
  -20.8420  -29.8370   21.7360 H   0  0  0  0  0  0  0  0  0  0  0  0
  -17.9970  -28.0100   22.8880 C   0  0  0  0  0  0  0  0  0  0  0  0
  -20.5370  -28.3600   23.2130 C   0  0  0  0  0  3  0  0  0  0  0  0
  -20.7010  -26.9160   22.6850 C   0  0  0  0  0  2  0  0  0  0  0  0
  -19.6360  -26.5270   21.6550 C   0  0  0  0  0  2  0  0  0  0  0  0
  -18.2350  -26.6460   22.2600 C   0  0  0  0  0  2  0  0  0  0  0  0
  -19.0790  -28.8200   23.3220 C   0  0  0  0  0  0  0  0  0  0  0  0
  -18.8040  -30.0930   23.8680 C   0  0  0  0  0  3  0  0  0  0  0  0
  -17.4800  -30.5570   23.9850 C   0  0  0  0  0  3  0  0  0  0  0  0
  -16.4130  -29.7440   23.5670 C   0  0  0  0  0  3  0  0  0  0  0  0
  -16.6710  -28.4720   23.0240 C   0  0  0  0  0  3  0  0  0  0  0  0
  -25.7960  -32.5960   23.8230 C   0  0  0  0  0  3  0  0  0  0  0  0
  -26.3410  -31.8260   25.0890 C   0  0  1  0  0  0  0  0  0  0  0  0
  -25.2670  -31.5690   26.1700 C   0  0  0  0  0  1  0  0  0  0  0  0
  -26.9370  -30.4590   24.6810 C   0  0  0  0  0  1  0  0  0  0  0  0
  -27.4890  -32.6340   25.7380 C   0  0  0  0  0  1  0  0  0  0  0  0
  -25.4780  -33.9900   24.1610 N   0  0  0  0  0  0  0  0  0  0  0  0
  -25.7850  -35.0450   23.3950 C   0  0  0  0  0  0  0  0  0  0  0  0
  -26.4380  -34.9490   22.3520 O   0  0  0  0  0  0  0  0  0  0  0  0
  -24.8950  -34.1370   24.9710 H   0  0  0  0  0  0  0  0  0  0  0  0
  -24.0250  -36.8120   23.0760 C   0  0  0  0  0  1  0  0  0  0  0  0
  -25.2890  -36.4270   23.8600 C   0  0  0  0  0  3  0  0  0  0  0  0
  -27.4330  -37.3370   24.6370 C   0  0  0  0  0  1  0  0  0  0  0  0
  -26.3040  -37.4940   23.7240 N   0  0  0  0  0  0  0  0  0  0  0  0
  -25.8900  -38.4080   23.8870 H   0  0  0  0  0  0  0  0  0  0  0  0
  2  5  1  0
  2  4  1  0
  3  1  1  0
  3  8  1  0
  4 52  1  0
  4  1  1  0
  5  3  1  0
  6  8  2  0
  6 11  1  0
  8  9  1  0
  9 12  1  0
  9  7  2  0
 10  7  1  0
 10 13  1  0
 11 10  2  0
 14 22  1  0
 15 20  1  0
 16 17  1  0
 16 15  1  0
 18 17  1  0
 18 27  1  0
 18 19  1  0
 20 14  1  0
 20 19  1  0
 21 14  2  0
 22 11  1  0
 22 23  1  0
 24 25  2  0
 25 44  1  0
 26 25  1  0
 26 29  1  0
 27 28  1  0
 27 24  1  0
 28 26  2  0
 29 30  1  0
 30 31  2  0
 32 35  1  0
 32 31  1  0
 33 32  2  0
 34 33  1  0
 34 29  2  0
 35 36  1  0
 36 37  1  0
 37 38  2  0
 39 38  1  0
 39 43  1  0
 40 39  2  0
 41 36  2  0
 41 40  1  0
 42 41  1  0
 44 45  1  0
 45 48  1  0
 45 47  1  0
 46 44  2  0
 49 50  1  0
 49 24  1  0
 51 49  1  0
 52 53  1  0
 52 55  1  0
 54 52  1  0
 56 55  1  0
 56 57  1  0
 57 59  1  0
 58 69  2  0
 59 64  1  0
 60 68  1  0
 60 70  1  0
 61 67  1  0
 61 63  1  0
 62 68  1  0
 63 62  1  0
 64 63  2  0
 65 66  1  0
 65 59  2  0
 66 61  2  0
 67 60  1  0
 68 58  1  0
 70 72  2  0
 71 70  1  0
 73 71  1  0
 74 83  2  0
 74 79  1  0
 75 71  1  0
 75 79  1  0
 76 75  1  0
 77 78  1  0
 77 76  1  0
 78 74  1  0
 79 80  2  0
 80 81  1  0
 82 81  2  0
 83 82  1  0
 84 58  1  0
 84 89  1  0
 84 85  1  0
 85 88  1  1
 85 86  1  0
 87 85  1  0
 89 92  1  0
 90 94  1  0
 90 89  1  0
 91 90  2  0
 94 93  1  0
 96 94  1  0
 96 97  1  0
 96 95  1  0
M  ISO  4  14 100  22 100  56 101  57 101
M  END
>  <TORSDO>  (28) 
F 20

>  <SCORE>  (28) 
-10.011

>  <name>  (28) 
27

>  <ligand_id>  (28) 
27

>  <original_smiles>  (28) 
[H]c1c([H])c([H])c2c(c1[H])C([H])([H])C([H])([H])C([H])([H])C2([H])N([H])C(=O)C1([H])N(C(=O)C([H])(N([H])C(=O)C([H])(N([H])C([H])([H])[H])C([H])([H])[H])C(C([H])([H])[H])(C([H])([H])[H])C([H])([H])[H])C([H])([H])c2c([H])c(OC([H])([H])C([H])([H])[N+]([H])([H])C3([H])C([H])([H])OC([H])(c4c([H])c(N([H])C(=O)N5C([H])([H])C([H])([H])C([H])([H])C([H])(n6nc(-c7c([H])c([H])c(Oc8c([H])c([H])c(F)c([H])c8F)c([H])c7[H])c(C(=O)N([H])[H])c6N([H])[H])C5([H])[H])c(C([H])([H])[H])c([H])c4C([H])([H])[H])C3([H])[H])c([H])c([H])c2C1([H])[H]

>  <smiles>  (28) 
[H]c1c([H])c([H])c2c(c1[H])C([H])([H])C([H])([H])C([H])([H])C2([H])N([H])C(=O)C1([H])N(C(=O)C([H])(N([H])C(=O)C([H])(N([H])C([H])([H])[H])C([H])([H])[H])C(C([H])([H])[H])(C([H])([H])[H])C([H])([H])[H])C([H])([H])c2c([H])c(OC([H])([H])C([H])([H])[N+]([H])([H])C3([H])C([H])([H])OC([H])(c4c([H])c(N([H])C(=O)N5C([H])([H])C([H])([H])C([H])([H])C([H])(n6nc(-c7c([H])c([H])c(Oc8c([H])c([H])c(F)c([H])c8F)c([H])c7[H])c(C(=O)N([H])[H])c6N([H])[H])C5([H])[H])c(C([H])([H])[H])c([H])c4C([H])([H])[H])C3([H])[H])c([H])c([H])c2C1([H])[H]

$$$$
28:0:0
     RDKit          3D

 98107  0  0  1  0  0  0  0  0999 V2000
  -29.3900  -21.6610   18.9830 C   0  0  0  0  0  3  0  0  0  0  0  0
  -30.1830  -22.3870   19.8910 C   0  0  0  0  0  0  0  0  0  0  0  0
  -28.4580  -22.2850   18.1450 C   0  0  0  0  0  0  0  0  0  0  0  0
  -30.0220  -23.8140   19.9570 C   0  0  0  0  0  0  0  0  0  0  0  0
  -28.2860  -23.6910   18.1990 C   0  0  0  0  0  0  0  0  0  0  0  0
  -29.0530  -24.4700   19.1210 C   0  0  0  0  0  0  0  0  0  0  0  0
  -27.7030  -21.4000   17.1610 C   0  0  0  0  0  1  0  0  0  0  0  0
  -30.8830  -24.6480   20.9090 C   0  0  0  0  0  1  0  0  0  0  0  0
  -27.3180  -24.3600   17.2210 C   0  0  0  0  0  1  0  0  0  0  0  0
  -31.2370  -21.5900   20.6390 C   0  0  0  0  0  0  0  0  0  0  0  0
  -30.8560  -20.3730   21.0740 N   0  0  0  0  0  0  0  0  0  0  0  0
  -32.3940  -21.9970   20.7460 O   0  0  0  0  0  0  0  0  0  0  0  0
  -29.8730  -20.1530   20.9820 H   0  0  0  0  0  0  0  0  0  0  0  0
  -30.5570  -17.3350   22.3600 C   0  0  0  0  0  2  0  0  0  0  0  0
  -31.3230  -18.6040   22.7570 C   0  0  0  0  0  2  0  0  0  0  0  0
  -31.6900  -18.1330   20.3800 C   0  0  0  0  0  2  0  0  0  0  0  0
  -31.2950  -16.8230   21.1190 C   0  0  0  0  0  3  0  0  0  0  0  0
  -31.7520  -19.2630   21.4360 C   0  0  0  0  0  3  0  0  0  0  0  0
  -29.9290  -16.2330   18.9940 C   0  0  0  0  0  1  0  0  0  0  0  0
  -30.4960  -15.7230   20.3400 C   0  0  0  0  0  3  0  0  0  0  0  0
  -31.2580  -14.3900   20.0830 C   0  0  0  0  0  0  0  0  0  0  0  0
  -30.8490  -12.2150   19.0210 C   0  0  0  0  0  2  0  0  0  0  0  0
  -29.9020  -12.4890   17.8340 C   0  0  0  0  0  2  0  0  0  0  0  0
  -28.4250  -12.4520   18.2800 C   0  0  0  0  0  2  0  0  0  0  0  0
  -28.1610  -13.2780   19.5690 C   0  0  0  0  0  3  0  0  0  0  0  0
  -29.2320  -12.9810   20.6440 C   0  0  0  0  0  2  0  0  0  0  0  0
  -30.5590  -13.2210   20.0530 N   0  0  0  0  0  0  0  0  0  0  0  0
  -32.4210  -14.4740   19.6780 O   0  0  0  0  0  0  0  0  0  0  0  0
  -25.8360  -14.0510   20.3310 C   0  0  0  0  0  0  0  0  0  0  0  0
  -24.7190  -13.3510   20.7070 C   0  0  0  0  0  0  0  0  0  0  0  0
  -25.0780  -11.9720   20.6370 C   0  0  0  0  0  0  0  0  0  0  0  0
  -26.8050  -13.0960   20.0680 N   0  0  0  0  0  0  0  0  0  0  0  0
  -26.3530  -11.8400   20.3000 N   0  0  0  0  0  0  0  0  0  0  0  0
  -24.2680  -10.7610   20.8190 C   0  0  0  0  0  0  0  0  0  0  0  0
  -24.6460   -9.7520   21.7290 C   0  0  0  0  0  3  0  0  0  0  0  0
  -23.8440   -8.6010   21.8920 C   0  0  0  0  0  3  0  0  0  0  0  0
  -22.6490   -8.4570   21.1510 C   0  0  0  0  0  0  0  0  0  0  0  0
  -22.2900   -9.4570   20.2300 C   0  0  0  0  0  3  0  0  0  0  0  0
  -23.0910  -10.5990   20.0620 C   0  0  0  0  0  3  0  0  0  0  0  0
  -21.8180   -7.3670   21.2260 O   0  0  0  0  0  0  0  0  0  0  0  0
  -21.7120   -6.6240   22.3750 C   0  0  0  0  0  0  0  0  0  0  0  0
  -21.3210   -7.2030   23.6030 C   0  0  0  0  0  3  0  0  0  0  0  0
  -21.1630   -6.3930   24.7450 C   0  0  0  0  0  3  0  0  0  0  0  0
  -21.3820   -5.0040   24.6560 C   0  0  0  0  0  0  0  0  0  0  0  0
  -21.7620   -4.4260   23.4330 C   0  0  0  0  0  3  0  0  0  0  0  0
  -21.9250   -5.2350   22.2950 C   0  0  0  0  0  0  0  0  0  0  0  0
  -22.2730   -4.6710   21.1130 F   0  0  0  0  0  0  0  0  0  0  0  0
  -21.2180   -4.2220   25.7490 F   0  0  0  0  0  0  0  0  0  0  0  0
  -23.3690  -13.9230   21.0280 C   0  0  0  0  0  0  0  0  0  0  0  0
  -22.6150  -13.2640   21.9020 N   0  0  0  0  0  0  0  0  0  0  0  0
  -22.9950  -14.9860   20.5350 O   0  0  0  0  0  0  0  0  0  0  0  0
  -22.9190  -12.3960   22.3170 H   0  0  0  0  0  0  0  0  0  0  0  0
  -21.7140  -13.6390   22.1620 H   0  0  0  0  0  0  0  0  0  0  0  0
  -26.1080  -15.4070   20.1720 N   0  0  0  0  0  0  0  0  0  0  0  0
  -25.4190  -16.1370   20.3080 H   0  0  0  0  0  0  0  0  0  0  0  0
  -26.9990  -15.7660   19.8510 H   0  0  0  0  0  0  0  0  0  0  0  0
  -28.9260  -26.0200   19.0880 C   0  0  0  0  0  2  0  0  0  0  0  0
  -28.4440  -26.6530   20.2790 O   0  0  0  0  0  0  0  0  0  0  0  0
  -24.6110  -31.8400   23.2540 C   0  0  0  0  0  0  0  0  0  0  0  0
  -27.2740  -27.3820   20.2140 C   0  0  0  0  0  0  0  0  0  0  0  0
  -23.4180  -30.4420   21.5940 C   0  0  0  0  0  3  0  0  0  0  0  0
  -24.8810  -28.8970   20.1840 C   0  0  0  0  0  0  0  0  0  0  0  0
  -25.9430  -30.7920   21.4230 C   0  0  0  0  0  2  0  0  0  0  0  0
  -26.0310  -29.4180   20.7890 C   0  0  0  0  0  0  0  0  0  0  0  0
  -27.2240  -28.6630   20.8120 C   0  0  0  0  0  3  0  0  0  0  0  0
  -26.1040  -26.8640   19.6190 C   0  0  0  0  0  3  0  0  0  0  0  0
  -24.9110  -27.6150   19.6000 C   0  0  0  0  0  3  0  0  0  0  0  0
  -23.6410  -29.7640   20.2140 C   0  0  0  0  0  2  0  0  0  0  0  0
  -24.6750  -31.0410   22.1490 N   0  0  0  0  0  0  0  0  0  0  0  0
  -23.5240  -32.1150   23.7820 O   0  0  0  0  0  0  0  0  0  0  0  0
  -22.7510  -29.4260   22.5470 C   0  0  0  0  0  0  0  0  0  0  0  0
  -21.4310  -29.2320   22.3860 N   0  0  0  0  0  0  0  0  0  0  0  0
  -23.4180  -28.8160   23.3870 O   0  0  0  0  0  0  0  0  0  0  0  0
  -20.9560  -29.7800   21.6830 H   0  0  0  0  0  0  0  0  0  0  0  0
  -18.0660  -27.9730   22.7670 C   0  0  0  0  0  0  0  0  0  0  0  0
  -20.6030  -28.2960   23.1460 C   0  0  0  0  0  3  0  0  0  0  0  0
  -20.7620  -26.8530   22.6140 C   0  0  0  0  0  2  0  0  0  0  0  0
  -19.7150  -26.4830   21.5590 C   0  0  0  0  0  2  0  0  0  0  0  0
  -18.3020  -26.6130   22.1330 C   0  0  0  0  0  2  0  0  0  0  0  0
  -19.1470  -28.7700   23.2270 C   0  0  0  0  0  0  0  0  0  0  0  0
  -18.8740  -30.0430   23.7720 C   0  0  0  0  0  3  0  0  0  0  0  0
  -17.5530  -30.5180   23.8680 C   0  0  0  0  0  3  0  0  0  0  0  0
  -16.4870  -29.7180   23.4230 C   0  0  0  0  0  3  0  0  0  0  0  0
  -16.7440  -28.4490   22.8780 C   0  0  0  0  0  3  0  0  0  0  0  0
  -25.8950  -32.4640   23.8870 C   0  0  0  0  0  3  0  0  0  0  0  0
  -26.3950  -31.6860   25.1670 C   0  0  1  0  0  0  0  0  0  0  0  0
  -25.2920  -31.4460   26.2250 C   0  0  0  0  0  1  0  0  0  0  0  0
  -26.9760  -30.3090   24.7720 C   0  0  0  0  0  1  0  0  0  0  0  0
  -27.5420  -32.4740   25.8430 C   0  0  0  0  0  1  0  0  0  0  0  0
  -25.5930  -33.8640   24.2130 N   0  0  0  0  0  0  0  0  0  0  0  0
  -25.9280  -34.9110   23.4480 C   0  0  0  0  0  0  0  0  0  0  0  0
  -26.5960  -34.8010   22.4160 O   0  0  0  0  0  0  0  0  0  0  0  0
  -25.0030  -34.0280   25.0150 H   0  0  0  0  0  0  0  0  0  0  0  0
  -24.1920  -36.6970   23.1030 C   0  0  0  0  0  1  0  0  0  0  0  0
  -25.4470  -36.3030   23.8980 C   0  0  0  0  0  3  0  0  0  0  0  0
  -27.5950  -37.1940   24.6880 C   0  0  0  0  0  1  0  0  0  0  0  0
  -26.4760  -37.3570   23.7640 N   0  0  0  0  0  0  0  0  0  0  0  0
  -26.0720  -38.2770   23.9200 H   0  0  0  0  0  0  0  0  0  0  0  0
  1  2  1  0
  2  4  2  0
  2 10  1  0
  3  5  1  0
  3  1  2  0
  4  8  1  0
  5  6  2  0
  6  4  1  0
  7  3  1  0
  9  5  1  0
 10 12  2  0
 10 11  1  0
 13 11  1  0
 14 15  1  0
 16 17  1  0
 16 18  1  0
 17 20  1  0
 17 14  1  0
 18 11  1  0
 18 15  1  0
 20 19  1  0
 21 20  1  0
 22 27  1  0
 23 24  1  0
 23 22  1  0
 25 24  1  0
 25 32  1  0
 25 26  1  0
 27 21  1  0
 27 26  1  0
 28 21  2  0
 29 30  2  0
 30 49  1  0
 31 30  1  0
 31 34  1  0
 32 33  1  0
 32 29  1  0
 33 31  2  0
 34 35  1  0
 35 36  2  0
 37 40  1  0
 37 36  1  0
 38 37  2  0
 39 38  1  0
 39 34  2  0
 40 41  1  0
 41 42  1  0
 42 43  2  0
 44 43  1  0
 44 48  1  0
 45 44  2  0
 46 41  2  0
 46 45  1  0
 47 46  1  0
 49 50  1  0
 50 53  1  0
 50 52  1  0
 51 49  2  0
 54 55  1  0
 54 29  1  0
 56 54  1  0
 57  6  1  0
 57 58  1  0
 59 70  2  0
 60 58  1  0
 60 65  1  0
 61 69  1  0
 61 71  1  0
 62 68  1  0
 62 64  1  0
 63 69  1  0
 64 65  2  0
 64 63  1  0
 66 60  2  0
 67 66  1  0
 67 62  2  0
 68 61  1  0
 69 59  1  0
 71 73  2  0
 72 71  1  0
 74 72  1  0
 75 84  2  0
 75 80  1  0
 76 72  1  0
 76 80  1  0
 77 76  1  0
 78 79  1  0
 78 77  1  0
 79 75  1  0
 80 81  2  0
 81 82  1  0
 83 82  2  0
 84 83  1  0
 85 59  1  0
 85 90  1  0
 85 86  1  0
 86 89  1  1
 86 87  1  0
 88 86  1  0
 90 93  1  0
 91 95  1  0
 91 90  1  0
 92 91  2  0
 95 94  1  0
 97 95  1  0
 97 98  1  0
 97 96  1  0
M  ISO  4  20 100  21 100  57 101  58 101
M  END
>  <TORSDO>  (29) 
F 20

>  <SCORE>  (29) 
-13.319

>  <name>  (29) 
28

>  <ligand_id>  (29) 
28

>  <original_smiles>  (29) 
[H]c1c([H])c([H])c2c(c1[H])C([H])([H])C([H])([H])C([H])([H])C2([H])N([H])C(=O)C1([H])N(C(=O)C([H])(N([H])C(=O)C([H])(N([H])C([H])([H])[H])C([H])([H])[H])C(C([H])([H])[H])(C([H])([H])[H])C([H])([H])[H])C([H])([H])c2c([H])c(OC([H])([H])c3c(C([H])([H])[H])c(C(=O)N([H])C4([H])C([H])([H])C([H])([H])C([H])(C([H])(C(=O)N5C([H])([H])C([H])([H])C([H])([H])C([H])(n6nc(-c7c([H])c([H])c(Oc8c([H])c([H])c(F)c([H])c8F)c([H])c7[H])c(C(=O)N([H])[H])c6N([H])[H])C5([H])[H])C([H])([H])[H])C4([H])[H])c([H])c(C([H])([H])[H])c3C([H])([H])[H])c([H])c([H])c2C1([H])[H]

>  <smiles>  (29) 
[H]c1c([H])c([H])c2c(c1[H])C([H])([H])C([H])([H])C([H])([H])C2([H])N([H])C(=O)C1([H])N(C(=O)C([H])(N([H])C(=O)C([H])(N([H])C([H])([H])[H])C([H])([H])[H])C(C([H])([H])[H])(C([H])([H])[H])C([H])([H])[H])C([H])([H])c2c([H])c(OC([H])([H])c3c(C([H])([H])[H])c(C(=O)N([H])C4([H])C([H])([H])C([H])([H])C([H])(C([H])(C(=O)N5C([H])([H])C([H])([H])C([H])([H])C([H])(n6nc(-c7c([H])c([H])c(Oc8c([H])c([H])c(F)c([H])c8F)c([H])c7[H])c(C(=O)N([H])[H])c6N([H])[H])C5([H])[H])C([H])([H])[H])C4([H])[H])c([H])c(C([H])([H])[H])c3C([H])([H])[H])c([H])c([H])c2C1([H])[H]

$$$$
29:0:0
     RDKit          3D

 98107  0  0  1  0  0  0  0  0999 V2000
  -29.6890  -21.3310   20.4060 C   0  0  0  0  0  3  0  0  0  0  0  0
  -28.6860  -20.4860   20.7120 C   0  0  0  0  0  0  0  0  0  0  0  0
  -29.5270  -22.8090   20.1260 C   0  0  0  0  0  2  0  0  0  0  0  0
  -27.2720  -21.0030   20.8710 C   0  0  0  0  0  2  0  0  0  0  0  0
  -27.0830  -22.3220   20.0980 C   0  0  0  0  0  2  0  0  0  0  0  0
  -28.1540  -23.3170   20.4000 N   0  0  2  0  0  4  0  0  0  0  0  0
  -28.0940  -23.4810   21.3980 H   0  0  0  0  0  0  0  0  0  0  0  0
  -30.9010  -17.5330   20.9240 C   0  0  0  0  0  0  0  0  0  0  0  0
  -30.2180  -18.6610   21.4410 C   0  0  0  0  0  0  0  0  0  0  0  0
  -30.2870  -16.7980   19.8620 C   0  0  0  0  0  0  0  0  0  0  0  0
  -29.0370  -19.0650   20.7910 C   0  0  0  0  0  0  0  0  0  0  0  0
  -28.9890  -17.2070   19.4320 C   0  0  0  0  0  0  0  0  0  0  0  0
  -32.3360  -17.2590   21.3750 C   0  0  0  0  0  1  0  0  0  0  0  0
  -30.7590  -19.5090   22.5910 C   0  0  0  0  0  1  0  0  0  0  0  0
  -28.2070  -16.5650   18.2900 C   0  0  0  0  0  1  0  0  0  0  0  0
  -28.3890  -18.3130   19.8910 N   0  0  0  0  0  0  0  0  0  0  0  0
  -31.5410  -14.6960   19.6630 C   0  0  0  0  0  0  0  0  0  0  0  0
  -30.9880  -12.5410   18.7360 C   0  0  0  0  0  2  0  0  0  0  0  0
  -29.9780  -12.7650   17.5970 C   0  0  0  0  0  2  0  0  0  0  0  0
  -28.5420  -12.7120   18.1500 C   0  0  0  0  0  2  0  0  0  0  0  0
  -28.3230  -13.5950   19.4100 C   0  0  0  0  0  3  0  0  0  0  0  0
  -29.4730  -13.4440   20.4280 C   0  0  0  0  0  2  0  0  0  0  0  0
  -30.7360  -13.6090   19.7010 N   0  0  0  0  0  0  0  0  0  0  0  0
  -32.7630  -14.5930   19.6370 O   0  0  0  0  0  0  0  0  0  0  0  0
  -31.0060  -15.8150   19.1030 N   0  0  0  0  0  0  0  0  0  0  0  0
  -26.0190  -14.2720   20.3350 C   0  0  0  0  0  0  0  0  0  0  0  0
  -24.9390  -13.5340   20.7290 C   0  0  0  0  0  0  0  0  0  0  0  0
  -25.3360  -12.1660   20.6280 C   0  0  0  0  0  0  0  0  0  0  0  0
  -27.0070  -13.3600   20.0000 N   0  0  0  0  0  0  0  0  0  0  0  0
  -26.6050  -12.0850   20.2420 N   0  0  0  0  0  0  0  0  0  0  0  0
  -24.5650  -10.9310   20.8200 C   0  0  0  0  0  0  0  0  0  0  0  0
  -24.9510   -9.9620   21.7750 C   0  0  0  0  0  3  0  0  0  0  0  0
  -24.1840   -8.7930   21.9580 C   0  0  0  0  0  3  0  0  0  0  0  0
  -23.0170   -8.5830   21.1850 C   0  0  0  0  0  0  0  0  0  0  0  0
  -22.6480   -9.5390   20.2230 C   0  0  0  0  0  3  0  0  0  0  0  0
  -23.4150  -10.7000   20.0390 C   0  0  0  0  0  3  0  0  0  0  0  0
  -22.2240   -7.4650   21.2770 O   0  0  0  0  0  0  0  0  0  0  0  0
  -22.0390   -6.8100   22.4690 C   0  0  0  0  0  0  0  0  0  0  0  0
  -21.4980   -7.4590   23.5990 C   0  0  0  0  0  3  0  0  0  0  0  0
  -21.2650   -6.7320   24.7840 C   0  0  0  0  0  3  0  0  0  0  0  0
  -21.5580   -5.3560   24.8330 C   0  0  0  0  0  0  0  0  0  0  0  0
  -22.0880   -4.7050   23.7060 C   0  0  0  0  0  3  0  0  0  0  0  0
  -22.3250   -5.4320   22.5250 C   0  0  0  0  0  0  0  0  0  0  0  0
  -22.8200   -4.7980   21.4350 F   0  0  0  0  0  0  0  0  0  0  0  0
  -21.3260   -4.6530   25.9670 F   0  0  0  0  0  0  0  0  0  0  0  0
  -23.5850  -14.0640   21.1010 C   0  0  0  0  0  0  0  0  0  0  0  0
  -22.8910  -13.3950   22.0150 N   0  0  0  0  0  0  0  0  0  0  0  0
  -23.1550  -15.1090   20.6160 O   0  0  0  0  0  0  0  0  0  0  0  0
  -23.2520  -12.5510   22.4340 H   0  0  0  0  0  0  0  0  0  0  0  0
  -21.9850  -13.7400   22.3020 H   0  0  0  0  0  0  0  0  0  0  0  0
  -26.2290  -15.6420   20.2230 N   0  0  0  0  0  0  0  0  0  0  0  0
  -25.5100  -16.3080   20.4780 H   0  0  0  0  0  0  0  0  0  0  0  0
  -27.1220  -16.0760   20.0370 H   0  0  0  0  0  0  0  0  0  0  0  0
  -31.8800  -17.8050   17.6810 C   0  0  0  0  0  1  0  0  0  0  0  0
  -31.6670  -16.2820   17.8390 C   0  0  0  0  0  2  0  0  0  0  0  0
  -27.9010  -24.6050   19.6940 C   0  0  0  0  0  2  0  0  0  0  0  0
  -28.7050  -25.8110   20.2400 C   0  0  0  0  0  2  0  0  0  0  0  0
  -28.6050  -26.9880   19.4240 O   0  0  0  0  0  0  0  0  0  0  0  0
  -24.6840  -31.6940   23.0390 C   0  0  0  0  0  0  0  0  0  0  0  0
  -27.4200  -27.6700   19.5280 C   0  0  0  0  0  0  0  0  0  0  0  0
  -23.4900  -30.3690   21.3250 C   0  0  0  0  0  3  0  0  0  0  0  0
  -24.9640  -29.0370   19.7370 C   0  0  0  0  0  0  0  0  0  0  0  0
  -25.9860  -30.8710   21.0870 C   0  0  0  0  0  2  0  0  0  0  0  0
  -26.1160  -29.5650   20.3360 C   0  0  0  0  0  0  0  0  0  0  0  0
  -27.3500  -28.8860   20.2380 C   0  0  0  0  0  3  0  0  0  0  0  0
  -26.2630  -27.1780   18.8900 C   0  0  0  0  0  3  0  0  0  0  0  0
  -25.0300  -27.8360   19.0160 C   0  0  0  0  0  3  0  0  0  0  0  0
  -23.6850  -29.8240   19.8860 C   0  0  0  0  0  2  0  0  0  0  0  0
  -24.7380  -30.9900   21.8730 N   0  0  0  0  0  0  0  0  0  0  0  0
  -23.6100  -31.8630   23.6330 O   0  0  0  0  0  0  0  0  0  0  0  0
  -22.9300  -29.2360   22.2140 C   0  0  0  0  0  0  0  0  0  0  0  0
  -21.6120  -28.9990   22.1150 N   0  0  0  0  0  0  0  0  0  0  0  0
  -23.6750  -28.5820   22.9490 O   0  0  0  0  0  0  0  0  0  0  0  0
  -21.0720  -29.5890   21.4970 H   0  0  0  0  0  0  0  0  0  0  0  0
  -18.3160  -27.6140   22.6220 C   0  0  0  0  0  0  0  0  0  0  0  0
  -20.8680  -27.9630   22.8290 C   0  0  0  0  0  3  0  0  0  0  0  0
  -21.0110  -26.5920   22.1300 C   0  0  0  0  0  2  0  0  0  0  0  0
  -19.8890  -26.3030   21.1290 C   0  0  0  0  0  2  0  0  0  0  0  0
  -18.5250  -26.3320   21.8290 C   0  0  0  0  0  2  0  0  0  0  0  0
  -19.4160  -28.3880   23.0760 C   0  0  0  0  0  0  0  0  0  0  0  0
  -19.1660  -29.5870   23.7760 C   0  0  0  0  0  3  0  0  0  0  0  0
  -17.8490  -30.0150   24.0260 C   0  0  0  0  0  3  0  0  0  0  0  0
  -16.7640  -29.2370   23.5890 C   0  0  0  0  0  3  0  0  0  0  0  0
  -16.9980  -28.0390   22.8920 C   0  0  0  0  0  3  0  0  0  0  0  0
  -25.9610  -32.3380   23.6650 C   0  0  0  0  0  3  0  0  0  0  0  0
  -26.5420  -31.5110   24.8770 C   0  0  1  0  0  0  0  0  0  0  0  0
  -25.4880  -31.1630   25.9530 C   0  0  0  0  0  1  0  0  0  0  0  0
  -27.1730  -30.1860   24.3870 C   0  0  0  0  0  1  0  0  0  0  0  0
  -27.6760  -32.3110   25.5630 C   0  0  0  0  0  1  0  0  0  0  0  0
  -25.6050  -33.6990   24.0860 N   0  0  0  0  0  0  0  0  0  0  0  0
  -25.8780  -34.8080   23.3840 C   0  0  0  0  0  0  0  0  0  0  0  0
  -26.5300  -34.7950   22.3350 O   0  0  0  0  0  0  0  0  0  0  0  0
  -25.0240  -33.7810   24.9070 H   0  0  0  0  0  0  0  0  0  0  0  0
  -24.0640  -36.5370   23.1750 C   0  0  0  0  0  1  0  0  0  0  0  0
  -25.3420  -36.1450   23.9330 C   0  0  0  0  0  3  0  0  0  0  0  0
  -27.4570  -37.0760   24.7650 C   0  0  0  0  0  1  0  0  0  0  0  0
  -26.3240  -37.2470   23.8580 N   0  0  0  0  0  0  0  0  0  0  0  0
  -25.8830  -38.1390   24.0640 H   0  0  0  0  0  0  0  0  0  0  0  0
  1  2  2  0
  2 11  1  0
  2  4  1  0
  3  6  1  0
  3  1  1  0
  5  6  1  0
  5  4  1  0
  6  7  1  1
  8 13  1  0
  8  9  1  0
  9 14  1  0
 10  8  2  0
 11  9  2  0
 12 10  1  0
 12 16  2  0
 15 12  1  0
 16 11  1  0
 17 23  1  0
 18 23  1  0
 19 20  1  0
 19 18  1  0
 21 20  1  0
 21 29  1  0
 21 22  1  0
 23 22  1  0
 24 17  2  0
 25 17  1  0
 25 10  1  0
 26 27  2  0
 27 46  1  0
 28 27  1  0
 28 31  1  0
 29 30  1  0
 29 26  1  0
 30 28  2  0
 31 32  1  0
 32 33  2  0
 34 37  1  0
 34 33  1  0
 35 34  2  0
 36 35  1  0
 36 31  2  0
 37 38  1  0
 38 43  2  0
 38 39  1  0
 39 40  2  0
 40 41  1  0
 41 45  1  0
 42 41  2  0
 43 42  1  0
 44 43  1  0
 46 47  1  0
 47 50  1  0
 47 49  1  0
 48 46  2  0
 51 26  1  0
 51 52  1  0
 53 51  1  0
 54 55  1  0
 55 25  1  0
 56 57  1  0
 56  6  1  0
 58 60  1  0
 58 57  1  0
 59 70  2  0
 60 65  1  0
 61 69  1  0
 61 71  1  0
 62 68  1  0
 62 64  1  0
 63 69  1  0
 64 63  1  0
 65 64  2  0
 66 67  1  0
 66 60  2  0
 67 62  2  0
 68 61  1  0
 69 59  1  0
 71 73  2  0
 72 71  1  0
 74 72  1  0
 75 84  2  0
 75 80  1  0
 76 72  1  0
 76 80  1  0
 77 76  1  0
 78 79  1  0
 78 77  1  0
 79 75  1  0
 80 81  2  0
 81 82  1  0
 83 82  2  0
 84 83  1  0
 85 59  1  0
 85 90  1  0
 85 86  1  0
 86 89  1  1
 86 87  1  0
 88 86  1  0
 90 93  1  0
 91 95  1  0
 91 90  1  0
 92 91  2  0
 95 94  1  0
 97 95  1  0
 97 98  1  0
 97 96  1  0
M  ISO  4  17 100  25 100  57 101  58 101
M  END
>  <TORSDO>  (30) 
F 20

>  <SCORE>  (30) 
-10.182

>  <name>  (30) 
29

>  <ligand_id>  (30) 
29

>  <original_smiles>  (30) 
[H]C1=C(c2nc(C([H])([H])[H])c(N(C(=O)N3C([H])([H])C([H])([H])C([H])([H])C([H])(n4nc(-c5c([H])c([H])c(Oc6c([H])c([H])c(F)c([H])c6F)c([H])c5[H])c(C(=O)N([H])[H])c4N([H])[H])C3([H])[H])C([H])([H])C([H])([H])[H])c(C([H])([H])[H])c2C([H])([H])[H])C([H])([H])C([H])([H])[N+]([H])(C([H])([H])C([H])([H])Oc2c([H])c([H])c3c(c2[H])C([H])([H])N(C(=O)C([H])(N([H])C(=O)C([H])(N([H])C([H])([H])[H])C([H])([H])[H])C(C([H])([H])[H])(C([H])([H])[H])C([H])([H])[H])C([H])(C(=O)N([H])C2([H])c4c([H])c([H])c([H])c([H])c4C([H])([H])C([H])([H])C2([H])[H])C3([H])[H])C1([H])[H]

>  <smiles>  (30) 
[H]C1=C(c2nc(C([H])([H])[H])c(N(C(=O)N3C([H])([H])C([H])([H])C([H])([H])C([H])(n4nc(-c5c([H])c([H])c(Oc6c([H])c([H])c(F)c([H])c6F)c([H])c5[H])c(C(=O)N([H])[H])c4N([H])[H])C3([H])[H])C([H])([H])C([H])([H])[H])c(C([H])([H])[H])c2C([H])([H])[H])C([H])([H])C([H])([H])[N+]([H])(C([H])([H])C([H])([H])Oc2c([H])c([H])c3c(c2[H])C([H])([H])N(C(=O)C([H])(N([H])C(=O)C([H])(N([H])C([H])([H])[H])C([H])([H])[H])C(C([H])([H])[H])(C([H])([H])[H])C([H])([H])[H])C([H])(C(=O)N([H])C2([H])c4c([H])c([H])c([H])c([H])c4C([H])([H])C([H])([H])C2([H])[H])C3([H])[H])C1([H])[H]

$$$$
30:0:0
     RDKit          3D

 96106  0  0  1  0  0  0  0  0999 V2000
  -30.3040  -20.6170   21.5470 C   0  0  0  0  0  3  0  0  0  0  0  0
  -31.2120  -19.5270   21.5820 C   0  0  0  0  0  3  0  0  0  0  0  0
  -28.9890  -20.3010   21.1900 C   0  0  0  0  0  3  0  0  0  0  0  0
  -30.8210  -18.3400   20.8980 C   0  0  0  0  0  3  0  0  0  0  0  0
  -29.0040  -19.4760   20.0700 C   0  0  0  0  0  0  0  0  0  0  0  0
  -30.7530  -22.0100   21.1100 C   0  0  0  0  0  2  0  0  0  0  0  0
  -30.0060  -21.1870   18.6910 C   0  0  0  0  0  2  0  0  0  0  0  0
  -30.1140  -22.3970   19.7100 C   0  0  0  0  0  3  0  0  0  0  0  0
  -32.5840  -19.6740   22.2160 C   0  0  0  0  0  1  0  0  0  0  0  0
  -27.8200  -21.2580   21.3970 C   0  0  0  0  0  1  0  0  0  0  0  0
  -29.7930  -18.3810   20.0190 N   0  0  0  0  0  0  0  0  0  0  0  0
  -28.9580  -20.1850   18.8880 O   0  0  0  0  0  0  0  0  0  0  0  0
  -31.6520  -17.0580   20.9390 C   0  0  0  0  0  2  0  0  0  0  0  0
  -31.3990  -14.7680   20.0470 C   0  0  0  0  0  0  0  0  0  0  0  0
  -30.9720  -12.5590   19.0230 C   0  0  0  0  0  2  0  0  0  0  0  0
  -30.0030  -12.6690   17.8300 C   0  0  0  0  0  2  0  0  0  0  0  0
  -28.5480  -12.5700   18.3190 C   0  0  0  0  0  2  0  0  0  0  0  0
  -28.2520  -13.5340   19.5000 C   0  0  0  0  0  3  0  0  0  0  0  0
  -29.3320  -13.4180   20.5990 C   0  0  0  0  0  2  0  0  0  0  0  0
  -30.6480  -13.6370   19.9760 N   0  0  0  0  0  0  0  0  0  0  0  0
  -32.4720  -14.8830   19.4480 O   0  0  0  0  0  0  0  0  0  0  0  0
  -30.9110  -15.7940   20.7600 N   0  0  0  0  0  0  0  0  0  0  0  0
  -29.9870  -15.7260   21.1610 H   0  0  0  0  0  0  0  0  0  0  0  0
  -25.9360  -14.2350   20.3740 C   0  0  0  0  0  0  0  0  0  0  0  0
  -24.8490  -13.5070   20.7630 C   0  0  0  0  0  0  0  0  0  0  0  0
  -25.2280  -12.1320   20.6410 C   0  0  0  0  0  0  0  0  0  0  0  0
  -26.9160  -13.3120   20.0420 N   0  0  0  0  0  0  0  0  0  0  0  0
  -26.4970  -12.0390   20.2630 N   0  0  0  0  0  0  0  0  0  0  0  0
  -24.4410  -10.9040   20.8040 C   0  0  0  0  0  0  0  0  0  0  0  0
  -24.8110   -9.9050   21.7320 C   0  0  0  0  0  3  0  0  0  0  0  0
  -24.0280   -8.7410   21.8820 C   0  0  0  0  0  3  0  0  0  0  0  0
  -22.8580   -8.5690   21.1040 C   0  0  0  0  0  0  0  0  0  0  0  0
  -22.5110   -9.5530   20.1620 C   0  0  0  0  0  3  0  0  0  0  0  0
  -23.2950  -10.7070   20.0100 C   0  0  0  0  0  3  0  0  0  0  0  0
  -22.0470   -7.4620   21.1650 O   0  0  0  0  0  0  0  0  0  0  0  0
  -21.8550   -6.7750   22.3380 C   0  0  0  0  0  0  0  0  0  0  0  0
  -21.3190   -7.3970   23.4870 C   0  0  0  0  0  3  0  0  0  0  0  0
  -21.0730   -6.6380   24.6490 C   0  0  0  0  0  3  0  0  0  0  0  0
  -21.3510   -5.2570   24.6600 C   0  0  0  0  0  0  0  0  0  0  0  0
  -21.8810   -4.6360   23.5150 C   0  0  0  0  0  3  0  0  0  0  0  0
  -22.1300   -5.3930   22.3570 C   0  0  0  0  0  0  0  0  0  0  0  0
  -22.6180   -4.7860   21.2490 F   0  0  0  0  0  0  0  0  0  0  0  0
  -21.1080   -4.5250   25.7720 F   0  0  0  0  0  0  0  0  0  0  0  0
  -23.4960  -14.0410   21.1330 C   0  0  0  0  0  0  0  0  0  0  0  0
  -22.7850  -13.3570   22.0190 N   0  0  0  0  0  0  0  0  0  0  0  0
  -23.0840  -15.1060   20.6690 O   0  0  0  0  0  0  0  0  0  0  0  0
  -23.1310  -12.4950   22.4130 H   0  0  0  0  0  0  0  0  0  0  0  0
  -21.8740  -13.6930   22.3000 H   0  0  0  0  0  0  0  0  0  0  0  0
  -26.1770  -15.6030   20.2550 N   0  0  0  0  0  0  0  0  0  0  0  0
  -25.4620  -16.3010   20.4260 H   0  0  0  0  0  0  0  0  0  0  0  0
  -27.0520  -15.9990   19.9390 H   0  0  0  0  0  0  0  0  0  0  0  0
  -30.6940  -23.7090   19.1210 C   0  0  0  0  0  2  0  0  0  0  0  0
  -31.6090  -25.8980   20.1360 C   0  0  0  0  0  2  0  0  0  0  0  0
  -30.4660  -24.9230   20.0330 C   0  0  0  0  0  3  0  0  0  0  0  0
  -30.3070  -26.3580   19.5240 C   0  0  0  0  0  3  0  0  0  0  0  0
  -29.8010  -27.3700   20.4120 O   0  0  0  0  0  0  0  0  0  0  0  0
  -24.7800  -31.4670   23.3440 C   0  0  0  0  0  0  0  0  0  0  0  0
  -28.4960  -27.8140   20.3140 C   0  0  0  0  0  0  0  0  0  0  0  0
  -24.0120  -29.9770   21.5230 C   0  0  0  0  0  3  0  0  0  0  0  0
  -25.8510  -28.8300   20.1760 C   0  0  0  0  0  0  0  0  0  0  0  0
  -26.4290  -30.8110   21.5930 C   0  0  0  0  0  2  0  0  0  0  0  0
  -26.8290  -29.5230   20.9010 C   0  0  0  0  0  0  0  0  0  0  0  0
  -28.1470  -29.0180   20.9710 C   0  0  0  0  0  3  0  0  0  0  0  0
  -27.4940  -27.1230   19.5940 C   0  0  0  0  0  3  0  0  0  0  0  0
  -26.1800  -27.6290   19.5210 C   0  0  0  0  0  3  0  0  0  0  0  0
  -24.4660  -29.4360   20.1410 C   0  0  0  0  0  2  0  0  0  0  0  0
  -25.0820  -30.7710   22.2130 N   0  0  0  0  0  0  0  0  0  0  0  0
  -23.6230  -31.4930   23.7900 O   0  0  0  0  0  0  0  0  0  0  0  0
  -23.4910  -28.7920   22.3690 C   0  0  0  0  0  0  0  0  0  0  0  0
  -22.2490  -28.3620   22.0920 N   0  0  0  0  0  0  0  0  0  0  0  0
  -24.2040  -28.2640   23.2250 O   0  0  0  0  0  0  0  0  0  0  0  0
  -21.7300  -28.8500   21.3760 H   0  0  0  0  0  0  0  0  0  0  0  0
  -19.1720  -26.4700   22.1260 C   0  0  0  0  0  0  0  0  0  0  0  0
  -21.5650  -27.2370   22.7270 C   0  0  0  0  0  3  0  0  0  0  0  0
  -22.0380  -25.8920   22.1310 C   0  0  0  0  0  2  0  0  0  0  0  0
  -21.1580  -25.4010   20.9780 C   0  0  0  0  0  2  0  0  0  0  0  0
  -19.7120  -25.2240   21.4450 C   0  0  0  0  0  2  0  0  0  0  0  0
  -20.0430  -27.4240   22.7140 C   0  0  0  0  0  0  0  0  0  0  0  0
  -19.4940  -28.5850   23.3030 C   0  0  0  0  0  3  0  0  0  0  0  0
  -18.1020  -28.7920   23.3170 C   0  0  0  0  0  3  0  0  0  0  0  0
  -17.2430  -27.8380   22.7460 C   0  0  0  0  0  3  0  0  0  0  0  0
  -17.7770  -26.6800   22.1570 C   0  0  0  0  0  3  0  0  0  0  0  0
  -25.8620  -32.2860   24.1200 C   0  0  0  0  0  3  0  0  0  0  0  0
  -26.2350  -31.6570   25.5190 C   0  0  1  0  0  0  0  0  0  0  0  0
  -25.0120  -31.3680   26.4190 C   0  0  0  0  0  1  0  0  0  0  0  0
  -27.0080  -30.3300   25.3350 C   0  0  0  0  0  1  0  0  0  0  0  0
  -27.1710  -32.6170   26.2900 C   0  0  0  0  0  1  0  0  0  0  0  0
  -25.3480  -33.6530   24.2830 N   0  0  0  0  0  0  0  0  0  0  0  0
  -25.6940  -34.6910   23.5080 C   0  0  0  0  0  0  0  0  0  0  0  0
  -26.5430  -34.6090   22.6160 O   0  0  0  0  0  0  0  0  0  0  0  0
  -24.6190  -33.7870   24.9670 H   0  0  0  0  0  0  0  0  0  0  0  0
  -23.8600  -36.2260   22.7350 C   0  0  0  0  0  1  0  0  0  0  0  0
  -24.9850  -36.0340   23.7660 C   0  0  0  0  0  3  0  0  0  0  0  0
  -26.8460  -37.2260   24.8380 C   0  0  0  0  0  1  0  0  0  0  0  0
  -25.8960  -37.1990   23.7290 N   0  0  0  0  0  0  0  0  0  0  0  0
  -25.3700  -38.0680   23.7340 H   0  0  0  0  0  0  0  0  0  0  0  0
  1  6  1  0
  1  2  1  0
  2  9  1  0
  3 10  1  0
  3  1  1  0
  4 13  1  0
  4  2  1  0
  5  3  1  0
  7 12  1  0
  7  8  1  0
  8 52  1  0
  8  6  1  0
 11  5  2  0
 11  4  1  0
 12  5  1  0
 14 22  1  0
 15 20  1  0
 16 17  1  0
 16 15  1  0
 18 17  1  0
 18 27  1  0
 18 19  1  0
 20 14  1  0
 20 19  1  0
 21 14  2  0
 22 13  1  0
 22 23  1  0
 24 25  2  0
 25 44  1  0
 26 25  1  0
 26 29  1  0
 27 28  1  0
 27 24  1  0
 28 26  2  0
 29 30  1  0
 30 31  2  0
 32 35  1  0
 32 31  1  0
 33 32  2  0
 34 33  1  0
 34 29  2  0
 35 36  1  0
 36 41  2  0
 36 37  1  0
 37 38  2  0
 38 39  1  0
 39 43  1  0
 40 39  2  0
 41 40  1  0
 42 41  1  0
 44 45  1  0
 45 48  1  0
 45 47  1  0
 46 44  2  0
 49 24  1  0
 49 50  1  0
 51 49  1  0
 54 52  1  0
 54 53  1  0
 55 54  1  0
 55 53  1  0
 55 56  1  0
 57 68  2  0
 58 56  1  0
 58 63  1  0
 59 67  1  0
 59 69  1  0
 60 62  1  0
 61 67  1  0
 62 63  2  0
 62 61  1  0
 64 58  2  0
 65 64  1  0
 65 60  2  0
 66 60  1  0
 66 59  1  0
 67 57  1  0
 69 71  2  0
 70 69  1  0
 72 70  1  0
 73 82  2  0
 73 78  1  0
 74 70  1  0
 75 74  1  0
 76 77  1  0
 76 75  1  0
 77 73  1  0
 78 74  1  0
 78 79  2  0
 79 80  1  0
 81 80  2  0
 82 81  1  0
 83 57  1  0
 83 88  1  0
 83 84  1  0
 84 87  1  1
 84 85  1  0
 86 84  1  0
 88 91  1  0
 89 93  1  0
 89 88  1  0
 90 89  2  0
 93 92  1  0
 95 96  1  0
 95 93  1  0
 95 94  1  0
M  ISO  4  14 100  22 100  55 101  56 101
M  END
>  <TORSDO>  (31) 
F 19

>  <SCORE>  (31) 
-11.721

>  <name>  (31) 
30

>  <ligand_id>  (31) 
30

>  <original_smiles>  (31) 
[H]c1c([H])c([H])c2c(c1[H])C([H])([H])C([H])([H])C([H])([H])C2([H])N([H])C(=O)C1([H])N(C(=O)C([H])(N([H])C(=O)C([H])(N([H])C([H])([H])[H])C([H])([H])[H])C(C([H])([H])[H])(C([H])([H])[H])C([H])([H])[H])C([H])([H])c2c([H])c(OC3([H])C([H])([H])C3([H])C([H])([H])C3([H])C([H])([H])Oc4nc(C([H])([H])N([H])C(=O)N5C([H])([H])C([H])([H])C([H])([H])C([H])(n6nc(-c7c([H])c([H])c(Oc8c([H])c([H])c(F)c([H])c8F)c([H])c7[H])c(C(=O)N([H])[H])c6N([H])[H])C5([H])[H])c(C([H])([H])[H])c(c4C([H])([H])[H])C3([H])[H])c([H])c([H])c2C1([H])[H]

>  <smiles>  (31) 
[H]c1c([H])c([H])c2c(c1[H])C([H])([H])C([H])([H])C([H])([H])C2([H])N([H])C(=O)C1([H])N(C(=O)C([H])(N([H])C(=O)C([H])(N([H])C([H])([H])[H])C([H])([H])[H])C(C([H])([H])[H])(C([H])([H])[H])C([H])([H])[H])C([H])([H])c2c([H])c(OC3([H])C([H])([H])C3([H])C([H])([H])C3([H])C([H])([H])Oc4nc(C([H])([H])N([H])C(=O)N5C([H])([H])C([H])([H])C([H])([H])C([H])(n6nc(-c7c([H])c([H])c(Oc8c([H])c([H])c(F)c([H])c8F)c([H])c7[H])c(C(=O)N([H])[H])c6N([H])[H])C5([H])[H])c(C([H])([H])[H])c(c4C([H])([H])[H])C3([H])[H])c([H])c([H])c2C1([H])[H]

$$$$
31:0:0
     RDKit          3D

 92101  0  0  1  0  0  0  0  0999 V2000
  -30.6740  -14.8370   20.3840 C   0  0  0  0  0  0  0  0  0  0  0  0
  -30.4490  -12.5480   19.3770 C   0  0  0  0  0  2  0  0  0  0  0  0
  -29.5330  -12.6050   18.1340 C   0  0  0  0  0  2  0  0  0  0  0  0
  -28.0550  -12.4580   18.5420 C   0  0  0  0  0  2  0  0  0  0  0  0
  -27.6740  -13.3550   19.7520 C   0  0  0  0  0  3  0  0  0  0  0  0
  -28.7160  -13.2770   20.8870 C   0  0  0  0  0  2  0  0  0  0  0  0
  -30.0150  -13.6240   20.3020 N   0  0  0  0  0  0  0  0  0  0  0  0
  -31.8610  -14.8880   20.0370 O   0  0  0  0  0  0  0  0  0  0  0  0
  -28.7260  -20.8950   19.8140 C   0  0  0  0  0  3  0  0  0  0  0  0
  -29.8080  -22.0470   21.6090 C   0  0  0  0  0  3  0  0  0  0  0  0
  -29.1900  -19.5970   20.2880 C   0  0  0  0  0  0  0  0  0  0  0  0
  -29.9870  -19.5380   21.4540 C   0  0  0  0  0  0  0  0  0  0  0  0
  -29.0170  -22.1760   20.4430 C   0  0  0  0  0  0  0  0  0  0  0  0
  -30.2810  -20.7880   22.0960 C   0  0  0  0  0  0  0  0  0  0  0  0
  -28.8220  -18.2510   19.5770 C   0  0  0  0  0  3  0  0  0  0  0  0
  -30.6210  -18.1890   21.9580 C   0  0  0  0  0  3  0  0  0  0  0  0
  -29.8980  -17.0720   19.4610 C   0  0  0  0  0  3  0  0  0  0  0  0
  -29.9040  -16.7680   21.8470 C   0  0  0  0  0  3  0  0  0  0  0  0
  -31.1730  -20.8360   23.3270 C   0  0  0  0  0  1  0  0  0  0  0  0
  -29.9500  -16.0340   20.5480 N   0  0  0  0  0  0  0  0  0  0  0  0
  -25.2800  -13.9690   20.4380 C   0  0  0  0  0  0  0  0  0  0  0  0
  -24.2040  -13.2050   20.8000 C   0  0  0  0  0  0  0  0  0  0  0  0
  -24.6570  -11.8510   20.7920 C   0  0  0  0  0  0  0  0  0  0  0  0
  -26.3210  -13.0790   20.2280 N   0  0  0  0  0  0  0  0  0  0  0  0
  -25.9530  -11.8010   20.5040 N   0  0  0  0  0  0  0  0  0  0  0  0
  -23.9180  -10.5950   20.9860 C   0  0  0  0  0  0  0  0  0  0  0  0
  -24.3260   -9.6380   21.9410 C   0  0  0  0  0  3  0  0  0  0  0  0
  -23.5850   -8.4500   22.1240 C   0  0  0  0  0  3  0  0  0  0  0  0
  -22.4240   -8.2110   21.3520 C   0  0  0  0  0  0  0  0  0  0  0  0
  -22.0350   -9.1580   20.3880 C   0  0  0  0  0  3  0  0  0  0  0  0
  -22.7760  -10.3370   20.2030 C   0  0  0  0  0  3  0  0  0  0  0  0
  -21.6590   -7.0720   21.4410 O   0  0  0  0  0  0  0  0  0  0  0  0
  -21.5750   -6.3510   22.6040 C   0  0  0  0  0  0  0  0  0  0  0  0
  -21.1270   -6.9310   23.8110 C   0  0  0  0  0  3  0  0  0  0  0  0
  -20.9910   -6.1370   24.9650 C   0  0  0  0  0  3  0  0  0  0  0  0
  -21.2940   -4.7610   24.9160 C   0  0  0  0  0  0  0  0  0  0  0  0
  -21.7350   -4.1820   23.7130 C   0  0  0  0  0  3  0  0  0  0  0  0
  -21.8730   -4.9730   22.5600 C   0  0  0  0  0  0  0  0  0  0  0  0
  -22.2780   -4.4040   21.3990 F   0  0  0  0  0  0  0  0  0  0  0  0
  -21.1550   -3.9960   26.0230 F   0  0  0  0  0  0  0  0  0  0  0  0
  -22.8060  -13.6970   21.0440 C   0  0  0  0  0  0  0  0  0  0  0  0
  -22.0610  -13.0170   21.9100 N   0  0  0  0  0  0  0  0  0  0  0  0
  -22.3850  -14.7190   20.5050 O   0  0  0  0  0  0  0  0  0  0  0  0
  -22.4150  -12.1920   22.3710 H   0  0  0  0  0  0  0  0  0  0  0  0
  -21.1230  -13.3300   22.1190 H   0  0  0  0  0  0  0  0  0  0  0  0
  -25.4560  -15.3350   20.2470 N   0  0  0  0  0  0  0  0  0  0  0  0
  -24.6940  -15.9960   20.3620 H   0  0  0  0  0  0  0  0  0  0  0  0
  -26.3200  -15.7700   19.9500 H   0  0  0  0  0  0  0  0  0  0  0  0
  -27.5390  -23.5110   18.7690 C   0  0  0  0  0  1  0  0  0  0  0  0
  -28.6430  -23.6390   19.8320 C   0  0  0  0  0  3  0  0  0  0  0  0
  -28.3150  -24.9610   20.7540 C   0  0  0  0  0  2  0  0  0  0  0  0
  -28.4740  -26.4000   20.2890 O   0  0  0  0  0  0  0  0  0  0  0  0
  -24.6620  -31.8670   23.2270 C   0  0  0  0  0  0  0  0  0  0  0  0
  -27.3720  -27.2890   20.2600 C   0  0  0  0  0  0  0  0  0  0  0  0
  -23.5140  -30.4680   21.5550 C   0  0  0  0  0  3  0  0  0  0  0  0
  -25.0130  -28.9310   20.1660 C   0  0  0  0  0  0  0  0  0  0  0  0
  -26.0580  -30.8040   21.4310 C   0  0  0  0  0  2  0  0  0  0  0  0
  -26.1670  -29.4190   20.7920 C   0  0  0  0  0  0  0  0  0  0  0  0
  -27.3560  -28.6140   20.8190 C   0  0  0  0  0  3  0  0  0  0  0  0
  -26.1910  -26.8700   19.6160 C   0  0  0  0  0  3  0  0  0  0  0  0
  -25.0310  -27.6660   19.5630 C   0  0  0  0  0  3  0  0  0  0  0  0
  -23.7700  -29.8010   20.1780 C   0  0  0  0  0  2  0  0  0  0  0  0
  -24.7630  -31.0650   22.1270 N   0  0  0  0  0  0  0  0  0  0  0  0
  -23.5640  -32.1250   23.7430 O   0  0  0  0  0  0  0  0  0  0  0  0
  -22.8420  -29.4390   22.4970 C   0  0  0  0  0  0  0  0  0  0  0  0
  -21.5150  -29.2730   22.3730 N   0  0  0  0  0  0  0  0  0  0  0  0
  -23.5160  -28.7890   23.2990 O   0  0  0  0  0  0  0  0  0  0  0  0
  -21.0280  -29.8460   21.6980 H   0  0  0  0  0  0  0  0  0  0  0  0
  -18.1220  -28.1220   22.8900 C   0  0  0  0  0  0  0  0  0  0  0  0
  -20.6890  -28.3290   23.1290 C   0  0  0  0  0  3  0  0  0  0  0  0
  -20.7560  -26.9130   22.5120 C   0  0  0  0  0  2  0  0  0  0  0  0
  -19.6340  -26.6400   21.5050 C   0  0  0  0  0  2  0  0  0  0  0  0
  -18.2640  -26.7890   22.1730 C   0  0  0  0  0  2  0  0  0  0  0  0
  -19.2590  -28.8520   23.3260 C   0  0  0  0  0  0  0  0  0  0  0  0
  -19.0700  -30.1010   23.9550 C   0  0  0  0  0  3  0  0  0  0  0  0
  -17.7760  -30.6170   24.1560 C   0  0  0  0  0  3  0  0  0  0  0  0
  -16.6530  -29.8840   23.7350 C   0  0  0  0  0  3  0  0  0  0  0  0
  -16.8270  -28.6390   23.1060 C   0  0  0  0  0  3  0  0  0  0  0  0
  -25.9200  -32.5210   23.8750 C   0  0  0  0  0  3  0  0  0  0  0  0
  -25.5840  -33.9170   24.1900 N   0  0  0  0  0  0  0  0  0  0  0  0
  -25.9130  -34.9720   23.4300 C   0  0  0  0  0  0  0  0  0  0  0  0
  -26.6000  -34.8700   22.4100 O   0  0  0  0  0  0  0  0  0  0  0  0
  -24.9790  -34.0610   24.9840 H   0  0  0  0  0  0  0  0  0  0  0  0
  -24.1690  -36.7460   23.0400 C   0  0  0  0  0  1  0  0  0  0  0  0
  -25.4020  -36.3590   23.8720 C   0  0  0  0  0  3  0  0  0  0  0  0
  -27.5180  -37.2790   24.7230 C   0  0  0  0  0  1  0  0  0  0  0  0
  -26.4250  -37.4240   23.7640 N   0  0  0  0  0  0  0  0  0  0  0  0
  -26.0070  -38.3400   23.8940 H   0  0  0  0  0  0  0  0  0  0  0  0
  -26.4070  -31.7640   25.1720 C   0  0  1  0  0  0  0  0  0  0  0  0
  -25.2860  -31.5290   26.2120 C   0  0  0  0  0  1  0  0  0  0  0  0
  -27.0110  -30.3870   24.8120 C   0  0  0  0  0  1  0  0  0  0  0  0
  -27.5330  -32.5720   25.8580 C   0  0  0  0  0  1  0  0  0  0  0  0
  1 20  1  0
  2  7  1  0
  3  4  1  0
  3  2  1  0
  5  4  1  0
  5 24  1  0
  5  6  1  0
  7  1  1  0
  7  6  1  0
  8  1  2  0
  9 11  2  0
  9 13  1  0
 10 14  1  0
 11 12  1  0
 12 16  1  0
 12 14  2  0
 13 10  2  0
 14 19  1  0
 15 11  1  0
 17 15  2  0
 17 20  1  0
 18 16  2  0
 20 18  1  0
 21 22  2  0
 22 41  1  0
 23 22  1  0
 23 26  1  0
 24 21  1  0
 24 25  1  0
 25 23  2  0
 26 27  1  0
 27 28  2  0
 29 32  1  0
 29 28  1  0
 30 29  2  0
 31 30  1  0
 31 26  2  0
 32 33  1  0
 33 34  1  0
 34 35  2  0
 36 35  1  0
 36 40  1  0
 37 36  2  0
 38 33  2  0
 38 37  1  0
 39 38  1  0
 41 42  1  0
 42 45  1  0
 42 44  1  0
 43 41  2  0
 46 47  1  0
 46 21  1  0
 48 46  1  0
 50 49  1  0
 50 13  1  0
 50 51  1  0
 52 51  1  0
 53 64  2  0
 54 52  1  0
 54 59  1  0
 55 63  1  0
 55 65  1  0
 56 62  1  0
 56 58  1  0
 57 63  1  0
 58 59  2  0
 58 57  1  0
 60 54  2  0
 61 60  1  0
 61 56  2  0
 62 55  1  0
 63 53  1  0
 65 67  2  0
 66 65  1  0
 68 66  1  0
 69 78  2  0
 69 74  1  0
 70 66  1  0
 70 74  1  0
 71 70  1  0
 72 73  1  0
 72 71  1  0
 73 69  1  0
 74 75  2  0
 75 76  1  0
 77 76  2  0
 78 77  1  0
 79 53  1  0
 79 80  1  0
 79 89  1  0
 80 83  1  0
 81 85  1  0
 81 80  1  0
 82 81  2  0
 85 84  1  0
 87 85  1  0
 87 88  1  0
 87 86  1  0
 89 92  1  1
 89 90  1  0
 91 89  1  0
M  ISO  4   1 100  20 100  51 101  52 101
M  END
>  <TORSDO>  (32) 
F 17

>  <SCORE>  (32) 
-15.219

>  <name>  (32) 
31

>  <ligand_id>  (32) 
31

>  <original_smiles>  (32) 
[H]c1c([H])c([H])c2c(c1[H])C([H])([H])C([H])([H])C([H])([H])C2([H])N([H])C(=O)C1([H])N(C(=O)C([H])(N([H])C(=O)C([H])(N([H])C([H])([H])[H])C([H])([H])[H])C(C([H])([H])[H])(C([H])([H])[H])C([H])([H])[H])C([H])([H])c2c([H])c(OC([H])([H])C([H])(c3c([H])c(C([H])([H])[H])c4c(c3[H])C([H])([H])C([H])([H])N(C(=O)N3C([H])([H])C([H])([H])C([H])([H])C([H])(n5nc(-c6c([H])c([H])c(Oc7c([H])c([H])c(F)c([H])c7F)c([H])c6[H])c(C(=O)N([H])[H])c5N([H])[H])C3([H])[H])C([H])([H])C4([H])[H])C([H])([H])[H])c([H])c([H])c2C1([H])[H]

>  <smiles>  (32) 
[H]c1c([H])c([H])c2c(c1[H])C([H])([H])C([H])([H])C([H])([H])C2([H])N([H])C(=O)C1([H])N(C(=O)C([H])(N([H])C(=O)C([H])(N([H])C([H])([H])[H])C([H])([H])[H])C(C([H])([H])[H])(C([H])([H])[H])C([H])([H])[H])C([H])([H])c2c([H])c(OC([H])([H])C([H])(c3c([H])c(C([H])([H])[H])c4c(c3[H])C([H])([H])C([H])([H])N(C(=O)N3C([H])([H])C([H])([H])C([H])([H])C([H])(n5nc(-c6c([H])c([H])c(Oc7c([H])c([H])c(F)c([H])c7F)c([H])c6[H])c(C(=O)N([H])[H])c5N([H])[H])C3([H])[H])C([H])([H])C4([H])[H])C([H])([H])[H])c([H])c([H])c2C1([H])[H]

$$$$
32:0:0
     RDKit          3D

 93102  0  0  1  0  0  0  0  0999 V2000
  -29.8390  -22.5360   17.9610 C   0  0  0  0  0  3  0  0  0  0  0  0
  -29.3520  -20.9550   19.8060 C   0  0  0  0  0  0  0  0  0  0  0  0
  -29.8590  -21.2300   18.4980 C   0  0  0  0  0  0  0  0  0  0  0  0
  -29.3340  -23.6610   18.6370 C   0  0  0  0  0  0  0  0  0  0  0  0
  -28.8390  -22.1610   20.5050 C   0  0  0  0  0  0  0  0  0  0  0  0
  -28.8130  -23.5410   19.9470 C   0  0  0  0  0  0  0  0  0  0  0  0
  -30.4250  -20.1770   17.5550 C   0  0  0  0  0  1  0  0  0  0  0  0
  -29.3560  -24.9890   17.8960 C   0  0  0  0  0  1  0  0  0  0  0  0
  -28.2810  -21.9480   21.9040 C   0  0  0  0  0  1  0  0  0  0  0  0
  -30.6710  -14.9000   20.2840 C   0  0  0  0  0  0  0  0  0  0  0  0
  -30.4290  -12.5930   19.3040 C   0  0  0  0  0  2  0  0  0  0  0  0
  -29.4820  -12.5670   18.0870 C   0  0  0  0  0  2  0  0  0  0  0  0
  -28.0310  -12.3450   18.5500 C   0  0  0  0  0  2  0  0  0  0  0  0
  -27.6390  -13.2740   19.7280 C   0  0  0  0  0  3  0  0  0  0  0  0
  -28.7150  -13.3210   20.8350 C   0  0  0  0  0  2  0  0  0  0  0  0
  -29.9790  -13.6990   20.1940 N   0  0  0  0  0  0  0  0  0  0  0  0
  -31.8810  -14.8630   20.0460 O   0  0  0  0  0  0  0  0  0  0  0  0
  -28.7320  -18.2430   19.5170 C   0  0  0  0  0  2  0  0  0  0  0  0
  -30.7320  -18.7640   20.8040 C   0  0  0  0  0  2  0  0  0  0  0  0
  -28.7760  -16.7260   20.0430 C   0  0  0  0  0  2  0  0  0  0  0  0
  -30.7450  -17.2530   21.3340 C   0  0  0  0  0  2  0  0  0  0  0  0
  -29.3570  -19.4080   20.3880 C   0  0  0  0  0  3  0  0  0  0  0  0
  -30.0640  -16.1590   20.5550 N   0  0  0  0  0  0  0  0  0  0  0  0
  -25.2760  -13.8650   20.5030 C   0  0  0  0  0  0  0  0  0  0  0  0
  -24.2140  -13.0910   20.8790 C   0  0  0  0  0  0  0  0  0  0  0  0
  -24.6790  -11.7410   20.8430 C   0  0  0  0  0  0  0  0  0  0  0  0
  -26.3140  -12.9840   20.2500 N   0  0  0  0  0  0  0  0  0  0  0  0
  -25.9660  -11.7020   20.5230 N   0  0  0  0  0  0  0  0  0  0  0  0
  -23.9550  -10.4780   21.0330 C   0  0  0  0  0  0  0  0  0  0  0  0
  -24.3860   -9.5160   21.9720 C   0  0  0  0  0  3  0  0  0  0  0  0
  -23.6620   -8.3170   22.1500 C   0  0  0  0  0  3  0  0  0  0  0  0
  -22.4950   -8.0740   21.3880 C   0  0  0  0  0  0  0  0  0  0  0  0
  -22.0840   -9.0260   20.4380 C   0  0  0  0  0  3  0  0  0  0  0  0
  -22.8090  -10.2150   20.2580 C   0  0  0  0  0  3  0  0  0  0  0  0
  -21.7410   -6.9280   21.4760 O   0  0  0  0  0  0  0  0  0  0  0  0
  -21.6740   -6.1990   22.6380 C   0  0  0  0  0  0  0  0  0  0  0  0
  -21.2050   -6.7630   23.8440 C   0  0  0  0  0  3  0  0  0  0  0  0
  -21.0870   -5.9600   24.9960 C   0  0  0  0  0  3  0  0  0  0  0  0
  -21.4290   -4.5950   24.9420 C   0  0  0  0  0  0  0  0  0  0  0  0
  -21.8920   -4.0330   23.7390 C   0  0  0  0  0  3  0  0  0  0  0  0
  -22.0120   -4.8330   22.5910 C   0  0  0  0  0  0  0  0  0  0  0  0
  -22.4380   -4.2810   21.4280 F   0  0  0  0  0  0  0  0  0  0  0  0
  -21.3090   -3.8200   26.0450 F   0  0  0  0  0  0  0  0  0  0  0  0
  -22.8190  -13.5690   21.1590 C   0  0  0  0  0  0  0  0  0  0  0  0
  -22.0950  -12.8670   22.0230 N   0  0  0  0  0  0  0  0  0  0  0  0
  -22.3820  -14.6010   20.6490 O   0  0  0  0  0  0  0  0  0  0  0  0
  -22.4620  -12.0320   22.4550 H   0  0  0  0  0  0  0  0  0  0  0  0
  -21.1590  -13.1690   22.2550 H   0  0  0  0  0  0  0  0  0  0  0  0
  -25.4390  -15.2360   20.3250 N   0  0  0  0  0  0  0  0  0  0  0  0
  -24.6770  -15.8940   20.4500 H   0  0  0  0  0  0  0  0  0  0  0  0
  -26.2860  -15.6710   19.9820 H   0  0  0  0  0  0  0  0  0  0  0  0
  -28.1670  -24.8620   20.6580 C   0  0  0  0  0  2  0  0  0  0  0  0
  -28.3970  -26.3160   20.2280 O   0  0  0  0  0  0  0  0  0  0  0  0
  -24.7050  -31.8760   23.2530 C   0  0  0  0  0  0  0  0  0  0  0  0
  -27.3140  -27.2410   20.2150 C   0  0  0  0  0  0  0  0  0  0  0  0
  -23.5120  -30.4820   21.6060 C   0  0  0  0  0  3  0  0  0  0  0  0
  -24.9690  -28.9220   20.1840 C   0  0  0  0  0  0  0  0  0  0  0  0
  -26.0600  -30.7750   21.4430 C   0  0  0  0  0  2  0  0  0  0  0  0
  -26.1420  -29.3910   20.7890 C   0  0  0  0  0  0  0  0  0  0  0  0
  -27.3200  -28.5670   20.7830 C   0  0  0  0  0  3  0  0  0  0  0  0
  -26.1180  -26.8500   19.5790 C   0  0  0  0  0  3  0  0  0  0  0  0
  -24.9640  -27.6610   19.5670 C   0  0  0  0  0  3  0  0  0  0  0  0
  -23.7350  -29.8060   20.2270 C   0  0  0  0  0  2  0  0  0  0  0  0
  -24.7790  -31.0640   22.1560 N   0  0  0  0  0  0  0  0  0  0  0  0
  -23.6180  -32.1550   23.7810 O   0  0  0  0  0  0  0  0  0  0  0  0
  -22.8380  -29.4660   22.5620 C   0  0  0  0  0  0  0  0  0  0  0  0
  -21.5110  -29.2920   22.4320 N   0  0  0  0  0  0  0  0  0  0  0  0
  -23.5110  -28.8380   23.3830 O   0  0  0  0  0  0  0  0  0  0  0  0
  -21.0260  -29.8500   21.7430 H   0  0  0  0  0  0  0  0  0  0  0  0
  -18.1300  -28.0970   22.9320 C   0  0  0  0  0  0  0  0  0  0  0  0
  -20.6900  -28.3520   23.1980 C   0  0  0  0  0  3  0  0  0  0  0  0
  -20.7890  -26.9230   22.6160 C   0  0  0  0  0  2  0  0  0  0  0  0
  -19.6850  -26.6080   21.6020 C   0  0  0  0  0  2  0  0  0  0  0  0
  -18.3040  -26.7510   22.2470 C   0  0  0  0  0  2  0  0  0  0  0  0
  -19.2510  -28.8550   23.3640 C   0  0  0  0  0  0  0  0  0  0  0  0
  -19.0340  -30.1140   23.9640 C   0  0  0  0  0  3  0  0  0  0  0  0
  -17.7300  -30.6170   24.1340 C   0  0  0  0  0  3  0  0  0  0  0  0
  -16.6240  -29.8550   23.7170 C   0  0  0  0  0  3  0  0  0  0  0  0
  -16.8250  -28.5960   23.1240 C   0  0  0  0  0  3  0  0  0  0  0  0
  -25.9820  -32.5120   23.8850 C   0  0  0  0  0  3  0  0  0  0  0  0
  -25.6680  -33.9110   24.2130 N   0  0  0  0  0  0  0  0  0  0  0  0
  -25.9980  -34.9650   23.4550 C   0  0  0  0  0  0  0  0  0  0  0  0
  -26.6660  -34.8620   22.4230 O   0  0  0  0  0  0  0  0  0  0  0  0
  -25.0740  -34.0650   25.0150 H   0  0  0  0  0  0  0  0  0  0  0  0
  -24.2690  -36.7590   23.1050 C   0  0  0  0  0  1  0  0  0  0  0  0
  -25.5100  -36.3530   23.9140 C   0  0  0  0  0  3  0  0  0  0  0  0
  -27.6430  -37.2400   24.7490 C   0  0  0  0  0  1  0  0  0  0  0  0
  -26.5420  -37.4070   23.8030 N   0  0  0  0  0  0  0  0  0  0  0  0
  -26.1360  -38.3280   23.9510 H   0  0  0  0  0  0  0  0  0  0  0  0
  -26.4870  -31.7460   25.1690 C   0  0  1  0  0  0  0  0  0  0  0  0
  -25.3860  -31.5110   26.2290 C   0  0  0  0  0  1  0  0  0  0  0  0
  -27.0760  -30.3660   24.7920 C   0  0  0  0  0  1  0  0  0  0  0  0
  -27.6330  -32.5450   25.8370 C   0  0  0  0  0  1  0  0  0  0  0  0
  1  3  2  0
  1  4  1  0
  2  5  2  0
  3  2  1  0
  4  6  2  0
  5  9  1  0
  6  5  1  0
  6 52  1  0
  7  3  1  0
  8  4  1  0
 10 23  1  0
 11 16  1  0
 12 13  1  0
 12 11  1  0
 14 13  1  0
 14 27  1  0
 14 15  1  0
 16 10  1  0
 16 15  1  0
 17 10  2  0
 18 20  1  0
 18 22  1  0
 19 21  1  0
 20 23  1  0
 22  2  1  0
 22 19  1  0
 23 21  1  0
 24 25  2  0
 25 44  1  0
 26 25  1  0
 26 29  1  0
 27 24  1  0
 27 28  1  0
 28 26  2  0
 29 30  1  0
 30 31  2  0
 32 35  1  0
 32 31  1  0
 33 32  2  0
 34 33  1  0
 34 29  2  0
 35 36  1  0
 36 37  1  0
 37 38  2  0
 39 38  1  0
 39 43  1  0
 40 39  2  0
 41 36  2  0
 41 40  1  0
 42 41  1  0
 44 45  1  0
 45 48  1  0
 45 47  1  0
 46 44  2  0
 49 50  1  0
 49 24  1  0
 51 49  1  0
 53 52  1  0
 54 65  2  0
 55 53  1  0
 55 60  1  0
 56 64  1  0
 56 66  1  0
 57 63  1  0
 57 59  1  0
 58 64  1  0
 59 58  1  0
 60 59  2  0
 61 55  2  0
 62 61  1  0
 62 57  2  0
 63 56  1  0
 64 54  1  0
 66 68  2  0
 67 66  1  0
 69 67  1  0
 70 79  2  0
 70 75  1  0
 71 67  1  0
 71 75  1  0
 72 71  1  0
 73 74  1  0
 73 72  1  0
 74 70  1  0
 75 76  2  0
 76 77  1  0
 78 77  2  0
 79 78  1  0
 80 54  1  0
 80 81  1  0
 80 90  1  0
 81 84  1  0
 82 86  1  0
 82 81  1  0
 83 82  2  0
 86 85  1  0
 88 86  1  0
 88 89  1  0
 88 87  1  0
 90 93  1  1
 90 91  1  0
 92 90  1  0
M  ISO  4  10 100  23 100  52 101  53 101
M  END
>  <TORSDO>  (33) 
F 17

>  <SCORE>  (33) 
-15.374

>  <name>  (33) 
32

>  <ligand_id>  (33) 
32

>  <original_smiles>  (33) 
[H]c1c([H])c([H])c2c(c1[H])C([H])([H])C([H])([H])C([H])([H])C2([H])N([H])C(=O)C1([H])N(C(=O)C([H])(N([H])C(=O)C([H])(N([H])C([H])([H])[H])C([H])([H])[H])C(C([H])([H])[H])(C([H])([H])[H])C([H])([H])[H])C([H])([H])c2c([H])c(OC([H])([H])c3c(C([H])([H])[H])c([H])c(C([H])([H])[H])c(C4([H])C([H])([H])C([H])([H])N(C(=O)N5C([H])([H])C([H])([H])C([H])([H])C([H])(n6nc(-c7c([H])c([H])c(Oc8c([H])c([H])c(F)c([H])c8F)c([H])c7[H])c(C(=O)N([H])[H])c6N([H])[H])C5([H])[H])C([H])([H])C4([H])[H])c3C([H])([H])[H])c([H])c([H])c2C1([H])[H]

>  <smiles>  (33) 
[H]c1c([H])c([H])c2c(c1[H])C([H])([H])C([H])([H])C([H])([H])C2([H])N([H])C(=O)C1([H])N(C(=O)C([H])(N([H])C(=O)C([H])(N([H])C([H])([H])[H])C([H])([H])[H])C(C([H])([H])[H])(C([H])([H])[H])C([H])([H])[H])C([H])([H])c2c([H])c(OC([H])([H])c3c(C([H])([H])[H])c([H])c(C([H])([H])[H])c(C4([H])C([H])([H])C([H])([H])N(C(=O)N5C([H])([H])C([H])([H])C([H])([H])C([H])(n6nc(-c7c([H])c([H])c(Oc8c([H])c([H])c(F)c([H])c8F)c([H])c7[H])c(C(=O)N([H])[H])c6N([H])[H])C5([H])[H])C([H])([H])C4([H])[H])c3C([H])([H])[H])c([H])c([H])c2C1([H])[H]

$$$$
33:0:0
     RDKit          3D

 95104  0  0  1  0  0  0  0  0999 V2000
  -30.9160  -15.4150   19.8660 C   0  0  0  0  0  0  0  0  0  0  0  0
  -28.9580  -16.6660   21.0750 C   0  0  0  0  0  2  0  0  0  0  0  0
  -27.8530  -17.1730   20.1140 C   0  0  0  0  0  2  0  0  0  0  0  0
  -28.2210  -18.5560   19.5410 C   0  0  0  0  0  2  0  0  0  0  0  0
  -29.7050  -18.6290   19.1060 C   0  0  0  0  0  3  0  0  0  0  0  0
  -30.6730  -18.0200   20.1450 C   0  0  0  0  0  2  0  0  0  0  0  0
  -30.2800  -16.6130   20.3230 N   0  0  0  0  0  0  0  0  0  0  0  0
  -30.5230  -14.4240   20.5080 O   0  0  0  0  0  0  0  0  0  0  0  0
  -33.9980  -15.2690   17.3920 C   0  0  0  0  0  0  0  0  0  0  0  0
  -33.5410  -14.1430   16.6650 C   0  0  0  0  0  0  0  0  0  0  0  0
  -35.3480  -15.6450   17.3740 C   0  0  0  0  0  0  0  0  0  0  0  0
  -34.4520  -13.4240   15.5700 C   0  0  0  0  0  0  0  0  0  0  0  0
  -36.2770  -14.8530   16.6530 C   0  0  0  0  0  0  0  0  0  0  0  0
  -35.8530  -13.8070   15.7610 C   0  0  0  0  0  0  0  0  0  0  0  0
  -32.9390  -16.0300   18.2820 C   0  0  0  0  0  2  0  0  0  0  0  0
  -32.0530  -14.0950   17.4610 C   0  0  0  0  0  3  0  0  0  0  0  0
  -37.7550  -15.1600   16.8540 C   0  0  0  0  0  1  0  0  0  0  0  0
  -31.8150  -12.6980   18.0460 C   0  0  0  0  0  1  0  0  0  0  0  0
  -31.7400  -15.2340   18.6020 N   0  0  0  0  0  0  0  0  0  0  0  0
  -30.8370  -20.3050   17.5630 C   0  0  0  0  0  0  0  0  0  0  0  0
  -30.8680  -21.6710   17.5430 C   0  0  0  0  0  0  0  0  0  0  0  0
  -30.1300  -22.1010   18.6900 C   0  0  0  0  0  0  0  0  0  0  0  0
  -30.1040  -19.9590   18.6770 N   0  0  0  0  0  0  0  0  0  0  0  0
  -29.7260  -21.0510   19.3980 N   0  0  0  0  0  0  0  0  0  0  0  0
  -29.7420  -23.4530   19.1230 C   0  0  0  0  0  0  0  0  0  0  0  0
  -30.0530  -23.9390   20.4110 C   0  0  0  0  0  3  0  0  0  0  0  0
  -29.6850  -25.2470   20.7860 C   0  0  0  0  0  3  0  0  0  0  0  0
  -29.0080  -26.0900   19.8710 C   0  0  0  0  0  0  0  0  0  0  0  0
  -28.6870  -25.5870   18.5990 C   0  0  0  0  0  3  0  0  0  0  0  0
  -29.0480  -24.2850   18.2270 C   0  0  0  0  0  3  0  0  0  0  0  0
  -28.5870  -27.3610   20.1630 O   0  0  0  0  0  0  0  0  0  0  0  0
  -29.2300  -28.1370   21.0970 C   0  0  0  0  0  0  0  0  0  0  0  0
  -30.6010  -28.4530   20.9840 C   0  0  0  0  0  3  0  0  0  0  0  0
  -31.2070  -29.3080   21.9250 C   0  0  0  0  0  3  0  0  0  0  0  0
  -30.4390  -29.8600   22.9700 C   0  0  0  0  0  0  0  0  0  0  0  0
  -29.0700  -29.5550   23.0780 C   0  0  0  0  0  3  0  0  0  0  0  0
  -28.4670  -28.6990   22.1430 C   0  0  0  0  0  0  0  0  0  0  0  0
  -27.1450  -28.4220   22.2410 F   0  0  0  0  0  0  0  0  0  0  0  0
  -31.0200  -30.6880   23.8650 F   0  0  0  0  0  0  0  0  0  0  0  0
  -31.4680  -22.5220   16.4600 C   0  0  0  0  0  0  0  0  0  0  0  0
  -31.9900  -23.6830   16.8220 N   0  0  0  0  0  0  0  0  0  0  0  0
  -31.5030  -22.1440   15.2900 O   0  0  0  0  0  0  0  0  0  0  0  0
  -31.9820  -23.9800   17.7850 H   0  0  0  0  0  0  0  0  0  0  0  0
  -32.4270  -24.2840   16.1380 H   0  0  0  0  0  0  0  0  0  0  0  0
  -31.3420  -19.3250   16.7080 N   0  0  0  0  0  0  0  0  0  0  0  0
  -31.7600  -19.5770   15.8240 H   0  0  0  0  0  0  0  0  0  0  0  0
  -31.0940  -18.3440   16.7670 H   0  0  0  0  0  0  0  0  0  0  0  0
  -36.1640  -16.6750   19.6440 C   0  0  0  0  0  1  0  0  0  0  0  0
  -35.7840  -16.8980   18.1700 C   0  0  0  0  0  2  0  0  0  0  0  0
  -34.3180  -12.2220   14.2660 C   0  0  0  0  0  2  0  0  0  0  0  0
  -34.9350  -12.0000   12.5200 C   0  0  0  0  0  2  0  0  0  0  0  0
  -35.9510  -11.1020   11.5020 O   0  0  0  0  0  0  0  0  0  0  0  0
  -41.0210  -11.6560    5.8260 C   0  0  0  0  0  0  0  0  0  0  0  0
  -36.3160  -11.3020   10.0490 C   0  0  0  0  0  0  0  0  0  0  0  0
  -38.8840  -12.8570    5.6220 C   0  0  0  0  0  3  0  0  0  0  0  0
  -36.9910  -12.1370    7.2480 C   0  0  0  0  0  0  0  0  0  0  0  0
  -38.9790  -10.6710    6.9950 C   0  0  0  0  0  2  0  0  0  0  0  0
  -37.7830  -11.1670    7.8750 C   0  0  0  0  0  0  0  0  0  0  0  0
  -37.4370  -10.7450    9.2480 C   0  0  0  0  0  3  0  0  0  0  0  0
  -35.5480  -12.2010    9.2670 C   0  0  0  0  0  3  0  0  0  0  0  0
  -35.8760  -12.6200    7.9450 C   0  0  0  0  0  3  0  0  0  0  0  0
  -37.3630  -12.6250    5.8410 C   0  0  0  0  0  2  0  0  0  0  0  0
  -39.6850  -11.7140    6.1590 N   0  0  0  0  0  0  0  0  0  0  0  0
  -41.5600  -12.5210    5.1160 O   0  0  0  0  0  0  0  0  0  0  0  0
  -39.2990  -14.2270    6.2200 C   0  0  0  0  0  0  0  0  0  0  0  0
  -39.0780  -15.3230    5.4720 N   0  0  0  0  0  0  0  0  0  0  0  0
  -39.7830  -14.2830    7.3560 O   0  0  0  0  0  0  0  0  0  0  0  0
  -38.6820  -15.2050    4.5490 H   0  0  0  0  0  0  0  0  0  0  0  0
  -38.9750  -18.7880    4.3880 C   0  0  0  0  0  0  0  0  0  0  0  0
  -39.3410  -16.7070    5.8900 C   0  0  0  0  0  3  0  0  0  0  0  0
  -38.1730  -17.2510    6.7470 C   0  0  0  0  0  2  0  0  0  0  0  0
  -37.1210  -18.0030    5.9240 C   0  0  0  0  0  2  0  0  0  0  0  0
  -37.7560  -19.1930    5.1980 C   0  0  0  0  0  2  0  0  0  0  0  0
  -39.7100  -17.6120    4.7050 C   0  0  0  0  0  0  0  0  0  0  0  0
  -40.8210  -17.2640    3.9030 C   0  0  0  0  0  3  0  0  0  0  0  0
  -41.2050  -18.0670    2.8130 C   0  0  0  0  0  3  0  0  0  0  0  0
  -40.4870  -19.2380    2.5190 C   0  0  0  0  0  3  0  0  0  0  0  0
  -39.3760  -19.5970    3.3030 C   0  0  0  0  0  3  0  0  0  0  0  0
  -41.9350  -10.4990    6.3240 C   0  0  0  0  0  3  0  0  0  0  0  0
  -42.8150  -10.9010    7.5740 C   0  0  1  0  0  0  0  0  0  0  0  0
  -43.6290  -12.1990    7.3680 C   0  0  0  0  0  1  0  0  0  0  0  0
  -41.9380  -11.0950    8.8310 C   0  0  0  0  0  1  0  0  0  0  0  0
  -43.8080   -9.7610    7.9060 C   0  0  0  0  0  1  0  0  0  0  0  0
  -42.8020  -10.0860    5.2100 N   0  0  0  0  0  0  0  0  0  0  0  0
  -42.5780   -9.0360    4.4110 C   0  0  0  0  0  0  0  0  0  0  0  0
  -41.6310   -8.2640    4.5710 O   0  0  0  0  0  0  0  0  0  0  0  0
  -43.5650  -10.7080    4.9760 H   0  0  0  0  0  0  0  0  0  0  0  0
  -42.9500   -9.3260    1.9370 C   0  0  0  0  0  1  0  0  0  0  0  0
  -43.5610   -8.8020    3.2430 C   0  0  0  0  0  3  0  0  0  0  0  0
  -44.7860   -6.8820    4.1530 C   0  0  0  0  0  1  0  0  0  0  0  0
  -43.9490   -7.3850    3.0760 N   0  0  0  0  0  0  0  0  0  0  0  0
  -44.4570   -7.2600    2.2010 H   0  0  0  0  0  0  0  0  0  0  0  0
  -36.9620  -12.9680   15.1040 C   0  0  0  0  0  2  0  0  0  0  0  0
  -38.7280  -12.6800   13.2690 C   0  0  0  0  0  1  0  0  0  0  0  0
  -37.6980  -13.6090   13.9010 C   0  0  0  0  0  2  0  0  0  0  0  0
  1  7  1  0
  1  8  2  0
  3  2  1  0
  4  3  1  0
  5 23  1  0
  5  4  1  0
  5  6  1  0
  6  7  1  0
  7  2  1  0
  9 15  1  0
 10  9  2  0
 10 16  1  0
 11  9  1  0
 11 49  1  0
 12 14  2  0
 12 10  1  0
 13 17  1  0
 13 11  2  0
 14 13  1  0
 15 19  1  0
 16 18  1  0
 16 19  1  0
 19  1  1  0
 20 23  1  0
 21 20  2  0
 21 22  1  0
 22 25  1  0
 22 24  2  0
 23 24  1  0
 25 26  1  0
 26 27  2  0
 28 31  1  0
 28 27  1  0
 29 28  2  0
 30 29  1  0
 30 25  2  0
 31 32  1  0
 32 37  1  0
 33 32  2  0
 33 34  1  0
 34 35  2  0
 35 36  1  0
 35 39  1  0
 37 38  1  0
 37 36  2  0
 40 41  1  0
 40 21  1  0
 41 43  1  0
 42 40  2  0
 44 41  1  0
 45 47  1  0
 45 20  1  0
 46 45  1  0
 49 48  1  0
 50 12  1  0
 51 50  1  0
 52 51  1  0
 53 63  1  0
 54 52  1  0
 55 62  1  0
 55 63  1  0
 55 65  1  0
 56 58  2  0
 56 61  1  0
 57 58  1  0
 58 59  1  0
 59 54  2  0
 60 54  1  0
 61 60  2  0
 62 56  1  0
 63 57  1  0
 64 53  2  0
 65 67  2  0
 66 65  1  0
 68 66  1  0
 69 74  1  0
 69 73  1  0
 70 66  1  0
 70 71  1  0
 72 71  1  0
 73 72  1  0
 74 70  1  0
 75 74  2  0
 76 75  1  0
 77 76  2  0
 77 78  1  0
 78 69  2  0
 79 53  1  0
 79 80  1  0
 80 83  1  1
 80 82  1  0
 81 80  1  0
 84 79  1  0
 85 86  2  0
 85 84  1  0
 87 84  1  0
 89 88  1  0
 89 85  1  0
 91 89  1  0
 91 90  1  0
 92 91  1  0
 93 14  1  0
 94 95  1  0
 95 93  1  0
M  ISO  4   1 100  19 100  51 101  52 101
M  END
>  <TORSDO>  (34) 
F 20

>  <SCORE>  (34) 
-3.079

>  <name>  (34) 
33

>  <ligand_id>  (34) 
33

>  <original_smiles>  (34) 
[H]c1c([H])c([H])c2c(c1[H])C([H])([H])C([H])([H])C([H])([H])C2([H])N([H])C(=O)C1([H])N(C(=O)C([H])(N([H])C(=O)C([H])(N([H])C([H])([H])[H])C([H])([H])[H])C(C([H])([H])[H])(C([H])([H])[H])C([H])([H])[H])C([H])([H])c2c([H])c(OC([H])([H])C([H])([H])c3c(C([H])([H])C([H])([H])C([H])([H])[H])c(C([H])([H])[H])c(C([H])([H])C([H])([H])[H])c4c3C([H])(C([H])([H])[H])N(C(=O)N3C([H])([H])C([H])([H])C([H])([H])C([H])(n5nc(-c6c([H])c([H])c(Oc7c([H])c([H])c(F)c([H])c7F)c([H])c6[H])c(C(=O)N([H])[H])c5N([H])[H])C3([H])[H])C4([H])[H])c([H])c([H])c2C1([H])[H]

>  <smiles>  (34) 
[H]c1c([H])c([H])c2c(c1[H])C([H])([H])C([H])([H])C([H])([H])C2([H])N([H])C(=O)C1([H])N(C(=O)C([H])(N([H])C(=O)C([H])(N([H])C([H])([H])[H])C([H])([H])[H])C(C([H])([H])[H])(C([H])([H])[H])C([H])([H])[H])C([H])([H])c2c([H])c(OC([H])([H])C([H])([H])c3c(C([H])([H])C([H])([H])C([H])([H])[H])c(C([H])([H])[H])c(C([H])([H])C([H])([H])[H])c4c3C([H])(C([H])([H])[H])N(C(=O)N3C([H])([H])C([H])([H])C([H])([H])C([H])(n5nc(-c6c([H])c([H])c(Oc7c([H])c([H])c(F)c([H])c7F)c([H])c6[H])c(C(=O)N([H])[H])c5N([H])[H])C3([H])[H])C4([H])[H])c([H])c([H])c2C1([H])[H]

$$$$
34:0:0
     RDKit          3D

 97107  0  0  1  0  0  0  0  0999 V2000
  -27.9450  -23.3330   22.0560 C   0  0  0  0  0  2  0  0  0  0  0  0
  -27.0850  -22.2540   21.4090 C   0  0  0  0  0  2  0  0  0  0  0  0
  -28.5610  -20.2510   20.8730 C   0  0  0  0  0  2  0  0  0  0  0  0
  -28.7980  -23.8390   20.8940 C   0  0  0  0  0  3  0  0  0  0  0  0
  -30.4130  -21.7120   20.6900 C   0  0  0  0  0  3  0  0  0  0  0  0
  -30.0260  -20.2320   20.4290 C   0  0  0  0  0  3  0  0  0  0  0  0
  -27.9740  -21.5790   20.3390 C   0  0  2  0  0  0  0  0  0  0  0  0
  -29.2040  -22.5420   20.1150 C   0  0  1  0  0  0  0  0  0  0  0  0
  -31.8100  -22.0840   20.1480 C   0  0  0  0  0  1  0  0  0  0  0  0
  -27.1200  -21.2890   19.0820 C   0  0  0  0  0  1  0  0  0  0  0  0
  -29.4440  -22.9150   18.6290 C   0  0  0  0  0  1  0  0  0  0  0  0
  -30.1770  -18.1490   21.8870 C   0  0  0  0  0  2  0  0  0  0  0  0
  -31.4000  -18.1070   20.2630 C   0  0  0  0  0  2  0  0  0  0  0  0
  -31.3280  -17.2150   21.5080 C   0  0  0  0  0  3  0  0  0  0  0  0
  -30.8730  -19.1970   21.1140 N   0  0  1  0  0  4  0  0  0  0  0  0
  -31.6040  -19.6070   21.6760 H   0  0  0  0  0  0  0  0  0  0  0  0
  -31.6000  -14.8160   20.7120 C   0  0  0  0  0  0  0  0  0  0  0  0
  -31.2770  -12.6510   19.5620 C   0  0  0  0  0  2  0  0  0  0  0  0
  -30.3990  -12.8620   18.3100 C   0  0  0  0  0  2  0  0  0  0  0  0
  -28.9000  -12.8070   18.6640 C   0  0  0  0  0  2  0  0  0  0  0  0
  -28.5430  -13.6930   19.8870 C   0  0  0  0  0  3  0  0  0  0  0  0
  -29.5230  -13.4280   21.0520 C   0  0  0  0  0  2  0  0  0  0  0  0
  -30.8920  -13.6640   20.5560 N   0  0  0  0  0  0  0  0  0  0  0  0
  -32.7320  -14.9860   20.2500 O   0  0  0  0  0  0  0  0  0  0  0  0
  -30.9220  -15.8120   21.3130 N   0  0  0  0  0  0  0  0  0  0  0  0
  -30.0120  -15.5490   21.6590 H   0  0  0  0  0  0  0  0  0  0  0  0
  -26.1680  -14.4630   20.5190 C   0  0  0  0  0  0  0  0  0  0  0  0
  -25.0290  -13.7640   20.8150 C   0  0  0  0  0  0  0  0  0  0  0  0
  -25.3870  -12.3820   20.7460 C   0  0  0  0  0  0  0  0  0  0  0  0
  -27.1520  -13.5110   20.2950 N   0  0  0  0  0  0  0  0  0  0  0  0
  -26.6810  -12.2530   20.4870 N   0  0  0  0  0  0  0  0  0  0  0  0
  -24.5590  -11.1740   20.8550 C   0  0  0  0  0  0  0  0  0  0  0  0
  -24.8800  -10.1390   21.7610 C   0  0  0  0  0  3  0  0  0  0  0  0
  -24.0590   -8.9950   21.8610 C   0  0  0  0  0  3  0  0  0  0  0  0
  -22.9030   -8.8790   21.0530 C   0  0  0  0  0  0  0  0  0  0  0  0
  -22.6000   -9.9010   20.1380 C   0  0  0  0  0  3  0  0  0  0  0  0
  -23.4210  -11.0370   20.0350 C   0  0  0  0  0  3  0  0  0  0  0  0
  -22.0610   -7.7920   21.0640 O   0  0  0  0  0  0  0  0  0  0  0  0
  -21.8850   -7.0290   22.1910 C   0  0  0  0  0  0  0  0  0  0  0  0
  -21.4530   -7.5910   23.4110 C   0  0  0  0  0  3  0  0  0  0  0  0
  -21.2170   -6.7610   24.5240 C   0  0  0  0  0  3  0  0  0  0  0  0
  -21.4030   -5.3700   24.4190 C   0  0  0  0  0  0  0  0  0  0  0  0
  -21.8290   -4.8070   23.2020 C   0  0  0  0  0  3  0  0  0  0  0  0
  -22.0660   -5.6350   22.0900 C   0  0  0  0  0  0  0  0  0  0  0  0
  -22.4550   -5.0850   20.9150 F   0  0  0  0  0  0  0  0  0  0  0  0
  -21.1690   -4.5710   25.4850 F   0  0  0  0  0  0  0  0  0  0  0  0
  -23.6620  -14.3380   21.0510 C   0  0  0  0  0  0  0  0  0  0  0  0
  -22.8530  -13.6780   21.8720 N   0  0  0  0  0  0  0  0  0  0  0  0
  -23.3210  -15.4050   20.5430 O   0  0  0  0  0  0  0  0  0  0  0  0
  -23.1400  -12.8130   22.3060 H   0  0  0  0  0  0  0  0  0  0  0  0
  -21.9330  -14.0440   22.0710 H   0  0  0  0  0  0  0  0  0  0  0  0
  -26.4450  -15.8220   20.4020 N   0  0  0  0  0  0  0  0  0  0  0  0
  -25.7200  -16.5260   20.4870 H   0  0  0  0  0  0  0  0  0  0  0  0
  -27.3260  -16.2000   20.0800 H   0  0  0  0  0  0  0  0  0  0  0  0
  -29.8960  -24.8510   21.3060 C   0  0  0  0  0  2  0  0  0  0  0  0
  -29.3620  -26.2510   21.7250 C   0  0  0  0  0  2  0  0  0  0  0  0
  -29.0770  -27.0650   20.5840 O   0  0  0  0  0  0  0  0  0  0  0  0
  -24.8410  -32.0220   23.5430 C   0  0  0  0  0  0  0  0  0  0  0  0
  -27.8860  -27.7520   20.5990 C   0  0  0  0  0  0  0  0  0  0  0  0
  -23.8150  -30.5970   21.8000 C   0  0  0  0  0  3  0  0  0  0  0  0
  -25.4320  -29.1440   20.4650 C   0  0  0  0  0  0  0  0  0  0  0  0
  -26.3280  -31.0680   21.7850 C   0  0  0  0  0  2  0  0  0  0  0  0
  -26.5200  -29.7080   21.1440 C   0  0  0  0  0  0  0  0  0  0  0  0
  -27.7520  -29.0170   21.2180 C   0  0  0  0  0  3  0  0  0  0  0  0
  -26.7880  -27.2010   19.9140 C   0  0  0  0  0  3  0  0  0  0  0  0
  -25.5590  -27.8860   19.8490 C   0  0  0  0  0  3  0  0  0  0  0  0
  -24.1510  -29.9480   20.4300 C   0  0  0  0  0  2  0  0  0  0  0  0
  -25.0080  -31.2450   22.4360 N   0  0  0  0  0  0  0  0  0  0  0  0
  -23.7140  -32.2380   24.0110 O   0  0  0  0  0  0  0  0  0  0  0  0
  -23.1440  -29.5340   22.7000 C   0  0  0  0  0  0  0  0  0  0  0  0
  -21.8320  -29.3230   22.5020 N   0  0  0  0  0  0  0  0  0  0  0  0
  -23.8030  -28.9000   23.5290 O   0  0  0  0  0  0  0  0  0  0  0  0
  -21.3620  -29.8880   21.8070 H   0  0  0  0  0  0  0  0  0  0  0  0
  -18.4590  -28.0730   22.8370 C   0  0  0  0  0  0  0  0  0  0  0  0
  -21.0030  -28.3430   23.2030 C   0  0  0  0  0  3  0  0  0  0  0  0
  -21.1410  -26.9410   22.5670 C   0  0  0  0  0  2  0  0  0  0  0  0
  -20.0770  -26.6540   21.5040 C   0  0  0  0  0  2  0  0  0  0  0  0
  -18.6730  -26.7560   22.1090 C   0  0  0  0  0  2  0  0  0  0  0  0
  -19.5540  -28.8250   23.3370 C   0  0  0  0  0  0  0  0  0  0  0  0
  -19.3030  -30.0590   23.9760 C   0  0  0  0  0  3  0  0  0  0  0  0
  -17.9880  -30.5400   24.1200 C   0  0  0  0  0  3  0  0  0  0  0  0
  -16.9060  -29.7840   23.6370 C   0  0  0  0  0  3  0  0  0  0  0  0
  -17.1420  -28.5520   23.0010 C   0  0  0  0  0  3  0  0  0  0  0  0
  -26.0540  -32.6960   24.2600 C   0  0  0  0  0  3  0  0  0  0  0  0
  -26.4610  -31.9750   25.6030 C   0  0  1  0  0  0  0  0  0  0  0  0
  -25.2690  -31.7040   26.5500 C   0  0  0  0  0  1  0  0  0  0  0  0
  -27.1470  -30.6200   25.3090 C   0  0  0  0  0  1  0  0  0  0  0  0
  -27.4930  -32.8360   26.3690 C   0  0  0  0  0  1  0  0  0  0  0  0
  -25.6950  -34.0980   24.5100 N   0  0  0  0  0  0  0  0  0  0  0  0
  -26.0840  -35.1290   23.7480 C   0  0  0  0  0  0  0  0  0  0  0  0
  -26.8500  -35.0020   22.7890 O   0  0  0  0  0  0  0  0  0  0  0  0
  -25.0240  -34.2700   25.2450 H   0  0  0  0  0  0  0  0  0  0  0  0
  -24.3740  -36.8780   23.1620 C   0  0  0  0  0  1  0  0  0  0  0  0
  -25.5340  -36.5230   24.1060 C   0  0  0  0  0  3  0  0  0  0  0  0
  -27.5770  -37.4580   25.0960 C   0  0  0  0  0  1  0  0  0  0  0  0
  -26.5590  -37.5890   24.0570 N   0  0  0  0  0  0  0  0  0  0  0  0
  -26.1290  -38.5060   24.1500 H   0  0  0  0  0  0  0  0  0  0  0  0
  2  1  1  0
  4 55  1  0
  4  1  1  0
  5  9  1  0
  6  5  1  0
  6  3  1  0
  6 15  1  0
  7 10  1  6
  7  3  1  0
  7  2  1  0
  8 11  1  6
  8  7  1  0
  8  5  1  0
  8  4  1  0
 13 15  1  0
 13 14  1  0
 14 25  1  0
 14 12  1  0
 15 16  1  1
 15 12  1  0
 17 25  1  0
 18 23  1  0
 19 20  1  0
 19 18  1  0
 21 20  1  0
 21 30  1  0
 21 22  1  0
 23 17  1  0
 23 22  1  0
 24 17  2  0
 25 26  1  0
 27 28  2  0
 28 47  1  0
 29 28  1  0
 29 32  1  0
 30 31  1  0
 30 27  1  0
 31 29  2  0
 32 33  1  0
 33 34  2  0
 35 38  1  0
 35 34  1  0
 36 35  2  0
 37 36  1  0
 37 32  2  0
 38 39  1  0
 39 40  1  0
 40 41  2  0
 42 41  1  0
 42 46  1  0
 43 42  2  0
 44 39  2  0
 44 43  1  0
 45 44  1  0
 47 48  1  0
 48 51  1  0
 48 50  1  0
 49 47  2  0
 52 53  1  0
 52 27  1  0
 54 52  1  0
 55 56  1  0
 57 59  1  0
 57 56  1  0
 58 69  2  0
 59 64  1  0
 60 68  1  0
 60 70  1  0
 61 63  1  0
 62 68  1  0
 63 64  2  0
 63 62  1  0
 65 59  2  0
 66 65  1  0
 66 61  2  0
 67 61  1  0
 67 60  1  0
 68 58  1  0
 70 72  2  0
 71 70  1  0
 73 71  1  0
 74 83  2  0
 74 79  1  0
 75 71  1  0
 75 79  1  0
 76 75  1  0
 77 78  1  0
 77 76  1  0
 78 74  1  0
 79 80  2  0
 80 81  1  0
 82 81  2  0
 83 82  1  0
 84 58  1  0
 84 89  1  0
 84 85  1  0
 85 88  1  1
 85 86  1  0
 87 85  1  0
 89 92  1  0
 90 94  1  0
 90 89  1  0
 91 90  2  0
 94 93  1  0
 96 94  1  0
 96 97  1  0
 96 95  1  0
M  ISO  4  17 100  25 100  56 101  57 101
M  END
>  <TORSDO>  (35) 
F 19

>  <SCORE>  (35) 
-12.326

>  <name>  (35) 
34

>  <ligand_id>  (35) 
34

>  <original_smiles>  (35) 
[H]c1c([H])c([H])c2c(c1[H])C([H])([H])C([H])([H])C([H])([H])C2([H])N([H])C(=O)C1([H])N(C(=O)C([H])(N([H])C(=O)C([H])(N([H])C([H])([H])[H])C([H])([H])[H])C(C([H])([H])[H])(C([H])([H])[H])C([H])([H])[H])C([H])([H])c2c([H])c(OC([H])([H])C([H])([H])C3([H])C([H])([H])C([H])([H])C4(C([H])([H])[H])C([H])([H])C([H])([N+]5([H])C([H])([H])C([H])(N([H])C(=O)N6C([H])([H])C([H])([H])C([H])([H])C([H])(n7nc(-c8c([H])c([H])c(Oc9c([H])c([H])c(F)c([H])c9F)c([H])c8[H])c(C(=O)N([H])[H])c7N([H])[H])C6([H])[H])C5([H])[H])C([H])(C([H])([H])[H])C34C([H])([H])[H])c([H])c([H])c2C1([H])[H]

>  <smiles>  (35) 
[H]c1c([H])c([H])c2c(c1[H])C([H])([H])C([H])([H])C([H])([H])C2([H])N([H])C(=O)C1([H])N(C(=O)C([H])(N([H])C(=O)C([H])(N([H])C([H])([H])[H])C([H])([H])[H])C(C([H])([H])[H])(C([H])([H])[H])C([H])([H])[H])C([H])([H])c2c([H])c(OC([H])([H])C([H])([H])C3([H])C([H])([H])C([H])([H])C4(C([H])([H])[H])C([H])([H])C([H])([N+]5([H])C([H])([H])C([H])(N([H])C(=O)N6C([H])([H])C([H])([H])C([H])([H])C([H])(n7nc(-c8c([H])c([H])c(Oc9c([H])c([H])c(F)c([H])c9F)c([H])c8[H])c(C(=O)N([H])[H])c7N([H])[H])C6([H])[H])C5([H])[H])C([H])(C([H])([H])[H])C34C([H])([H])[H])c([H])c([H])c2C1([H])[H]

$$$$
35:0:0
     RDKit          3D

 96106  0  0  1  0  0  0  0  0999 V2000
  -28.6680  -21.9160   19.7800 C   0  0  0  0  0  0  0  0  0  0  0  0
  -28.9690  -23.3550   20.0390 C   0  0  0  0  0  0  0  0  0  0  0  0
  -30.1170  -23.5860   20.8410 C   0  0  0  0  0  0  0  0  0  0  0  0
  -30.8360  -22.5070   21.4320 C   0  0  0  0  0  0  0  0  0  0  0  0
  -30.5530  -21.1380   21.1320 C   0  0  0  0  0  0  0  0  0  0  0  0
  -29.4600  -20.7590   20.2850 C   0  0  0  0  0  0  0  0  0  0  0  0
  -30.5970  -25.0220   21.0530 C   0  0  0  0  0  1  0  0  0  0  0  0
  -31.9510  -22.8450   22.4320 C   0  0  0  0  0  1  0  0  0  0  0  0
  -31.4970  -20.0990   21.7580 C   0  0  0  0  0  1  0  0  0  0  0  0
  -30.4690  -14.8540   19.7270 C   0  0  0  0  0  0  0  0  0  0  0  0
  -30.2010  -12.5390   18.7520 C   0  0  0  0  0  2  0  0  0  0  0  0
  -29.1670  -12.5340   17.6060 C   0  0  0  0  0  2  0  0  0  0  0  0
  -27.7500  -12.3180   18.1660 C   0  0  0  0  0  2  0  0  0  0  0  0
  -27.4550  -13.2140   19.4000 C   0  0  0  0  0  3  0  0  0  0  0  0
  -28.6090  -13.2120   20.4240 C   0  0  0  0  0  2  0  0  0  0  0  0
  -29.8170  -13.6250   19.6990 N   0  0  0  0  0  0  0  0  0  0  0  0
  -31.6360  -14.8600   19.3210 O   0  0  0  0  0  0  0  0  0  0  0  0
  -30.0090  -18.6730   18.9070 C   0  0  0  0  0  3  0  0  0  0  0  0
  -29.1130  -18.3230   21.1290 C   0  0  0  0  0  3  0  0  0  0  0  0
  -29.8430  -17.1000   18.6250 C   0  0  0  0  0  3  0  0  0  0  0  0
  -28.9610  -16.7390   20.8260 C   0  0  0  0  0  3  0  0  0  0  0  0
  -29.2230  -19.3080   20.0000 N   0  0  0  0  0  0  0  0  0  0  0  0
  -29.7600  -16.0930   19.7380 N   0  0  0  0  0  0  0  0  0  0  0  0
  -25.1630  -13.7560   20.3940 C   0  0  0  0  0  0  0  0  0  0  0  0
  -24.1350  -12.9640   20.8290 C   0  0  0  0  0  0  0  0  0  0  0  0
  -24.5870  -11.6160   20.6890 C   0  0  0  0  0  0  0  0  0  0  0  0
  -26.1730  -12.8910   20.0130 N   0  0  0  0  0  0  0  0  0  0  0  0
  -25.8430  -11.5950   20.2560 N   0  0  0  0  0  0  0  0  0  0  0  0
  -23.8750  -10.3480   20.8890 C   0  0  0  0  0  0  0  0  0  0  0  0
  -24.3240   -9.3850   21.8200 C   0  0  0  0  0  3  0  0  0  0  0  0
  -23.6090   -8.1830   22.0080 C   0  0  0  0  0  3  0  0  0  0  0  0
  -22.4310   -7.9330   21.2640 C   0  0  0  0  0  0  0  0  0  0  0  0
  -22.0010   -8.8840   20.3210 C   0  0  0  0  0  3  0  0  0  0  0  0
  -22.7170  -10.0770   20.1320 C   0  0  0  0  0  3  0  0  0  0  0  0
  -21.6860   -6.7820   21.3620 O   0  0  0  0  0  0  0  0  0  0  0  0
  -21.5690   -6.0980   22.5460 C   0  0  0  0  0  0  0  0  0  0  0  0
  -21.0100   -6.6940   23.6970 C   0  0  0  0  0  3  0  0  0  0  0  0
  -20.8430   -5.9350   24.8730 C   0  0  0  0  0  3  0  0  0  0  0  0
  -21.2270   -4.5800   24.8960 C   0  0  0  0  0  0  0  0  0  0  0  0
  -21.7800   -3.9840   23.7490 C   0  0  0  0  0  3  0  0  0  0  0  0
  -21.9480   -4.7410   22.5770 C   0  0  0  0  0  0  0  0  0  0  0  0
  -22.4600   -4.1570   21.4680 F   0  0  0  0  0  0  0  0  0  0  0  0
  -21.0610   -3.8480   26.0220 F   0  0  0  0  0  0  0  0  0  0  0  0
  -22.7730  -13.4310   21.2530 C   0  0  0  0  0  0  0  0  0  0  0  0
  -22.1330  -12.7050   22.1620 N   0  0  0  0  0  0  0  0  0  0  0  0
  -22.2890  -14.4740   20.8150 O   0  0  0  0  0  0  0  0  0  0  0  0
  -22.5410  -11.8600   22.5370 H   0  0  0  0  0  0  0  0  0  0  0  0
  -21.2230  -12.9970   22.4890 H   0  0  0  0  0  0  0  0  0  0  0  0
  -25.3140  -15.1330   20.2660 N   0  0  0  0  0  0  0  0  0  0  0  0
  -24.5640  -15.7810   20.4800 H   0  0  0  0  0  0  0  0  0  0  0  0
  -26.1250  -15.5850   19.8620 H   0  0  0  0  0  0  0  0  0  0  0  0
  -26.0800  -22.0610   19.2540 C   0  0  0  0  0  2  0  0  0  0  0  0
  -26.4260  -20.5970   19.2660 C   0  0  0  0  0  2  0  0  0  0  0  0
  -27.4850  -21.6160   18.8950 C   0  0  0  0  0  3  0  0  0  0  0  0
  -28.0790  -24.6480   19.5150 C   0  0  0  0  0  2  0  0  0  0  0  0
  -28.3000  -26.1470   19.8560 O   0  0  0  0  0  0  0  0  0  0  0  0
  -24.5050  -31.5810   23.0270 C   0  0  0  0  0  0  0  0  0  0  0  0
  -27.2260  -27.1010   19.8030 C   0  0  0  0  0  0  0  0  0  0  0  0
  -23.3610  -30.2500   21.2950 C   0  0  0  0  0  3  0  0  0  0  0  0
  -24.8640  -28.7860   19.8160 C   0  0  0  0  0  0  0  0  0  0  0  0
  -25.9090  -30.5800   21.1910 C   0  0  0  0  0  2  0  0  0  0  0  0
  -26.0230  -29.2270   20.4680 C   0  0  0  0  0  0  0  0  0  0  0  0
  -27.2060  -28.4010   20.4450 C   0  0  0  0  0  3  0  0  0  0  0  0
  -26.0420  -26.7590   19.1140 C   0  0  0  0  0  3  0  0  0  0  0  0
  -24.8860  -27.5660   19.1240 C   0  0  0  0  0  3  0  0  0  0  0  0
  -23.6180  -29.6530   19.8870 C   0  0  0  0  0  2  0  0  0  0  0  0
  -24.6100  -30.8220   21.8940 N   0  0  0  0  0  0  0  0  0  0  0  0
  -23.4040  -31.8160   23.5490 O   0  0  0  0  0  0  0  0  0  0  0  0
  -22.6880  -29.1810   22.1900 C   0  0  0  0  0  0  0  0  0  0  0  0
  -21.3580  -29.0230   22.0610 N   0  0  0  0  0  0  0  0  0  0  0  0
  -23.3630  -28.4980   22.9640 O   0  0  0  0  0  0  0  0  0  0  0  0
  -20.8700  -29.6260   21.4150 H   0  0  0  0  0  0  0  0  0  0  0  0
  -17.9620  -27.8790   22.5910 C   0  0  0  0  0  0  0  0  0  0  0  0
  -20.5370  -28.0390   22.7720 C   0  0  0  0  0  3  0  0  0  0  0  0
  -20.5680  -26.6670   22.0570 C   0  0  0  0  0  2  0  0  0  0  0  0
  -19.4150  -26.4780   21.0650 C   0  0  0  0  0  2  0  0  0  0  0  0
  -18.0660  -26.5990   21.7800 C   0  0  0  0  0  2  0  0  0  0  0  0
  -19.1220  -28.5630   23.0440 C   0  0  0  0  0  0  0  0  0  0  0  0
  -18.9680  -29.7660   23.7680 C   0  0  0  0  0  3  0  0  0  0  0  0
  -17.6870  -30.2840   24.0400 C   0  0  0  0  0  3  0  0  0  0  0  0
  -16.5430  -29.5950   23.6010 C   0  0  0  0  0  3  0  0  0  0  0  0
  -16.6820  -28.3940   22.8830 C   0  0  0  0  0  3  0  0  0  0  0  0
  -25.7590  -32.2050   23.7100 C   0  0  0  0  0  3  0  0  0  0  0  0
  -25.4350  -33.6000   24.0500 N   0  0  0  0  0  0  0  0  0  0  0  0
  -25.7590  -34.6640   23.3040 C   0  0  0  0  0  0  0  0  0  0  0  0
  -26.4290  -34.5760   22.2720 O   0  0  0  0  0  0  0  0  0  0  0  0
  -24.8380  -33.7420   24.8520 H   0  0  0  0  0  0  0  0  0  0  0  0
  -23.9960  -36.4340   22.9960 C   0  0  0  0  0  1  0  0  0  0  0  0
  -25.2630  -36.0460   23.7760 C   0  0  0  0  0  3  0  0  0  0  0  0
  -27.3940  -36.9740   24.5690 C   0  0  0  0  0  1  0  0  0  0  0  0
  -26.2770  -37.1140   23.6370 N   0  0  0  0  0  0  0  0  0  0  0  0
  -25.8580  -38.0290   23.7800 H   0  0  0  0  0  0  0  0  0  0  0  0
  -26.2200  -31.4190   24.9980 C   0  0  1  0  0  0  0  0  0  0  0  0
  -25.0820  -31.1640   26.0140 C   0  0  0  0  0  1  0  0  0  0  0  0
  -26.8240  -30.0480   24.6180 C   0  0  0  0  0  1  0  0  0  0  0  0
  -27.3380  -32.2070   25.7210 C   0  0  0  0  0  1  0  0  0  0  0  0
  1  2  2  0
  1  6  1  0
  2  3  1  0
  3  7  1  0
  3  4  2  0
  4  8  1  0
  5  4  1  0
  5  9  1  0
  6  5  2  0
 10 23  1  0
 11 16  1  0
 12 13  1  0
 12 11  1  0
 14 13  1  0
 14 27  1  0
 14 15  1  0
 16 10  1  0
 16 15  1  0
 17 10  2  0
 18 22  1  0
 20 18  2  0
 20 23  1  0
 21 19  2  0
 22  6  1  0
 22 19  1  0
 23 21  1  0
 24 25  2  0
 25 44  1  0
 26 25  1  0
 26 29  1  0
 27 28  1  0
 27 24  1  0
 28 26  2  0
 29 30  1  0
 30 31  2  0
 32 35  1  0
 32 31  1  0
 33 32  2  0
 34 33  1  0
 34 29  2  0
 35 36  1  0
 36 41  2  0
 36 37  1  0
 37 38  2  0
 38 39  1  0
 39 43  1  0
 40 39  2  0
 41 40  1  0
 42 41  1  0
 44 45  1  0
 45 48  1  0
 45 47  1  0
 46 44  2  0
 49 24  1  0
 49 50  1  0
 51 49  1  0
 52 53  1  0
 54 52  1  0
 54 53  1  0
 54  1  1  0
 55 56  1  0
 55  2  1  0
 57 68  2  0
 58 56  1  0
 58 63  1  0
 59 67  1  0
 59 69  1  0
 60 66  1  0
 60 62  1  0
 61 67  1  0
 62 61  1  0
 63 62  2  0
 64 65  1  0
 64 58  2  0
 65 60  2  0
 66 59  1  0
 67 57  1  0
 69 71  2  0
 70 69  1  0
 72 70  1  0
 73 82  2  0
 73 78  1  0
 74 70  1  0
 74 78  1  0
 75 74  1  0
 76 77  1  0
 76 75  1  0
 77 73  1  0
 78 79  2  0
 79 80  1  0
 81 80  2  0
 82 81  1  0
 83 57  1  0
 83 84  1  0
 83 93  1  0
 84 87  1  0
 85 89  1  0
 85 84  1  0
 86 85  2  0
 89 88  1  0
 91 89  1  0
 91 92  1  0
 91 90  1  0
 93 96  1  1
 93 94  1  0
 95 93  1  0
M  ISO  4  10 100  23 100  55 101  56 101
M  END
>  <TORSDO>  (36) 
F 18

>  <SCORE>  (36) 
-11.687

>  <name>  (36) 
35

>  <ligand_id>  (36) 
35

>  <original_smiles>  (36) 
[H]c1c([H])c([H])c2c(c1[H])C([H])([H])C([H])([H])C([H])([H])C2([H])N([H])C(=O)C1([H])N(C(=O)C([H])(N([H])C(=O)C([H])(N([H])C([H])([H])[H])C([H])([H])[H])C(C([H])([H])[H])(C([H])([H])[H])C([H])([H])[H])C([H])([H])c2c([H])c(OC([H])([H])c3c(C([H])([H])[H])c(C([H])([H])[H])c(C([H])([H])[H])c(N4C([H])([H])C([H])([H])N(C(=O)N5C([H])([H])C([H])([H])C([H])([H])C([H])(n6nc(-c7c([H])c([H])c(Oc8c([H])c([H])c(F)c([H])c8F)c([H])c7[H])c(C(=O)N([H])[H])c6N([H])[H])C5([H])[H])C([H])([H])C4([H])[H])c3C3([H])C([H])([H])C3([H])[H])c([H])c([H])c2C1([H])[H]

>  <smiles>  (36) 
[H]c1c([H])c([H])c2c(c1[H])C([H])([H])C([H])([H])C([H])([H])C2([H])N([H])C(=O)C1([H])N(C(=O)C([H])(N([H])C(=O)C([H])(N([H])C([H])([H])[H])C([H])([H])[H])C(C([H])([H])[H])(C([H])([H])[H])C([H])([H])[H])C([H])([H])c2c([H])c(OC([H])([H])c3c(C([H])([H])[H])c(C([H])([H])[H])c(C([H])([H])[H])c(N4C([H])([H])C([H])([H])N(C(=O)N5C([H])([H])C([H])([H])C([H])([H])C([H])(n6nc(-c7c([H])c([H])c(Oc8c([H])c([H])c(F)c([H])c8F)c([H])c7[H])c(C(=O)N([H])[H])c6N([H])[H])C5([H])[H])C([H])([H])C4([H])[H])c3C3([H])C([H])([H])C3([H])[H])c([H])c([H])c2C1([H])[H]

$$$$
36:0:0
     RDKit          3D

 98106  0  0  1  0  0  0  0  0999 V2000
  -30.0740  -17.6520   19.0270 C   0  0  0  0  0  3  0  0  0  0  0  0
  -29.0540  -16.7810   19.4870 C   0  0  0  0  0  3  0  0  0  0  0  0
  -31.3710  -17.2020   19.0960 C   0  0  0  0  0  3  0  0  0  0  0  0
  -29.3370  -15.0540   19.3020 C   0  0  0  0  0  2  0  0  0  0  0  0
  -31.5260  -15.9890   18.4480 C   0  0  0  0  0  3  0  0  0  0  0  0
  -30.3080  -15.2920   18.1930 C   0  0  0  0  0  3  0  0  0  0  0  0
  -29.7570  -18.7170   17.9710 C   0  0  0  0  0  2  0  0  0  0  0  0
  -28.2700  -18.3690   20.1230 C   0  0  0  0  0  2  0  0  0  0  0  0
  -29.4530  -20.0840   18.5370 C   0  0  0  0  0  2  0  0  0  0  0  0
  -28.9070  -12.5510   20.3600 C   0  0  0  0  0  2  0  0  0  0  0  0
  -32.9040  -15.4810   18.0630 C   0  0  0  0  0  1  0  0  0  0  0  0
  -29.7940  -15.5670   16.7730 C   0  0  0  0  0  1  0  0  0  0  0  0
  -28.3620  -20.0860   19.5360 N   0  0  2  0  0  4  0  0  0  0  0  0
  -27.5280  -20.1150   18.9650 H   0  0  0  0  0  0  0  0  0  0  0  0
  -28.3430  -21.5840   21.7010 C   0  0  0  0  0  1  0  0  0  0  0  0
  -28.4320  -21.7690   20.1990 C   0  0  0  0  0  2  0  0  0  0  0  0
  -27.8260  -23.6300   19.7660 C   0  0  0  0  0  1  0  0  0  0  0  0
  -28.1180  -25.4100   20.0510 O   0  0  0  0  0  0  0  0  0  0  0  0
  -24.7510  -31.8340   23.1600 C   0  0  0  0  0  0  0  0  0  0  0  0
  -27.2500  -26.7250   20.0370 C   0  0  0  0  0  0  0  0  0  0  0  0
  -23.5900  -30.4550   21.5020 C   0  0  0  0  0  3  0  0  0  0  0  0
  -25.0430  -28.8340   20.0530 C   0  0  0  0  0  0  0  0  0  0  0  0
  -26.1730  -30.5820   21.3910 C   0  0  0  0  0  2  0  0  0  0  0  0
  -26.2400  -29.1480   20.7060 C   0  0  0  0  0  0  0  0  0  0  0  0
  -27.3310  -28.1150   20.6740 C   0  0  0  0  0  3  0  0  0  0  0  0
  -26.0390  -26.6670   19.3200 C   0  0  0  0  0  3  0  0  0  0  0  0
  -24.9870  -27.6280   19.3410 C   0  0  0  0  0  3  0  0  0  0  0  0
  -23.8430  -29.7930   20.1150 C   0  0  0  0  0  2  0  0  0  0  0  0
  -24.8670  -30.9890   22.0750 N   0  0  0  0  0  0  0  0  0  0  0  0
  -23.6490  -32.1150   23.6640 O   0  0  0  0  0  0  0  0  0  0  0  0
  -22.8820  -29.4450   22.4440 C   0  0  0  0  0  0  0  0  0  0  0  0
  -21.5490  -29.2840   22.3280 N   0  0  0  0  0  0  0  0  0  0  0  0
  -23.5480  -28.7990   23.2570 O   0  0  0  0  0  0  0  0  0  0  0  0
  -21.0490  -29.8640   21.6660 H   0  0  0  0  0  0  0  0  0  0  0  0
  -18.1890  -28.0060   22.8140 C   0  0  0  0  0  0  0  0  0  0  0  0
  -20.7420  -28.3140   23.0830 C   0  0  0  0  0  3  0  0  0  0  0  0
  -20.8680  -26.8920   22.4870 C   0  0  0  0  0  2  0  0  0  0  0  0
  -19.7760  -26.5730   21.4620 C   0  0  0  0  0  2  0  0  0  0  0  0
  -18.3900  -26.6770   22.1060 C   0  0  0  0  0  2  0  0  0  0  0  0
  -19.2920  -28.7820   23.2590 C   0  0  0  0  0  0  0  0  0  0  0  0
  -19.0450  -30.0230   23.8860 C   0  0  0  0  0  3  0  0  0  0  0  0
  -17.7300  -30.4940   24.0590 C   0  0  0  0  0  3  0  0  0  0  0  0
  -16.6420  -29.7150   23.6270 C   0  0  0  0  0  3  0  0  0  0  0  0
  -16.8730  -28.4710   23.0120 C   0  0  0  0  0  3  0  0  0  0  0  0
  -25.9980  -32.5030   23.8140 C   0  0  0  0  0  3  0  0  0  0  0  0
  -26.5440  -31.6920   25.0570 C   0  0  1  0  0  0  0  0  0  0  0  0
  -25.4670  -31.3820   26.1230 C   0  0  0  0  0  1  0  0  0  0  0  0
  -27.1540  -30.3430   24.6100 C   0  0  0  0  0  1  0  0  0  0  0  0
  -27.6690  -32.4850   25.7570 C   0  0  0  0  0  1  0  0  0  0  0  0
  -25.6220  -33.8690   24.2370 N   0  0  0  0  0  0  0  0  0  0  0  0
  -25.9390  -34.9980   23.5860 C   0  0  0  0  0  0  0  0  0  0  0  0
  -26.6320  -34.9990   22.5660 O   0  0  0  0  0  0  0  0  0  0  0  0
  -25.0000  -33.9360   25.0270 H   0  0  0  0  0  0  0  0  0  0  0  0
  -24.1720  -36.7880   23.3490 C   0  0  0  0  0  1  0  0  0  0  0  0
  -25.4040  -36.3340   24.1500 C   0  0  0  0  0  3  0  0  0  0  0  0
  -27.4950  -37.2150   25.0970 C   0  0  0  0  0  1  0  0  0  0  0  0
  -26.4050  -37.4240   24.1500 N   0  0  0  0  0  0  0  0  0  0  0  0
  -25.9660  -38.3140   24.3620 H   0  0  0  0  0  0  0  0  0  0  0  0
  -32.3540  -17.8230   20.0760 C   0  0  0  0  0  2  0  0  0  0  0  0
  -32.0110  -17.4440   21.5720 C   0  0  0  0  0  2  0  0  0  0  0  0
  -31.4600  -15.0140   21.6630 C   0  0  0  0  0  0  0  0  0  0  0  0
  -31.2960  -12.9820   20.1360 C   0  0  0  0  0  3  0  0  0  0  0  0
  -30.2390  -12.3760   18.6140 C   0  0  0  0  0  3  0  0  0  0  0  0
  -28.3580  -12.8320   18.5140 C   0  0  0  0  0  3  0  0  0  0  0  0
  -27.5630  -13.8940   19.9650 C   0  0  0  0  0  3  0  0  0  0  0  0
  -28.7670  -14.4980   21.5180 C   0  0  0  0  0  1  0  0  0  0  0  0
  -30.5570  -14.0800   21.4130 N   0  0  0  0  0  0  0  0  0  0  0  0
  -32.6350  -14.7620   21.5120 O   0  0  0  0  0  0  0  0  0  0  0  0
  -31.0870  -16.2960   21.8230 N   0  0  0  0  0  0  0  0  0  0  0  0
  -30.1110  -16.5020   21.9770 H   0  0  0  0  0  0  0  0  0  0  0  0
  -25.3030  -14.0570   20.6860 C   0  0  0  0  0  0  0  0  0  0  0  0
  -24.2760  -13.2130   20.9000 C   0  0  0  0  0  0  0  0  0  0  0  0
  -24.7770  -11.8770   20.8500 C   0  0  0  0  0  0  0  0  0  0  0  0
  -26.3500  -13.2650   20.4240 N   0  0  0  0  0  0  0  0  0  0  0  0
  -26.0780  -11.9200   20.5660 N   0  0  0  0  0  0  0  0  0  0  0  0
  -24.0340  -10.6060   20.9710 C   0  0  0  0  0  0  0  0  0  0  0  0
  -24.3780   -9.6050   21.9080 C   0  0  0  0  0  3  0  0  0  0  0  0
  -23.5740   -8.4460   22.0470 C   0  0  0  0  0  3  0  0  0  0  0  0
  -22.4180   -8.2790   21.2480 C   0  0  0  0  0  0  0  0  0  0  0  0
  -22.1000   -9.2670   20.3020 C   0  0  0  0  0  3  0  0  0  0  0  0
  -22.8990  -10.4100   20.1630 C   0  0  0  0  0  3  0  0  0  0  0  0
  -21.5910   -7.1790   21.2840 O   0  0  0  0  0  0  0  0  0  0  0  0
  -21.4810   -6.3880   22.3980 C   0  0  0  0  0  0  0  0  0  0  0  0
  -21.0870   -6.9140   23.6480 C   0  0  0  0  0  3  0  0  0  0  0  0
  -20.9190   -6.0540   24.7520 C   0  0  0  0  0  3  0  0  0  0  0  0
  -21.1410   -4.6710   24.6090 C   0  0  0  0  0  0  0  0  0  0  0  0
  -21.5230   -4.1440   23.3620 C   0  0  0  0  0  3  0  0  0  0  0  0
  -21.6910   -5.0010   22.2600 C   0  0  0  0  0  0  0  0  0  0  0  0
  -22.0380   -4.4840   21.0560 F   0  0  0  0  0  0  0  0  0  0  0  0
  -20.9740   -3.8460   25.6680 F   0  0  0  0  0  0  0  0  0  0  0  0
  -22.8830  -13.6920   21.0310 C   0  0  0  0  0  0  0  0  0  0  0  0
  -22.0980  -13.0240   21.8570 N   0  0  0  0  0  0  0  0  0  0  0  0
  -22.5200  -14.7140   20.4500 O   0  0  0  0  0  0  0  0  0  0  0  0
  -22.4350  -12.2090   22.3490 H   0  0  0  0  0  0  0  0  0  0  0  0
  -21.1480  -13.3210   21.9990 H   0  0  0  0  0  0  0  0  0  0  0  0
  -25.4270  -15.4460   20.6450 N   0  0  0  0  0  0  0  0  0  0  0  0
  -26.3080  -15.9180   20.5180 H   0  0  0  0  0  0  0  0  0  0  0  0
  -24.6450  -16.0820   20.7630 H   0  0  0  0  0  0  0  0  0  0  0  0
  1  7  1  0
  1  3  1  0
  1  2  1  0
  2  4  1  0
  2  8  1  0
  3 59  1  0
  5 11  1  0
  5  3  1  0
  6 12  1  0
  6  5  1  0
  6  4  1  0
  7  9  1  0
  9 13  1  0
 13  8  1  0
 13 16  1  0
 13 14  1  6
 16 15  1  0
 17 18  1  0
 19 30  2  0
 20 18  1  0
 20 25  1  0
 21 29  1  0
 21 31  1  0
 22 28  1  0
 22 24  1  0
 23 29  1  0
 24 23  1  0
 25 24  2  0
 26 27  1  0
 26 20  2  0
 27 22  2  0
 28 21  1  0
 29 19  1  0
 31 33  2  0
 32 31  1  0
 34 32  1  0
 35 44  2  0
 35 40  1  0
 36 32  1  0
 36 40  1  0
 37 36  1  0
 38 39  1  0
 38 37  1  0
 39 35  1  0
 40 41  2  0
 41 42  1  0
 43 42  2  0
 44 43  1  0
 45 19  1  0
 45 50  1  0
 45 46  1  0
 46 49  1  1
 46 47  1  0
 48 46  1  0
 50 53  1  0
 51 55  1  0
 51 50  1  0
 52 51  2  0
 55 54  1  0
 57 55  1  0
 57 58  1  0
 57 56  1  0
 59 60  1  0
 60 69  1  0
 61 69  1  0
 62 67  1  0
 63 62  2  0
 64 63  1  0
 64 65  1  0
 64 10  1  0
 65 10  1  0
 65 74  1  0
 67 66  1  0
 67 61  1  0
 68 61  2  0
 69 70  1  0
 71 72  2  0
 72 91  1  0
 73 72  1  0
 73 76  1  0
 74 75  1  0
 74 71  1  0
 75 73  2  0
 76 77  1  0
 77 78  2  0
 79 82  1  0
 79 78  1  0
 80 79  2  0
 81 80  1  0
 81 76  2  0
 82 83  1  0
 83 84  1  0
 84 85  2  0
 86 85  1  0
 86 90  1  0
 87 86  2  0
 88 83  2  0
 88 87  1  0
 89 88  1  0
 91 92  1  0
 92 95  1  0
 92 94  1  0
 93 91  2  0
 96 71  1  0
 96 98  1  0
 97 96  1  0
M  ISO  4  17 101  18 101  61 100  69 100
M  END
>  <TORSDO>  (37) 
F 20

>  <SCORE>  (37) 
-8.989

>  <name>  (37) 
36

>  <ligand_id>  (37) 
36

>  <original_smiles>  (37) 
[H]c1c([H])c([H])c2c(c1[H])C([H])([H])C([H])([H])C([H])([H])C2([H])N([H])C(=O)C1([H])N(C(=O)C([H])(N([H])C(=O)C([H])(N([H])C([H])([H])[H])C([H])([H])[H])C(C([H])([H])[H])(C([H])([H])[H])C([H])([H])[H])C([H])([H])c2c([H])c(OC([H])([H])C([H])(C([H])([H])[H])[N+]3([H])C([H])([H])c4c(C([H])([H])[H])c(C([H])([H])[H])c(C([H])([H])[H])c(C([H])([H])C([H])([H])N([H])C(=O)N5C([H])([H])C([H])([H])C([H])([H])C([H])(n6nc(-c7c([H])c([H])c(Oc8c([H])c([H])c(F)c([H])c8F)c([H])c7[H])c(C(=O)N([H])[H])c6N([H])[H])C5([H])[H])c4C([H])([H])C3([H])[H])c([H])c([H])c2C1([H])[H]

>  <smiles>  (37) 
[H]c1c([H])c([H])c2c(c1[H])C([H])([H])C([H])([H])C([H])([H])C2([H])N([H])C(=O)C1([H])N(C(=O)C([H])(N([H])C(=O)C([H])(N([H])C([H])([H])[H])C([H])([H])[H])C(C([H])([H])[H])(C([H])([H])[H])C([H])([H])[H])C([H])([H])c2c([H])c(OC([H])([H])C([H])(C([H])([H])[H])[N+]3([H])C([H])([H])c4c(C([H])([H])[H])c(C([H])([H])[H])c(C([H])([H])[H])c(C([H])([H])C([H])([H])N([H])C(=O)N5C([H])([H])C([H])([H])C([H])([H])C([H])(n6nc(-c7c([H])c([H])c(Oc8c([H])c([H])c(F)c([H])c8F)c([H])c7[H])c(C(=O)N([H])[H])c6N([H])[H])C5([H])[H])c4C([H])([H])C3([H])[H])c([H])c([H])c2C1([H])[H]

$$$$
37:0:0
     RDKit          3D

 95105  0  0  1  0  0  0  0  0999 V2000
  -30.2770  -22.6480   18.1620 C   0  0  0  0  0  3  0  0  0  0  0  0
  -30.1770  -21.3090   18.6100 C   0  0  0  0  0  0  0  0  0  0  0  0
  -29.4390  -20.9990   19.8010 C   0  0  0  0  0  0  0  0  0  0  0  0
  -29.6430  -23.7490   18.7650 C   0  0  0  0  0  0  0  0  0  0  0  0
  -28.8040  -22.1840   20.4390 C   0  0  0  0  0  0  0  0  0  0  0  0
  -28.8810  -23.5830   19.9420 C   0  0  0  0  0  0  0  0  0  0  0  0
  -29.7990  -25.1000   18.0840 C   0  0  0  0  0  1  0  0  0  0  0  0
  -27.9990  -21.9230   21.7030 C   0  0  0  0  0  1  0  0  0  0  0  0
  -30.6860  -14.9490   20.3660 C   0  0  0  0  0  0  0  0  0  0  0  0
  -30.4840  -12.6340   19.3920 C   0  0  0  0  0  2  0  0  0  0  0  0
  -29.5530  -12.6120   18.1620 C   0  0  0  0  0  2  0  0  0  0  0  0
  -28.0920  -12.4040   18.6000 C   0  0  0  0  0  2  0  0  0  0  0  0
  -27.6870  -13.3220   19.7820 C   0  0  0  0  0  3  0  0  0  0  0  0
  -28.7470  -13.3540   20.9040 C   0  0  0  0  0  2  0  0  0  0  0  0
  -30.0200  -13.7340   20.2790 N   0  0  0  0  0  0  0  0  0  0  0  0
  -31.9010  -14.9460   20.1430 O   0  0  0  0  0  0  0  0  0  0  0  0
  -28.9490  -18.2740   19.3570 C   0  0  0  0  0  2  0  0  0  0  0  0
  -30.6310  -18.7930   21.0000 C   0  0  0  0  0  2  0  0  0  0  0  0
  -28.8550  -16.7640   19.8850 C   0  0  0  0  0  2  0  0  0  0  0  0
  -30.5670  -17.2690   21.5060 C   0  0  0  0  0  2  0  0  0  0  0  0
  -29.3510  -19.4380   20.3480 C   0  0  0  0  0  3  0  0  0  0  0  0
  -30.0270  -16.1840   20.6120 N   0  0  0  0  0  0  0  0  0  0  0  0
  -25.3120  -13.9040   20.5260 C   0  0  0  0  0  0  0  0  0  0  0  0
  -24.2480  -13.1260   20.8910 C   0  0  0  0  0  0  0  0  0  0  0  0
  -24.7140  -11.7760   20.8520 C   0  0  0  0  0  0  0  0  0  0  0  0
  -26.3540  -13.0250   20.2830 N   0  0  0  0  0  0  0  0  0  0  0  0
  -26.0050  -11.7420   20.5460 N   0  0  0  0  0  0  0  0  0  0  0  0
  -23.9900  -10.5130   21.0300 C   0  0  0  0  0  0  0  0  0  0  0  0
  -24.4010   -9.5520   21.9810 C   0  0  0  0  0  3  0  0  0  0  0  0
  -23.6740   -8.3540   22.1470 C   0  0  0  0  0  3  0  0  0  0  0  0
  -22.5230   -8.1080   21.3610 C   0  0  0  0  0  0  0  0  0  0  0  0
  -22.1320   -9.0560   20.3990 C   0  0  0  0  0  3  0  0  0  0  0  0
  -22.8600  -10.2460   20.2310 C   0  0  0  0  0  3  0  0  0  0  0  0
  -21.7710   -6.9610   21.4370 O   0  0  0  0  0  0  0  0  0  0  0  0
  -21.6710   -6.2410   22.6010 C   0  0  0  0  0  0  0  0  0  0  0  0
  -21.1530   -6.8080   23.7850 C   0  0  0  0  0  3  0  0  0  0  0  0
  -21.0030   -6.0120   24.9400 C   0  0  0  0  0  3  0  0  0  0  0  0
  -21.3620   -4.6520   24.9080 C   0  0  0  0  0  0  0  0  0  0  0  0
  -21.8730   -4.0840   23.7280 C   0  0  0  0  0  3  0  0  0  0  0  0
  -22.0230   -4.8760   22.5770 C   0  0  0  0  0  0  0  0  0  0  0  0
  -22.4970   -4.3190   21.4350 F   0  0  0  0  0  0  0  0  0  0  0  0
  -21.2110   -3.8850   26.0140 F   0  0  0  0  0  0  0  0  0  0  0  0
  -22.8490  -13.6010   21.1590 C   0  0  0  0  0  0  0  0  0  0  0  0
  -22.1170  -12.8960   22.0130 N   0  0  0  0  0  0  0  0  0  0  0  0
  -22.4160  -14.6320   20.6470 O   0  0  0  0  0  0  0  0  0  0  0  0
  -22.4790  -12.0610   22.4480 H   0  0  0  0  0  0  0  0  0  0  0  0
  -21.1770  -13.1960   22.2350 H   0  0  0  0  0  0  0  0  0  0  0  0
  -25.4710  -15.2750   20.3550 N   0  0  0  0  0  0  0  0  0  0  0  0
  -24.7010  -15.9250   20.4690 H   0  0  0  0  0  0  0  0  0  0  0  0
  -26.3160  -15.7160   20.0190 H   0  0  0  0  0  0  0  0  0  0  0  0
  -31.3530  -20.5490   16.3220 C   0  0  0  0  0  2  0  0  0  0  0  0
  -30.2150  -19.6080   16.5770 C   0  0  0  0  0  2  0  0  0  0  0  0
  -30.8970  -20.2820   17.7550 C   0  0  0  0  0  3  0  0  0  0  0  0
  -28.1310  -24.8840   20.5860 C   0  0  0  0  0  2  0  0  0  0  0  0
  -28.3780  -26.3480   20.1960 O   0  0  0  0  0  0  0  0  0  0  0  0
  -24.6800  -31.9000   23.2370 C   0  0  0  0  0  0  0  0  0  0  0  0
  -27.2970  -27.2770   20.1820 C   0  0  0  0  0  0  0  0  0  0  0  0
  -23.4870  -30.4990   21.5940 C   0  0  0  0  0  3  0  0  0  0  0  0
  -24.9460  -28.9490   20.1640 C   0  0  0  0  0  0  0  0  0  0  0  0
  -26.0340  -30.8060   21.4200 C   0  0  0  0  0  2  0  0  0  0  0  0
  -26.1200  -29.4220   20.7670 C   0  0  0  0  0  0  0  0  0  0  0  0
  -27.3010  -28.6010   20.7590 C   0  0  0  0  0  3  0  0  0  0  0  0
  -26.1040  -26.8910   19.5390 C   0  0  0  0  0  3  0  0  0  0  0  0
  -24.9460  -27.6950   19.5360 C   0  0  0  0  0  3  0  0  0  0  0  0
  -23.7110  -29.8300   20.2130 C   0  0  0  0  0  2  0  0  0  0  0  0
  -24.7530  -31.0890   22.1390 N   0  0  0  0  0  0  0  0  0  0  0  0
  -23.5930  -32.1720   23.7680 O   0  0  0  0  0  0  0  0  0  0  0  0
  -22.8240  -29.4790   22.5510 C   0  0  0  0  0  0  0  0  0  0  0  0
  -21.4980  -29.2940   22.4240 N   0  0  0  0  0  0  0  0  0  0  0  0
  -23.5040  -28.8570   23.3720 O   0  0  0  0  0  0  0  0  0  0  0  0
  -21.0060  -29.8510   21.7400 H   0  0  0  0  0  0  0  0  0  0  0  0
  -18.1270  -28.0760   22.9350 C   0  0  0  0  0  0  0  0  0  0  0  0
  -20.6860  -28.3490   23.1930 C   0  0  0  0  0  3  0  0  0  0  0  0
  -20.7900  -26.9190   22.6100 C   0  0  0  0  0  2  0  0  0  0  0  0
  -19.6850  -26.5980   21.5990 C   0  0  0  0  0  2  0  0  0  0  0  0
  -18.3060  -26.7320   22.2500 C   0  0  0  0  0  2  0  0  0  0  0  0
  -19.2440  -28.8420   23.3630 C   0  0  0  0  0  0  0  0  0  0  0  0
  -19.0210  -30.1000   23.9640 C   0  0  0  0  0  3  0  0  0  0  0  0
  -17.7150  -30.5920   24.1420 C   0  0  0  0  0  3  0  0  0  0  0  0
  -16.6120  -29.8250   23.7280 C   0  0  0  0  0  3  0  0  0  0  0  0
  -16.8200  -28.5690   23.1310 C   0  0  0  0  0  3  0  0  0  0  0  0
  -25.9560  -32.5430   23.8610 C   0  0  0  0  0  3  0  0  0  0  0  0
  -25.6360  -33.9410   24.1870 N   0  0  0  0  0  0  0  0  0  0  0  0
  -25.9560  -34.9950   23.4250 C   0  0  0  0  0  0  0  0  0  0  0  0
  -26.6200  -34.8940   22.3910 O   0  0  0  0  0  0  0  0  0  0  0  0
  -25.0430  -34.0920   24.9910 H   0  0  0  0  0  0  0  0  0  0  0  0
  -24.2150  -36.7810   23.0810 C   0  0  0  0  0  1  0  0  0  0  0  0
  -25.4640  -36.3820   23.8850 C   0  0  0  0  0  3  0  0  0  0  0  0
  -27.5950  -37.2850   24.7080 C   0  0  0  0  0  1  0  0  0  0  0  0
  -26.4890  -37.4420   23.7660 N   0  0  0  0  0  0  0  0  0  0  0  0
  -26.0760  -38.3580   23.9140 H   0  0  0  0  0  0  0  0  0  0  0  0
  -26.4710  -31.7810   25.1450 C   0  0  1  0  0  0  0  0  0  0  0  0
  -25.3730  -31.5410   26.2080 C   0  0  0  0  0  1  0  0  0  0  0  0
  -27.0660  -30.4050   24.7660 C   0  0  0  0  0  1  0  0  0  0  0  0
  -27.6110  -32.5870   25.8070 C   0  0  0  0  0  1  0  0  0  0  0  0
  1  2  2  0
  1  4  1  0
  2  3  1  0
  3  5  2  0
  4  6  2  0
  5  8  1  0
  6  5  1  0
  6 54  1  0
  7  4  1  0
  9 22  1  0
 10 15  1  0
 11 12  1  0
 11 10  1  0
 13 12  1  0
 13 26  1  0
 13 14  1  0
 15  9  1  0
 15 14  1  0
 16  9  2  0
 17 19  1  0
 17 21  1  0
 18 20  1  0
 19 22  1  0
 21  3  1  0
 21 18  1  0
 22 20  1  0
 23 24  2  0
 24 43  1  0
 25 24  1  0
 25 28  1  0
 26 23  1  0
 26 27  1  0
 27 25  2  0
 28 29  1  0
 29 30  2  0
 31 34  1  0
 31 30  1  0
 32 31  2  0
 33 32  1  0
 33 28  2  0
 34 35  1  0
 35 36  1  0
 36 37  2  0
 38 37  1  0
 38 42  1  0
 39 38  2  0
 40 35  2  0
 40 39  1  0
 41 40  1  0
 43 44  1  0
 44 47  1  0
 44 46  1  0
 45 43  2  0
 48 49  1  0
 48 23  1  0
 50 48  1  0
 51 52  1  0
 51 53  1  0
 52 53  1  0
 53  2  1  0
 55 54  1  0
 56 67  2  0
 57 55  1  0
 57 62  1  0
 58 66  1  0
 58 68  1  0
 59 65  1  0
 59 61  1  0
 60 66  1  0
 61 60  1  0
 62 61  2  0
 63 57  2  0
 64 63  1  0
 64 59  2  0
 65 58  1  0
 66 56  1  0
 68 70  2  0
 69 68  1  0
 71 69  1  0
 72 81  2  0
 72 77  1  0
 73 69  1  0
 73 77  1  0
 74 73  1  0
 75 76  1  0
 75 74  1  0
 76 72  1  0
 77 78  2  0
 78 79  1  0
 80 79  2  0
 81 80  1  0
 82 56  1  0
 82 83  1  0
 82 92  1  0
 83 86  1  0
 84 88  1  0
 84 83  1  0
 85 84  2  0
 88 87  1  0
 90 88  1  0
 90 91  1  0
 90 89  1  0
 92 95  1  1
 92 93  1  0
 94 92  1  0
M  ISO  4   9 100  22 100  54 101  55 101
M  END
>  <TORSDO>  (38) 
F 18

>  <SCORE>  (38) 
-14.980

>  <name>  (38) 
37

>  <ligand_id>  (38) 
37

>  <original_smiles>  (38) 
[H]c1c([H])c([H])c2c(c1[H])C([H])([H])C([H])([H])C([H])([H])C2([H])N([H])C(=O)C1([H])N(C(=O)C([H])(N([H])C(=O)C([H])(N([H])C([H])([H])[H])C([H])([H])[H])C(C([H])([H])[H])(C([H])([H])[H])C([H])([H])[H])C([H])([H])c2c([H])c(OC([H])([H])c3c(C([H])([H])[H])c([H])c(C4([H])C([H])([H])C4([H])[H])c(C4([H])C([H])([H])C([H])([H])N(C(=O)N5C([H])([H])C([H])([H])C([H])([H])C([H])(n6nc(-c7c([H])c([H])c(Oc8c([H])c([H])c(F)c([H])c8F)c([H])c7[H])c(C(=O)N([H])[H])c6N([H])[H])C5([H])[H])C([H])([H])C4([H])[H])c3C([H])([H])[H])c([H])c([H])c2C1([H])[H]

>  <smiles>  (38) 
[H]c1c([H])c([H])c2c(c1[H])C([H])([H])C([H])([H])C([H])([H])C2([H])N([H])C(=O)C1([H])N(C(=O)C([H])(N([H])C(=O)C([H])(N([H])C([H])([H])[H])C([H])([H])[H])C(C([H])([H])[H])(C([H])([H])[H])C([H])([H])[H])C([H])([H])c2c([H])c(OC([H])([H])c3c(C([H])([H])[H])c([H])c(C4([H])C([H])([H])C4([H])[H])c(C4([H])C([H])([H])C([H])([H])N(C(=O)N5C([H])([H])C([H])([H])C([H])([H])C([H])(n6nc(-c7c([H])c([H])c(Oc8c([H])c([H])c(F)c([H])c8F)c([H])c7[H])c(C(=O)N([H])[H])c6N([H])[H])C5([H])[H])C([H])([H])C4([H])[H])c3C([H])([H])[H])c([H])c([H])c2C1([H])[H]

$$$$
38:0:0
     RDKit          3D

100110  0  0  1  0  0  0  0  0999 V2000
  -31.7310  -19.9830   21.2450 C   0  0  0  0  0  0  0  0  0  0  0  0
  -31.3400  -17.8750   19.9580 C   0  0  0  0  0  0  0  0  0  0  0  0
  -33.1420  -19.8030   21.0870 C   0  0  0  0  0  0  0  0  0  0  0  0
  -32.7450  -17.7960   19.6950 C   0  0  0  0  0  0  0  0  0  0  0  0
  -33.6260  -18.7790   20.2270 C   0  0  0  0  0  0  0  0  0  0  0  0
  -30.8540  -19.0420   20.6390 C   0  0  0  0  0  0  0  0  0  0  0  0
  -29.1830  -20.7020   20.2690 C   0  0  0  0  0  2  0  0  0  0  0  0
  -30.9900  -21.1650   21.9490 C   0  0  0  0  0  3  0  0  0  0  0  0
  -30.0170  -21.8240   20.9270 C   0  0  0  0  0  3  0  0  0  0  0  0
  -34.1700  -20.6930   21.7820 C   0  0  0  0  0  1  0  0  0  0  0  0
  -33.3640  -16.6900   18.8050 C   0  0  0  0  0  1  0  0  0  0  0  0
  -35.1070  -18.7450   19.8010 C   0  0  0  0  0  1  0  0  0  0  0  0
  -31.8020  -22.2180   22.7320 C   0  0  0  0  0  1  0  0  0  0  0  0
  -29.5100  -19.3540   20.6830 O   0  0  0  0  0  0  0  0  0  0  0  0
  -30.5900  -14.5020   20.4300 C   0  0  0  0  0  0  0  0  0  0  0  0
  -30.3180  -12.3280   19.2860 C   0  0  0  0  0  2  0  0  0  0  0  0
  -29.3570  -12.4360   18.0870 C   0  0  0  0  0  2  0  0  0  0  0  0
  -27.8930  -12.2500   18.5360 C   0  0  0  0  0  2  0  0  0  0  0  0
  -27.5470  -13.1080   19.7810 C   0  0  0  0  0  3  0  0  0  0  0  0
  -28.6160  -12.9340   20.8800 C   0  0  0  0  0  2  0  0  0  0  0  0
  -29.8900  -13.3360   20.2780 N   0  0  0  0  0  0  0  0  0  0  0  0
  -31.7920  -14.5030   20.1830 O   0  0  0  0  0  0  0  0  0  0  0  0
  -27.9770  -16.9450   19.6630 C   0  0  0  0  0  2  0  0  0  0  0  0
  -29.1170  -17.2550   18.6930 C   0  0  0  0  0  2  0  0  0  0  0  0
  -28.6130  -16.1550   20.8220 C   0  0  0  0  0  2  0  0  0  0  0  0
  -30.3890  -16.7650   19.4020 C   0  0  0  0  0  3  0  0  0  0  0  0
  -29.9210  -15.7020   20.3260 N   0  0  0  0  0  0  0  0  0  0  0  0
  -25.1690  -13.7100   20.5420 C   0  0  0  0  0  0  0  0  0  0  0  0
  -24.1120  -12.9360   20.9140 C   0  0  0  0  0  0  0  0  0  0  0  0
  -24.5770  -11.5820   20.8570 C   0  0  0  0  0  0  0  0  0  0  0  0
  -26.2110  -12.8330   20.2830 N   0  0  0  0  0  0  0  0  0  0  0  0
  -25.8600  -11.5470   20.5290 N   0  0  0  0  0  0  0  0  0  0  0  0
  -23.8570  -10.3180   21.0360 C   0  0  0  0  0  0  0  0  0  0  0  0
  -24.2870   -9.3480   21.9720 C   0  0  0  0  0  3  0  0  0  0  0  0
  -23.5680   -8.1460   22.1350 C   0  0  0  0  0  3  0  0  0  0  0  0
  -22.4070   -7.9090   21.3640 C   0  0  0  0  0  0  0  0  0  0  0  0
  -21.9940   -8.8650   20.4180 C   0  0  0  0  0  3  0  0  0  0  0  0
  -22.7120  -10.0590   20.2540 C   0  0  0  0  0  3  0  0  0  0  0  0
  -21.6600   -6.7610   21.4390 O   0  0  0  0  0  0  0  0  0  0  0  0
  -21.5800   -6.0300   22.5970 C   0  0  0  0  0  0  0  0  0  0  0  0
  -21.0770   -6.5840   23.7940 C   0  0  0  0  0  3  0  0  0  0  0  0
  -20.9510   -5.7790   24.9440 C   0  0  0  0  0  3  0  0  0  0  0  0
  -21.3210   -4.4210   24.8930 C   0  0  0  0  0  0  0  0  0  0  0  0
  -21.8190   -3.8670   23.7010 C   0  0  0  0  0  3  0  0  0  0  0  0
  -21.9470   -4.6710   22.5520 C   0  0  0  0  0  0  0  0  0  0  0  0
  -22.4090   -4.1300   21.4000 F   0  0  0  0  0  0  0  0  0  0  0  0
  -21.1920   -3.6430   25.9920 F   0  0  0  0  0  0  0  0  0  0  0  0
  -22.7190  -13.4060   21.2080 C   0  0  0  0  0  0  0  0  0  0  0  0
  -22.0040  -12.7080   22.0790 N   0  0  0  0  0  0  0  0  0  0  0  0
  -22.2710  -14.4360   20.6990 O   0  0  0  0  0  0  0  0  0  0  0  0
  -22.3750  -11.8750   22.5120 H   0  0  0  0  0  0  0  0  0  0  0  0
  -21.0730  -13.0150   22.3170 H   0  0  0  0  0  0  0  0  0  0  0  0
  -25.3230  -15.0810   20.3820 N   0  0  0  0  0  0  0  0  0  0  0  0
  -24.5470  -15.7240   20.4950 H   0  0  0  0  0  0  0  0  0  0  0  0
  -26.1790  -15.5350   20.0900 H   0  0  0  0  0  0  0  0  0  0  0  0
  -29.0900  -22.9940   21.4360 C   0  0  0  0  0  2  0  0  0  0  0  0
  -27.6780  -23.6440   19.3150 C   0  0  0  0  0  1  0  0  0  0  0  0
  -28.6950  -24.0980   20.3980 C   0  0  0  0  0  3  0  0  0  0  0  0
  -28.1760  -25.3730   21.1280 C   0  0  0  0  0  2  0  0  0  0  0  0
  -28.3250  -26.5930   20.3800 O   0  0  0  0  0  0  0  0  0  0  0  0
  -24.5310  -31.9000   23.2540 C   0  0  0  0  0  0  0  0  0  0  0  0
  -27.1890  -27.3730   20.3310 C   0  0  0  0  0  0  0  0  0  0  0  0
  -23.3430  -30.4700   21.6180 C   0  0  0  0  0  3  0  0  0  0  0  0
  -24.8150  -28.9030   20.2400 C   0  0  0  0  0  0  0  0  0  0  0  0
  -25.8670  -30.8300   21.4310 C   0  0  0  0  0  2  0  0  0  0  0  0
  -25.9640  -29.4340   20.8450 C   0  0  0  0  0  0  0  0  0  0  0  0
  -27.1570  -28.6760   20.8880 C   0  0  0  0  0  3  0  0  0  0  0  0
  -26.0330  -26.8660   19.7050 C   0  0  0  0  0  3  0  0  0  0  0  0
  -24.8460  -27.6240   19.6610 C   0  0  0  0  0  3  0  0  0  0  0  0
  -23.5690  -29.7610   20.2550 C   0  0  0  0  0  2  0  0  0  0  0  0
  -24.6000  -31.0820   22.1640 N   0  0  0  0  0  0  0  0  0  0  0  0
  -23.4420  -32.1820   23.7730 O   0  0  0  0  0  0  0  0  0  0  0  0
  -22.6740  -29.4700   22.5880 C   0  0  0  0  0  0  0  0  0  0  0  0
  -21.3540  -29.2780   22.4250 N   0  0  0  0  0  0  0  0  0  0  0  0
  -23.3380  -28.8690   23.4360 O   0  0  0  0  0  0  0  0  0  0  0  0
  -20.8810  -29.8140   21.7130 H   0  0  0  0  0  0  0  0  0  0  0  0
  -17.9700  -28.0950   22.8530 C   0  0  0  0  0  0  0  0  0  0  0  0
  -20.5190  -28.3560   23.1900 C   0  0  0  0  0  3  0  0  0  0  0  0
  -20.6390  -26.9160   22.6400 C   0  0  0  0  0  2  0  0  0  0  0  0
  -19.5640  -26.5750   21.6040 C   0  0  0  0  0  2  0  0  0  0  0  0
  -18.1650  -26.7320   22.2090 C   0  0  0  0  0  2  0  0  0  0  0  0
  -19.0790  -28.8640   23.3000 C   0  0  0  0  0  0  0  0  0  0  0  0
  -18.8460  -30.1390   23.8610 C   0  0  0  0  0  3  0  0  0  0  0  0
  -17.5400  -30.6460   23.9820 C   0  0  0  0  0  3  0  0  0  0  0  0
  -16.4450  -29.8760   23.5510 C   0  0  0  0  0  3  0  0  0  0  0  0
  -16.6610  -28.6030   22.9950 C   0  0  0  0  0  3  0  0  0  0  0  0
  -25.8050  -32.5370   23.8890 C   0  0  0  0  0  3  0  0  0  0  0  0
  -26.2990  -31.7810   25.1840 C   0  0  1  0  0  0  0  0  0  0  0  0
  -25.1820  -31.5520   26.2320 C   0  0  0  0  0  1  0  0  0  0  0  0
  -26.8820  -30.4000   24.8020 C   0  0  0  0  0  1  0  0  0  0  0  0
  -27.4390  -32.5740   25.8580 C   0  0  0  0  0  1  0  0  0  0  0  0
  -25.4990  -33.9430   24.1900 N   0  0  0  0  0  0  0  0  0  0  0  0
  -25.8660  -34.9800   23.4260 C   0  0  0  0  0  0  0  0  0  0  0  0
  -26.5700  -34.8530   22.4190 O   0  0  0  0  0  0  0  0  0  0  0  0
  -24.8800  -34.1140   24.9710 H   0  0  0  0  0  0  0  0  0  0  0  0
  -24.1850  -36.7930   22.9570 C   0  0  0  0  0  1  0  0  0  0  0  0
  -25.3740  -36.3800   23.8420 C   0  0  0  0  0  3  0  0  0  0  0  0
  -27.4710  -37.2490   24.7860 C   0  0  0  0  0  1  0  0  0  0  0  0
  -26.4280  -37.4170   23.7760 N   0  0  0  0  0  0  0  0  0  0  0  0
  -26.0300  -38.3470   23.8820 H   0  0  0  0  0  0  0  0  0  0  0  0
  1  8  1  0
  2  6  1  0
  3  1  1  0
  3 10  1  0
  4  2  2  0
  4  5  1  0
  5  3  2  0
  6 14  1  0
  6  1  2  0
  7 14  1  0
  7  9  1  0
  8 13  1  0
  9 56  1  0
  9  8  1  0
 11  4  1  0
 12  5  1  0
 16 21  1  0
 17 18  1  0
 17 16  1  0
 19 18  1  0
 19 31  1  0
 19 20  1  0
 21 15  1  0
 21 20  1  0
 22 15  2  0
 23 25  1  0
 24 26  1  0
 24 23  1  0
 26  2  1  0
 26 27  1  0
 27 15  1  0
 27 25  1  0
 28 29  2  0
 29 48  1  0
 30 29  1  0
 30 33  1  0
 31 32  1  0
 31 28  1  0
 32 30  2  0
 33 34  1  0
 34 35  2  0
 36 39  1  0
 36 35  1  0
 37 36  2  0
 38 37  1  0
 38 33  2  0
 39 40  1  0
 40 41  1  0
 41 42  2  0
 43 42  1  0
 43 47  1  0
 44 43  2  0
 45 40  2  0
 45 44  1  0
 46 45  1  0
 48 49  1  0
 49 52  1  0
 49 51  1  0
 50 48  2  0
 53 54  1  0
 53 28  1  0
 55 53  1  0
 58 57  1  0
 58 59  1  0
 58 56  1  0
 60 59  1  0
 61 72  2  0
 62 60  1  0
 62 67  1  0
 63 71  1  0
 63 73  1  0
 64 70  1  0
 64 66  1  0
 65 71  1  0
 66 67  2  0
 66 65  1  0
 68 62  2  0
 69 68  1  0
 69 64  2  0
 70 63  1  0
 71 61  1  0
 73 75  2  0
 74 73  1  0
 76 74  1  0
 77 86  2  0
 77 82  1  0
 78 74  1  0
 78 82  1  0
 79 78  1  0
 80 81  1  0
 80 79  1  0
 81 77  1  0
 82 83  2  0
 83 84  1  0
 85 84  2  0
 86 85  1  0
 87 61  1  0
 87 92  1  0
 87 88  1  0
 88 91  1  1
 88 89  1  0
 90 88  1  0
 92 95  1  0
 93 97  1  0
 93 92  1  0
 94 93  2  0
 97 96  1  0
 99 97  1  0
 99100  1  0
 99 98  1  0
M  ISO  4  15 100  27 100  59 101  60 101
M  END
>  <TORSDO>  (39) 
F 19

>  <SCORE>  (39) 
-14.364

>  <name>  (39) 
38

>  <ligand_id>  (39) 
38

>  <original_smiles>  (39) 
[H]c1c([H])c([H])c2c(c1[H])C([H])([H])C([H])([H])C([H])([H])C2([H])N([H])C(=O)C1([H])N(C(=O)C([H])(N([H])C(=O)C([H])(N([H])C([H])([H])[H])C([H])([H])[H])C(C([H])([H])[H])(C([H])([H])[H])C([H])([H])[H])C([H])([H])c2c([H])c(OC([H])([H])C([H])(C([H])([H])[H])C([H])([H])C3([H])C([H])([H])Oc4c(C5([H])N(C(=O)N6C([H])([H])C([H])([H])C([H])([H])C([H])(n7nc(-c8c([H])c([H])c(Oc9c([H])c([H])c(F)c([H])c9F)c([H])c8[H])c(C(=O)N([H])[H])c7N([H])[H])C6([H])[H])C([H])([H])C([H])([H])C5([H])[H])c(C([H])([H])[H])c(C([H])([H])[H])c(C([H])([H])[H])c4C3([H])C([H])([H])[H])c([H])c([H])c2C1([H])[H]

>  <smiles>  (39) 
[H]c1c([H])c([H])c2c(c1[H])C([H])([H])C([H])([H])C([H])([H])C2([H])N([H])C(=O)C1([H])N(C(=O)C([H])(N([H])C(=O)C([H])(N([H])C([H])([H])[H])C([H])([H])[H])C(C([H])([H])[H])(C([H])([H])[H])C([H])([H])[H])C([H])([H])c2c([H])c(OC([H])([H])C([H])(C([H])([H])[H])C([H])([H])C3([H])C([H])([H])Oc4c(C5([H])N(C(=O)N6C([H])([H])C([H])([H])C([H])([H])C([H])(n7nc(-c8c([H])c([H])c(Oc9c([H])c([H])c(F)c([H])c9F)c([H])c8[H])c(C(=O)N([H])[H])c7N([H])[H])C6([H])[H])C([H])([H])C([H])([H])C5([H])[H])c(C([H])([H])[H])c(C([H])([H])[H])c(C([H])([H])[H])c4C3([H])C([H])([H])[H])c([H])c([H])c2C1([H])[H]

$$$$
39:0:0
     RDKit          3D

102112  0  0  1  0  0  0  0  0999 V2000
  -30.1310  -21.3490   22.1810 C   0  0  0  0  0  0  0  0  0  0  0  0
  -30.6690  -22.5970   21.7830 C   0  0  0  0  0  0  0  0  0  0  0  0
  -30.8670  -20.1420   22.0100 C   0  0  0  0  0  0  0  0  0  0  0  0
  -31.9780  -22.6610   21.2270 C   0  0  0  0  0  0  0  0  0  0  0  0
  -32.1570  -20.2070   21.4110 C   0  0  0  0  0  0  0  0  0  0  0  0
  -32.7130  -21.4600   21.0400 C   0  0  0  0  0  0  0  0  0  0  0  0
  -28.7420  -21.4190   22.8150 C   0  0  0  0  0  2  0  0  0  0  0  0
  -29.7640  -23.8240   21.9950 C   0  0  0  0  0  2  0  0  0  0  0  0
  -27.7830  -22.2980   21.9880 C   0  0  0  0  0  2  0  0  0  0  0  0
  -32.6410  -23.9870   20.8440 C   0  0  0  0  0  1  0  0  0  0  0  0
  -32.9910  -18.9440   21.1630 C   0  0  0  0  0  1  0  0  0  0  0  0
  -34.1170  -21.4940   20.4240 C   0  0  0  0  0  1  0  0  0  0  0  0
  -28.3920  -23.5620   21.4840 N   0  0  1  0  0  4  0  0  0  0  0  0
  -28.5280  -23.3850   20.4990 H   0  0  0  0  0  0  0  0  0  0  0  0
  -30.3010  -18.7830   22.4520 C   0  0  0  0  0  2  0  0  0  0  0  0
  -29.5510  -16.3880   19.6540 C   0  0  0  0  0  2  0  0  0  0  0  0
  -29.6220  -17.8190   20.2210 C   0  0  0  0  0  2  0  0  0  0  0  0
  -30.4640  -16.3560   21.8770 C   0  0  0  0  0  2  0  0  0  0  0  0
  -30.4630  -15.5600   20.5720 C   0  0  0  0  0  3  0  0  0  0  0  0
  -30.5070  -17.7530   21.4070 N   0  0  2  0  0  4  0  0  0  0  0  0
  -31.4430  -17.8960   21.0610 H   0  0  0  0  0  0  0  0  0  0  0  0
  -30.5890  -13.1300   20.0910 C   0  0  0  0  0  0  0  0  0  0  0  0
  -30.3210  -10.7770   19.4220 C   0  0  0  0  0  2  0  0  0  0  0  0
  -29.3490  -10.6710   18.2320 C   0  0  0  0  0  2  0  0  0  0  0  0
  -27.8930  -10.5770   18.7250 C   0  0  0  0  0  2  0  0  0  0  0  0
  -27.5440  -11.6720   19.7680 C   0  0  0  0  0  3  0  0  0  0  0  0
  -28.6250  -11.7470   20.8690 C   0  0  0  0  0  2  0  0  0  0  0  0
  -29.9360  -11.9470   20.2240 N   0  0  0  0  0  0  0  0  0  0  0  0
  -31.6010  -13.2720   19.3990 O   0  0  0  0  0  0  0  0  0  0  0  0
  -30.0380  -14.1680   20.7320 N   0  0  0  0  0  0  0  0  0  0  0  0
  -29.2270  -13.9740   21.3000 H   0  0  0  0  0  0  0  0  0  0  0  0
  -25.2270  -12.3910   20.6330 C   0  0  0  0  0  0  0  0  0  0  0  0
  -24.1490  -11.6690   21.0690 C   0  0  0  0  0  0  0  0  0  0  0  0
  -24.5390  -10.2970   21.0000 C   0  0  0  0  0  0  0  0  0  0  0  0
  -26.2120  -11.4630   20.3310 N   0  0  0  0  0  0  0  0  0  0  0  0
  -25.8020  -10.1970   20.6040 N   0  0  0  0  0  0  0  0  0  0  0  0
  -23.7660   -9.0700   21.2320 C   0  0  0  0  0  0  0  0  0  0  0  0
  -24.1580   -8.1230   22.2040 C   0  0  0  0  0  3  0  0  0  0  0  0
  -23.3880   -6.9590   22.4210 C   0  0  0  0  0  3  0  0  0  0  0  0
  -22.2120   -6.7360   21.6660 C   0  0  0  0  0  0  0  0  0  0  0  0
  -21.8400   -7.6700   20.6840 C   0  0  0  0  0  3  0  0  0  0  0  0
  -22.6090   -8.8240   20.4650 C   0  0  0  0  0  3  0  0  0  0  0  0
  -21.4170   -5.6230   21.7910 O   0  0  0  0  0  0  0  0  0  0  0  0
  -21.3030   -4.9480   22.9810 C   0  0  0  0  0  0  0  0  0  0  0  0
  -20.7800   -5.5650   24.1380 C   0  0  0  0  0  3  0  0  0  0  0  0
  -20.6160   -4.8160   25.3200 C   0  0  0  0  0  3  0  0  0  0  0  0
  -20.9630   -3.4510   25.3460 C   0  0  0  0  0  0  0  0  0  0  0  0
  -21.4780   -2.8350   24.1920 C   0  0  0  0  0  3  0  0  0  0  0  0
  -21.6440   -3.5810   23.0110 C   0  0  0  0  0  0  0  0  0  0  0  0
  -22.1210   -2.9780   21.8960 F   0  0  0  0  0  0  0  0  0  0  0  0
  -20.7970   -2.7300   26.4780 F   0  0  0  0  0  0  0  0  0  0  0  0
  -22.7980  -12.2120   21.4410 C   0  0  0  0  0  0  0  0  0  0  0  0
  -22.0960  -11.5380   22.3450 N   0  0  0  0  0  0  0  0  0  0  0  0
  -22.3800  -13.2660   20.9640 O   0  0  0  0  0  0  0  0  0  0  0  0
  -22.4500  -10.6850   22.7510 H   0  0  0  0  0  0  0  0  0  0  0  0
  -21.1920  -11.8820   22.6370 H   0  0  0  0  0  0  0  0  0  0  0  0
  -25.4490  -13.7540   20.4520 N   0  0  0  0  0  0  0  0  0  0  0  0
  -24.7240  -14.4460   20.6090 H   0  0  0  0  0  0  0  0  0  0  0  0
  -26.2990  -14.1500   20.0720 H   0  0  0  0  0  0  0  0  0  0  0  0
  -27.4580  -24.7200   21.5680 C   0  0  0  0  0  2  0  0  0  0  0  0
  -27.9280  -25.9670   20.7860 C   0  0  0  0  0  2  0  0  0  0  0  0
  -27.0480  -26.2180   19.6930 O   0  0  0  0  0  0  0  0  0  0  0  0
  -24.4920  -31.8730   23.2210 C   0  0  0  0  0  0  0  0  0  0  0  0
  -26.0330  -27.1130   19.9130 C   0  0  0  0  0  0  0  0  0  0  0  0
  -22.8850  -30.6750   21.7680 C   0  0  0  0  0  3  0  0  0  0  0  0
  -23.8980  -28.9340   20.2040 C   0  0  0  0  0  0  0  0  0  0  0  0
  -25.3860  -30.6540   21.2450 C   0  0  0  0  0  2  0  0  0  0  0  0
  -25.1850  -29.2830   20.6380 C   0  0  0  0  0  0  0  0  0  0  0  0
  -26.2560  -28.3780   20.5000 C   0  0  0  0  0  3  0  0  0  0  0  0
  -24.7380  -26.7740   19.4710 C   0  0  0  0  0  3  0  0  0  0  0  0
  -23.6660  -27.6740   19.6240 C   0  0  0  0  0  3  0  0  0  0  0  0
  -22.8120  -29.9690   20.3870 C   0  0  0  0  0  2  0  0  0  0  0  0
  -24.2820  -31.0790   22.1340 N   0  0  0  0  0  0  0  0  0  0  0  0
  -23.5440  -32.3050   23.8920 O   0  0  0  0  0  0  0  0  0  0  0  0
  -22.2150  -29.7620   22.8200 C   0  0  0  0  0  0  0  0  0  0  0  0
  -20.8920  -29.5720   22.6880 N   0  0  0  0  0  0  0  0  0  0  0  0
  -22.8830  -29.2240   23.7060 O   0  0  0  0  0  0  0  0  0  0  0  0
  -20.4170  -30.0530   21.9390 H   0  0  0  0  0  0  0  0  0  0  0  0
  -17.5520  -28.2610   23.1000 C   0  0  0  0  0  0  0  0  0  0  0  0
  -20.0580  -28.7230   23.5360 C   0  0  0  0  0  3  0  0  0  0  0  0
  -20.2840  -27.2260   23.2210 C   0  0  0  0  0  2  0  0  0  0  0  0
  -19.2970  -26.6720   22.1880 C   0  0  0  0  0  2  0  0  0  0  0  0
  -17.8570  -26.8320   22.6810 C   0  0  0  0  0  2  0  0  0  0  0  0
  -18.5870  -29.1530   23.4860 C   0  0  0  0  0  0  0  0  0  0  0  0
  -18.2550  -30.4820   23.8310 C   0  0  0  0  0  3  0  0  0  0  0  0
  -16.9180  -30.9220   23.7960 C   0  0  0  0  0  3  0  0  0  0  0  0
  -15.8950  -30.0290   23.4300 C   0  0  0  0  0  3  0  0  0  0  0  0
  -16.2120  -28.7020   23.0880 C   0  0  0  0  0  3  0  0  0  0  0  0
  -25.9300  -32.2950   23.6620 C   0  0  0  0  0  3  0  0  0  0  0  0
  -26.5140  -31.3960   24.8210 C   0  0  1  0  0  0  0  0  0  0  0  0
  -25.5440  -31.2100   26.0110 C   0  0  0  0  0  1  0  0  0  0  0  0
  -26.8830  -29.9940   24.2860 C   0  0  0  0  0  1  0  0  0  0  0  0
  -27.8190  -32.0240   25.3630 C   0  0  0  0  0  1  0  0  0  0  0  0
  -25.8700  -33.7030   24.0740 N   0  0  0  0  0  0  0  0  0  0  0  0
  -26.2980  -34.7300   23.3280 C   0  0  0  0  0  0  0  0  0  0  0  0
  -26.8570  -34.5810   22.2380 O   0  0  0  0  0  0  0  0  0  0  0  0
  -25.3810  -33.9040   24.9330 H   0  0  0  0  0  0  0  0  0  0  0  0
  -24.8590  -36.7860   23.1750 C   0  0  0  0  0  1  0  0  0  0  0  0
  -26.0680  -36.1510   23.8790 C   0  0  0  0  0  3  0  0  0  0  0  0
  -28.3610  -36.6470   24.6010 C   0  0  0  0  0  1  0  0  0  0  0  0
  -27.2470  -37.0320   23.7400 N   0  0  0  0  0  0  0  0  0  0  0  0
  -27.0030  -37.9960   23.9510 H   0  0  0  0  0  0  0  0  0  0  0  0
  1  7  1  0
  2  8  1  0
  2  1  2  0
  3  1  1  0
  3 15  1  0
  4  2  1  0
  5  3  2  0
  6  4  2  0
  6  5  1  0
  9  7  1  0
 10  4  1  0
 11  5  1  0
 12  6  1  0
 13 60  1  0
 13  9  1  0
 13  8  1  0
 13 14  1  6
 16 17  1  0
 16 19  1  0
 17 20  1  0
 19 30  1  0
 19 18  1  0
 20 18  1  0
 20 15  1  0
 20 21  1  6
 22 28  1  0
 22 30  1  0
 23 28  1  0
 24 25  1  0
 24 23  1  0
 26 25  1  0
 26 35  1  0
 26 27  1  0
 28 27  1  0
 29 22  2  0
 30 31  1  0
 32 33  2  0
 33 52  1  0
 34 33  1  0
 34 37  1  0
 35 36  1  0
 35 32  1  0
 36 34  2  0
 37 38  1  0
 38 39  2  0
 40 43  1  0
 40 39  1  0
 41 40  2  0
 42 41  1  0
 42 37  2  0
 43 44  1  0
 44 49  2  0
 44 45  1  0
 45 46  2  0
 46 47  1  0
 47 51  1  0
 48 47  2  0
 49 48  1  0
 50 49  1  0
 52 53  1  0
 53 56  1  0
 53 55  1  0
 54 52  2  0
 57 58  1  0
 57 32  1  0
 59 57  1  0
 61 60  1  0
 62 64  1  0
 62 61  1  0
 63 74  2  0
 64 69  1  0
 65 73  1  0
 65 75  1  0
 66 72  1  0
 66 68  1  0
 67 73  1  0
 68 67  1  0
 69 68  2  0
 70 71  1  0
 70 64  2  0
 71 66  2  0
 72 65  1  0
 73 63  1  0
 75 77  2  0
 76 75  1  0
 78 76  1  0
 79 84  1  0
 80 76  1  0
 81 80  1  0
 82 83  1  0
 82 81  1  0
 83 79  1  0
 84 80  1  0
 84 85  2  0
 86 85  1  0
 87 86  2  0
 88 79  2  0
 88 87  1  0
 89 63  1  0
 89 94  1  0
 89 90  1  0
 90 93  1  1
 90 91  1  0
 92 90  1  0
 94 97  1  0
 95 99  1  0
 95 94  1  0
 96 95  2  0
 99 98  1  0
101 99  1  0
101102  1  0
101100  1  0
M  ISO  4  22 100  30 100  61 101  62 101
M  END
>  <TORSDO>  (40) 
F 20

>  <SCORE>  (40) 
-6.087

>  <name>  (40) 
39

>  <ligand_id>  (40) 
39

>  <original_smiles>  (40) 
[H]c1c([H])c([H])c2c(c1[H])C([H])([H])C([H])([H])C([H])([H])C2([H])N([H])C(=O)C1([H])N(C(=O)C([H])(N([H])C(=O)C([H])(N([H])C([H])([H])[H])C([H])([H])[H])C(C([H])([H])[H])(C([H])([H])[H])C([H])([H])[H])C([H])([H])c2c([H])c(OC([H])([H])C([H])([H])[N+]3([H])C([H])([H])c4c(C([H])([H])[H])c(C([H])([H])[H])c(C([H])([H])[H])c(C([H])([H])[N+]5([H])C([H])([H])C([H])([H])C([H])(N([H])C(=O)N6C([H])([H])C([H])([H])C([H])([H])C([H])(n7nc(-c8c([H])c([H])c(Oc9c([H])c([H])c(F)c([H])c9F)c([H])c8[H])c(C(=O)N([H])[H])c7N([H])[H])C6([H])[H])C5([H])[H])c4C([H])([H])C3([H])[H])c([H])c([H])c2C1([H])[H]

>  <smiles>  (40) 
[H]c1c([H])c([H])c2c(c1[H])C([H])([H])C([H])([H])C([H])([H])C2([H])N([H])C(=O)C1([H])N(C(=O)C([H])(N([H])C(=O)C([H])(N([H])C([H])([H])[H])C([H])([H])[H])C(C([H])([H])[H])(C([H])([H])[H])C([H])([H])[H])C([H])([H])c2c([H])c(OC([H])([H])C([H])([H])[N+]3([H])C([H])([H])c4c(C([H])([H])[H])c(C([H])([H])[H])c(C([H])([H])[H])c(C([H])([H])[N+]5([H])C([H])([H])C([H])([H])C([H])(N([H])C(=O)N6C([H])([H])C([H])([H])C([H])([H])C([H])(n7nc(-c8c([H])c([H])c(Oc9c([H])c([H])c(F)c([H])c9F)c([H])c8[H])c(C(=O)N([H])[H])c7N([H])[H])C6([H])[H])C5([H])[H])c4C([H])([H])C3([H])[H])c([H])c([H])c2C1([H])[H]

$$$$
40:0:0
     RDKit          3D

 94103  0  0  1  0  0  0  0  0999 V2000
  -29.6950  -21.1280   18.6360 C   0  0  0  0  0  3  0  0  0  0  0  0
  -29.2750  -20.9430   19.9660 C   0  0  0  0  0  0  0  0  0  0  0  0
  -29.6520  -22.3810   17.9820 C   0  0  0  0  0  0  0  0  0  0  0  0
  -29.1690  -23.5540   18.6310 C   0  0  0  0  0  0  0  0  0  0  0  0
  -28.7650  -23.5140   19.9950 C   0  0  0  0  0  0  0  0  0  0  0  0
  -28.8280  -22.1810   20.6340 C   0  0  0  0  0  0  0  0  0  0  0  0
  -30.1360  -22.4260   16.5390 C   0  0  0  0  0  1  0  0  0  0  0  0
  -29.0680  -24.8660   17.8600 C   0  0  0  0  0  1  0  0  0  0  0  0
  -30.6420  -14.8900   20.2590 C   0  0  0  0  0  0  0  0  0  0  0  0
  -30.3590  -12.5900   19.2680 C   0  0  0  0  0  2  0  0  0  0  0  0
  -29.4100  -12.5810   18.0520 C   0  0  0  0  0  2  0  0  0  0  0  0
  -27.9590  -12.3670   18.5170 C   0  0  0  0  0  2  0  0  0  0  0  0
  -27.5820  -13.2900   19.7020 C   0  0  0  0  0  3  0  0  0  0  0  0
  -28.6610  -13.3310   20.8070 C   0  0  0  0  0  2  0  0  0  0  0  0
  -29.9280  -13.7000   20.1640 N   0  0  0  0  0  0  0  0  0  0  0  0
  -31.8470  -14.8270   20.0010 O   0  0  0  0  0  0  0  0  0  0  0  0
  -28.6100  -18.2820   19.7450 C   0  0  0  0  0  2  0  0  0  0  0  0
  -30.7700  -18.7650   20.6450 C   0  0  0  0  0  2  0  0  0  0  0  0
  -28.7300  -16.7450   20.2140 C   0  0  0  0  0  2  0  0  0  0  0  0
  -30.8680  -17.2700   21.2000 C   0  0  0  0  0  2  0  0  0  0  0  0
  -29.3480  -19.4210   20.5530 C   0  0  0  0  0  3  0  0  0  0  0  0
  -30.0760  -16.1690   20.5430 N   0  0  0  0  0  0  0  0  0  0  0  0
  -25.2280  -13.8950   20.4940 C   0  0  0  0  0  0  0  0  0  0  0  0
  -24.1630  -13.1260   20.8720 C   0  0  0  0  0  0  0  0  0  0  0  0
  -24.6180  -11.7720   20.8260 C   0  0  0  0  0  0  0  0  0  0  0  0
  -26.2580  -13.0060   20.2300 N   0  0  0  0  0  0  0  0  0  0  0  0
  -25.9040  -11.7260   20.4990 N   0  0  0  0  0  0  0  0  0  0  0  0
  -23.8880  -10.5140   21.0140 C   0  0  0  0  0  0  0  0  0  0  0  0
  -24.3220   -9.5400   21.9390 C   0  0  0  0  0  3  0  0  0  0  0  0
  -23.5900   -8.3460   22.1170 C   0  0  0  0  0  3  0  0  0  0  0  0
  -22.4120   -8.1190   21.3670 C   0  0  0  0  0  0  0  0  0  0  0  0
  -21.9980   -9.0820   20.4290 C   0  0  0  0  0  3  0  0  0  0  0  0
  -22.7290  -10.2670   20.2510 C   0  0  0  0  0  3  0  0  0  0  0  0
  -21.6510   -6.9780   21.4560 O   0  0  0  0  0  0  0  0  0  0  0  0
  -21.5960   -6.2370   22.6090 C   0  0  0  0  0  0  0  0  0  0  0  0
  -21.1520   -6.7910   23.8290 C   0  0  0  0  0  3  0  0  0  0  0  0
  -21.0460   -5.9770   24.9750 C   0  0  0  0  0  3  0  0  0  0  0  0
  -21.3720   -4.6090   24.9000 C   0  0  0  0  0  0  0  0  0  0  0  0
  -21.8080   -4.0550   23.6840 C   0  0  0  0  0  3  0  0  0  0  0  0
  -21.9170   -4.8670   22.5410 C   0  0  0  0  0  0  0  0  0  0  0  0
  -22.3180   -4.3240   21.3670 F   0  0  0  0  0  0  0  0  0  0  0  0
  -21.2630   -3.8250   25.9970 F   0  0  0  0  0  0  0  0  0  0  0  0
  -22.7730  -13.6120   21.1630 C   0  0  0  0  0  0  0  0  0  0  0  0
  -22.0500  -12.9130   22.0310 N   0  0  0  0  0  0  0  0  0  0  0  0
  -22.3380  -14.6460   20.6570 O   0  0  0  0  0  0  0  0  0  0  0  0
  -22.4140  -12.0760   22.4600 H   0  0  0  0  0  0  0  0  0  0  0  0
  -21.1180  -13.2220   22.2710 H   0  0  0  0  0  0  0  0  0  0  0  0
  -25.4010  -15.2640   20.3220 N   0  0  0  0  0  0  0  0  0  0  0  0
  -24.6460  -15.9270   20.4600 H   0  0  0  0  0  0  0  0  0  0  0  0
  -26.2540  -15.6980   19.9960 H   0  0  0  0  0  0  0  0  0  0  0  0
  -29.5050  -22.0460   22.8560 C   0  0  0  0  0  1  0  0  0  0  0  0
  -28.4220  -22.0910   21.9380 O   0  0  0  0  0  0  0  0  0  0  0  0
  -28.1780  -24.8530   20.7170 C   0  0  0  0  0  2  0  0  0  0  0  0
  -28.4230  -26.3020   20.2730 O   0  0  0  0  0  0  0  0  0  0  0  0
  -24.6800  -31.8620   23.2340 C   0  0  0  0  0  0  0  0  0  0  0  0
  -27.3410  -27.2300   20.2400 C   0  0  0  0  0  0  0  0  0  0  0  0
  -23.5070  -30.4480   21.5870 C   0  0  0  0  0  3  0  0  0  0  0  0
  -24.9850  -28.8950   20.1800 C   0  0  0  0  0  0  0  0  0  0  0  0
  -26.0530  -30.7650   21.4340 C   0  0  0  0  0  2  0  0  0  0  0  0
  -26.1500  -29.3760   20.7910 C   0  0  0  0  0  0  0  0  0  0  0  0
  -27.3340  -28.5590   20.8020 C   0  0  0  0  0  3  0  0  0  0  0  0
  -26.1530  -26.8320   19.5920 C   0  0  0  0  0  3  0  0  0  0  0  0
  -24.9950  -27.6350   19.5640 C   0  0  0  0  0  3  0  0  0  0  0  0
  -23.7430  -29.7710   20.2130 C   0  0  0  0  0  2  0  0  0  0  0  0
  -24.7660  -31.0460   22.1400 N   0  0  0  0  0  0  0  0  0  0  0  0
  -23.5880  -32.1310   23.7580 O   0  0  0  0  0  0  0  0  0  0  0  0
  -22.8400  -29.4320   22.5480 C   0  0  0  0  0  0  0  0  0  0  0  0
  -21.5140  -29.2530   22.4180 N   0  0  0  0  0  0  0  0  0  0  0  0
  -23.5160  -28.8070   23.3690 O   0  0  0  0  0  0  0  0  0  0  0  0
  -21.0250  -29.8040   21.7270 H   0  0  0  0  0  0  0  0  0  0  0  0
  -18.1360  -28.0520   22.9360 C   0  0  0  0  0  0  0  0  0  0  0  0
  -20.6970  -28.3090   23.1870 C   0  0  0  0  0  3  0  0  0  0  0  0
  -20.7940  -26.8820   22.6020 C   0  0  0  0  0  2  0  0  0  0  0  0
  -19.6840  -26.5670   21.5940 C   0  0  0  0  0  2  0  0  0  0  0  0
  -18.3060  -26.7090   22.2460 C   0  0  0  0  0  2  0  0  0  0  0  0
  -19.2590  -28.8110   23.3630 C   0  0  0  0  0  0  0  0  0  0  0  0
  -19.0440  -30.0680   23.9690 C   0  0  0  0  0  3  0  0  0  0  0  0
  -17.7400  -30.5690   24.1470 C   0  0  0  0  0  3  0  0  0  0  0  0
  -16.6330  -29.8070   23.7350 C   0  0  0  0  0  3  0  0  0  0  0  0
  -16.8320  -28.5510   23.1360 C   0  0  0  0  0  3  0  0  0  0  0  0
  -25.9480  -32.5140   23.8670 C   0  0  0  0  0  3  0  0  0  0  0  0
  -25.6150  -33.9070   24.1980 N   0  0  0  0  0  0  0  0  0  0  0  0
  -25.9210  -34.9680   23.4380 C   0  0  0  0  0  0  0  0  0  0  0  0
  -26.5800  -34.8760   22.4010 O   0  0  0  0  0  0  0  0  0  0  0  0
  -25.0290  -34.0520   25.0070 H   0  0  0  0  0  0  0  0  0  0  0  0
  -24.1550  -36.7310   23.1060 C   0  0  0  0  0  1  0  0  0  0  0  0
  -25.4130  -36.3490   23.9020 C   0  0  0  0  0  3  0  0  0  0  0  0
  -27.5400  -37.2730   24.7090 C   0  0  0  0  0  1  0  0  0  0  0  0
  -26.4250  -37.4210   23.7760 N   0  0  0  0  0  0  0  0  0  0  0  0
  -26.0040  -38.3340   23.9270 H   0  0  0  0  0  0  0  0  0  0  0  0
  -26.4630  -31.7530   25.1490 C   0  0  1  0  0  0  0  0  0  0  0  0
  -25.3650  -31.5020   26.2090 C   0  0  0  0  0  1  0  0  0  0  0  0
  -27.0690  -30.3830   24.7690 C   0  0  0  0  0  1  0  0  0  0  0  0
  -27.5970  -32.5650   25.8190 C   0  0  0  0  0  1  0  0  0  0  0  0
  1  2  1  0
  2  6  2  0
  3  4  1  0
  3  1  2  0
  4  5  2  0
  5  6  1  0
  5 53  1  0
  6 52  1  0
  7  3  1  0
  8  4  1  0
  9 22  1  0
 10 15  1  0
 11 12  1  0
 11 10  1  0
 13 12  1  0
 13 26  1  0
 13 14  1  0
 15  9  1  0
 15 14  1  0
 16  9  2  0
 17 19  1  0
 17 21  1  0
 18 20  1  0
 19 22  1  0
 21  2  1  0
 21 18  1  0
 22 20  1  0
 23 24  2  0
 24 43  1  0
 25 24  1  0
 25 28  1  0
 26 23  1  0
 26 27  1  0
 27 25  2  0
 28 29  1  0
 29 30  2  0
 31 34  1  0
 31 30  1  0
 32 31  2  0
 33 32  1  0
 33 28  2  0
 34 35  1  0
 35 36  1  0
 36 37  2  0
 38 37  1  0
 38 42  1  0
 39 38  2  0
 40 35  2  0
 40 39  1  0
 41 40  1  0
 43 44  1  0
 44 47  1  0
 44 46  1  0
 45 43  2  0
 48 49  1  0
 48 23  1  0
 50 48  1  0
 52 51  1  0
 54 53  1  0
 55 66  2  0
 56 54  1  0
 56 61  1  0
 57 65  1  0
 57 67  1  0
 58 64  1  0
 58 60  1  0
 59 65  1  0
 60 61  2  0
 60 59  1  0
 62 56  2  0
 63 62  1  0
 63 58  2  0
 64 57  1  0
 65 55  1  0
 67 69  2  0
 68 67  1  0
 70 68  1  0
 71 80  2  0
 71 76  1  0
 72 68  1  0
 72 76  1  0
 73 72  1  0
 74 75  1  0
 74 73  1  0
 75 71  1  0
 76 77  2  0
 77 78  1  0
 79 78  2  0
 80 79  1  0
 81 55  1  0
 81 82  1  0
 81 91  1  0
 82 85  1  0
 83 87  1  0
 83 82  1  0
 84 83  2  0
 87 86  1  0
 89 87  1  0
 89 90  1  0
 89 88  1  0
 91 94  1  1
 91 92  1  0
 93 91  1  0
M  ISO  4   9 100  22 100  53 101  54 101
M  END
>  <TORSDO>  (41) 
F 18

>  <SCORE>  (41) 
-15.159

>  <name>  (41) 
40

>  <ligand_id>  (41) 
40

>  <original_smiles>  (41) 
[H]c1c([H])c([H])c2c(c1[H])C([H])([H])C([H])([H])C([H])([H])C2([H])N([H])C(=O)C1([H])N(C(=O)C([H])(N([H])C(=O)C([H])(N([H])C([H])([H])[H])C([H])([H])[H])C(C([H])([H])[H])(C([H])([H])[H])C([H])([H])[H])C([H])([H])c2c([H])c(OC([H])([H])c3c(OC([H])([H])[H])c(C4([H])C([H])([H])C([H])([H])N(C(=O)N5C([H])([H])C([H])([H])C([H])([H])C([H])(n6nc(-c7c([H])c([H])c(Oc8c([H])c([H])c(F)c([H])c8F)c([H])c7[H])c(C(=O)N([H])[H])c6N([H])[H])C5([H])[H])C([H])([H])C4([H])[H])c([H])c(C([H])([H])[H])c3C([H])([H])[H])c([H])c([H])c2C1([H])[H]

>  <smiles>  (41) 
[H]c1c([H])c([H])c2c(c1[H])C([H])([H])C([H])([H])C([H])([H])C2([H])N([H])C(=O)C1([H])N(C(=O)C([H])(N([H])C(=O)C([H])(N([H])C([H])([H])[H])C([H])([H])[H])C(C([H])([H])[H])(C([H])([H])[H])C([H])([H])[H])C([H])([H])c2c([H])c(OC([H])([H])c3c(OC([H])([H])[H])c(C4([H])C([H])([H])C([H])([H])N(C(=O)N5C([H])([H])C([H])([H])C([H])([H])C([H])(n6nc(-c7c([H])c([H])c(Oc8c([H])c([H])c(F)c([H])c8F)c([H])c7[H])c(C(=O)N([H])[H])c6N([H])[H])C5([H])[H])C([H])([H])C4([H])[H])c([H])c(C([H])([H])[H])c3C([H])([H])[H])c([H])c([H])c2C1([H])[H]

$$$$
41:0:0
     RDKit          3D

 97106  0  0  1  0  0  0  0  0999 V2000
  -30.4960  -22.1430   22.4560 C   0  0  0  0  0  0  0  0  0  0  0  0
  -31.5390  -21.6780   21.6050 C   0  0  0  0  0  0  0  0  0  0  0  0
  -29.2120  -22.3680   21.8960 C   0  0  0  0  0  0  0  0  0  0  0  0
  -31.1960  -21.1060   20.3470 C   0  0  0  0  0  0  0  0  0  0  0  0
  -29.0520  -22.1260   20.5130 C   0  0  0  0  0  0  0  0  0  0  0  0
  -29.8220  -20.9700   20.0410 C   0  0  0  0  0  0  0  0  0  0  0  0
  -30.7590  -22.4540   23.9260 C   0  0  0  0  0  1  0  0  0  0  0  0
  -32.9910  -21.7000   22.0680 C   0  0  0  0  0  1  0  0  0  0  0  0
  -28.0720  -22.9510   22.7200 C   0  0  0  0  0  1  0  0  0  0  0  0
  -32.2560  -20.5140   19.4290 C   0  0  0  0  0  1  0  0  0  0  0  0
  -29.9600  -17.7860   21.6970 C   0  0  0  0  0  2  0  0  0  0  0  0
  -29.0630  -19.0330   21.4720 C   0  0  0  0  0  2  0  0  0  0  0  0
  -29.7740  -18.3570   19.3660 C   0  0  0  0  0  2  0  0  0  0  0  0
  -30.3370  -17.2000   20.3200 C   0  0  0  0  0  3  0  0  0  0  0  0
  -29.3600  -19.5810   20.1490 N   0  0  0  0  0  0  0  0  0  0  0  0
  -30.6180  -14.5890   19.8560 C   0  0  0  0  0  0  0  0  0  0  0  0
  -30.2720  -12.3510   18.7920 C   0  0  0  0  0  2  0  0  0  0  0  0
  -29.2380  -12.4750   17.6520 C   0  0  0  0  0  2  0  0  0  0  0  0
  -27.8060  -12.3210   18.2000 C   0  0  0  0  0  2  0  0  0  0  0  0
  -27.5520  -13.1830   19.4650 C   0  0  0  0  0  3  0  0  0  0  0  0
  -28.6980  -13.0420   20.4900 C   0  0  0  0  0  2  0  0  0  0  0  0
  -29.9470  -13.3870   19.7970 N   0  0  0  0  0  0  0  0  0  0  0  0
  -31.7850  -14.6630   19.4700 O   0  0  0  0  0  0  0  0  0  0  0  0
  -29.8960  -15.7360   20.1580 N   0  0  0  0  0  0  0  0  0  0  0  0
  -28.9260  -15.5620   20.3720 H   0  0  0  0  0  0  0  0  0  0  0  0
  -25.2430  -13.8020   20.3960 C   0  0  0  0  0  0  0  0  0  0  0  0
  -24.1900  -13.0400   20.8230 C   0  0  0  0  0  0  0  0  0  0  0  0
  -24.6170  -11.6800   20.7170 C   0  0  0  0  0  0  0  0  0  0  0  0
  -26.2450  -12.9090   20.0530 N   0  0  0  0  0  0  0  0  0  0  0  0
  -25.8800  -11.6260   20.3100 N   0  0  0  0  0  0  0  0  0  0  0  0
  -23.8770  -10.4300   20.9220 C   0  0  0  0  0  0  0  0  0  0  0  0
  -24.3190   -9.4500   21.8400 C   0  0  0  0  0  3  0  0  0  0  0  0
  -23.5800   -8.2650   22.0340 C   0  0  0  0  0  3  0  0  0  0  0  0
  -22.3820   -8.0490   21.3110 C   0  0  0  0  0  0  0  0  0  0  0  0
  -21.9580   -9.0160   20.3820 C   0  0  0  0  0  3  0  0  0  0  0  0
  -22.6980  -10.1940   20.1860 C   0  0  0  0  0  3  0  0  0  0  0  0
  -21.6100   -6.9160   21.4170 O   0  0  0  0  0  0  0  0  0  0  0  0
  -21.5480   -6.1950   22.5820 C   0  0  0  0  0  0  0  0  0  0  0  0
  -21.1170   -6.7740   23.7950 C   0  0  0  0  0  3  0  0  0  0  0  0
  -21.0010   -5.9790   24.9530 C   0  0  0  0  0  3  0  0  0  0  0  0
  -21.3060   -4.6060   24.8990 C   0  0  0  0  0  0  0  0  0  0  0  0
  -21.7300   -4.0260   23.6900 C   0  0  0  0  0  3  0  0  0  0  0  0
  -21.8480   -4.8170   22.5340 C   0  0  0  0  0  0  0  0  0  0  0  0
  -22.2360   -4.2500   21.3680 F   0  0  0  0  0  0  0  0  0  0  0  0
  -21.1880   -3.8400   26.0090 F   0  0  0  0  0  0  0  0  0  0  0  0
  -22.8290  -13.5390   21.2130 C   0  0  0  0  0  0  0  0  0  0  0  0
  -22.1530  -12.8320   22.1130 N   0  0  0  0  0  0  0  0  0  0  0  0
  -22.3770  -14.5880   20.7560 O   0  0  0  0  0  0  0  0  0  0  0  0
  -22.5330  -11.9820   22.5000 H   0  0  0  0  0  0  0  0  0  0  0  0
  -21.2430  -13.1470   22.4180 H   0  0  0  0  0  0  0  0  0  0  0  0
  -25.4260  -15.1740   20.2450 N   0  0  0  0  0  0  0  0  0  0  0  0
  -24.6810  -15.8390   20.4260 H   0  0  0  0  0  0  0  0  0  0  0  0
  -26.2450  -15.6030   19.8360 H   0  0  0  0  0  0  0  0  0  0  0  0
  -27.8500  -23.1940   18.5000 C   0  0  0  0  0  1  0  0  0  0  0  0
  -28.8460  -23.4680   19.6360 C   0  0  0  0  0  3  0  0  0  0  0  0
  -28.4590  -24.8990   20.3420 C   0  0  0  0  0  2  0  0  0  0  0  0
  -28.5130  -26.2520   19.6810 O   0  0  0  0  0  0  0  0  0  0  0  0
  -24.7150  -31.5570   22.9350 C   0  0  0  0  0  0  0  0  0  0  0  0
  -27.3940  -27.1090   19.7360 C   0  0  0  0  0  0  0  0  0  0  0  0
  -23.5390  -30.2020   21.2410 C   0  0  0  0  0  3  0  0  0  0  0  0
  -25.0170  -28.7180   19.7670 C   0  0  0  0  0  0  0  0  0  0  0  0
  -26.0750  -30.5550   21.0770 C   0  0  0  0  0  2  0  0  0  0  0  0
  -26.1790  -29.1960   20.3840 C   0  0  0  0  0  0  0  0  0  0  0  0
  -27.3750  -28.4080   20.3500 C   0  0  0  0  0  3  0  0  0  0  0  0
  -26.2040  -26.6880   19.1070 C   0  0  0  0  0  3  0  0  0  0  0  0
  -25.0340  -27.4730   19.1170 C   0  0  0  0  0  3  0  0  0  0  0  0
  -23.7710  -29.5810   19.8380 C   0  0  0  0  0  2  0  0  0  0  0  0
  -24.7960  -30.7860   21.8100 N   0  0  0  0  0  0  0  0  0  0  0  0
  -23.6260  -31.8010   23.4740 O   0  0  0  0  0  0  0  0  0  0  0  0
  -22.8830  -29.1450   22.1620 C   0  0  0  0  0  0  0  0  0  0  0  0
  -21.5490  -29.0030   22.0690 N   0  0  0  0  0  0  0  0  0  0  0  0
  -23.5720  -28.4560   22.9190 O   0  0  0  0  0  0  0  0  0  0  0  0
  -21.0520  -29.6140   21.4370 H   0  0  0  0  0  0  0  0  0  0  0  0
  -18.1570  -27.8930   22.6660 C   0  0  0  0  0  0  0  0  0  0  0  0
  -20.7340  -28.0380   22.8080 C   0  0  0  0  0  3  0  0  0  0  0  0
  -20.7480  -26.6550   22.1170 C   0  0  0  0  0  2  0  0  0  0  0  0
  -19.5810  -26.4560   21.1450 C   0  0  0  0  0  2  0  0  0  0  0  0
  -18.2420  -26.5970   21.8760 C   0  0  0  0  0  2  0  0  0  0  0  0
  -19.3270  -28.5760   23.0890 C   0  0  0  0  0  0  0  0  0  0  0  0
  -19.1940  -29.7920   23.7940 C   0  0  0  0  0  3  0  0  0  0  0  0
  -17.9230  -30.3270   24.0750 C   0  0  0  0  0  3  0  0  0  0  0  0
  -16.7660  -29.6380   23.6670 C   0  0  0  0  0  3  0  0  0  0  0  0
  -16.8850  -28.4230   22.9690 C   0  0  0  0  0  3  0  0  0  0  0  0
  -25.9860  -32.1850   23.5870 C   0  0  0  0  0  3  0  0  0  0  0  0
  -26.5330  -31.3510   24.8110 C   0  0  1  0  0  0  0  0  0  0  0  0
  -25.4560  -31.0280   25.8730 C   0  0  0  0  0  1  0  0  0  0  0  0
  -27.1420  -30.0120   24.3320 C   0  0  0  0  0  1  0  0  0  0  0  0
  -27.6740  -32.1300   25.5070 C   0  0  0  0  0  1  0  0  0  0  0  0
  -25.6440  -33.5520   24.0060 N   0  0  0  0  0  0  0  0  0  0  0  0
  -25.9430  -34.6590   23.3110 C   0  0  0  0  0  0  0  0  0  0  0  0
  -26.6040  -34.6350   22.2700 O   0  0  0  0  0  0  0  0  0  0  0  0
  -25.0540  -33.6430   24.8190 H   0  0  0  0  0  0  0  0  0  0  0  0
  -24.1690  -36.4290   23.0860 C   0  0  0  0  0  1  0  0  0  0  0  0
  -25.4280  -36.0040   23.8600 C   0  0  0  0  0  3  0  0  0  0  0  0
  -27.5450  -36.8910   24.7300 C   0  0  0  0  0  1  0  0  0  0  0  0
  -26.4350  -37.0870   23.8030 N   0  0  0  0  0  0  0  0  0  0  0  0
  -26.0080  -37.9860   24.0080 H   0  0  0  0  0  0  0  0  0  0  0  0
  1  7  1  0
  2  8  1  0
  2  1  2  0
  3  1  1  0
  3  9  1  0
  4  2  1  0
  5  3  2  0
  6 15  1  0
  6  4  2  0
  6  5  1  0
 10  4  1  0
 12 11  1  0
 13 15  1  0
 13 14  1  0
 14 24  1  0
 14 11  1  0
 15 12  1  0
 16 24  1  0
 17 22  1  0
 18 19  1  0
 18 17  1  0
 20 19  1  0
 20 29  1  0
 20 21  1  0
 22 16  1  0
 22 21  1  0
 23 16  2  0
 24 25  1  0
 26 27  2  0
 27 46  1  0
 28 27  1  0
 28 31  1  0
 29 30  1  0
 29 26  1  0
 30 28  2  0
 31 32  1  0
 32 33  2  0
 34 37  1  0
 34 33  1  0
 35 34  2  0
 36 35  1  0
 36 31  2  0
 37 38  1  0
 38 39  1  0
 39 40  2  0
 41 40  1  0
 41 45  1  0
 42 41  2  0
 43 38  2  0
 43 42  1  0
 44 43  1  0
 46 47  1  0
 47 50  1  0
 47 49  1  0
 48 46  2  0
 51 26  1  0
 51 52  1  0
 53 51  1  0
 55 54  1  0
 55 56  1  0
 55  5  1  0
 57 59  1  0
 57 56  1  0
 58 69  2  0
 59 64  1  0
 60 68  1  0
 60 70  1  0
 61 67  1  0
 61 63  1  0
 62 68  1  0
 63 62  1  0
 64 63  2  0
 65 66  1  0
 65 59  2  0
 66 61  2  0
 67 60  1  0
 68 58  1  0
 70 72  2  0
 71 70  1  0
 73 71  1  0
 74 83  2  0
 74 79  1  0
 75 71  1  0
 75 79  1  0
 76 75  1  0
 77 78  1  0
 77 76  1  0
 78 74  1  0
 79 80  2  0
 80 81  1  0
 82 81  2  0
 83 82  1  0
 84 58  1  0
 84 89  1  0
 84 85  1  0
 85 88  1  1
 85 86  1  0
 87 85  1  0
 89 92  1  0
 90 94  1  0
 90 89  1  0
 91 90  2  0
 94 93  1  0
 96 94  1  0
 96 97  1  0
 96 95  1  0
M  ISO  4  16 100  24 100  56 101  57 101
M  END
>  <TORSDO>  (42) 
F 19

>  <SCORE>  (42) 
-11.568

>  <name>  (42) 
41

>  <ligand_id>  (42) 
41

>  <original_smiles>  (42) 
[H]c1c([H])c([H])c2c(c1[H])C([H])([H])C([H])([H])C([H])([H])C2([H])N([H])C(=O)C1([H])N(C(=O)C([H])(N([H])C(=O)C([H])(N([H])C([H])([H])[H])C([H])([H])[H])C(C([H])([H])[H])(C([H])([H])[H])C([H])([H])[H])C([H])([H])c2c([H])c(OC([H])([H])C([H])(c3c(N4C([H])([H])C([H])([H])C([H])(N([H])C(=O)N5C([H])([H])C([H])([H])C([H])([H])C([H])(n6nc(-c7c([H])c([H])c(Oc8c([H])c([H])c(F)c([H])c8F)c([H])c7[H])c(C(=O)N([H])[H])c6N([H])[H])C5([H])[H])C4([H])[H])c(C([H])([H])[H])c(C([H])([H])[H])c(C([H])([H])[H])c3C([H])([H])[H])C([H])([H])[H])c([H])c([H])c2C1([H])[H]

>  <smiles>  (42) 
[H]c1c([H])c([H])c2c(c1[H])C([H])([H])C([H])([H])C([H])([H])C2([H])N([H])C(=O)C1([H])N(C(=O)C([H])(N([H])C(=O)C([H])(N([H])C([H])([H])[H])C([H])([H])[H])C(C([H])([H])[H])(C([H])([H])[H])C([H])([H])[H])C([H])([H])c2c([H])c(OC([H])([H])C([H])(c3c(N4C([H])([H])C([H])([H])C([H])(N([H])C(=O)N5C([H])([H])C([H])([H])C([H])([H])C([H])(n6nc(-c7c([H])c([H])c(Oc8c([H])c([H])c(F)c([H])c8F)c([H])c7[H])c(C(=O)N([H])[H])c6N([H])[H])C5([H])[H])C4([H])[H])c(C([H])([H])[H])c(C([H])([H])[H])c(C([H])([H])[H])c3C([H])([H])[H])C([H])([H])[H])c([H])c([H])c2C1([H])[H]

$$$$
42:0:0
     RDKit          3D

 96105  0  0  1  0  0  0  0  0999 V2000
  -30.8450  -14.6100   20.3690 C   0  0  0  0  0  0  0  0  0  0  0  0
  -30.4790  -12.3580   19.4550 C   0  0  0  0  0  2  0  0  0  0  0  0
  -29.5840  -12.3950   18.1970 C   0  0  0  0  0  2  0  0  0  0  0  0
  -28.0820  -12.4370   18.5610 C   0  0  0  0  0  2  0  0  0  0  0  0
  -27.7190  -13.3450   19.7770 C   0  0  0  0  0  3  0  0  0  0  0  0
  -28.7580  -13.2400   20.9130 C   0  0  0  0  0  2  0  0  0  0  0  0
  -30.0820  -13.4760   20.3190 N   0  0  0  0  0  0  0  0  0  0  0  0
  -32.0730  -14.5340   20.3750 O   0  0  0  0  0  0  0  0  0  0  0  0
  -32.4960  -18.7610   19.5490 C   0  0  0  0  0  3  0  0  0  0  0  0
  -31.9060  -17.5060   19.3580 C   0  0  0  0  0  0  0  0  0  0  0  0
  -31.9350  -19.6850   20.4450 C   0  0  0  0  0  0  0  0  0  0  0  0
  -30.7310  -19.3700   21.1430 C   0  0  0  0  0  0  0  0  0  0  0  0
  -30.2390  -18.0120   21.0810 C   0  0  0  0  0  0  0  0  0  0  0  0
  -30.8510  -17.0690   20.2040 C   0  0  0  0  0  0  0  0  0  0  0  0
  -32.3410  -16.6580   18.1680 C   0  0  0  0  0  2  0  0  0  0  0  0
  -31.1880  -15.7950   17.5930 C   0  0  0  0  0  2  0  0  0  0  0  0
  -29.9160  -15.8080   18.4770 C   0  0  0  0  0  2  0  0  0  0  0  0
  -32.6410  -21.0320   20.5650 C   0  0  0  0  0  1  0  0  0  0  0  0
  -29.0160  -17.5460   21.8670 C   0  0  0  0  0  1  0  0  0  0  0  0
  -30.2730  -15.7760   19.9050 N   0  0  0  0  0  0  0  0  0  0  0  0
  -25.3260  -14.0140   20.4100 C   0  0  0  0  0  0  0  0  0  0  0  0
  -24.2300  -13.2770   20.7590 C   0  0  0  0  0  0  0  0  0  0  0  0
  -24.6620  -11.9150   20.7870 C   0  0  0  0  0  0  0  0  0  0  0  0
  -26.3570  -13.1050   20.2390 N   0  0  0  0  0  0  0  0  0  0  0  0
  -25.9620  -11.8410   20.5330 N   0  0  0  0  0  0  0  0  0  0  0  0
  -23.9060  -10.6740   20.9820 C   0  0  0  0  0  0  0  0  0  0  0  0
  -24.3000   -9.7170   21.9430 C   0  0  0  0  0  3  0  0  0  0  0  0
  -23.5480   -8.5380   22.1290 C   0  0  0  0  0  3  0  0  0  0  0  0
  -22.3870   -8.3100   21.3520 C   0  0  0  0  0  0  0  0  0  0  0  0
  -22.0140   -9.2530   20.3790 C   0  0  0  0  0  3  0  0  0  0  0  0
  -22.7660  -10.4240   20.1920 C   0  0  0  0  0  3  0  0  0  0  0  0
  -21.6060   -7.1850   21.4480 O   0  0  0  0  0  0  0  0  0  0  0  0
  -21.5310   -6.4590   22.6090 C   0  0  0  0  0  0  0  0  0  0  0  0
  -21.1300   -7.0440   23.8310 C   0  0  0  0  0  3  0  0  0  0  0  0
  -21.0010   -6.2450   24.9850 C   0  0  0  0  0  3  0  0  0  0  0  0
  -21.2570   -4.8630   24.9180 C   0  0  0  0  0  0  0  0  0  0  0  0
  -21.6510   -4.2770   23.7020 C   0  0  0  0  0  3  0  0  0  0  0  0
  -21.7840   -5.0740   22.5510 C   0  0  0  0  0  0  0  0  0  0  0  0
  -22.1430   -4.5010   21.3770 F   0  0  0  0  0  0  0  0  0  0  0  0
  -21.1250   -4.0930   26.0240 F   0  0  0  0  0  0  0  0  0  0  0  0
  -22.8340  -13.7890   20.9610 C   0  0  0  0  0  0  0  0  0  0  0  0
  -22.0630  -13.1370   21.8230 N   0  0  0  0  0  0  0  0  0  0  0  0
  -22.4360  -14.8040   20.3880 O   0  0  0  0  0  0  0  0  0  0  0  0
  -22.4020  -12.3240   22.3130 H   0  0  0  0  0  0  0  0  0  0  0  0
  -21.1180  -13.4550   21.9930 H   0  0  0  0  0  0  0  0  0  0  0  0
  -25.5280  -15.3770   20.1980 N   0  0  0  0  0  0  0  0  0  0  0  0
  -24.7760  -16.0540   20.2560 H   0  0  0  0  0  0  0  0  0  0  0  0
  -26.4070  -15.7830   19.9100 H   0  0  0  0  0  0  0  0  0  0  0  0
  -30.0100  -20.5150   21.8990 C   0  0  0  0  0  2  0  0  0  0  0  0
  -29.6360  -21.6580   21.0030 N   0  0  0  0  0  4  0  0  0  0  0  0
  -28.7740  -21.4310   20.5370 H   0  0  0  0  0  0  0  0  0  0  0  0
  -30.3510  -21.7120   20.2940 H   0  0  0  0  0  0  0  0  0  0  0  0
  -29.5150  -22.9950   21.6670 C   0  0  0  0  0  2  0  0  0  0  0  0
  -29.1550  -24.1920   20.6870 C   0  0  0  0  0  2  0  0  0  0  0  0
  -28.4780  -25.5440   21.1700 C   0  0  0  0  0  2  0  0  0  0  0  0
  -28.5750  -26.6340   20.2200 O   0  0  0  0  0  0  0  0  0  0  0  0
  -24.6870  -31.7950   23.2390 C   0  0  0  0  0  0  0  0  0  0  0  0
  -27.4380  -27.4150   20.1650 C   0  0  0  0  0  0  0  0  0  0  0  0
  -23.5280  -30.3900   21.5650 C   0  0  0  0  0  3  0  0  0  0  0  0
  -25.0280  -28.8990   20.1370 C   0  0  0  0  0  0  0  0  0  0  0  0
  -26.0550  -30.7980   21.4020 C   0  0  0  0  0  2  0  0  0  0  0  0
  -26.1740  -29.4350   20.7460 C   0  0  0  0  0  0  0  0  0  0  0  0
  -27.3860  -28.7040   20.7510 C   0  0  0  0  0  3  0  0  0  0  0  0
  -26.2800  -26.9010   19.5460 C   0  0  0  0  0  3  0  0  0  0  0  0
  -25.0780  -27.6330   19.5310 C   0  0  0  0  0  3  0  0  0  0  0  0
  -23.7700  -29.7380   20.1760 C   0  0  0  0  0  2  0  0  0  0  0  0
  -24.7740  -31.0080   22.1270 N   0  0  0  0  0  0  0  0  0  0  0  0
  -23.5930  -32.0410   23.7670 O   0  0  0  0  0  0  0  0  0  0  0  0
  -22.8820  -29.3440   22.5050 C   0  0  0  0  0  0  0  0  0  0  0  0
  -21.5560  -29.1660   22.3830 N   0  0  0  0  0  0  0  0  0  0  0  0
  -23.5710  -28.7000   23.2990 O   0  0  0  0  0  0  0  0  0  0  0  0
  -21.0650  -29.7400   21.7140 H   0  0  0  0  0  0  0  0  0  0  0  0
  -18.1780  -27.9740   22.8710 C   0  0  0  0  0  0  0  0  0  0  0  0
  -20.7400  -28.2130   23.1360 C   0  0  0  0  0  3  0  0  0  0  0  0
  -20.8320  -26.7950   22.5220 C   0  0  0  0  0  2  0  0  0  0  0  0
  -19.7220  -26.5060   21.5090 C   0  0  0  0  0  2  0  0  0  0  0  0
  -18.3450  -26.6400   22.1630 C   0  0  0  0  0  2  0  0  0  0  0  0
  -19.3020  -28.7200   23.3140 C   0  0  0  0  0  0  0  0  0  0  0  0
  -19.0890  -29.9710   23.9330 C   0  0  0  0  0  3  0  0  0  0  0  0
  -17.7850  -30.4680   24.1210 C   0  0  0  0  0  3  0  0  0  0  0  0
  -16.6770  -29.7160   23.6970 C   0  0  0  0  0  3  0  0  0  0  0  0
  -16.8740  -28.4730   23.0730 C   0  0  0  0  0  3  0  0  0  0  0  0
  -25.9510  -32.4420   23.8860 C   0  0  0  0  0  3  0  0  0  0  0  0
  -26.4790  -31.6520   25.1450 C   0  0  1  0  0  0  0  0  0  0  0  0
  -25.3890  -31.3620   26.2030 C   0  0  0  0  0  1  0  0  0  0  0  0
  -27.0950  -30.3010   24.7170 C   0  0  0  0  0  1  0  0  0  0  0  0
  -27.6100  -32.4570   25.8280 C   0  0  0  0  0  1  0  0  0  0  0  0
  -25.6060  -33.8220   24.2470 N   0  0  0  0  0  0  0  0  0  0  0  0
  -25.9190  -34.9020   23.5180 C   0  0  0  0  0  0  0  0  0  0  0  0
  -26.5960  -34.8400   22.4890 O   0  0  0  0  0  0  0  0  0  0  0  0
  -24.9960  -33.9430   25.0440 H   0  0  0  0  0  0  0  0  0  0  0  0
  -24.1450  -36.6580   23.2040 C   0  0  0  0  0  1  0  0  0  0  0  0
  -25.3950  -36.2670   24.0080 C   0  0  0  0  0  3  0  0  0  0  0  0
  -27.5070  -37.1790   24.8630 C   0  0  0  0  0  1  0  0  0  0  0  0
  -26.4010  -37.3470   23.9240 N   0  0  0  0  0  0  0  0  0  0  0  0
  -25.9730  -38.2530   24.0970 H   0  0  0  0  0  0  0  0  0  0  0  0
  1  8  2  0
  2  7  1  0
  3  4  1  0
  3  2  1  0
  5  4  1  0
  5 24  1  0
  5  6  1  0
  7  1  1  0
  7  6  1  0
  9 11  1  0
 10  9  2  0
 10 14  1  0
 11 18  1  0
 11 12  2  0
 12 49  1  0
 13 12  1  0
 13 19  1  0
 14 13  2  0
 15 10  1  0
 16 15  1  0
 16 17  1  0
 17 20  1  0
 20 14  1  0
 20  1  1  0
 21 22  2  0
 22 23  1  0
 22 41  1  0
 23 26  1  0
 24 21  1  0
 24 25  1  0
 25 23  2  0
 26 27  1  0
 27 28  2  0
 29 32  1  0
 29 28  1  0
 30 29  2  0
 31 30  1  0
 31 26  2  0
 32 33  1  0
 33 34  1  0
 34 35  2  0
 36 35  1  0
 36 40  1  0
 37 36  2  0
 38 33  2  0
 38 37  1  0
 39 38  1  0
 41 42  1  0
 42 45  1  0
 42 44  1  0
 43 41  2  0
 46 47  1  0
 46 21  1  0
 48 46  1  0
 50 53  1  0
 50 49  1  0
 51 50  1  0
 52 50  1  0
 54 55  1  0
 54 53  1  0
 56 55  1  0
 57 68  2  0
 58 56  1  0
 58 63  1  0
 59 67  1  0
 59 69  1  0
 60 66  1  0
 60 62  1  0
 61 67  1  0
 62 63  2  0
 62 61  1  0
 64 58  2  0
 65 64  1  0
 65 60  2  0
 66 59  1  0
 67 57  1  0
 69 71  2  0
 70 69  1  0
 72 70  1  0
 73 82  2  0
 73 78  1  0
 74 70  1  0
 74 78  1  0
 75 74  1  0
 76 77  1  0
 76 75  1  0
 77 73  1  0
 78 79  2  0
 79 80  1  0
 81 80  2  0
 82 81  1  0
 83 57  1  0
 83 88  1  0
 83 84  1  0
 84 87  1  1
 84 85  1  0
 86 84  1  0
 88 91  1  0
 89 93  1  0
 89 88  1  0
 90 89  2  0
 93 92  1  0
 95 93  1  0
 95 96  1  0
 95 94  1  0
M  ISO  4   1 100  20 100  55 101  56 101
M  END
>  <TORSDO>  (43) 
F 20

>  <SCORE>  (43) 
-11.883

>  <name>  (43) 
42

>  <ligand_id>  (43) 
42

>  <original_smiles>  (43) 
[H]c1c([H])c([H])c2c(c1[H])C([H])([H])C([H])([H])C([H])([H])C2([H])N([H])C(=O)C1([H])N(C(=O)C([H])(N([H])C(=O)C([H])(N([H])C([H])([H])[H])C([H])([H])[H])C(C([H])([H])[H])(C([H])([H])[H])C([H])([H])[H])C([H])([H])c2c([H])c(OC([H])([H])C([H])([H])C([H])([H])[N+]([H])([H])C([H])([H])c3c(C([H])([H])[H])c([H])c4c(c3C([H])([H])[H])N(C(=O)N3C([H])([H])C([H])([H])C([H])([H])C([H])(n5nc(-c6c([H])c([H])c(Oc7c([H])c([H])c(F)c([H])c7F)c([H])c6[H])c(C(=O)N([H])[H])c5N([H])[H])C3([H])[H])C([H])([H])C([H])([H])C4([H])[H])c([H])c([H])c2C1([H])[H]

>  <smiles>  (43) 
[H]c1c([H])c([H])c2c(c1[H])C([H])([H])C([H])([H])C([H])([H])C2([H])N([H])C(=O)C1([H])N(C(=O)C([H])(N([H])C(=O)C([H])(N([H])C([H])([H])[H])C([H])([H])[H])C(C([H])([H])[H])(C([H])([H])[H])C([H])([H])[H])C([H])([H])c2c([H])c(OC([H])([H])C([H])([H])C([H])([H])[N+]([H])([H])C([H])([H])c3c(C([H])([H])[H])c([H])c4c(c3C([H])([H])[H])N(C(=O)N3C([H])([H])C([H])([H])C([H])([H])C([H])(n5nc(-c6c([H])c([H])c(Oc7c([H])c([H])c(F)c([H])c7F)c([H])c6[H])c(C(=O)N([H])[H])c5N([H])[H])C3([H])[H])C([H])([H])C([H])([H])C4([H])[H])c([H])c([H])c2C1([H])[H]

$$$$
43:0:0
     RDKit          3D

 93101  0  0  1  0  0  0  0  0999 V2000
  -28.8640  -23.5170   19.4470 C   0  0  0  0  0  3  0  0  0  0  0  0
  -30.9140  -22.7650   17.7650 C   0  0  0  0  0  3  0  0  0  0  0  0
  -29.4270  -24.5380   18.6360 C   0  0  0  0  0  0  0  0  0  0  0  0
  -29.2640  -22.1480   19.4090 C   0  0  0  0  0  0  0  0  0  0  0  0
  -30.4960  -24.1310   17.7970 C   0  0  0  0  0  0  0  0  0  0  0  0
  -30.3030  -21.7230   18.5200 C   0  0  0  0  0  0  0  0  0  0  0  0
  -31.1700  -25.1320   16.8770 C   0  0  0  0  0  1  0  0  0  0  0  0
  -28.5220  -21.2180   20.3590 C   0  0  0  0  0  2  0  0  0  0  0  0
  -28.7120  -19.5940   22.3050 C   0  0  0  0  0  1  0  0  0  0  0  0
  -29.4250  -20.6620   21.4690 C   0  0  0  0  0  2  0  0  0  0  0  0
  -28.6530  -25.9010   18.5110 C   0  0  0  0  0  2  0  0  0  0  0  0
  -28.8690  -27.1090   19.3480 O   0  0  0  0  0  0  0  0  0  0  0  0
  -25.0890  -31.4490   23.7510 C   0  0  0  0  0  0  0  0  0  0  0  0
  -27.7440  -27.9470   19.5310 C   0  0  0  0  0  0  0  0  0  0  0  0
  -23.8790  -30.4650   21.8430 C   0  0  0  0  0  3  0  0  0  0  0  0
  -25.3290  -29.4140   20.0280 C   0  0  0  0  0  0  0  0  0  0  0  0
  -26.4030  -30.9210   21.6860 C   0  0  0  0  0  2  0  0  0  0  0  0
  -26.5040  -29.7610   20.7050 C   0  0  0  0  0  0  0  0  0  0  0  0
  -27.7110  -29.0320   20.4660 C   0  0  0  0  0  3  0  0  0  0  0  0
  -26.5420  -27.7110   18.8120 C   0  0  0  0  0  3  0  0  0  0  0  0
  -25.3490  -28.3920   19.0770 C   0  0  0  0  0  3  0  0  0  0  0  0
  -24.0650  -30.1870   20.3320 C   0  0  0  0  0  2  0  0  0  0  0  0
  -25.1430  -30.9480   22.4840 N   0  0  0  0  0  0  0  0  0  0  0  0
  -24.0150  -31.5350   24.3650 O   0  0  0  0  0  0  0  0  0  0  0  0
  -23.2920  -29.2030   22.5210 C   0  0  0  0  0  0  0  0  0  0  0  0
  -22.0240  -28.8820   22.2120 N   0  0  0  0  0  0  0  0  0  0  0  0
  -23.9810  -28.5240   23.2870 O   0  0  0  0  0  0  0  0  0  0  0  0
  -21.5220  -29.4940   21.5850 H   0  0  0  0  0  0  0  0  0  0  0  0
  -18.8790  -27.1110   21.9830 C   0  0  0  0  0  0  0  0  0  0  0  0
  -21.2850  -27.7210   22.7090 C   0  0  0  0  0  3  0  0  0  0  0  0
  -21.7220  -26.4280   21.9810 C   0  0  0  0  0  2  0  0  0  0  0  0
  -20.8510  -26.0970   20.7650 C   0  0  0  0  0  2  0  0  0  0  0  0
  -19.3870  -25.9260   21.1800 C   0  0  0  0  0  2  0  0  0  0  0  0
  -19.7710  -27.9620   22.6880 C   0  0  0  0  0  0  0  0  0  0  0  0
  -19.2470  -29.0710   23.3890 C   0  0  0  0  0  3  0  0  0  0  0  0
  -17.8630  -29.3280   23.3990 C   0  0  0  0  0  3  0  0  0  0  0  0
  -16.9840  -28.4730   22.7110 C   0  0  0  0  0  3  0  0  0  0  0  0
  -17.4920  -27.3660   22.0090 C   0  0  0  0  0  3  0  0  0  0  0  0
  -26.3690  -31.9620   24.4770 C   0  0  0  0  0  3  0  0  0  0  0  0
  -26.0980  -33.3310   24.9390 N   0  0  0  0  0  0  0  0  0  0  0  0
  -26.4530  -34.4420   24.2800 C   0  0  0  0  0  0  0  0  0  0  0  0
  -27.1150  -34.4190   23.2390 O   0  0  0  0  0  0  0  0  0  0  0  0
  -25.5170  -33.4250   25.7590 H   0  0  0  0  0  0  0  0  0  0  0  0
  -24.7590  -36.2930   24.1220 C   0  0  0  0  0  1  0  0  0  0  0  0
  -26.0020  -35.7910   24.8710 C   0  0  0  0  0  3  0  0  0  0  0  0
  -28.1510  -36.5690   25.7670 C   0  0  0  0  0  1  0  0  0  0  0  0
  -27.0560  -36.8290   24.8380 N   0  0  0  0  0  0  0  0  0  0  0  0
  -26.6660  -37.7420   25.0580 H   0  0  0  0  0  0  0  0  0  0  0  0
  -26.8060  -31.0450   25.6840 C   0  0  1  0  0  0  0  0  0  0  0  0
  -25.6590  -30.7260   26.6710 C   0  0  0  0  0  1  0  0  0  0  0  0
  -27.3750  -29.7000   25.1730 C   0  0  0  0  0  1  0  0  0  0  0  0
  -27.9400  -31.7310   26.4790 C   0  0  0  0  0  1  0  0  0  0  0  0
  -30.8220  -20.4260   18.3080 O   0  0  0  0  0  0  0  0  0  0  0  0
  -30.3200  -19.1750   18.8770 C   0  0  0  0  0  2  0  0  0  0  0  0
  -31.3350  -17.9730   18.7000 C   0  0  0  0  0  2  0  0  0  0  0  0
  -31.7570  -15.5090   19.1310 C   0  0  0  0  0  0  0  0  0  0  0  0
  -31.6140  -13.0980   18.5890 C   0  0  0  0  0  2  0  0  0  0  0  0
  -30.5580  -12.8820   17.4820 C   0  0  0  0  0  2  0  0  0  0  0  0
  -29.1580  -12.7050   18.0980 C   0  0  0  0  0  2  0  0  0  0  0  0
  -28.8270  -13.7850   19.1620 C   0  0  0  0  0  3  0  0  0  0  0  0
  -29.9950  -13.9910   20.1530 C   0  0  0  0  0  2  0  0  0  0  0  0
  -31.2010  -14.2810   19.3670 N   0  0  0  0  0  0  0  0  0  0  0  0
  -32.8800  -15.6220   18.6390 O   0  0  0  0  0  0  0  0  0  0  0  0
  -30.9580  -16.6120   19.2230 N   0  0  0  0  0  0  0  0  0  0  0  0
  -30.0190  -16.4800   19.5670 H   0  0  0  0  0  0  0  0  0  0  0  0
  -26.6220  -14.3770   20.3380 C   0  0  0  0  0  0  0  0  0  0  0  0
  -25.5980  -13.6020   20.8090 C   0  0  0  0  0  0  0  0  0  0  0  0
  -25.9850  -12.2470   20.5710 C   0  0  0  0  0  0  0  0  0  0  0  0
  -27.5710  -13.4950   19.8450 N   0  0  0  0  0  0  0  0  0  0  0  0
  -27.2040  -12.2030   20.0470 N   0  0  0  0  0  0  0  0  0  0  0  0
  -25.2440  -10.9930   20.7590 C   0  0  0  0  0  0  0  0  0  0  0  0
  -25.5240  -10.1240   21.8360 C   0  0  0  0  0  3  0  0  0  0  0  0
  -24.7830   -8.9340   22.0060 C   0  0  0  0  0  3  0  0  0  0  0  0
  -23.7480   -8.6060   21.0990 C   0  0  0  0  0  0  0  0  0  0  0  0
  -23.4890   -9.4630   20.0160 C   0  0  0  0  0  3  0  0  0  0  0  0
  -24.2300  -10.6450   19.8450 C   0  0  0  0  0  3  0  0  0  0  0  0
  -22.9930   -7.4600   21.1720 O   0  0  0  0  0  0  0  0  0  0  0  0
  -22.3550   -7.0920   22.3290 C   0  0  0  0  0  0  0  0  0  0  0  0
  -21.3670   -7.9050   22.9270 C   0  0  0  0  0  3  0  0  0  0  0  0
  -20.6870   -7.4550   24.0760 C   0  0  0  0  0  3  0  0  0  0  0  0
  -20.9830   -6.1920   24.6230 C   0  0  0  0  0  0  0  0  0  0  0  0
  -21.9610   -5.3780   24.0250 C   0  0  0  0  0  3  0  0  0  0  0  0
  -22.6420   -5.8260   22.8790 C   0  0  0  0  0  0  0  0  0  0  0  0
  -23.5690   -5.0290   22.2950 F   0  0  0  0  0  0  0  0  0  0  0  0
  -20.3240   -5.7580   25.7220 F   0  0  0  0  0  0  0  0  0  0  0  0
  -24.2890  -14.0890   21.3600 C   0  0  0  0  0  0  0  0  0  0  0  0
  -23.6940  -13.3380   22.2800 N   0  0  0  0  0  0  0  0  0  0  0  0
  -23.8100  -15.1680   21.0110 O   0  0  0  0  0  0  0  0  0  0  0  0
  -24.0960  -12.4600   22.5750 H   0  0  0  0  0  0  0  0  0  0  0  0
  -22.8240  -13.6410   22.6920 H   0  0  0  0  0  0  0  0  0  0  0  0
  -26.8200  -15.7530   20.2640 N   0  0  0  0  0  0  0  0  0  0  0  0
  -26.1180  -16.4180   20.5730 H   0  0  0  0  0  0  0  0  0  0  0  0
  -27.6120  -16.1950   19.8170 H   0  0  0  0  0  0  0  0  0  0  0  0
  2  5  2  0
  2  6  1  0
  3  1  2  0
  4  1  1  0
  4  8  1  0
  5  3  1  0
  6  4  2  0
  7  5  1  0
  8 10  1  0
 10  9  1  0
 11  3  1  0
 11 12  1  0
 12 14  1  0
 13 24  2  0
 14 19  1  0
 15 23  1  0
 15 25  1  0
 16 22  1  0
 16 18  1  0
 17 23  1  0
 18 17  1  0
 19 18  2  0
 20 21  1  0
 20 14  2  0
 21 16  2  0
 22 15  1  0
 23 13  1  0
 25 27  2  0
 26 25  1  0
 28 26  1  0
 29 38  2  0
 29 34  1  0
 30 26  1  0
 31 30  1  0
 32 33  1  0
 32 31  1  0
 33 29  1  0
 34 30  1  0
 34 35  2  0
 35 36  1  0
 37 36  2  0
 38 37  1  0
 39 13  1  0
 39 40  1  0
 39 49  1  0
 40 43  1  0
 41 45  1  0
 41 40  1  0
 42 41  2  0
 45 44  1  0
 47 45  1  0
 47 48  1  0
 47 46  1  0
 49 52  1  1
 49 50  1  0
 51 49  1  0
 53  6  1  0
 53 54  1  0
 55 54  1  0
 55 64  1  0
 56 64  1  0
 56 62  1  0
 57 62  1  0
 58 59  1  0
 58 57  1  0
 60 59  1  0
 60 69  1  0
 60 61  1  0
 62 61  1  0
 63 56  2  0
 64 65  1  0
 66 67  2  0
 67 86  1  0
 68 71  1  0
 68 67  1  0
 69 70  1  0
 69 66  1  0
 70 68  2  0
 71 72  1  0
 72 73  2  0
 74 77  1  0
 74 73  1  0
 75 74  2  0
 76 75  1  0
 76 71  2  0
 77 78  1  0
 78 83  2  0
 78 79  1  0
 79 80  2  0
 80 81  1  0
 81 85  1  0
 82 81  2  0
 83 82  1  0
 84 83  1  0
 86 87  1  0
 87 89  1  0
 87 90  1  0
 88 86  2  0
 91 66  1  0
 91 92  1  0
 93 91  1  0
M  ISO  4  11 101  12 101  56 100  64 100
M  END
>  <TORSDO>  (44) 
F 22

>  <SCORE>  (44) 
-5.558

>  <name>  (44) 
43

>  <ligand_id>  (44) 
43

>  <original_smiles>  (44) 
[H]c1c([H])c([H])c2c(c1[H])C([H])([H])C([H])([H])C([H])([H])C2([H])N([H])C(=O)C1([H])N(C(=O)C([H])(N([H])C(=O)C([H])(N([H])C([H])([H])[H])C([H])([H])[H])C(C([H])([H])[H])(C([H])([H])[H])C([H])([H])[H])C([H])([H])c2c([H])c(OC([H])([H])c3c([H])c(C([H])([H])C([H])([H])C([H])([H])[H])c(OC([H])([H])C([H])([H])N([H])C(=O)N4C([H])([H])C([H])([H])C([H])([H])C([H])(n5nc(-c6c([H])c([H])c(Oc7c([H])c([H])c(F)c([H])c7F)c([H])c6[H])c(C(=O)N([H])[H])c5N([H])[H])C4([H])[H])c([H])c3C([H])([H])[H])c([H])c([H])c2C1([H])[H]

>  <smiles>  (44) 
[H]c1c([H])c([H])c2c(c1[H])C([H])([H])C([H])([H])C([H])([H])C2([H])N([H])C(=O)C1([H])N(C(=O)C([H])(N([H])C(=O)C([H])(N([H])C([H])([H])[H])C([H])([H])[H])C(C([H])([H])[H])(C([H])([H])[H])C([H])([H])[H])C([H])([H])c2c([H])c(OC([H])([H])c3c([H])c(C([H])([H])C([H])([H])C([H])([H])[H])c(OC([H])([H])C([H])([H])N([H])C(=O)N4C([H])([H])C([H])([H])C([H])([H])C([H])(n5nc(-c6c([H])c([H])c(Oc7c([H])c([H])c(F)c([H])c7F)c([H])c6[H])c(C(=O)N([H])[H])c5N([H])[H])C4([H])[H])c([H])c3C([H])([H])[H])c([H])c([H])c2C1([H])[H]

$$$$
44:0:0
     RDKit          3D

 97107  0  0  1  0  0  0  0  0999 V2000
  -30.1610  -21.4120   21.3120 C   0  0  0  0  0  3  0  0  0  0  0  0
  -29.2730  -22.0980   20.4630 C   0  0  0  0  0  0  0  0  0  0  0  0
  -29.3550  -19.2300   20.5320 C   0  0  0  0  0  0  0  0  0  0  0  0
  -30.2290  -20.0060   21.3450 C   0  0  0  0  0  0  0  0  0  0  0  0
  -28.4980  -21.3450   19.5410 C   0  0  0  0  0  0  0  0  0  0  0  0
  -28.5650  -19.9160   19.5540 C   0  0  0  0  0  0  0  0  0  0  0  0
  -31.2740  -19.4130   22.2800 C   0  0  0  0  0  1  0  0  0  0  0  0
  -27.5870  -22.0970   18.5670 C   0  0  0  0  0  1  0  0  0  0  0  0
  -27.7860  -19.1140   18.5070 C   0  0  0  0  0  1  0  0  0  0  0  0
  -30.8950  -14.4870   20.0060 C   0  0  0  0  0  0  0  0  0  0  0  0
  -30.4730  -12.3900   18.7730 C   0  0  0  0  0  2  0  0  0  0  0  0
  -29.4230  -12.6330   17.6690 C   0  0  0  0  0  2  0  0  0  0  0  0
  -27.9890  -12.4970   18.2180 C   0  0  0  0  0  2  0  0  0  0  0  0
  -27.7770  -13.2810   19.5390 C   0  0  0  0  0  3  0  0  0  0  0  0
  -28.9200  -12.9900   20.5330 C   0  0  0  0  0  2  0  0  0  0  0  0
  -30.1940  -13.3260   19.8740 N   0  0  0  0  0  0  0  0  0  0  0  0
  -31.9590  -14.6880   19.4090 O   0  0  0  0  0  0  0  0  0  0  0  0
  -29.3150  -17.1000   22.1190 C   0  0  0  0  0  2  0  0  0  0  0  0
  -30.1540  -15.8200   21.9690 C   0  0  0  0  0  2  0  0  0  0  0  0
  -30.1480  -16.8230   19.8440 C   0  0  0  0  0  2  0  0  0  0  0  0
  -29.2230  -17.6920   20.7020 C   0  0  0  0  0  3  0  0  0  0  0  0
  -30.2070  -15.5280   20.5330 N   0  0  0  0  0  0  0  0  0  0  0  0
  -25.4680  -13.8870   20.5030 C   0  0  0  0  0  0  0  0  0  0  0  0
  -24.4200  -13.1120   20.9200 C   0  0  0  0  0  0  0  0  0  0  0  0
  -24.8440  -11.7570   20.7680 C   0  0  0  0  0  0  0  0  0  0  0  0
  -26.4670  -13.0020   20.1240 N   0  0  0  0  0  0  0  0  0  0  0  0
  -26.1010  -11.7140   20.3410 N   0  0  0  0  0  0  0  0  0  0  0  0
  -24.1130  -10.4980   20.9510 C   0  0  0  0  0  0  0  0  0  0  0  0
  -24.5590   -9.5090   21.8560 C   0  0  0  0  0  3  0  0  0  0  0  0
  -23.8290   -8.3140   22.0300 C   0  0  0  0  0  3  0  0  0  0  0  0
  -22.6380   -8.0980   21.2960 C   0  0  0  0  0  0  0  0  0  0  0  0
  -22.2120   -9.0740   20.3780 C   0  0  0  0  0  3  0  0  0  0  0  0
  -22.9420  -10.2610   20.2040 C   0  0  0  0  0  3  0  0  0  0  0  0
  -21.8790   -6.9560   21.3790 O   0  0  0  0  0  0  0  0  0  0  0  0
  -21.7770   -6.2420   22.5450 C   0  0  0  0  0  0  0  0  0  0  0  0
  -21.3050   -6.8310   23.7390 C   0  0  0  0  0  3  0  0  0  0  0  0
  -21.1470   -6.0420   24.8970 C   0  0  0  0  0  3  0  0  0  0  0  0
  -21.4520   -4.6690   24.8620 C   0  0  0  0  0  0  0  0  0  0  0  0
  -21.9180   -4.0810   23.6730 C   0  0  0  0  0  3  0  0  0  0  0  0
  -22.0760   -4.8650   22.5170 C   0  0  0  0  0  0  0  0  0  0  0  0
  -22.5040   -4.2890   21.3680 F   0  0  0  0  0  0  0  0  0  0  0  0
  -21.2940   -3.9110   25.9720 F   0  0  0  0  0  0  0  0  0  0  0  0
  -23.0630  -13.5950   21.3490 C   0  0  0  0  0  0  0  0  0  0  0  0
  -22.4180  -12.8770   22.2610 N   0  0  0  0  0  0  0  0  0  0  0  0
  -22.5890  -14.6430   20.9120 O   0  0  0  0  0  0  0  0  0  0  0  0
  -22.8180  -12.0270   22.6320 H   0  0  0  0  0  0  0  0  0  0  0  0
  -21.5160  -13.1830   22.5960 H   0  0  0  0  0  0  0  0  0  0  0  0
  -25.6520  -15.2620   20.3980 N   0  0  0  0  0  0  0  0  0  0  0  0
  -24.9360  -15.9310   20.6570 H   0  0  0  0  0  0  0  0  0  0  0  0
  -26.5050  -15.6970   20.0700 H   0  0  0  0  0  0  0  0  0  0  0  0
  -30.4570  -24.3640   20.1080 C   0  0  0  0  0  2  0  0  0  0  0  0
  -28.8000  -24.0830   22.0100 C   0  0  0  0  0  2  0  0  0  0  0  0
  -30.6310  -25.7830   20.7120 C   0  0  0  0  0  2  0  0  0  0  0  0
  -28.5080  -25.5990   22.1010 C   0  0  0  0  0  2  0  0  0  0  0  0
  -29.1800  -23.6350   20.5850 C   0  0  0  0  0  3  0  0  0  0  0  0
  -29.3100  -26.4750   21.0990 C   0  0  0  0  0  3  0  0  0  0  0  0
  -28.5830  -26.7080   19.8900 O   0  0  0  0  0  0  0  0  0  0  0  0
  -24.5470  -31.7250   23.0440 C   0  0  0  0  0  0  0  0  0  0  0  0
  -27.4190  -27.4430   19.9520 C   0  0  0  0  0  0  0  0  0  0  0  0
  -23.4200  -30.2960   21.3670 C   0  0  0  0  0  3  0  0  0  0  0  0
  -24.9580  -28.8320   19.9490 C   0  0  0  0  0  0  0  0  0  0  0  0
  -25.9290  -30.7600   21.2110 C   0  0  0  0  0  2  0  0  0  0  0  0
  -26.0810  -29.4000   20.5650 C   0  0  0  0  0  0  0  0  0  0  0  0
  -27.3150  -28.7090   20.5760 C   0  0  0  0  0  3  0  0  0  0  0  0
  -26.2840  -26.8950   19.3240 C   0  0  0  0  0  3  0  0  0  0  0  0
  -25.0530  -27.5770   19.3250 C   0  0  0  0  0  3  0  0  0  0  0  0
  -23.6760  -29.6320   19.9860 C   0  0  0  0  0  2  0  0  0  0  0  0
  -24.6470  -30.9420   21.9330 N   0  0  0  0  0  0  0  0  0  0  0  0
  -23.4500  -31.9500   23.5720 O   0  0  0  0  0  0  0  0  0  0  0  0
  -22.7930  -29.2430   22.3060 C   0  0  0  0  0  0  0  0  0  0  0  0
  -21.4770  -29.0180   22.1590 N   0  0  0  0  0  0  0  0  0  0  0  0
  -23.4870  -28.6280   23.1220 O   0  0  0  0  0  0  0  0  0  0  0  0
  -20.9790  -29.5640   21.4700 H   0  0  0  0  0  0  0  0  0  0  0  0
  -18.1370  -27.7140   22.6020 C   0  0  0  0  0  0  0  0  0  0  0  0
  -20.6820  -28.0430   22.9030 C   0  0  0  0  0  3  0  0  0  0  0  0
  -20.8350  -26.6270   22.3010 C   0  0  0  0  0  2  0  0  0  0  0  0
  -19.7520  -26.2900   21.2710 C   0  0  0  0  0  2  0  0  0  0  0  0
  -18.3610  -26.3820   21.9040 C   0  0  0  0  0  2  0  0  0  0  0  0
  -19.2280  -28.5010   23.0560 C   0  0  0  0  0  0  0  0  0  0  0  0
  -18.9670  -29.7470   23.6670 C   0  0  0  0  0  3  0  0  0  0  0  0
  -17.6460  -30.2080   23.8270 C   0  0  0  0  0  3  0  0  0  0  0  0
  -16.5690  -29.4160   23.3930 C   0  0  0  0  0  3  0  0  0  0  0  0
  -16.8160  -28.1710   22.7880 C   0  0  0  0  0  3  0  0  0  0  0  0
  -25.8010  -32.3950   23.6910 C   0  0  0  0  0  3  0  0  0  0  0  0
  -25.4300  -33.7670   24.0620 N   0  0  0  0  0  0  0  0  0  0  0  0
  -25.7170  -34.8540   23.3340 C   0  0  0  0  0  0  0  0  0  0  0  0
  -26.3930  -34.8110   22.3040 O   0  0  0  0  0  0  0  0  0  0  0  0
  -24.8310  -33.8710   24.8680 H   0  0  0  0  0  0  0  0  0  0  0  0
  -23.9110  -36.5750   23.0200 C   0  0  0  0  0  1  0  0  0  0  0  0
  -25.1640  -36.2050   23.8290 C   0  0  0  0  0  3  0  0  0  0  0  0
  -27.2520  -37.1570   24.7010 C   0  0  0  0  0  1  0  0  0  0  0  0
  -26.1480  -37.3060   23.7550 N   0  0  0  0  0  0  0  0  0  0  0  0
  -25.7010  -38.2030   23.9280 H   0  0  0  0  0  0  0  0  0  0  0  0
  -26.3510  -31.6060   24.9420 C   0  0  1  0  0  0  0  0  0  0  0  0
  -25.2680  -31.2760   25.9940 C   0  0  0  0  0  1  0  0  0  0  0  0
  -27.0040  -30.2730   24.5040 C   0  0  0  0  0  1  0  0  0  0  0  0
  -27.4600  -32.4320   25.6360 C   0  0  0  0  0  1  0  0  0  0  0  0
  1  4  1  0
  2  1  2  0
  3  4  2  0
  4  7  1  0
  5  6  2  0
  5  2  1  0
  6  3  1  0
  8  5  1  0
  9  6  1  0
 10 22  1  0
 11 16  1  0
 12 13  1  0
 12 11  1  0
 14 13  1  0
 14 26  1  0
 14 15  1  0
 16 10  1  0
 16 15  1  0
 17 10  2  0
 19 18  1  0
 20 22  1  0
 20 21  1  0
 21  3  1  0
 21 18  1  0
 22 19  1  0
 23 24  2  0
 24 43  1  0
 25 24  1  0
 25 28  1  0
 26 27  1  0
 26 23  1  0
 27 25  2  0
 28 29  1  0
 29 30  2  0
 31 34  1  0
 31 30  1  0
 32 31  2  0
 33 32  1  0
 33 28  2  0
 34 35  1  0
 35 36  1  0
 36 37  2  0
 38 37  1  0
 38 42  1  0
 39 38  2  0
 40 35  2  0
 40 39  1  0
 41 40  1  0
 43 44  1  0
 44 47  1  0
 44 46  1  0
 45 43  2  0
 48 23  1  0
 48 49  1  0
 50 48  1  0
 51 55  1  0
 51 53  1  0
 52 54  1  0
 53 56  1  0
 55  2  1  0
 55 52  1  0
 56 57  1  0
 56 54  1  0
 57 59  1  0
 58 69  2  0
 59 64  1  0
 60 68  1  0
 60 70  1  0
 61 67  1  0
 61 63  1  0
 62 68  1  0
 63 64  2  0
 63 62  1  0
 65 66  1  0
 65 59  2  0
 66 61  2  0
 67 60  1  0
 68 58  1  0
 70 72  2  0
 71 70  1  0
 73 71  1  0
 74 83  2  0
 74 79  1  0
 75 71  1  0
 75 79  1  0
 76 75  1  0
 77 78  1  0
 77 76  1  0
 78 74  1  0
 79 80  2  0
 80 81  1  0
 82 81  2  0
 83 82  1  0
 84 58  1  0
 84 85  1  0
 84 94  1  0
 85 88  1  0
 86 90  1  0
 86 85  1  0
 87 86  2  0
 90 89  1  0
 92 90  1  0
 92 93  1  0
 92 91  1  0
 94 97  1  1
 94 95  1  0
 96 94  1  0
M  ISO  4  10 100  22 100  56 101  57 101
M  END
>  <TORSDO>  (45) 
F 17

>  <SCORE>  (45) 
-13.744

>  <name>  (45) 
44

>  <ligand_id>  (45) 
44

>  <original_smiles>  (45) 
[H]c1c([H])c([H])c2c(c1[H])C([H])([H])C([H])([H])C([H])([H])C2([H])N([H])C(=O)C1([H])N(C(=O)C([H])(N([H])C(=O)C([H])(N([H])C([H])([H])[H])C([H])([H])[H])C(C([H])([H])[H])(C([H])([H])[H])C([H])([H])[H])C([H])([H])c2c([H])c(OC3([H])C([H])([H])C([H])([H])C([H])(c4c([H])c(C([H])([H])[H])c(C5([H])C([H])([H])N(C(=O)N6C([H])([H])C([H])([H])C([H])([H])C([H])(n7nc(-c8c([H])c([H])c(Oc9c([H])c([H])c(F)c([H])c9F)c([H])c8[H])c(C(=O)N([H])[H])c7N([H])[H])C6([H])[H])C([H])([H])C5([H])[H])c(C([H])([H])[H])c4C([H])([H])[H])C([H])([H])C3([H])[H])c([H])c([H])c2C1([H])[H]

>  <smiles>  (45) 
[H]c1c([H])c([H])c2c(c1[H])C([H])([H])C([H])([H])C([H])([H])C2([H])N([H])C(=O)C1([H])N(C(=O)C([H])(N([H])C(=O)C([H])(N([H])C([H])([H])[H])C([H])([H])[H])C(C([H])([H])[H])(C([H])([H])[H])C([H])([H])[H])C([H])([H])c2c([H])c(OC3([H])C([H])([H])C([H])([H])C([H])(c4c([H])c(C([H])([H])[H])c(C5([H])C([H])([H])N(C(=O)N6C([H])([H])C([H])([H])C([H])([H])C([H])(n7nc(-c8c([H])c([H])c(Oc9c([H])c([H])c(F)c([H])c9F)c([H])c8[H])c(C(=O)N([H])[H])c7N([H])[H])C6([H])[H])C([H])([H])C5([H])[H])c(C([H])([H])[H])c4C([H])([H])[H])C([H])([H])C3([H])[H])c([H])c([H])c2C1([H])[H]

$$$$
45:0:0
     RDKit          3D

104115  0  0  1  0  0  0  0  0999 V2000
  -30.0400  -22.7690   19.0640 C   0  0  0  0  0  0  0  0  0  0  0  0
  -28.9270  -21.8970   18.8870 C   0  0  0  0  0  0  0  0  0  0  0  0
  -31.9020  -21.0930   19.2830 C   0  0  0  0  0  0  0  0  0  0  0  0
  -33.0500  -20.9200   20.1100 C   0  0  0  0  0  0  0  0  0  0  0  0
  -29.8710  -24.0300   19.7030 C   0  0  0  0  0  0  0  0  0  0  0  0
  -27.6750  -22.2610   19.4660 C   0  0  0  0  0  0  0  0  0  0  0  0
  -27.5660  -23.4200   20.2830 C   0  0  0  0  0  0  0  0  0  0  0  0
  -28.6430  -24.3500   20.3410 C   0  0  0  0  0  0  0  0  0  0  0  0
  -31.2820  -19.8780   19.2310 C   0  0  0  0  0  0  0  0  0  0  0  0
  -33.1370  -19.6150   20.5040 C   0  0  0  0  0  0  0  0  0  0  0  0
  -31.4320  -22.3430   18.5890 C   0  0  0  0  0  2  0  0  0  0  0  0
  -30.0030  -19.4810   18.5580 C   0  0  0  0  0  2  0  0  0  0  0  0
  -29.0470  -20.5940   18.0460 C   0  0  0  0  0  3  0  0  0  0  0  0
  -31.0310  -25.0350   19.7060 C   0  0  0  0  0  1  0  0  0  0  0  0
  -26.4260  -21.4110   19.2030 C   0  0  0  0  0  1  0  0  0  0  0  0
  -26.2780  -23.6340   21.0860 C   0  0  0  0  0  1  0  0  0  0  0  0
  -34.1460  -18.9130   21.3630 C   0  0  0  0  0  1  0  0  0  0  0  0
  -29.1500  -20.8630   16.5310 C   0  0  0  0  0  1  0  0  0  0  0  0
  -32.0730  -18.9490   19.9070 N   0  0  0  0  0  0  0  0  0  0  0  0
  -34.7990  -22.7770   19.4400 C   0  0  0  0  0  2  0  0  0  0  0  0
  -35.5190  -21.8360   20.3750 C   0  0  0  0  0  2  0  0  0  0  0  0
  -34.0210  -22.0170   20.4910 C   0  0  0  0  0  3  0  0  0  0  0  0
  -28.5140  -25.6890   21.0830 C   0  0  0  0  0  2  0  0  0  0  0  0
  -28.5480  -26.8130   20.1980 O   0  0  0  0  0  0  0  0  0  0  0  0
  -24.6040  -31.8750   23.2220 C   0  0  0  0  0  0  0  0  0  0  0  0
  -27.3770  -27.5240   20.1680 C   0  0  0  0  0  0  0  0  0  0  0  0
  -23.4490  -30.4620   21.5520 C   0  0  0  0  0  3  0  0  0  0  0  0
  -24.9540  -28.9580   20.1440 C   0  0  0  0  0  0  0  0  0  0  0  0
  -25.9660  -30.8750   21.3950 C   0  0  0  0  0  2  0  0  0  0  0  0
  -26.0890  -29.5090   20.7550 C   0  0  0  0  0  0  0  0  0  0  0  0
  -27.3050  -28.7970   20.7670 C   0  0  0  0  0  3  0  0  0  0  0  0
  -26.2370  -26.9830   19.5420 C   0  0  0  0  0  3  0  0  0  0  0  0
  -25.0210  -27.6930   19.5350 C   0  0  0  0  0  3  0  0  0  0  0  0
  -23.6920  -29.7890   20.1730 C   0  0  0  0  0  2  0  0  0  0  0  0
  -24.6900  -31.0840   22.1170 N   0  0  0  0  0  0  0  0  0  0  0  0
  -23.5100  -32.1270   23.7460 O   0  0  0  0  0  0  0  0  0  0  0  0
  -22.8000  -29.4260   22.4960 C   0  0  0  0  0  0  0  0  0  0  0  0
  -21.4820  -29.2210   22.3410 N   0  0  0  0  0  0  0  0  0  0  0  0
  -23.4780  -28.8090   23.3220 O   0  0  0  0  0  0  0  0  0  0  0  0
  -20.9970  -29.7690   21.6450 H   0  0  0  0  0  0  0  0  0  0  0  0
  -18.1210  -27.9650   22.7590 C   0  0  0  0  0  0  0  0  0  0  0  0
  -20.6650  -28.2670   23.0910 C   0  0  0  0  0  3  0  0  0  0  0  0
  -20.8070  -26.8400   22.5120 C   0  0  0  0  0  2  0  0  0  0  0  0
  -19.7350  -26.5010   21.4730 C   0  0  0  0  0  2  0  0  0  0  0  0
  -18.3360  -26.6220   22.0860 C   0  0  0  0  0  2  0  0  0  0  0  0
  -19.2150  -28.7460   23.2170 C   0  0  0  0  0  0  0  0  0  0  0  0
  -18.9620  -30.0040   23.8040 C   0  0  0  0  0  3  0  0  0  0  0  0
  -17.6460  -30.4850   23.9400 C   0  0  0  0  0  3  0  0  0  0  0  0
  -16.5650  -29.7010   23.5000 C   0  0  0  0  0  3  0  0  0  0  0  0
  -16.8020  -28.4440   22.9160 C   0  0  0  0  0  3  0  0  0  0  0  0
  -25.8710  -32.5220   23.8680 C   0  0  0  0  0  3  0  0  0  0  0  0
  -26.3730  -31.7590   25.1540 C   0  0  1  0  0  0  0  0  0  0  0  0
  -25.2610  -31.5030   26.1980 C   0  0  0  0  0  1  0  0  0  0  0  0
  -26.9840  -30.3920   24.7710 C   0  0  0  0  0  1  0  0  0  0  0  0
  -27.4970  -32.5700   25.8400 C   0  0  0  0  0  1  0  0  0  0  0  0
  -25.5420  -33.9180   24.1850 N   0  0  0  0  0  0  0  0  0  0  0  0
  -25.8800  -34.9690   23.4260 C   0  0  0  0  0  0  0  0  0  0  0  0
  -26.5730  -34.8670   22.4100 O   0  0  0  0  0  0  0  0  0  0  0  0
  -24.9310  -34.0720   24.9740 H   0  0  0  0  0  0  0  0  0  0  0  0
  -24.1440  -36.7420   23.0150 C   0  0  0  0  0  1  0  0  0  0  0  0
  -25.3670  -36.3540   23.8640 C   0  0  0  0  0  3  0  0  0  0  0  0
  -27.4640  -37.2640   24.7560 C   0  0  0  0  0  1  0  0  0  0  0  0
  -26.3920  -37.4170   23.7770 N   0  0  0  0  0  0  0  0  0  0  0  0
  -25.9720  -38.3340   23.9050 H   0  0  0  0  0  0  0  0  0  0  0  0
  -31.8660  -17.5020   19.9170 C   0  0  0  0  0  3  0  0  0  0  0  0
  -30.9770  -16.9610   21.0680 C   0  0  0  0  0  3  0  0  0  0  0  0
  -31.0810  -14.5540   20.2500 C   0  0  0  0  0  0  0  0  0  0  0  0
  -30.6500  -12.4400   19.0720 C   0  0  0  0  0  2  0  0  0  0  0  0
  -29.6940  -12.6980   17.8920 C   0  0  0  0  0  2  0  0  0  0  0  0
  -28.2280  -12.5930   18.3550 C   0  0  0  0  0  2  0  0  0  0  0  0
  -27.9430  -13.4240   19.6340 C   0  0  0  0  0  3  0  0  0  0  0  0
  -29.0170  -13.1720   20.7170 C   0  0  0  0  0  2  0  0  0  0  0  0
  -30.3380  -13.4250   20.1190 N   0  0  0  0  0  0  0  0  0  0  0  0
  -32.1790  -14.6820   19.7090 O   0  0  0  0  0  0  0  0  0  0  0  0
  -30.4970  -15.5720   20.9040 N   0  0  0  0  0  0  0  0  0  0  0  0
  -29.5910  -15.3670   21.3000 H   0  0  0  0  0  0  0  0  0  0  0  0
  -25.5720  -14.0690   20.4000 C   0  0  0  0  0  0  0  0  0  0  0  0
  -24.4980  -13.3130   20.7890 C   0  0  0  0  0  0  0  0  0  0  0  0
  -24.9340  -11.9540   20.7390 C   0  0  0  0  0  0  0  0  0  0  0  0
  -26.5950  -13.1710   20.1410 N   0  0  0  0  0  0  0  0  0  0  0  0
  -26.2160  -11.8930   20.4020 N   0  0  0  0  0  0  0  0  0  0  0  0
  -24.1900  -10.7040   20.9400 C   0  0  0  0  0  0  0  0  0  0  0  0
  -24.5990   -9.7450   21.8940 C   0  0  0  0  0  3  0  0  0  0  0  0
  -23.8560   -8.5600   22.0810 C   0  0  0  0  0  3  0  0  0  0  0  0
  -22.6910   -8.3230   21.3130 C   0  0  0  0  0  0  0  0  0  0  0  0
  -22.3020   -9.2710   20.3480 C   0  0  0  0  0  3  0  0  0  0  0  0
  -23.0450  -10.4470   20.1600 C   0  0  0  0  0  3  0  0  0  0  0  0
  -21.9220   -7.1890   21.4070 O   0  0  0  0  0  0  0  0  0  0  0  0
  -21.8230   -6.4820   22.5800 C   0  0  0  0  0  0  0  0  0  0  0  0
  -21.3230   -7.0700   23.7620 C   0  0  0  0  0  3  0  0  0  0  0  0
  -21.1710   -6.2890   24.9260 C   0  0  0  0  0  3  0  0  0  0  0  0
  -21.5090   -4.9220   24.9080 C   0  0  0  0  0  0  0  0  0  0  0  0
  -22.0010   -4.3360   23.7290 C   0  0  0  0  0  3  0  0  0  0  0  0
  -22.1540   -5.1130   22.5670 C   0  0  0  0  0  0  0  0  0  0  0  0
  -22.6090   -4.5370   21.4280 F   0  0  0  0  0  0  0  0  0  0  0  0
  -21.3550   -4.1710   26.0220 F   0  0  0  0  0  0  0  0  0  0  0  0
  -23.1170  -13.8140   21.0980 C   0  0  0  0  0  0  0  0  0  0  0  0
  -22.3990  -13.1260   21.9790 N   0  0  0  0  0  0  0  0  0  0  0  0
  -22.6850  -14.8490   20.5930 O   0  0  0  0  0  0  0  0  0  0  0  0
  -22.7620  -12.2870   22.4060 H   0  0  0  0  0  0  0  0  0  0  0  0
  -21.4720  -13.4430   22.2280 H   0  0  0  0  0  0  0  0  0  0  0  0
  -25.7570  -15.4380   20.2250 N   0  0  0  0  0  0  0  0  0  0  0  0
  -25.0060  -16.1070   20.3520 H   0  0  0  0  0  0  0  0  0  0  0  0
  -26.6110  -15.8620   19.8840 H   0  0  0  0  0  0  0  0  0  0  0  0
  1  5  1  0
  2  1  2  0
  2  6  1  0
  3  4  1  0
  4 22  1  0
  4 10  2  0
  5 14  1  0
  5  8  2  0
  6  7  2  0
  7  8  1  0
  7 16  1  0
  8 23  1  0
  9  3  2  0
  9 19  1  0
 10 17  1  0
 11  1  1  0
 11  3  1  0
 12  9  1  0
 13 18  1  0
 13 12  1  0
 13  2  1  0
 15  6  1  0
 19 65  1  0
 19 10  1  0
 20 21  1  0
 20 22  1  0
 21 22  1  0
 24 23  1  0
 25 36  2  0
 26 24  1  0
 26 31  1  0
 27 35  1  0
 27 37  1  0
 28 34  1  0
 28 30  1  0
 29 35  1  0
 30 31  2  0
 30 29  1  0
 32 26  2  0
 33 32  1  0
 33 28  2  0
 34 27  1  0
 35 25  1  0
 37 39  2  0
 38 37  1  0
 40 38  1  0
 41 50  2  0
 41 46  1  0
 42 38  1  0
 42 46  1  0
 43 42  1  0
 44 45  1  0
 44 43  1  0
 45 41  1  0
 46 47  2  0
 47 48  1  0
 49 48  2  0
 50 49  1  0
 51 25  1  0
 51 56  1  0
 51 52  1  0
 52 55  1  1
 52 53  1  0
 54 52  1  0
 56 59  1  0
 57 61  1  0
 57 56  1  0
 58 57  2  0
 61 60  1  0
 63 61  1  0
 63 64  1  0
 63 62  1  0
 65 66  2  0
 67 75  1  0
 68 73  1  0
 69 70  1  0
 69 68  1  0
 71 70  1  0
 71 80  1  0
 71 72  1  0
 73 67  1  0
 73 72  1  0
 74 67  2  0
 75 66  1  0
 75 76  1  0
 77 78  2  0
 78 97  1  0
 79 78  1  0
 79 82  1  0
 80 77  1  0
 80 81  1  0
 81 79  2  0
 82 83  1  0
 83 84  2  0
 85 88  1  0
 85 84  1  0
 86 85  2  0
 87 86  1  0
 87 82  2  0
 88 89  1  0
 89 90  1  0
 90 91  2  0
 92 91  1  0
 92 96  1  0
 93 92  2  0
 94 89  2  0
 94 93  1  0
 95 94  1  0
 97 98  1  0
 98101  1  0
 98100  1  0
 99 97  2  0
102103  1  0
102 77  1  0
104102  1  0
M  ISO  4  23 101  24 101  67 100  75 100
M  END
>  <TORSDO>  (46) 
F 20

>  <SCORE>  (46) 
-13.680

>  <name>  (46) 
45

>  <ligand_id>  (46) 
45

>  <original_smiles>  (46) 
[H]c1c([H])c([H])c2c(c1[H])C([H])([H])C([H])([H])C([H])([H])C2([H])N([H])C(=O)C1([H])N(C(=O)C([H])(N([H])C(=O)C([H])(N([H])C([H])([H])[H])C([H])([H])[H])C(C([H])([H])[H])(C([H])([H])[H])C([H])([H])[H])C([H])([H])c2c([H])c(OC([H])([H])c3c(C([H])([H])[H])c(C([H])([H])[H])c4c(c3C([H])([H])[H])C([H])([H])c3c(C5([H])C([H])([H])C5([H])[H])c(C([H])([H])[H])n(C([H])([H])C([H])([H])N([H])C(=O)N5C([H])([H])C([H])([H])C([H])([H])C([H])(n6nc(-c7c([H])c([H])c(Oc8c([H])c([H])c(F)c([H])c8F)c([H])c7[H])c(C(=O)N([H])[H])c6N([H])[H])C5([H])[H])c3C([H])([H])C4([H])C([H])([H])[H])c([H])c([H])c2C1([H])[H]

>  <smiles>  (46) 
[H]c1c([H])c([H])c2c(c1[H])C([H])([H])C([H])([H])C([H])([H])C2([H])N([H])C(=O)C1([H])N(C(=O)C([H])(N([H])C(=O)C([H])(N([H])C([H])([H])[H])C([H])([H])[H])C(C([H])([H])[H])(C([H])([H])[H])C([H])([H])[H])C([H])([H])c2c([H])c(OC([H])([H])c3c(C([H])([H])[H])c(C([H])([H])[H])c4c(c3C([H])([H])[H])C([H])([H])c3c(C5([H])C([H])([H])C5([H])[H])c(C([H])([H])[H])n(C([H])([H])C([H])([H])N([H])C(=O)N5C([H])([H])C([H])([H])C([H])([H])C([H])(n6nc(-c7c([H])c([H])c(Oc8c([H])c([H])c(F)c([H])c8F)c([H])c7[H])c(C(=O)N([H])[H])c6N([H])[H])C5([H])[H])c3C([H])([H])C4([H])C([H])([H])[H])c([H])c([H])c2C1([H])[H]

$$$$
46:0:0
     RDKit          3D

100109  0  0  1  0  0  0  0  0999 V2000
  -26.0100  -21.9630   19.2600 C   0  0  0  0  0  0  0  0  0  0  0  0
  -26.7550  -21.8960   18.0490 C   0  0  0  0  0  0  0  0  0  0  0  0
  -26.6450  -22.4850   20.4160 C   0  0  0  0  0  0  0  0  0  0  0  0
  -28.1760  -21.9750   18.1290 C   0  0  0  0  0  0  0  0  0  0  0  0
  -27.9920  -22.9160   20.2930 C   0  0  0  0  0  0  0  0  0  0  0  0
  -28.7430  -22.0460   19.4270 C   0  0  0  0  0  0  0  0  0  0  0  0
  -24.5640  -21.4820   19.3320 C   0  0  0  0  0  1  0  0  0  0  0  0
  -26.0490  -21.5710   16.7400 C   0  0  0  0  0  1  0  0  0  0  0  0
  -25.8890  -22.6260   21.7290 C   0  0  0  0  0  1  0  0  0  0  0  0
  -29.0640  -21.8960   16.8970 C   0  0  0  0  0  1  0  0  0  0  0  0
  -29.2620  -24.7830   21.6070 C   0  0  0  0  0  1  0  0  0  0  0  0
  -28.2110  -24.4830   20.5170 C   0  0  0  0  0  3  0  0  0  0  0  0
  -28.3880  -25.4410   19.2450 C   0  0  0  0  0  2  0  0  0  0  0  0
  -28.4250  -26.9250   19.4120 O   0  0  0  0  0  0  0  0  0  0  0  0
  -24.7060  -31.8080   23.1710 C   0  0  0  0  0  0  0  0  0  0  0  0
  -27.2780  -27.7300   19.4840 C   0  0  0  0  0  0  0  0  0  0  0  0
  -23.4650  -30.5900   21.4280 C   0  0  0  0  0  3  0  0  0  0  0  0
  -24.8830  -29.2830   19.7510 C   0  0  0  0  0  0  0  0  0  0  0  0
  -25.9820  -31.0140   21.1700 C   0  0  0  0  0  2  0  0  0  0  0  0
  -26.0680  -29.7340   20.3430 C   0  0  0  0  0  0  0  0  0  0  0  0
  -27.2670  -28.9690   20.2020 C   0  0  0  0  0  3  0  0  0  0  0  0
  -26.0690  -27.3300   18.8790 C   0  0  0  0  0  3  0  0  0  0  0  0
  -24.8850  -28.0840   19.0140 C   0  0  0  0  0  3  0  0  0  0  0  0
  -23.6310  -30.1160   19.9610 C   0  0  0  0  0  2  0  0  0  0  0  0
  -24.7410  -31.1450   21.9810 N   0  0  0  0  0  0  0  0  0  0  0  0
  -23.6410  -31.9750   23.7820 O   0  0  0  0  0  0  0  0  0  0  0  0
  -22.8810  -29.4290   22.2650 C   0  0  0  0  0  0  0  0  0  0  0  0
  -21.5580  -29.2250   22.1720 N   0  0  0  0  0  0  0  0  0  0  0  0
  -23.6140  -28.7280   22.9670 O   0  0  0  0  0  0  0  0  0  0  0  0
  -21.0180  -29.8810   21.6280 H   0  0  0  0  0  0  0  0  0  0  0  0
  -18.2430  -27.8300   22.6040 C   0  0  0  0  0  0  0  0  0  0  0  0
  -20.7970  -28.1590   22.8260 C   0  0  0  0  0  3  0  0  0  0  0  0
  -20.9440  -26.8080   22.0830 C   0  0  0  0  0  2  0  0  0  0  0  0
  -19.7980  -26.4940   21.1130 C   0  0  0  0  0  2  0  0  0  0  0  0
  -18.4390  -26.5580   21.8050 C   0  0  0  0  0  2  0  0  0  0  0  0
  -19.3480  -28.5790   23.0840 C   0  0  0  0  0  0  0  0  0  0  0  0
  -19.1040  -29.7630   23.8200 C   0  0  0  0  0  3  0  0  0  0  0  0
  -17.7870  -30.1820   24.0880 C   0  0  0  0  0  3  0  0  0  0  0  0
  -16.6970  -29.4240   23.6250 C   0  0  0  0  0  3  0  0  0  0  0  0
  -16.9270  -28.2520   22.8830 C   0  0  0  0  0  3  0  0  0  0  0  0
  -25.9980  -32.4000   23.8160 C   0  0  0  0  0  3  0  0  0  0  0  0
  -26.5660  -31.5140   24.9920 C   0  0  1  0  0  0  0  0  0  0  0  0
  -25.5130  -31.1670   26.0710 C   0  0  0  0  0  1  0  0  0  0  0  0
  -27.1500  -30.1900   24.4480 C   0  0  0  0  0  1  0  0  0  0  0  0
  -27.7410  -32.2480   25.6800 C   0  0  0  0  0  1  0  0  0  0  0  0
  -25.6790  -33.7510   24.2990 N   0  0  0  0  0  0  0  0  0  0  0  0
  -25.9780  -34.8850   23.6510 C   0  0  0  0  0  0  0  0  0  0  0  0
  -26.6200  -34.9020   22.5970 O   0  0  0  0  0  0  0  0  0  0  0  0
  -25.1150  -33.8070   25.1340 H   0  0  0  0  0  0  0  0  0  0  0  0
  -24.2110  -36.6720   23.5230 C   0  0  0  0  0  1  0  0  0  0  0  0
  -25.4800  -36.2090   24.2590 C   0  0  0  0  0  3  0  0  0  0  0  0
  -27.6160  -37.0490   25.1270 C   0  0  0  0  0  1  0  0  0  0  0  0
  -26.4920  -37.2900   24.2290 N   0  0  0  0  0  0  0  0  0  0  0  0
  -26.0740  -38.1850   24.4760 H   0  0  0  0  0  0  0  0  0  0  0  0
  -29.4070  -20.9130   20.0020 O   0  0  0  0  0  0  0  0  0  0  0  0
  -31.0340  -15.1920   20.3820 C   0  0  0  0  0  0  0  0  0  0  0  0
  -30.7700  -12.9020   19.4520 C   0  0  0  0  0  2  0  0  0  0  0  0
  -29.8650  -12.8870   18.2050 C   0  0  0  0  0  2  0  0  0  0  0  0
  -28.4060  -12.6880   18.6320 C   0  0  0  0  0  2  0  0  0  0  0  0
  -27.9850  -13.6700   19.7500 C   0  0  0  0  0  3  0  0  0  0  0  0
  -29.0030  -13.7250   20.9070 C   0  0  0  0  0  2  0  0  0  0  0  0
  -30.3080  -14.0290   20.3100 N   0  0  0  0  0  0  0  0  0  0  0  0
  -32.2460  -15.0950   20.1720 O   0  0  0  0  0  0  0  0  0  0  0  0
  -29.1420  -18.6240   20.9910 C   0  0  0  0  0  2  0  0  0  0  0  0
  -29.2450  -17.0340   20.9160 C   0  0  0  0  0  2  0  0  0  0  0  0
  -30.5470  -18.7800   18.9660 C   0  0  0  0  0  3  0  0  0  0  0  0
  -31.3000  -17.5800   19.6940 C   0  0  0  0  0  3  0  0  0  0  0  0
  -29.2830  -19.4390   19.6570 C   0  0  2  0  0  0  0  0  0  0  0  0
  -31.5760  -19.8100   18.4890 C   0  0  0  0  0  1  0  0  0  0  0  0
  -32.3740  -18.0340   20.7230 C   0  0  0  0  0  1  0  0  0  0  0  0
  -28.0180  -19.0980   18.8360 C   0  0  0  0  0  1  0  0  0  0  0  0
  -30.4580  -16.4700   20.2580 N   0  0  0  0  0  0  0  0  0  0  0  0
  -25.6060  -14.2680   20.4850 C   0  0  0  0  0  0  0  0  0  0  0  0
  -24.5300  -13.4950   20.8070 C   0  0  0  0  0  0  0  0  0  0  0  0
  -24.9770  -12.1390   20.7310 C   0  0  0  0  0  0  0  0  0  0  0  0
  -26.6410  -13.3860   20.2250 N   0  0  0  0  0  0  0  0  0  0  0  0
  -26.2710  -12.0990   20.4440 N   0  0  0  0  0  0  0  0  0  0  0  0
  -24.2290  -10.8860   20.8530 C   0  0  0  0  0  0  0  0  0  0  0  0
  -24.5900   -9.9040   21.8020 C   0  0  0  0  0  3  0  0  0  0  0  0
  -23.8480   -8.7110   21.9160 C   0  0  0  0  0  3  0  0  0  0  0  0
  -22.7240   -8.4920   21.0810 C   0  0  0  0  0  0  0  0  0  0  0  0
  -22.3800   -9.4630   20.1240 C   0  0  0  0  0  3  0  0  0  0  0  0
  -23.1250  -10.6480   20.0080 C   0  0  0  0  0  3  0  0  0  0  0  0
  -21.9570   -7.3530   21.1050 O   0  0  0  0  0  0  0  0  0  0  0  0
  -21.7690   -6.6330   22.2560 C   0  0  0  0  0  0  0  0  0  0  0  0
  -21.1900   -7.2090   23.4080 C   0  0  0  0  0  3  0  0  0  0  0  0
  -20.9560   -6.4180   24.5490 C   0  0  0  0  0  3  0  0  0  0  0  0
  -21.2870   -5.0480   24.5360 C   0  0  0  0  0  0  0  0  0  0  0  0
  -21.8580   -4.4710   23.3900 C   0  0  0  0  0  3  0  0  0  0  0  0
  -22.0940   -5.2620   22.2500 C   0  0  0  0  0  0  0  0  0  0  0  0
  -22.6230   -4.6970   21.1370 F   0  0  0  0  0  0  0  0  0  0  0  0
  -21.0590   -4.2840   25.6290 F   0  0  0  0  0  0  0  0  0  0  0  0
  -23.1340  -13.9780   21.0780 C   0  0  0  0  0  0  0  0  0  0  0  0
  -22.3970  -13.2620   21.9170 N   0  0  0  0  0  0  0  0  0  0  0  0
  -22.7120  -15.0220   20.5820 O   0  0  0  0  0  0  0  0  0  0  0  0
  -22.7610  -12.4140   22.3310 H   0  0  0  0  0  0  0  0  0  0  0  0
  -21.4650  -13.5660   22.1600 H   0  0  0  0  0  0  0  0  0  0  0  0
  -25.7840  -15.6440   20.3630 N   0  0  0  0  0  0  0  0  0  0  0  0
  -25.0060  -16.2830   20.4660 H   0  0  0  0  0  0  0  0  0  0  0  0
  -26.6240  -16.0880   20.0230 H   0  0  0  0  0  0  0  0  0  0  0  0
  1  7  1  0
  1  3  1  0
  2  4  1  0
  2  1  2  0
  3  9  1  0
  4  6  2  0
  5  3  2  0
  5 12  1  0
  6 55  1  0
  6  5  1  0
  8  2  1  0
 10  4  1  0
 12 11  1  0
 13 14  1  0
 13 12  1  0
 14 16  1  0
 15 26  2  0
 16 21  1  0
 17 25  1  0
 17 27  1  0
 18 24  1  0
 18 20  1  0
 19 25  1  0
 20 19  1  0
 21 20  2  0
 22 23  1  0
 22 16  2  0
 23 18  2  0
 24 17  1  0
 25 15  1  0
 27 29  2  0
 28 27  1  0
 30 28  1  0
 31 40  2  0
 31 36  1  0
 32 28  1  0
 32 36  1  0
 33 32  1  0
 34 35  1  0
 34 33  1  0
 35 31  1  0
 36 37  2  0
 37 38  1  0
 39 38  2  0
 40 39  1  0
 41 15  1  0
 41 46  1  0
 41 42  1  0
 42 45  1  1
 42 43  1  0
 44 42  1  0
 46 49  1  0
 47 51  1  0
 47 46  1  0
 48 47  2  0
 51 50  1  0
 53 51  1  0
 53 54  1  0
 53 52  1  0
 57 62  1  0
 58 59  1  0
 58 57  1  0
 60 59  1  0
 60 76  1  0
 60 61  1  0
 62 56  1  0
 62 61  1  0
 63 56  2  0
 65 64  1  0
 66 69  1  0
 66 68  1  0
 66 67  1  0
 67 72  1  0
 67 70  1  0
 68 71  1  6
 68 55  1  0
 68 64  1  0
 72 56  1  0
 72 65  1  0
 73 74  2  0
 74 93  1  0
 75 74  1  0
 75 78  1  0
 76 77  1  0
 76 73  1  0
 77 75  2  0
 78 79  1  0
 79 80  2  0
 81 84  1  0
 81 80  1  0
 82 81  2  0
 83 82  1  0
 83 78  2  0
 84 85  1  0
 85 86  1  0
 86 87  2  0
 88 87  1  0
 88 92  1  0
 89 88  2  0
 90 85  2  0
 90 89  1  0
 91 90  1  0
 93 94  1  0
 94 97  1  0
 94 96  1  0
 95 93  2  0
 98 99  1  0
 98 73  1  0
100 98  1  0
M  ISO  4  13 101  14 101  56 100  72 100
M  END
>  <TORSDO>  (47) 
F 19

>  <SCORE>  (47) 
-10.472

>  <name>  (47) 
46

>  <ligand_id>  (47) 
46

>  <original_smiles>  (47) 
[H]c1c([H])c([H])c2c(c1[H])C([H])([H])C([H])([H])C([H])([H])C2([H])N([H])C(=O)C1([H])N(C(=O)C([H])(N([H])C(=O)C([H])(N([H])C([H])([H])[H])C([H])([H])[H])C(C([H])([H])[H])(C([H])([H])[H])C([H])([H])[H])C([H])([H])c2c([H])c(OC([H])([H])C([H])(c3c(OC4(C([H])([H])[H])C([H])([H])C([H])([H])N(C(=O)N5C([H])([H])C([H])([H])C([H])([H])C([H])(n6nc(-c7c([H])c([H])c(Oc8c([H])c([H])c(F)c([H])c8F)c([H])c7[H])c(C(=O)N([H])[H])c6N([H])[H])C5([H])[H])C([H])(C([H])([H])[H])C4([H])C([H])([H])[H])c(C([H])([H])[H])c(C([H])([H])[H])c(C([H])([H])[H])c3C([H])([H])[H])C([H])([H])[H])c([H])c([H])c2C1([H])[H]

>  <smiles>  (47) 
[H]c1c([H])c([H])c2c(c1[H])C([H])([H])C([H])([H])C([H])([H])C2([H])N([H])C(=O)C1([H])N(C(=O)C([H])(N([H])C(=O)C([H])(N([H])C([H])([H])[H])C([H])([H])[H])C(C([H])([H])[H])(C([H])([H])[H])C([H])([H])[H])C([H])([H])c2c([H])c(OC([H])([H])C([H])(c3c(OC4(C([H])([H])[H])C([H])([H])C([H])([H])N(C(=O)N5C([H])([H])C([H])([H])C([H])([H])C([H])(n6nc(-c7c([H])c([H])c(Oc8c([H])c([H])c(F)c([H])c8F)c([H])c7[H])c(C(=O)N([H])[H])c6N([H])[H])C5([H])[H])C([H])(C([H])([H])[H])C4([H])C([H])([H])[H])c(C([H])([H])[H])c(C([H])([H])[H])c(C([H])([H])[H])c3C([H])([H])[H])C([H])([H])[H])c([H])c([H])c2C1([H])[H]

$$$$
47:0:0
     RDKit          3D

 93 91  0  0  1  0  0  0  0  0999 V2000
  -27.8120  -27.8950   22.6990 C   0  0  0  0  0  1  0  0  0  0  0  0
  -27.4480  -26.4400   18.6290 C   0  0  0  0  0 15  0  0  0  0  0  0
  -27.1170  -25.8860   22.1270 C   0  0  0  0  0  2  0  0  0  0  0  0
  -27.2510  -25.0640   20.2470 C   0  0  0  0  0 15  0  0  0  0  0  0
  -28.4240  -29.3200   21.0170 C   0  0  0  0  0  1  0  0  0  0  0  0
  -28.0430  -28.5680   18.9310 C   0  0  0  0  0  1  0  0  0  0  0  0
  -27.5550  -24.5760   22.8590 C   0  0  0  0  0  2  0  0  0  0  0  0
  -28.2520  -23.3890   21.9130 C   0  0  0  0  0  2  0  0  0  0  0  0
  -27.6580  -22.9070   20.4620 C   0  0  0  0  0  2  0  0  0  0  0  0
  -29.2690  -30.5340   21.3280 C   0  0  0  0  0  1  0  0  0  0  0  0
  -25.5680  -22.5610   22.0930 C   0  0  0  0  0  1  0  0  0  0  0  0
  -26.1810  -22.4530   20.6760 C   0  0  0  0  0  2  0  0  0  0  0  0
  -29.3280  -28.4800   18.2110 C   0  0  0  0  0  2  0  0  0  0  0  0
  -29.8660  -27.1980   18.7180 O   0  0  0  0  0  0  0  0  0  0  0  0
  -24.9210  -31.6470   23.0860 C   0  0  0  0  0  0  0  0  0  0  0  0
  -29.8820  -26.8860   20.0490 C   0  0  0  0  0  3  0  0  0  0  0  0
  -24.1430  -30.1170   21.2920 C   0  0  0  0  0  3  0  0  0  0  0  0
  -25.6530  -27.9920   20.4150 C   0  0  0  0  0  1  0  0  0  0  0  0
  -26.3090  -29.6210   22.1980 C   0  0  0  0  0  2  0  0  0  0  0  0
  -26.7630  -28.0420   21.2610 C   0  0  1  0  0  0  0  0  0  0  0  0
  -28.9450  -27.1940   21.0800 C   0  0  0  0  0 15  0  0  0  0  0  0
  -28.8530  -27.2750   20.7400 C   0  0  0  0  0  2  0  0  0  0  0  0
  -26.7570  -27.2780   20.9220 C   0  0  0  0  0  2  0  0  0  0  0  0
  -24.8820  -29.3530   20.1170 C   0  0  0  0  0  1  0  0  0  0  0  0
  -25.1950  -30.6550   22.1240 N   0  0  0  0  0  0  0  0  0  0  0  0
  -23.7520  -31.9600   23.3720 O   0  0  0  0  0  0  0  0  0  0  0  0
  -23.3190  -29.1580   22.1870 C   0  0  0  0  0  0  0  0  0  0  0  0
  -22.0130  -29.0400   21.9650 N   0  0  0  0  0  0  0  0  0  0  0  0
  -23.8580  -28.5110   23.0910 O   0  0  0  0  0  0  0  0  0  0  0  0
  -21.5850  -29.5690   21.2180 H   0  0  0  0  0  0  0  0  0  0  0  0
  -18.6390  -27.9510   22.4500 C   0  0  0  0  0  0  0  0  0  0  0  0
  -21.1940  -28.0550   22.6650 C   0  0  0  0  0  3  0  0  0  0  0  0
  -21.2230  -26.7090   21.9060 C   0  0  0  0  0  2  0  0  0  0  0  0
  -20.0980  -26.5900   20.8770 C   0  0  0  0  0  2  0  0  0  0  0  0
  -18.7360  -26.7130   21.5700 C   0  0  0  0  0  2  0  0  0  0  0  0
  -19.8000  -28.5890   22.9520 C   0  0  0  0  0  0  0  0  0  0  0  0
  -19.6740  -29.7500   23.7440 C   0  0  0  0  0  3  0  0  0  0  0  0
  -18.4050  -30.2760   24.0380 C   0  0  0  0  0  3  0  0  0  0  0  0
  -17.2520  -29.6330   23.5560 C   0  0  0  0  0  3  0  0  0  0  0  0
  -17.3680  -28.4700   22.7700 C   0  0  0  0  0  3  0  0  0  0  0  0
  -26.0090  -32.4760   23.8930 C   0  0  0  0  0  3  0  0  0  0  0  0
  -26.3490  -31.9390   25.3550 C   0  0  1  0  0  0  0  0  0  0  0  0
  -25.0880  -31.5600   26.1670 C   0  0  0  0  0  1  0  0  0  0  0  0
  -27.2790  -30.7220   25.3310 C   0  0  0  0  0  1  0  0  0  0  0  0
  -27.1520  -32.9880   26.1810 C   0  0  0  0  0  1  0  0  0  0  0  0
  -25.5430  -33.8880   24.0570 N   0  0  0  0  0  0  0  0  0  0  0  0
  -26.0060  -34.9750   23.4200 C   0  0  0  0  0  0  0  0  0  0  0  0
  -26.9160  -34.9150   22.5930 O   0  0  0  0  0  0  0  0  0  0  0  0
  -24.7500  -34.0150   24.6690 H   0  0  0  0  0  0  0  0  0  0  0  0
  -24.3010  -36.6850   22.6630 C   0  0  0  0  0  1  0  0  0  0  0  0
  -25.3520  -36.3460   23.7320 C   0  0  0  0  0  3  0  0  0  0  0  0
  -27.1860  -37.3860   25.0060 C   0  0  0  0  0  1  0  0  0  0  0  0
  -26.3160  -37.4700   23.8370 N   0  0  0  0  0  0  0  0  0  0  0  0
  -25.8240  -38.3590   23.8750 H   0  0  0  0  0  0  0  0  0  0  0  0
  -28.6410  -20.7410   19.8190 C   0  0  0  0  0 15  0  0  0  0  0  0
  -29.9640  -16.9980   19.6850 C   0  0  0  0  0  0  0  0  0  0  0  0
  -30.4900  -14.2190   18.8330 C   0  0  0  0  0  2  0  0  0  0  0  0
  -29.6990  -13.3090   17.7890 C   0  0  0  0  0  2  0  0  0  0  0  0
  -28.4720  -12.6490   18.4150 C   0  0  0  0  0  2  0  0  0  0  0  0
  -27.8740  -13.6790   19.3810 C   0  0  0  0  0  3  0  0  0  0  0  0
  -28.8680  -14.3910   20.3690 C   0  0  0  0  0  2  0  0  0  0  0  0
  -29.6910  -15.4210   19.5850 N   0  0  0  0  0  0  0  0  0  0  0  0
  -31.2110  -16.8420   19.4100 O   0  0  0  0  0  0  0  0  0  0  0  0
  -29.0780  -18.5960   19.8980 N   0  0  0  0  0  2  0  0  0  0  0  0
  -28.1490  -18.2080   20.0060 H   0  0  0  0  0  0  0  0  0  0  0  0
  -25.7340  -14.1030   20.5840 C   0  0  0  0  0  0  0  0  0  0  0  0
  -24.7040  -13.3160   20.9910 C   0  0  0  0  0  0  0  0  0  0  0  0
  -25.0640  -11.9770   20.6430 C   0  0  0  0  0  0  0  0  0  0  0  0
  -26.6540  -13.2500   20.0210 N   0  0  0  0  0  0  0  0  0  0  0  0
  -26.2820  -11.9450   20.1030 N   0  0  0  0  0  0  0  0  0  0  0  0
  -24.2750  -10.7430   20.7370 C   0  0  0  0  0  0  0  0  0  0  0  0
  -24.5820   -9.7380   21.6800 C   0  0  0  0  0  3  0  0  0  0  0  0
  -23.7880   -8.5730   21.7720 C   0  0  0  0  0  3  0  0  0  0  0  0
  -22.6640   -8.4120   20.9270 C   0  0  0  0  0  0  0  0  0  0  0  0
  -22.3740   -9.4040   19.9740 C   0  0  0  0  0  3  0  0  0  0  0  0
  -23.1690  -10.5600   19.8800 C   0  0  0  0  0  3  0  0  0  0  0  0
  -21.8480   -7.3070   20.9310 O   0  0  0  0  0  0  0  0  0  0  0  0
  -21.4520   -6.7090   22.1000 C   0  0  0  0  0  0  0  0  0  0  0  0
  -20.6930   -7.4020   23.0680 C   0  0  0  0  0  3  0  0  0  0  0  0
  -20.2420   -6.7330   24.2230 C   0  0  0  0  0  3  0  0  0  0  0  0
  -20.5340   -5.3680   24.4050 C   0  0  0  0  0  0  0  0  0  0  0  0
  -21.2830   -4.6740   23.4400 C   0  0  0  0  0  3  0  0  0  0  0  0
  -21.7340   -5.3410   22.2880 C   0  0  0  0  0  0  0  0  0  0  0  0
  -22.4360   -4.6630   21.3500 F   0  0  0  0  0  0  0  0  0  0  0  0
  -20.0970   -4.7210   25.5120 F   0  0  0  0  0  0  0  0  0  0  0  0
  -23.4220  -13.8100   21.5870 C   0  0  0  0  0  0  0  0  0  0  0  0
  -22.7890  -13.0000   22.4230 N   0  0  0  0  0  0  0  0  0  0  0  0
  -23.0000  -14.9410   21.3500 O   0  0  0  0  0  0  0  0  0  0  0  0
  -23.1440  -12.0790   22.6350 H   0  0  0  0  0  0  0  0  0  0  0  0
  -21.9340  -13.3020   22.8640 H   0  0  0  0  0  0  0  0  0  0  0  0
  -25.9650  -15.4790   20.6070 N   0  0  0  0  0  0  0  0  0  0  0  0
  -25.2890  -16.1500   20.9630 H   0  0  0  0  0  0  0  0  0  0  0  0
  -26.7830  -15.9210   20.2010 H   0  0  0  0  0  0  0  0  0  0  0  0
  3  7  1  0
  5 10  1  0
  8  7  1  0
  9 12  1  0
  9  8  1  0
 12 11  1  0
 13 14  1  0
 13  6  1  0
 14 16  1  0
 15 26  2  0
 16 22  2  0
 17 24  1  0
 17 25  1  0
 17 27  1  0
 20 18  1  1
 20 19  1  0
 20  1  1  0
 23 20  1  0
 23  3  1  0
 25 19  1  0
 25 15  1  0
 27 29  2  0
 28 27  1  0
 30 28  1  0
 31 40  2  0
 31 36  1  0
 32 28  1  0
 32 36  1  0
 33 32  1  0
 34 35  1  0
 34 33  1  0
 35 31  1  0
 36 37  2  0
 37 38  1  0
 39 38  2  0
 40 39  1  0
 41 15  1  0
 41 46  1  0
 41 42  1  0
 42 43  1  1
 42 45  1  0
 44 42  1  0
 46 49  1  0
 47 51  1  0
 47 46  1  0
 48 47  2  0
 51 50  1  0
 51 53  1  0
 53 54  1  0
 53 52  1  0
 56 64  1  0
 57 62  1  0
 58 59  1  0
 58 57  1  0
 60 59  1  0
 60 69  1  0
 60 61  1  0
 62 56  1  0
 62 61  1  0
 63 56  2  0
 64 65  1  0
 66 91  1  0
 66 67  2  0
 67 86  1  0
 68 71  1  0
 68 67  1  0
 69 70  1  0
 69 66  1  0
 70 68  2  0
 71 72  1  0
 72 73  2  0
 74 77  1  0
 74 73  1  0
 75 74  2  0
 76 75  1  0
 76 71  2  0
 77 78  1  0
 78 83  2  0
 78 79  1  0
 79 80  2  0
 80 81  1  0
 81 85  1  0
 82 81  2  0
 83 82  1  0
 84 83  1  0
 86 87  1  0
 87 89  1  0
 87 90  1  0
 88 86  2  0
 91 92  1  0
 93 91  1  0
M  ISO  4  13 101  14 101  56 100  64 100
M  END
>  <TORSDO>  (48) 
F 19

>  <SCORE>  (48) 
-4.328

>  <name>  (48) 
47

>  <ligand_id>  (48) 
47

>  <original_smiles>  (48) 
[H]c1c([H])c([H])c2c(c1[H])C([H])([H])C([H])([H])C([H])([H])C2([H])N([H])C(=O)C1([H])N(C(=O)C([H])(N([H])C(=O)C([H])(N([H])C([H])([H])[H])C([H])([H])[H])C(C([H])([H])[H])(C([H])([H])[H])C([H])([H])[H])C([H])([H])c2c([H])c(OC([H])([H])c3c([H])c4c(c([H])c3C([H])([H])[H])C([H])([H])C([H])([H])C4(C([H])([H])N([H])C(=O)N3C([H])([H])C([H])([H])C([H])([H])C([H])(n4nc(-c5c([H])c([H])c(Oc6c([H])c([H])c(F)c([H])c6F)c([H])c5[H])c(C(=O)N([H])[H])c4N([H])[H])C3([H])[H])C([H])([H])C([H])([H])[H])c([H])c([H])c2C1([H])[H]

>  <smiles>  (48) 
[H]c1c([H])c([H])c2c(c1[H])C([H])([H])C([H])([H])C([H])([H])C2([H])N([H])C(=O)C1([H])N(C(=O)C([H])(N([H])C(=O)C([H])(N([H])C([H])([H])[H])C([H])([H])[H])C(C([H])([H])[H])(C([H])([H])[H])C([H])([H])[H])C([H])([H])c2c([H])c(OC([H])([H])c3c([H])c4c(c([H])c3C([H])([H])[H])C([H])([H])C([H])([H])C4(C([H])([H])N([H])C(=O)N3C([H])([H])C([H])([H])C([H])([H])C([H])(n4nc(-c5c([H])c([H])c(Oc6c([H])c([H])c(F)c([H])c6F)c([H])c5[H])c(C(=O)N([H])[H])c4N([H])[H])C3([H])[H])C([H])([H])C([H])([H])[H])c([H])c([H])c2C1([H])[H]

$$$$
48:0:0
     RDKit          3D

 99109  0  0  1  0  0  0  0  0999 V2000
  -28.2150  -20.7640   20.7960 C   0  0  0  0  0  2  0  0  0  0  0  0
  -30.3960  -21.7370   21.1390 C   0  0  0  0  0  2  0  0  0  0  0  0
  -27.5500  -22.1500   20.6050 C   0  0  0  0  0  2  0  0  0  0  0  0
  -29.8970  -23.1900   20.9540 C   0  0  0  0  0  2  0  0  0  0  0  0
  -29.6280  -20.7960   20.2210 C   0  0  0  0  0  3  0  0  0  0  0  0
  -28.4310  -23.3790   20.6710 N   0  0  1  0  0  4  0  0  0  0  0  0
  -28.0810  -23.8720   21.4820 H   0  0  0  0  0  0  0  0  0  0  0  0
  -30.1290  -18.2940   20.7450 C   0  0  0  0  0  3  0  0  0  0  0  0
  -31.5090  -18.0640   18.3240 C   0  0  0  0  0  3  0  0  0  0  0  0
  -30.2980  -19.4460   19.9160 C   0  0  0  0  0  0  0  0  0  0  0  0
  -31.0700  -19.3270   18.7270 C   0  0  0  0  0  0  0  0  0  0  0  0
  -30.6290  -17.0200   20.3460 C   0  0  0  0  0  0  0  0  0  0  0  0
  -31.2170  -16.9030   19.0540 C   0  0  0  0  0  0  0  0  0  0  0  0
  -31.1880  -14.7250   21.1040 C   0  0  0  0  0  0  0  0  0  0  0  0
  -30.9300  -12.4540   20.1670 C   0  0  0  0  0  2  0  0  0  0  0  0
  -30.2080  -12.5810   18.8120 C   0  0  0  0  0  2  0  0  0  0  0  0
  -28.6730  -12.7580   18.9500 C   0  0  0  0  0  2  0  0  0  0  0  0
  -28.2050  -13.6000   20.1770 C   0  0  0  0  0  3  0  0  0  0  0  0
  -29.0910  -13.3620   21.4200 C   0  0  0  0  0  2  0  0  0  0  0  0
  -30.4880  -13.5600   21.0210 N   0  0  0  0  0  0  0  0  0  0  0  0
  -32.4100  -14.7910   20.9280 O   0  0  0  0  0  0  0  0  0  0  0  0
  -30.4370  -15.8480   21.1660 N   0  0  0  0  0  0  0  0  0  0  0  0
  -29.5030  -15.7110   21.5190 H   0  0  0  0  0  0  0  0  0  0  0  0
  -25.7550  -14.2970   20.5610 C   0  0  0  0  0  0  0  0  0  0  0  0
  -24.6260  -13.5620   20.8030 C   0  0  0  0  0  0  0  0  0  0  0  0
  -25.0410  -12.1960   20.8560 C   0  0  0  0  0  0  0  0  0  0  0  0
  -26.7930  -13.3780   20.4810 N   0  0  0  0  0  0  0  0  0  0  0  0
  -26.3610  -12.1130   20.7310 N   0  0  0  0  0  0  0  0  0  0  0  0
  -24.2440  -10.9630   20.9720 C   0  0  0  0  0  0  0  0  0  0  0  0
  -24.5640   -9.9620   21.9150 C   0  0  0  0  0  3  0  0  0  0  0  0
  -23.7740   -8.7970   22.0210 C   0  0  0  0  0  3  0  0  0  0  0  0
  -22.6470   -8.6230   21.1810 C   0  0  0  0  0  0  0  0  0  0  0  0
  -22.3400   -9.6140   20.2300 C   0  0  0  0  0  3  0  0  0  0  0  0
  -23.1350  -10.7690   20.1220 C   0  0  0  0  0  3  0  0  0  0  0  0
  -21.8420   -7.5080   21.1900 O   0  0  0  0  0  0  0  0  0  0  0  0
  -21.7040   -6.7360   22.3160 C   0  0  0  0  0  0  0  0  0  0  0  0
  -21.2640   -7.2750   23.5450 C   0  0  0  0  0  3  0  0  0  0  0  0
  -21.0730   -6.4280   24.6530 C   0  0  0  0  0  3  0  0  0  0  0  0
  -21.3080   -5.0460   24.5340 C   0  0  0  0  0  0  0  0  0  0  0  0
  -21.7370   -4.5050   23.3070 C   0  0  0  0  0  3  0  0  0  0  0  0
  -21.9330   -5.3500   22.2010 C   0  0  0  0  0  0  0  0  0  0  0  0
  -22.3240   -4.8250   21.0160 F   0  0  0  0  0  0  0  0  0  0  0  0
  -21.1120   -4.2290   25.5950 F   0  0  0  0  0  0  0  0  0  0  0  0
  -23.2200  -14.0850   20.8800 C   0  0  0  0  0  0  0  0  0  0  0  0
  -22.3760  -13.4440   21.6740 N   0  0  0  0  0  0  0  0  0  0  0  0
  -22.8830  -15.1030   20.2740 O   0  0  0  0  0  0  0  0  0  0  0  0
  -22.6530  -12.6100   22.1740 H   0  0  0  0  0  0  0  0  0  0  0  0
  -21.4300  -13.7870   21.7840 H   0  0  0  0  0  0  0  0  0  0  0  0
  -25.9870  -15.6510   20.3730 N   0  0  0  0  0  0  0  0  0  0  0  0
  -25.2440  -16.3400   20.3870 H   0  0  0  0  0  0  0  0  0  0  0  0
  -26.8860  -16.0420   20.1240 H   0  0  0  0  0  0  0  0  0  0  0  0
  -32.7640  -20.6280   17.1640 C   0  0  0  0  0  2  0  0  0  0  0  0
  -32.2580  -21.6310   18.1730 C   0  0  0  0  0  2  0  0  0  0  0  0
  -31.3850  -20.4620   17.7760 C   0  0  0  0  0  3  0  0  0  0  0  0
  -31.5190  -15.6200   17.0570 C   0  0  0  0  0  1  0  0  0  0  0  0
  -31.4530  -15.6720   18.4910 O   0  0  0  0  0  0  0  0  0  0  0  0
  -28.1500  -24.2640   19.4860 C   0  0  0  0  0  2  0  0  0  0  0  0
  -28.8370  -25.6610   19.3970 C   0  0  0  0  0  2  0  0  0  0  0  0
  -28.4260  -26.6930   20.3050 O   0  0  0  0  0  0  0  0  0  0  0  0
  -24.5300  -31.8460   23.1850 C   0  0  0  0  0  0  0  0  0  0  0  0
  -27.2490  -27.4110   20.1540 C   0  0  0  0  0  0  0  0  0  0  0  0
  -23.3520  -30.4410   21.5180 C   0  0  0  0  0  3  0  0  0  0  0  0
  -24.8410  -28.9180   20.1010 C   0  0  0  0  0  0  0  0  0  0  0  0
  -25.8780  -30.8060   21.3750 C   0  0  0  0  0  2  0  0  0  0  0  0
  -25.9760  -29.4330   20.7370 C   0  0  0  0  0  0  0  0  0  0  0  0
  -27.1670  -28.6760   20.7800 C   0  0  0  0  0  3  0  0  0  0  0  0
  -26.1120  -26.9410   19.4550 C   0  0  0  0  0  3  0  0  0  0  0  0
  -24.9070  -27.6730   19.4500 C   0  0  0  0  0  3  0  0  0  0  0  0
  -23.5880  -29.7670   20.1360 C   0  0  0  0  0  2  0  0  0  0  0  0
  -24.6020  -31.0470   22.0850 N   0  0  0  0  0  0  0  0  0  0  0  0
  -23.4390  -32.1130   23.7120 O   0  0  0  0  0  0  0  0  0  0  0  0
  -22.6900  -29.4180   22.4680 C   0  0  0  0  0  0  0  0  0  0  0  0
  -21.3610  -29.2610   22.3530 N   0  0  0  0  0  0  0  0  0  0  0  0
  -23.3690  -28.7690   23.2690 O   0  0  0  0  0  0  0  0  0  0  0  0
  -20.8740  -29.8350   21.6780 H   0  0  0  0  0  0  0  0  0  0  0  0
  -17.9650  -28.1440   22.8790 C   0  0  0  0  0  0  0  0  0  0  0  0
  -20.5350  -28.3240   23.1140 C   0  0  0  0  0  3  0  0  0  0  0  0
  -20.5860  -26.9040   22.4980 C   0  0  0  0  0  2  0  0  0  0  0  0
  -19.4590  -26.6410   21.4970 C   0  0  0  0  0  2  0  0  0  0  0  0
  -18.0930  -26.8080   22.1650 C   0  0  0  0  0  2  0  0  0  0  0  0
  -19.1110  -28.8630   23.3090 C   0  0  0  0  0  0  0  0  0  0  0  0
  -18.9350  -30.1170   23.9340 C   0  0  0  0  0  3  0  0  0  0  0  0
  -17.6470  -30.6500   24.1290 C   0  0  0  0  0  3  0  0  0  0  0  0
  -16.5160  -29.9250   23.7170 C   0  0  0  0  0  3  0  0  0  0  0  0
  -16.6770  -28.6730   23.0980 C   0  0  0  0  0  3  0  0  0  0  0  0
  -25.8060  -32.4780   23.8240 C   0  0  0  0  0  3  0  0  0  0  0  0
  -25.4900  -33.8720   24.1600 N   0  0  0  0  0  0  0  0  0  0  0  0
  -25.8370  -34.9320   23.4150 C   0  0  0  0  0  0  0  0  0  0  0  0
  -26.5230  -34.8350   22.3940 O   0  0  0  0  0  0  0  0  0  0  0  0
  -24.8850  -34.0190   24.9540 H   0  0  0  0  0  0  0  0  0  0  0  0
  -24.1030  -36.7140   23.0460 C   0  0  0  0  0  1  0  0  0  0  0  0
  -25.3390  -36.3170   23.8700 C   0  0  0  0  0  3  0  0  0  0  0  0
  -27.4630  -37.2070   24.7180 C   0  0  0  0  0  1  0  0  0  0  0  0
  -26.3690  -37.3730   23.7670 N   0  0  0  0  0  0  0  0  0  0  0  0
  -25.9620  -38.2930   23.9100 H   0  0  0  0  0  0  0  0  0  0  0  0
  -26.3180  -31.7000   25.0980 C   0  0  1  0  0  0  0  0  0  0  0  0
  -25.2200  -31.4590   26.1590 C   0  0  0  0  0  1  0  0  0  0  0  0
  -26.9020  -30.3230   24.7080 C   0  0  0  0  0  1  0  0  0  0  0  0
  -27.4670  -32.4880   25.7690 C   0  0  0  0  0  1  0  0  0  0  0  0
  3  6  1  0
  3  1  1  0
  4  2  1  0
  5 10  1  0
  5  1  1  0
  5  2  1  0
  6  4  1  0
  6  7  1  1
  9 11  2  0
  9 13  1  0
 10  8  2  0
 11 10  1  0
 12  8  1  0
 12 22  1  0
 13 12  2  0
 14 22  1  0
 15 20  1  0
 16 17  1  0
 16 15  1  0
 18 17  1  0
 18 27  1  0
 18 19  1  0
 20 14  1  0
 20 19  1  0
 21 14  2  0
 22 23  1  0
 24 25  2  0
 25 26  1  0
 25 44  1  0
 26 29  1  0
 27 24  1  0
 27 28  1  0
 28 26  2  0
 29 30  1  0
 30 31  2  0
 32 35  1  0
 32 31  1  0
 33 32  2  0
 34 33  1  0
 34 29  2  0
 35 36  1  0
 36 37  1  0
 37 38  2  0
 39 38  1  0
 39 43  1  0
 40 39  2  0
 41 36  2  0
 41 40  1  0
 42 41  1  0
 44 45  1  0
 45 48  1  0
 45 47  1  0
 46 44  2  0
 49 50  1  0
 49 24  1  0
 51 49  1  0
 52 54  1  0
 52 53  1  0
 54 53  1  0
 54 11  1  0
 55 56  1  0
 56 13  1  0
 57  6  1  0
 58 57  1  0
 58 59  1  0
 60 71  2  0
 61 59  1  0
 61 66  1  0
 62 70  1  0
 62 72  1  0
 63 69  1  0
 63 65  1  0
 64 70  1  0
 65 66  2  0
 65 64  1  0
 67 61  2  0
 68 67  1  0
 68 63  2  0
 69 62  1  0
 70 60  1  0
 72 74  2  0
 73 72  1  0
 75 73  1  0
 76 85  2  0
 76 81  1  0
 77 73  1  0
 77 81  1  0
 78 77  1  0
 79 80  1  0
 79 78  1  0
 80 76  1  0
 81 82  2  0
 82 83  1  0
 84 83  2  0
 85 84  1  0
 86 60  1  0
 86 87  1  0
 86 96  1  0
 87 90  1  0
 88 92  1  0
 88 87  1  0
 89 88  2  0
 92 91  1  0
 94 92  1  0
 94 95  1  0
 94 93  1  0
 96 99  1  1
 96 97  1  0
 98 96  1  0
M  ISO  4  14 100  22 100  58 101  59 101
M  END
>  <TORSDO>  (49) 
F 21

>  <SCORE>  (49) 
-12.863

>  <name>  (49) 
48

>  <ligand_id>  (49) 
48

>  <original_smiles>  (49) 
[H]c1c([H])c([H])c2c(c1[H])C([H])([H])C([H])([H])C([H])([H])C2([H])N([H])C(=O)C1([H])N(C(=O)C([H])(N([H])C(=O)C([H])(N([H])C([H])([H])[H])C([H])([H])[H])C(C([H])([H])[H])(C([H])([H])[H])C([H])([H])[H])C([H])([H])c2c([H])c(OC([H])([H])C([H])([H])[N+]3([H])C([H])([H])C([H])([H])C([H])(c4c([H])c(N([H])C(=O)N5C([H])([H])C([H])([H])C([H])([H])C([H])(n6nc(-c7c([H])c([H])c(Oc8c([H])c([H])c(F)c([H])c8F)c([H])c7[H])c(C(=O)N([H])[H])c6N([H])[H])C5([H])[H])c(OC([H])([H])[H])c([H])c4C4([H])C([H])([H])C4([H])[H])C([H])([H])C3([H])[H])c([H])c([H])c2C1([H])[H]

>  <smiles>  (49) 
[H]c1c([H])c([H])c2c(c1[H])C([H])([H])C([H])([H])C([H])([H])C2([H])N([H])C(=O)C1([H])N(C(=O)C([H])(N([H])C(=O)C([H])(N([H])C([H])([H])[H])C([H])([H])[H])C(C([H])([H])[H])(C([H])([H])[H])C([H])([H])[H])C([H])([H])c2c([H])c(OC([H])([H])C([H])([H])[N+]3([H])C([H])([H])C([H])([H])C([H])(c4c([H])c(N([H])C(=O)N5C([H])([H])C([H])([H])C([H])([H])C([H])(n6nc(-c7c([H])c([H])c(Oc8c([H])c([H])c(F)c([H])c8F)c([H])c7[H])c(C(=O)N([H])[H])c6N([H])[H])C5([H])[H])c(OC([H])([H])[H])c([H])c4C4([H])C([H])([H])C4([H])[H])C([H])([H])C3([H])[H])c([H])c([H])c2C1([H])[H]

$$$$
49:0:0
     RDKit          3D

102112  0  0  1  0  0  0  0  0999 V2000
  -30.0510  -20.9470   21.9510 C   0  0  0  0  0  3  0  0  0  0  0  0
  -30.1030  -20.3110   19.6070 C   0  0  0  0  0  3  0  0  0  0  0  0
  -30.1240  -19.9420   20.9670 C   0  0  0  0  0  0  0  0  0  0  0  0
  -29.8500  -22.6690   20.2220 C   0  0  0  0  0  0  0  0  0  0  0  0
  -29.9170  -22.3120   21.5950 C   0  0  0  0  0  0  0  0  0  0  0  0
  -29.9570  -21.6670   19.2210 C   0  0  0  0  0  0  0  0  0  0  0  0
  -30.7110  -14.7100   19.9070 C   0  0  0  0  0  0  0  0  0  0  0  0
  -30.3620  -12.5340   18.7740 C   0  0  0  0  0  2  0  0  0  0  0  0
  -29.3190  -12.6460   17.6430 C   0  0  0  0  0  2  0  0  0  0  0  0
  -27.8910  -12.4580   18.1920 C   0  0  0  0  0  2  0  0  0  0  0  0
  -27.6240  -13.3360   19.4390 C   0  0  0  0  0  3  0  0  0  0  0  0
  -28.7660  -13.1590   20.4710 C   0  0  0  0  0  2  0  0  0  0  0  0
  -30.0320  -13.5260   19.8150 N   0  0  0  0  0  0  0  0  0  0  0  0
  -31.7020  -14.9350   19.2010 O   0  0  0  0  0  0  0  0  0  0  0  0
  -29.0660  -17.6550   20.6840 C   0  0  0  0  0  2  0  0  0  0  0  0
  -31.5240  -17.7860   21.1700 C   0  0  0  0  0  2  0  0  0  0  0  0
  -29.0830  -16.1880   21.1400 C   0  0  0  0  0  2  0  0  0  0  0  0
  -31.4650  -16.3080   21.6280 C   0  0  0  0  0  2  0  0  0  0  0  0
  -30.1630  -18.4720   21.3830 C   0  0  0  0  0  3  0  0  0  0  0  0
  -30.4030  -15.5560   20.9310 N   0  0  0  0  0  0  0  0  0  0  0  0
  -25.3030  -13.9370   20.3860 C   0  0  0  0  0  0  0  0  0  0  0  0
  -24.2670  -13.1540   20.8210 C   0  0  0  0  0  0  0  0  0  0  0  0
  -24.7130  -11.8040   20.6930 C   0  0  0  0  0  0  0  0  0  0  0  0
  -26.3160  -13.0590   20.0270 N   0  0  0  0  0  0  0  0  0  0  0  0
  -25.9680  -11.7700   20.2660 N   0  0  0  0  0  0  0  0  0  0  0  0
  -24.0000  -10.5380   20.8970 C   0  0  0  0  0  0  0  0  0  0  0  0
  -24.4860   -9.5530   21.7850 C   0  0  0  0  0  3  0  0  0  0  0  0
  -23.7730   -8.3500   21.9780 C   0  0  0  0  0  3  0  0  0  0  0  0
  -22.5610   -8.1240   21.2820 C   0  0  0  0  0  0  0  0  0  0  0  0
  -22.0940   -9.0990   20.3830 C   0  0  0  0  0  3  0  0  0  0  0  0
  -22.8070  -10.2930   20.1880 C   0  0  0  0  0  3  0  0  0  0  0  0
  -21.8150   -6.9760   21.3870 O   0  0  0  0  0  0  0  0  0  0  0  0
  -21.7890   -6.2370   22.5430 C   0  0  0  0  0  0  0  0  0  0  0  0
  -21.3550   -6.7890   23.7690 C   0  0  0  0  0  3  0  0  0  0  0  0
  -21.2770   -5.9770   24.9180 C   0  0  0  0  0  3  0  0  0  0  0  0
  -21.6210   -4.6140   24.8420 C   0  0  0  0  0  0  0  0  0  0  0  0
  -22.0480   -4.0620   23.6210 C   0  0  0  0  0  3  0  0  0  0  0  0
  -22.1280   -4.8710   22.4740 C   0  0  0  0  0  0  0  0  0  0  0  0
  -22.5190   -4.3300   21.2960 F   0  0  0  0  0  0  0  0  0  0  0  0
  -21.5390   -3.8310   25.9430 F   0  0  0  0  0  0  0  0  0  0  0  0
  -22.9040  -13.6250   21.2390 C   0  0  0  0  0  0  0  0  0  0  0  0
  -22.2620  -12.9060   22.1540 N   0  0  0  0  0  0  0  0  0  0  0  0
  -22.4200  -14.6640   20.7920 O   0  0  0  0  0  0  0  0  0  0  0  0
  -22.6680  -12.0660   22.5380 H   0  0  0  0  0  0  0  0  0  0  0  0
  -21.3520  -13.2020   22.4770 H   0  0  0  0  0  0  0  0  0  0  0  0
  -25.4600  -15.3130   20.2460 N   0  0  0  0  0  0  0  0  0  0  0  0
  -24.7080  -15.9620   20.4510 H   0  0  0  0  0  0  0  0  0  0  0  0
  -26.2740  -15.7650   19.8500 H   0  0  0  0  0  0  0  0  0  0  0  0
  -29.8740  -26.4040   20.4750 C   0  0  0  0  0  2  0  0  0  0  0  0
  -29.6230  -24.1370   19.8120 C   0  0  0  0  0  3  0  0  0  0  0  0
  -28.2070  -24.6440   20.1300 C   0  0  0  0  0  3  0  0  0  0  0  0
  -28.3600  -26.1730   20.3120 C   0  0  0  0  0  3  0  0  0  0  0  0
  -27.1400  -24.1600   19.1330 C   0  0  0  0  0  1  0  0  0  0  0  0
  -30.5260  -25.0720   20.5090 N   0  0  1  0  0  4  0  0  0  0  0  0
  -30.5120  -24.7420   21.4670 H   0  0  0  0  0  0  0  0  0  0  0  0
  -32.7490  -26.2330   20.5580 C   0  0  0  0  0  1  0  0  0  0  0  0
  -31.9320  -25.0430   20.0340 C   0  0  0  0  0  2  0  0  0  0  0  0
  -27.9020  -26.9390   19.1890 O   0  0  0  0  0  0  0  0  0  0  0  0
  -24.5920  -31.7930   23.2370 C   0  0  0  0  0  0  0  0  0  0  0  0
  -26.7750  -27.6880   19.4280 C   0  0  0  0  0  0  0  0  0  0  0  0
  -23.1760  -30.5830   21.6070 C   0  0  0  0  0  3  0  0  0  0  0  0
  -24.4290  -29.1930   19.8750 C   0  0  0  0  0  0  0  0  0  0  0  0
  -25.6700  -30.9380   21.1620 C   0  0  0  0  0  2  0  0  0  0  0  0
  -25.6550  -29.6390   20.3850 C   0  0  0  0  0  0  0  0  0  0  0  0
  -26.8330  -28.8890   20.1710 C   0  0  0  0  0  3  0  0  0  0  0  0
  -25.5390  -27.2660   18.8980 C   0  0  0  0  0  3  0  0  0  0  0  0
  -24.3640  -28.0010   19.1320 C   0  0  0  0  0  3  0  0  0  0  0  0
  -23.2150  -30.0510   20.1500 C   0  0  0  0  0  2  0  0  0  0  0  0
  -24.5040  -31.1130   22.0600 N   0  0  0  0  0  0  0  0  0  0  0  0
  -23.5850  -32.0170   23.9240 O   0  0  0  0  0  0  0  0  0  0  0  0
  -22.6160  -29.4720   22.5240 C   0  0  0  0  0  0  0  0  0  0  0  0
  -21.3070  -29.2000   22.4040 N   0  0  0  0  0  0  0  0  0  0  0  0
  -23.3570  -28.8590   23.2990 O   0  0  0  0  0  0  0  0  0  0  0  0
  -20.7680  -29.7520   21.7520 H   0  0  0  0  0  0  0  0  0  0  0  0
  -18.0850  -27.5980   22.7250 C   0  0  0  0  0  0  0  0  0  0  0  0
  -20.5710  -28.1710   23.1360 C   0  0  0  0  0  3  0  0  0  0  0  0
  -20.8830  -26.7620   22.5800 C   0  0  0  0  0  2  0  0  0  0  0  0
  -19.8880  -26.3030   21.5090 C   0  0  0  0  0  2  0  0  0  0  0  0
  -18.4640  -26.2790   22.0730 C   0  0  0  0  0  2  0  0  0  0  0  0
  -19.0750  -28.4930   23.2090 C   0  0  0  0  0  0  0  0  0  0  0  0
  -18.6700  -29.7230   23.7720 C   0  0  0  0  0  3  0  0  0  0  0  0
  -17.3060  -30.0620   23.8590 C   0  0  0  0  0  3  0  0  0  0  0  0
  -16.3300  -29.1640   23.3930 C   0  0  0  0  0  3  0  0  0  0  0  0
  -16.7200  -27.9360   22.8310 C   0  0  0  0  0  3  0  0  0  0  0  0
  -25.9540  -32.3410   23.7660 C   0  0  0  0  0  3  0  0  0  0  0  0
  -26.5560  -31.4800   24.9440 C   0  0  1  0  0  0  0  0  0  0  0  0
  -25.5620  -31.2290   26.1010 C   0  0  0  0  0  1  0  0  0  0  0  0
  -27.0320  -30.1010   24.4250 C   0  0  0  0  0  1  0  0  0  0  0  0
  -27.8020  -32.1870   25.5270 C   0  0  0  0  0  1  0  0  0  0  0  0
  -25.7370  -33.7290   24.1930 N   0  0  0  0  0  0  0  0  0  0  0  0
  -26.0470  -34.8060   23.4610 C   0  0  0  0  0  0  0  0  0  0  0  0
  -26.6220  -34.7330   22.3710 O   0  0  0  0  0  0  0  0  0  0  0  0
  -25.2210  -33.8630   25.0510 H   0  0  0  0  0  0  0  0  0  0  0  0
  -24.3660  -36.6740   23.3550 C   0  0  0  0  0  1  0  0  0  0  0  0
  -25.6600  -36.1850   24.0270 C   0  0  0  0  0  3  0  0  0  0  0  0
  -27.8900  -36.9540   24.7060 C   0  0  0  0  0  1  0  0  0  0  0  0
  -26.7190  -37.2050   23.8710 N   0  0  0  0  0  0  0  0  0  0  0  0
  -26.3630  -38.1310   24.0930 H   0  0  0  0  0  0  0  0  0  0  0  0
  -30.0170  -23.0040   23.9050 C   0  0  0  0  0  1  0  0  0  0  0  0
  -29.8410  -23.3280   22.5290 O   0  0  0  0  0  0  0  0  0  0  0  0
  -29.8830  -21.0690   16.8870 C   0  0  0  0  0  1  0  0  0  0  0  0
  -29.8910  -22.0660   17.9010 O   0  0  0  0  0  0  0  0  0  0  0  0
  2  3  1  0
  3  1  2  0
  4  5  2  0
  5  1  1  0
  5100  1  0
  6  2  2  0
  6  4  1  0
  7 20  1  0
  8 13  1  0
  9 10  1  0
  9  8  1  0
 11 10  1  0
 11 24  1  0
 11 12  1  0
 13  7  1  0
 13 12  1  0
 14  7  2  0
 15 17  1  0
 15 19  1  0
 16 19  1  0
 16 18  1  0
 19  3  1  0
 20 17  1  0
 20 18  1  0
 21 22  2  0
 22 41  1  0
 23 22  1  0
 23 26  1  0
 24 25  1  0
 24 21  1  0
 25 23  2  0
 26 27  1  0
 27 28  2  0
 29 32  1  0
 29 28  1  0
 30 29  2  0
 31 30  1  0
 31 26  2  0
 32 33  1  0
 33 34  1  0
 34 35  2  0
 36 35  1  0
 36 40  1  0
 37 36  2  0
 38 33  2  0
 38 37  1  0
 39 38  1  0
 41 42  1  0
 42 45  1  0
 42 44  1  0
 43 41  2  0
 46 21  1  0
 46 47  1  0
 48 46  1  0
 49 54  1  0
 50 51  1  0
 50  4  1  0
 50 54  1  0
 51 53  1  0
 51 52  1  0
 52 58  1  0
 52 49  1  0
 54 55  1  1
 57 54  1  0
 57 56  1  0
 58 60  1  0
 59 70  2  0
 60 65  1  0
 61 69  1  0
 61 71  1  0
 62 68  1  0
 62 64  1  0
 63 69  1  0
 64 63  1  0
 65 64  2  0
 66 67  1  0
 66 60  2  0
 67 62  2  0
 68 61  1  0
 69 59  1  0
 71 73  2  0
 72 71  1  0
 74 72  1  0
 75 84  2  0
 75 80  1  0
 76 72  1  0
 76 80  1  0
 77 76  1  0
 78 79  1  0
 78 77  1  0
 79 75  1  0
 80 81  2  0
 81 82  1  0
 83 82  2  0
 84 83  1  0
 85 59  1  0
 85 90  1  0
 85 86  1  0
 86 89  1  1
 86 87  1  0
 88 86  1  0
 90 93  1  0
 91 95  1  0
 91 90  1  0
 92 91  2  0
 95 94  1  0
 97 95  1  0
 97 98  1  0
 97 96  1  0
100 99  1  0
101102  1  0
102  6  1  0
M  ISO  4   7 100  20 100  52 101  58 101
M  END
>  <TORSDO>  (50) 
F 20

>  <SCORE>  (50) 
-13.361

>  <name>  (50) 
49

>  <ligand_id>  (50) 
49

>  <original_smiles>  (50) 
[H]c1c([H])c([H])c2c(c1[H])C([H])([H])C([H])([H])C([H])([H])C2([H])N([H])C(=O)C1([H])N(C(=O)C([H])(N([H])C(=O)C([H])(N([H])C([H])([H])[H])C([H])([H])[H])C(C([H])([H])[H])(C([H])([H])[H])C([H])([H])[H])C([H])([H])c2c([H])c(OC3([H])C([H])(C([H])([H])[H])C([H])(c4c(OC([H])([H])[H])c([H])c(C5([H])C([H])([H])C([H])([H])N(C(=O)N6C([H])([H])C([H])([H])C([H])([H])C([H])(n7nc(-c8c([H])c([H])c(Oc9c([H])c([H])c(F)c([H])c9F)c([H])c8[H])c(C(=O)N([H])[H])c7N([H])[H])C6([H])[H])C([H])([H])C5([H])[H])c([H])c4OC([H])([H])[H])[N+]([H])(C([H])([H])C([H])([H])[H])C3([H])[H])c([H])c([H])c2C1([H])[H]

>  <smiles>  (50) 
[H]c1c([H])c([H])c2c(c1[H])C([H])([H])C([H])([H])C([H])([H])C2([H])N([H])C(=O)C1([H])N(C(=O)C([H])(N([H])C(=O)C([H])(N([H])C([H])([H])[H])C([H])([H])[H])C(C([H])([H])[H])(C([H])([H])[H])C([H])([H])[H])C([H])([H])c2c([H])c(OC3([H])C([H])(C([H])([H])[H])C([H])(c4c(OC([H])([H])[H])c([H])c(C5([H])C([H])([H])C([H])([H])N(C(=O)N6C([H])([H])C([H])([H])C([H])([H])C([H])(n7nc(-c8c([H])c([H])c(Oc9c([H])c([H])c(F)c([H])c9F)c([H])c8[H])c(C(=O)N([H])[H])c7N([H])[H])C6([H])[H])C([H])([H])C5([H])[H])c([H])c4OC([H])([H])[H])[N+]([H])(C([H])([H])C([H])([H])[H])C3([H])[H])c([H])c([H])c2C1([H])[H]

$$$$
50:0:0
     RDKit          3D

 99108  0  0  1  0  0  0  0  0999 V2000
  -29.1310  -22.3110   19.6780 C   0  0  0  0  0  3  0  0  0  0  0  0
  -29.7930  -23.3870   19.0280 C   0  0  0  0  0  0  0  0  0  0  0  0
  -31.0540  -23.1130   18.4250 C   0  0  0  0  0  0  0  0  0  0  0  0
  -31.5760  -21.8010   18.5240 C   0  0  0  0  0  0  0  0  0  0  0  0
  -29.7320  -21.0310   19.7230 C   0  0  0  0  0  0  0  0  0  0  0  0
  -31.8700  -24.1820   17.6900 C   0  0  0  0  0  1  0  0  0  0  0  0
  -32.9140  -21.4000   17.9230 C   0  0  0  0  0  1  0  0  0  0  0  0
  -30.9270  -20.8040   19.1510 N   0  0  0  0  0  0  0  0  0  0  0  0
  -29.1090  -19.9440   20.3700 N   0  0  0  0  0  0  0  0  0  0  0  0
  -28.2000  -20.0780   20.8000 H   0  0  0  0  0  0  0  0  0  0  0  0
  -30.7810  -14.5050   20.0240 C   0  0  0  0  0  0  0  0  0  0  0  0
  -30.4050  -12.3480   18.9100 C   0  0  0  0  0  2  0  0  0  0  0  0
  -29.3930  -12.5570   17.7630 C   0  0  0  0  0  2  0  0  0  0  0  0
  -27.9480  -12.4230   18.2830 C   0  0  0  0  0  2  0  0  0  0  0  0
  -27.6860  -13.2490   19.5720 C   0  0  0  0  0  3  0  0  0  0  0  0
  -28.8110  -13.0470   20.6110 C   0  0  0  0  0  2  0  0  0  0  0  0
  -30.0890  -13.3370   19.9490 N   0  0  0  0  0  0  0  0  0  0  0  0
  -31.9410  -14.6120   19.6170 O   0  0  0  0  0  0  0  0  0  0  0  0
  -29.1770  -17.7920   19.1010 C   0  0  0  0  0  2  0  0  0  0  0  0
  -29.3820  -17.7070   21.5360 C   0  0  0  0  0  2  0  0  0  0  0  0
  -29.9680  -16.4790   18.9600 C   0  0  0  0  0  2  0  0  0  0  0  0
  -30.1490  -16.3570   21.4580 C   0  0  0  0  0  2  0  0  0  0  0  0
  -29.6790  -18.5860   20.3090 C   0  0  0  0  0  3  0  0  0  0  0  0
  -30.0270  -15.6290   20.1740 N   0  0  0  0  0  0  0  0  0  0  0  0
  -25.3450  -13.8320   20.4620 C   0  0  0  0  0  0  0  0  0  0  0  0
  -24.3000  -13.0510   20.8750 C   0  0  0  0  0  0  0  0  0  0  0  0
  -24.7540  -11.7000   20.7720 C   0  0  0  0  0  0  0  0  0  0  0  0
  -26.3690  -12.9580   20.1340 N   0  0  0  0  0  0  0  0  0  0  0  0
  -26.0210  -11.6680   20.3790 N   0  0  0  0  0  0  0  0  0  0  0  0
  -24.0370  -10.4320   20.9680 C   0  0  0  0  0  0  0  0  0  0  0  0
  -24.4960   -9.4600   21.8840 C   0  0  0  0  0  3  0  0  0  0  0  0
  -23.7830   -8.2560   22.0680 C   0  0  0  0  0  3  0  0  0  0  0  0
  -22.5960   -8.0160   21.3360 C   0  0  0  0  0  0  0  0  0  0  0  0
  -22.1550   -8.9770   20.4110 C   0  0  0  0  0  3  0  0  0  0  0  0
  -22.8680  -10.1740   20.2250 C   0  0  0  0  0  3  0  0  0  0  0  0
  -21.8510   -6.8660   21.4300 O   0  0  0  0  0  0  0  0  0  0  0  0
  -21.7850   -6.1430   22.5940 C   0  0  0  0  0  0  0  0  0  0  0  0
  -21.3140   -6.7100   23.7980 C   0  0  0  0  0  3  0  0  0  0  0  0
  -21.2020   -5.9130   24.9560 C   0  0  0  0  0  3  0  0  0  0  0  0
  -21.5470   -4.5490   24.9060 C   0  0  0  0  0  0  0  0  0  0  0  0
  -22.0080   -3.9800   23.7060 C   0  0  0  0  0  3  0  0  0  0  0  0
  -22.1240   -4.7760   22.5530 C   0  0  0  0  0  0  0  0  0  0  0  0
  -22.5520   -4.2190   21.3940 F   0  0  0  0  0  0  0  0  0  0  0  0
  -21.4320   -3.7810   26.0150 F   0  0  0  0  0  0  0  0  0  0  0  0
  -22.9250  -13.5210   21.2520 C   0  0  0  0  0  0  0  0  0  0  0  0
  -22.2520  -12.8010   22.1440 N   0  0  0  0  0  0  0  0  0  0  0  0
  -22.4570  -14.5610   20.7920 O   0  0  0  0  0  0  0  0  0  0  0  0
  -22.6400  -11.9560   22.5350 H   0  0  0  0  0  0  0  0  0  0  0  0
  -21.3340  -13.1010   22.4430 H   0  0  0  0  0  0  0  0  0  0  0  0
  -25.5070  -15.2070   20.3170 N   0  0  0  0  0  0  0  0  0  0  0  0
  -24.7570  -15.8660   20.4900 H   0  0  0  0  0  0  0  0  0  0  0  0
  -26.3550  -15.6460   19.9790 H   0  0  0  0  0  0  0  0  0  0  0  0
  -29.1230  -24.7780   18.9200 C   0  0  0  0  0  3  0  0  0  0  0  0
  -28.6120  -24.6470   16.4590 C   0  0  0  0  0  1  0  0  0  0  0  0
  -28.1020  -24.7480   17.8440 N   0  0  0  0  0  4  0  0  0  0  0  0
  -27.4860  -23.9680   18.0100 H   0  0  0  0  0  0  0  0  0  0  0  0
  -27.5600  -25.5950   17.8940 H   0  0  0  0  0  0  0  0  0  0  0  0
  -28.5280  -25.3200   20.2500 C   0  0  0  0  0  2  0  0  0  0  0  0
  -28.5080  -26.7630   20.2780 O   0  0  0  0  0  0  0  0  0  0  0  0
  -24.5650  -31.9090   23.2250 C   0  0  0  0  0  0  0  0  0  0  0  0
  -27.3070  -27.4430   20.2590 C   0  0  0  0  0  0  0  0  0  0  0  0
  -23.4040  -30.4830   21.5710 C   0  0  0  0  0  3  0  0  0  0  0  0
  -24.8990  -28.9340   20.2030 C   0  0  0  0  0  0  0  0  0  0  0  0
  -25.9320  -30.8540   21.4260 C   0  0  0  0  0  2  0  0  0  0  0  0
  -26.0400  -29.4760   20.8040 C   0  0  0  0  0  0  0  0  0  0  0  0
  -27.2470  -28.7410   20.8220 C   0  0  0  0  0  3  0  0  0  0  0  0
  -26.1380  -26.9110   19.6640 C   0  0  0  0  0  3  0  0  0  0  0  0
  -24.9420  -27.6530   19.6330 C   0  0  0  0  0  3  0  0  0  0  0  0
  -23.6500  -29.7880   20.2060 C   0  0  0  0  0  2  0  0  0  0  0  0
  -24.6510  -31.0990   22.1320 N   0  0  0  0  0  0  0  0  0  0  0  0
  -23.4700  -32.1810   23.7370 O   0  0  0  0  0  0  0  0  0  0  0  0
  -22.7370  -29.4690   22.5270 C   0  0  0  0  0  0  0  0  0  0  0  0
  -21.4190  -29.2730   22.3680 N   0  0  0  0  0  0  0  0  0  0  0  0
  -23.4050  -28.8590   23.3670 O   0  0  0  0  0  0  0  0  0  0  0  0
  -20.9430  -29.8180   21.6610 H   0  0  0  0  0  0  0  0  0  0  0  0
  -18.0440  -28.0520   22.7800 C   0  0  0  0  0  0  0  0  0  0  0  0
  -20.5890  -28.3380   23.1270 C   0  0  0  0  0  3  0  0  0  0  0  0
  -20.7220  -26.9000   22.5750 C   0  0  0  0  0  2  0  0  0  0  0  0
  -19.6550  -26.5530   21.5330 C   0  0  0  0  0  2  0  0  0  0  0  0
  -18.2530  -26.6950   22.1310 C   0  0  0  0  0  2  0  0  0  0  0  0
  -19.1420  -28.8310   23.2340 C   0  0  0  0  0  0  0  0  0  0  0  0
  -18.8940  -30.1010   23.7970 C   0  0  0  0  0  3  0  0  0  0  0  0
  -17.5810  -30.5940   23.9140 C   0  0  0  0  0  3  0  0  0  0  0  0
  -16.4970  -29.8120   23.4790 C   0  0  0  0  0  3  0  0  0  0  0  0
  -16.7290  -28.5450   22.9170 C   0  0  0  0  0  3  0  0  0  0  0  0
  -25.8320  -32.5530   23.8690 C   0  0  0  0  0  3  0  0  0  0  0  0
  -26.3340  -31.7870   25.1550 C   0  0  1  0  0  0  0  0  0  0  0  0
  -25.2240  -31.5370   26.2020 C   0  0  0  0  0  1  0  0  0  0  0  0
  -26.9420  -30.4170   24.7720 C   0  0  0  0  0  1  0  0  0  0  0  0
  -27.4620  -32.5950   25.8400 C   0  0  0  0  0  1  0  0  0  0  0  0
  -25.5040  -33.9480   24.1910 N   0  0  0  0  0  0  0  0  0  0  0  0
  -25.8360  -35.0020   23.4340 C   0  0  0  0  0  0  0  0  0  0  0  0
  -26.5230  -34.9030   22.4130 O   0  0  0  0  0  0  0  0  0  0  0  0
  -24.8910  -34.0970   24.9790 H   0  0  0  0  0  0  0  0  0  0  0  0
  -24.0910  -36.7710   23.0480 C   0  0  0  0  0  1  0  0  0  0  0  0
  -25.3250  -36.3850   23.8790 C   0  0  0  0  0  3  0  0  0  0  0  0
  -27.4360  -37.2990   24.7380 C   0  0  0  0  0  1  0  0  0  0  0  0
  -26.3460  -37.4500   23.7770 N   0  0  0  0  0  0  0  0  0  0  0  0
  -25.9280  -38.3660   23.9130 H   0  0  0  0  0  0  0  0  0  0  0  0
  1  5  1  0
  2  1  2  0
  3  4  2  0
  3  2  1  0
  4  8  1  0
  5  9  1  0
  6  3  1  0
  7  4  1  0
  8  5  2  0
  9 10  1  0
 11 24  1  0
 12 17  1  0
 13 14  1  0
 13 12  1  0
 15 14  1  0
 15 28  1  0
 15 16  1  0
 17 11  1  0
 17 16  1  0
 18 11  2  0
 19 23  1  0
 21 19  1  0
 21 24  1  0
 22 20  1  0
 23  9  1  0
 23 20  1  0
 24 22  1  0
 25 26  2  0
 26 45  1  0
 27 26  1  0
 27 30  1  0
 28 29  1  0
 28 25  1  0
 29 27  2  0
 30 31  1  0
 31 32  2  0
 33 36  1  0
 33 32  1  0
 34 33  2  0
 35 34  1  0
 35 30  2  0
 36 37  1  0
 37 38  1  0
 38 39  2  0
 40 39  1  0
 40 44  1  0
 41 40  2  0
 42 37  2  0
 42 41  1  0
 43 42  1  0
 45 46  1  0
 46 49  1  0
 46 48  1  0
 47 45  2  0
 50 25  1  0
 50 51  1  0
 52 50  1  0
 53  2  1  0
 53 58  1  0
 54 55  1  0
 55 57  1  0
 55 56  1  0
 55 53  1  0
 58 59  1  0
 60 71  2  0
 61 59  1  0
 61 66  1  0
 62 70  1  0
 62 72  1  0
 63 69  1  0
 63 65  1  0
 64 70  1  0
 65 66  2  0
 65 64  1  0
 67 61  2  0
 68 67  1  0
 68 63  2  0
 69 62  1  0
 70 60  1  0
 72 74  2  0
 73 72  1  0
 75 73  1  0
 76 85  2  0
 76 81  1  0
 77 73  1  0
 77 81  1  0
 78 77  1  0
 79 80  1  0
 79 78  1  0
 80 76  1  0
 81 82  2  0
 82 83  1  0
 84 83  2  0
 85 84  1  0
 86 60  1  0
 86 91  1  0
 86 87  1  0
 87 90  1  1
 87 88  1  0
 89 87  1  0
 91 94  1  0
 92 96  1  0
 92 91  1  0
 93 92  2  0
 96 95  1  0
 98 96  1  0
 98 99  1  0
 98 97  1  0
M  ISO  4  11 100  24 100  58 101  59 101
M  END
>  <TORSDO>  (51) 
F 19

>  <SCORE>  (51) 
-13.896

>  <name>  (51) 
50

>  <ligand_id>  (51) 
50

>  <original_smiles>  (51) 
[H]c1c([H])c([H])c2c(c1[H])C([H])([H])C([H])([H])C([H])([H])C2([H])N([H])C(=O)C1([H])N(C(=O)C([H])(N([H])C(=O)C([H])(N([H])C([H])([H])[H])C([H])([H])[H])C(C([H])([H])[H])(C([H])([H])[H])C([H])([H])[H])C([H])([H])c2c([H])c(OC([H])([H])C([H])(c3c([H])c(N([H])C4([H])C([H])([H])C([H])([H])N(C(=O)N5C([H])([H])C([H])([H])C([H])([H])C([H])(n6nc(-c7c([H])c([H])c(Oc8c([H])c([H])c(F)c([H])c8F)c([H])c7[H])c(C(=O)N([H])[H])c6N([H])[H])C5([H])[H])C([H])([H])C4([H])[H])nc(C([H])([H])[H])c3C([H])([H])[H])[N+]([H])([H])C([H])([H])[H])c([H])c([H])c2C1([H])[H]

>  <smiles>  (51) 
[H]c1c([H])c([H])c2c(c1[H])C([H])([H])C([H])([H])C([H])([H])C2([H])N([H])C(=O)C1([H])N(C(=O)C([H])(N([H])C(=O)C([H])(N([H])C([H])([H])[H])C([H])([H])[H])C(C([H])([H])[H])(C([H])([H])[H])C([H])([H])[H])C([H])([H])c2c([H])c(OC([H])([H])C([H])(c3c([H])c(N([H])C4([H])C([H])([H])C([H])([H])N(C(=O)N5C([H])([H])C([H])([H])C([H])([H])C([H])(n6nc(-c7c([H])c([H])c(Oc8c([H])c([H])c(F)c([H])c8F)c([H])c7[H])c(C(=O)N([H])[H])c6N([H])[H])C5([H])[H])C([H])([H])C4([H])[H])nc(C([H])([H])[H])c3C([H])([H])[H])[N+]([H])([H])C([H])([H])[H])c([H])c([H])c2C1([H])[H]

$$$$
51:0:0
     RDKit          3D

 96106  0  0  1  0  0  0  0  0999 V2000
  -28.6530  -23.6050   20.0220 C   0  0  0  0  0  2  0  0  0  0  0  0
  -27.9850  -23.3750   18.6350 C   0  0  0  0  0  2  0  0  0  0  0  0
  -26.9770  -25.2710   19.6960 C   0  0  0  0  0  2  0  0  0  0  0  0
  -27.6550  -24.4180   20.8630 C   0  0  0  0  0  3  0  0  0  0  0  0
  -27.2590  -24.6820   18.2320 C   0  0  1  0  0  0  0  0  0  0  0  0
  -28.2300  -25.6330   17.5070 C   0  0  0  0  0  1  0  0  0  0  0  0
  -30.0530  -27.9410   23.5580 C   0  0  0  0  0  3  0  0  0  0  0  0
  -30.5300  -28.6350   22.4290 C   0  0  0  0  0  3  0  0  0  0  0  0
  -29.5020  -26.9680   20.9570 C   0  0  0  0  0  3  0  0  0  0  0  0
  -29.2920  -26.7700   23.3710 C   0  0  0  0  0  0  0  0  0  0  0  0
  -30.2440  -28.1580   21.1310 C   0  0  0  0  0  0  0  0  0  0  0  0
  -29.0350  -26.2550   22.0840 C   0  0  0  0  0  0  0  0  0  0  0  0
  -27.6480  -25.1580   23.4870 C   0  0  0  0  0  2  0  0  0  0  0  0
  -28.5890  -26.0030   24.4640 C   0  0  0  0  0  3  0  0  0  0  0  0
  -30.7150  -28.9310   19.9140 C   0  0  0  0  0  1  0  0  0  0  0  0
  -28.2570  -25.0760   22.1020 N   0  0  0  0  0  0  0  0  0  0  0  0
  -27.5660  -26.7550   26.8150 C   0  0  0  0  0  0  0  0  0  0  0  0
  -26.4010  -28.1620   28.5210 C   0  0  0  0  0  2  0  0  0  0  0  0
  -25.5070  -29.1890   27.7920 C   0  0  0  0  0  2  0  0  0  0  0  0
  -26.3130  -30.4480   27.4070 C   0  0  0  0  0  2  0  0  0  0  0  0
  -27.6730  -30.1130   26.7380 C   0  0  0  0  0  3  0  0  0  0  0  0
  -28.4300  -29.0240   27.5280 C   0  0  0  0  0  2  0  0  0  0  0  0
  -27.5350  -27.8630   27.6250 N   0  0  0  0  0  0  0  0  0  0  0  0
  -27.0080  -25.7080   27.1510 O   0  0  0  0  0  0  0  0  0  0  0  0
  -28.0620  -26.9440   25.5410 N   0  0  0  0  0  0  0  0  0  0  0  0
  -28.2990  -27.9050   25.3620 H   0  0  0  0  0  0  0  0  0  0  0  0
  -28.8850  -31.8850   25.3310 C   0  0  0  0  0  0  0  0  0  0  0  0
  -29.5670  -33.0200   25.6750 C   0  0  0  0  0  0  0  0  0  0  0  0
  -29.5600  -33.0680   27.1030 C   0  0  0  0  0  0  0  0  0  0  0  0
  -28.4930  -31.3020   26.5250 N   0  0  0  0  0  0  0  0  0  0  0  0
  -28.9610  -31.9910   27.5970 N   0  0  0  0  0  0  0  0  0  0  0  0
  -30.0400  -34.1060   28.0250 C   0  0  0  0  0  0  0  0  0  0  0  0
  -30.9860  -33.8190   29.0310 C   0  0  0  0  0  3  0  0  0  0  0  0
  -31.4430  -34.8360   29.8960 C   0  0  0  0  0  3  0  0  0  0  0  0
  -30.9600  -36.1580   29.7560 C   0  0  0  0  0  0  0  0  0  0  0  0
  -29.9990  -36.4350   28.7670 C   0  0  0  0  0  3  0  0  0  0  0  0
  -29.5410  -35.4190   27.9100 C   0  0  0  0  0  3  0  0  0  0  0  0
  -31.3300  -37.2050   30.5640 O   0  0  0  0  0  0  0  0  0  0  0  0
  -32.6440  -37.4500   30.8670 C   0  0  0  0  0  0  0  0  0  0  0  0
  -33.5310  -38.0230   29.9310 C   0  0  0  0  0  3  0  0  0  0  0  0
  -34.8560  -38.3230   30.3090 C   0  0  0  0  0  3  0  0  0  0  0  0
  -35.2920  -38.0590   31.6210 C   0  0  0  0  0  0  0  0  0  0  0  0
  -34.4060  -37.4940   32.5560 C   0  0  0  0  0  3  0  0  0  0  0  0
  -33.0860  -37.1930   32.1810 C   0  0  0  0  0  0  0  0  0  0  0  0
  -32.2320  -36.6670   33.0910 F   0  0  0  0  0  0  0  0  0  0  0  0
  -36.5610  -38.3530   31.9860 F   0  0  0  0  0  0  0  0  0  0  0  0
  -30.1080  -34.0580   24.7320 C   0  0  0  0  0  0  0  0  0  0  0  0
  -31.2040  -34.7110   25.0990 N   0  0  0  0  0  0  0  0  0  0  0  0
  -29.5830  -34.2610   23.6380 O   0  0  0  0  0  0  0  0  0  0  0  0
  -31.6500  -34.5310   25.9870 H   0  0  0  0  0  0  0  0  0  0  0  0
  -31.6030  -35.4050   24.4820 H   0  0  0  0  0  0  0  0  0  0  0  0
  -28.5500  -31.3180   24.1060 N   0  0  0  0  0  0  0  0  0  0  0  0
  -28.8170  -31.7470   23.2280 H   0  0  0  0  0  0  0  0  0  0  0  0
  -28.0160  -30.4700   23.9800 H   0  0  0  0  0  0  0  0  0  0  0  0
  -25.9720  -24.4670   17.2680 C   0  0  0  0  0  2  0  0  0  0  0  0
  -26.0290  -24.2880   15.7750 O   0  0  0  0  0  0  0  0  0  0  0  0
  -21.3200  -26.8140   10.8560 C   0  0  0  0  0  0  0  0  0  0  0  0
  -24.8010  -24.1370   15.0830 C   0  0  0  0  0  0  0  0  0  0  0  0
  -20.4480  -25.2270   12.5300 C   0  0  0  0  0  3  0  0  0  0  0  0
  -22.2010  -23.9420   13.8740 C   0  0  0  0  0  0  0  0  0  0  0  0
  -22.9010  -25.1000   11.7860 C   0  0  0  0  0  2  0  0  0  0  0  0
  -23.2480  -24.5460   13.1660 C   0  0  0  0  0  0  0  0  0  0  0  0
  -24.5510  -24.6320   13.7580 C   0  0  0  0  0  3  0  0  0  0  0  0
  -23.7170  -23.4940   15.7250 C   0  0  0  0  0  3  0  0  0  0  0  0
  -22.4400  -23.4050   15.1450 C   0  0  0  0  0  3  0  0  0  0  0  0
  -20.8320  -23.8960   13.2270 C   0  0  0  0  0  2  0  0  0  0  0  0
  -21.5710  -25.7710   11.7010 N   0  0  0  0  0  0  0  0  0  0  0  0
  -20.1820  -27.2930   10.7430 O   0  0  0  0  0  0  0  0  0  0  0  0
  -19.9290  -26.2260   13.5940 C   0  0  0  0  0  0  0  0  0  0  0  0
  -19.1760  -25.7200   14.5850 N   0  0  0  0  0  0  0  0  0  0  0  0
  -20.2240  -27.4210   13.5280 O   0  0  0  0  0  0  0  0  0  0  0  0
  -18.9680  -24.7310   14.5650 H   0  0  0  0  0  0  0  0  0  0  0  0
  -18.1020  -25.4510   18.0300 C   0  0  0  0  0  0  0  0  0  0  0  0
  -18.6210  -26.4720   15.7130 C   0  0  0  0  0  3  0  0  0  0  0  0
  -19.7200  -27.2880   16.4340 C   0  0  0  0  0  2  0  0  0  0  0  0
  -20.3460  -26.5430   17.6170 C   0  0  0  0  0  2  0  0  0  0  0  0
  -19.2780  -26.1840   18.6530 C   0  0  0  0  0  2  0  0  0  0  0  0
  -17.8030  -25.5740   16.6480 C   0  0  0  0  0  0  0  0  0  0  0  0
  -16.7170  -24.8450   16.1150 C   0  0  0  0  0  3  0  0  0  0  0  0
  -15.9400  -24.0070   16.9360 C   0  0  0  0  0  3  0  0  0  0  0  0
  -16.2320  -23.8990   18.3070 C   0  0  0  0  0  3  0  0  0  0  0  0
  -17.3070  -24.6230   18.8520 C   0  0  0  0  0  3  0  0  0  0  0  0
  -22.4440  -27.4400    9.9750 C   0  0  0  0  0  3  0  0  0  0  0  0
  -22.3050  -26.8880    8.6200 N   0  0  0  0  0  0  0  0  0  0  0  0
  -23.1570  -26.0150    8.0630 C   0  0  0  0  0  0  0  0  0  0  0  0
  -24.1900  -25.6400    8.6240 O   0  0  0  0  0  0  0  0  0  0  0  0
  -21.4520  -27.1040    8.1280 H   0  0  0  0  0  0  0  0  0  0  0  0
  -22.1520  -24.0890    6.7940 C   0  0  0  0  0  1  0  0  0  0  0  0
  -22.8060  -25.4730    6.6640 C   0  0  0  0  0  3  0  0  0  0  0  0
  -24.5530  -26.6890    5.4390 C   0  0  0  0  0  1  0  0  0  0  0  0
  -23.9710  -25.3880    5.7570 N   0  0  0  0  0  0  0  0  0  0  0  0
  -23.7170  -24.9330    4.8850 H   0  0  0  0  0  0  0  0  0  0  0  0
  -22.3970  -29.0180    9.9410 C   0  0  1  0  0  0  0  0  0  0  0  0
  -21.0040  -29.5900    9.5910 C   0  0  0  0  0  1  0  0  0  0  0  0
  -22.8190  -29.6060   11.3070 C   0  0  0  0  0  1  0  0  0  0  0  0
  -23.4090  -29.5490    8.8980 C   0  0  0  0  0  1  0  0  0  0  0  0
  1  4  1  0
  2  1  1  0
  4  3  1  0
  4 16  1  0
  5  6  1  6
  5  2  1  0
  5  3  1  0
  8  7  2  0
  9 11  2  0
  9 12  1  0
 10  7  1  0
 10 14  1  0
 11  8  1  0
 12 16  1  0
 12 10  2  0
 13 14  1  0
 14 25  1  0
 15 11  1  0
 16 13  1  0
 17 24  2  0
 17 23  1  0
 19 18  1  0
 20 19  1  0
 21 30  1  0
 21 20  1  0
 21 22  1  0
 22 23  1  0
 23 18  1  0
 25 17  1  0
 26 25  1  0
 27 28  2  0
 27 30  1  0
 28 29  1  0
 29 31  2  0
 29 32  1  0
 30 31  1  0
 32 33  1  0
 33 34  2  0
 35 34  1  0
 35 38  1  0
 36 35  2  0
 37 32  2  0
 37 36  1  0
 38 39  1  0
 39 44  1  0
 40 41  1  0
 40 39  2  0
 41 42  2  0
 42 46  1  0
 42 43  1  0
 44 43  2  0
 44 45  1  0
 47 48  1  0
 47 28  1  0
 48 50  1  0
 49 47  2  0
 51 48  1  0
 52 27  1  0
 53 52  1  0
 54 52  1  0
 55  5  1  0
 56 55  1  0
 57 67  1  0
 58 64  1  0
 58 56  1  0
 59 66  1  0
 59 69  1  0
 60 65  1  0
 61 62  1  0
 62 63  1  0
 62 60  2  0
 63 58  2  0
 65 64  2  0
 66 60  1  0
 67 61  1  0
 67 59  1  0
 68 57  2  0
 69 70  1  0
 71 69  2  0
 72 70  1  0
 73 77  1  0
 73 82  1  0
 74 70  1  0
 74 75  1  0
 74 78  1  0
 75 76  1  0
 76 77  1  0
 78 73  2  0
 79 78  1  0
 79 80  2  0
 80 81  1  0
 81 82  2  0
 83 57  1  0
 84 83  1  0
 85 84  1  0
 85 86  2  0
 87 84  1  0
 89 88  1  0
 89 85  1  0
 90 91  1  0
 91 89  1  0
 92 91  1  0
 93 83  1  0
 93 95  1  1
 94 93  1  0
 96 93  1  0
M  ISO  4  17 100  25 100  55 101  56 101
M  END
>  <TORSDO>  (52) 
F 18

>  <SCORE>  (52) 
-2.551

>  <name>  (52) 
51

>  <ligand_id>  (52) 
51

>  <original_smiles>  (52) 
[H]c1c([H])c([H])c2c(c1[H])C([H])([H])C([H])([H])C([H])([H])C2([H])N([H])C(=O)C1([H])N(C(=O)C([H])(N([H])C(=O)C([H])(N([H])C([H])([H])[H])C([H])([H])[H])C(C([H])([H])[H])(C([H])([H])[H])C([H])([H])[H])C([H])([H])c2c([H])c(OC([H])([H])C3(C([H])([H])[H])C([H])([H])C([H])([H])C([H])(N4c5c([H])c(C([H])([H])[H])c([H])c([H])c5C([H])(N([H])C(=O)N5C([H])([H])C([H])([H])C([H])([H])C([H])(n6nc(-c7c([H])c([H])c(Oc8c([H])c([H])c(F)c([H])c8F)c([H])c7[H])c(C(=O)N([H])[H])c6N([H])[H])C5([H])[H])C4([H])[H])C3([H])[H])c([H])c([H])c2C1([H])[H]

>  <smiles>  (52) 
[H]c1c([H])c([H])c2c(c1[H])C([H])([H])C([H])([H])C([H])([H])C2([H])N([H])C(=O)C1([H])N(C(=O)C([H])(N([H])C(=O)C([H])(N([H])C([H])([H])[H])C([H])([H])[H])C(C([H])([H])[H])(C([H])([H])[H])C([H])([H])[H])C([H])([H])c2c([H])c(OC([H])([H])C3(C([H])([H])[H])C([H])([H])C([H])([H])C([H])(N4c5c([H])c(C([H])([H])[H])c([H])c([H])c5C([H])(N([H])C(=O)N5C([H])([H])C([H])([H])C([H])([H])C([H])(n6nc(-c7c([H])c([H])c(Oc8c([H])c([H])c(F)c([H])c8F)c([H])c7[H])c(C(=O)N([H])[H])c6N([H])[H])C5([H])[H])C4([H])[H])C3([H])[H])c([H])c([H])c2C1([H])[H]

$$$$
52:0:0
     RDKit          3D

 94103  0  0  1  0  0  0  0  0999 V2000
  -27.6130  -22.1040   19.8020 C   0  0  0  0  0  0  0  0  0  0  0  0
  -27.9660  -20.7370   19.6160 C   0  0  0  0  0  0  0  0  0  0  0  0
  -28.3500  -22.8850   20.7310 C   0  0  0  0  0  0  0  0  0  0  0  0
  -28.9820  -20.1600   20.4250 C   0  0  0  0  0  0  0  0  0  0  0  0
  -29.3690  -22.2260   21.4620 C   0  0  0  0  0  0  0  0  0  0  0  0
  -26.4660  -22.7070   18.9930 C   0  0  0  0  0  1  0  0  0  0  0  0
  -27.2540  -19.9180   18.5400 C   0  0  0  0  0  1  0  0  0  0  0  0
  -30.2680  -22.9550   22.4460 C   0  0  0  0  0  1  0  0  0  0  0  0
  -29.6390  -20.9070   21.3370 N   0  0  0  0  0  0  0  0  0  0  0  0
  -30.6940  -14.5560   20.0450 C   0  0  0  0  0  0  0  0  0  0  0  0
  -30.2690  -12.3880   18.9260 C   0  0  0  0  0  2  0  0  0  0  0  0
  -29.2570  -12.5490   17.7740 C   0  0  0  0  0  2  0  0  0  0  0  0
  -27.8210  -12.3690   18.2980 C   0  0  0  0  0  2  0  0  0  0  0  0
  -27.5470  -13.2170   19.5650 C   0  0  0  0  0  3  0  0  0  0  0  0
  -28.6830  -13.0510   20.6100 C   0  0  0  0  0  2  0  0  0  0  0  0
  -29.9420  -13.4090   19.9470 N   0  0  0  0  0  0  0  0  0  0  0  0
  -31.8450  -14.5460   19.6010 O   0  0  0  0  0  0  0  0  0  0  0  0
  -30.7000  -18.2790   21.0580 C   0  0  0  0  0  2  0  0  0  0  0  0
  -28.4010  -17.6430   20.7770 C   0  0  0  0  0  2  0  0  0  0  0  0
  -31.1900  -16.8490   20.7100 C   0  0  0  0  0  2  0  0  0  0  0  0
  -28.7760  -16.1960   20.3650 C   0  0  0  0  0  2  0  0  0  0  0  0
  -29.4260  -18.6730   20.2950 C   0  0  0  0  0  3  0  0  0  0  0  0
  -30.1860  -15.7520   20.5350 N   0  0  0  0  0  0  0  0  0  0  0  0
  -25.2190  -13.8410   20.4520 C   0  0  0  0  0  0  0  0  0  0  0  0
  -24.1690  -13.0710   20.8690 C   0  0  0  0  0  0  0  0  0  0  0  0
  -24.6100  -11.7160   20.7730 C   0  0  0  0  0  0  0  0  0  0  0  0
  -26.2340  -12.9500   20.1330 N   0  0  0  0  0  0  0  0  0  0  0  0
  -25.8780  -11.6680   20.3870 N   0  0  0  0  0  0  0  0  0  0  0  0
  -23.8850  -10.4580   20.9700 C   0  0  0  0  0  0  0  0  0  0  0  0
  -24.3470   -9.4760   21.8740 C   0  0  0  0  0  3  0  0  0  0  0  0
  -23.6220   -8.2790   22.0590 C   0  0  0  0  0  3  0  0  0  0  0  0
  -22.4240   -8.0580   21.3400 C   0  0  0  0  0  0  0  0  0  0  0  0
  -21.9830   -9.0290   20.4250 C   0  0  0  0  0  3  0  0  0  0  0  0
  -22.7070  -10.2170   20.2370 C   0  0  0  0  0  3  0  0  0  0  0  0
  -21.6670   -6.9170   21.4390 O   0  0  0  0  0  0  0  0  0  0  0  0
  -21.6250   -6.1780   22.5950 C   0  0  0  0  0  0  0  0  0  0  0  0
  -21.1990   -6.7360   23.8200 C   0  0  0  0  0  3  0  0  0  0  0  0
  -21.1030   -5.9230   24.9680 C   0  0  0  0  0  3  0  0  0  0  0  0
  -21.4260   -4.5550   24.8920 C   0  0  0  0  0  0  0  0  0  0  0  0
  -21.8470   -3.9980   23.6710 C   0  0  0  0  0  3  0  0  0  0  0  0
  -21.9430   -4.8070   22.5260 C   0  0  0  0  0  0  0  0  0  0  0  0
  -22.3270   -4.2610   21.3470 F   0  0  0  0  0  0  0  0  0  0  0  0
  -21.3280   -3.7730   25.9920 F   0  0  0  0  0  0  0  0  0  0  0  0
  -22.7960  -13.5560   21.2380 C   0  0  0  0  0  0  0  0  0  0  0  0
  -22.1130  -12.8460   22.1280 N   0  0  0  0  0  0  0  0  0  0  0  0
  -22.3390  -14.5990   20.7710 O   0  0  0  0  0  0  0  0  0  0  0  0
  -22.4960  -12.0040   22.5320 H   0  0  0  0  0  0  0  0  0  0  0  0
  -21.1940  -13.1530   22.4150 H   0  0  0  0  0  0  0  0  0  0  0  0
  -25.3870  -15.2150   20.2980 N   0  0  0  0  0  0  0  0  0  0  0  0
  -24.6380  -15.8740   20.4800 H   0  0  0  0  0  0  0  0  0  0  0  0
  -26.2200  -15.6540   19.9320 H   0  0  0  0  0  0  0  0  0  0  0  0
  -28.0530  -24.3890   20.9590 C   0  0  0  0  0  2  0  0  0  0  0  0
  -28.5620  -25.3370   19.8400 C   0  0  0  0  0  2  0  0  0  0  0  0
  -28.4960  -26.7340   20.1940 O   0  0  0  0  0  0  0  0  0  0  0  0
  -24.6040  -31.8640   23.2220 C   0  0  0  0  0  0  0  0  0  0  0  0
  -27.2980  -27.4240   20.1650 C   0  0  0  0  0  0  0  0  0  0  0  0
  -23.4210  -30.4590   21.5670 C   0  0  0  0  0  3  0  0  0  0  0  0
  -24.8920  -28.9280   20.1560 C   0  0  0  0  0  0  0  0  0  0  0  0
  -25.9450  -30.8290   21.3900 C   0  0  0  0  0  2  0  0  0  0  0  0
  -26.0430  -29.4560   20.7530 C   0  0  0  0  0  0  0  0  0  0  0  0
  -27.2440  -28.7100   20.7550 C   0  0  0  0  0  3  0  0  0  0  0  0
  -26.1250  -26.9110   19.5630 C   0  0  0  0  0  3  0  0  0  0  0  0
  -24.9300  -27.6560   19.5600 C   0  0  0  0  0  3  0  0  0  0  0  0
  -23.6470  -29.7830   20.1890 C   0  0  0  0  0  2  0  0  0  0  0  0
  -24.6760  -31.0670   22.1190 N   0  0  0  0  0  0  0  0  0  0  0  0
  -23.5170  -32.1290   23.7530 O   0  0  0  0  0  0  0  0  0  0  0  0
  -22.7650  -29.4340   22.5200 C   0  0  0  0  0  0  0  0  0  0  0  0
  -21.4380  -29.2630   22.3970 N   0  0  0  0  0  0  0  0  0  0  0  0
  -23.4460  -28.7960   23.3280 O   0  0  0  0  0  0  0  0  0  0  0  0
  -20.9500  -29.8280   21.7160 H   0  0  0  0  0  0  0  0  0  0  0  0
  -18.0540  -28.1090   22.9120 C   0  0  0  0  0  0  0  0  0  0  0  0
  -20.6170  -28.3250   23.1620 C   0  0  0  0  0  3  0  0  0  0  0  0
  -20.6940  -26.9020   22.5610 C   0  0  0  0  0  2  0  0  0  0  0  0
  -19.5770  -26.6120   21.5550 C   0  0  0  0  0  2  0  0  0  0  0  0
  -18.2030  -26.7680   22.2150 C   0  0  0  0  0  2  0  0  0  0  0  0
  -19.1880  -28.8460   23.3440 C   0  0  0  0  0  0  0  0  0  0  0  0
  -18.9950  -30.1030   23.9580 C   0  0  0  0  0  3  0  0  0  0  0  0
  -17.7000  -30.6210   24.1450 C   0  0  0  0  0  3  0  0  0  0  0  0
  -16.5800  -29.8790   23.7320 C   0  0  0  0  0  3  0  0  0  0  0  0
  -16.7580  -28.6250   23.1200 C   0  0  0  0  0  3  0  0  0  0  0  0
  -25.8800  -32.5030   23.8530 C   0  0  0  0  0  3  0  0  0  0  0  0
  -25.5590  -33.8970   24.1890 N   0  0  0  0  0  0  0  0  0  0  0  0
  -25.8820  -34.9540   23.4310 C   0  0  0  0  0  0  0  0  0  0  0  0
  -26.5500  -34.8600   22.3980 O   0  0  0  0  0  0  0  0  0  0  0  0
  -24.9650  -34.0430   24.9910 H   0  0  0  0  0  0  0  0  0  0  0  0
  -24.1320  -36.7300   23.0870 C   0  0  0  0  0  1  0  0  0  0  0  0
  -25.3800  -36.3360   23.8930 C   0  0  0  0  0  3  0  0  0  0  0  0
  -27.5060  -37.2430   24.7210 C   0  0  0  0  0  1  0  0  0  0  0  0
  -26.4010  -37.4000   23.7800 N   0  0  0  0  0  0  0  0  0  0  0  0
  -25.9850  -38.3160   23.9300 H   0  0  0  0  0  0  0  0  0  0  0  0
  -26.3980  -31.7270   25.1270 C   0  0  1  0  0  0  0  0  0  0  0  0
  -25.3010  -31.4720   26.1870 C   0  0  0  0  0  1  0  0  0  0  0  0
  -26.9950  -30.3580   24.7250 C   0  0  0  0  0  1  0  0  0  0  0  0
  -27.5380  -32.5250   25.8000 C   0  0  0  0  0  1  0  0  0  0  0  0
  1  3  1  0
  2  1  2  0
  2  4  1  0
  3 52  1  0
  3  5  2  0
  4  9  2  0
  5  8  1  0
  6  1  1  0
  7  2  1  0
  9  5  1  0
 10 23  1  0
 11 16  1  0
 12 13  1  0
 12 11  1  0
 14 13  1  0
 14 27  1  0
 14 15  1  0
 16 10  1  0
 16 15  1  0
 17 10  2  0
 20 18  1  0
 21 23  1  0
 21 19  1  0
 22  4  1  0
 22 19  1  0
 22 18  1  0
 23 20  1  0
 24 25  2  0
 25 44  1  0
 26 25  1  0
 26 29  1  0
 27 28  1  0
 27 24  1  0
 28 26  2  0
 29 30  1  0
 30 31  2  0
 32 35  1  0
 32 31  1  0
 33 32  2  0
 34 33  1  0
 34 29  2  0
 35 36  1  0
 36 37  1  0
 37 38  2  0
 39 38  1  0
 39 43  1  0
 40 39  2  0
 41 36  2  0
 41 40  1  0
 42 41  1  0
 44 45  1  0
 45 48  1  0
 45 47  1  0
 46 44  2  0
 49 24  1  0
 49 50  1  0
 51 49  1  0
 53 54  1  0
 53 52  1  0
 55 66  2  0
 56 54  1  0
 56 61  1  0
 57 65  1  0
 57 67  1  0
 58 64  1  0
 58 60  1  0
 59 65  1  0
 60 61  2  0
 60 59  1  0
 62 56  2  0
 63 62  1  0
 63 58  2  0
 64 57  1  0
 65 55  1  0
 67 69  2  0
 68 67  1  0
 70 68  1  0
 71 80  2  0
 71 76  1  0
 72 68  1  0
 72 76  1  0
 73 72  1  0
 74 75  1  0
 74 73  1  0
 75 71  1  0
 76 77  2  0
 77 78  1  0
 79 78  2  0
 80 79  1  0
 81 55  1  0
 81 82  1  0
 81 91  1  0
 82 85  1  0
 83 87  1  0
 83 82  1  0
 84 83  2  0
 87 86  1  0
 89 87  1  0
 89 90  1  0
 89 88  1  0
 91 94  1  1
 91 92  1  0
 93 91  1  0
M  ISO  4  10 100  23 100  53 101  54 101
M  END
>  <TORSDO>  (53) 
F 18

>  <SCORE>  (53) 
-15.103

>  <name>  (53) 
52

>  <ligand_id>  (53) 
52

>  <original_smiles>  (53) 
[H]c1c([H])c([H])c2c(c1[H])C([H])([H])C([H])([H])C([H])([H])C2([H])N([H])C(=O)C1([H])N(C(=O)C([H])(N([H])C(=O)C([H])(N([H])C([H])([H])[H])C([H])([H])[H])C(C([H])([H])[H])(C([H])([H])[H])C([H])([H])[H])C([H])([H])c2c([H])c(OC([H])([H])C([H])([H])c3c(C([H])([H])[H])nc(C4([H])C([H])([H])C([H])([H])N(C(=O)N5C([H])([H])C([H])([H])C([H])([H])C([H])(n6nc(-c7c([H])c([H])c(Oc8c([H])c([H])c(F)c([H])c8F)c([H])c7[H])c(C(=O)N([H])[H])c6N([H])[H])C5([H])[H])C([H])([H])C4([H])[H])c(C([H])([H])[H])c3C([H])([H])[H])c([H])c([H])c2C1([H])[H]

>  <smiles>  (53) 
[H]c1c([H])c([H])c2c(c1[H])C([H])([H])C([H])([H])C([H])([H])C2([H])N([H])C(=O)C1([H])N(C(=O)C([H])(N([H])C(=O)C([H])(N([H])C([H])([H])[H])C([H])([H])[H])C(C([H])([H])[H])(C([H])([H])[H])C([H])([H])[H])C([H])([H])c2c([H])c(OC([H])([H])C([H])([H])c3c(C([H])([H])[H])nc(C4([H])C([H])([H])C([H])([H])N(C(=O)N5C([H])([H])C([H])([H])C([H])([H])C([H])(n6nc(-c7c([H])c([H])c(Oc8c([H])c([H])c(F)c([H])c8F)c([H])c7[H])c(C(=O)N([H])[H])c6N([H])[H])C5([H])[H])C([H])([H])C4([H])[H])c(C([H])([H])[H])c3C([H])([H])[H])c([H])c([H])c2C1([H])[H]

$$$$
53:0:0
     RDKit          3D

101111  0  0  1  0  0  0  0  0999 V2000
  -28.5880  -19.3900   18.9260 C   0  0  0  0  0  0  0  0  0  0  0  0
  -30.7170  -18.1090   19.0550 C   0  0  0  0  0  3  0  0  0  0  0  0
  -29.9090  -19.1300   18.4320 C   0  0  0  0  0  0  0  0  0  0  0  0
  -28.3110  -18.8100   20.1890 C   0  0  0  0  0  3  0  0  0  0  0  0
  -29.4350  -18.5680   20.9900 C   0  0  0  0  0  3  0  0  0  0  0  0
  -30.3430  -17.6310   20.3530 C   0  0  0  0  0  3  0  0  0  0  0  0
  -30.4640  -19.9350   17.2690 C   0  0  0  0  0  1  0  0  0  0  0  0
  -26.9200  -18.6210   20.7720 C   0  0  0  0  0  1  0  0  0  0  0  0
  -31.1310  -15.0650   20.2620 C   0  0  0  0  0  0  0  0  0  0  0  0
  -30.9470  -12.7810   19.2020 C   0  0  0  0  0  2  0  0  0  0  0  0
  -29.9980  -12.7550   17.9740 C   0  0  0  0  0  2  0  0  0  0  0  0
  -28.5010  -12.7740   18.3610 C   0  0  0  0  0  2  0  0  0  0  0  0
  -28.1630  -13.6340   19.6140 C   0  0  0  0  0  3  0  0  0  0  0  0
  -29.2170  -13.4570   20.7260 C   0  0  0  0  0  2  0  0  0  0  0  0
  -30.5130  -13.8330   20.1540 N   0  0  0  0  0  0  0  0  0  0  0  0
  -32.3100  -15.1830   19.9020 O   0  0  0  0  0  0  0  0  0  0  0  0
  -30.3600  -16.1600   20.6690 N   0  0  0  0  0  0  0  0  0  0  0  0
  -29.5090  -15.8640   21.1230 H   0  0  0  0  0  0  0  0  0  0  0  0
  -25.8020  -14.2810   20.3860 C   0  0  0  0  0  0  0  0  0  0  0  0
  -24.7140  -13.5280   20.7300 C   0  0  0  0  0  0  0  0  0  0  0  0
  -25.1330  -12.1640   20.6460 C   0  0  0  0  0  0  0  0  0  0  0  0
  -26.8130  -13.3750   20.1060 N   0  0  0  0  0  0  0  0  0  0  0  0
  -26.4200  -12.0970   20.3320 N   0  0  0  0  0  0  0  0  0  0  0  0
  -24.3710  -10.9170   20.7890 C   0  0  0  0  0  0  0  0  0  0  0  0
  -24.7700   -9.9030   21.6880 C   0  0  0  0  0  3  0  0  0  0  0  0
  -24.0050   -8.7240   21.8230 C   0  0  0  0  0  3  0  0  0  0  0  0
  -22.8280   -8.5530   21.0580 C   0  0  0  0  0  0  0  0  0  0  0  0
  -22.4490   -9.5520   20.1470 C   0  0  0  0  0  3  0  0  0  0  0  0
  -23.2140  -10.7210   20.0080 C   0  0  0  0  0  3  0  0  0  0  0  0
  -22.0310   -7.4350   21.1100 O   0  0  0  0  0  0  0  0  0  0  0  0
  -21.8700   -6.7240   22.2700 C   0  0  0  0  0  0  0  0  0  0  0  0
  -21.3420   -7.3170   23.4400 C   0  0  0  0  0  3  0  0  0  0  0  0
  -21.1240   -6.5330   24.5900 C   0  0  0  0  0  3  0  0  0  0  0  0
  -21.4210   -5.1560   24.5720 C   0  0  0  0  0  0  0  0  0  0  0  0
  -21.9390   -4.5630   23.4070 C   0  0  0  0  0  3  0  0  0  0  0  0
  -22.1600   -5.3440   22.2610 C   0  0  0  0  0  0  0  0  0  0  0  0
  -22.6400   -4.7630   21.1350 F   0  0  0  0  0  0  0  0  0  0  0  0
  -21.2000   -4.4020   25.6730 F   0  0  0  0  0  0  0  0  0  0  0  0
  -23.3280  -14.0350   21.0220 C   0  0  0  0  0  0  0  0  0  0  0  0
  -22.5860  -13.3490   21.8850 N   0  0  0  0  0  0  0  0  0  0  0  0
  -22.9160  -15.0810   20.5190 O   0  0  0  0  0  0  0  0  0  0  0  0
  -22.9430  -12.5180   22.3290 H   0  0  0  0  0  0  0  0  0  0  0  0
  -21.6580  -13.6650   22.1380 H   0  0  0  0  0  0  0  0  0  0  0  0
  -26.0140  -15.6520   20.2630 N   0  0  0  0  0  0  0  0  0  0  0  0
  -25.2760  -16.3250   20.4370 H   0  0  0  0  0  0  0  0  0  0  0  0
  -26.8800  -16.1000   19.9940 H   0  0  0  0  0  0  0  0  0  0  0  0
  -32.1300  -17.5500   16.8780 C   0  0  0  0  0  2  0  0  0  0  0  0
  -32.0360  -16.3010   17.6930 C   0  0  0  0  0  2  0  0  0  0  0  0
  -31.9740  -17.6190   18.3940 C   0  0  0  0  0  3  0  0  0  0  0  0
  -27.0220  -20.0100   16.8770 C   0  0  0  0  0  2  0  0  0  0  0  0
  -27.6070  -21.3550   17.2490 C   0  0  0  0  0  2  0  0  0  0  0  0
  -27.4960  -20.2540   18.2870 C   0  0  0  0  0  3  0  0  0  0  0  0
  -31.4640  -20.2510   21.2280 C   0  0  0  0  0  1  0  0  0  0  0  0
  -29.9790  -19.9760   21.5450 C   0  0  0  0  0  3  0  0  0  0  0  0
  -29.0790  -21.3630   21.5360 C   0  0  0  0  0  2  0  0  0  0  0  0
  -29.2290  -22.4860   20.4850 N   0  0  0  0  0  4  0  0  0  0  0  0
  -30.2150  -22.5620   20.2720 H   0  0  0  0  0  0  0  0  0  0  0  0
  -28.7760  -22.1610   19.6490 H   0  0  0  0  0  0  0  0  0  0  0  0
  -28.7060  -23.9140   20.8250 C   0  0  0  0  0  2  0  0  0  0  0  0
  -28.5710  -25.0580   19.6670 C   0  0  0  0  0  2  0  0  0  0  0  0
  -28.5330  -26.5420   19.9850 O   0  0  0  0  0  0  0  0  0  0  0  0
  -24.7000  -31.7140   23.2950 C   0  0  0  0  0  0  0  0  0  0  0  0
  -27.3800  -27.3720   19.9330 C   0  0  0  0  0  0  0  0  0  0  0  0
  -23.5090  -30.3920   21.5820 C   0  0  0  0  0  3  0  0  0  0  0  0
  -24.9730  -28.9670   20.0380 C   0  0  0  0  0  0  0  0  0  0  0  0
  -26.0410  -30.7720   21.3900 C   0  0  0  0  0  2  0  0  0  0  0  0
  -26.1390  -29.4350   20.6550 C   0  0  0  0  0  0  0  0  0  0  0  0
  -27.3370  -28.6500   20.5940 C   0  0  0  0  0  3  0  0  0  0  0  0
  -26.1910  -26.9850   19.2680 C   0  0  0  0  0  3  0  0  0  0  0  0
  -25.0070  -27.7530   19.3320 C   0  0  0  0  0  3  0  0  0  0  0  0
  -23.7150  -29.8090   20.1560 C   0  0  0  0  0  2  0  0  0  0  0  0
  -24.7700  -30.9750   22.1470 N   0  0  0  0  0  0  0  0  0  0  0  0
  -23.6160  -31.9340   23.8590 O   0  0  0  0  0  0  0  0  0  0  0  0
  -22.8810  -29.3090   22.4870 C   0  0  0  0  0  0  0  0  0  0  0  0
  -21.5810  -29.0300   22.2920 N   0  0  0  0  0  0  0  0  0  0  0  0
  -23.5660  -28.7230   23.3300 O   0  0  0  0  0  0  0  0  0  0  0  0
  -21.0900  -29.5440   21.5760 H   0  0  0  0  0  0  0  0  0  0  0  0
  -18.3110  -27.5160   22.5810 C   0  0  0  0  0  0  0  0  0  0  0  0
  -20.8130  -28.0060   23.0010 C   0  0  0  0  0  3  0  0  0  0  0  0
  -21.0780  -26.6040   22.4010 C   0  0  0  0  0  2  0  0  0  0  0  0
  -20.0690  -26.1990   21.3220 C   0  0  0  0  0  2  0  0  0  0  0  0
  -18.6510  -26.2000   21.9000 C   0  0  0  0  0  2  0  0  0  0  0  0
  -19.3260  -28.3700   23.0850 C   0  0  0  0  0  0  0  0  0  0  0  0
  -18.9620  -29.5960   23.6840 C   0  0  0  0  0  3  0  0  0  0  0  0
  -17.6110  -29.9740   23.7820 C   0  0  0  0  0  3  0  0  0  0  0  0
  -16.6040  -29.1200   23.2950 C   0  0  0  0  0  3  0  0  0  0  0  0
  -16.9560  -27.8950   22.6950 C   0  0  0  0  0  3  0  0  0  0  0  0
  -25.9770  -32.3390   23.9400 C   0  0  0  0  0  3  0  0  0  0  0  0
  -25.6550  -33.7270   24.3080 N   0  0  0  0  0  0  0  0  0  0  0  0
  -25.9970  -34.8050   23.5920 C   0  0  0  0  0  0  0  0  0  0  0  0
  -26.6870  -34.7360   22.5710 O   0  0  0  0  0  0  0  0  0  0  0  0
  -25.0500  -33.8500   25.1050 H   0  0  0  0  0  0  0  0  0  0  0  0
  -24.2690  -36.6040   23.2690 C   0  0  0  0  0  1  0  0  0  0  0  0
  -25.4990  -36.1780   24.0850 C   0  0  0  0  0  3  0  0  0  0  0  0
  -27.6120  -37.0490   24.9870 C   0  0  0  0  0  1  0  0  0  0  0  0
  -26.5300  -37.2350   24.0240 N   0  0  0  0  0  0  0  0  0  0  0  0
  -26.1190  -38.1500   24.1800 H   0  0  0  0  0  0  0  0  0  0  0  0
  -26.4900  -31.5400   25.2020 C   0  0  1  0  0  0  0  0  0  0  0  0
  -25.3810  -31.2160   26.2300 C   0  0  0  0  0  1  0  0  0  0  0  0
  -27.1370  -30.2010   24.7780 C   0  0  0  0  0  1  0  0  0  0  0  0
  -27.5900  -32.3500   25.9240 C   0  0  0  0  0  1  0  0  0  0  0  0
  1  4  1  0
  2 49  1  0
  2  6  1  0
  3  1  2  0
  3  2  1  0
  4  8  1  0
  4  5  1  0
  5 54  1  0
  6 17  1  0
  6  5  1  0
  7  3  1  0
  9 17  1  0
 10 15  1  0
 11 12  1  0
 11 10  1  0
 13 12  1  0
 13 22  1  0
 13 14  1  0
 15  9  1  0
 15 14  1  0
 16  9  2  0
 17 18  1  0
 19 20  2  0
 20 39  1  0
 21 20  1  0
 21 24  1  0
 22 23  1  0
 22 19  1  0
 23 21  2  0
 24 25  1  0
 25 26  2  0
 27 30  1  0
 27 26  1  0
 28 27  2  0
 29 28  1  0
 29 24  2  0
 30 31  1  0
 31 32  1  0
 32 33  2  0
 34 33  1  0
 34 38  1  0
 35 34  2  0
 36 31  2  0
 36 35  1  0
 37 36  1  0
 39 40  1  0
 40 43  1  0
 40 42  1  0
 41 39  2  0
 44 19  1  0
 44 45  1  0
 46 44  1  0
 47 48  1  0
 47 49  1  0
 48 49  1  0
 50 51  1  0
 50 52  1  0
 51 52  1  0
 52  1  1  0
 54 53  1  0
 55 54  1  0
 56 59  1  0
 56 55  1  0
 57 56  1  0
 58 56  1  0
 60 61  1  0
 60 59  1  0
 62 73  2  0
 63 61  1  0
 63 68  1  0
 64 72  1  0
 64 74  1  0
 65 71  1  0
 65 67  1  0
 66 72  1  0
 67 66  1  0
 68 67  2  0
 69 70  1  0
 69 63  2  0
 70 65  2  0
 71 64  1  0
 72 62  1  0
 74 76  2  0
 75 74  1  0
 77 75  1  0
 78 87  2  0
 78 83  1  0
 79 75  1  0
 79 83  1  0
 80 79  1  0
 81 82  1  0
 81 80  1  0
 82 78  1  0
 83 84  2  0
 84 85  1  0
 86 85  2  0
 87 86  1  0
 88 62  1  0
 88 89  1  0
 88 98  1  0
 89 92  1  0
 90 94  1  0
 90 89  1  0
 91 90  2  0
 94 93  1  0
 96 94  1  0
 96 97  1  0
 96 95  1  0
 98101  1  1
 98 99  1  0
100 98  1  0
M  ISO  4   9 100  17 100  60 101  61 101
M  END
>  <TORSDO>  (54) 
F 23

>  <SCORE>  (54) 
-11.168

>  <name>  (54) 
53

>  <ligand_id>  (54) 
53

>  <original_smiles>  (54) 
[H]c1c([H])c([H])c2c(c1[H])C([H])([H])C([H])([H])C([H])([H])C2([H])N([H])C(=O)C1([H])N(C(=O)C([H])(N([H])C(=O)C([H])(N([H])C([H])([H])[H])C([H])([H])[H])C(C([H])([H])[H])(C([H])([H])[H])C([H])([H])[H])C([H])([H])c2c([H])c(OC([H])([H])C([H])([H])[N+]([H])([H])C([H])([H])C([H])(c3c(N([H])C(=O)N4C([H])([H])C([H])([H])C([H])([H])C([H])(n5nc(-c6c([H])c([H])c(Oc7c([H])c([H])c(F)c([H])c7F)c([H])c6[H])c(C(=O)N([H])[H])c5N([H])[H])C4([H])[H])c(C4([H])C([H])([H])C4([H])[H])c(C([H])([H])[H])c(C4([H])C([H])([H])C4([H])[H])c3C([H])([H])[H])C([H])([H])[H])c([H])c([H])c2C1([H])[H]

>  <smiles>  (54) 
[H]c1c([H])c([H])c2c(c1[H])C([H])([H])C([H])([H])C([H])([H])C2([H])N([H])C(=O)C1([H])N(C(=O)C([H])(N([H])C(=O)C([H])(N([H])C([H])([H])[H])C([H])([H])[H])C(C([H])([H])[H])(C([H])([H])[H])C([H])([H])[H])C([H])([H])c2c([H])c(OC([H])([H])C([H])([H])[N+]([H])([H])C([H])([H])C([H])(c3c(N([H])C(=O)N4C([H])([H])C([H])([H])C([H])([H])C([H])(n5nc(-c6c([H])c([H])c(Oc7c([H])c([H])c(F)c([H])c7F)c([H])c6[H])c(C(=O)N([H])[H])c5N([H])[H])C4([H])[H])c(C4([H])C([H])([H])C4([H])[H])c(C([H])([H])[H])c(C4([H])C([H])([H])C4([H])[H])c3C([H])([H])[H])C([H])([H])[H])c([H])c([H])c2C1([H])[H]

$$$$
54:0:0
     RDKit          3D

 96105  0  0  1  0  0  0  0  0999 V2000
  -29.4520  -21.3650   19.4360 C   0  0  0  0  0  2  0  0  0  0  0  0
  -28.4600  -20.7320   21.6950 C   0  0  0  0  0  2  0  0  0  0  0  0
  -28.2680  -22.4000   19.4780 C   0  0  0  0  0  2  0  0  0  0  0  0
  -28.5710  -22.2610   21.9540 C   0  0  0  0  0  2  0  0  0  0  0  0
  -29.4950  -20.3460   20.6270 C   0  0  0  0  0  3  0  0  0  0  0  0
  -28.0280  -23.0400   20.8120 N   0  0  1  0  0  4  0  0  0  0  0  0
  -27.0400  -22.8530   20.9330 H   0  0  0  0  0  0  0  0  0  0  0  0
  -28.9310  -16.7480   19.1620 C   0  0  0  0  0  3  0  0  0  0  0  0
  -29.8940  -15.9560   19.8340 C   0  0  0  0  0  0  0  0  0  0  0  0
  -29.6030  -18.7970   20.3550 C   0  0  0  0  0  0  0  0  0  0  0  0
  -28.7220  -18.1140   19.4700 C   0  0  0  0  0  0  0  0  0  0  0  0
  -30.6900  -16.5880   20.8320 C   0  0  0  0  0  0  0  0  0  0  0  0
  -30.6160  -18.0090   20.9970 C   0  0  0  0  0  0  0  0  0  0  0  0
  -27.5860  -18.8340   18.7650 C   0  0  0  0  0  1  0  0  0  0  0  0
  -31.7360  -18.7160   21.7540 C   0  0  0  0  0  1  0  0  0  0  0  0
  -30.3430  -14.6160   19.2560 C   0  0  0  0  0  0  0  0  0  0  0  0
  -29.8540  -12.4120   18.2950 C   0  0  0  0  0  2  0  0  0  0  0  0
  -28.7290  -12.5480   17.2600 C   0  0  0  0  0  2  0  0  0  0  0  0
  -27.3680  -12.3540   17.9500 C   0  0  0  0  0  2  0  0  0  0  0  0
  -27.2010  -13.2180   19.2240 C   0  0  0  0  0  3  0  0  0  0  0  0
  -28.4500  -13.1760   20.1350 C   0  0  0  0  0  2  0  0  0  0  0  0
  -29.6330  -13.4540   19.3150 N   0  0  0  0  0  0  0  0  0  0  0  0
  -31.3830  -14.6860   18.5970 O   0  0  0  0  0  0  0  0  0  0  0  0
  -24.9970  -13.7270   20.4490 C   0  0  0  0  0  0  0  0  0  0  0  0
  -24.0190  -12.9120   20.9450 C   0  0  0  0  0  0  0  0  0  0  0  0
  -24.4650  -11.5730   20.7150 C   0  0  0  0  0  0  0  0  0  0  0  0
  -25.9780  -12.8840   19.9470 N   0  0  0  0  0  0  0  0  0  0  0  0
  -25.6790  -11.5820   20.1750 N   0  0  0  0  0  0  0  0  0  0  0  0
  -23.7870  -10.2890   20.9260 C   0  0  0  0  0  0  0  0  0  0  0  0
  -24.3170   -9.3100   21.7910 C   0  0  0  0  0  3  0  0  0  0  0  0
  -23.6400   -8.0900   21.9940 C   0  0  0  0  0  3  0  0  0  0  0  0
  -22.4150   -7.8370   21.3350 C   0  0  0  0  0  0  0  0  0  0  0  0
  -21.9000   -8.8070   20.4560 C   0  0  0  0  0  3  0  0  0  0  0  0
  -22.5790  -10.0190   20.2500 C   0  0  0  0  0  3  0  0  0  0  0  0
  -21.7000   -6.6710   21.4530 O   0  0  0  0  0  0  0  0  0  0  0  0
  -21.6990   -5.9430   22.6150 C   0  0  0  0  0  0  0  0  0  0  0  0
  -21.2610   -6.4950   23.8390 C   0  0  0  0  0  3  0  0  0  0  0  0
  -21.2020   -5.6880   24.9920 C   0  0  0  0  0  3  0  0  0  0  0  0
  -21.5810   -4.3330   24.9260 C   0  0  0  0  0  0  0  0  0  0  0  0
  -22.0180   -3.7830   23.7080 C   0  0  0  0  0  3  0  0  0  0  0  0
  -22.0710   -4.5850   22.5550 C   0  0  0  0  0  0  0  0  0  0  0  0
  -22.4690   -4.0460   21.3770 F   0  0  0  0  0  0  0  0  0  0  0  0
  -21.5220   -3.5550   26.0320 F   0  0  0  0  0  0  0  0  0  0  0  0
  -22.6950  -13.3390   21.5090 C   0  0  0  0  0  0  0  0  0  0  0  0
  -22.1460  -12.5780   22.4450 N   0  0  0  0  0  0  0  0  0  0  0  0
  -22.1600  -14.3900   21.1480 O   0  0  0  0  0  0  0  0  0  0  0  0
  -22.5930  -11.7340   22.7720 H   0  0  0  0  0  0  0  0  0  0  0  0
  -21.2600  -12.8530   22.8500 H   0  0  0  0  0  0  0  0  0  0  0  0
  -25.1320  -15.1120   20.3610 N   0  0  0  0  0  0  0  0  0  0  0  0
  -24.4230  -15.7480   20.7110 H   0  0  0  0  0  0  0  0  0  0  0  0
  -25.9430  -15.5870   19.9980 H   0  0  0  0  0  0  0  0  0  0  0  0
  -31.3940  -15.7010   23.1690 C   0  0  0  0  0  1  0  0  0  0  0  0
  -31.6950  -15.7450   21.6580 C   0  0  0  0  0  2  0  0  0  0  0  0
  -28.0350  -24.5470   20.9950 C   0  0  0  0  0  2  0  0  0  0  0  0
  -28.6980  -25.4760   19.9350 C   0  0  0  0  0  2  0  0  0  0  0  0
  -28.6080  -26.8760   20.3060 O   0  0  0  0  0  0  0  0  0  0  0  0
  -24.7030  -32.0440   23.2810 C   0  0  0  0  0  0  0  0  0  0  0  0
  -27.4040  -27.5680   20.2740 C   0  0  0  0  0  0  0  0  0  0  0  0
  -23.5240  -30.6300   21.6290 C   0  0  0  0  0  3  0  0  0  0  0  0
  -25.0020  -29.0820   20.2390 C   0  0  0  0  0  0  0  0  0  0  0  0
  -26.0520  -30.9990   21.4530 C   0  0  0  0  0  2  0  0  0  0  0  0
  -26.1530  -29.6130   20.8360 C   0  0  0  0  0  0  0  0  0  0  0  0
  -27.3540  -28.8650   20.8440 C   0  0  0  0  0  3  0  0  0  0  0  0
  -26.2270  -27.0440   19.6910 C   0  0  0  0  0  3  0  0  0  0  0  0
  -25.0370  -27.8000   19.6610 C   0  0  0  0  0  3  0  0  0  0  0  0
  -23.7660  -29.9540   20.2520 C   0  0  0  0  0  2  0  0  0  0  0  0
  -24.7820  -31.2390   22.1830 N   0  0  0  0  0  0  0  0  0  0  0  0
  -23.6100  -32.3050   23.8080 O   0  0  0  0  0  0  0  0  0  0  0  0
  -22.8590  -29.6100   22.5810 C   0  0  0  0  0  0  0  0  0  0  0  0
  -21.5330  -29.4410   22.4500 N   0  0  0  0  0  0  0  0  0  0  0  0
  -23.5340  -28.9800   23.3980 O   0  0  0  0  0  0  0  0  0  0  0  0
  -21.0550  -30.0110   21.7700 H   0  0  0  0  0  0  0  0  0  0  0  0
  -18.1390  -28.2840   22.9370 C   0  0  0  0  0  0  0  0  0  0  0  0
  -20.7020  -28.5070   23.2130 C   0  0  0  0  0  3  0  0  0  0  0  0
  -20.7860  -27.0810   22.6260 C   0  0  0  0  0  2  0  0  0  0  0  0
  -19.6790  -26.7780   21.6120 C   0  0  0  0  0  2  0  0  0  0  0  0
  -18.2970  -26.9370   22.2530 C   0  0  0  0  0  2  0  0  0  0  0  0
  -19.2660  -29.0300   23.3720 C   0  0  0  0  0  0  0  0  0  0  0  0
  -19.0620  -30.2930   23.9690 C   0  0  0  0  0  3  0  0  0  0  0  0
  -17.7620  -30.8080   24.1370 C   0  0  0  0  0  3  0  0  0  0  0  0
  -16.6500  -30.0630   23.7100 C   0  0  0  0  0  3  0  0  0  0  0  0
  -16.8400  -28.8010   23.1190 C   0  0  0  0  0  3  0  0  0  0  0  0
  -25.9730  -32.6900   23.9170 C   0  0  0  0  0  3  0  0  0  0  0  0
  -26.4660  -31.9310   25.2080 C   0  0  1  0  0  0  0  0  0  0  0  0
  -25.3510  -31.6830   26.2510 C   0  0  0  0  0  1  0  0  0  0  0  0
  -27.0760  -30.5650   24.8250 C   0  0  0  0  0  1  0  0  0  0  0  0
  -27.5920  -32.7380   25.8930 C   0  0  0  0  0  1  0  0  0  0  0  0
  -25.6590  -34.0920   24.2260 N   0  0  0  0  0  0  0  0  0  0  0  0
  -26.0000  -35.1340   23.4550 C   0  0  0  0  0  0  0  0  0  0  0  0
  -26.6780  -35.0140   22.4310 O   0  0  0  0  0  0  0  0  0  0  0  0
  -25.0720  -34.2590   25.0310 H   0  0  0  0  0  0  0  0  0  0  0  0
  -24.2740  -36.9170   23.0520 C   0  0  0  0  0  1  0  0  0  0  0  0
  -25.5060  -36.5310   23.8850 C   0  0  0  0  0  3  0  0  0  0  0  0
  -27.6330  -37.4210   24.7200 C   0  0  0  0  0  1  0  0  0  0  0  0
  -26.5390  -37.5810   23.7650 N   0  0  0  0  0  0  0  0  0  0  0  0
  -26.1380  -38.5040   23.8970 H   0  0  0  0  0  0  0  0  0  0  0  0
  1  3  1  0
  1  5  1  0
  2  4  1  0
  3  6  1  0
  5 10  1  0
  5  2  1  0
  6  7  1  1
  6 54  1  0
  6  4  1  0
  8 11  2  0
  8  9  1  0
  9 12  2  0
 10 13  2  0
 11 10  1  0
 12 13  1  0
 12 53  1  0
 13 15  1  0
 14 11  1  0
 16 22  1  0
 16  9  1  0
 17 22  1  0
 18 19  1  0
 18 17  1  0
 20 19  1  0
 20 27  1  0
 20 21  1  0
 22 21  1  0
 23 16  2  0
 24 25  2  0
 25 44  1  0
 26 29  1  0
 26 25  1  0
 27 28  1  0
 27 24  1  0
 28 26  2  0
 29 30  1  0
 30 31  2  0
 32 35  1  0
 32 31  1  0
 33 32  2  0
 34 33  1  0
 34 29  2  0
 35 36  1  0
 36 37  1  0
 37 38  2  0
 39 38  1  0
 39 43  1  0
 40 39  2  0
 41 36  2  0
 41 40  1  0
 42 41  1  0
 44 45  1  0
 45 47  1  0
 45 48  1  0
 46 44  2  0
 49 24  1  0
 49 50  1  0
 51 49  1  0
 53 52  1  0
 55 56  1  0
 55 54  1  0
 57 68  2  0
 58 56  1  0
 58 63  1  0
 59 67  1  0
 59 69  1  0
 60 66  1  0
 60 62  1  0
 61 67  1  0
 62 63  2  0
 62 61  1  0
 64 58  2  0
 65 64  1  0
 65 60  2  0
 66 59  1  0
 67 57  1  0
 69 71  2  0
 70 69  1  0
 72 70  1  0
 73 82  2  0
 73 78  1  0
 74 70  1  0
 74 78  1  0
 75 74  1  0
 76 77  1  0
 76 75  1  0
 77 73  1  0
 78 79  2  0
 79 80  1  0
 81 80  2  0
 82 81  1  0
 83 57  1  0
 83 88  1  0
 83 84  1  0
 84 87  1  1
 84 85  1  0
 86 84  1  0
 88 91  1  0
 89 93  1  0
 89 88  1  0
 90 89  2  0
 93 92  1  0
 95 93  1  0
 95 96  1  0
 95 94  1  0
M  ISO  4   9 100  16 100  55 101  56 101
M  END
>  <TORSDO>  (55) 
F 20

>  <SCORE>  (55) 
-10.294

>  <name>  (55) 
54

>  <ligand_id>  (55) 
54

>  <original_smiles>  (55) 
[H]c1c([H])c([H])c2c(c1[H])C([H])([H])C([H])([H])C([H])([H])C2([H])N([H])C(=O)C1([H])N(C(=O)C([H])(N([H])C(=O)C([H])(N([H])C([H])([H])[H])C([H])([H])[H])C(C([H])([H])[H])(C([H])([H])[H])C([H])([H])[H])C([H])([H])c2c([H])c(OC([H])([H])C([H])([H])[N+]3([H])C([H])([H])C([H])([H])C([H])(c4c(C([H])([H])[H])c([H])c(C(=O)N5C([H])([H])C([H])([H])C([H])([H])C([H])(n6nc(-c7c([H])c([H])c(Oc8c([H])c([H])c(F)c([H])c8F)c([H])c7[H])c(C(=O)N([H])[H])c6N([H])[H])C5([H])[H])c(C([H])([H])C([H])([H])[H])c4C([H])([H])[H])C([H])([H])C3([H])[H])c([H])c([H])c2C1([H])[H]

>  <smiles>  (55) 
[H]c1c([H])c([H])c2c(c1[H])C([H])([H])C([H])([H])C([H])([H])C2([H])N([H])C(=O)C1([H])N(C(=O)C([H])(N([H])C(=O)C([H])(N([H])C([H])([H])[H])C([H])([H])[H])C(C([H])([H])[H])(C([H])([H])[H])C([H])([H])[H])C([H])([H])c2c([H])c(OC([H])([H])C([H])([H])[N+]3([H])C([H])([H])C([H])([H])C([H])(c4c(C([H])([H])[H])c([H])c(C(=O)N5C([H])([H])C([H])([H])C([H])([H])C([H])(n6nc(-c7c([H])c([H])c(Oc8c([H])c([H])c(F)c([H])c8F)c([H])c7[H])c(C(=O)N([H])[H])c6N([H])[H])C5([H])[H])c(C([H])([H])C([H])([H])[H])c4C([H])([H])[H])C([H])([H])C3([H])[H])c([H])c([H])c2C1([H])[H]

$$$$
55:0:0
     RDKit          3D

106116  0  0  1  0  0  0  0  0999 V2000
  -33.4760  -23.2310   19.3020 C   0  0  0  0  0  2  0  0  0  0  0  0
  -31.0470  -23.8540   19.8950 C   0  0  0  0  0  0  0  0  0  0  0  0
  -32.7990  -25.5570   20.1670 C   0  0  0  0  0  0  0  0  0  0  0  0
  -30.0780  -24.7900   20.3360 C   0  0  0  0  0  0  0  0  0  0  0  0
  -31.8180  -26.5020   20.5730 C   0  0  0  0  0  0  0  0  0  0  0  0
  -32.4180  -24.2290   19.8160 C   0  0  0  0  0  0  0  0  0  0  0  0
  -30.4430  -26.1450   20.5620 C   0  0  0  0  0  0  0  0  0  0  0  0
  -30.5760  -22.4670   19.4550 C   0  0  0  0  0  1  0  0  0  0  0  0
  -34.2650  -25.9860   20.0380 C   0  0  0  0  0  1  0  0  0  0  0  0
  -28.6360  -24.3340   20.5650 C   0  0  0  0  0  1  0  0  0  0  0  0
  -32.2490  -27.9020   21.0190 C   0  0  0  0  0  1  0  0  0  0  0  0
  -29.3500  -27.2100   20.7360 C   0  0  0  0  0  2  0  0  0  0  0  0
  -28.3580  -27.0790   19.7280 O   0  0  0  0  0  0  0  0  0  0  0  0
  -24.3910  -31.9470   23.1450 C   0  0  0  0  0  0  0  0  0  0  0  0
  -27.1810  -27.7680   19.8760 C   0  0  0  0  0  0  0  0  0  0  0  0
  -23.2130  -30.5370   21.4860 C   0  0  0  0  0  3  0  0  0  0  0  0
  -24.7080  -29.1150   19.9890 C   0  0  0  0  0  0  0  0  0  0  0  0
  -25.7070  -31.0350   21.2430 C   0  0  0  0  0  2  0  0  0  0  0  0
  -25.8460  -29.6860   20.5740 C   0  0  0  0  0  0  0  0  0  0  0  0
  -27.0860  -29.0160   20.5300 C   0  0  0  0  0  3  0  0  0  0  0  0
  -26.0320  -27.2060   19.2870 C   0  0  0  0  0  3  0  0  0  0  0  0
  -24.7920  -27.8670   19.3490 C   0  0  0  0  0  3  0  0  0  0  0  0
  -23.4220  -29.9060   20.0840 C   0  0  0  0  0  2  0  0  0  0  0  0
  -24.4550  -31.1860   22.0160 N   0  0  0  0  0  0  0  0  0  0  0  0
  -23.3130  -32.1510   23.7190 O   0  0  0  0  0  0  0  0  0  0  0  0
  -22.6380  -29.4570   22.4290 C   0  0  0  0  0  0  0  0  0  0  0  0
  -21.3190  -29.2270   22.3370 N   0  0  0  0  0  0  0  0  0  0  0  0
  -23.3740  -28.8300   23.1970 O   0  0  0  0  0  0  0  0  0  0  0  0
  -20.7850  -29.7860   21.6860 H   0  0  0  0  0  0  0  0  0  0  0  0
  -18.0110  -27.8900   22.8900 C   0  0  0  0  0  0  0  0  0  0  0  0
  -20.5640  -28.2320   23.0970 C   0  0  0  0  0  3  0  0  0  0  0  0
  -20.7010  -26.8270   22.4650 C   0  0  0  0  0  2  0  0  0  0  0  0
  -19.5800  -26.4990   21.4730 C   0  0  0  0  0  2  0  0  0  0  0  0
  -18.2150  -26.5700   22.1630 C   0  0  0  0  0  2  0  0  0  0  0  0
  -19.1150  -28.6760   23.3140 C   0  0  0  0  0  0  0  0  0  0  0  0
  -18.8700  -29.9110   23.9540 C   0  0  0  0  0  3  0  0  0  0  0  0
  -17.5540  -30.3590   24.1750 C   0  0  0  0  0  3  0  0  0  0  0  0
  -16.4660  -29.5680   23.7690 C   0  0  0  0  0  3  0  0  0  0  0  0
  -16.6950  -28.3360   23.1320 C   0  0  0  0  0  3  0  0  0  0  0  0
  -25.6640  -32.6180   23.7520 C   0  0  0  0  0  3  0  0  0  0  0  0
  -25.3110  -34.0040   24.0910 N   0  0  0  0  0  0  0  0  0  0  0  0
  -25.6310  -35.0720   23.3490 C   0  0  0  0  0  0  0  0  0  0  0  0
  -26.3250  -34.9980   22.3310 O   0  0  0  0  0  0  0  0  0  0  0  0
  -24.6960  -34.1340   24.8810 H   0  0  0  0  0  0  0  0  0  0  0  0
  -23.8690  -36.8230   22.9660 C   0  0  0  0  0  1  0  0  0  0  0  0
  -25.0950  -36.4400   23.8090 C   0  0  0  0  0  3  0  0  0  0  0  0
  -27.1830  -37.3650   24.7110 C   0  0  0  0  0  1  0  0  0  0  0  0
  -26.1040  -37.5200   23.7400 N   0  0  0  0  0  0  0  0  0  0  0  0
  -25.6700  -38.4270   23.8900 H   0  0  0  0  0  0  0  0  0  0  0  0
  -26.2270  -31.8570   25.0150 C   0  0  1  0  0  0  0  0  0  0  0  0
  -25.1580  -31.5740   26.0960 C   0  0  0  0  0  1  0  0  0  0  0  0
  -26.8530  -30.5040   24.6010 C   0  0  0  0  0  1  0  0  0  0  0  0
  -27.3570  -32.6880   25.6670 C   0  0  0  0  0  1  0  0  0  0  0  0
  -33.4890  -21.8290   19.9470 C   0  0  0  0  0  2  0  0  0  0  0  0
  -33.3560  -21.8150   21.4240 N   0  0  0  0  0  4  0  0  0  0  0  0
  -34.0180  -22.4720   21.8050 H   0  0  0  0  0  0  0  0  0  0  0  0
  -32.4360  -22.1350   21.6830 H   0  0  0  0  0  0  0  0  0  0  0  0
  -33.6330  -20.5020   22.0640 C   0  0  0  0  0  2  0  0  0  0  0  0
  -30.5730  -14.9340   20.4550 C   0  0  0  0  0  0  0  0  0  0  0  0
  -30.1840  -12.7930   19.3130 C   0  0  0  0  0  2  0  0  0  0  0  0
  -29.2310  -12.9650   18.1180 C   0  0  0  0  0  2  0  0  0  0  0  0
  -27.7770  -12.7410   18.5730 C   0  0  0  0  0  2  0  0  0  0  0  0
  -27.4130  -13.5600   19.8370 C   0  0  0  0  0  3  0  0  0  0  0  0
  -28.5100  -13.4790   20.9330 C   0  0  0  0  0  2  0  0  0  0  0  0
  -29.8090  -13.8070   20.3190 N   0  0  0  0  0  0  0  0  0  0  0  0
  -31.7600  -14.9080   20.1230 O   0  0  0  0  0  0  0  0  0  0  0  0
  -32.4340  -18.9910   20.4390 C   0  0  0  0  0  3  0  0  0  0  0  0
  -31.4240  -18.0130   20.0900 C   0  0  0  0  0  0  0  0  0  0  0  0
  -32.6180  -19.4160   21.7020 C   0  0  0  0  0  0  0  0  0  0  0  0
  -30.9560  -17.1780   21.0510 C   0  0  0  0  0  0  0  0  0  0  0  0
  -30.8690  -17.9840   18.6770 C   0  0  0  0  0  2  0  0  0  0  0  0
  -31.8180  -18.7760   22.8350 C   0  0  0  0  0  2  0  0  0  0  0  0
  -31.4000  -17.3180   22.5000 C   0  0  0  0  0  2  0  0  0  0  0  0
  -28.5660  -18.0620   19.8290 C   0  0  0  0  0  2  0  0  0  0  0  0
  -28.7420  -16.5630   20.1670 C   0  0  0  0  0  2  0  0  0  0  0  0
  -29.4300  -18.5350   18.6330 C   0  0  0  0  0  3  0  0  0  0  0  0
  -28.7690  -18.2270   17.2780 C   0  0  0  0  0  1  0  0  0  0  0  0
  -30.0210  -16.1450   20.7860 N   0  0  0  0  0  0  0  0  0  0  0  0
  -25.0160  -14.0710   20.5830 C   0  0  0  0  0  0  0  0  0  0  0  0
  -23.9810  -13.2530   20.9460 C   0  0  0  0  0  0  0  0  0  0  0  0
  -24.5000  -11.9220   20.9040 C   0  0  0  0  0  0  0  0  0  0  0  0
  -26.0920  -13.2300   20.3440 N   0  0  0  0  0  0  0  0  0  0  0  0
  -25.7900  -11.9350   20.6000 N   0  0  0  0  0  0  0  0  0  0  0  0
  -23.8330  -10.6300   21.0820 C   0  0  0  0  0  0  0  0  0  0  0  0
  -24.2870   -9.6950   22.0380 C   0  0  0  0  0  3  0  0  0  0  0  0
  -23.6190   -8.4630   22.2050 C   0  0  0  0  0  3  0  0  0  0  0  0
  -22.4860   -8.1560   21.4140 C   0  0  0  0  0  0  0  0  0  0  0  0
  -22.0540   -9.0820   20.4490 C   0  0  0  0  0  3  0  0  0  0  0  0
  -22.7210  -10.3070   20.2800 C   0  0  0  0  0  3  0  0  0  0  0  0
  -21.7910   -6.9740   21.4900 O   0  0  0  0  0  0  0  0  0  0  0  0
  -21.7290   -6.2500   22.6520 C   0  0  0  0  0  0  0  0  0  0  0  0
  -21.2140   -6.8020   23.8460 C   0  0  0  0  0  3  0  0  0  0  0  0
  -21.1070   -6.0020   25.0020 C   0  0  0  0  0  3  0  0  0  0  0  0
  -21.5000   -4.6510   24.9620 C   0  0  0  0  0  0  0  0  0  0  0  0
  -22.0060   -4.0970   23.7730 C   0  0  0  0  0  3  0  0  0  0  0  0
  -22.1190   -4.8960   22.6200 C   0  0  0  0  0  0  0  0  0  0  0  0
  -22.5910   -4.3560   21.4710 F   0  0  0  0  0  0  0  0  0  0  0  0
  -21.3870   -3.8780   26.0680 F   0  0  0  0  0  0  0  0  0  0  0  0
  -22.5660  -13.6710   21.2200 C   0  0  0  0  0  0  0  0  0  0  0  0
  -21.8780  -12.9480   22.0970 N   0  0  0  0  0  0  0  0  0  0  0  0
  -22.0810  -14.6700   20.6930 O   0  0  0  0  0  0  0  0  0  0  0  0
  -22.2860  -12.1370   22.5390 H   0  0  0  0  0  0  0  0  0  0  0  0
  -20.9300  -13.2080   22.3300 H   0  0  0  0  0  0  0  0  0  0  0  0
  -25.1260  -15.4470   20.4110 N   0  0  0  0  0  0  0  0  0  0  0  0
  -24.3360  -16.0740   20.5190 H   0  0  0  0  0  0  0  0  0  0  0  0
  -25.9660  -15.9160   20.0970 H   0  0  0  0  0  0  0  0  0  0  0  0
  1  6  1  0
  1 54  1  0
  2  4  1  0
  3  5  2  0
  4  7  2  0
  4 10  1  0
  5 11  1  0
  6  2  2  0
  6  3  1  0
  7  5  1  0
  7 12  1  0
  8  2  1  0
  9  3  1  0
 13 15  1  0
 13 12  1  0
 14 25  2  0
 15 20  1  0
 16 24  1  0
 16 26  1  0
 17 23  1  0
 17 19  1  0
 18 24  1  0
 19 18  1  0
 20 19  2  0
 21 22  1  0
 21 15  2  0
 22 17  2  0
 23 16  1  0
 24 14  1  0
 26 28  2  0
 27 26  1  0
 29 27  1  0
 30 39  2  0
 30 35  1  0
 31 27  1  0
 31 35  1  0
 32 31  1  0
 33 34  1  0
 33 32  1  0
 34 30  1  0
 35 36  2  0
 36 37  1  0
 38 37  2  0
 39 38  1  0
 40 14  1  0
 40 41  1  0
 40 50  1  0
 41 44  1  0
 42 46  1  0
 42 41  1  0
 43 42  2  0
 46 45  1  0
 48 46  1  0
 48 49  1  0
 48 47  1  0
 50 53  1  1
 50 51  1  0
 52 50  1  0
 54 55  1  0
 55 57  1  0
 55 56  1  0
 55 58  1  0
 59 78  1  0
 60 65  1  0
 61 62  1  0
 61 60  1  0
 63 62  1  0
 63 82  1  0
 63 64  1  0
 65 59  1  0
 65 64  1  0
 66 59  2  0
 67 69  2  0
 68 67  1  0
 68 70  2  0
 69 58  1  0
 69 72  1  0
 70 73  1  0
 71 68  1  0
 73 72  1  0
 74 75  1  0
 75 78  1  0
 76 77  1  0
 76 71  1  0
 76 74  1  0
 78 70  1  0
 79 80  2  0
 80 99  1  0
 81 80  1  0
 81 84  1  0
 82 79  1  0
 82 83  1  0
 83 81  2  0
 84 85  1  0
 85 86  2  0
 87 90  1  0
 87 86  1  0
 88 87  2  0
 89 88  1  0
 89 84  2  0
 90 91  1  0
 91 92  1  0
 92 93  2  0
 94 93  1  0
 94 98  1  0
 95 94  2  0
 96 91  2  0
 96 95  1  0
 97 96  1  0
 99100  1  0
100103  1  0
100102  1  0
101 99  2  0
104105  1  0
104 79  1  0
106104  1  0
M  ISO  4  12 101  13 101  59 100  78 100
M  END
>  <TORSDO>  (56) 
F 21

>  <SCORE>  (56) 
-13.165

>  <name>  (56) 
55

>  <ligand_id>  (56) 
55

>  <original_smiles>  (56) 
[H]C1=C(C([H])([H])[N+]([H])([H])C([H])([H])C([H])([H])c2c(C([H])([H])[H])c(C([H])([H])[H])c(C([H])([H])Oc3c([H])c([H])c4c(c3[H])C([H])([H])N(C(=O)C([H])(N([H])C(=O)C([H])(N([H])C([H])([H])[H])C([H])([H])[H])C(C([H])([H])[H])(C([H])([H])[H])C([H])([H])[H])C([H])(C(=O)N([H])C3([H])c5c([H])c([H])c([H])c([H])c5C([H])([H])C([H])([H])C3([H])[H])C4([H])[H])c(C([H])([H])[H])c2C([H])([H])[H])C([H])([H])C([H])([H])C2=C1C([H])([H])C([H])(C([H])([H])[H])C([H])([H])C([H])([H])N2C(=O)N1C([H])([H])C([H])([H])C([H])([H])C([H])(n2nc(-c3c([H])c([H])c(Oc4c([H])c([H])c(F)c([H])c4F)c([H])c3[H])c(C(=O)N([H])[H])c2N([H])[H])C1([H])[H]

>  <smiles>  (56) 
[H]C1=C(C([H])([H])[N+]([H])([H])C([H])([H])C([H])([H])c2c(C([H])([H])[H])c(C([H])([H])[H])c(C([H])([H])Oc3c([H])c([H])c4c(c3[H])C([H])([H])N(C(=O)C([H])(N([H])C(=O)C([H])(N([H])C([H])([H])[H])C([H])([H])[H])C(C([H])([H])[H])(C([H])([H])[H])C([H])([H])[H])C([H])(C(=O)N([H])C3([H])c5c([H])c([H])c([H])c([H])c5C([H])([H])C([H])([H])C3([H])[H])C4([H])[H])c(C([H])([H])[H])c2C([H])([H])[H])C([H])([H])C([H])([H])C2=C1C([H])([H])C([H])(C([H])([H])[H])C([H])([H])C([H])([H])N2C(=O)N1C([H])([H])C([H])([H])C([H])([H])C([H])(n2nc(-c3c([H])c([H])c(Oc4c([H])c([H])c(F)c([H])c4F)c([H])c3[H])c(C(=O)N([H])[H])c2N([H])[H])C1([H])[H]

$$$$
56:0:0
     RDKit          3D

 99108  0  0  1  0  0  0  0  0999 V2000
  -31.7810  -23.5710   19.3290 C   0  0  0  0  0  0  0  0  0  0  0  0
  -31.7420  -22.5480   20.3140 C   0  0  0  0  0  0  0  0  0  0  0  0
  -30.7020  -24.4870   19.2150 C   0  0  0  0  0  0  0  0  0  0  0  0
  -29.7010  -23.5440   21.2550 C   0  0  0  0  0  0  0  0  0  0  0  0
  -30.6960  -22.5220   21.2810 C   0  0  0  0  0  0  0  0  0  0  0  0
  -29.6490  -24.4580   20.1630 C   0  0  0  0  0  0  0  0  0  0  0  0
  -32.9700  -23.6850   18.3720 C   0  0  0  0  0  1  0  0  0  0  0  0
  -32.8430  -21.4810   20.3300 C   0  0  0  0  0  1  0  0  0  0  0  0
  -30.6420  -25.5010   18.0660 C   0  0  0  0  0  1  0  0  0  0  0  0
  -28.6820  -23.6580   22.3940 C   0  0  0  0  0  1  0  0  0  0  0  0
  -30.6620  -21.3940   22.3430 C   0  0  0  0  0  2  0  0  0  0  0  0
  -30.0060  -20.0820   21.8280 C   0  0  0  0  0  0  0  0  0  0  0  0
  -31.5960  -18.7270   23.1750 C   0  0  0  0  0  1  0  0  0  0  0  0
  -30.5280  -18.8710   22.1810 N   0  0  0  0  0  0  0  0  0  0  0  0
  -29.0200  -20.1720   21.0860 O   0  0  0  0  0  0  0  0  0  0  0  0
  -30.0090  -17.5820   21.6650 C   0  0  0  0  0  2  0  0  0  0  0  0
  -31.0330  -14.5040   19.9340 C   0  0  0  0  0  0  0  0  0  0  0  0
  -30.6060  -12.2980   18.9330 C   0  0  0  0  0  2  0  0  0  0  0  0
  -29.6390  -12.4860   17.7480 C   0  0  0  0  0  2  0  0  0  0  0  0
  -28.1790  -12.4020   18.2360 C   0  0  0  0  0  2  0  0  0  0  0  0
  -27.9000  -13.2780   19.4910 C   0  0  0  0  0  3  0  0  0  0  0  0
  -29.0070  -13.1340   20.5620 C   0  0  0  0  0  2  0  0  0  0  0  0
  -30.3030  -13.3560   19.9070 N   0  0  0  0  0  0  0  0  0  0  0  0
  -32.2150  -14.5460   19.5870 O   0  0  0  0  0  0  0  0  0  0  0  0
  -30.6600  -17.2440   18.3050 C   0  0  0  0  0  2  0  0  0  0  0  0
  -31.4590  -17.7220   19.5060 C   0  0  0  0  0  2  0  0  0  0  0  0
  -29.7050  -16.2000   18.8780 C   0  0  0  0  0  2  0  0  0  0  0  0
  -30.9860  -16.8540   20.6930 C   0  0  0  0  0  3  0  0  0  0  0  0
  -30.3390  -15.6630   20.0940 N   0  0  0  0  0  0  0  0  0  0  0  0
  -25.5810  -13.9380   20.3790 C   0  0  0  0  0  0  0  0  0  0  0  0
  -24.5050  -13.1880   20.7660 C   0  0  0  0  0  0  0  0  0  0  0  0
  -24.9080  -11.8230   20.6440 C   0  0  0  0  0  0  0  0  0  0  0  0
  -26.5730  -13.0290   20.0440 N   0  0  0  0  0  0  0  0  0  0  0  0
  -26.1760  -11.7480   20.2630 N   0  0  0  0  0  0  0  0  0  0  0  0
  -24.1430  -10.5820   20.8080 C   0  0  0  0  0  0  0  0  0  0  0  0
  -24.5640   -9.5660   21.6960 C   0  0  0  0  0  3  0  0  0  0  0  0
  -23.8010   -8.3890   21.8520 C   0  0  0  0  0  3  0  0  0  0  0  0
  -22.6050   -8.2170   21.1130 C   0  0  0  0  0  0  0  0  0  0  0  0
  -22.2030   -9.2200   20.2130 C   0  0  0  0  0  3  0  0  0  0  0  0
  -22.9680  -10.3890   20.0580 C   0  0  0  0  0  3  0  0  0  0  0  0
  -21.8110   -7.0990   21.1800 O   0  0  0  0  0  0  0  0  0  0  0  0
  -21.6930   -6.3690   22.3360 C   0  0  0  0  0  0  0  0  0  0  0  0
  -21.1870   -6.9360   23.5260 C   0  0  0  0  0  3  0  0  0  0  0  0
  -21.0160   -6.1310   24.6690 C   0  0  0  0  0  3  0  0  0  0  0  0
  -21.3440   -4.7620   24.6240 C   0  0  0  0  0  0  0  0  0  0  0  0
  -21.8450   -4.1970   23.4400 C   0  0  0  0  0  3  0  0  0  0  0  0
  -22.0160   -4.9980   22.2970 C   0  0  0  0  0  0  0  0  0  0  0  0
  -22.4790   -4.4440   21.1500 F   0  0  0  0  0  0  0  0  0  0  0  0
  -21.1730   -3.9870   25.7200 F   0  0  0  0  0  0  0  0  0  0  0  0
  -23.1460  -13.7030   21.1380 C   0  0  0  0  0  0  0  0  0  0  0  0
  -22.4600  -13.0190   22.0460 N   0  0  0  0  0  0  0  0  0  0  0  0
  -22.7050  -14.7490   20.6610 O   0  0  0  0  0  0  0  0  0  0  0  0
  -22.8320  -12.1710   22.4500 H   0  0  0  0  0  0  0  0  0  0  0  0
  -21.5510  -13.3450   22.3410 H   0  0  0  0  0  0  0  0  0  0  0  0
  -25.7870  -15.3110   20.2660 N   0  0  0  0  0  0  0  0  0  0  0  0
  -25.0510  -15.9780   20.4720 H   0  0  0  0  0  0  0  0  0  0  0  0
  -26.6380  -15.7490   19.9410 H   0  0  0  0  0  0  0  0  0  0  0  0
  -28.4060  -25.3260   19.9200 C   0  0  0  0  0  2  0  0  0  0  0  0
  -28.5660  -26.7360   20.1520 O   0  0  0  0  0  0  0  0  0  0  0  0
  -24.6680  -31.8630   23.1650 C   0  0  0  0  0  0  0  0  0  0  0  0
  -27.4020  -27.4820   20.0780 C   0  0  0  0  0  0  0  0  0  0  0  0
  -23.5010  -30.4660   21.4950 C   0  0  0  0  0  3  0  0  0  0  0  0
  -24.9920  -28.9720   20.0670 C   0  0  0  0  0  0  0  0  0  0  0  0
  -26.0280  -30.8560   21.3350 C   0  0  0  0  0  2  0  0  0  0  0  0
  -26.1380  -29.4960   20.6760 C   0  0  0  0  0  0  0  0  0  0  0  0
  -27.3460  -28.7610   20.6810 C   0  0  0  0  0  3  0  0  0  0  0  0
  -26.2360  -26.9890   19.4400 C   0  0  0  0  0  3  0  0  0  0  0  0
  -25.0370  -27.7170   19.4450 C   0  0  0  0  0  3  0  0  0  0  0  0
  -23.7340  -29.8070   20.1110 C   0  0  0  0  0  2  0  0  0  0  0  0
  -24.7490  -31.0770   22.0550 N   0  0  0  0  0  0  0  0  0  0  0  0
  -23.5750  -32.1150   23.6910 O   0  0  0  0  0  0  0  0  0  0  0  0
  -22.8520  -29.4220   22.4320 C   0  0  0  0  0  0  0  0  0  0  0  0
  -21.5250  -29.2540   22.3120 N   0  0  0  0  0  0  0  0  0  0  0  0
  -23.5390  -28.7680   23.2220 O   0  0  0  0  0  0  0  0  0  0  0  0
  -21.0330  -29.8360   21.6480 H   0  0  0  0  0  0  0  0  0  0  0  0
  -18.1370  -28.1350   22.8740 C   0  0  0  0  0  0  0  0  0  0  0  0
  -20.7090  -28.3030   23.0650 C   0  0  0  0  0  3  0  0  0  0  0  0
  -20.7460  -26.9000   22.4180 C   0  0  0  0  0  2  0  0  0  0  0  0
  -19.6010  -26.6600   21.4280 C   0  0  0  0  0  2  0  0  0  0  0  0
  -18.2460  -26.8160   22.1260 C   0  0  0  0  0  2  0  0  0  0  0  0
  -19.2930  -28.8420   23.2980 C   0  0  0  0  0  0  0  0  0  0  0  0
  -19.1340  -30.0830   23.9530 C   0  0  0  0  0  3  0  0  0  0  0  0
  -17.8530  -30.6170   24.1860 C   0  0  0  0  0  3  0  0  0  0  0  0
  -16.7120  -29.9050   23.7780 C   0  0  0  0  0  3  0  0  0  0  0  0
  -16.8550  -28.6650   23.1300 C   0  0  0  0  0  3  0  0  0  0  0  0
  -25.9360  -32.5040   23.8090 C   0  0  0  0  0  3  0  0  0  0  0  0
  -26.4700  -31.7050   25.0610 C   0  0  1  0  0  0  0  0  0  0  0  0
  -25.3760  -31.3940   26.1100 C   0  0  0  0  0  1  0  0  0  0  0  0
  -27.1020  -30.3620   24.6260 C   0  0  0  0  0  1  0  0  0  0  0  0
  -27.5880  -32.5110   25.7620 C   0  0  0  0  0  1  0  0  0  0  0  0
  -25.5960  -33.8840   24.1790 N   0  0  0  0  0  0  0  0  0  0  0  0
  -25.8880  -34.9640   23.4430 C   0  0  0  0  0  0  0  0  0  0  0  0
  -26.5490  -34.9060   22.4020 O   0  0  0  0  0  0  0  0  0  0  0  0
  -25.0110  -34.0010   24.9930 H   0  0  0  0  0  0  0  0  0  0  0  0
  -24.1030  -36.7120   23.1530 C   0  0  0  0  0  1  0  0  0  0  0  0
  -25.3650  -36.3240   23.9420 C   0  0  0  0  0  3  0  0  0  0  0  0
  -27.4770  -37.2530   24.7810 C   0  0  0  0  0  1  0  0  0  0  0  0
  -26.3630  -37.4120   23.8500 N   0  0  0  0  0  0  0  0  0  0  0  0
  -25.9280  -38.3140   24.0320 H   0  0  0  0  0  0  0  0  0  0  0  0
  1  2  1  0
  2  8  1  0
  2  5  2  0
  3  1  2  0
  3  6  1  0
  4  5  1  0
  4 10  1  0
  5 11  1  0
  6  4  2  0
  7  1  1  0
  9  3  1  0
 12 14  1  0
 12 11  1  0
 14 13  1  0
 15 12  2  0
 16 14  1  0
 17 29  1  0
 18 23  1  0
 19 20  1  0
 19 18  1  0
 21 20  1  0
 21 33  1  0
 21 22  1  0
 23 17  1  0
 23 22  1  0
 24 17  2  0
 25 27  1  0
 25 26  1  0
 26 28  1  0
 27 29  1  0
 28 16  1  0
 29 28  1  0
 30 31  2  0
 31 50  1  0
 32 31  1  0
 32 35  1  0
 33 34  1  0
 33 30  1  0
 34 32  2  0
 35 36  1  0
 36 37  2  0
 38 41  1  0
 38 37  1  0
 39 38  2  0
 40 39  1  0
 40 35  2  0
 41 42  1  0
 42 43  1  0
 43 44  2  0
 45 44  1  0
 45 49  1  0
 46 45  2  0
 47 42  2  0
 47 46  1  0
 48 47  1  0
 50 51  1  0
 51 54  1  0
 51 53  1  0
 52 50  2  0
 55 30  1  0
 55 56  1  0
 57 55  1  0
 58 59  1  0
 58  6  1  0
 60 71  2  0
 61 59  1  0
 61 66  1  0
 62 70  1  0
 62 72  1  0
 63 69  1  0
 63 65  1  0
 64 70  1  0
 65 66  2  0
 65 64  1  0
 67 68  1  0
 67 61  2  0
 68 63  2  0
 69 62  1  0
 70 60  1  0
 72 74  2  0
 73 72  1  0
 75 73  1  0
 76 85  2  0
 76 81  1  0
 77 73  1  0
 77 81  1  0
 78 77  1  0
 79 80  1  0
 79 78  1  0
 80 76  1  0
 81 82  2  0
 82 83  1  0
 84 83  2  0
 85 84  1  0
 86 60  1  0
 86 91  1  0
 86 87  1  0
 87 90  1  1
 87 88  1  0
 89 87  1  0
 91 94  1  0
 92 96  1  0
 92 91  1  0
 93 92  2  0
 96 95  1  0
 98 96  1  0
 98 99  1  0
 98 97  1  0
M  ISO  4  17 100  29 100  58 101  59 101
M  END
>  <TORSDO>  (57) 
F 20

>  <SCORE>  (57) 
-12.889

>  <name>  (57) 
56

>  <ligand_id>  (57) 
56

>  <original_smiles>  (57) 
[H]c1c([H])c([H])c2c(c1[H])C([H])([H])C([H])([H])C([H])([H])C2([H])N([H])C(=O)C1([H])N(C(=O)C([H])(N([H])C(=O)C([H])(N([H])C([H])([H])[H])C([H])([H])[H])C(C([H])([H])[H])(C([H])([H])[H])C([H])([H])[H])C([H])([H])c2c([H])c(OC([H])([H])c3c(C([H])([H])[H])c(C([H])([H])[H])c(C([H])([H])[H])c(C([H])([H])C(=O)N(C([H])([H])[H])C([H])([H])C4([H])N(C(=O)N5C([H])([H])C([H])([H])C([H])([H])C([H])(n6nc(-c7c([H])c([H])c(Oc8c([H])c([H])c(F)c([H])c8F)c([H])c7[H])c(C(=O)N([H])[H])c6N([H])[H])C5([H])[H])C([H])([H])C([H])([H])C4([H])[H])c3C([H])([H])[H])c([H])c([H])c2C1([H])[H]

>  <smiles>  (57) 
[H]c1c([H])c([H])c2c(c1[H])C([H])([H])C([H])([H])C([H])([H])C2([H])N([H])C(=O)C1([H])N(C(=O)C([H])(N([H])C(=O)C([H])(N([H])C([H])([H])[H])C([H])([H])[H])C(C([H])([H])[H])(C([H])([H])[H])C([H])([H])[H])C([H])([H])c2c([H])c(OC([H])([H])c3c(C([H])([H])[H])c(C([H])([H])[H])c(C([H])([H])[H])c(C([H])([H])C(=O)N(C([H])([H])[H])C([H])([H])C4([H])N(C(=O)N5C([H])([H])C([H])([H])C([H])([H])C([H])(n6nc(-c7c([H])c([H])c(Oc8c([H])c([H])c(F)c([H])c8F)c([H])c7[H])c(C(=O)N([H])[H])c6N([H])[H])C5([H])[H])C([H])([H])C([H])([H])C4([H])[H])c3C([H])([H])[H])c([H])c([H])c2C1([H])[H]

$$$$
57:0:0
     RDKit          3D

 96105  0  0  1  0  0  0  0  0999 V2000
  -28.4350  -21.8100   21.2280 C   0  0  0  0  0  3  0  0  0  0  0  0
  -29.1810  -22.4440   20.2100 C   0  0  0  0  0  0  0  0  0  0  0  0
  -27.2350  -22.2970   21.7360 C   0  0  0  0  0  0  0  0  0  0  0  0
  -28.7560  -23.7920   19.8080 C   0  0  0  0  0  0  0  0  0  0  0  0
  -26.6970  -23.4790   21.2140 C   0  0  0  0  0  0  0  0  0  0  0  0
  -27.4480  -24.2130   20.2520 C   0  0  0  0  0  0  0  0  0  0  0  0
  -26.5330  -21.4600   22.7920 C   0  0  0  0  0  1  0  0  0  0  0  0
  -25.3020  -23.9210   21.6750 C   0  0  0  0  0  1  0  0  0  0  0  0
  -26.7670  -25.4290   19.6660 C   0  0  0  0  0  1  0  0  0  0  0  0
  -30.3370  -21.5550   19.6840 C   0  0  0  0  0  0  0  0  0  0  0  0
  -31.0880  -21.9330   18.7820 O   0  0  0  0  0  0  0  0  0  0  0  0
  -31.5270  -15.7230   20.4320 C   0  0  0  0  0  0  0  0  0  0  0  0
  -31.2540  -13.3750   19.6780 C   0  0  0  0  0  2  0  0  0  0  0  0
  -30.4150  -13.2680   18.3910 C   0  0  0  0  0  2  0  0  0  0  0  0
  -28.9240  -13.1370   18.7460 C   0  0  0  0  0  2  0  0  0  0  0  0
  -28.4540  -14.1880   19.7900 C   0  0  0  0  0  3  0  0  0  0  0  0
  -29.4410  -14.3100   20.9750 C   0  0  0  0  0  2  0  0  0  0  0  0
  -30.7730  -14.5700   20.4070 N   0  0  0  0  0  0  0  0  0  0  0  0
  -32.7500  -15.6200   20.3300 O   0  0  0  0  0  0  0  0  0  0  0  0
  -29.4470  -19.0420   20.1140 C   0  0  0  0  0  2  0  0  0  0  0  0
  -31.9310  -19.3650   20.0010 C   0  0  0  0  0  2  0  0  0  0  0  0
  -29.7490  -17.5810   20.6210 C   0  0  0  0  0  2  0  0  0  0  0  0
  -31.7850  -17.9650   19.3110 C   0  0  0  0  0  2  0  0  0  0  0  0
  -30.5900  -20.0970   20.3140 C   0  0  0  0  0  3  0  0  0  0  0  0
  -30.9860  -16.9600   20.0900 N   0  0  0  0  0  0  0  0  0  0  0  0
  -26.0510  -14.8530   20.4010 C   0  0  0  0  0  0  0  0  0  0  0  0
  -24.9380  -14.1090   20.6960 C   0  0  0  0  0  0  0  0  0  0  0  0
  -25.3570  -12.7440   20.6710 C   0  0  0  0  0  0  0  0  0  0  0  0
  -27.0790  -13.9410   20.2170 N   0  0  0  0  0  0  0  0  0  0  0  0
  -26.6630  -12.6670   20.4380 N   0  0  0  0  0  0  0  0  0  0  0  0
  -24.5770  -11.5040   20.7910 C   0  0  0  0  0  0  0  0  0  0  0  0
  -24.9750  -10.4660   21.6620 C   0  0  0  0  0  3  0  0  0  0  0  0
  -24.1990   -9.2920   21.7770 C   0  0  0  0  0  3  0  0  0  0  0  0
  -23.0140   -9.1490   21.0200 C   0  0  0  0  0  0  0  0  0  0  0  0
  -22.6330  -10.1750   20.1370 C   0  0  0  0  0  3  0  0  0  0  0  0
  -23.4070  -11.3420   20.0200 C   0  0  0  0  0  3  0  0  0  0  0  0
  -22.2120   -8.0340   21.0480 O   0  0  0  0  0  0  0  0  0  0  0  0
  -22.1760   -7.1980   22.1360 C   0  0  0  0  0  0  0  0  0  0  0  0
  -21.8310   -7.6650   23.4230 C   0  0  0  0  0  3  0  0  0  0  0  0
  -21.7420   -6.7610   24.5000 C   0  0  0  0  0  3  0  0  0  0  0  0
  -21.9860   -5.3900   24.2900 C   0  0  0  0  0  0  0  0  0  0  0  0
  -22.3270   -4.9220   23.0080 C   0  0  0  0  0  3  0  0  0  0  0  0
  -22.4170   -5.8240   21.9330 C   0  0  0  0  0  0  0  0  0  0  0  0
  -22.7240   -5.3680   20.6940 F   0  0  0  0  0  0  0  0  0  0  0  0
  -21.8940   -4.5170   25.3210 F   0  0  0  0  0  0  0  0  0  0  0  0
  -23.5440  -14.6320   20.8890 C   0  0  0  0  0  0  0  0  0  0  0  0
  -22.7520  -13.9660   21.7220 N   0  0  0  0  0  0  0  0  0  0  0  0
  -23.1650  -15.6640   20.3390 O   0  0  0  0  0  0  0  0  0  0  0  0
  -23.0740  -13.1330   22.1940 H   0  0  0  0  0  0  0  0  0  0  0  0
  -21.8120  -14.2920   21.8880 H   0  0  0  0  0  0  0  0  0  0  0  0
  -26.2630  -16.2170   20.2470 N   0  0  0  0  0  0  0  0  0  0  0  0
  -25.5000  -16.8810   20.3040 H   0  0  0  0  0  0  0  0  0  0  0  0
  -27.1320  -16.6390   19.9440 H   0  0  0  0  0  0  0  0  0  0  0  0
  -29.7110  -24.7550   18.9830 C   0  0  0  0  0  2  0  0  0  0  0  0
  -29.4160  -26.2370   18.4110 C   0  0  0  0  0  2  0  0  0  0  0  0
  -29.2040  -27.4640   19.2190 O   0  0  0  0  0  0  0  0  0  0  0  0
  -24.6660  -31.6400   22.9730 C   0  0  0  0  0  0  0  0  0  0  0  0
  -27.9670  -28.1370   19.2460 C   0  0  0  0  0  0  0  0  0  0  0  0
  -23.7010  -30.3610   21.1010 C   0  0  0  0  0  3  0  0  0  0  0  0
  -25.3790  -29.3350   19.4770 C   0  0  0  0  0  0  0  0  0  0  0  0
  -26.1610  -31.1010   21.0410 C   0  0  0  0  0  2  0  0  0  0  0  0
  -26.4570  -29.8790   20.1800 C   0  0  0  0  0  0  0  0  0  0  0  0
  -27.7490  -29.2800   20.0780 C   0  0  0  0  0  3  0  0  0  0  0  0
  -26.8560  -27.6870   18.4940 C   0  0  0  0  0  3  0  0  0  0  0  0
  -25.5750  -28.2360   18.6390 C   0  0  0  0  0  3  0  0  0  0  0  0
  -24.0150  -29.9730   19.6370 C   0  0  0  0  0  2  0  0  0  0  0  0
  -24.8590  -31.0450   21.7630 N   0  0  0  0  0  0  0  0  0  0  0  0
  -23.5500  -31.6510   23.5170 O   0  0  0  0  0  0  0  0  0  0  0  0
  -23.2180  -29.1010   21.8590 C   0  0  0  0  0  0  0  0  0  0  0  0
  -21.9420  -28.7300   21.6680 N   0  0  0  0  0  0  0  0  0  0  0  0
  -23.9920  -28.4670   22.5810 O   0  0  0  0  0  0  0  0  0  0  0  0
  -21.3650  -29.3020   21.0660 H   0  0  0  0  0  0  0  0  0  0  0  0
  -18.8010  -26.9620   21.9090 C   0  0  0  0  0  0  0  0  0  0  0  0
  -21.2910  -27.5640   22.2630 C   0  0  0  0  0  3  0  0  0  0  0  0
  -21.6070  -26.2810   21.4600 C   0  0  0  0  0  2  0  0  0  0  0  0
  -20.5590  -25.9680   20.3860 C   0  0  0  0  0  2  0  0  0  0  0  0
  -19.1760  -25.7890   21.0200 C   0  0  0  0  0  2  0  0  0  0  0  0
  -19.7920  -27.8030   22.4810 C   0  0  0  0  0  0  0  0  0  0  0  0
  -19.3850  -28.8990   23.2720 C   0  0  0  0  0  3  0  0  0  0  0  0
  -18.0200  -29.1590   23.4960 C   0  0  0  0  0  3  0  0  0  0  0  0
  -17.0430  -28.3130   22.9430 C   0  0  0  0  0  3  0  0  0  0  0  0
  -17.4350  -27.2160   22.1550 C   0  0  0  0  0  3  0  0  0  0  0  0
  -25.8300  -32.3580   23.7190 C   0  0  0  0  0  3  0  0  0  0  0  0
  -26.3160  -31.5850   25.0060 C   0  0  1  0  0  0  0  0  0  0  0  0
  -25.1690  -31.2120   25.9740 C   0  0  0  0  0  1  0  0  0  0  0  0
  -27.0450  -30.2750   24.6220 C   0  0  0  0  0  1  0  0  0  0  0  0
  -27.3410  -32.4460   25.7800 C   0  0  0  0  0  1  0  0  0  0  0  0
  -25.3640  -33.7080   24.0650 N   0  0  0  0  0  0  0  0  0  0  0  0
  -25.6650  -34.8180   23.3780 C   0  0  0  0  0  0  0  0  0  0  0  0
  -26.4300  -34.8200   22.4110 O   0  0  0  0  0  0  0  0  0  0  0  0
  -24.6820  -33.7710   24.8080 H   0  0  0  0  0  0  0  0  0  0  0  0
  -23.8050  -36.4560   22.9420 C   0  0  0  0  0  1  0  0  0  0  0  0
  -25.0120  -36.1360   23.8370 C   0  0  0  0  0  3  0  0  0  0  0  0
  -26.9830  -37.1820   24.8620 C   0  0  0  0  0  1  0  0  0  0  0  0
  -25.9440  -37.2820   23.8400 N   0  0  0  0  0  0  0  0  0  0  0  0
  -25.4410  -38.1520   23.9870 H   0  0  0  0  0  0  0  0  0  0  0  0
  1  3  1  0
  2  1  2  0
  3  7  1  0
  4  2  1  0
  4  6  2  0
  5  8  1  0
  5  3  2  0
  6  5  1  0
  9  6  1  0
 10  2  1  0
 11 10  2  0
 13 18  1  0
 14 15  1  0
 14 13  1  0
 16 15  1  0
 16 29  1  0
 16 17  1  0
 18 12  1  0
 18 17  1  0
 19 12  2  0
 20 24  1  0
 20 22  1  0
 21 24  1  0
 23 21  1  0
 23 25  1  0
 24 10  1  0
 25 12  1  0
 25 22  1  0
 26 27  2  0
 27 46  1  0
 28 27  1  0
 28 31  1  0
 29 26  1  0
 29 30  1  0
 30 28  2  0
 31 32  1  0
 32 33  2  0
 34 37  1  0
 34 33  1  0
 35 34  2  0
 36 35  1  0
 36 31  2  0
 37 38  1  0
 38 39  1  0
 39 40  2  0
 41 40  1  0
 41 45  1  0
 42 41  2  0
 43 38  2  0
 43 42  1  0
 44 43  1  0
 46 47  1  0
 47 50  1  0
 47 49  1  0
 48 46  2  0
 51 52  1  0
 51 26  1  0
 53 51  1  0
 54  4  1  0
 55 54  1  0
 55 56  1  0
 56 58  1  0
 57 68  2  0
 58 63  1  0
 59 67  1  0
 59 69  1  0
 60 66  1  0
 60 62  1  0
 61 67  1  0
 62 61  1  0
 63 62  2  0
 64 65  1  0
 64 58  2  0
 65 60  2  0
 66 59  1  0
 67 57  1  0
 69 71  2  0
 70 69  1  0
 72 70  1  0
 73 82  2  0
 73 78  1  0
 74 70  1  0
 74 78  1  0
 75 74  1  0
 76 77  1  0
 76 75  1  0
 77 73  1  0
 78 79  2  0
 79 80  1  0
 81 80  2  0
 82 81  1  0
 83 57  1  0
 83 88  1  0
 83 84  1  0
 84 87  1  1
 84 85  1  0
 86 84  1  0
 88 91  1  0
 89 93  1  0
 89 88  1  0
 90 89  2  0
 93 92  1  0
 93 95  1  0
 95 96  1  0
 95 94  1  0
M  ISO  4  12 100  25 100  55 101  56 101
M  END
>  <TORSDO>  (58) 
F 19

>  <SCORE>  (58) 
-3.502

>  <name>  (58) 
57

>  <ligand_id>  (58) 
57

>  <original_smiles>  (58) 
[H]c1c([H])c([H])c2c(c1[H])C([H])([H])C([H])([H])C([H])([H])C2([H])N([H])C(=O)C1([H])N(C(=O)C([H])(N([H])C(=O)C([H])(N([H])C([H])([H])[H])C([H])([H])[H])C(C([H])([H])[H])(C([H])([H])[H])C([H])([H])[H])C([H])([H])c2c([H])c(OC([H])([H])C([H])([H])c3c(C(=O)C4([H])C([H])([H])C([H])([H])N(C(=O)N5C([H])([H])C([H])([H])C([H])([H])C([H])(n6nc(-c7c([H])c([H])c(Oc8c([H])c([H])c(F)c([H])c8F)c([H])c7[H])c(C(=O)N([H])[H])c6N([H])[H])C5([H])[H])C([H])([H])C4([H])[H])c([H])c(C([H])([H])[H])c(C([H])([H])[H])c3C([H])([H])[H])c([H])c([H])c2C1([H])[H]

>  <smiles>  (58) 
[H]c1c([H])c([H])c2c(c1[H])C([H])([H])C([H])([H])C([H])([H])C2([H])N([H])C(=O)C1([H])N(C(=O)C([H])(N([H])C(=O)C([H])(N([H])C([H])([H])[H])C([H])([H])[H])C(C([H])([H])[H])(C([H])([H])[H])C([H])([H])[H])C([H])([H])c2c([H])c(OC([H])([H])C([H])([H])c3c(C(=O)C4([H])C([H])([H])C([H])([H])N(C(=O)N5C([H])([H])C([H])([H])C([H])([H])C([H])(n6nc(-c7c([H])c([H])c(Oc8c([H])c([H])c(F)c([H])c8F)c([H])c7[H])c(C(=O)N([H])[H])c6N([H])[H])C5([H])[H])C([H])([H])C4([H])[H])c([H])c(C([H])([H])[H])c(C([H])([H])[H])c3C([H])([H])[H])c([H])c([H])c2C1([H])[H]

$$$$
58:0:0
     RDKit          3D

 96105  0  0  1  0  0  0  0  0999 V2000
  -28.0880  -23.7590   20.5490 C   0  0  0  0  0  0  0  0  0  0  0  0
  -29.3850  -23.5620   18.4870 C   0  0  0  0  0  0  0  0  0  0  0  0
  -28.4000  -22.3910   20.8400 C   0  0  0  0  0  0  0  0  0  0  0  0
  -29.7440  -22.2250   18.8450 C   0  0  0  0  0  0  0  0  0  0  0  0
  -28.6220  -24.3830   19.3750 C   0  0  0  0  0  0  0  0  0  0  0  0
  -29.4280  -21.6970   20.1260 C   0  0  0  0  0  0  0  0  0  0  0  0
  -27.1950  -24.5280   21.5320 C   0  0  0  0  0  1  0  0  0  0  0  0
  -29.8600  -24.1380   17.1430 C   0  0  0  0  0  1  0  0  0  0  0  0
  -27.5450  -21.6310   21.8560 C   0  0  0  0  0  1  0  0  0  0  0  0
  -30.3890  -21.3090   17.8150 C   0  0  0  0  0  1  0  0  0  0  0  0
  -30.5990  -21.0200   22.3530 C   0  0  0  0  0  1  0  0  0  0  0  0
  -30.4110  -20.6820   20.8540 C   0  0  0  0  0  3  0  0  0  0  0  0
  -31.4080  -14.9590   19.9800 C   0  0  0  0  0  0  0  0  0  0  0  0
  -31.0920  -12.6790   19.0630 C   0  0  0  0  0  2  0  0  0  0  0  0
  -30.1280  -12.7040   17.8590 C   0  0  0  0  0  2  0  0  0  0  0  0
  -28.6700  -12.5880   18.3340 C   0  0  0  0  0  2  0  0  0  0  0  0
  -28.3410  -13.5750   19.4810 C   0  0  0  0  0  3  0  0  0  0  0  0
  -29.4140  -13.4940   20.5930 C   0  0  0  0  0  2  0  0  0  0  0  0
  -30.7010  -13.7870   19.9610 N   0  0  0  0  0  0  0  0  0  0  0  0
  -32.6020  -14.9340   19.6610 O   0  0  0  0  0  0  0  0  0  0  0  0
  -31.6740  -18.4920   19.9110 C   0  0  0  0  0  2  0  0  0  0  0  0
  -29.2180  -18.1940   20.5400 C   0  0  0  0  0  2  0  0  0  0  0  0
  -31.2920  -17.2560   19.0570 C   0  0  0  0  0  2  0  0  0  0  0  0
  -29.5800  -16.6630   20.7140 C   0  0  0  0  0  2  0  0  0  0  0  0
  -30.4720  -19.0890   20.6880 C   0  0  0  0  0  3  0  0  0  0  0  0
  -30.7220  -16.1620   19.8840 N   0  0  0  0  0  0  0  0  0  0  0  0
  -26.0040  -14.3100   20.2740 C   0  0  0  0  0  0  0  0  0  0  0  0
  -24.9140  -13.5880   20.6830 C   0  0  0  0  0  0  0  0  0  0  0  0
  -25.3050  -12.2180   20.6250 C   0  0  0  0  0  0  0  0  0  0  0  0
  -26.9960  -13.3770   20.0050 N   0  0  0  0  0  0  0  0  0  0  0  0
  -26.5790  -12.1140   20.2720 N   0  0  0  0  0  0  0  0  0  0  0  0
  -24.5200  -10.9930   20.8200 C   0  0  0  0  0  0  0  0  0  0  0  0
  -24.8830  -10.0330   21.7900 C   0  0  0  0  0  3  0  0  0  0  0  0
  -24.1040   -8.8700   21.9700 C   0  0  0  0  0  3  0  0  0  0  0  0
  -22.9470   -8.6610   21.1790 C   0  0  0  0  0  0  0  0  0  0  0  0
  -22.6060   -9.6100   20.1960 C   0  0  0  0  0  3  0  0  0  0  0  0
  -23.3870  -10.7630   20.0150 C   0  0  0  0  0  3  0  0  0  0  0  0
  -22.1430   -7.5490   21.2700 O   0  0  0  0  0  0  0  0  0  0  0  0
  -21.9480   -6.8980   22.4600 C   0  0  0  0  0  0  0  0  0  0  0  0
  -21.4300   -7.5600   23.5960 C   0  0  0  0  0  3  0  0  0  0  0  0
  -21.1780   -6.8370   24.7800 C   0  0  0  0  0  3  0  0  0  0  0  0
  -21.4380   -5.4530   24.8280 C   0  0  0  0  0  0  0  0  0  0  0  0
  -21.9470   -4.7920   23.6970 C   0  0  0  0  0  3  0  0  0  0  0  0
  -22.1980   -5.5120   22.5160 C   0  0  0  0  0  0  0  0  0  0  0  0
  -22.6680   -4.8660   21.4200 F   0  0  0  0  0  0  0  0  0  0  0  0
  -21.1900   -4.7560   25.9620 F   0  0  0  0  0  0  0  0  0  0  0  0
  -23.5520  -14.1350   20.9980 C   0  0  0  0  0  0  0  0  0  0  0  0
  -22.8220  -13.4790   21.8950 N   0  0  0  0  0  0  0  0  0  0  0  0
  -23.1420  -15.1730   20.4800 O   0  0  0  0  0  0  0  0  0  0  0  0
  -23.1670  -12.6350   22.3280 H   0  0  0  0  0  0  0  0  0  0  0  0
  -21.9080  -13.8290   22.1500 H   0  0  0  0  0  0  0  0  0  0  0  0
  -26.2180  -15.6670   20.0780 N   0  0  0  0  0  0  0  0  0  0  0  0
  -25.4730  -16.3490   20.1730 H   0  0  0  0  0  0  0  0  0  0  0  0
  -27.0550  -16.0500   19.6560 H   0  0  0  0  0  0  0  0  0  0  0  0
  -28.3050  -25.8440   18.9130 C   0  0  0  0  0  2  0  0  0  0  0  0
  -28.1760  -26.9180   19.8680 O   0  0  0  0  0  0  0  0  0  0  0  0
  -24.5660  -32.0190   23.3000 C   0  0  0  0  0  0  0  0  0  0  0  0
  -27.0150  -27.6760   19.9090 C   0  0  0  0  0  0  0  0  0  0  0  0
  -23.2620  -30.6780   21.6880 C   0  0  0  0  0  3  0  0  0  0  0  0
  -24.6290  -29.2020   20.1220 C   0  0  0  0  0  0  0  0  0  0  0  0
  -25.7770  -31.0380   21.3550 C   0  0  0  0  0  2  0  0  0  0  0  0
  -25.8250  -29.6900   20.6700 C   0  0  0  0  0  0  0  0  0  0  0  0
  -27.0180  -28.9330   20.5700 C   0  0  0  0  0  3  0  0  0  0  0  0
  -25.7940  -27.2160   19.3580 C   0  0  0  0  0  3  0  0  0  0  0  0
  -24.6130  -27.9640   19.4680 C   0  0  0  0  0  3  0  0  0  0  0  0
  -23.3910  -30.0610   20.2730 C   0  0  0  0  0  2  0  0  0  0  0  0
  -24.5550  -31.2620   22.1700 N   0  0  0  0  0  0  0  0  0  0  0  0
  -23.5180  -32.2700   23.9160 O   0  0  0  0  0  0  0  0  0  0  0  0
  -22.6740  -29.6130   22.6440 C   0  0  0  0  0  0  0  0  0  0  0  0
  -21.3560  -29.3760   22.5330 N   0  0  0  0  0  0  0  0  0  0  0  0
  -23.3950  -29.0060   23.4390 O   0  0  0  0  0  0  0  0  0  0  0  0
  -20.8300  -29.9310   21.8720 H   0  0  0  0  0  0  0  0  0  0  0  0
  -18.0670  -27.9700   22.9800 C   0  0  0  0  0  0  0  0  0  0  0  0
  -20.5940  -28.3960   23.3030 C   0  0  0  0  0  3  0  0  0  0  0  0
  -20.7980  -26.9610   22.7510 C   0  0  0  0  0  2  0  0  0  0  0  0
  -19.7410  -26.5480   21.7200 C   0  0  0  0  0  2  0  0  0  0  0  0
  -18.3410  -26.6180   22.3380 C   0  0  0  0  0  2  0  0  0  0  0  0
  -19.1250  -28.8100   23.4220 C   0  0  0  0  0  0  0  0  0  0  0  0
  -18.8150  -30.0650   23.9850 C   0  0  0  0  0  3  0  0  0  0  0  0
  -17.4800  -30.4880   24.1140 C   0  0  0  0  0  3  0  0  0  0  0  0
  -16.4360  -29.6470   23.6920 C   0  0  0  0  0  3  0  0  0  0  0  0
  -16.7300  -28.3900   23.1350 C   0  0  0  0  0  3  0  0  0  0  0  0
  -25.8900  -32.6220   23.8640 C   0  0  0  0  0  3  0  0  0  0  0  0
  -25.6170  -34.0180   24.2280 N   0  0  0  0  0  0  0  0  0  0  0  0
  -25.9240  -35.0750   23.4670 C   0  0  0  0  0  0  0  0  0  0  0  0
  -26.5440  -34.9780   22.4020 O   0  0  0  0  0  0  0  0  0  0  0  0
  -25.0640  -34.1720   25.0590 H   0  0  0  0  0  0  0  0  0  0  0  0
  -24.1920  -36.8830   23.2230 C   0  0  0  0  0  1  0  0  0  0  0  0
  -25.4710  -36.4610   23.9650 C   0  0  0  0  0  3  0  0  0  0  0  0
  -27.6520  -37.3200   24.6920 C   0  0  0  0  0  1  0  0  0  0  0  0
  -26.5050  -37.5070   23.8080 N   0  0  0  0  0  0  0  0  0  0  0  0
  -26.1130  -38.4290   23.9820 H   0  0  0  0  0  0  0  0  0  0  0  0
  -26.4670  -31.8200   25.0930 C   0  0  1  0  0  0  0  0  0  0  0  0
  -25.4210  -31.5580   26.2010 C   0  0  0  0  0  1  0  0  0  0  0  0
  -27.0360  -30.4530   24.6410 C   0  0  0  0  0  1  0  0  0  0  0  0
  -27.6440  -32.6030   25.7210 C   0  0  0  0  0  1  0  0  0  0  0  0
  1  3  1  0
  1  7  1  0
  2  4  2  0
  2  5  1  0
  3  9  1  0
  4  6  1  0
  5  1  2  0
  6  3  2  0
  6 12  1  0
  8  2  1  0
 10  4  1  0
 12 11  1  0
 14 19  1  0
 15 16  1  0
 15 14  1  0
 17 16  1  0
 17 30  1  0
 17 18  1  0
 19 13  1  0
 19 18  1  0
 20 13  2  0
 21 25  1  0
 22 25  1  0
 22 24  1  0
 23 26  1  0
 23 21  1  0
 25 12  1  0
 26 13  1  0
 26 24  1  0
 27 28  2  0
 28 47  1  0
 29 28  1  0
 29 32  1  0
 30 31  1  0
 30 27  1  0
 31 29  2  0
 32 33  1  0
 33 34  2  0
 35 38  1  0
 35 34  1  0
 36 35  2  0
 37 36  1  0
 37 32  2  0
 38 39  1  0
 39 44  2  0
 39 40  1  0
 40 41  2  0
 41 42  1  0
 42 46  1  0
 43 42  2  0
 44 43  1  0
 45 44  1  0
 47 48  1  0
 48 51  1  0
 48 50  1  0
 49 47  2  0
 52 53  1  0
 52 27  1  0
 54 52  1  0
 55  5  1  0
 55 56  1  0
 56 58  1  0
 57 68  2  0
 58 63  1  0
 59 67  1  0
 59 69  1  0
 60 66  1  0
 60 62  1  0
 61 67  1  0
 62 61  1  0
 63 62  2  0
 64 65  1  0
 64 58  2  0
 65 60  2  0
 66 59  1  0
 67 57  1  0
 69 71  2  0
 70 69  1  0
 72 70  1  0
 73 82  2  0
 73 78  1  0
 74 70  1  0
 74 78  1  0
 75 74  1  0
 76 77  1  0
 76 75  1  0
 77 73  1  0
 78 79  2  0
 79 80  1  0
 81 80  2  0
 82 81  1  0
 83 57  1  0
 83 84  1  0
 83 93  1  0
 84 87  1  0
 85 89  1  0
 85 84  1  0
 86 85  2  0
 89 88  1  0
 91 89  1  0
 91 92  1  0
 91 90  1  0
 93 96  1  1
 93 94  1  0
 95 93  1  0
M  ISO  4  13 100  26 100  55 101  56 101
M  END
>  <TORSDO>  (59) 
F 18

>  <SCORE>  (59) 
-13.349

>  <name>  (59) 
58

>  <ligand_id>  (59) 
58

>  <original_smiles>  (59) 
[H]c1c([H])c([H])c2c(c1[H])C([H])([H])C([H])([H])C([H])([H])C2([H])N([H])C(=O)C1([H])N(C(=O)C([H])(N([H])C(=O)C([H])(N([H])C([H])([H])[H])C([H])([H])[H])C(C([H])([H])[H])(C([H])([H])[H])C([H])([H])[H])C([H])([H])c2c([H])c(OC([H])([H])c3c(C([H])([H])[H])c(C([H])([H])[H])c(C([H])(C([H])([H])[H])C4([H])C([H])([H])C([H])([H])N(C(=O)N5C([H])([H])C([H])([H])C([H])([H])C([H])(n6nc(-c7c([H])c([H])c(Oc8c([H])c([H])c(F)c([H])c8F)c([H])c7[H])c(C(=O)N([H])[H])c6N([H])[H])C5([H])[H])C([H])([H])C4([H])[H])c(C([H])([H])[H])c3C([H])([H])[H])c([H])c([H])c2C1([H])[H]

>  <smiles>  (59) 
[H]c1c([H])c([H])c2c(c1[H])C([H])([H])C([H])([H])C([H])([H])C2([H])N([H])C(=O)C1([H])N(C(=O)C([H])(N([H])C(=O)C([H])(N([H])C([H])([H])[H])C([H])([H])[H])C(C([H])([H])[H])(C([H])([H])[H])C([H])([H])[H])C([H])([H])c2c([H])c(OC([H])([H])c3c(C([H])([H])[H])c(C([H])([H])[H])c(C([H])(C([H])([H])[H])C4([H])C([H])([H])C([H])([H])N(C(=O)N5C([H])([H])C([H])([H])C([H])([H])C([H])(n6nc(-c7c([H])c([H])c(Oc8c([H])c([H])c(F)c([H])c8F)c([H])c7[H])c(C(=O)N([H])[H])c6N([H])[H])C5([H])[H])C([H])([H])C4([H])[H])c(C([H])([H])[H])c3C([H])([H])[H])c([H])c([H])c2C1([H])[H]

$$$$
59:0:0
     RDKit          3D

 96 93  0  0  1  0  0  0  0  0999 V2000
  -24.3840  -13.6550   18.7610 C   0  0  0  0  0  1  0  0  0  0  0  0
  -25.5530  -11.9440   19.4210 C   0  0  0  0  0  1  0  0  0  0  0  0
  -24.6020  -15.6590   19.6290 C   0  0  0  0  0  1  0  0  0  0  0  0
  -26.9440  -12.1810   21.1550 C   0  0  0  0  0  1  0  0  0  0  0  0
  -26.1580  -16.0540   21.0670 C   0  0  0  0  0  1  0  0  0  0  0  0
  -27.4050  -14.3320   21.7940 C   0  0  0  0  0  1  0  0  0  0  0  0
  -23.4530  -13.4500   17.5910 C   0  0  0  0  0  1  0  0  0  0  0  0
  -25.4320  -10.6090   18.7060 C   0  0  0  0  0  1  0  0  0  0  0  0
  -27.3840  -10.9140   21.9290 C   0  0  0  0  0  1  0  0  0  0  0  0
  -30.1430  -14.4800   20.9450 C   0  0  0  0  0  0  0  0  0  0  0  0
  -30.8900  -12.7420   19.0940 C   0  0  0  0  0  2  0  0  0  0  0  0
  -29.8710  -12.4560   17.8810 C   0  0  0  0  0  2  0  0  0  0  0  0
  -28.3540  -12.2660   18.1970 C   0  0  0  0  0  2  0  0  0  0  0  0
  -28.1960  -13.1390   19.3720 C   0  0  0  0  0  2  0  0  0  0  0  0
  -29.2360  -12.4980   20.4510 C   0  0  0  0  0  2  0  0  0  0  0  0
  -30.2530  -13.2870   20.3200 N   0  0  0  0  0  0  0  0  0  0  0  0
  -31.1500  -15.1820   20.6990 O   0  0  0  0  0  0  0  0  0  0  0  0
  -29.2320  -15.8140   22.7820 C   0  0  0  0  0  1  0  0  0  0  0  0
  -28.9520  -14.7540   21.8070 N   0  0  0  0  0  0  0  0  0  0  0  0
  -25.3290  -13.9090   20.8710 C   0  0  0  0  0  1  0  0  0  0  0  0
  -23.9740  -13.3700   21.2680 C   0  0  0  0  0  3  0  0  0  0  0  0
  -24.4500  -12.2060   21.6510 C   0  0  0  0  0  3  0  0  0  0  0  0
  -26.4710  -13.9050   19.8160 N   0  0  0  0  0  1  0  0  0  0  0  0
  -25.1150  -13.4590   21.1340 N   0  0  0  0  0  0  0  0  0  0  0  0
  -23.8930  -10.7400   21.3360 C   0  0  0  0  0  0  0  0  0  0  0  0
  -24.2960   -9.6220   22.1300 C   0  0  0  0  0  3  0  0  0  0  0  0
  -23.6390   -8.3570   22.1410 C   0  0  0  0  0  3  0  0  0  0  0  0
  -22.4950   -8.1240   21.3500 C   0  0  0  0  0  0  0  0  0  0  0  0
  -22.1230   -9.1600   20.4670 C   0  0  0  0  0  3  0  0  0  0  0  0
  -22.8100  -10.4150   20.4470 C   0  0  0  0  0  3  0  0  0  0  0  0
  -21.7400   -6.9550   21.3950 O   0  0  0  0  0  0  0  0  0  0  0  0
  -21.7130   -6.1180   22.5000 C   0  0  0  0  0  0  0  0  0  0  0  0
  -21.4240   -6.5920   23.8000 C   0  0  0  0  0  3  0  0  0  0  0  0
  -21.3780   -5.7030   24.8950 C   0  0  0  0  0  3  0  0  0  0  0  0
  -21.6070   -4.3260   24.7020 C   0  0  0  0  0  0  0  0  0  0  0  0
  -21.8730   -3.8420   23.4090 C   0  0  0  0  0  3  0  0  0  0  0  0
  -21.9250   -4.7310   22.3170 C   0  0  0  0  0  0  0  0  0  0  0  0
  -22.1700   -4.2400   21.0790 F   0  0  0  0  0  0  0  0  0  0  0  0
  -21.5630   -3.4740   25.7530 F   0  0  0  0  0  0  0  0  0  0  0  0
  -22.5080  -13.7140   21.2260 C   0  0  0  0  0  0  0  0  0  0  0  0
  -21.7450  -12.9600   22.0140 N   0  0  0  0  0  0  0  0  0  0  0  0
  -22.0620  -14.6430   20.5800 O   0  0  0  0  0  0  0  0  0  0  0  0
  -22.1350  -12.2040   22.5570 H   0  0  0  0  0  0  0  0  0  0  0  0
  -20.7550  -13.1420   22.0740 H   0  0  0  0  0  0  0  0  0  0  0  0
  -26.4440  -14.3980   19.5080 N   0  0  0  0  0  0  0  0  0  0  0  0
  -26.0020  -13.8010   18.8080 H   0  0  0  0  0  0  0  0  0  0  0  0
  -25.9890  -15.2960   19.3760 H   0  0  0  0  0  0  0  0  0  0  0  0
  -23.1690  -17.6980   20.1600 C   0  0  0  0  0  1  0  0  0  0  0  0
  -23.0940  -16.6960   17.8240 C   0  0  0  0  0  1  0  0  0  0  0  0
  -23.9370  -16.9220   19.0760 C   0  0  0  0  0  3  0  0  0  0  0  0
  -26.5820  -17.8900   21.3340 C   0  0  0  0  0  1  0  0  0  0  0  0
  -26.5180  -19.7160   20.5800 C   0  0  0  0  0 15  0  0  0  0  0  0
  -26.0040  -21.7760   22.2720 C   0  0  0  0  0  1  0  0  0  0  0  0
  -26.9050  -21.6140   21.0370 C   0  0  0  0  0  1  0  0  0  0  0  0
  -26.9310  -23.4680   20.3070 C   0  0  0  0  0  1  0  0  0  0  0  0
  -27.5200  -25.1600   20.5340 O   0  0  0  0  0  0  0  0  0  0  0  0
  -24.6810  -31.8030   23.1580 C   0  0  0  0  0  0  0  0  0  0  0  0
  -26.8880  -26.5560   20.3090 C   0  0  0  0  0  0  0  0  0  0  0  0
  -23.4950  -30.4260   21.5150 C   0  0  0  0  0  3  0  0  0  0  0  0
  -24.9010  -28.7760   20.0910 C   0  0  0  0  0  0  0  0  0  0  0  0
  -26.0760  -30.4840   21.4440 C   0  0  0  0  0  2  0  0  0  0  0  0
  -26.0810  -29.0470   20.7900 C   0  0  0  0  0  0  0  0  0  0  0  0
  -27.0870  -27.9510   20.8720 C   0  0  0  0  0  3  0  0  0  0  0  0
  -25.7800  -26.5560   19.4540 C   0  0  0  0  0  3  0  0  0  0  0  0
  -24.8060  -27.5750   19.3780 C   0  0  0  0  0  3  0  0  0  0  0  0
  -23.7350  -29.7640   20.1300 C   0  0  0  0  0  2  0  0  0  0  0  0
  -24.7770  -30.9420   22.0880 N   0  0  0  0  0  0  0  0  0  0  0  0
  -23.5850  -32.1170   23.6550 O   0  0  0  0  0  0  0  0  0  0  0  0
  -22.7730  -29.4340   22.4720 C   0  0  0  0  0  0  0  0  0  0  0  0
  -21.4390  -29.3020   22.3480 N   0  0  0  0  0  0  0  0  0  0  0  0
  -23.4240  -28.7900   23.2980 O   0  0  0  0  0  0  0  0  0  0  0  0
  -20.9670  -29.8730   21.6610 H   0  0  0  0  0  0  0  0  0  0  0  0
  -18.0340  -28.1430   22.8480 C   0  0  0  0  0  0  0  0  0  0  0  0
  -20.5960  -28.3760   23.1160 C   0  0  0  0  0  3  0  0  0  0  0  0
  -20.6810  -26.9430   22.5400 C   0  0  0  0  0  2  0  0  0  0  0  0
  -19.5770  -26.6360   21.5240 C   0  0  0  0  0  2  0  0  0  0  0  0
  -18.1950  -26.7950   22.1650 C   0  0  0  0  0  2  0  0  0  0  0  0
  -19.1600  -28.8920   23.2800 C   0  0  0  0  0  0  0  0  0  0  0  0
  -18.9500  -30.1510   23.8820 C   0  0  0  0  0  3  0  0  0  0  0  0
  -17.6480  -30.6600   24.0540 C   0  0  0  0  0  3  0  0  0  0  0  0
  -16.5370  -29.9070   23.6360 C   0  0  0  0  0  3  0  0  0  0  0  0
  -16.7310  -28.6510   23.0360 C   0  0  0  0  0  3  0  0  0  0  0  0
  -25.9430  -32.4460   23.8080 C   0  0  0  0  0  3  0  0  0  0  0  0
  -25.6020  -33.8310   24.1950 N   0  0  0  0  0  0  0  0  0  0  0  0
  -25.9150  -34.9290   23.4950 C   0  0  0  0  0  0  0  0  0  0  0  0
  -26.5770  -34.8860   22.4560 O   0  0  0  0  0  0  0  0  0  0  0  0
  -25.0090  -33.9340   25.0040 H   0  0  0  0  0  0  0  0  0  0  0  0
  -24.1500  -36.7160   23.2650 C   0  0  0  0  0  1  0  0  0  0  0  0
  -25.4160  -36.2910   24.0270 C   0  0  0  0  0  3  0  0  0  0  0  0
  -27.5580  -37.1760   24.8470 C   0  0  0  0  0  1  0  0  0  0  0  0
  -26.4290  -37.3660   23.9390 N   0  0  0  0  0  0  0  0  0  0  0  0
  -26.0130  -38.2720   24.1350 H   0  0  0  0  0  0  0  0  0  0  0  0
  -26.4580  -31.6530   25.0730 C   0  0  1  0  0  0  0  0  0  0  0  0
  -25.3590  -31.3880   26.1300 C   0  0  0  0  0  1  0  0  0  0  0  0
  -27.0520  -30.2850   24.6730 C   0  0  0  0  0  1  0  0  0  0  0  0
  -27.6060  -32.4380   25.7500 C   0  0  0  0  0  1  0  0  0  0  0  0
  4  9  1  0
  5 51  1  0
  6 19  1  0
  7  1  1  0
  8  2  1  0
 10 19  1  0
 11 16  1  0
 12 13  1  0
 12 11  1  0
 13 14  1  0
 14 15  1  0
 16 15  1  0
 16 10  1  0
 17 10  2  0
 19 18  1  0
 20 24  1  0
 21 40  1  0
 21 22  1  0
 22 25  1  0
 24 21  1  0
 24 22  1  0
 25 26  1  0
 26 27  2  0
 28 31  1  0
 28 27  1  0
 29 28  2  0
 30 29  1  0
 30 25  2  0
 31 32  1  0
 32 33  1  0
 33 34  2  0
 35 34  1  0
 35 39  1  0
 36 35  2  0
 37 32  2  0
 37 36  1  0
 38 37  1  0
 40 41  1  0
 41 44  1  0
 41 43  1  0
 42 40  2  0
 45 23  1  0
 46 45  1  0
 47 45  1  0
 49 50  1  0
 50  3  1  0
 50 48  1  0
 54 53  1  0
 55 56  1  0
 57 68  2  0
 58 56  1  0
 58 63  1  0
 59 67  1  0
 59 69  1  0
 60 66  1  0
 60 62  1  0
 61 67  1  0
 62 63  2  0
 62 61  1  0
 64 58  2  0
 65 64  1  0
 65 60  2  0
 66 59  1  0
 67 57  1  0
 69 71  2  0
 70 69  1  0
 72 70  1  0
 73 82  2  0
 73 78  1  0
 74 70  1  0
 74 78  1  0
 75 74  1  0
 76 77  1  0
 76 75  1  0
 77 73  1  0
 78 79  2  0
 79 80  1  0
 81 80  2  0
 82 81  1  0
 83 57  1  0
 83 84  1  0
 83 93  1  0
 84 87  1  0
 85 89  1  0
 85 84  1  0
 86 85  2  0
 89 88  1  0
 91 89  1  0
 91 92  1  0
 91 90  1  0
 93 96  1  1
 93 94  1  0
 95 93  1  0
M  ISO  4  10 100  19 100  55 101  56 101
M  END
>  <TORSDO>  (60) 
F 21

>  <SCORE>  (60) 
22.800

>  <name>  (60) 
59

>  <ligand_id>  (60) 
59

>  <original_smiles>  (60) 
[H]c1c([H])c([H])c2c(c1[H])C([H])([H])C([H])([H])C([H])([H])C2([H])N([H])C(=O)C1([H])N(C(=O)C([H])(N([H])C(=O)C([H])(N([H])C([H])([H])[H])C([H])([H])[H])C(C([H])([H])[H])(C([H])([H])[H])C([H])([H])[H])C([H])([H])c2c([H])c(OC([H])([H])C([H])(C([H])([H])[H])C([H])([H])C([H])([H])c3c(N(C(=O)N4C([H])([H])C([H])([H])C([H])([H])C([H])(n5nc(-c6c([H])c([H])c(Oc7c([H])c([H])c(F)c([H])c7F)c([H])c6[H])c(C(=O)N([H])[H])c5N([H])[H])C4([H])[H])C([H])([H])[H])c(C([H])([H])[H])c(C([H])([H])[H])c(C([H])([H])[H])c3C([H])(C([H])([H])[H])C([H])([H])[H])c([H])c([H])c2C1([H])[H]

>  <smiles>  (60) 
[H]c1c([H])c([H])c2c(c1[H])C([H])([H])C([H])([H])C([H])([H])C2([H])N([H])C(=O)C1([H])N(C(=O)C([H])(N([H])C(=O)C([H])(N([H])C([H])([H])[H])C([H])([H])[H])C(C([H])([H])[H])(C([H])([H])[H])C([H])([H])[H])C([H])([H])c2c([H])c(OC([H])([H])C([H])(C([H])([H])[H])C([H])([H])C([H])([H])c3c(N(C(=O)N4C([H])([H])C([H])([H])C([H])([H])C([H])(n5nc(-c6c([H])c([H])c(Oc7c([H])c([H])c(F)c([H])c7F)c([H])c6[H])c(C(=O)N([H])[H])c5N([H])[H])C4([H])[H])C([H])([H])[H])c(C([H])([H])[H])c(C([H])([H])[H])c(C([H])([H])[H])c3C([H])(C([H])([H])[H])C([H])([H])[H])c([H])c([H])c2C1([H])[H]

$$$$
60:0:0
     RDKit          3D

 93102  0  0  1  0  0  0  0  0999 V2000
  -28.7290  -21.3090   19.3150 C   0  0  0  0  0  3  0  0  0  0  0  0
  -29.5650  -20.7220   20.3070 C   0  0  0  0  0  0  0  0  0  0  0  0
  -28.3280  -22.6900   19.3280 C   0  0  0  0  0  0  0  0  0  0  0  0
  -28.7280  -23.6050   20.3570 C   0  0  0  0  0  0  0  0  0  0  0  0
  -29.6450  -23.0500   21.3040 C   0  0  0  0  0  0  0  0  0  0  0  0
  -30.0340  -21.6580   21.2850 C   0  0  0  0  0  0  0  0  0  0  0  0
  -27.4000  -23.1540   18.2160 C   0  0  0  0  0  1  0  0  0  0  0  0
  -30.1960  -23.9450   22.4090 C   0  0  0  0  0  1  0  0  0  0  0  0
  -31.0810  -21.0820   22.5420 Cl  0  0  0  0  0  0  0  0  0  0  0  0
  -30.6900  -14.7770   20.0320 C   0  0  0  0  0  0  0  0  0  0  0  0
  -30.3890  -12.5220   19.0060 C   0  0  0  0  0  2  0  0  0  0  0  0
  -29.3900  -12.6150   17.8350 C   0  0  0  0  0  2  0  0  0  0  0  0
  -27.9480  -12.4330   18.3450 C   0  0  0  0  0  2  0  0  0  0  0  0
  -27.6390  -13.3080   19.5900 C   0  0  0  0  0  3  0  0  0  0  0  0
  -28.7590  -13.2280   20.6480 C   0  0  0  0  0  2  0  0  0  0  0  0
  -30.0190  -13.5740   19.9800 N   0  0  0  0  0  0  0  0  0  0  0  0
  -31.8630  -14.8340   19.6540 O   0  0  0  0  0  0  0  0  0  0  0  0
  -29.2150  -18.2010   21.2770 C   0  0  0  0  0  2  0  0  0  0  0  0
  -30.1410  -18.3850   18.9770 C   0  0  0  0  0  2  0  0  0  0  0  0
  -29.8420  -16.7470   21.3830 C   0  0  0  0  0  2  0  0  0  0  0  0
  -29.7590  -16.8380   18.9240 C   0  0  0  0  0  2  0  0  0  0  0  0
  -29.9830  -19.1640   20.3260 C   0  0  0  0  0  3  0  0  0  0  0  0
  -29.9550  -15.9610   20.1220 N   0  0  0  0  0  0  0  0  0  0  0  0
  -25.2990  -13.8750   20.4750 C   0  0  0  0  0  0  0  0  0  0  0  0
  -24.2540  -13.0910   20.8780 C   0  0  0  0  0  0  0  0  0  0  0  0
  -24.7110  -11.7410   20.7800 C   0  0  0  0  0  0  0  0  0  0  0  0
  -26.3260  -13.0040   20.1510 N   0  0  0  0  0  0  0  0  0  0  0  0
  -25.9840  -11.7130   20.3990 N   0  0  0  0  0  0  0  0  0  0  0  0
  -23.9930  -10.4730   20.9720 C   0  0  0  0  0  0  0  0  0  0  0  0
  -24.4410   -9.5010   21.8950 C   0  0  0  0  0  3  0  0  0  0  0  0
  -23.7200   -8.3000   22.0740 C   0  0  0  0  0  3  0  0  0  0  0  0
  -22.5390   -8.0630   21.3320 C   0  0  0  0  0  0  0  0  0  0  0  0
  -22.1110   -9.0230   20.3980 C   0  0  0  0  0  3  0  0  0  0  0  0
  -22.8320  -10.2160   20.2160 C   0  0  0  0  0  3  0  0  0  0  0  0
  -21.7900   -6.9150   21.4230 O   0  0  0  0  0  0  0  0  0  0  0  0
  -21.7050   -6.2010   22.5920 C   0  0  0  0  0  0  0  0  0  0  0  0
  -21.1920   -6.7700   23.7770 C   0  0  0  0  0  3  0  0  0  0  0  0
  -21.0560   -5.9800   24.9360 C   0  0  0  0  0  3  0  0  0  0  0  0
  -21.4240   -4.6210   24.9110 C   0  0  0  0  0  0  0  0  0  0  0  0
  -21.9310   -4.0520   23.7290 C   0  0  0  0  0  3  0  0  0  0  0  0
  -22.0680   -4.8390   22.5730 C   0  0  0  0  0  0  0  0  0  0  0  0
  -22.5360   -4.2790   21.4310 F   0  0  0  0  0  0  0  0  0  0  0  0
  -21.2870   -3.8610   26.0210 F   0  0  0  0  0  0  0  0  0  0  0  0
  -22.8750  -13.5600   21.2410 C   0  0  0  0  0  0  0  0  0  0  0  0
  -22.1970  -12.8440   22.1310 N   0  0  0  0  0  0  0  0  0  0  0  0
  -22.4090  -14.5990   20.7730 O   0  0  0  0  0  0  0  0  0  0  0  0
  -22.5870  -12.0040   22.5340 H   0  0  0  0  0  0  0  0  0  0  0  0
  -21.2750  -13.1400   22.4170 H   0  0  0  0  0  0  0  0  0  0  0  0
  -25.4560  -15.2510   20.3340 N   0  0  0  0  0  0  0  0  0  0  0  0
  -24.7010  -15.9030   20.5220 H   0  0  0  0  0  0  0  0  0  0  0  0
  -26.3000  -15.7050   20.0110 H   0  0  0  0  0  0  0  0  0  0  0  0
  -27.9330  -24.9740   20.6360 C   0  0  0  0  0  2  0  0  0  0  0  0
  -28.3350  -26.3690   20.2300 O   0  0  0  0  0  0  0  0  0  0  0  0
  -24.6120  -31.8890   23.2240 C   0  0  0  0  0  0  0  0  0  0  0  0
  -27.2680  -27.3030   20.1810 C   0  0  0  0  0  0  0  0  0  0  0  0
  -23.4340  -30.4830   21.5770 C   0  0  0  0  0  3  0  0  0  0  0  0
  -24.9070  -28.9440   20.1590 C   0  0  0  0  0  0  0  0  0  0  0  0
  -25.9800  -30.8000   21.4240 C   0  0  0  0  0  2  0  0  0  0  0  0
  -26.0740  -29.4190   20.7740 C   0  0  0  0  0  0  0  0  0  0  0  0
  -27.2580  -28.6090   20.7780 C   0  0  0  0  0  3  0  0  0  0  0  0
  -26.0860  -26.9190   19.5080 C   0  0  0  0  0  3  0  0  0  0  0  0
  -24.9190  -27.7000   19.5160 C   0  0  0  0  0  3  0  0  0  0  0  0
  -23.6670  -29.8150   20.1980 C   0  0  0  0  0  2  0  0  0  0  0  0
  -24.6940  -31.0760   22.1300 N   0  0  0  0  0  0  0  0  0  0  0  0
  -23.5200  -32.1610   23.7460 O   0  0  0  0  0  0  0  0  0  0  0  0
  -22.7660  -29.4620   22.5300 C   0  0  0  0  0  0  0  0  0  0  0  0
  -21.4390  -29.2920   22.4060 N   0  0  0  0  0  0  0  0  0  0  0  0
  -23.4420  -28.8260   23.3430 O   0  0  0  0  0  0  0  0  0  0  0  0
  -20.9510  -29.8540   21.7230 H   0  0  0  0  0  0  0  0  0  0  0  0
  -18.0540  -28.1150   22.9270 C   0  0  0  0  0  0  0  0  0  0  0  0
  -20.6180  -28.3520   23.1740 C   0  0  0  0  0  3  0  0  0  0  0  0
  -20.7030  -26.9260   22.5840 C   0  0  0  0  0  2  0  0  0  0  0  0
  -19.5880  -26.6220   21.5770 C   0  0  0  0  0  2  0  0  0  0  0  0
  -18.2140  -26.7710   22.2360 C   0  0  0  0  0  2  0  0  0  0  0  0
  -19.1840  -28.8630   23.3550 C   0  0  0  0  0  0  0  0  0  0  0  0
  -18.9810  -30.1190   23.9650 C   0  0  0  0  0  3  0  0  0  0  0  0
  -17.6820  -30.6300   24.1490 C   0  0  0  0  0  3  0  0  0  0  0  0
  -16.5680  -29.8790   23.7370 C   0  0  0  0  0  3  0  0  0  0  0  0
  -16.7540  -28.6220   23.1330 C   0  0  0  0  0  3  0  0  0  0  0  0
  -25.8830  -32.5330   23.8550 C   0  0  0  0  0  3  0  0  0  0  0  0
  -25.5610  -33.9310   24.1770 N   0  0  0  0  0  0  0  0  0  0  0  0
  -25.8920  -34.9840   23.4180 C   0  0  0  0  0  0  0  0  0  0  0  0
  -26.5730  -34.8800   22.3940 O   0  0  0  0  0  0  0  0  0  0  0  0
  -24.9580  -34.0830   24.9720 H   0  0  0  0  0  0  0  0  0  0  0  0
  -24.1660  -36.7730   23.0320 C   0  0  0  0  0  1  0  0  0  0  0  0
  -25.3930  -36.3710   23.8660 C   0  0  0  0  0  3  0  0  0  0  0  0
  -27.5050  -37.2670   24.7430 C   0  0  0  0  0  1  0  0  0  0  0  0
  -26.4250  -37.4270   23.7730 N   0  0  0  0  0  0  0  0  0  0  0  0
  -26.0130  -38.3460   23.9060 H   0  0  0  0  0  0  0  0  0  0  0  0
  -26.3890  -31.7720   25.1430 C   0  0  1  0  0  0  0  0  0  0  0  0
  -25.2830  -31.5290   26.1970 C   0  0  0  0  0  1  0  0  0  0  0  0
  -26.9890  -30.3960   24.7680 C   0  0  0  0  0  1  0  0  0  0  0  0
  -27.5230  -32.5790   25.8170 C   0  0  0  0  0  1  0  0  0  0  0  0
  1  3  2  0
  1  2  1  0
  2  6  2  0
  3  4  1  0
  4 52  1  0
  4  5  2  0
  5  8  1  0
  6  5  1  0
  6  9  1  0
  7  3  1  0
 10 23  1  0
 11 16  1  0
 12 13  1  0
 12 11  1  0
 14 13  1  0
 14 27  1  0
 14 15  1  0
 16 10  1  0
 16 15  1  0
 17 10  2  0
 18 20  1  0
 19 22  1  0
 21 19  1  0
 21 23  1  0
 22  2  1  0
 22 18  1  0
 23 20  1  0
 24 25  2  0
 25 44  1  0
 26 25  1  0
 26 29  1  0
 27 28  1  0
 27 24  1  0
 28 26  2  0
 29 30  1  0
 30 31  2  0
 32 35  1  0
 32 31  1  0
 33 32  2  0
 34 33  1  0
 34 29  2  0
 35 36  1  0
 36 37  1  0
 37 38  2  0
 39 38  1  0
 39 43  1  0
 40 39  2  0
 41 36  2  0
 41 40  1  0
 42 41  1  0
 44 45  1  0
 45 48  1  0
 45 47  1  0
 46 44  2  0
 49 24  1  0
 49 50  1  0
 51 49  1  0
 53 52  1  0
 54 65  2  0
 55 53  1  0
 55 60  1  0
 56 64  1  0
 56 66  1  0
 57 63  1  0
 57 59  1  0
 58 64  1  0
 59 60  2  0
 59 58  1  0
 61 62  1  0
 61 55  2  0
 62 57  2  0
 63 56  1  0
 64 54  1  0
 66 68  2  0
 67 66  1  0
 69 67  1  0
 70 79  2  0
 70 75  1  0
 71 67  1  0
 71 75  1  0
 72 71  1  0
 73 74  1  0
 73 72  1  0
 74 70  1  0
 75 76  2  0
 76 77  1  0
 78 77  2  0
 79 78  1  0
 80 54  1  0
 80 81  1  0
 80 90  1  0
 81 84  1  0
 82 86  1  0
 82 81  1  0
 83 82  2  0
 86 85  1  0
 88 86  1  0
 88 89  1  0
 88 87  1  0
 90 93  1  1
 90 91  1  0
 92 90  1  0
M  ISO  4  10 100  23 100  52 101  53 101
M  END
>  <TORSDO>  (61) 
F 17

>  <SCORE>  (61) 
-14.978

>  <name>  (61) 
60

>  <ligand_id>  (61) 
60

>  <original_smiles>  (61) 
[H]c1c([H])c([H])c2c(c1[H])C([H])([H])C([H])([H])C([H])([H])C2([H])N([H])C(=O)C1([H])N(C(=O)C([H])(N([H])C(=O)C([H])(N([H])C([H])([H])[H])C([H])([H])[H])C(C([H])([H])[H])(C([H])([H])[H])C([H])([H])[H])C([H])([H])c2c([H])c(OC([H])([H])c3c(C([H])([H])[H])c([H])c(C4([H])C([H])([H])C([H])([H])N(C(=O)N5C([H])([H])C([H])([H])C([H])([H])C([H])(n6nc(-c7c([H])c([H])c(Oc8c([H])c([H])c(F)c([H])c8F)c([H])c7[H])c(C(=O)N([H])[H])c6N([H])[H])C5([H])[H])C([H])([H])C4([H])[H])c(Cl)c3C([H])([H])[H])c([H])c([H])c2C1([H])[H]

>  <smiles>  (61) 
[H]c1c([H])c([H])c2c(c1[H])C([H])([H])C([H])([H])C([H])([H])C2([H])N([H])C(=O)C1([H])N(C(=O)C([H])(N([H])C(=O)C([H])(N([H])C([H])([H])[H])C([H])([H])[H])C(C([H])([H])[H])(C([H])([H])[H])C([H])([H])[H])C([H])([H])c2c([H])c(OC([H])([H])c3c(C([H])([H])[H])c([H])c(C4([H])C([H])([H])C([H])([H])N(C(=O)N5C([H])([H])C([H])([H])C([H])([H])C([H])(n6nc(-c7c([H])c([H])c(Oc8c([H])c([H])c(F)c([H])c8F)c([H])c7[H])c(C(=O)N([H])[H])c6N([H])[H])C5([H])[H])C([H])([H])C4([H])[H])c(Cl)c3C([H])([H])[H])c([H])c([H])c2C1([H])[H]

$$$$
61:0:0
     RDKit          3D

 97106  0  0  1  0  0  0  0  0999 V2000
  -28.4980  -22.3870   19.2210 C   0  0  0  0  0  3  0  0  0  0  0  0
  -29.1810  -22.4180   21.5390 C   0  0  0  0  0  3  0  0  0  0  0  0
  -28.4920  -23.0190   20.4730 C   0  0  0  0  0  0  0  0  0  0  0  0
  -29.3110  -21.2490   19.0460 C   0  0  0  0  0  0  0  0  0  0  0  0
  -30.0470  -20.7630   20.1540 C   0  0  0  0  0  0  0  0  0  0  0  0
  -29.4420  -20.6420   17.6620 C   0  0  0  0  0  1  0  0  0  0  0  0
  -29.9350  -21.3080   21.3850 N   0  0  0  0  0  0  0  0  0  0  0  0
  -27.8390  -24.3870   20.6320 C   0  0  0  0  0  2  0  0  0  0  0  0
  -28.5270  -25.4460   19.7360 C   0  0  0  0  0  2  0  0  0  0  0  0
  -28.4150  -26.7880   20.2050 O   0  0  0  0  0  0  0  0  0  0  0  0
  -24.5870  -31.8950   23.2540 C   0  0  0  0  0  0  0  0  0  0  0  0
  -27.2120  -27.4600   20.1620 C   0  0  0  0  0  0  0  0  0  0  0  0
  -23.3710  -30.4980   21.6130 C   0  0  0  0  0  3  0  0  0  0  0  0
  -24.8120  -28.9610   20.1840 C   0  0  0  0  0  0  0  0  0  0  0  0
  -25.8980  -30.8530   21.4110 C   0  0  0  0  0  2  0  0  0  0  0  0
  -25.9710  -29.4870   20.7640 C   0  0  0  0  0  0  0  0  0  0  0  0
  -27.1690  -28.7440   20.7450 C   0  0  0  0  0  3  0  0  0  0  0  0
  -26.0330  -26.9430   19.5750 C   0  0  0  0  0  3  0  0  0  0  0  0
  -24.8380  -27.6890   19.5880 C   0  0  0  0  0  3  0  0  0  0  0  0
  -23.5700  -29.8210   20.2320 C   0  0  0  0  0  2  0  0  0  0  0  0
  -24.6370  -31.0990   22.1490 N   0  0  0  0  0  0  0  0  0  0  0  0
  -23.5090  -32.1680   23.7980 O   0  0  0  0  0  0  0  0  0  0  0  0
  -22.7270  -29.4750   22.5770 C   0  0  0  0  0  0  0  0  0  0  0  0
  -21.4030  -29.2940   22.4540 N   0  0  0  0  0  0  0  0  0  0  0  0
  -23.4150  -28.8480   23.3860 O   0  0  0  0  0  0  0  0  0  0  0  0
  -20.9190  -29.8510   21.7640 H   0  0  0  0  0  0  0  0  0  0  0  0
  -18.0230  -28.1150   22.9520 C   0  0  0  0  0  0  0  0  0  0  0  0
  -20.5820  -28.3560   23.2230 C   0  0  0  0  0  3  0  0  0  0  0  0
  -20.6730  -26.9260   22.6390 C   0  0  0  0  0  2  0  0  0  0  0  0
  -19.5650  -26.6120   21.6270 C   0  0  0  0  0  2  0  0  0  0  0  0
  -18.1880  -26.7670   22.2760 C   0  0  0  0  0  2  0  0  0  0  0  0
  -19.1470  -28.8680   23.3840 C   0  0  0  0  0  0  0  0  0  0  0  0
  -18.9360  -30.1320   23.9760 C   0  0  0  0  0  3  0  0  0  0  0  0
  -17.6330  -30.6390   24.1450 C   0  0  0  0  0  3  0  0  0  0  0  0
  -16.5240  -29.8810   23.7310 C   0  0  0  0  0  3  0  0  0  0  0  0
  -16.7210  -28.6210   23.1400 C   0  0  0  0  0  3  0  0  0  0  0  0
  -25.8780  -32.5160   23.8700 C   0  0  0  0  0  3  0  0  0  0  0  0
  -26.3940  -31.7430   25.1460 C   0  0  1  0  0  0  0  0  0  0  0  0
  -25.3020  -31.5020   26.2160 C   0  0  0  0  0  1  0  0  0  0  0  0
  -26.9710  -30.3670   24.7500 C   0  0  0  0  0  1  0  0  0  0  0  0
  -27.5540  -32.5330   25.8000 C   0  0  0  0  0  1  0  0  0  0  0  0
  -25.5760  -33.9140   24.2040 N   0  0  0  0  0  0  0  0  0  0  0  0
  -25.9100  -34.9640   23.4410 C   0  0  0  0  0  0  0  0  0  0  0  0
  -26.5750  -34.8520   22.4080 O   0  0  0  0  0  0  0  0  0  0  0  0
  -24.9720  -34.0660   24.9980 H   0  0  0  0  0  0  0  0  0  0  0  0
  -24.1840  -36.7610   23.0880 C   0  0  0  0  0  1  0  0  0  0  0  0
  -25.4280  -36.3570   23.8960 C   0  0  0  0  0  3  0  0  0  0  0  0
  -27.5700  -37.2330   24.7150 C   0  0  0  0  0  1  0  0  0  0  0  0
  -26.4650  -37.4060   23.7740 N   0  0  0  0  0  0  0  0  0  0  0  0
  -26.0680  -38.3310   23.9150 H   0  0  0  0  0  0  0  0  0  0  0  0
  -31.1760  -19.7360   19.9890 C   0  0  0  0  0  2  0  0  0  0  0  0
  -30.7010  -14.4290   20.4670 C   0  0  0  0  0  0  0  0  0  0  0  0
  -30.3000  -12.2790   19.3430 C   0  0  0  0  0  2  0  0  0  0  0  0
  -29.3780  -12.4970   18.1300 C   0  0  0  0  0  2  0  0  0  0  0  0
  -27.9020  -12.3650   18.5590 C   0  0  0  0  0  2  0  0  0  0  0  0
  -27.5640  -13.2180   19.8120 C   0  0  0  0  0  3  0  0  0  0  0  0
  -28.6230  -13.0430   20.9270 C   0  0  0  0  0  2  0  0  0  0  0  0
  -29.9530  -13.2960   20.3520 N   0  0  0  0  0  0  0  0  0  0  0  0
  -31.8250  -14.5300   19.9700 O   0  0  0  0  0  0  0  0  0  0  0  0
  -31.7740  -17.4710   21.0690 C   0  0  0  0  0  2  0  0  0  0  0  0
  -29.3900  -17.8430   20.3680 C   0  0  0  0  0  2  0  0  0  0  0  0
  -31.0640  -16.3560   21.8960 C   0  0  0  0  0  2  0  0  0  0  0  0
  -29.1100  -16.3090   20.4280 C   0  0  0  0  0  2  0  0  0  0  0  0
  -30.8650  -18.1920   20.0120 C   0  0  1  0  0  0  0  0  0  0  0  0
  -30.1680  -15.5140   21.0890 N   0  0  0  0  0  0  0  0  0  0  0  0
  -25.1660  -13.8320   20.5120 C   0  0  0  0  0  0  0  0  0  0  0  0
  -24.0950  -13.0620   20.8780 C   0  0  0  0  0  0  0  0  0  0  0  0
  -24.5550  -11.7100   20.8580 C   0  0  0  0  0  0  0  0  0  0  0  0
  -26.2120  -12.9480   20.2920 N   0  0  0  0  0  0  0  0  0  0  0  0
  -25.8490  -11.6670   20.5630 N   0  0  0  0  0  0  0  0  0  0  0  0
  -23.8250  -10.4510   21.0460 C   0  0  0  0  0  0  0  0  0  0  0  0
  -24.2560   -9.4870   21.9820 C   0  0  0  0  0  3  0  0  0  0  0  0
  -23.5260   -8.2930   22.1610 C   0  0  0  0  0  3  0  0  0  0  0  0
  -22.3560   -8.0560   21.4030 C   0  0  0  0  0  0  0  0  0  0  0  0
  -21.9450   -9.0110   20.4580 C   0  0  0  0  0  3  0  0  0  0  0  0
  -22.6730  -10.1960   20.2770 C   0  0  0  0  0  3  0  0  0  0  0  0
  -21.5980   -6.9140   21.4950 O   0  0  0  0  0  0  0  0  0  0  0  0
  -21.5580   -6.1650   22.6430 C   0  0  0  0  0  0  0  0  0  0  0  0
  -21.1500   -6.7170   23.8770 C   0  0  0  0  0  3  0  0  0  0  0  0
  -21.0570   -5.8980   25.0200 C   0  0  0  0  0  3  0  0  0  0  0  0
  -21.3590   -4.5260   24.9290 C   0  0  0  0  0  0  0  0  0  0  0  0
  -21.7610   -3.9730   23.7010 C   0  0  0  0  0  3  0  0  0  0  0  0
  -21.8560   -4.7910   22.5600 C   0  0  0  0  0  0  0  0  0  0  0  0
  -22.2240   -4.2490   21.3740 F   0  0  0  0  0  0  0  0  0  0  0  0
  -21.2590   -3.7360   26.0230 F   0  0  0  0  0  0  0  0  0  0  0  0
  -22.7000  -13.5460   21.1350 C   0  0  0  0  0  0  0  0  0  0  0  0
  -21.9630  -12.8570   22.0000 N   0  0  0  0  0  0  0  0  0  0  0  0
  -22.2670  -14.5680   20.6060 O   0  0  0  0  0  0  0  0  0  0  0  0
  -22.3250  -12.0310   22.4530 H   0  0  0  0  0  0  0  0  0  0  0  0
  -21.0250  -13.1600   22.2110 H   0  0  0  0  0  0  0  0  0  0  0  0
  -25.3250  -15.2000   20.3300 N   0  0  0  0  0  0  0  0  0  0  0  0
  -24.5600  -15.8500   20.4820 H   0  0  0  0  0  0  0  0  0  0  0  0
  -26.1790  -15.6490   20.0270 H   0  0  0  0  0  0  0  0  0  0  0  0
  -31.1870  -17.6650   18.6540 N   0  0  0  0  0  4  0  0  0  0  0  0
  -30.5060  -17.9350   17.9630 H   0  0  0  0  0  0  0  0  0  0  0  0
  -31.2500  -16.6620   18.6570 H   0  0  0  0  0  0  0  0  0  0  0  0
  -32.0770  -18.0120   18.3410 H   0  0  0  0  0  0  0  0  0  0  0  0
  1  3  1  0
  3  8  1  0
  3  2  2  0
  4  1  2  0
  4  5  1  0
  5  7  2  0
  6  4  1  0
  7  2  1  0
  9 10  1  0
  9  8  1  0
 11 22  2  0
 12 10  1  0
 12 17  1  0
 13 21  1  0
 13 23  1  0
 14 20  1  0
 14 16  1  0
 15 21  1  0
 16 15  1  0
 17 16  2  0
 18 19  1  0
 18 12  2  0
 19 14  2  0
 20 13  1  0
 21 11  1  0
 23 25  2  0
 24 23  1  0
 26 24  1  0
 27 36  2  0
 27 32  1  0
 28 24  1  0
 28 32  1  0
 29 28  1  0
 30 31  1  0
 30 29  1  0
 31 27  1  0
 32 33  2  0
 33 34  1  0
 35 34  2  0
 36 35  1  0
 37 11  1  0
 37 42  1  0
 37 38  1  0
 38 41  1  1
 38 39  1  0
 40 38  1  0
 42 45  1  0
 43 47  1  0
 43 42  1  0
 44 43  2  0
 47 46  1  0
 49 47  1  0
 49 50  1  0
 49 48  1  0
 51  5  1  0
 52 65  1  0
 53 58  1  0
 54 55  1  0
 54 53  1  0
 56 55  1  0
 56 69  1  0
 56 57  1  0
 58 52  1  0
 58 57  1  0
 59 52  2  0
 60 62  1  0
 61 63  1  0
 63 65  1  0
 64 51  1  6
 64 61  1  0
 64 60  1  0
 65 62  1  0
 66 67  2  0
 67 86  1  0
 68 67  1  0
 68 71  1  0
 69 66  1  0
 69 70  1  0
 70 68  2  0
 71 72  1  0
 72 73  2  0
 74 77  1  0
 74 73  1  0
 75 74  2  0
 76 75  1  0
 76 71  2  0
 77 78  1  0
 78 79  1  0
 79 80  2  0
 81 80  1  0
 81 85  1  0
 82 81  2  0
 83 78  2  0
 83 82  1  0
 84 83  1  0
 86 87  1  0
 87 90  1  0
 87 89  1  0
 88 86  2  0
 91 92  1  0
 91 66  1  0
 93 91  1  0
 94 96  1  0
 94 64  1  0
 95 94  1  0
 97 94  1  0
M  ISO  4   9 101  10 101  52 100  65 100
M  END
>  <TORSDO>  (62) 
F 20

>  <SCORE>  (62) 
-14.474

>  <name>  (62) 
61

>  <ligand_id>  (62) 
61

>  <original_smiles>  (62) 
[H]c1nc(C([H])([H])C2([N+]([H])([H])[H])C([H])([H])C([H])([H])N(C(=O)N3C([H])([H])C([H])([H])C([H])([H])C([H])(n4nc(-c5c([H])c([H])c(Oc6c([H])c([H])c(F)c([H])c6F)c([H])c5[H])c(C(=O)N([H])[H])c4N([H])[H])C3([H])[H])C([H])([H])C2([H])[H])c(C([H])([H])[H])c([H])c1C([H])([H])C([H])([H])Oc1c([H])c([H])c2c(c1[H])C([H])([H])N(C(=O)C([H])(N([H])C(=O)C([H])(N([H])C([H])([H])[H])C([H])([H])[H])C(C([H])([H])[H])(C([H])([H])[H])C([H])([H])[H])C([H])(C(=O)N([H])C1([H])c3c([H])c([H])c([H])c([H])c3C([H])([H])C([H])([H])C1([H])[H])C2([H])[H]

>  <smiles>  (62) 
[H]c1nc(C([H])([H])C2([N+]([H])([H])[H])C([H])([H])C([H])([H])N(C(=O)N3C([H])([H])C([H])([H])C([H])([H])C([H])(n4nc(-c5c([H])c([H])c(Oc6c([H])c([H])c(F)c([H])c6F)c([H])c5[H])c(C(=O)N([H])[H])c4N([H])[H])C3([H])[H])C([H])([H])C2([H])[H])c(C([H])([H])[H])c([H])c1C([H])([H])C([H])([H])Oc1c([H])c([H])c2c(c1[H])C([H])([H])N(C(=O)C([H])(N([H])C(=O)C([H])(N([H])C([H])([H])[H])C([H])([H])[H])C(C([H])([H])[H])(C([H])([H])[H])C([H])([H])[H])C([H])(C(=O)N([H])C1([H])c3c([H])c([H])c([H])c([H])c3C([H])([H])C([H])([H])C1([H])[H])C2([H])[H]

$$$$
62:0:0
     RDKit          3D

 96106  0  0  1  0  0  0  0  0999 V2000
  -30.1270  -20.6260   19.4880 C   0  0  0  0  0  3  0  0  0  0  0  0
  -30.3420  -20.2550   20.8300 C   0  0  0  0  0  0  0  0  0  0  0  0
  -30.0310  -23.0330   20.0670 C   0  0  0  0  0  0  0  0  0  0  0  0
  -29.9760  -21.9830   19.1060 C   0  0  0  0  0  0  0  0  0  0  0  0
  -30.2850  -22.6630   21.4180 C   0  0  0  0  0  0  0  0  0  0  0  0
  -30.4090  -21.2940   21.7950 C   0  0  0  0  0  0  0  0  0  0  0  0
  -29.7710  -22.2830   17.6300 C   0  0  0  0  0  1  0  0  0  0  0  0
  -30.4480  -23.7390   22.4850 C   0  0  0  0  0  1  0  0  0  0  0  0
  -31.3520  -14.7830   20.0470 C   0  0  0  0  0  0  0  0  0  0  0  0
  -30.9610  -12.6170   18.8970 C   0  0  0  0  0  2  0  0  0  0  0  0
  -29.9340  -12.7650   17.7550 C   0  0  0  0  0  2  0  0  0  0  0  0
  -28.5050  -12.5610   18.2910 C   0  0  0  0  0  2  0  0  0  0  0  0
  -28.2320  -13.4110   19.5550 C   0  0  0  0  0  3  0  0  0  0  0  0
  -29.3710  -13.2490   20.5960 C   0  0  0  0  0  2  0  0  0  0  0  0
  -30.6370  -13.6140   19.9430 N   0  0  0  0  0  0  0  0  0  0  0  0
  -32.4160  -14.9080   19.4310 O   0  0  0  0  0  0  0  0  0  0  0  0
  -29.4750  -17.8250   20.5530 C   0  0  0  0  0  2  0  0  0  0  0  0
  -31.8900  -18.1550   21.0000 C   0  0  0  0  0  2  0  0  0  0  0  0
  -29.6030  -16.3650   21.0650 C   0  0  0  0  0  2  0  0  0  0  0  0
  -31.9620  -16.6890   21.5200 C   0  0  0  0  0  2  0  0  0  0  0  0
  -30.4910  -18.7630   21.2290 C   0  0  0  0  0  3  0  0  0  0  0  0
  -30.9570  -15.7910   20.8980 N   0  0  0  0  0  0  0  0  0  0  0  0
  -25.9290  -14.0060   20.5330 C   0  0  0  0  0  0  0  0  0  0  0  0
  -24.8800  -13.2240   20.9360 C   0  0  0  0  0  0  0  0  0  0  0  0
  -25.3050  -11.8720   20.7550 C   0  0  0  0  0  0  0  0  0  0  0  0
  -26.9250  -13.1260   20.1360 N   0  0  0  0  0  0  0  0  0  0  0  0
  -26.5590  -11.8350   20.3290 N   0  0  0  0  0  0  0  0  0  0  0  0
  -24.5700  -10.6120   20.9030 C   0  0  0  0  0  0  0  0  0  0  0  0
  -24.9550   -9.6400   21.8530 C   0  0  0  0  0  3  0  0  0  0  0  0
  -24.2230   -8.4420   21.9880 C   0  0  0  0  0  3  0  0  0  0  0  0
  -23.0900   -8.2080   21.1730 C   0  0  0  0  0  0  0  0  0  0  0  0
  -22.7250   -9.1670   20.2120 C   0  0  0  0  0  3  0  0  0  0  0  0
  -23.4580  -10.3570   20.0750 C   0  0  0  0  0  3  0  0  0  0  0  0
  -22.3330   -7.0610   21.2170 O   0  0  0  0  0  0  0  0  0  0  0  0
  -22.0440   -6.4360   22.4020 C   0  0  0  0  0  0  0  0  0  0  0  0
  -21.3620   -7.0960   23.4470 C   0  0  0  0  0  3  0  0  0  0  0  0
  -21.0240   -6.3930   24.6220 C   0  0  0  0  0  3  0  0  0  0  0  0
  -21.3610   -5.0320   24.7500 C   0  0  0  0  0  0  0  0  0  0  0  0
  -22.0370   -4.3720   23.7090 C   0  0  0  0  0  3  0  0  0  0  0  0
  -22.3760   -5.0720   22.5370 C   0  0  0  0  0  0  0  0  0  0  0  0
  -23.0080   -4.4270   21.5280 F   0  0  0  0  0  0  0  0  0  0  0  0
  -21.0310   -4.3550   25.8740 F   0  0  0  0  0  0  0  0  0  0  0  0
  -23.5230  -13.7000   21.3690 C   0  0  0  0  0  0  0  0  0  0  0  0
  -22.8670  -12.9590   22.2540 N   0  0  0  0  0  0  0  0  0  0  0  0
  -23.0570  -14.7630   20.9590 O   0  0  0  0  0  0  0  0  0  0  0  0
  -23.2590  -12.0980   22.6070 H   0  0  0  0  0  0  0  0  0  0  0  0
  -21.9610  -13.2570   22.5870 H   0  0  0  0  0  0  0  0  0  0  0  0
  -26.1080  -15.3840   20.4510 N   0  0  0  0  0  0  0  0  0  0  0  0
  -25.3660  -16.0360   20.6820 H   0  0  0  0  0  0  0  0  0  0  0  0
  -26.9270  -15.8350   20.0670 H   0  0  0  0  0  0  0  0  0  0  0  0
  -28.9530  -24.8510   18.4780 C   0  0  0  0  0  2  0  0  0  0  0  0
  -29.8680  -24.5010   19.6390 C   0  0  0  0  0  3  0  0  0  0  0  0
  -28.6100  -25.3600   19.8510 C   0  0  0  0  0  3  0  0  0  0  0  0
  -28.7320  -26.8030   19.9170 O   0  0  0  0  0  0  0  0  0  0  0  0
  -24.6430  -31.6840   23.1540 C   0  0  0  0  0  0  0  0  0  0  0  0
  -27.5430  -27.5190   19.8900 C   0  0  0  0  0  0  0  0  0  0  0  0
  -23.5360  -30.3320   21.4060 C   0  0  0  0  0  3  0  0  0  0  0  0
  -25.0870  -28.9470   19.9260 C   0  0  0  0  0  0  0  0  0  0  0  0
  -26.0520  -30.8030   21.2900 C   0  0  0  0  0  2  0  0  0  0  0  0
  -26.2110  -29.4770   20.5700 C   0  0  0  0  0  0  0  0  0  0  0  0
  -27.4430  -28.7740   20.5440 C   0  0  0  0  0  3  0  0  0  0  0  0
  -26.3950  -27.0180   19.2310 C   0  0  0  0  0  3  0  0  0  0  0  0
  -25.1760  -27.7190   19.2500 C   0  0  0  0  0  3  0  0  0  0  0  0
  -23.8050  -29.7470   19.9930 C   0  0  0  0  0  2  0  0  0  0  0  0
  -24.7600  -30.9520   22.0090 N   0  0  0  0  0  0  0  0  0  0  0  0
  -23.5400  -31.8770   23.6820 O   0  0  0  0  0  0  0  0  0  0  0  0
  -22.9100  -29.2270   22.2890 C   0  0  0  0  0  0  0  0  0  0  0  0
  -21.5920  -29.0130   22.1370 N   0  0  0  0  0  0  0  0  0  0  0  0
  -23.6060  -28.5710   23.0680 O   0  0  0  0  0  0  0  0  0  0  0  0
  -21.0900  -29.5990   21.4840 H   0  0  0  0  0  0  0  0  0  0  0  0
  -18.2420  -27.7340   22.5810 C   0  0  0  0  0  0  0  0  0  0  0  0
  -20.8000  -28.0000   22.8350 C   0  0  0  0  0  3  0  0  0  0  0  0
  -20.9100  -26.6260   22.1320 C   0  0  0  0  0  2  0  0  0  0  0  0
  -19.7950  -26.3810   21.1110 C   0  0  0  0  0  2  0  0  0  0  0  0
  -18.4220  -26.4510   21.7870 C   0  0  0  0  0  2  0  0  0  0  0  0
  -19.3580  -28.4690   23.0600 C   0  0  0  0  0  0  0  0  0  0  0  0
  -19.1350  -29.6730   23.7630 C   0  0  0  0  0  3  0  0  0  0  0  0
  -17.8270  -30.1420   23.9910 C   0  0  0  0  0  3  0  0  0  0  0  0
  -16.7260  -29.4020   23.5300 C   0  0  0  0  0  3  0  0  0  0  0  0
  -16.9340  -28.1990   22.8310 C   0  0  0  0  0  3  0  0  0  0  0  0
  -25.8860  -32.3320   23.8400 C   0  0  0  0  0  3  0  0  0  0  0  0
  -25.5310  -33.7170   24.1800 N   0  0  0  0  0  0  0  0  0  0  0  0
  -25.8270  -34.7850   23.4280 C   0  0  0  0  0  0  0  0  0  0  0  0
  -26.4990  -34.7110   22.3950 O   0  0  0  0  0  0  0  0  0  0  0  0
  -24.9330  -33.8460   24.9830 H   0  0  0  0  0  0  0  0  0  0  0  0
  -24.0290  -36.5110   23.0980 C   0  0  0  0  0  1  0  0  0  0  0  0
  -25.2940  -36.1530   23.8950 C   0  0  0  0  0  3  0  0  0  0  0  0
  -27.3980  -37.1200   24.7090 C   0  0  0  0  0  1  0  0  0  0  0  0
  -26.2840  -37.2430   23.7720 N   0  0  0  0  0  0  0  0  0  0  0  0
  -25.8450  -38.1480   23.9210 H   0  0  0  0  0  0  0  0  0  0  0  0
  -26.3680  -31.5490   25.1210 C   0  0  1  0  0  0  0  0  0  0  0  0
  -25.2380  -31.2630   26.1380 C   0  0  0  0  0  1  0  0  0  0  0  0
  -27.0010  -30.1930   24.7270 C   0  0  0  0  0  1  0  0  0  0  0  0
  -27.4700  -32.3560   25.8460 C   0  0  0  0  0  1  0  0  0  0  0  0
  -29.4320  -21.0260   23.8960 C   0  0  0  0  0  1  0  0  0  0  0  0
  -30.6180  -20.9790   23.1130 O   0  0  0  0  0  0  0  0  0  0  0  0
  1  2  1  0
  2  6  2  0
  3  5  2  0
  4  1  2  0
  4  3  1  0
  5  6  1  0
  5  8  1  0
  6 96  1  0
  7  4  1  0
  9 22  1  0
 10 15  1  0
 11 12  1  0
 11 10  1  0
 13 12  1  0
 13 26  1  0
 13 14  1  0
 15  9  1  0
 15 14  1  0
 16  9  2  0
 17 19  1  0
 17 21  1  0
 18 21  1  0
 18 20  1  0
 21  2  1  0
 22 19  1  0
 22 20  1  0
 23 24  2  0
 24 43  1  0
 25 28  1  0
 25 24  1  0
 26 27  1  0
 26 23  1  0
 27 25  2  0
 28 29  1  0
 29 30  2  0
 31 34  1  0
 31 30  1  0
 32 31  2  0
 33 32  1  0
 33 28  2  0
 34 35  1  0
 35 40  2  0
 35 36  1  0
 36 37  2  0
 37 38  1  0
 38 42  1  0
 39 38  2  0
 40 39  1  0
 41 40  1  0
 43 44  1  0
 44 47  1  0
 44 46  1  0
 45 43  2  0
 48 23  1  0
 48 49  1  0
 50 48  1  0
 51 52  1  0
 51 53  1  0
 52 53  1  0
 52  3  1  0
 53 54  1  0
 55 66  2  0
 56 54  1  0
 56 61  1  0
 57 65  1  0
 57 67  1  0
 58 64  1  0
 58 60  1  0
 59 65  1  0
 60 59  1  0
 61 60  2  0
 62 63  1  0
 62 56  2  0
 63 58  2  0
 64 57  1  0
 65 55  1  0
 67 69  2  0
 68 67  1  0
 70 68  1  0
 71 80  2  0
 71 76  1  0
 72 68  1  0
 72 76  1  0
 73 72  1  0
 74 75  1  0
 74 73  1  0
 75 71  1  0
 76 77  2  0
 77 78  1  0
 79 78  2  0
 80 79  1  0
 81 55  1  0
 81 82  1  0
 81 91  1  0
 82 85  1  0
 83 87  1  0
 83 82  1  0
 84 83  2  0
 87 86  1  0
 89 87  1  0
 89 90  1  0
 89 88  1  0
 91 94  1  1
 91 92  1  0
 93 91  1  0
 96 95  1  0
M  ISO  4   9 100  22 100  53 101  54 101
M  END
>  <TORSDO>  (63) 
F 18

>  <SCORE>  (63) 
-11.969

>  <name>  (63) 
62

>  <ligand_id>  (63) 
62

>  <original_smiles>  (63) 
[H]c1c([H])c([H])c2c(c1[H])C([H])([H])C([H])([H])C([H])([H])C2([H])N([H])C(=O)C1([H])N(C(=O)C([H])(N([H])C(=O)C([H])(N([H])C([H])([H])[H])C([H])([H])[H])C(C([H])([H])[H])(C([H])([H])[H])C([H])([H])[H])C([H])([H])c2c([H])c(OC3([H])C([H])([H])C3([H])c3c(C([H])([H])[H])c([H])c(C4([H])C([H])([H])C([H])([H])N(C(=O)N5C([H])([H])C([H])([H])C([H])([H])C([H])(n6nc(-c7c([H])c([H])c(Oc8c([H])c([H])c(F)c([H])c8F)c([H])c7[H])c(C(=O)N([H])[H])c6N([H])[H])C5([H])[H])C([H])([H])C4([H])[H])c(OC([H])([H])[H])c3C([H])([H])[H])c([H])c([H])c2C1([H])[H]

>  <smiles>  (63) 
[H]c1c([H])c([H])c2c(c1[H])C([H])([H])C([H])([H])C([H])([H])C2([H])N([H])C(=O)C1([H])N(C(=O)C([H])(N([H])C(=O)C([H])(N([H])C([H])([H])[H])C([H])([H])[H])C(C([H])([H])[H])(C([H])([H])[H])C([H])([H])[H])C([H])([H])c2c([H])c(OC3([H])C([H])([H])C3([H])c3c(C([H])([H])[H])c([H])c(C4([H])C([H])([H])C([H])([H])N(C(=O)N5C([H])([H])C([H])([H])C([H])([H])C([H])(n6nc(-c7c([H])c([H])c(Oc8c([H])c([H])c(F)c([H])c8F)c([H])c7[H])c(C(=O)N([H])[H])c6N([H])[H])C5([H])[H])C([H])([H])C4([H])[H])c(OC([H])([H])[H])c3C([H])([H])[H])c([H])c([H])c2C1([H])[H]

$$$$
63:0:0
     RDKit          3D

 94103  0  0  1  0  0  0  0  0999 V2000
  -28.6850  -19.7880   20.2490 C   0  0  0  0  0  0  0  0  0  0  0  0
  -27.6390  -19.6950   19.2720 C   0  0  0  0  0  0  0  0  0  0  0  0
  -28.9180  -21.1490   20.7650 C   0  0  0  0  0  0  0  0  0  0  0  0
  -26.9160  -20.8430   18.8320 C   0  0  0  0  0  0  0  0  0  0  0  0
  -27.1320  -22.1200   19.4080 C   0  0  0  0  0  0  0  0  0  0  0  0
  -28.2040  -22.3450   20.3100 C   0  0  0  0  0  0  0  0  0  0  0  0
  -27.1750  -18.3390   18.7540 C   0  0  0  0  0  1  0  0  0  0  0  0
  -29.8600  -21.3410   21.9460 C   0  0  0  0  0  1  0  0  0  0  0  0
  -25.8290  -20.7140   17.7560 C   0  0  0  0  0  1  0  0  0  0  0  0
  -26.0990  -23.2150   19.1430 C   0  0  0  0  0  1  0  0  0  0  0  0
  -30.8020  -14.8180   20.2240 C   0  0  0  0  0  0  0  0  0  0  0  0
  -30.4370  -12.5610   19.2100 C   0  0  0  0  0  2  0  0  0  0  0  0
  -29.5000  -12.6540   17.9900 C   0  0  0  0  0  2  0  0  0  0  0  0
  -28.0390  -12.4930   18.4400 C   0  0  0  0  0  2  0  0  0  0  0  0
  -27.6910  -13.3950   19.6550 C   0  0  0  0  0  3  0  0  0  0  0  0
  -28.7670  -13.3500   20.7660 C   0  0  0  0  0  2  0  0  0  0  0  0
  -30.0650  -13.6520   20.1520 N   0  0  0  0  0  0  0  0  0  0  0  0
  -31.9490  -14.7980   19.7650 O   0  0  0  0  0  0  0  0  0  0  0  0
  -30.9580  -18.4050   20.8100 C   0  0  0  0  0  2  0  0  0  0  0  0
  -31.3050  -16.9870   21.3330 C   0  0  0  0  0  2  0  0  0  0  0  0
  -29.2250  -16.9170   20.3320 C   0  0  0  0  0  2  0  0  0  0  0  0
  -29.4330  -18.4500   20.8220 C   0  0  0  0  0  3  0  0  0  0  0  0
  -30.3320  -16.0060   20.7970 N   0  0  0  0  0  0  0  0  0  0  0  0
  -25.3200  -13.9830   20.4290 C   0  0  0  0  0  0  0  0  0  0  0  0
  -24.2600  -13.2170   20.8170 C   0  0  0  0  0  0  0  0  0  0  0  0
  -24.7150  -11.8630   20.7770 C   0  0  0  0  0  0  0  0  0  0  0  0
  -26.3570  -13.1040   20.1730 N   0  0  0  0  0  0  0  0  0  0  0  0
  -26.0000  -11.8200   20.4460 N   0  0  0  0  0  0  0  0  0  0  0  0
  -23.9820  -10.6060   20.9770 C   0  0  0  0  0  0  0  0  0  0  0  0
  -24.4070   -9.6430   21.9190 C   0  0  0  0  0  3  0  0  0  0  0  0
  -23.6740   -8.4540   22.1070 C   0  0  0  0  0  3  0  0  0  0  0  0
  -22.4990   -8.2160   21.3540 C   0  0  0  0  0  0  0  0  0  0  0  0
  -22.0900   -9.1670   20.4020 C   0  0  0  0  0  3  0  0  0  0  0  0
  -22.8260  -10.3490   20.2120 C   0  0  0  0  0  3  0  0  0  0  0  0
  -21.7360   -7.0770   21.4530 O   0  0  0  0  0  0  0  0  0  0  0  0
  -21.6780   -6.3480   22.6140 C   0  0  0  0  0  0  0  0  0  0  0  0
  -21.2150   -6.9090   23.8250 C   0  0  0  0  0  3  0  0  0  0  0  0
  -21.1060   -6.1040   24.9760 C   0  0  0  0  0  3  0  0  0  0  0  0
  -21.4470   -4.7390   24.9180 C   0  0  0  0  0  0  0  0  0  0  0  0
  -21.9010   -4.1770   23.7120 C   0  0  0  0  0  3  0  0  0  0  0  0
  -22.0130   -4.9800   22.5630 C   0  0  0  0  0  0  0  0  0  0  0  0
  -22.4310   -4.4270   21.3980 F   0  0  0  0  0  0  0  0  0  0  0  0
  -21.3340   -3.9650   26.0240 F   0  0  0  0  0  0  0  0  0  0  0  0
  -22.8710  -13.7030   21.1110 C   0  0  0  0  0  0  0  0  0  0  0  0
  -22.1520  -13.0180   21.9910 N   0  0  0  0  0  0  0  0  0  0  0  0
  -22.4320  -14.7300   20.5940 O   0  0  0  0  0  0  0  0  0  0  0  0
  -22.5230  -12.1930   22.4400 H   0  0  0  0  0  0  0  0  0  0  0  0
  -21.2190  -13.3280   22.2250 H   0  0  0  0  0  0  0  0  0  0  0  0
  -25.4830  -15.3530   20.2460 N   0  0  0  0  0  0  0  0  0  0  0  0
  -24.7100  -15.9970   20.3630 H   0  0  0  0  0  0  0  0  0  0  0  0
  -26.3180  -15.7890   19.8830 H   0  0  0  0  0  0  0  0  0  0  0  0
  -28.4150  -23.8400   20.8850 C   0  0  0  0  0  3  0  0  0  0  0  0
  -28.5400  -25.1470   19.9270 C   0  0  0  0  0  3  0  0  0  0  0  0
  -28.4470  -26.5450   20.4560 O   0  0  0  0  0  0  0  0  0  0  0  0
  -24.5820  -31.9410   23.3020 C   0  0  0  0  0  0  0  0  0  0  0  0
  -27.3060  -27.3680   20.3370 C   0  0  0  0  0  0  0  0  0  0  0  0
  -23.4350  -30.5270   21.6340 C   0  0  0  0  0  3  0  0  0  0  0  0
  -24.9330  -28.9870   20.2460 C   0  0  0  0  0  0  0  0  0  0  0  0
  -25.9770  -30.8560   21.5240 C   0  0  0  0  0  2  0  0  0  0  0  0
  -26.0820  -29.4760   20.8800 C   0  0  0  0  0  0  0  0  0  0  0  0
  -27.2670  -28.6800   20.9130 C   0  0  0  0  0  3  0  0  0  0  0  0
  -26.1320  -26.9400   19.6730 C   0  0  0  0  0  3  0  0  0  0  0  0
  -24.9640  -27.7250   19.6310 C   0  0  0  0  0  3  0  0  0  0  0  0
  -23.6930  -29.8590   20.2590 C   0  0  0  0  0  2  0  0  0  0  0  0
  -24.6820  -31.1270   22.2090 N   0  0  0  0  0  0  0  0  0  0  0  0
  -23.4810  -32.2110   23.8040 O   0  0  0  0  0  0  0  0  0  0  0  0
  -22.7560  -29.5050   22.5790 C   0  0  0  0  0  0  0  0  0  0  0  0
  -21.4300  -29.3330   22.4360 N   0  0  0  0  0  0  0  0  0  0  0  0
  -23.4230  -28.8740   23.4050 O   0  0  0  0  0  0  0  0  0  0  0  0
  -20.9530  -29.8970   21.7460 H   0  0  0  0  0  0  0  0  0  0  0  0
  -18.0340  -28.1790   22.9190 C   0  0  0  0  0  0  0  0  0  0  0  0
  -20.5970  -28.3940   23.1900 C   0  0  0  0  0  3  0  0  0  0  0  0
  -20.6780  -26.9720   22.5900 C   0  0  0  0  0  2  0  0  0  0  0  0
  -19.5700  -26.6840   21.5720 C   0  0  0  0  0  2  0  0  0  0  0  0
  -18.1910  -26.8390   22.2180 C   0  0  0  0  0  2  0  0  0  0  0  0
  -19.1650  -28.9160   23.3600 C   0  0  0  0  0  0  0  0  0  0  0  0
  -18.9650  -30.1720   23.9730 C   0  0  0  0  0  3  0  0  0  0  0  0
  -17.6680  -30.6900   24.1500 C   0  0  0  0  0  3  0  0  0  0  0  0
  -16.5520  -29.9490   23.7230 C   0  0  0  0  0  3  0  0  0  0  0  0
  -16.7360  -28.6950   23.1140 C   0  0  0  0  0  3  0  0  0  0  0  0
  -25.8410  -32.5860   23.9570 C   0  0  0  0  0  3  0  0  0  0  0  0
  -25.5210  -33.9920   24.2480 N   0  0  0  0  0  0  0  0  0  0  0  0
  -25.8860  -35.0310   23.4840 C   0  0  0  0  0  0  0  0  0  0  0  0
  -26.5960  -34.9070   22.4820 O   0  0  0  0  0  0  0  0  0  0  0  0
  -24.9000  -34.1640   25.0250 H   0  0  0  0  0  0  0  0  0  0  0  0
  -24.1890  -36.8260   23.0140 C   0  0  0  0  0  1  0  0  0  0  0  0
  -25.3850  -36.4280   23.8960 C   0  0  0  0  0  3  0  0  0  0  0  0
  -27.4750  -37.3190   24.8270 C   0  0  0  0  0  1  0  0  0  0  0  0
  -26.4300  -37.4740   23.8180 N   0  0  0  0  0  0  0  0  0  0  0  0
  -26.0230  -38.3990   23.9250 H   0  0  0  0  0  0  0  0  0  0  0  0
  -26.3120  -31.8410   25.2670 C   0  0  1  0  0  0  0  0  0  0  0  0
  -25.1810  -31.6170   26.2980 C   0  0  0  0  0  1  0  0  0  0  0  0
  -26.9160  -30.4610   24.9260 C   0  0  0  0  0  1  0  0  0  0  0  0
  -27.4370  -32.6520   25.9530 C   0  0  0  0  0  1  0  0  0  0  0  0
  1  3  1  0
  2  1  2  0
  3  8  1  0
  4  2  1  0
  4  5  2  0
  5  6  1  0
  6  3  2  0
  6 52  1  0
  7  2  1  0
  9  4  1  0
 10  5  1  0
 11 23  1  0
 12 17  1  0
 13 14  1  0
 13 12  1  0
 15 14  1  0
 15 27  1  0
 15 16  1  0
 17 11  1  0
 17 16  1  0
 18 11  2  0
 19 22  1  0
 19 20  1  0
 21 23  1  0
 21 22  1  0
 22  1  1  0
 23 20  1  0
 24 25  2  0
 25 44  1  0
 26 25  1  0
 26 29  1  0
 27 24  1  0
 27 28  1  0
 28 26  2  0
 29 30  1  0
 30 31  2  0
 32 35  1  0
 32 31  1  0
 33 32  2  0
 34 33  1  0
 34 29  2  0
 35 36  1  0
 36 37  1  0
 37 38  2  0
 39 38  1  0
 39 43  1  0
 40 39  2  0
 41 36  2  0
 41 40  1  0
 42 41  1  0
 44 45  1  0
 45 48  1  0
 45 47  1  0
 46 44  2  0
 49 50  1  0
 49 24  1  0
 51 49  1  0
 53 54  1  0
 53 52  2  0
 55 66  2  0
 56 54  1  0
 56 61  1  0
 57 65  1  0
 57 67  1  0
 58 64  1  0
 58 60  1  0
 59 65  1  0
 60 61  2  0
 60 59  1  0
 62 56  2  0
 63 62  1  0
 63 58  2  0
 64 57  1  0
 65 55  1  0
 67 69  2  0
 68 67  1  0
 70 68  1  0
 71 80  2  0
 71 76  1  0
 72 68  1  0
 72 76  1  0
 73 72  1  0
 74 75  1  0
 74 73  1  0
 75 71  1  0
 76 77  2  0
 77 78  1  0
 79 78  2  0
 80 79  1  0
 81 55  1  0
 81 82  1  0
 81 91  1  0
 82 85  1  0
 83 87  1  0
 83 82  1  0
 84 83  2  0
 87 86  1  0
 89 87  1  0
 89 90  1  0
 89 88  1  0
 91 94  1  1
 91 92  1  0
 93 91  1  0
M  ISO  4  11 100  23 100  53 101  54 101
M  END
>  <TORSDO>  (64) 
F 18

>  <SCORE>  (64) 
-15.230

>  <name>  (64) 
63

>  <ligand_id>  (64) 
63

>  <original_smiles>  (64) 
[H]c1c([H])c([H])c2c(c1[H])C([H])([H])C([H])([H])C([H])([H])C2([H])N([H])C(=O)C1([H])N(C(=O)C([H])(N([H])C(=O)C([H])(N([H])C([H])([H])[H])C([H])([H])[H])C(C([H])([H])[H])(C([H])([H])[H])C([H])([H])[H])C([H])([H])c2c([H])c(OC([H])([H])C([H])([H])c3c(C([H])([H])[H])c(C([H])([H])[H])c(C([H])([H])[H])c(C4([H])C([H])([H])N(C(=O)N5C([H])([H])C([H])([H])C([H])([H])C([H])(n6nc(-c7c([H])c([H])c(Oc8c([H])c([H])c(F)c([H])c8F)c([H])c7[H])c(C(=O)N([H])[H])c6N([H])[H])C5([H])[H])C([H])([H])C4([H])[H])c3C([H])([H])[H])c([H])c([H])c2C1([H])[H]

>  <smiles>  (64) 
[H]c1c([H])c([H])c2c(c1[H])C([H])([H])C([H])([H])C([H])([H])C2([H])N([H])C(=O)C1([H])N(C(=O)C([H])(N([H])C(=O)C([H])(N([H])C([H])([H])[H])C([H])([H])[H])C(C([H])([H])[H])(C([H])([H])[H])C([H])([H])[H])C([H])([H])c2c([H])c(OC([H])([H])C([H])([H])c3c(C([H])([H])[H])c(C([H])([H])[H])c(C([H])([H])[H])c(C4([H])C([H])([H])N(C(=O)N5C([H])([H])C([H])([H])C([H])([H])C([H])(n6nc(-c7c([H])c([H])c(Oc8c([H])c([H])c(F)c([H])c8F)c([H])c7[H])c(C(=O)N([H])[H])c6N([H])[H])C5([H])[H])C([H])([H])C4([H])[H])c3C([H])([H])[H])c([H])c([H])c2C1([H])[H]

$$$$
64:0:0
     RDKit          3D

 94103  0  0  1  0  0  0  0  0999 V2000
  -29.4680  -23.3180   19.1570 C   0  0  0  0  0  0  0  0  0  0  0  0
  -28.9620  -23.1210   21.5010 C   0  0  0  0  0  0  0  0  0  0  0  0
  -29.0190  -23.9800   20.3450 C   0  0  0  0  0  0  0  0  0  0  0  0
  -29.7920  -21.8980   19.1290 C   0  0  0  0  0  0  0  0  0  0  0  0
  -29.3500  -21.7250   21.4880 C   0  0  0  0  0  0  0  0  0  0  0  0
  -29.7470  -21.0440   20.2890 C   0  0  0  0  0  0  0  0  0  0  0  0
  -29.5820  -24.1520   17.8860 C   0  0  0  0  0  1  0  0  0  0  0  0
  -28.4610  -23.7170   22.8250 C   0  0  0  0  0  1  0  0  0  0  0  0
  -30.1980  -21.2720   17.7950 C   0  0  0  0  0  1  0  0  0  0  0  0
  -29.3270  -20.9640   22.8160 C   0  0  0  0  0  1  0  0  0  0  0  0
  -31.3740  -15.2660   20.2720 C   0  0  0  0  0  0  0  0  0  0  0  0
  -31.1120  -12.9440   19.3710 C   0  0  0  0  0  2  0  0  0  0  0  0
  -30.2120  -12.9180   18.1210 C   0  0  0  0  0  2  0  0  0  0  0  0
  -28.7400  -12.7380   18.5340 C   0  0  0  0  0  2  0  0  0  0  0  0
  -28.3260  -13.6940   19.6830 C   0  0  0  0  0  3  0  0  0  0  0  0
  -29.3670  -13.7390   20.8260 C   0  0  0  0  0  2  0  0  0  0  0  0
  -30.6600  -14.0790   20.2210 N   0  0  0  0  0  0  0  0  0  0  0  0
  -32.5810  -15.1980   20.0190 O   0  0  0  0  0  0  0  0  0  0  0  0
  -31.2170  -19.1110   21.0160 C   0  0  0  0  0  2  0  0  0  0  0  0
  -29.0370  -18.5710   20.1640 C   0  0  0  0  0  2  0  0  0  0  0  0
  -31.7580  -17.7110   20.5500 C   0  0  0  0  0  2  0  0  0  0  0  0
  -29.4710  -17.0320   20.0110 C   0  0  0  0  0  2  0  0  0  0  0  0
  -30.0880  -19.6150   20.2250 N   0  0  0  0  0  0  0  0  0  0  0  0
  -30.8130  -16.5500   20.4600 N   0  0  0  0  0  0  0  0  0  0  0  0
  -25.9460  -14.3020   20.4060 C   0  0  0  0  0  0  0  0  0  0  0  0
  -24.8690  -13.5370   20.7590 C   0  0  0  0  0  0  0  0  0  0  0  0
  -25.3190  -12.1810   20.7170 C   0  0  0  0  0  0  0  0  0  0  0  0
  -26.9810  -13.4130   20.1680 N   0  0  0  0  0  0  0  0  0  0  0  0
  -26.6120  -12.1320   20.4220 N   0  0  0  0  0  0  0  0  0  0  0  0
  -24.5760  -10.9240   20.8810 C   0  0  0  0  0  0  0  0  0  0  0  0
  -24.9190   -9.9900   21.8840 C   0  0  0  0  0  3  0  0  0  0  0  0
  -24.1760   -8.7990   22.0340 C   0  0  0  0  0  3  0  0  0  0  0  0
  -23.0780   -8.5350   21.1830 C   0  0  0  0  0  0  0  0  0  0  0  0
  -22.7550   -9.4570   20.1720 C   0  0  0  0  0  3  0  0  0  0  0  0
  -23.4980  -10.6400   20.0190 C   0  0  0  0  0  3  0  0  0  0  0  0
  -22.3140   -7.3940   21.2410 O   0  0  0  0  0  0  0  0  0  0  0  0
  -22.0220   -6.7830   22.4340 C   0  0  0  0  0  0  0  0  0  0  0  0
  -21.3170   -7.4500   23.4610 C   0  0  0  0  0  3  0  0  0  0  0  0
  -20.9780   -6.7630   24.6430 C   0  0  0  0  0  3  0  0  0  0  0  0
  -21.3340   -5.4090   24.7970 C   0  0  0  0  0  0  0  0  0  0  0  0
  -22.0300   -4.7420   23.7750 C   0  0  0  0  0  3  0  0  0  0  0  0
  -22.3710   -5.4270   22.5950 C   0  0  0  0  0  0  0  0  0  0  0  0
  -23.0240   -4.7730   21.6050 F   0  0  0  0  0  0  0  0  0  0  0  0
  -21.0000   -4.7470   25.9290 F   0  0  0  0  0  0  0  0  0  0  0  0
  -23.4760  -14.0280   21.0180 C   0  0  0  0  0  0  0  0  0  0  0  0
  -22.7380  -13.3500   21.8890 N   0  0  0  0  0  0  0  0  0  0  0  0
  -23.0500  -15.0510   20.4820 O   0  0  0  0  0  0  0  0  0  0  0  0
  -23.0930  -12.5230   22.3440 H   0  0  0  0  0  0  0  0  0  0  0  0
  -21.8020  -13.6640   22.1040 H   0  0  0  0  0  0  0  0  0  0  0  0
  -26.1220  -15.6720   20.2390 N   0  0  0  0  0  0  0  0  0  0  0  0
  -25.3550  -16.3270   20.3450 H   0  0  0  0  0  0  0  0  0  0  0  0
  -26.9630  -16.1010   19.8780 H   0  0  0  0  0  0  0  0  0  0  0  0
  -28.4880  -25.5060   20.4930 C   0  0  0  0  0  2  0  0  0  0  0  0
  -28.6270  -26.6840   19.5600 O   0  0  0  0  0  0  0  0  0  0  0  0
  -24.6530  -31.6900   23.0420 C   0  0  0  0  0  0  0  0  0  0  0  0
  -27.5200  -27.5660   19.5840 C   0  0  0  0  0  0  0  0  0  0  0  0
  -23.5230  -30.3380   21.3170 C   0  0  0  0  0  3  0  0  0  0  0  0
  -25.0550  -29.0320   19.7330 C   0  0  0  0  0  0  0  0  0  0  0  0
  -26.0320  -30.8570   21.1190 C   0  0  0  0  0  2  0  0  0  0  0  0
  -26.2030  -29.5440   20.3540 C   0  0  0  0  0  0  0  0  0  0  0  0
  -27.4420  -28.8250   20.2710 C   0  0  0  0  0  3  0  0  0  0  0  0
  -26.3530  -27.1400   18.9140 C   0  0  0  0  0  3  0  0  0  0  0  0
  -25.1360  -27.8400   18.9990 C   0  0  0  0  0  3  0  0  0  0  0  0
  -23.7560  -29.8000   19.8820 C   0  0  0  0  0  2  0  0  0  0  0  0
  -24.7540  -30.9770   21.8830 N   0  0  0  0  0  0  0  0  0  0  0  0
  -23.5650  -31.8370   23.6180 O   0  0  0  0  0  0  0  0  0  0  0  0
  -22.9660  -29.1970   22.2030 C   0  0  0  0  0  0  0  0  0  0  0  0
  -21.6540  -28.9220   22.0880 N   0  0  0  0  0  0  0  0  0  0  0  0
  -23.7100  -28.5650   22.9570 O   0  0  0  0  0  0  0  0  0  0  0  0
  -21.1060  -29.4890   21.4540 H   0  0  0  0  0  0  0  0  0  0  0  0
  -18.3980  -27.4060   22.5400 C   0  0  0  0  0  0  0  0  0  0  0  0
  -20.9310  -27.8630   22.7950 C   0  0  0  0  0  3  0  0  0  0  0  0
  -21.1420  -26.4930   22.1120 C   0  0  0  0  0  2  0  0  0  0  0  0
  -20.0520  -26.1530   21.0900 C   0  0  0  0  0  2  0  0  0  0  0  0
  -18.6760  -26.1310   21.7610 C   0  0  0  0  0  2  0  0  0  0  0  0
  -19.4570  -28.2280   23.0120 C   0  0  0  0  0  0  0  0  0  0  0  0
  -19.1430  -29.4170   23.7020 C   0  0  0  0  0  3  0  0  0  0  0  0
  -17.8030  -29.7900   23.9240 C   0  0  0  0  0  3  0  0  0  0  0  0
  -16.7600  -28.9660   23.4680 C   0  0  0  0  0  3  0  0  0  0  0  0
  -17.0590  -27.7750   22.7820 C   0  0  0  0  0  3  0  0  0  0  0  0
  -25.8970  -32.3740   23.6900 C   0  0  0  0  0  3  0  0  0  0  0  0
  -25.5040  -33.7390   24.0720 N   0  0  0  0  0  0  0  0  0  0  0  0
  -25.7870  -34.8400   23.3640 C   0  0  0  0  0  0  0  0  0  0  0  0
  -26.4750  -34.8180   22.3390 O   0  0  0  0  0  0  0  0  0  0  0  0
  -24.8900  -33.8250   24.8690 H   0  0  0  0  0  0  0  0  0  0  0  0
  -23.9760  -36.5600   23.0540 C   0  0  0  0  0  1  0  0  0  0  0  0
  -25.2190  -36.1800   23.8740 C   0  0  0  0  0  3  0  0  0  0  0  0
  -27.2820  -37.1360   24.8010 C   0  0  0  0  0  1  0  0  0  0  0  0
  -26.1980  -37.2890   23.8350 N   0  0  0  0  0  0  0  0  0  0  0  0
  -25.7400  -38.1800   24.0100 H   0  0  0  0  0  0  0  0  0  0  0  0
  -26.4570  -31.5880   24.9390 C   0  0  1  0  0  0  0  0  0  0  0  0
  -25.3810  -31.2560   25.9990 C   0  0  0  0  0  1  0  0  0  0  0  0
  -27.1130  -30.2570   24.5050 C   0  0  0  0  0  1  0  0  0  0  0  0
  -27.5630  -32.4220   25.6280 C   0  0  0  0  0  1  0  0  0  0  0  0
  1  3  1  0
  2  8  1  0
  3 53  1  0
  3  2  2  0
  4  1  2  0
  4  6  1  0
  5  2  1  0
  5 10  1  0
  6  5  2  0
  7  1  1  0
  9  4  1  0
 11 24  1  0
 12 17  1  0
 13 14  1  0
 13 12  1  0
 15 14  1  0
 15 28  1  0
 15 16  1  0
 17 11  1  0
 17 16  1  0
 18 11  2  0
 20 23  1  0
 21 19  1  0
 22 20  1  0
 22 24  1  0
 23  6  1  0
 23 19  1  0
 24 21  1  0
 25 26  2  0
 26 45  1  0
 27 26  1  0
 27 30  1  0
 28 25  1  0
 28 29  1  0
 29 27  2  0
 30 31  1  0
 31 32  2  0
 33 36  1  0
 33 32  1  0
 34 33  2  0
 35 34  1  0
 35 30  2  0
 36 37  1  0
 37 42  2  0
 37 38  1  0
 38 39  2  0
 39 40  1  0
 40 44  1  0
 41 40  2  0
 42 41  1  0
 43 42  1  0
 45 46  1  0
 46 49  1  0
 46 48  1  0
 47 45  2  0
 50 51  1  0
 50 25  1  0
 52 50  1  0
 54 56  1  0
 54 53  1  0
 55 66  2  0
 56 61  1  0
 57 65  1  0
 57 67  1  0
 58 64  1  0
 58 60  1  0
 59 65  1  0
 60 59  1  0
 61 60  2  0
 62 63  1  0
 62 56  2  0
 63 58  2  0
 64 57  1  0
 65 55  1  0
 67 69  2  0
 68 67  1  0
 70 68  1  0
 71 80  2  0
 71 76  1  0
 72 68  1  0
 72 76  1  0
 73 72  1  0
 74 75  1  0
 74 73  1  0
 75 71  1  0
 76 77  2  0
 77 78  1  0
 79 78  2  0
 80 79  1  0
 81 55  1  0
 81 82  1  0
 81 91  1  0
 82 85  1  0
 83 87  1  0
 83 82  1  0
 84 83  2  0
 87 86  1  0
 89 87  1  0
 89 90  1  0
 89 88  1  0
 91 94  1  1
 91 92  1  0
 93 91  1  0
M  ISO  4  11 100  24 100  53 101  54 101
M  END
>  <TORSDO>  (65) 
F 17

>  <SCORE>  (65) 
-12.470

>  <name>  (65) 
64

>  <ligand_id>  (65) 
64

>  <original_smiles>  (65) 
[H]c1c([H])c([H])c2c(c1[H])C([H])([H])C([H])([H])C([H])([H])C2([H])N([H])C(=O)C1([H])N(C(=O)C([H])(N([H])C(=O)C([H])(N([H])C([H])([H])[H])C([H])([H])[H])C(C([H])([H])[H])(C([H])([H])[H])C([H])([H])[H])C([H])([H])c2c([H])c(OC([H])([H])c3c(C([H])([H])[H])c(C([H])([H])[H])c(N4C([H])([H])C([H])([H])N(C(=O)N5C([H])([H])C([H])([H])C([H])([H])C([H])(n6nc(-c7c([H])c([H])c(Oc8c([H])c([H])c(F)c([H])c8F)c([H])c7[H])c(C(=O)N([H])[H])c6N([H])[H])C5([H])[H])C([H])([H])C4([H])[H])c(C([H])([H])[H])c3C([H])([H])[H])c([H])c([H])c2C1([H])[H]

>  <smiles>  (65) 
[H]c1c([H])c([H])c2c(c1[H])C([H])([H])C([H])([H])C([H])([H])C2([H])N([H])C(=O)C1([H])N(C(=O)C([H])(N([H])C(=O)C([H])(N([H])C([H])([H])[H])C([H])([H])[H])C(C([H])([H])[H])(C([H])([H])[H])C([H])([H])[H])C([H])([H])c2c([H])c(OC([H])([H])c3c(C([H])([H])[H])c(C([H])([H])[H])c(N4C([H])([H])C([H])([H])N(C(=O)N5C([H])([H])C([H])([H])C([H])([H])C([H])(n6nc(-c7c([H])c([H])c(Oc8c([H])c([H])c(F)c([H])c8F)c([H])c7[H])c(C(=O)N([H])[H])c6N([H])[H])C5([H])[H])C([H])([H])C4([H])[H])c(C([H])([H])[H])c3C([H])([H])[H])c([H])c([H])c2C1([H])[H]

$$$$
65:0:0
     RDKit          3D

 94103  0  0  1  0  0  0  0  0999 V2000
  -29.1470  -23.3050   19.1820 C   0  0  0  0  0  3  0  0  0  0  0  0
  -28.6210  -23.6710   20.4430 C   0  0  0  0  0  0  0  0  0  0  0  0
  -29.5720  -21.9590   18.9180 C   0  0  0  0  0  0  0  0  0  0  0  0
  -28.5130  -22.5720   21.3590 C   0  0  0  0  0  0  0  0  0  0  0  0
  -29.4730  -20.9540   19.9260 C   0  0  0  0  0  0  0  0  0  0  0  0
  -27.8890  -22.7630   22.7290 C   0  0  0  0  0  1  0  0  0  0  0  0
  -28.9260  -21.2820   21.1210 N   0  0  0  0  0  0  0  0  0  0  0  0
  -30.9860  -22.6570   16.9000 C   0  0  0  0  0  1  0  0  0  0  0  0
  -28.9420  -21.1780   16.6030 C   0  0  0  0  0  1  0  0  0  0  0  0
  -30.0990  -21.5740   17.5330 C   0  0  0  0  0  3  0  0  0  0  0  0
  -28.0920  -25.1270   20.8270 C   0  0  0  0  0  2  0  0  0  0  0  0
  -28.3950  -26.3800   20.0730 O   0  0  0  0  0  0  0  0  0  0  0  0
  -24.6960  -31.8440   23.0880 C   0  0  0  0  0  0  0  0  0  0  0  0
  -27.3320  -27.2990   20.0250 C   0  0  0  0  0  0  0  0  0  0  0  0
  -23.5090  -30.4490   21.4350 C   0  0  0  0  0  3  0  0  0  0  0  0
  -24.9750  -28.9180   20.0010 C   0  0  0  0  0  0  0  0  0  0  0  0
  -26.0480  -30.7830   21.2600 C   0  0  0  0  0  2  0  0  0  0  0  0
  -26.1410  -29.4050   20.6100 C   0  0  0  0  0  0  0  0  0  0  0  0
  -27.3270  -28.6060   20.6120 C   0  0  0  0  0  3  0  0  0  0  0  0
  -26.1520  -26.8790   19.3780 C   0  0  0  0  0  3  0  0  0  0  0  0
  -24.9850  -27.6650   19.3720 C   0  0  0  0  0  3  0  0  0  0  0  0
  -23.7320  -29.7850   20.0510 C   0  0  0  0  0  2  0  0  0  0  0  0
  -24.7710  -31.0420   21.9860 N   0  0  0  0  0  0  0  0  0  0  0  0
  -23.6080  -32.1110   23.6180 O   0  0  0  0  0  0  0  0  0  0  0  0
  -22.8470  -29.4220   22.3860 C   0  0  0  0  0  0  0  0  0  0  0  0
  -21.5160  -29.2680   22.2800 N   0  0  0  0  0  0  0  0  0  0  0  0
  -23.5280  -28.7670   23.1780 O   0  0  0  0  0  0  0  0  0  0  0  0
  -21.0240  -29.8580   21.6220 H   0  0  0  0  0  0  0  0  0  0  0  0
  -18.1240  -28.1240   22.8260 C   0  0  0  0  0  0  0  0  0  0  0  0
  -20.6940  -28.3260   23.0400 C   0  0  0  0  0  3  0  0  0  0  0  0
  -20.7530  -26.9100   22.4230 C   0  0  0  0  0  2  0  0  0  0  0  0
  -19.6190  -26.6350   21.4290 C   0  0  0  0  0  2  0  0  0  0  0  0
  -18.2550  -26.7910   22.1070 C   0  0  0  0  0  2  0  0  0  0  0  0
  -19.2690  -28.8520   23.2470 C   0  0  0  0  0  0  0  0  0  0  0  0
  -19.0910  -30.1010   23.8790 C   0  0  0  0  0  3  0  0  0  0  0  0
  -17.8010  -30.6260   24.0910 C   0  0  0  0  0  3  0  0  0  0  0  0
  -16.6720  -29.8950   23.6850 C   0  0  0  0  0  3  0  0  0  0  0  0
  -16.8340  -28.6450   23.0610 C   0  0  0  0  0  3  0  0  0  0  0  0
  -25.9700  -32.4820   23.7210 C   0  0  0  0  0  3  0  0  0  0  0  0
  -26.5060  -31.6870   24.9750 C   0  0  1  0  0  0  0  0  0  0  0  0
  -25.4210  -31.3980   26.0390 C   0  0  0  0  0  1  0  0  0  0  0  0
  -27.1130  -30.3340   24.5400 C   0  0  0  0  0  1  0  0  0  0  0  0
  -27.6430  -32.4840   25.6560 C   0  0  0  0  0  1  0  0  0  0  0  0
  -25.6390  -33.8650   24.0940 N   0  0  0  0  0  0  0  0  0  0  0  0
  -25.9440  -34.9440   23.3630 C   0  0  0  0  0  0  0  0  0  0  0  0
  -26.6050  -34.8820   22.3220 O   0  0  0  0  0  0  0  0  0  0  0  0
  -25.0620  -33.9850   24.9130 H   0  0  0  0  0  0  0  0  0  0  0  0
  -24.1820  -36.7170   23.0780 C   0  0  0  0  0  1  0  0  0  0  0  0
  -25.4390  -36.3110   23.8640 C   0  0  0  0  0  3  0  0  0  0  0  0
  -27.5630  -37.2130   24.7050 C   0  0  0  0  0  1  0  0  0  0  0  0
  -26.4520  -37.3850   23.7720 N   0  0  0  0  0  0  0  0  0  0  0  0
  -26.0300  -38.2950   23.9480 H   0  0  0  0  0  0  0  0  0  0  0  0
  -30.0130  -19.6570   19.7070 O   0  0  0  0  0  0  0  0  0  0  0  0
  -30.8700  -14.7330   20.1130 C   0  0  0  0  0  0  0  0  0  0  0  0
  -30.5930  -12.4970   19.0430 C   0  0  0  0  0  2  0  0  0  0  0  0
  -29.6000  -12.6210   17.8670 C   0  0  0  0  0  2  0  0  0  0  0  0
  -28.1470  -12.4650   18.3560 C   0  0  0  0  0  2  0  0  0  0  0  0
  -27.8440  -13.3050   19.6250 C   0  0  0  0  0  3  0  0  0  0  0  0
  -28.9530  -13.1640   20.6900 C   0  0  0  0  0  2  0  0  0  0  0  0
  -30.2210  -13.5220   20.0440 N   0  0  0  0  0  0  0  0  0  0  0  0
  -32.0140  -14.8410   19.6600 O   0  0  0  0  0  0  0  0  0  0  0  0
  -30.0870  -17.9740   21.6730 C   0  0  0  0  0  2  0  0  0  0  0  0
  -29.9670  -16.4190   21.7330 C   0  0  0  0  0  2  0  0  0  0  0  0
  -30.0990  -17.0990   19.5000 C   0  0  0  0  0  2  0  0  0  0  0  0
  -29.5780  -18.3690   20.2870 C   0  0  0  0  0  3  0  0  0  0  0  0
  -30.1190  -15.8750   20.3730 N   0  0  0  0  0  0  0  0  0  0  0  0
  -25.4960  -13.8860   20.4820 C   0  0  0  0  0  0  0  0  0  0  0  0
  -24.4430  -13.1060   20.8730 C   0  0  0  0  0  0  0  0  0  0  0  0
  -24.8930  -11.7540   20.7740 C   0  0  0  0  0  0  0  0  0  0  0  0
  -26.5220  -13.0090   20.1670 N   0  0  0  0  0  0  0  0  0  0  0  0
  -26.1680  -11.7190   20.4030 N   0  0  0  0  0  0  0  0  0  0  0  0
  -24.1680  -10.4890   20.9550 C   0  0  0  0  0  0  0  0  0  0  0  0
  -24.5890   -9.5220   21.8930 C   0  0  0  0  0  3  0  0  0  0  0  0
  -23.8630   -8.3240   22.0630 C   0  0  0  0  0  3  0  0  0  0  0  0
  -22.6990   -8.0850   21.2950 C   0  0  0  0  0  0  0  0  0  0  0  0
  -22.2950   -9.0420   20.3460 C   0  0  0  0  0  3  0  0  0  0  0  0
  -23.0220  -10.2300   20.1740 C   0  0  0  0  0  3  0  0  0  0  0  0
  -21.9440   -6.9390   21.3730 O   0  0  0  0  0  0  0  0  0  0  0  0
  -21.8210   -6.2360   22.5450 C   0  0  0  0  0  0  0  0  0  0  0  0
  -21.3030   -6.8280   23.7170 C   0  0  0  0  0  3  0  0  0  0  0  0
  -21.1290   -6.0510   24.8800 C   0  0  0  0  0  3  0  0  0  0  0  0
  -21.4630   -4.6850   24.8720 C   0  0  0  0  0  0  0  0  0  0  0  0
  -21.9750   -4.0920   23.7040 C   0  0  0  0  0  3  0  0  0  0  0  0
  -22.1500   -4.8660   22.5420 C   0  0  0  0  0  0  0  0  0  0  0  0
  -22.6240   -4.2850   21.4150 F   0  0  0  0  0  0  0  0  0  0  0  0
  -21.2880   -3.9360   25.9860 F   0  0  0  0  0  0  0  0  0  0  0  0
  -23.0640  -13.5810   21.2280 C   0  0  0  0  0  0  0  0  0  0  0  0
  -22.3760  -12.8630   22.1070 N   0  0  0  0  0  0  0  0  0  0  0  0
  -22.6080  -14.6260   20.7630 O   0  0  0  0  0  0  0  0  0  0  0  0
  -22.7590  -12.0150   22.4990 H   0  0  0  0  0  0  0  0  0  0  0  0
  -21.4540  -13.1620   22.3900 H   0  0  0  0  0  0  0  0  0  0  0  0
  -25.6660  -15.2620   20.3480 N   0  0  0  0  0  0  0  0  0  0  0  0
  -24.9200  -15.9250   20.5350 H   0  0  0  0  0  0  0  0  0  0  0  0
  -26.5170  -15.7030   20.0230 H   0  0  0  0  0  0  0  0  0  0  0  0
  1  2  1  0
  2 11  1  0
  2  4  2  0
  3  1  2  0
  3  5  1  0
  4  6  1  0
  5  7  2  0
  7  4  1  0
  8 10  1  0
  9 10  1  0
 10  3  1  0
 12 11  1  0
 13 24  2  0
 14 12  1  0
 14 19  1  0
 15 23  1  0
 15 25  1  0
 16 22  1  0
 16 18  1  0
 17 23  1  0
 18 19  2  0
 18 17  1  0
 20 14  2  0
 21 20  1  0
 21 16  2  0
 22 15  1  0
 23 13  1  0
 25 27  2  0
 26 25  1  0
 28 26  1  0
 29 38  2  0
 29 34  1  0
 30 26  1  0
 30 34  1  0
 31 30  1  0
 32 33  1  0
 32 31  1  0
 33 29  1  0
 34 35  2  0
 35 36  1  0
 37 36  2  0
 38 37  1  0
 39 13  1  0
 39 44  1  0
 39 40  1  0
 40 43  1  1
 40 41  1  0
 42 40  1  0
 44 47  1  0
 45 49  1  0
 45 44  1  0
 46 45  2  0
 49 48  1  0
 51 49  1  0
 51 52  1  0
 51 50  1  0
 53  5  1  0
 54 66  1  0
 55 60  1  0
 56 57  1  0
 56 55  1  0
 58 57  1  0
 58 70  1  0
 58 59  1  0
 60 54  1  0
 60 59  1  0
 61 54  2  0
 62 63  1  0
 64 65  1  0
 64 66  1  0
 65 53  1  0
 65 62  1  0
 66 63  1  0
 67 68  2  0
 68 87  1  0
 69 68  1  0
 69 72  1  0
 70 71  1  0
 70 67  1  0
 71 69  2  0
 72 73  1  0
 73 74  2  0
 75 78  1  0
 75 74  1  0
 76 75  2  0
 77 76  1  0
 77 72  2  0
 78 79  1  0
 79 80  1  0
 80 81  2  0
 82 81  1  0
 82 86  1  0
 83 82  2  0
 84 79  2  0
 84 83  1  0
 85 84  1  0
 87 88  1  0
 88 91  1  0
 88 90  1  0
 89 87  2  0
 92 67  1  0
 92 93  1  0
 94 92  1  0
M  ISO  4  11 101  12 101  54 100  66 100
M  END
>  <TORSDO>  (66) 
F 19

>  <SCORE>  (66) 
-12.992

>  <name>  (66) 
65

>  <ligand_id>  (66) 
65

>  <original_smiles>  (66) 
[H]c1c([H])c([H])c2c(c1[H])C([H])([H])C([H])([H])C([H])([H])C2([H])N([H])C(=O)C1([H])N(C(=O)C([H])(N([H])C(=O)C([H])(N([H])C([H])([H])[H])C([H])([H])[H])C(C([H])([H])[H])(C([H])([H])[H])C([H])([H])[H])C([H])([H])c2c([H])c(OC([H])([H])c3c(C([H])([H])[H])nc(OC4([H])C([H])([H])N(C(=O)N5C([H])([H])C([H])([H])C([H])([H])C([H])(n6nc(-c7c([H])c([H])c(Oc8c([H])c([H])c(F)c([H])c8F)c([H])c7[H])c(C(=O)N([H])[H])c6N([H])[H])C5([H])[H])C([H])([H])C4([H])[H])c(C([H])(C([H])([H])[H])C([H])([H])[H])c3[H])c([H])c([H])c2C1([H])[H]

>  <smiles>  (66) 
[H]c1c([H])c([H])c2c(c1[H])C([H])([H])C([H])([H])C([H])([H])C2([H])N([H])C(=O)C1([H])N(C(=O)C([H])(N([H])C(=O)C([H])(N([H])C([H])([H])[H])C([H])([H])[H])C(C([H])([H])[H])(C([H])([H])[H])C([H])([H])[H])C([H])([H])c2c([H])c(OC([H])([H])c3c(C([H])([H])[H])nc(OC4([H])C([H])([H])N(C(=O)N5C([H])([H])C([H])([H])C([H])([H])C([H])(n6nc(-c7c([H])c([H])c(Oc8c([H])c([H])c(F)c([H])c8F)c([H])c7[H])c(C(=O)N([H])[H])c6N([H])[H])C5([H])[H])C([H])([H])C4([H])[H])c(C([H])(C([H])([H])[H])C([H])([H])[H])c3[H])c([H])c([H])c2C1([H])[H]

$$$$
66:0:0
     RDKit          3D

 94103  0  0  1  0  0  0  0  0999 V2000
  -29.6860  -21.3520   20.1140 C   0  0  0  0  0  3  0  0  0  0  0  0
  -30.3900  -21.7250   22.7650 C   0  0  0  0  0  3  0  0  0  0  0  0
  -30.0410  -20.1790   20.8760 C   0  0  0  0  0  0  0  0  0  0  0  0
  -29.6010  -22.6920   20.6580 C   0  0  0  0  0  0  0  0  0  0  0  0
  -29.9650  -22.8500   22.0170 C   0  0  0  0  0  0  0  0  0  0  0  0
  -30.3780  -20.3990   22.2420 C   0  0  0  0  0  0  0  0  0  0  0  0
  -29.8660  -24.2070   22.7100 C   0  0  0  0  0  1  0  0  0  0  0  0
  -30.9830  -14.9380   20.1900 C   0  0  0  0  0  0  0  0  0  0  0  0
  -30.7740  -12.6500   19.1630 C   0  0  0  0  0  2  0  0  0  0  0  0
  -29.7730  -12.5940   17.9840 C   0  0  0  0  0  2  0  0  0  0  0  0
  -28.3300  -12.4080   18.4890 C   0  0  0  0  0  2  0  0  0  0  0  0
  -27.9940  -13.3630   19.6520 C   0  0  0  0  0  3  0  0  0  0  0  0
  -29.0830  -13.3120   20.7510 C   0  0  0  0  0  2  0  0  0  0  0  0
  -30.3330  -13.7180   20.1010 N   0  0  0  0  0  0  0  0  0  0  0  0
  -32.1850  -14.9560   19.8960 O   0  0  0  0  0  0  0  0  0  0  0  0
  -28.6210  -18.0200   20.3540 C   0  0  0  0  0  2  0  0  0  0  0  0
  -28.8970  -16.4990   20.1820 C   0  0  0  0  0  2  0  0  0  0  0  0
  -30.9140  -17.5090   20.7610 C   0  0  0  0  0  2  0  0  0  0  0  0
  -29.9790  -18.7040   20.2580 C   0  0  0  0  0  3  0  0  0  0  0  0
  -30.3040  -16.1510   20.4730 N   0  0  0  0  0  0  0  0  0  0  0  0
  -25.6430  -14.0910   20.3740 C   0  0  0  0  0  0  0  0  0  0  0  0
  -24.5520  -13.3710   20.7840 C   0  0  0  0  0  0  0  0  0  0  0  0
  -24.9600  -12.0060   20.7570 C   0  0  0  0  0  0  0  0  0  0  0  0
  -26.6470  -13.1590   20.1610 N   0  0  0  0  0  0  0  0  0  0  0  0
  -26.2430  -11.9020   20.4440 N   0  0  0  0  0  0  0  0  0  0  0  0
  -24.1850  -10.7760   20.9450 C   0  0  0  0  0  0  0  0  0  0  0  0
  -24.5910   -9.7910   21.8690 C   0  0  0  0  0  3  0  0  0  0  0  0
  -23.8170   -8.6250   22.0510 C   0  0  0  0  0  3  0  0  0  0  0  0
  -22.6270   -8.4400   21.3060 C   0  0  0  0  0  0  0  0  0  0  0  0
  -22.2480   -9.4110   20.3630 C   0  0  0  0  0  3  0  0  0  0  0  0
  -23.0220  -10.5690   20.1810 C   0  0  0  0  0  3  0  0  0  0  0  0
  -21.8270   -7.3280   21.4030 O   0  0  0  0  0  0  0  0  0  0  0  0
  -21.7500   -6.6000   22.5620 C   0  0  0  0  0  0  0  0  0  0  0  0
  -21.3560   -7.1840   23.7870 C   0  0  0  0  0  3  0  0  0  0  0  0
  -21.2230   -6.3810   24.9370 C   0  0  0  0  0  3  0  0  0  0  0  0
  -21.4770   -4.9990   24.8660 C   0  0  0  0  0  0  0  0  0  0  0  0
  -21.8640   -4.4160   23.6460 C   0  0  0  0  0  3  0  0  0  0  0  0
  -21.9990   -5.2140   22.4980 C   0  0  0  0  0  0  0  0  0  0  0  0
  -22.3520   -4.6460   21.3200 F   0  0  0  0  0  0  0  0  0  0  0  0
  -21.3400   -4.2260   25.9670 F   0  0  0  0  0  0  0  0  0  0  0  0
  -23.1870  -13.9170   21.0720 C   0  0  0  0  0  0  0  0  0  0  0  0
  -22.4580  -13.2560   21.9680 N   0  0  0  0  0  0  0  0  0  0  0  0
  -22.7790  -14.9510   20.5510 O   0  0  0  0  0  0  0  0  0  0  0  0
  -22.8040  -12.4130   22.3970 H   0  0  0  0  0  0  0  0  0  0  0  0
  -21.5460  -13.6010   22.2250 H   0  0  0  0  0  0  0  0  0  0  0  0
  -25.8380  -15.4400   20.1270 N   0  0  0  0  0  0  0  0  0  0  0  0
  -25.0900  -16.1230   20.1630 H   0  0  0  0  0  0  0  0  0  0  0  0
  -26.6400  -15.7620   19.6010 H   0  0  0  0  0  0  0  0  0  0  0  0
  -30.3940  -24.6160   19.1170 C   0  0  0  0  0  1  0  0  0  0  0  0
  -29.1840  -23.9300   19.7650 C   0  0  0  0  0  3  0  0  0  0  0  0
  -28.0960  -24.9930   20.2530 C   0  0  0  0  0  2  0  0  0  0  0  0
  -28.3660  -26.4550   20.3560 O   0  0  0  0  0  0  0  0  0  0  0  0
  -24.6160  -31.9210   23.2910 C   0  0  0  0  0  0  0  0  0  0  0  0
  -27.2520  -27.3200   20.2970 C   0  0  0  0  0  0  0  0  0  0  0  0
  -23.4310  -30.4970   21.6680 C   0  0  0  0  0  3  0  0  0  0  0  0
  -24.8900  -28.9410   20.2740 C   0  0  0  0  0  0  0  0  0  0  0  0
  -25.9740  -30.8160   21.5000 C   0  0  0  0  0  2  0  0  0  0  0  0
  -26.0630  -29.4350   20.8600 C   0  0  0  0  0  0  0  0  0  0  0  0
  -27.2510  -28.6380   20.8570 C   0  0  0  0  0  3  0  0  0  0  0  0
  -26.0420  -26.8880   19.7010 C   0  0  0  0  0  3  0  0  0  0  0  0
  -24.8800  -27.6700   19.6940 C   0  0  0  0  0  3  0  0  0  0  0  0
  -23.6570  -29.8150   20.3000 C   0  0  0  0  0  2  0  0  0  0  0  0
  -24.6910  -31.1010   22.2060 N   0  0  0  0  0  0  0  0  0  0  0  0
  -23.5260  -32.1970   23.8170 O   0  0  0  0  0  0  0  0  0  0  0  0
  -22.7690  -29.4810   22.6290 C   0  0  0  0  0  0  0  0  0  0  0  0
  -21.4560  -29.2530   22.4600 N   0  0  0  0  0  0  0  0  0  0  0  0
  -23.4360  -28.8940   23.4860 O   0  0  0  0  0  0  0  0  0  0  0  0
  -20.9710  -29.7870   21.7530 H   0  0  0  0  0  0  0  0  0  0  0  0
  -18.1180  -27.8920   22.8070 C   0  0  0  0  0  0  0  0  0  0  0  0
  -20.6370  -28.3050   23.2180 C   0  0  0  0  0  3  0  0  0  0  0  0
  -20.8510  -26.8540   22.7320 C   0  0  0  0  0  2  0  0  0  0  0  0
  -19.8400  -26.4190   21.6640 C   0  0  0  0  0  2  0  0  0  0  0  0
  -18.4130  -26.5220   22.2140 C   0  0  0  0  0  2  0  0  0  0  0  0
  -19.1680  -28.7370   23.2610 C   0  0  0  0  0  0  0  0  0  0  0  0
  -18.8540  -30.0160   23.7680 C   0  0  0  0  0  3  0  0  0  0  0  0
  -17.5200  -30.4600   23.8210 C   0  0  0  0  0  3  0  0  0  0  0  0
  -16.4820  -29.6150   23.3890 C   0  0  0  0  0  3  0  0  0  0  0  0
  -16.7800  -28.3320   22.8930 C   0  0  0  0  0  3  0  0  0  0  0  0
  -25.8910  -32.5690   23.9130 C   0  0  0  0  0  3  0  0  0  0  0  0
  -26.3980  -31.8240   25.2090 C   0  0  1  0  0  0  0  0  0  0  0  0
  -25.2930  -31.6030   26.2710 C   0  0  0  0  0  1  0  0  0  0  0  0
  -27.0000  -30.4460   24.8480 C   0  0  0  0  0  1  0  0  0  0  0  0
  -27.5350  -32.6400   25.8710 C   0  0  0  0  0  1  0  0  0  0  0  0
  -25.5720  -33.9710   24.2170 N   0  0  0  0  0  0  0  0  0  0  0  0
  -25.9210  -35.0130   23.4520 C   0  0  0  0  0  0  0  0  0  0  0  0
  -26.6110  -34.8940   22.4340 O   0  0  0  0  0  0  0  0  0  0  0  0
  -24.9660  -34.1340   25.0080 H   0  0  0  0  0  0  0  0  0  0  0  0
  -24.1960  -36.7980   23.0400 C   0  0  0  0  0  1  0  0  0  0  0  0
  -25.4230  -36.4070   23.8790 C   0  0  0  0  0  3  0  0  0  0  0  0
  -27.5450  -37.3070   24.7330 C   0  0  0  0  0  1  0  0  0  0  0  0
  -26.4560  -37.4610   23.7720 N   0  0  0  0  0  0  0  0  0  0  0  0
  -26.0440  -38.3830   23.9030 H   0  0  0  0  0  0  0  0  0  0  0  0
  -31.3050  -19.4010   24.2720 C   0  0  0  0  0  1  0  0  0  0  0  0
  -30.6190  -19.2840   23.0250 O   0  0  0  0  0  0  0  0  0  0  0  0
  1  4  2  0
  1  3  1  0
  3  6  2  0
  4  5  1  0
  5  7  1  0
  5  2  2  0
  6  2  1  0
  6 94  1  0
  8 20  1  0
  9 14  1  0
 10 11  1  0
 10  9  1  0
 12 11  1  0
 12 24  1  0
 12 13  1  0
 14  8  1  0
 14 13  1  0
 15  8  2  0
 17 16  1  0
 17 20  1  0
 19 16  1  0
 19 18  1  0
 19  3  1  0
 20 18  1  0
 21 22  2  0
 22 41  1  0
 23 22  1  0
 23 26  1  0
 24 21  1  0
 24 25  1  0
 25 23  2  0
 26 27  1  0
 27 28  2  0
 29 32  1  0
 29 28  1  0
 30 29  2  0
 31 30  1  0
 31 26  2  0
 32 33  1  0
 33 34  1  0
 34 35  2  0
 36 35  1  0
 36 40  1  0
 37 36  2  0
 38 33  2  0
 38 37  1  0
 39 38  1  0
 41 42  1  0
 42 45  1  0
 42 44  1  0
 43 41  2  0
 46 47  1  0
 46 21  1  0
 48 46  1  0
 50 49  1  0
 50 51  1  0
 50  4  1  0
 51 52  1  0
 53 64  2  0
 54 52  1  0
 54 59  1  0
 55 63  1  0
 55 65  1  0
 56 62  1  0
 56 58  1  0
 57 63  1  0
 58 57  1  0
 59 58  2  0
 60 54  2  0
 61 60  1  0
 61 56  2  0
 62 55  1  0
 63 53  1  0
 65 67  2  0
 66 65  1  0
 68 66  1  0
 69 78  2  0
 69 74  1  0
 70 66  1  0
 70 74  1  0
 71 70  1  0
 72 73  1  0
 72 71  1  0
 73 69  1  0
 74 75  2  0
 75 76  1  0
 77 76  2  0
 78 77  1  0
 79 53  1  0
 79 84  1  0
 79 80  1  0
 80 83  1  1
 80 81  1  0
 82 80  1  0
 84 87  1  0
 85 89  1  0
 85 84  1  0
 86 85  2  0
 89 88  1  0
 91 89  1  0
 91 92  1  0
 91 90  1  0
 94 93  1  0
M  ISO  4   8 100  20 100  51 101  52 101
M  END
>  <TORSDO>  (67) 
F 19

>  <SCORE>  (67) 
-13.507

>  <name>  (67) 
66

>  <ligand_id>  (67) 
66

>  <original_smiles>  (67) 
[H]c1c([H])c([H])c2c(c1[H])C([H])([H])C([H])([H])C([H])([H])C2([H])N([H])C(=O)C1([H])N(C(=O)C([H])(N([H])C(=O)C([H])(N([H])C([H])([H])[H])C([H])([H])[H])C(C([H])([H])[H])(C([H])([H])[H])C([H])([H])[H])C([H])([H])c2c([H])c(OC([H])([H])C([H])(c3c([H])c(C4([H])C([H])([H])N(C(=O)N5C([H])([H])C([H])([H])C([H])([H])C([H])(n6nc(-c7c([H])c([H])c(Oc8c([H])c([H])c(F)c([H])c8F)c([H])c7[H])c(C(=O)N([H])[H])c6N([H])[H])C5([H])[H])C([H])([H])C4([H])[H])c(OC([H])([H])[H])c([H])c3C([H])([H])[H])C([H])([H])[H])c([H])c([H])c2C1([H])[H]

>  <smiles>  (67) 
[H]c1c([H])c([H])c2c(c1[H])C([H])([H])C([H])([H])C([H])([H])C2([H])N([H])C(=O)C1([H])N(C(=O)C([H])(N([H])C(=O)C([H])(N([H])C([H])([H])[H])C([H])([H])[H])C(C([H])([H])[H])(C([H])([H])[H])C([H])([H])[H])C([H])([H])c2c([H])c(OC([H])([H])C([H])(c3c([H])c(C4([H])C([H])([H])N(C(=O)N5C([H])([H])C([H])([H])C([H])([H])C([H])(n6nc(-c7c([H])c([H])c(Oc8c([H])c([H])c(F)c([H])c8F)c([H])c7[H])c(C(=O)N([H])[H])c6N([H])[H])C5([H])[H])C([H])([H])C4([H])[H])c(OC([H])([H])[H])c([H])c3C([H])([H])[H])C([H])([H])[H])c([H])c([H])c2C1([H])[H]

$$$$
67:0:0
     RDKit          3D

 98107  0  0  1  0  0  0  0  0999 V2000
  -31.1820  -18.1450   19.8400 C   0  0  0  0  0  0  0  0  0  0  0  0
  -30.6960  -18.7460   18.6710 C   0  0  0  0  0  0  0  0  0  0  0  0
  -31.0100  -18.7860   21.0890 C   0  0  0  0  0  0  0  0  0  0  0  0
  -30.0160  -19.9970   18.6610 C   0  0  0  0  0  0  0  0  0  0  0  0
  -30.3120  -20.0270   21.1260 C   0  0  0  0  0  3  0  0  0  0  0  0
  -29.8540  -20.6520   19.9220 C   0  0  0  0  0  0  0  0  0  0  0  0
  -31.8290  -16.8370   19.5330 C   0  0  0  0  0  0  0  0  0  0  0  0
  -31.0050  -17.8880   17.4660 C   0  0  0  0  0  3  0  0  0  0  0  0
  -31.7800  -16.6790   18.0160 C   0  0  0  0  0  3  0  0  0  0  0  0
  -31.5750  -18.1560   22.3640 C   0  0  0  0  0  1  0  0  0  0  0  0
  -30.0460  -20.6730   22.4860 C   0  0  0  0  0  1  0  0  0  0  0  0
  -29.2100  -22.0320   20.0380 C   0  0  0  0  0  1  0  0  0  0  0  0
  -32.3140  -16.0090   20.3910 N   0  0  0  0  0  2  0  0  0  0  0  0
  -32.8700  -14.8050   19.9710 C   0  0  0  0  0  0  0  0  0  0  0  0
  -32.3090  -12.4540   19.4260 C   0  0  0  0  0  2  0  0  0  0  0  0
  -31.4250  -12.4200   18.1630 C   0  0  0  0  0  2  0  0  0  0  0  0
  -29.9380  -12.5840   18.5350 C   0  0  0  0  0  2  0  0  0  0  0  0
  -29.6930  -13.7910   19.4790 C   0  0  0  0  0  3  0  0  0  0  0  0
  -30.6820  -13.7620   20.6650 C   0  0  0  0  0  2  0  0  0  0  0  0
  -32.0480  -13.7280   20.1110 N   0  0  0  0  0  0  0  0  0  0  0  0
  -33.9730  -14.7080   19.4260 O   0  0  0  0  0  0  0  0  0  0  0  0
  -27.5000  -14.9500   20.1630 C   0  0  0  0  0  0  0  0  0  0  0  0
  -26.2720  -14.4540   20.5090 C   0  0  0  0  0  0  0  0  0  0  0  0
  -26.3970  -13.0320   20.4690 C   0  0  0  0  0  0  0  0  0  0  0  0
  -28.3060  -13.8460   19.9360 N   0  0  0  0  0  0  0  0  0  0  0  0
  -27.6430  -12.6850   20.1750 N   0  0  0  0  0  0  0  0  0  0  0  0
  -25.3890  -11.9790   20.6420 C   0  0  0  0  0  0  0  0  0  0  0  0
  -25.6770  -10.7860   21.3430 C   0  0  0  0  0  3  0  0  0  0  0  0
  -24.6860   -9.7950   21.5070 C   0  0  0  0  0  3  0  0  0  0  0  0
  -23.3900   -9.9920   20.9720 C   0  0  0  0  0  0  0  0  0  0  0  0
  -23.1150  -11.1690   20.2540 C   0  0  0  0  0  3  0  0  0  0  0  0
  -24.1040  -12.1530   20.0880 C   0  0  0  0  0  3  0  0  0  0  0  0
  -22.3740   -9.0690   21.0580 O   0  0  0  0  0  0  0  0  0  0  0  0
  -22.4420   -8.0010   21.9140 C   0  0  0  0  0  0  0  0  0  0  0  0
  -22.6340   -8.1680   23.3030 C   0  0  0  0  0  3  0  0  0  0  0  0
  -22.6290   -7.0470   24.1550 C   0  0  0  0  0  3  0  0  0  0  0  0
  -22.4230   -5.7580   23.6240 C   0  0  0  0  0  0  0  0  0  0  0  0
  -22.2290   -5.5900   22.2430 C   0  0  0  0  0  3  0  0  0  0  0  0
  -22.2340   -6.7080   21.3910 C   0  0  0  0  0  0  0  0  0  0  0  0
  -22.0230   -6.5420   20.0630 F   0  0  0  0  0  0  0  0  0  0  0  0
  -22.4110   -4.6820   24.4440 F   0  0  0  0  0  0  0  0  0  0  0  0
  -25.0260  -15.2500   20.7730 C   0  0  0  0  0  0  0  0  0  0  0  0
  -24.1430  -14.7420   21.6260 N   0  0  0  0  0  0  0  0  0  0  0  0
  -24.8520  -16.3520   20.2580 O   0  0  0  0  0  0  0  0  0  0  0  0
  -24.2940  -13.8440   22.0630 H   0  0  0  0  0  0  0  0  0  0  0  0
  -23.3050  -15.2590   21.8470 H   0  0  0  0  0  0  0  0  0  0  0  0
  -27.9910  -16.2430   20.0050 N   0  0  0  0  0  0  0  0  0  0  0  0
  -27.4110  -17.0650   20.1320 H   0  0  0  0  0  0  0  0  0  0  0  0
  -28.9480  -16.4620   19.7620 H   0  0  0  0  0  0  0  0  0  0  0  0
  -27.8900  -20.4500   17.1980 C   0  0  0  0  0  1  0  0  0  0  0  0
  -29.4280  -20.5210   17.3160 C   0  0  0  0  0  3  0  0  0  0  0  0
  -30.0800  -21.7910   16.6890 C   0  0  0  0  0  2  0  0  0  0  0  0
  -30.4120  -22.8910   17.6240 N   0  0  0  0  0  4  0  0  0  0  0  0
  -30.6550  -22.4660   18.5040 H   0  0  0  0  0  0  0  0  0  0  0  0
  -31.2510  -23.3430   17.2880 H   0  0  0  0  0  0  0  0  0  0  0  0
  -29.3760  -23.9470   17.8400 C   0  0  0  0  0  2  0  0  0  0  0  0
  -29.4770  -25.1420   16.8550 C   0  0  0  0  0  2  0  0  0  0  0  0
  -29.4320  -26.4260   17.4910 O   0  0  0  0  0  0  0  0  0  0  0  0
  -25.9690  -28.7610   23.2150 C   0  0  0  0  0  0  0  0  0  0  0  0
  -28.2420  -26.9500   17.9500 C   0  0  0  0  0  0  0  0  0  0  0  0
  -24.5860  -28.4780   21.1820 C   0  0  0  0  0  3  0  0  0  0  0  0
  -25.8720  -28.0780   19.0140 C   0  0  0  0  0  0  0  0  0  0  0  0
  -27.0810  -29.0060   20.9980 C   0  0  0  0  0  2  0  0  0  0  0  0
  -27.0860  -28.2350   19.6930 C   0  0  0  0  0  0  0  0  0  0  0  0
  -28.2690  -27.6810   19.1620 C   0  0  0  0  0  3  0  0  0  0  0  0
  -27.0070  -26.8040   17.2750 C   0  0  0  0  0  3  0  0  0  0  0  0
  -25.8280  -27.3640   17.8040 C   0  0  0  0  0  3  0  0  0  0  0  0
  -24.6490  -28.7050   19.6460 C   0  0  0  0  0  2  0  0  0  0  0  0
  -25.9030  -28.7290   21.8540 N   0  0  0  0  0  0  0  0  0  0  0  0
  -24.9500  -28.6280   23.9080 O   0  0  0  0  0  0  0  0  0  0  0  0
  -24.0240  -27.0640   21.4490 C   0  0  0  0  0  0  0  0  0  0  0  0
  -22.7230  -26.8770   21.1740 N   0  0  0  0  0  0  0  0  0  0  0  0
  -24.7540  -26.1620   21.8650 O   0  0  0  0  0  0  0  0  0  0  0  0
  -22.1890  -27.6730   20.8510 H   0  0  0  0  0  0  0  0  0  0  0  0
  -19.5360  -25.2940   20.5570 C   0  0  0  0  0  0  0  0  0  0  0  0
  -21.9900  -25.6200   21.3020 C   0  0  0  0  0  3  0  0  0  0  0  0
  -22.3600  -24.6400   20.1640 C   0  0  0  0  0  2  0  0  0  0  0  0
  -21.4180  -24.7200   18.9600 C   0  0  0  0  0  2  0  0  0  0  0  0
  -19.9750  -24.4320   19.3840 C   0  0  0  0  0  2  0  0  0  0  0  0
  -20.4830  -25.8620   21.4490 C   0  0  0  0  0  0  0  0  0  0  0  0
  -20.0260  -26.6790   22.5050 C   0  0  0  0  0  3  0  0  0  0  0  0
  -18.6520  -26.9310   22.6780 C   0  0  0  0  0  3  0  0  0  0  0  0
  -17.7170  -26.3550   21.8020 C   0  0  0  0  0  3  0  0  0  0  0  0
  -18.1590  -25.5370   20.7470 C   0  0  0  0  0  3  0  0  0  0  0  0
  -27.3180  -28.9880   23.9670 C   0  0  0  0  0  3  0  0  0  0  0  0
  -27.0750  -29.9880   25.0150 N   0  0  0  0  0  0  0  0  0  0  0  0
  -27.4740  -31.2660   24.9530 C   0  0  0  0  0  0  0  0  0  0  0  0
  -28.1560  -31.7120   24.0260 O   0  0  0  0  0  0  0  0  0  0  0  0
  -26.4760  -29.7070   25.7770 H   0  0  0  0  0  0  0  0  0  0  0  0
  -25.8630  -33.0680   25.6490 C   0  0  0  0  0  1  0  0  0  0  0  0
  -27.0470  -32.1990   26.1030 C   0  0  0  0  0  3  0  0  0  0  0  0
  -29.1900  -32.3280   27.2930 C   0  0  0  0  0  1  0  0  0  0  0  0
  -28.1410  -33.0660   26.5940 N   0  0  0  0  0  0  0  0  0  0  0  0
  -27.7810  -33.7790   27.2230 H   0  0  0  0  0  0  0  0  0  0  0  0
  -27.9160  -27.6650   24.5860 C   0  0  1  0  0  0  0  0  0  0  0  0
  -26.9160  -26.8830   25.4670 C   0  0  0  0  0  1  0  0  0  0  0  0
  -28.4070  -26.7160   23.4700 C   0  0  0  0  0  1  0  0  0  0  0  0
  -29.1510  -28.0060   25.4530 C   0  0  0  0  0  1  0  0  0  0  0  0
  1  3  2  0
  2  1  1  0
  3  5  1  0
  3 10  1  0
  4  2  1  0
  4  6  2  0
  5 11  1  0
  6 12  1  0
  6  5  1  0
  7  1  1  0
  7 13  1  0
  8  9  1  0
  8  2  2  0
  9  7  2  0
 14 20  1  0
 14 13  1  0
 15 20  1  0
 16 17  1  0
 16 15  1  0
 18 17  1  0
 18 25  1  0
 18 19  1  0
 20 19  1  0
 21 14  2  0
 22 23  2  0
 23 42  1  0
 24 23  1  0
 24 27  1  0
 25 22  1  0
 25 26  1  0
 26 24  2  0
 27 28  1  0
 28 29  2  0
 30 33  1  0
 30 29  1  0
 31 30  2  0
 32 31  1  0
 32 27  2  0
 33 34  1  0
 34 35  1  0
 35 36  2  0
 37 36  1  0
 37 41  1  0
 38 37  2  0
 39 34  2  0
 39 38  1  0
 40 39  1  0
 42 43  1  0
 43 46  1  0
 43 45  1  0
 44 42  2  0
 47 48  1  0
 47 22  1  0
 49 47  1  0
 51 50  1  0
 51  4  1  0
 52 51  1  0
 52 53  1  0
 53 56  1  0
 53 54  1  0
 55 53  1  0
 57 58  1  0
 57 56  1  0
 58 60  1  0
 59 70  2  0
 60 65  1  0
 61 71  1  0
 61 69  1  0
 62 68  1  0
 62 64  1  0
 63 69  1  0
 64 63  1  0
 65 64  2  0
 66 67  1  0
 66 60  2  0
 67 62  2  0
 68 61  1  0
 69 59  1  0
 71 73  2  0
 72 71  1  0
 74 72  1  0
 75 84  2  0
 75 80  1  0
 76 72  1  0
 76 80  1  0
 77 76  1  0
 78 79  1  0
 78 77  1  0
 79 75  1  0
 80 81  2  0
 81 82  1  0
 83 82  2  0
 84 83  1  0
 85 59  1  0
 85 95  1  0
 85 86  1  0
 86 89  1  0
 87 86  1  0
 87 91  1  0
 88 87  2  0
 91 90  1  0
 91 93  1  0
 93 94  1  0
 93 92  1  0
 95 98  1  1
 95 96  1  0
 97 95  1  0
M  ISO  4  13 100  14 100  57 101  58 101
M  END
>  <TORSDO>  (68) 
F 21

>  <SCORE>  (68) 
-8.020

>  <name>  (68) 
67

>  <ligand_id>  (68) 
67

>  <original_smiles>  (68) 
[H]c1c([H])c([H])c2c(c1[H])C([H])([H])C([H])([H])C([H])([H])C2([H])N([H])C(=O)C1([H])N(C(=O)C([H])(N([H])C(=O)C([H])(N([H])C([H])([H])[H])C([H])([H])[H])C(C([H])([H])[H])(C([H])([H])[H])C([H])([H])[H])C([H])([H])c2c([H])c(OC([H])([H])C([H])([H])[N+]([H])([H])C([H])([H])C([H])(c3c(C([H])([H])[H])c(C([H])([H])[H])c(C([H])([H])[H])c4c3C([H])([H])C([H])([H])C4=NC(=O)N3C([H])([H])C([H])([H])C([H])([H])C([H])(n4nc(-c5c([H])c([H])c(Oc6c([H])c([H])c(F)c([H])c6F)c([H])c5[H])c(C(=O)N([H])[H])c4N([H])[H])C3([H])[H])C([H])([H])[H])c([H])c([H])c2C1([H])[H]

>  <smiles>  (68) 
[H]c1c([H])c([H])c2c(c1[H])C([H])([H])C([H])([H])C([H])([H])C2([H])N([H])C(=O)C1([H])N(C(=O)C([H])(N([H])C(=O)C([H])(N([H])C([H])([H])[H])C([H])([H])[H])C(C([H])([H])[H])(C([H])([H])[H])C([H])([H])[H])C([H])([H])c2c([H])c(OC([H])([H])C([H])([H])[N+]([H])([H])C([H])([H])C([H])(c3c(C([H])([H])[H])c(C([H])([H])[H])c(C([H])([H])[H])c4c3C([H])([H])C([H])([H])C4=NC(=O)N3C([H])([H])C([H])([H])C([H])([H])C([H])(n4nc(-c5c([H])c([H])c(Oc6c([H])c([H])c(F)c([H])c6F)c([H])c5[H])c(C(=O)N([H])[H])c4N([H])[H])C3([H])[H])C([H])([H])[H])c([H])c([H])c2C1([H])[H]

$$$$
68:0:0
     RDKit          3D

 92101  0  0  1  0  0  0  0  0999 V2000
  -28.0710  -20.3540   19.6680 C   0  0  0  0  0  3  0  0  0  0  0  0
  -30.3320  -19.7960   21.0830 C   0  0  0  0  0  3  0  0  0  0  0  0
  -28.5390  -19.0180   19.7040 C   0  0  0  0  0  0  0  0  0  0  0  0
  -29.7010  -18.6880   20.4390 C   0  0  0  0  0  0  0  0  0  0  0  0
  -28.7830  -21.3870   20.3120 C   0  0  0  0  0  0  0  0  0  0  0  0
  -27.9000  -17.9500   18.8430 C   0  0  0  0  0  2  0  0  0  0  0  0
  -28.9460  -17.1140   18.0660 C   0  0  0  0  0  2  0  0  0  0  0  0
  -30.3790  -17.1190   18.6600 C   0  0  0  0  0  2  0  0  0  0  0  0
  -30.4080  -17.2930   20.1970 C   0  0  0  0  0  3  0  0  0  0  0  0
  -29.9030  -21.1040   21.0230 N   0  0  0  0  0  0  0  0  0  0  0  0
  -30.6930  -14.8250   20.8140 C   0  0  0  0  0  0  0  0  0  0  0  0
  -30.5140  -12.5540   19.8450 C   0  0  0  0  0  2  0  0  0  0  0  0
  -29.6730  -12.6400   18.5530 C   0  0  0  0  0  2  0  0  0  0  0  0
  -28.1770  -12.4770   18.8790 C   0  0  0  0  0  2  0  0  0  0  0  0
  -27.7180  -13.3830   20.0550 C   0  0  0  0  0  3  0  0  0  0  0  0
  -28.6950  -13.3120   21.2510 C   0  0  0  0  0  2  0  0  0  0  0  0
  -30.0380  -13.6230   20.7460 N   0  0  0  0  0  0  0  0  0  0  0  0
  -31.9060  -14.8840   20.6010 O   0  0  0  0  0  0  0  0  0  0  0  0
  -29.9440  -15.9840   20.8090 N   0  0  0  0  0  0  0  0  0  0  0  0
  -28.9540  -15.8770   20.9660 H   0  0  0  0  0  0  0  0  0  0  0  0
  -25.2800  -13.9730   20.6000 C   0  0  0  0  0  0  0  0  0  0  0  0
  -24.1930  -13.1990   20.9010 C   0  0  0  0  0  0  0  0  0  0  0  0
  -24.6650  -11.8500   20.9310 C   0  0  0  0  0  0  0  0  0  0  0  0
  -26.3430  -13.0960   20.4540 N   0  0  0  0  0  0  0  0  0  0  0  0
  -25.9750  -11.8170   20.7180 N   0  0  0  0  0  0  0  0  0  0  0  0
  -23.9340  -10.5870   21.0900 C   0  0  0  0  0  0  0  0  0  0  0  0
  -24.3230   -9.6250   22.0490 C   0  0  0  0  0  3  0  0  0  0  0  0
  -23.5920   -8.4260   22.1940 C   0  0  0  0  0  3  0  0  0  0  0  0
  -22.4590   -8.1820   21.3830 C   0  0  0  0  0  0  0  0  0  0  0  0
  -22.0910   -9.1330   20.4150 C   0  0  0  0  0  3  0  0  0  0  0  0
  -22.8220  -10.3230   20.2670 C   0  0  0  0  0  3  0  0  0  0  0  0
  -21.7030   -7.0360   21.4390 O   0  0  0  0  0  0  0  0  0  0  0  0
  -21.6170   -6.2850   22.5840 C   0  0  0  0  0  0  0  0  0  0  0  0
  -21.1390   -6.8280   23.7960 C   0  0  0  0  0  3  0  0  0  0  0  0
  -21.0010   -6.0040   24.9300 C   0  0  0  0  0  3  0  0  0  0  0  0
  -21.3290   -4.6370   24.8540 C   0  0  0  0  0  0  0  0  0  0  0  0
  -21.8000   -4.0930   23.6460 C   0  0  0  0  0  3  0  0  0  0  0  0
  -21.9410   -4.9140   22.5130 C   0  0  0  0  0  0  0  0  0  0  0  0
  -22.3750   -4.3810   21.3460 F   0  0  0  0  0  0  0  0  0  0  0  0
  -21.1890   -3.8440   25.9420 F   0  0  0  0  0  0  0  0  0  0  0  0
  -22.7770  -13.6710   21.0600 C   0  0  0  0  0  0  0  0  0  0  0  0
  -21.9910  -12.9870   21.8820 N   0  0  0  0  0  0  0  0  0  0  0  0
  -22.3740  -14.6840   20.4890 O   0  0  0  0  0  0  0  0  0  0  0  0
  -22.3300  -12.1690   22.3660 H   0  0  0  0  0  0  0  0  0  0  0  0
  -21.0380  -13.2840   22.0310 H   0  0  0  0  0  0  0  0  0  0  0  0
  -25.4520  -15.3400   20.4150 N   0  0  0  0  0  0  0  0  0  0  0  0
  -24.6850  -16.0000   20.4820 H   0  0  0  0  0  0  0  0  0  0  0  0
  -26.3310  -15.7730   20.1690 H   0  0  0  0  0  0  0  0  0  0  0  0
  -28.2870  -22.6950   20.1780 O   0  0  0  0  0  0  0  0  0  0  0  0
  -28.9880  -23.9450   20.4580 C   0  0  0  0  0  2  0  0  0  0  0  0
  -28.0210  -25.1350   20.0320 C   0  0  0  0  0  2  0  0  0  0  0  0
  -28.2680  -26.5800   20.2630 O   0  0  0  0  0  0  0  0  0  0  0  0
  -24.5180  -31.9900   23.2390 C   0  0  0  0  0  0  0  0  0  0  0  0
  -27.1490  -27.4330   20.1970 C   0  0  0  0  0  0  0  0  0  0  0  0
  -23.3150  -30.5690   21.6190 C   0  0  0  0  0  3  0  0  0  0  0  0
  -24.7670  -29.0270   20.1930 C   0  0  0  0  0  0  0  0  0  0  0  0
  -25.8510  -30.9050   21.4210 C   0  0  0  0  0  2  0  0  0  0  0  0
  -25.9380  -29.5250   20.7820 C   0  0  0  0  0  0  0  0  0  0  0  0
  -27.1290  -28.7380   20.7790 C   0  0  0  0  0  3  0  0  0  0  0  0
  -25.9540  -27.0000   19.5700 C   0  0  0  0  0  3  0  0  0  0  0  0
  -24.7770  -27.7670   19.5810 C   0  0  0  0  0  3  0  0  0  0  0  0
  -23.5250  -29.8880   20.2440 C   0  0  0  0  0  2  0  0  0  0  0  0
  -24.5790  -31.1720   22.1490 N   0  0  0  0  0  0  0  0  0  0  0  0
  -23.4360  -32.2660   23.7760 O   0  0  0  0  0  0  0  0  0  0  0  0
  -22.6660  -29.5540   22.5910 C   0  0  0  0  0  0  0  0  0  0  0  0
  -21.3430  -29.3560   22.4660 N   0  0  0  0  0  0  0  0  0  0  0  0
  -23.3520  -28.9460   23.4180 O   0  0  0  0  0  0  0  0  0  0  0  0
  -20.8490  -29.8990   21.7710 H   0  0  0  0  0  0  0  0  0  0  0  0
  -17.9830  -28.1110   22.9740 C   0  0  0  0  0  0  0  0  0  0  0  0
  -20.5350  -28.4200   23.2500 C   0  0  0  0  0  3  0  0  0  0  0  0
  -20.6650  -26.9800   22.7020 C   0  0  0  0  0  2  0  0  0  0  0  0
  -19.5740  -26.6200   21.6890 C   0  0  0  0  0  2  0  0  0  0  0  0
  -18.1860  -26.7520   22.3250 C   0  0  0  0  0  2  0  0  0  0  0  0
  -19.0860  -28.9000   23.3940 C   0  0  0  0  0  0  0  0  0  0  0  0
  -18.8440  -30.1690   23.9630 C   0  0  0  0  0  3  0  0  0  0  0  0
  -17.5300  -30.6510   24.1160 C   0  0  0  0  0  3  0  0  0  0  0  0
  -16.4410  -29.8600   23.7110 C   0  0  0  0  0  3  0  0  0  0  0  0
  -16.6670  -28.5920   23.1460 C   0  0  0  0  0  3  0  0  0  0  0  0
  -25.8000  -32.6380   23.8460 C   0  0  0  0  0  3  0  0  0  0  0  0
  -26.3310  -31.8820   25.1250 C   0  0  1  0  0  0  0  0  0  0  0  0
  -25.2480  -31.6420   26.2020 C   0  0  0  0  0  1  0  0  0  0  0  0
  -26.9250  -30.5070   24.7410 C   0  0  0  0  0  1  0  0  0  0  0  0
  -27.4810  -32.6910   25.7700 C   0  0  0  0  0  1  0  0  0  0  0  0
  -25.4800  -34.0370   24.1680 N   0  0  0  0  0  0  0  0  0  0  0  0
  -25.8140  -35.0880   23.4070 C   0  0  0  0  0  0  0  0  0  0  0  0
  -26.4920  -34.9830   22.3820 O   0  0  0  0  0  0  0  0  0  0  0  0
  -24.8790  -34.1910   24.9630 H   0  0  0  0  0  0  0  0  0  0  0  0
  -24.0920  -36.8810   23.0170 C   0  0  0  0  0  1  0  0  0  0  0  0
  -25.3160  -36.4760   23.8550 C   0  0  0  0  0  3  0  0  0  0  0  0
  -27.4350  -37.3550   24.7280 C   0  0  0  0  0  1  0  0  0  0  0  0
  -26.3490  -37.5310   23.7680 N   0  0  0  0  0  0  0  0  0  0  0  0
  -25.9400  -38.4490   23.9190 H   0  0  0  0  0  0  0  0  0  0  0  0
  1  3  2  0
  1  5  1  0
  3  4  1  0
  4  2  2  0
  5 10  2  0
  6  3  1  0
  7  8  1  0
  7  6  1  0
  8  9  1  0
  9  4  1  0
  9 19  1  0
 10  2  1  0
 12 17  1  0
 13 14  1  0
 13 12  1  0
 15 14  1  0
 15 24  1  0
 15 16  1  0
 17 11  1  0
 17 16  1  0
 18 11  2  0
 19 11  1  0
 19 20  1  0
 21 22  2  0
 22 23  1  0
 22 41  1  0
 23 26  1  0
 24 21  1  0
 24 25  1  0
 25 23  2  0
 26 27  1  0
 27 28  2  0
 29 32  1  0
 29 28  1  0
 30 29  2  0
 31 30  1  0
 31 26  2  0
 32 33  1  0
 33 34  1  0
 34 35  2  0
 36 35  1  0
 36 40  1  0
 37 36  2  0
 38 33  2  0
 38 37  1  0
 39 38  1  0
 41 42  1  0
 42 45  1  0
 42 44  1  0
 43 41  2  0
 46 47  1  0
 46 21  1  0
 48 46  1  0
 49  5  1  0
 49 50  1  0
 51 52  1  0
 51 50  1  0
 53 64  2  0
 54 52  1  0
 54 59  1  0
 55 63  1  0
 55 65  1  0
 56 62  1  0
 56 58  1  0
 57 63  1  0
 58 57  1  0
 59 58  2  0
 60 61  1  0
 60 54  2  0
 61 56  2  0
 62 55  1  0
 63 53  1  0
 65 67  2  0
 66 65  1  0
 68 66  1  0
 69 78  2  0
 69 74  1  0
 70 66  1  0
 70 74  1  0
 71 70  1  0
 72 73  1  0
 72 71  1  0
 73 69  1  0
 74 75  2  0
 75 76  1  0
 77 76  2  0
 78 77  1  0
 79 53  1  0
 79 84  1  0
 79 80  1  0
 80 83  1  1
 80 81  1  0
 82 80  1  0
 84 87  1  0
 85 89  1  0
 85 84  1  0
 86 85  2  0
 89 88  1  0
 91 89  1  0
 91 92  1  0
 91 90  1  0
M  ISO  4  11 100  19 100  51 101  52 101
M  END
>  <TORSDO>  (69) 
F 19

>  <SCORE>  (69) 
-14.053

>  <name>  (69) 
68

>  <ligand_id>  (69) 
68

>  <original_smiles>  (69) 
[H]c1nc(OC([H])([H])C([H])([H])Oc2c([H])c([H])c3c(c2[H])C([H])([H])N(C(=O)C([H])(N([H])C(=O)C([H])(N([H])C([H])([H])[H])C([H])([H])[H])C(C([H])([H])[H])(C([H])([H])[H])C([H])([H])[H])C([H])(C(=O)N([H])C2([H])c4c([H])c([H])c([H])c([H])c4C([H])([H])C([H])([H])C2([H])[H])C3([H])[H])c([H])c2c1C([H])(N([H])C(=O)N1C([H])([H])C([H])([H])C([H])([H])C([H])(n3nc(-c4c([H])c([H])c(Oc5c([H])c([H])c(F)c([H])c5F)c([H])c4[H])c(C(=O)N([H])[H])c3N([H])[H])C1([H])[H])C([H])([H])C([H])([H])C2([H])[H]

>  <smiles>  (69) 
[H]c1nc(OC([H])([H])C([H])([H])Oc2c([H])c([H])c3c(c2[H])C([H])([H])N(C(=O)C([H])(N([H])C(=O)C([H])(N([H])C([H])([H])[H])C([H])([H])[H])C(C([H])([H])[H])(C([H])([H])[H])C([H])([H])[H])C([H])(C(=O)N([H])C2([H])c4c([H])c([H])c([H])c([H])c4C([H])([H])C([H])([H])C2([H])[H])C3([H])[H])c([H])c2c1C([H])(N([H])C(=O)N1C([H])([H])C([H])([H])C([H])([H])C([H])(n3nc(-c4c([H])c([H])c(Oc5c([H])c([H])c(F)c([H])c5F)c([H])c4[H])c(C(=O)N([H])[H])c3N([H])[H])C1([H])[H])C([H])([H])C([H])([H])C2([H])[H]

$$$$
69:0:0
     RDKit          3D

 95105  0  0  1  0  0  0  0  0999 V2000
  -26.9050  -21.5770   20.7900 C   0  0  0  0  0  3  0  0  0  0  0  0
  -29.3400  -22.0620   19.6810 C   0  0  0  0  0  0  0  0  0  0  0  0
  -29.0510  -20.6730   20.1150 C   0  0  0  0  0  0  0  0  0  0  0  0
  -27.8160  -20.4890   20.7520 C   0  0  0  0  0  0  0  0  0  0  0  0
  -27.1860  -22.9060   20.3600 C   0  0  0  0  0  0  0  0  0  0  0  0
  -28.4650  -23.2940   19.8540 C   0  0  0  0  0  0  0  0  0  0  0  0
  -30.7650  -21.9600   19.1420 C   0  0  0  0  0  2  0  0  0  0  0  0
  -31.1060  -20.4040   19.0320 C   0  0  0  0  0  2  0  0  0  0  0  0
  -30.3340  -19.6520   20.1620 C   0  0  1  0  0  0  0  0  0  0  0  0
  -27.4880  -19.2030   21.5030 C   0  0  0  0  0  1  0  0  0  0  0  0
  -26.0820  -23.9270   20.6130 C   0  0  0  0  0  1  0  0  0  0  0  0
  -30.8900  -20.2320   21.5250 C   0  0  0  0  0  1  0  0  0  0  0  0
  -30.8210  -15.2160   19.3410 C   0  0  0  0  0  0  0  0  0  0  0  0
  -30.5520  -12.8390   18.3660 C   0  0  0  0  0  2  0  0  0  0  0  0
  -29.4450  -12.7770   17.2830 C   0  0  0  0  0  2  0  0  0  0  0  0
  -28.0630  -12.5550   17.9290 C   0  0  0  0  0  2  0  0  0  0  0  0
  -27.8430  -13.4750   19.1530 C   0  0  0  0  0  3  0  0  0  0  0  0
  -29.0490  -13.4690   20.1090 C   0  0  0  0  0  2  0  0  0  0  0  0
  -30.2160  -13.9410   19.3300 N   0  0  0  0  0  0  0  0  0  0  0  0
  -31.8490  -15.3230   18.6540 O   0  0  0  0  0  0  0  0  0  0  0  0
  -32.0680  -16.4380   21.7960 C   0  0  0  0  0  2  0  0  0  0  0  0
  -32.1440  -17.6620   20.8850 C   0  0  0  0  0  2  0  0  0  0  0  0
  -30.6800  -15.8310   21.5110 C   0  0  0  0  0  2  0  0  0  0  0  0
  -30.6770  -17.9050   20.4440 C   0  0  0  0  0  3  0  0  0  0  0  0
  -30.3140  -16.3220   20.1420 N   0  0  0  0  0  0  0  0  0  0  0  0
  -25.7000  -14.0680   20.4160 C   0  0  0  0  0  0  0  0  0  0  0  0
  -24.6630  -13.3100   20.8770 C   0  0  0  0  0  0  0  0  0  0  0  0
  -24.9950  -11.9520   20.5710 C   0  0  0  0  0  0  0  0  0  0  0  0
  -26.5980  -13.1800   19.8500 N   0  0  0  0  0  0  0  0  0  0  0  0
  -26.1960  -11.8940   20.0090 N   0  0  0  0  0  0  0  0  0  0  0  0
  -24.2130  -10.7190   20.7160 C   0  0  0  0  0  0  0  0  0  0  0  0
  -24.6050   -9.7040   21.6140 C   0  0  0  0  0  3  0  0  0  0  0  0
  -23.8260   -8.5370   21.7580 C   0  0  0  0  0  3  0  0  0  0  0  0
  -22.6410   -8.3770   21.0040 C   0  0  0  0  0  0  0  0  0  0  0  0
  -22.2700   -9.3780   20.0910 C   0  0  0  0  0  3  0  0  0  0  0  0
  -23.0480  -10.5380   19.9440 C   0  0  0  0  0  3  0  0  0  0  0  0
  -21.8390   -7.2650   21.0540 O   0  0  0  0  0  0  0  0  0  0  0  0
  -21.6050   -6.5990   22.2310 C   0  0  0  0  0  0  0  0  0  0  0  0
  -21.0320   -7.2420   23.3490 C   0  0  0  0  0  3  0  0  0  0  0  0
  -20.7490   -6.5060   24.5170 C   0  0  0  0  0  3  0  0  0  0  0  0
  -21.0220   -5.1260   24.5630 C   0  0  0  0  0  0  0  0  0  0  0  0
  -21.5790   -4.4820   23.4440 C   0  0  0  0  0  3  0  0  0  0  0  0
  -21.8670   -5.2150   22.2820 C   0  0  0  0  0  0  0  0  0  0  0  0
  -22.3880   -4.5880   21.2010 F   0  0  0  0  0  0  0  0  0  0  0  0
  -20.7370   -4.4130   25.6780 F   0  0  0  0  0  0  0  0  0  0  0  0
  -23.3860  -13.8130   21.4830 C   0  0  0  0  0  0  0  0  0  0  0  0
  -22.7990  -13.0510   22.3940 N   0  0  0  0  0  0  0  0  0  0  0  0
  -22.9320  -14.9150   21.1820 O   0  0  0  0  0  0  0  0  0  0  0  0
  -23.1900  -12.1580   22.6590 H   0  0  0  0  0  0  0  0  0  0  0  0
  -21.9410  -13.3550   22.8300 H   0  0  0  0  0  0  0  0  0  0  0  0
  -25.9430  -15.4390   20.4050 N   0  0  0  0  0  0  0  0  0  0  0  0
  -25.2760  -16.1020   20.7700 H   0  0  0  0  0  0  0  0  0  0  0  0
  -26.7590  -15.8780   20.0020 H   0  0  0  0  0  0  0  0  0  0  0  0
  -28.8590  -24.9430   19.9870 C   0  0  0  0  0  2  0  0  0  0  0  0
  -28.4660  -26.2750   19.2190 O   0  0  0  0  0  0  0  0  0  0  0  0
  -24.5940  -31.5830   22.8360 C   0  0  0  0  0  0  0  0  0  0  0  0
  -27.3670  -27.2070   19.4220 C   0  0  0  0  0  0  0  0  0  0  0  0
  -23.4470  -30.2500   21.1060 C   0  0  0  0  0  3  0  0  0  0  0  0
  -24.9580  -28.8750   19.5390 C   0  0  0  0  0  0  0  0  0  0  0  0
  -25.9880  -30.6570   20.9400 C   0  0  0  0  0  2  0  0  0  0  0  0
  -26.1290  -29.3200   20.1750 C   0  0  0  0  0  0  0  0  0  0  0  0
  -27.3360  -28.5100   20.0820 C   0  0  0  0  0  3  0  0  0  0  0  0
  -26.1670  -26.9040   18.7490 C   0  0  0  0  0  3  0  0  0  0  0  0
  -25.0000  -27.6830   18.8030 C   0  0  0  0  0  3  0  0  0  0  0  0
  -23.6820  -29.6940   19.6790 C   0  0  0  0  0  2  0  0  0  0  0  0
  -24.6960  -30.8480   21.6820 N   0  0  0  0  0  0  0  0  0  0  0  0
  -23.5000  -31.7630   23.3940 O   0  0  0  0  0  0  0  0  0  0  0  0
  -22.8440  -29.1320   21.9900 C   0  0  0  0  0  0  0  0  0  0  0  0
  -21.5270  -28.8810   21.8510 N   0  0  0  0  0  0  0  0  0  0  0  0
  -23.5590  -28.4920   22.7690 O   0  0  0  0  0  0  0  0  0  0  0  0
  -20.9990  -29.4470   21.2010 H   0  0  0  0  0  0  0  0  0  0  0  0
  -18.2380  -27.4210   22.2600 C   0  0  0  0  0  0  0  0  0  0  0  0
  -20.7760  -27.8400   22.5510 C   0  0  0  0  0  3  0  0  0  0  0  0
  -20.9730  -26.4620   21.8740 C   0  0  0  0  0  2  0  0  0  0  0  0
  -19.8950  -26.1400   20.8370 C   0  0  0  0  0  2  0  0  0  0  0  0
  -18.5080  -26.1400   21.4890 C   0  0  0  0  0  2  0  0  0  0  0  0
  -19.3030  -28.2280   22.7450 C   0  0  0  0  0  0  0  0  0  0  0  0
  -18.9960  -29.4260   23.4260 C   0  0  0  0  0  3  0  0  0  0  0  0
  -17.6580  -29.8180   23.6300 C   0  0  0  0  0  3  0  0  0  0  0  0
  -16.6100  -29.0060   23.1610 C   0  0  0  0  0  3  0  0  0  0  0  0
  -16.9000  -27.8110   22.4780 C   0  0  0  0  0  3  0  0  0  0  0  0
  -25.8420  -32.2340   23.4970 C   0  0  0  0  0  3  0  0  0  0  0  0
  -25.4630  -33.5890   23.9270 N   0  0  0  0  0  0  0  0  0  0  0  0
  -25.7620  -34.7180   23.2680 C   0  0  0  0  0  0  0  0  0  0  0  0
  -26.4480  -34.7280   22.2430 O   0  0  0  0  0  0  0  0  0  0  0  0
  -24.8350  -33.6490   24.7150 H   0  0  0  0  0  0  0  0  0  0  0  0
  -23.9600  -36.4580   23.0380 C   0  0  0  0  0  1  0  0  0  0  0  0
  -25.2070  -36.0390   23.8330 C   0  0  0  0  0  3  0  0  0  0  0  0
  -27.2810  -36.9410   24.7820 C   0  0  0  0  0  1  0  0  0  0  0  0
  -26.1940  -37.1420   23.8290 N   0  0  0  0  0  0  0  0  0  0  0  0
  -25.7450  -38.0290   24.0420 H   0  0  0  0  0  0  0  0  0  0  0  0
  -26.4040  -31.4050   24.7180 C   0  0  1  0  0  0  0  0  0  0  0  0
  -25.3270  -31.0440   25.7660 C   0  0  0  0  0  1  0  0  0  0  0  0
  -27.0510  -30.0840   24.2440 C   0  0  0  0  0  1  0  0  0  0  0  0
  -27.5240  -32.2050   25.4220 C   0  0  0  0  0  1  0  0  0  0  0  0
  2  6  2  0
  2  3  1  0
  3  9  1  0
  3  4  2  0
  4  1  1  0
  4 10  1  0
  5 11  1  0
  5  1  2  0
  6 54  1  0
  6  5  1  0
  7  2  1  0
  8  7  1  0
  8  9  1  0
  9 24  1  0
  9 12  1  1
 13 25  1  0
 14 19  1  0
 15 16  1  0
 15 14  1  0
 17 16  1  0
 17 29  1  0
 17 18  1  0
 19 13  1  0
 19 18  1  0
 20 13  2  0
 22 21  1  0
 23 21  1  0
 24 22  1  0
 25 24  1  0
 25 23  1  0
 26 27  2  0
 27 46  1  0
 28 31  1  0
 28 27  1  0
 29 30  1  0
 29 26  1  0
 30 28  2  0
 31 32  1  0
 32 33  2  0
 34 37  1  0
 34 33  1  0
 35 34  2  0
 36 35  1  0
 36 31  2  0
 37 38  1  0
 38 43  2  0
 38 39  1  0
 39 40  2  0
 40 41  1  0
 41 45  1  0
 42 41  2  0
 43 42  1  0
 44 43  1  0
 46 47  1  0
 47 49  1  0
 47 50  1  0
 48 46  2  0
 51 26  1  0
 51 52  1  0
 53 51  1  0
 55 57  1  0
 55 54  1  0
 56 67  2  0
 57 62  1  0
 58 66  1  0
 58 68  1  0
 59 65  1  0
 59 61  1  0
 60 66  1  0
 61 60  1  0
 62 61  2  0
 63 64  1  0
 63 57  2  0
 64 59  2  0
 65 58  1  0
 66 56  1  0
 68 70  2  0
 69 68  1  0
 71 69  1  0
 72 81  2  0
 72 77  1  0
 73 69  1  0
 73 77  1  0
 74 73  1  0
 75 76  1  0
 75 74  1  0
 76 72  1  0
 77 78  2  0
 78 79  1  0
 80 79  2  0
 81 80  1  0
 82 56  1  0
 82 83  1  0
 82 92  1  0
 83 86  1  0
 84 88  1  0
 84 83  1  0
 85 84  2  0
 88 87  1  0
 90 88  1  0
 90 91  1  0
 90 89  1  0
 92 95  1  1
 92 93  1  0
 94 92  1  0
M  ISO  4  13 100  25 100  54 101  55 101
M  END
>  <TORSDO>  (70) 
F 17

>  <SCORE>  (70) 
-8.025

>  <name>  (70) 
69

>  <ligand_id>  (70) 
69

>  <original_smiles>  (70) 
[H]c1c([H])c([H])c2c(c1[H])C([H])([H])C([H])([H])C([H])([H])C2([H])N([H])C(=O)C1([H])N(C(=O)C([H])(N([H])C(=O)C([H])(N([H])C([H])([H])[H])C([H])([H])[H])C(C([H])([H])[H])(C([H])([H])[H])C([H])([H])[H])C([H])([H])c2c([H])c(OC([H])([H])c3c(C([H])([H])[H])c([H])c(C([H])([H])[H])c4c3C([H])([H])C([H])([H])C4(C([H])([H])[H])C3([H])N(C(=O)N4C([H])([H])C([H])([H])C([H])([H])C([H])(n5nc(-c6c([H])c([H])c(Oc7c([H])c([H])c(F)c([H])c7F)c([H])c6[H])c(C(=O)N([H])[H])c5N([H])[H])C4([H])[H])C([H])([H])C([H])([H])C3([H])[H])c([H])c([H])c2C1([H])[H]

>  <smiles>  (70) 
[H]c1c([H])c([H])c2c(c1[H])C([H])([H])C([H])([H])C([H])([H])C2([H])N([H])C(=O)C1([H])N(C(=O)C([H])(N([H])C(=O)C([H])(N([H])C([H])([H])[H])C([H])([H])[H])C(C([H])([H])[H])(C([H])([H])[H])C([H])([H])[H])C([H])([H])c2c([H])c(OC([H])([H])c3c(C([H])([H])[H])c([H])c(C([H])([H])[H])c4c3C([H])([H])C([H])([H])C4(C([H])([H])[H])C3([H])N(C(=O)N4C([H])([H])C([H])([H])C([H])([H])C([H])(n5nc(-c6c([H])c([H])c(Oc7c([H])c([H])c(F)c([H])c7F)c([H])c6[H])c(C(=O)N([H])[H])c5N([H])[H])C4([H])[H])C([H])([H])C([H])([H])C3([H])[H])c([H])c([H])c2C1([H])[H]

$$$$
70:0:0
     RDKit          3D

 94103  0  0  1  0  0  0  0  0999 V2000
  -29.0900  -23.0780   21.7830 C   0  0  0  0  0  3  0  0  0  0  0  0
  -29.4100  -20.9840   20.4460 C   0  0  0  0  0  0  0  0  0  0  0  0
  -29.3890  -21.6840   21.6970 C   0  0  0  0  0  0  0  0  0  0  0  0
  -28.7190  -23.9090   20.6930 C   0  0  0  0  0  0  0  0  0  0  0  0
  -29.0330  -21.8150   19.3200 C   0  0  0  0  0  0  0  0  0  0  0  0
  -28.6940  -23.2290   19.4390 C   0  0  0  0  0  0  0  0  0  0  0  0
  -29.6440  -20.9910   23.0240 C   0  0  0  0  0  1  0  0  0  0  0  0
  -28.9660  -21.1940   17.9240 C   0  0  0  0  0  1  0  0  0  0  0  0
  -28.2770  -24.0540   18.2250 C   0  0  0  0  0  1  0  0  0  0  0  0
  -30.8890  -15.0070   20.0740 C   0  0  0  0  0  0  0  0  0  0  0  0
  -30.5760  -12.7340   19.0890 C   0  0  0  0  0  2  0  0  0  0  0  0
  -29.5960  -12.7720   17.9020 C   0  0  0  0  0  2  0  0  0  0  0  0
  -28.1570  -12.5600   18.4030 C   0  0  0  0  0  2  0  0  0  0  0  0
  -27.8120  -13.4620   19.6140 C   0  0  0  0  0  3  0  0  0  0  0  0
  -28.9230  -13.4780   20.6900 C   0  0  0  0  0  2  0  0  0  0  0  0
  -30.1850  -13.8200   20.0230 N   0  0  0  0  0  0  0  0  0  0  0  0
  -32.0690  -14.9950   19.7090 O   0  0  0  0  0  0  0  0  0  0  0  0
  -30.6470  -18.6780   21.3900 C   0  0  0  0  0  2  0  0  0  0  0  0
  -28.8070  -18.3670   19.8760 C   0  0  0  0  0  2  0  0  0  0  0  0
  -31.2330  -17.2740   20.9710 C   0  0  0  0  0  2  0  0  0  0  0  0
  -29.4010  -16.9530   19.4530 C   0  0  0  0  0  2  0  0  0  0  0  0
  -29.8700  -19.4360   20.2680 C   0  0  0  0  0  3  0  0  0  0  0  0
  -30.3030  -16.2380   20.4120 N   0  0  0  0  0  0  0  0  0  0  0  0
  -25.4780  -14.0300   20.4980 C   0  0  0  0  0  0  0  0  0  0  0  0
  -24.4300  -13.2430   20.8890 C   0  0  0  0  0  0  0  0  0  0  0  0
  -24.8900  -11.8940   20.7850 C   0  0  0  0  0  0  0  0  0  0  0  0
  -26.5040  -13.1570   20.1740 N   0  0  0  0  0  0  0  0  0  0  0  0
  -26.1630  -11.8670   20.4120 N   0  0  0  0  0  0  0  0  0  0  0  0
  -24.1730  -10.6250   20.9600 C   0  0  0  0  0  0  0  0  0  0  0  0
  -24.5830   -9.6730   21.9200 C   0  0  0  0  0  3  0  0  0  0  0  0
  -23.8660   -8.4690   22.0840 C   0  0  0  0  0  3  0  0  0  0  0  0
  -22.7270   -8.2080   21.2850 C   0  0  0  0  0  0  0  0  0  0  0  0
  -22.3380   -9.1470   20.3150 C   0  0  0  0  0  3  0  0  0  0  0  0
  -23.0560  -10.3430   20.1500 C   0  0  0  0  0  3  0  0  0  0  0  0
  -21.9840   -7.0540   21.3570 O   0  0  0  0  0  0  0  0  0  0  0  0
  -21.8080   -6.3840   22.5410 C   0  0  0  0  0  0  0  0  0  0  0  0
  -21.1680   -6.9820   23.6480 C   0  0  0  0  0  3  0  0  0  0  0  0
  -20.9470   -6.2340   24.8230 C   0  0  0  0  0  3  0  0  0  0  0  0
  -21.3570   -4.8890   24.8880 C   0  0  0  0  0  0  0  0  0  0  0  0
  -21.9900   -4.2900   23.7850 C   0  0  0  0  0  3  0  0  0  0  0  0
  -22.2130   -5.0360   22.6140 C   0  0  0  0  0  0  0  0  0  0  0  0
  -22.8050   -4.4490   21.5460 F   0  0  0  0  0  0  0  0  0  0  0  0
  -21.1370   -4.1670   26.0120 F   0  0  0  0  0  0  0  0  0  0  0  0
  -23.0490  -13.7090   21.2460 C   0  0  0  0  0  0  0  0  0  0  0  0
  -22.3670  -12.9830   22.1240 N   0  0  0  0  0  0  0  0  0  0  0  0
  -22.5860  -14.7500   20.7820 O   0  0  0  0  0  0  0  0  0  0  0  0
  -22.7560  -12.1400   22.5200 H   0  0  0  0  0  0  0  0  0  0  0  0
  -21.4420  -13.2750   22.4060 H   0  0  0  0  0  0  0  0  0  0  0  0
  -25.6380  -15.4070   20.3680 N   0  0  0  0  0  0  0  0  0  0  0  0
  -24.8850  -16.0590   20.5570 H   0  0  0  0  0  0  0  0  0  0  0  0
  -26.4860  -15.8600   20.0520 H   0  0  0  0  0  0  0  0  0  0  0  0
  -26.9040  -25.3390   21.7960 C   0  0  0  0  0  1  0  0  0  0  0  0
  -28.2570  -25.4100   21.0410 C   0  0  0  0  0  3  0  0  0  0  0  0
  -28.3730  -26.5860   20.1030 O   0  0  0  0  0  0  0  0  0  0  0  0
  -24.6470  -31.9660   23.2230 C   0  0  0  0  0  0  0  0  0  0  0  0
  -27.3080  -27.5100   20.0560 C   0  0  0  0  0  0  0  0  0  0  0  0
  -23.4590  -30.5880   21.5550 C   0  0  0  0  0  3  0  0  0  0  0  0
  -24.9310  -29.1030   20.0760 C   0  0  0  0  0  0  0  0  0  0  0  0
  -25.9930  -30.9500   21.3710 C   0  0  0  0  0  2  0  0  0  0  0  0
  -26.0940  -29.5890   20.6890 C   0  0  0  0  0  0  0  0  0  0  0  0
  -27.2900  -28.8020   20.6750 C   0  0  0  0  0  3  0  0  0  0  0  0
  -26.1370  -27.1020   19.3850 C   0  0  0  0  0  3  0  0  0  0  0  0
  -24.9560  -27.8670   19.4110 C   0  0  0  0  0  3  0  0  0  0  0  0
  -23.6790  -29.9530   20.1560 C   0  0  0  0  0  2  0  0  0  0  0  0
  -24.7190  -31.1850   22.1060 N   0  0  0  0  0  0  0  0  0  0  0  0
  -23.5610  -32.2130   23.7710 O   0  0  0  0  0  0  0  0  0  0  0  0
  -22.8190  -29.5360   22.4940 C   0  0  0  0  0  0  0  0  0  0  0  0
  -21.4970  -29.3300   22.3620 N   0  0  0  0  0  0  0  0  0  0  0  0
  -23.5100  -28.9120   23.3030 O   0  0  0  0  0  0  0  0  0  0  0  0
  -20.9960  -29.8880   21.6840 H   0  0  0  0  0  0  0  0  0  0  0  0
  -18.1480  -28.0390   22.8300 C   0  0  0  0  0  0  0  0  0  0  0  0
  -20.6990  -28.3580   23.1120 C   0  0  0  0  0  3  0  0  0  0  0  0
  -20.8380  -26.9410   22.5120 C   0  0  0  0  0  2  0  0  0  0  0  0
  -19.7470  -26.6090   21.4880 C   0  0  0  0  0  2  0  0  0  0  0  0
  -18.3600  -26.7070   22.1300 C   0  0  0  0  0  2  0  0  0  0  0  0
  -19.2470  -28.8210   23.2780 C   0  0  0  0  0  0  0  0  0  0  0  0
  -18.9940  -30.0680   23.8910 C   0  0  0  0  0  3  0  0  0  0  0  0
  -17.6760  -30.5310   24.0630 C   0  0  0  0  0  3  0  0  0  0  0  0
  -16.5930  -29.7470   23.6310 C   0  0  0  0  0  3  0  0  0  0  0  0
  -16.8300  -28.5030   23.0200 C   0  0  0  0  0  3  0  0  0  0  0  0
  -25.9210  -32.6070   23.8550 C   0  0  0  0  0  3  0  0  0  0  0  0
  -25.6020  -34.0040   24.1810 N   0  0  0  0  0  0  0  0  0  0  0  0
  -25.9330  -35.0590   23.4240 C   0  0  0  0  0  0  0  0  0  0  0  0
  -26.6100  -34.9590   22.3960 O   0  0  0  0  0  0  0  0  0  0  0  0
  -25.0040  -34.1560   24.9800 H   0  0  0  0  0  0  0  0  0  0  0  0
  -24.2050  -36.8490   23.0530 C   0  0  0  0  0  1  0  0  0  0  0  0
  -25.4370  -36.4460   23.8780 C   0  0  0  0  0  3  0  0  0  0  0  0
  -27.5540  -37.3430   24.7410 C   0  0  0  0  0  1  0  0  0  0  0  0
  -26.4680  -37.5020   23.7770 N   0  0  0  0  0  0  0  0  0  0  0  0
  -26.0560  -38.4220   23.9120 H   0  0  0  0  0  0  0  0  0  0  0  0
  -26.4310  -31.8410   25.1370 C   0  0  1  0  0  0  0  0  0  0  0  0
  -25.3240  -31.5770   26.1840 C   0  0  0  0  0  1  0  0  0  0  0  0
  -27.0490  -30.4770   24.7510 C   0  0  0  0  0  1  0  0  0  0  0  0
  -27.5520  -32.6570   25.8220 C   0  0  0  0  0  1  0  0  0  0  0  0
  2  3  2  0
  3  1  1  0
  3  7  1  0
  4 53  1  0
  4  1  2  0
  5  6  2  0
  5  2  1  0
  6  4  1  0
  8  5  1  0
  9  6  1  0
 10 23  1  0
 11 16  1  0
 12 13  1  0
 12 11  1  0
 14 13  1  0
 14 27  1  0
 14 15  1  0
 16 10  1  0
 16 15  1  0
 17 10  2  0
 19 22  1  0
 20 18  1  0
 21 19  1  0
 21 23  1  0
 22  2  1  0
 22 18  1  0
 23 20  1  0
 24 25  2  0
 25 44  1  0
 26 25  1  0
 26 29  1  0
 27 28  1  0
 27 24  1  0
 28 26  2  0
 29 30  1  0
 30 31  2  0
 32 35  1  0
 32 31  1  0
 33 32  2  0
 34 33  1  0
 34 29  2  0
 35 36  1  0
 36 41  2  0
 36 37  1  0
 37 38  2  0
 38 39  1  0
 39 43  1  0
 40 39  2  0
 41 40  1  0
 42 41  1  0
 44 45  1  0
 45 48  1  0
 45 47  1  0
 46 44  2  0
 49 24  1  0
 49 50  1  0
 51 49  1  0
 53 52  1  0
 54 53  1  0
 55 66  2  0
 56 54  1  0
 56 61  1  0
 57 65  1  0
 57 67  1  0
 58 64  1  0
 58 60  1  0
 59 65  1  0
 60 59  1  0
 61 60  2  0
 62 63  1  0
 62 56  2  0
 63 58  2  0
 64 57  1  0
 65 55  1  0
 67 69  2  0
 68 67  1  0
 70 68  1  0
 71 80  2  0
 71 76  1  0
 72 68  1  0
 72 76  1  0
 73 72  1  0
 74 75  1  0
 74 73  1  0
 75 71  1  0
 76 77  2  0
 77 78  1  0
 79 78  2  0
 80 79  1  0
 81 55  1  0
 81 82  1  0
 81 91  1  0
 82 85  1  0
 83 87  1  0
 83 82  1  0
 84 83  2  0
 87 86  1  0
 89 87  1  0
 89 90  1  0
 89 88  1  0
 91 94  1  1
 91 92  1  0
 93 91  1  0
M  ISO  4  10 100  23 100  53 101  54 101
M  END
>  <TORSDO>  (71) 
F 17

>  <SCORE>  (71) 
-14.964

>  <name>  (71) 
70

>  <ligand_id>  (71) 
70

>  <original_smiles>  (71) 
[H]c1c([H])c([H])c2c(c1[H])C([H])([H])C([H])([H])C([H])([H])C2([H])N([H])C(=O)C1([H])N(C(=O)C([H])(N([H])C(=O)C([H])(N([H])C([H])([H])[H])C([H])([H])[H])C(C([H])([H])[H])(C([H])([H])[H])C([H])([H])[H])C([H])([H])c2c([H])c(OC([H])(c3c([H])c(C([H])([H])[H])c(C4([H])C([H])([H])C([H])([H])N(C(=O)N5C([H])([H])C([H])([H])C([H])([H])C([H])(n6nc(-c7c([H])c([H])c(Oc8c([H])c([H])c(F)c([H])c8F)c([H])c7[H])c(C(=O)N([H])[H])c6N([H])[H])C5([H])[H])C([H])([H])C4([H])[H])c(C([H])([H])[H])c3C([H])([H])[H])C([H])([H])[H])c([H])c([H])c2C1([H])[H]

>  <smiles>  (71) 
[H]c1c([H])c([H])c2c(c1[H])C([H])([H])C([H])([H])C([H])([H])C2([H])N([H])C(=O)C1([H])N(C(=O)C([H])(N([H])C(=O)C([H])(N([H])C([H])([H])[H])C([H])([H])[H])C(C([H])([H])[H])(C([H])([H])[H])C([H])([H])[H])C([H])([H])c2c([H])c(OC([H])(c3c([H])c(C([H])([H])[H])c(C4([H])C([H])([H])C([H])([H])N(C(=O)N5C([H])([H])C([H])([H])C([H])([H])C([H])(n6nc(-c7c([H])c([H])c(Oc8c([H])c([H])c(F)c([H])c8F)c([H])c7[H])c(C(=O)N([H])[H])c6N([H])[H])C5([H])[H])C([H])([H])C4([H])[H])c(C([H])([H])[H])c3C([H])([H])[H])C([H])([H])[H])c([H])c([H])c2C1([H])[H]

$$$$
71:0:0
     RDKit          3D

 98107  0  0  1  0  0  0  0  0999 V2000
  -28.9710  -18.3500   19.6790 C   0  0  0  0  0  0  0  0  0  0  0  0
  -29.5040  -19.4320   18.9160 C   0  0  0  0  0  0  0  0  0  0  0  0
  -27.5620  -18.1670   19.6500 C   0  0  0  0  0  0  0  0  0  0  0  0
  -28.7800  -19.9540   17.8130 C   0  0  0  0  0  0  0  0  0  0  0  0
  -26.7760  -18.8470   18.6730 C   0  0  0  0  0  0  0  0  0  0  0  0
  -27.4130  -19.6230   17.6670 C   0  0  0  0  0  0  0  0  0  0  0  0
  -30.6690  -18.8610   21.5150 C   0  0  0  0  0  2  0  0  0  0  0  0
  -29.8880  -17.6410   20.7080 C   0  0  0  0  0  3  0  0  0  0  0  0
  -30.7380  -20.1900   19.4440 C   0  0  0  0  0  3  0  0  0  0  0  0
  -26.8720  -17.3610   20.7600 C   0  0  0  0  0  1  0  0  0  0  0  0
  -29.4380  -20.9220   16.8270 C   0  0  0  0  0  1  0  0  0  0  0  0
  -25.2480  -18.8030   18.7370 C   0  0  0  0  0  1  0  0  0  0  0  0
  -26.6050  -20.2010   16.5000 C   0  0  0  0  0  1  0  0  0  0  0  0
  -32.0700  -19.5720   18.9700 C   0  0  0  0  0  1  0  0  0  0  0  0
  -30.6460  -20.3340   20.9230 N   0  0  1  0  0  4  0  0  0  0  0  0
  -31.5500  -20.6810   21.2040 H   0  0  0  0  0  0  0  0  0  0  0  0
  -30.7840  -14.9060   20.1000 C   0  0  0  0  0  0  0  0  0  0  0  0
  -30.5030  -12.6840   18.8660 C   0  0  0  0  0  2  0  0  0  0  0  0
  -29.4820  -12.8490   17.7130 C   0  0  0  0  0  2  0  0  0  0  0  0
  -28.0410  -12.6420   18.2150 C   0  0  0  0  0  2  0  0  0  0  0  0
  -27.7720  -13.4000   19.5400 C   0  0  0  0  0  3  0  0  0  0  0  0
  -28.9040  -13.2070   20.5740 C   0  0  0  0  0  2  0  0  0  0  0  0
  -30.1520  -13.6620   19.9430 N   0  0  0  0  0  0  0  0  0  0  0  0
  -31.9400  -14.9970   19.6710 O   0  0  0  0  0  0  0  0  0  0  0  0
  -30.0330  -16.0310   20.5810 N   0  0  0  0  0  0  0  0  0  0  0  0
  -29.1640  -15.6380   20.9070 H   0  0  0  0  0  0  0  0  0  0  0  0
  -25.4270  -13.9770   20.3750 C   0  0  0  0  0  0  0  0  0  0  0  0
  -24.3760  -13.2240   20.8080 C   0  0  0  0  0  0  0  0  0  0  0  0
  -24.8220  -11.8700   20.7380 C   0  0  0  0  0  0  0  0  0  0  0  0
  -26.4540  -13.0990   20.0890 N   0  0  0  0  0  0  0  0  0  0  0  0
  -26.1000  -11.8180   20.3680 N   0  0  0  0  0  0  0  0  0  0  0  0
  -24.0800  -10.6220   20.9410 C   0  0  0  0  0  0  0  0  0  0  0  0
  -24.4840   -9.6740   21.9060 C   0  0  0  0  0  3  0  0  0  0  0  0
  -23.7410   -8.4890   22.0960 C   0  0  0  0  0  3  0  0  0  0  0  0
  -22.5810   -8.2460   21.3240 C   0  0  0  0  0  0  0  0  0  0  0  0
  -22.1960   -9.1850   20.3500 C   0  0  0  0  0  3  0  0  0  0  0  0
  -22.9380  -10.3610   20.1560 C   0  0  0  0  0  3  0  0  0  0  0  0
  -21.8120   -7.1130   21.4240 O   0  0  0  0  0  0  0  0  0  0  0  0
  -21.7500   -6.3880   22.5880 C   0  0  0  0  0  0  0  0  0  0  0  0
  -21.1970   -6.9260   23.7720 C   0  0  0  0  0  3  0  0  0  0  0  0
  -21.0890   -6.1230   24.9230 C   0  0  0  0  0  3  0  0  0  0  0  0
  -21.5240   -4.7840   24.8940 C   0  0  0  0  0  0  0  0  0  0  0  0
  -22.0690   -4.2470   23.7150 C   0  0  0  0  0  3  0  0  0  0  0  0
  -22.1800   -5.0470   22.5640 C   0  0  0  0  0  0  0  0  0  0  0  0
  -22.6850   -4.5170   21.4250 F   0  0  0  0  0  0  0  0  0  0  0  0
  -21.4120   -4.0100   25.9990 F   0  0  0  0  0  0  0  0  0  0  0  0
  -23.0030  -13.7280   21.1490 C   0  0  0  0  0  0  0  0  0  0  0  0
  -22.3090  -13.0520   22.0600 N   0  0  0  0  0  0  0  0  0  0  0  0
  -22.5560  -14.7570   20.6460 O   0  0  0  0  0  0  0  0  0  0  0  0
  -22.6800  -12.2160   22.4860 H   0  0  0  0  0  0  0  0  0  0  0  0
  -21.3910  -13.3770   22.3280 H   0  0  0  0  0  0  0  0  0  0  0  0
  -25.5810  -15.3330   20.1680 N   0  0  0  0  0  0  0  0  0  0  0  0
  -24.8210  -15.9790   20.3360 H   0  0  0  0  0  0  0  0  0  0  0  0
  -26.3850  -15.7880   19.7570 H   0  0  0  0  0  0  0  0  0  0  0  0
  -29.6990  -21.5350   21.4060 C   0  0  0  0  0  2  0  0  0  0  0  0
  -29.9120  -23.1830   20.9970 C   0  0  0  0  0  3  0  0  0  0  0  0
  -28.7880  -24.4490   21.1990 C   0  0  0  0  0  3  0  0  0  0  0  0
  -28.9320  -25.9880   20.9110 O   0  0  0  0  0  0  0  0  0  0  0  0
  -24.8290  -31.7660   23.0980 C   0  0  0  0  0  0  0  0  0  0  0  0
  -27.8110  -26.8910   20.7390 C   0  0  0  0  0  0  0  0  0  0  0  0
  -23.8010  -30.1610   21.5330 C   0  0  0  0  0  3  0  0  0  0  0  0
  -25.4090  -28.5140   20.3820 C   0  0  0  0  0  0  0  0  0  0  0  0
  -26.3500  -30.5220   21.5130 C   0  0  0  0  0  2  0  0  0  0  0  0
  -26.5260  -29.0760   21.0150 C   0  0  0  0  0  0  0  0  0  0  0  0
  -27.7270  -28.2810   21.1670 C   0  0  0  0  0  3  0  0  0  0  0  0
  -26.6610  -26.4260   20.0620 C   0  0  0  0  0  3  0  0  0  0  0  0
  -25.4890  -27.2010   19.8920 C   0  0  0  0  0  3  0  0  0  0  0  0
  -24.1470  -29.3530   20.2530 C   0  0  0  0  0  2  0  0  0  0  0  0
  -25.0090  -30.8440   22.1020 N   0  0  0  0  0  0  0  0  0  0  0  0
  -23.6980  -32.0550   23.5190 O   0  0  0  0  0  0  0  0  0  0  0  0
  -23.0890  -29.2320   22.5470 C   0  0  0  0  0  0  0  0  0  0  0  0
  -21.7730  -29.0150   22.3640 N   0  0  0  0  0  0  0  0  0  0  0  0
  -23.7250  -28.7020   23.4620 O   0  0  0  0  0  0  0  0  0  0  0  0
  -21.3180  -29.4910   21.5980 H   0  0  0  0  0  0  0  0  0  0  0  0
  -18.3630  -27.9190   22.9130 C   0  0  0  0  0  0  0  0  0  0  0  0
  -20.9290  -28.1280   23.1700 C   0  0  0  0  0  3  0  0  0  0  0  0
  -20.9950  -26.6740   22.6490 C   0  0  0  0  0  2  0  0  0  0  0  0
  -19.8840  -26.3390   21.6490 C   0  0  0  0  0  2  0  0  0  0  0  0
  -18.5080  -26.5420   22.2870 C   0  0  0  0  0  2  0  0  0  0  0  0
  -19.5010  -28.6710   23.3120 C   0  0  0  0  0  0  0  0  0  0  0  0
  -19.3120  -29.9590   23.8580 C   0  0  0  0  0  3  0  0  0  0  0  0
  -18.0180  -30.4940   24.0100 C   0  0  0  0  0  3  0  0  0  0  0  0
  -16.8960  -29.7390   23.6290 C   0  0  0  0  0  3  0  0  0  0  0  0
  -17.0690  -28.4550   23.0840 C   0  0  0  0  0  3  0  0  0  0  0  0
  -26.0350  -32.5160   23.7430 C   0  0  0  0  0  3  0  0  0  0  0  0
  -26.6220  -31.7720   25.0060 C   0  0  1  0  0  0  0  0  0  0  0  0
  -25.5430  -31.2850   26.0000 C   0  0  0  0  0  1  0  0  0  0  0  0
  -27.4580  -30.5430   24.5830 C   0  0  0  0  0  1  0  0  0  0  0  0
  -27.5840  -32.7150   25.7680 C   0  0  0  0  0  1  0  0  0  0  0  0
  -25.5800  -33.8650   24.1110 N   0  0  0  0  0  0  0  0  0  0  0  0
  -25.7720  -34.9670   23.3720 C   0  0  0  0  0  0  0  0  0  0  0  0
  -26.4180  -34.9590   22.3210 O   0  0  0  0  0  0  0  0  0  0  0  0
  -24.9940  -33.9340   24.9310 H   0  0  0  0  0  0  0  0  0  0  0  0
  -23.8430  -36.5660   23.1290 C   0  0  0  0  0  1  0  0  0  0  0  0
  -25.1550  -36.2860   23.8800 C   0  0  0  0  0  3  0  0  0  0  0  0
  -27.2010  -37.4020   24.6570 C   0  0  0  0  0  1  0  0  0  0  0  0
  -26.0590  -37.4500   23.7480 N   0  0  0  0  0  0  0  0  0  0  0  0
  -25.5560  -38.3160   23.9170 H   0  0  0  0  0  0  0  0  0  0  0  0
  1  8  1  0
  2  9  1  0
  2  1  2  0
  3  1  1  0
  3 10  1  0
  4  2  1  0
  5 12  1  0
  5  3  2  0
  6  4  2  0
  6  5  1  0
  8 25  1  0
  8  7  1  0
  9 14  1  0
  9 15  1  0
 11  4  1  0
 13  6  1  0
 15 16  1  1
 15 55  1  0
 15  7  1  0
 17 25  1  0
 18 23  1  0
 19 20  1  0
 19 18  1  0
 21 20  1  0
 21 30  1  0
 21 22  1  0
 23 17  1  0
 23 22  1  0
 24 17  2  0
 25 26  1  0
 27 28  2  0
 28 47  1  0
 29 28  1  0
 29 32  1  0
 30 31  1  0
 30 27  1  0
 31 29  2  0
 32 33  1  0
 33 34  2  0
 35 38  1  0
 35 34  1  0
 36 35  2  0
 37 36  1  0
 37 32  2  0
 38 39  1  0
 39 40  1  0
 40 41  2  0
 42 41  1  0
 42 46  1  0
 43 42  2  0
 44 39  2  0
 44 43  1  0
 45 44  1  0
 47 48  1  0
 48 51  1  0
 48 50  1  0
 49 47  2  0
 52 53  1  0
 52 27  1  0
 54 52  1  0
 56 57  2  0
 56 55  1  0
 58 57  1  0
 59 70  2  0
 60 58  1  0
 60 65  1  0
 61 69  1  0
 61 71  1  0
 62 64  1  0
 63 69  1  0
 64 65  2  0
 64 63  1  0
 66 60  2  0
 67 66  1  0
 67 62  2  0
 68 62  1  0
 68 61  1  0
 69 59  1  0
 71 73  2  0
 72 71  1  0
 74 72  1  0
 75 84  2  0
 75 80  1  0
 76 72  1  0
 76 80  1  0
 77 76  1  0
 78 79  1  0
 78 77  1  0
 79 75  1  0
 80 81  2  0
 81 82  1  0
 83 82  2  0
 84 83  1  0
 85 59  1  0
 85 90  1  0
 85 86  1  0
 86 89  1  1
 86 87  1  0
 88 86  1  0
 90 93  1  0
 91 95  1  0
 91 90  1  0
 92 91  2  0
 95 94  1  0
 97 95  1  0
 97 98  1  0
 97 96  1  0
M  ISO  4  17 100  25 100  57 101  58 101
M  END
>  <TORSDO>  (72) 
F 19

>  <SCORE>  (72) 
-13.246

>  <name>  (72) 
71

>  <ligand_id>  (72) 
71

>  <original_smiles>  (72) 
[H]c1c([H])c([H])c2c(c1[H])C([H])([H])C([H])([H])C([H])([H])C2([H])N([H])C(=O)C1([H])N(C(=O)C([H])(N([H])C(=O)C([H])(N([H])C([H])([H])[H])C([H])([H])[H])C(C([H])([H])[H])(C([H])([H])[H])C([H])([H])[H])C([H])([H])c2c([H])c(OC([H])([H])C([H])([H])C([H])([H])[N+]3([H])C([H])([H])C([H])(N([H])C(=O)N4C([H])([H])C([H])([H])C([H])([H])C([H])(n5nc(-c6c([H])c([H])c(Oc7c([H])c([H])c(F)c([H])c7F)c([H])c6[H])c(C(=O)N([H])[H])c5N([H])[H])C4([H])[H])c4c(C([H])([H])[H])c(C([H])([H])[H])c(C([H])([H])[H])c(C([H])([H])[H])c4C3([H])C([H])([H])[H])c([H])c([H])c2C1([H])[H]

>  <smiles>  (72) 
[H]c1c([H])c([H])c2c(c1[H])C([H])([H])C([H])([H])C([H])([H])C2([H])N([H])C(=O)C1([H])N(C(=O)C([H])(N([H])C(=O)C([H])(N([H])C([H])([H])[H])C([H])([H])[H])C(C([H])([H])[H])(C([H])([H])[H])C([H])([H])[H])C([H])([H])c2c([H])c(OC([H])([H])C([H])([H])C([H])([H])[N+]3([H])C([H])([H])C([H])(N([H])C(=O)N4C([H])([H])C([H])([H])C([H])([H])C([H])(n5nc(-c6c([H])c([H])c(Oc7c([H])c([H])c(F)c([H])c7F)c([H])c6[H])c(C(=O)N([H])[H])c5N([H])[H])C4([H])[H])c4c(C([H])([H])[H])c(C([H])([H])[H])c(C([H])([H])[H])c(C([H])([H])[H])c4C3([H])C([H])([H])[H])c([H])c([H])c2C1([H])[H]

$$$$
72:0:0
     RDKit          3D

103112  0  0  1  0  0  0  0  0999 V2000
  -33.2310  -20.9870   19.8550 C   0  0  0  0  0  3  0  0  0  0  0  0
  -33.1920  -21.0540   21.2540 C   0  0  0  0  0  3  0  0  0  0  0  0
  -32.0360  -20.9030   19.1150 C   0  0  0  0  0  0  0  0  0  0  0  0
  -30.7810  -20.8760   19.7820 C   0  0  0  0  0  0  0  0  0  0  0  0
  -30.7430  -21.0190   21.2020 C   0  0  0  0  0  0  0  0  0  0  0  0
  -31.9580  -21.0770   21.9280 C   0  0  0  0  0  0  0  0  0  0  0  0
  -32.1600  -20.9110   17.5960 C   0  0  0  0  0  2  0  0  0  0  0  0
  -30.8410  -20.7860   16.8160 C   0  0  0  0  0  2  0  0  0  0  0  0
  -29.5030  -20.6610   18.9550 C   0  0  0  0  0  3  0  0  0  0  0  0
  -29.6040  -21.3640   17.5580 C   0  0  0  0  0  3  0  0  0  0  0  0
  -29.4190  -21.1160   21.9580 C   0  0  0  0  0  1  0  0  0  0  0  0
  -29.2480  -19.2160   18.7150 N   0  0  0  0  0  4  0  0  0  0  0  0
  -29.9140  -18.9530   18.0090 H   0  0  0  0  0  0  0  0  0  0  0  0
  -28.3310  -19.1120   18.3100 H   0  0  0  0  0  0  0  0  0  0  0  0
  -29.4070  -18.2110   19.7980 C   0  0  0  0  0  2  0  0  0  0  0  0
  -31.1440  -17.0400   18.3410 C   0  0  0  0  0  1  0  0  0  0  0  0
  -29.8460  -16.8640   19.1750 C   0  0  0  0  0  3  0  0  0  0  0  0
  -30.7010  -14.7060   20.2060 C   0  0  0  0  0  0  0  0  0  0  0  0
  -30.4390  -12.4590   19.2930 C   0  0  0  0  0  2  0  0  0  0  0  0
  -29.5070  -12.5930   18.0700 C   0  0  0  0  0  2  0  0  0  0  0  0
  -28.0290  -12.4760   18.4960 C   0  0  0  0  0  2  0  0  0  0  0  0
  -27.6740  -13.3810   19.7050 C   0  0  0  0  0  3  0  0  0  0  0  0
  -28.7330  -13.2730   20.8310 C   0  0  0  0  0  2  0  0  0  0  0  0
  -30.0580  -13.5130   20.2430 N   0  0  0  0  0  0  0  0  0  0  0  0
  -31.8890  -14.8170   19.9000 O   0  0  0  0  0  0  0  0  0  0  0  0
  -29.8620  -15.7580   20.1630 N   0  0  0  0  0  0  0  0  0  0  0  0
  -28.9550  -15.5410   20.5490 H   0  0  0  0  0  0  0  0  0  0  0  0
  -25.2920  -13.9980   20.4610 C   0  0  0  0  0  0  0  0  0  0  0  0
  -24.2270  -13.2270   20.8430 C   0  0  0  0  0  0  0  0  0  0  0  0
  -24.6790  -11.8740   20.7920 C   0  0  0  0  0  0  0  0  0  0  0  0
  -26.3270  -13.1120   20.2040 N   0  0  0  0  0  0  0  0  0  0  0  0
  -25.9630  -11.8300   20.4600 N   0  0  0  0  0  0  0  0  0  0  0  0
  -23.9490  -10.6150   20.9820 C   0  0  0  0  0  0  0  0  0  0  0  0
  -24.3990   -9.6360   21.8940 C   0  0  0  0  0  3  0  0  0  0  0  0
  -23.6730   -8.4380   22.0700 C   0  0  0  0  0  3  0  0  0  0  0  0
  -22.4850   -8.2130   21.3380 C   0  0  0  0  0  0  0  0  0  0  0  0
  -22.0540   -9.1810   20.4140 C   0  0  0  0  0  3  0  0  0  0  0  0
  -22.7790  -10.3710   20.2350 C   0  0  0  0  0  3  0  0  0  0  0  0
  -21.7280   -7.0700   21.4270 O   0  0  0  0  0  0  0  0  0  0  0  0
  -21.7060   -6.3060   22.5670 C   0  0  0  0  0  0  0  0  0  0  0  0
  -21.3190   -6.8400   23.8160 C   0  0  0  0  0  3  0  0  0  0  0  0
  -21.2470   -6.0030   24.9470 C   0  0  0  0  0  3  0  0  0  0  0  0
  -21.5500   -4.6330   24.8320 C   0  0  0  0  0  0  0  0  0  0  0  0
  -21.9290   -4.0980   23.5880 C   0  0  0  0  0  3  0  0  0  0  0  0
  -22.0050   -4.9330   22.4590 C   0  0  0  0  0  0  0  0  0  0  0  0
  -22.3520   -4.4080   21.2590 F   0  0  0  0  0  0  0  0  0  0  0  0
  -21.4720   -3.8280   25.9160 F   0  0  0  0  0  0  0  0  0  0  0  0
  -22.8370  -13.7080   21.1420 C   0  0  0  0  0  0  0  0  0  0  0  0
  -22.1170  -13.0100   22.0160 N   0  0  0  0  0  0  0  0  0  0  0  0
  -22.3970  -14.7400   20.6370 O   0  0  0  0  0  0  0  0  0  0  0  0
  -22.4820  -12.1740   22.4490 H   0  0  0  0  0  0  0  0  0  0  0  0
  -21.1850  -13.3170   22.2530 H   0  0  0  0  0  0  0  0  0  0  0  0
  -25.4600  -15.3690   20.2900 N   0  0  0  0  0  0  0  0  0  0  0  0
  -24.6880  -16.0190   20.4050 H   0  0  0  0  0  0  0  0  0  0  0  0
  -26.2910  -15.8030   19.9110 H   0  0  0  0  0  0  0  0  0  0  0  0
  -29.9360  -23.4670   16.3400 C   0  0  0  0  0  1  0  0  0  0  0  0
  -29.5910  -22.8480   17.6290 N   0  0  0  0  0  0  0  0  0  0  0  0
  -28.2700  -23.3640   18.0270 C   0  0  0  0  0  2  0  0  0  0  0  0
  -28.3590  -24.4610   19.1120 C   0  0  0  0  0  2  0  0  0  0  0  0
  -28.7890  -25.8490   18.5980 C   0  0  0  0  0  2  0  0  0  0  0  0
  -28.5850  -26.8830   19.5610 O   0  0  0  0  0  0  0  0  0  0  0  0
  -24.6260  -31.6430   23.0370 C   0  0  0  0  0  0  0  0  0  0  0  0
  -27.3570  -27.5070   19.6260 C   0  0  0  0  0  0  0  0  0  0  0  0
  -23.4290  -30.2960   21.3420 C   0  0  0  0  0  3  0  0  0  0  0  0
  -24.9000  -28.9000   19.7960 C   0  0  0  0  0  0  0  0  0  0  0  0
  -25.9320  -30.7590   21.1100 C   0  0  0  0  0  2  0  0  0  0  0  0
  -26.0490  -29.4310   20.3930 C   0  0  0  0  0  0  0  0  0  0  0  0
  -27.2740  -28.7360   20.3180 C   0  0  0  0  0  3  0  0  0  0  0  0
  -26.1830  -26.9800   19.0360 C   0  0  0  0  0  3  0  0  0  0  0  0
  -24.9610  -27.6710   19.1200 C   0  0  0  0  0  3  0  0  0  0  0  0
  -23.6260  -29.7050   19.9190 C   0  0  0  0  0  2  0  0  0  0  0  0
  -24.6810  -30.9130   21.8870 N   0  0  0  0  0  0  0  0  0  0  0  0
  -23.5510  -31.8410   23.6170 O   0  0  0  0  0  0  0  0  0  0  0  0
  -22.8420  -29.1950   22.2540 C   0  0  0  0  0  0  0  0  0  0  0  0
  -21.5190  -28.9810   22.1550 N   0  0  0  0  0  0  0  0  0  0  0  0
  -23.5700  -28.5400   23.0040 O   0  0  0  0  0  0  0  0  0  0  0  0
  -20.9910  -29.5640   21.5210 H   0  0  0  0  0  0  0  0  0  0  0  0
  -18.1980  -27.6700   22.6920 C   0  0  0  0  0  0  0  0  0  0  0  0
  -20.7560  -27.9730   22.8890 C   0  0  0  0  0  3  0  0  0  0  0  0
  -20.8710  -26.5860   22.2140 C   0  0  0  0  0  2  0  0  0  0  0  0
  -19.7400  -26.3040   21.2200 C   0  0  0  0  0  2  0  0  0  0  0  0
  -18.3810  -26.3720   21.9210 C   0  0  0  0  0  2  0  0  0  0  0  0
  -19.3140  -28.4280   23.1330 C   0  0  0  0  0  0  0  0  0  0  0  0
  -19.0890  -29.6440   23.8140 C   0  0  0  0  0  3  0  0  0  0  0  0
  -17.7820  -30.1010   24.0600 C   0  0  0  0  0  3  0  0  0  0  0  0
  -16.6800  -29.3380   23.6350 C   0  0  0  0  0  3  0  0  0  0  0  0
  -16.8890  -28.1250   22.9570 C   0  0  0  0  0  3  0  0  0  0  0  0
  -25.9060  -32.2820   23.6620 C   0  0  0  0  0  3  0  0  0  0  0  0
  -25.5590  -33.6520   24.0660 N   0  0  0  0  0  0  0  0  0  0  0  0
  -25.8410  -34.7500   23.3530 C   0  0  0  0  0  0  0  0  0  0  0  0
  -26.4950  -34.7190   22.3060 O   0  0  0  0  0  0  0  0  0  0  0  0
  -24.9740  -33.7470   24.8830 H   0  0  0  0  0  0  0  0  0  0  0  0
  -24.0490  -36.4980   23.1170 C   0  0  0  0  0  1  0  0  0  0  0  0
  -25.3170  -36.0960   23.8860 C   0  0  0  0  0  3  0  0  0  0  0  0
  -27.4350  -37.0100   24.7260 C   0  0  0  0  0  1  0  0  0  0  0  0
  -26.3110  -37.1880   23.8100 N   0  0  0  0  0  0  0  0  0  0  0  0
  -25.8770  -38.0850   24.0110 H   0  0  0  0  0  0  0  0  0  0  0  0
  -26.4780  -31.4670   24.8860 C   0  0  1  0  0  0  0  0  0  0  0  0
  -25.4200  -31.1450   25.9660 C   0  0  0  0  0  1  0  0  0  0  0  0
  -27.0930  -30.1280   24.4130 C   0  0  0  0  0  1  0  0  0  0  0  0
  -27.6200  -32.2640   25.5610 C   0  0  0  0  0  1  0  0  0  0  0  0
  -31.8140  -19.9000   23.9300 C   0  0  0  0  0  1  0  0  0  0  0  0
  -31.9680  -21.1610   23.2950 O   0  0  0  0  0  0  0  0  0  0  0  0
  1  2  1  0
  2  6  2  0
  3  4  1  0
  3  1  2  0
  4  5  2  0
  5  6  1  0
  5 11  1  0
  6103  1  0
  7  3  1  0
  8 10  1  0
  8  7  1  0
  9 12  1  0
  9  4  1  0
 10 57  1  0
 10  9  1  0
 12 15  1  0
 13 12  1  0
 14 12  1  0
 17 16  1  0
 17 15  1  0
 17 26  1  0
 18 24  1  0
 19 24  1  0
 20 21  1  0
 20 19  1  0
 22 21  1  0
 22 31  1  0
 22 23  1  0
 24 23  1  0
 25 18  2  0
 26 18  1  0
 26 27  1  0
 28 29  2  0
 29 48  1  0
 30 29  1  0
 30 33  1  0
 31 32  1  0
 31 28  1  0
 32 30  2  0
 33 34  1  0
 34 35  2  0
 36 39  1  0
 36 35  1  0
 37 36  2  0
 38 37  1  0
 38 33  2  0
 39 40  1  0
 40 41  1  0
 41 42  2  0
 43 42  1  0
 43 47  1  0
 44 43  2  0
 45 40  2  0
 45 44  1  0
 46 45  1  0
 48 49  1  0
 49 52  1  0
 49 51  1  0
 50 48  2  0
 53 54  1  0
 53 28  1  0
 55 53  1  0
 56 57  1  0
 57 58  1  0
 58 59  1  0
 60 59  1  0
 60 61  1  0
 61 63  1  0
 62 73  2  0
 63 68  1  0
 64 72  1  0
 64 74  1  0
 65 71  1  0
 65 67  1  0
 66 72  1  0
 67 66  1  0
 68 67  2  0
 69 70  1  0
 69 63  2  0
 70 65  2  0
 71 64  1  0
 72 62  1  0
 74 76  2  0
 75 74  1  0
 77 75  1  0
 78 87  2  0
 78 83  1  0
 79 75  1  0
 79 83  1  0
 80 79  1  0
 81 82  1  0
 81 80  1  0
 82 78  1  0
 83 84  2  0
 84 85  1  0
 86 85  2  0
 87 86  1  0
 88 62  1  0
 88 89  1  0
 88 98  1  0
 89 92  1  0
 90 94  1  0
 90 89  1  0
 91 90  2  0
 94 93  1  0
 96 94  1  0
 96 97  1  0
 96 95  1  0
 98101  1  1
 98 99  1  0
100 98  1  0
103102  1  0
M  ISO  4  18 100  26 100  60 101  61 101
M  END
>  <TORSDO>  (73) 
F 24

>  <SCORE>  (73) 
-12.208

>  <name>  (73) 
72

>  <ligand_id>  (73) 
72

>  <original_smiles>  (73) 
[H]c1c([H])c([H])c2c(c1[H])C([H])([H])C([H])([H])C([H])([H])C2([H])N([H])C(=O)C1([H])N(C(=O)C([H])(N([H])C(=O)C([H])(N([H])C([H])([H])[H])C([H])([H])[H])C(C([H])([H])[H])(C([H])([H])[H])C([H])([H])[H])C([H])([H])c2c([H])c(OC([H])([H])C([H])([H])C([H])([H])N(C([H])([H])[H])C3([H])C([H])([H])C([H])([H])c4c([H])c([H])c(OC([H])([H])[H])c(C([H])([H])[H])c4C3([H])[N+]([H])([H])C([H])([H])C([H])(N([H])C(=O)N3C([H])([H])C([H])([H])C([H])([H])C([H])(n4nc(-c5c([H])c([H])c(Oc6c([H])c([H])c(F)c([H])c6F)c([H])c5[H])c(C(=O)N([H])[H])c4N([H])[H])C3([H])[H])C([H])([H])[H])c([H])c([H])c2C1([H])[H]

>  <smiles>  (73) 
[H]c1c([H])c([H])c2c(c1[H])C([H])([H])C([H])([H])C([H])([H])C2([H])N([H])C(=O)C1([H])N(C(=O)C([H])(N([H])C(=O)C([H])(N([H])C([H])([H])[H])C([H])([H])[H])C(C([H])([H])[H])(C([H])([H])[H])C([H])([H])[H])C([H])([H])c2c([H])c(OC([H])([H])C([H])([H])C([H])([H])N(C([H])([H])[H])C3([H])C([H])([H])C([H])([H])c4c([H])c([H])c(OC([H])([H])[H])c(C([H])([H])[H])c4C3([H])[N+]([H])([H])C([H])([H])C([H])(N([H])C(=O)N3C([H])([H])C([H])([H])C([H])([H])C([H])(n4nc(-c5c([H])c([H])c(Oc6c([H])c([H])c(F)c([H])c6F)c([H])c5[H])c(C(=O)N([H])[H])c4N([H])[H])C3([H])[H])C([H])([H])[H])c([H])c([H])c2C1([H])[H]

$$$$
73:0:0
     RDKit          3D

 96105  0  0  1  0  0  0  0  0999 V2000
  -30.8440  -20.4780   19.6570 C   0  0  0  0  0  3  0  0  0  0  0  0
  -29.7180  -22.6310   19.8780 C   0  0  0  0  0  0  0  0  0  0  0  0
  -30.3760  -20.0680   20.9220 C   0  0  0  0  0  0  0  0  0  0  0  0
  -29.2730  -22.2600   21.1730 C   0  0  0  0  0  0  0  0  0  0  0  0
  -29.5810  -20.9700   21.6890 C   0  0  0  0  0  0  0  0  0  0  0  0
  -30.4980  -21.7340   19.1220 C   0  0  0  0  0  0  0  0  0  0  0  0
  -28.4340  -23.2390   21.9950 C   0  0  0  0  0  1  0  0  0  0  0  0
  -29.0290  -20.5500   23.0540 C   0  0  0  0  0  1  0  0  0  0  0  0
  -31.3300  -14.8580   19.9080 C   0  0  0  0  0  0  0  0  0  0  0  0
  -30.8900  -12.7580   18.6630 C   0  0  0  0  0  2  0  0  0  0  0  0
  -29.8510  -12.9710   17.5430 C   0  0  0  0  0  2  0  0  0  0  0  0
  -28.4100  -12.8470   18.0810 C   0  0  0  0  0  2  0  0  0  0  0  0
  -28.1970  -13.6650   19.3800 C   0  0  0  0  0  3  0  0  0  0  0  0
  -29.3270  -13.3420   20.3910 C   0  0  0  0  0  2  0  0  0  0  0  0
  -30.6040  -13.7060   19.7590 N   0  0  0  0  0  0  0  0  0  0  0  0
  -32.3410  -15.0580   19.2220 O   0  0  0  0  0  0  0  0  0  0  0  0
  -29.5590  -17.7140   20.7570 C   0  0  0  0  0  2  0  0  0  0  0  0
  -32.0150  -18.0150   21.1170 C   0  0  0  0  0  2  0  0  0  0  0  0
  -29.6970  -16.2740   21.2580 C   0  0  0  0  0  2  0  0  0  0  0  0
  -32.0760  -16.5340   21.5790 C   0  0  0  0  0  2  0  0  0  0  0  0
  -30.6180  -18.6250   21.3860 C   0  0  0  0  0  3  0  0  0  0  0  0
  -31.0260  -15.7120   20.9360 N   0  0  0  0  0  0  0  0  0  0  0  0
  -25.9050  -14.3630   20.3310 C   0  0  0  0  0  0  0  0  0  0  0  0
  -24.8300  -13.6250   20.7480 C   0  0  0  0  0  0  0  0  0  0  0  0
  -25.2030  -12.2560   20.5800 C   0  0  0  0  0  0  0  0  0  0  0  0
  -26.8730  -13.4420   19.9530 N   0  0  0  0  0  0  0  0  0  0  0  0
  -26.4550  -12.1680   20.1530 N   0  0  0  0  0  0  0  0  0  0  0  0
  -24.4230  -11.0240   20.7440 C   0  0  0  0  0  0  0  0  0  0  0  0
  -24.8430   -9.9940   21.6140 C   0  0  0  0  0  3  0  0  0  0  0  0
  -24.0660   -8.8260   21.7670 C   0  0  0  0  0  3  0  0  0  0  0  0
  -22.8540   -8.6810   21.0490 C   0  0  0  0  0  0  0  0  0  0  0  0
  -22.4530   -9.6990   20.1660 C   0  0  0  0  0  3  0  0  0  0  0  0
  -23.2320  -10.8580   20.0100 C   0  0  0  0  0  3  0  0  0  0  0  0
  -22.0470   -7.5710   21.1200 O   0  0  0  0  0  0  0  0  0  0  0  0
  -21.9530   -6.8210   22.2640 C   0  0  0  0  0  0  0  0  0  0  0  0
  -21.5290   -7.3820   23.4890 C   0  0  0  0  0  3  0  0  0  0  0  0
  -21.3790   -6.5610   24.6240 C   0  0  0  0  0  3  0  0  0  0  0  0
  -21.6420   -5.1810   24.5350 C   0  0  0  0  0  0  0  0  0  0  0  0
  -22.0600   -4.6210   23.3150 C   0  0  0  0  0  3  0  0  0  0  0  0
  -22.2130   -5.4380   22.1820 C   0  0  0  0  0  0  0  0  0  0  0  0
  -22.5970   -4.8900   21.0040 F   0  0  0  0  0  0  0  0  0  0  0  0
  -21.4880   -4.3880   25.6220 F   0  0  0  0  0  0  0  0  0  0  0  0
  -23.4940  -14.1540   21.1840 C   0  0  0  0  0  0  0  0  0  0  0  0
  -22.8090  -13.4380   22.0700 N   0  0  0  0  0  0  0  0  0  0  0  0
  -23.0690  -15.2340   20.7740 O   0  0  0  0  0  0  0  0  0  0  0  0
  -23.1650  -12.5590   22.4160 H   0  0  0  0  0  0  0  0  0  0  0  0
  -21.9170  -13.7730   22.4070 H   0  0  0  0  0  0  0  0  0  0  0  0
  -26.1270  -15.7320   20.2210 N   0  0  0  0  0  0  0  0  0  0  0  0
  -25.3870  -16.4020   20.3940 H   0  0  0  0  0  0  0  0  0  0  0  0
  -26.9380  -16.1450   19.7790 H   0  0  0  0  0  0  0  0  0  0  0  0
  -29.2470  -23.8710   19.2420 C   0  0  0  0  0  3  0  0  0  0  0  0
  -29.8880  -25.0470   19.3030 C   0  0  0  0  0  3  0  0  0  0  0  0
  -29.4010  -26.3190   18.6480 C   0  0  0  0  0  2  0  0  0  0  0  0
  -28.9850  -27.2390   19.6500 O   0  0  0  0  0  0  0  0  0  0  0  0
  -24.5750  -31.6020   23.0590 C   0  0  0  0  0  0  0  0  0  0  0  0
  -27.7030  -27.7440   19.6680 C   0  0  0  0  0  0  0  0  0  0  0  0
  -23.5340  -30.2240   21.2830 C   0  0  0  0  0  3  0  0  0  0  0  0
  -25.1500  -28.9570   19.7720 C   0  0  0  0  0  0  0  0  0  0  0  0
  -26.0080  -30.8540   21.1630 C   0  0  0  0  0  2  0  0  0  0  0  0
  -26.2350  -29.5550   20.4220 C   0  0  0  0  0  0  0  0  0  0  0  0
  -27.5060  -28.9490   20.3750 C   0  0  0  0  0  3  0  0  0  0  0  0
  -26.5890  -27.1330   19.0410 C   0  0  0  0  0  3  0  0  0  0  0  0
  -25.3200  -27.7410   19.0870 C   0  0  0  0  0  3  0  0  0  0  0  0
  -23.8250  -29.6800   19.8590 C   0  0  0  0  0  2  0  0  0  0  0  0
  -24.7220  -30.9060   21.8950 N   0  0  0  0  0  0  0  0  0  0  0  0
  -23.4650  -31.7220   23.5970 O   0  0  0  0  0  0  0  0  0  0  0  0
  -22.9780  -29.0700   22.1480 C   0  0  0  0  0  0  0  0  0  0  0  0
  -21.6850  -28.7560   21.9620 N   0  0  0  0  0  0  0  0  0  0  0  0
  -23.7050  -28.4660   22.9400 O   0  0  0  0  0  0  0  0  0  0  0  0
  -21.1580  -29.3110   21.3020 H   0  0  0  0  0  0  0  0  0  0  0  0
  -18.4580  -27.1490   22.2120 C   0  0  0  0  0  0  0  0  0  0  0  0
  -20.9540  -27.6810   22.6290 C   0  0  0  0  0  3  0  0  0  0  0  0
  -21.2500  -26.3150   21.9720 C   0  0  0  0  0  2  0  0  0  0  0  0
  -20.2370  -25.9340   20.8860 C   0  0  0  0  0  2  0  0  0  0  0  0
  -18.8210  -25.8770   21.4660 C   0  0  0  0  0  2  0  0  0  0  0  0
  -19.4600  -28.0040   22.7440 C   0  0  0  0  0  0  0  0  0  0  0  0
  -19.0680  -29.1920   23.3990 C   0  0  0  0  0  3  0  0  0  0  0  0
  -17.7080  -29.5300   23.5270 C   0  0  0  0  0  3  0  0  0  0  0  0
  -16.7190  -28.6700   23.0130 C   0  0  0  0  0  3  0  0  0  0  0  0
  -17.0960  -27.4820   22.3610 C   0  0  0  0  0  3  0  0  0  0  0  0
  -25.7860  -32.2980   23.7550 C   0  0  0  0  0  3  0  0  0  0  0  0
  -26.3070  -31.5220   25.0260 C   0  0  1  0  0  0  0  0  0  0  0  0
  -25.1960  -31.1800   26.0470 C   0  0  0  0  0  1  0  0  0  0  0  0
  -26.9890  -30.1980   24.6110 C   0  0  0  0  0  1  0  0  0  0  0  0
  -27.3760  -32.3690   25.7570 C   0  0  0  0  0  1  0  0  0  0  0  0
  -25.3640  -33.6590   24.1130 N   0  0  0  0  0  0  0  0  0  0  0  0
  -25.6620  -34.7580   23.4070 C   0  0  0  0  0  0  0  0  0  0  0  0
  -26.3920  -34.7390   22.4110 O   0  0  0  0  0  0  0  0  0  0  0  0
  -24.7160  -33.7430   24.8810 H   0  0  0  0  0  0  0  0  0  0  0  0
  -23.8260  -36.4330   23.0140 C   0  0  0  0  0  1  0  0  0  0  0  0
  -25.0500  -36.0910   23.8790 C   0  0  0  0  0  3  0  0  0  0  0  0
  -27.0770  -37.0900   24.8420 C   0  0  0  0  0  1  0  0  0  0  0  0
  -26.0040  -37.2210   23.8590 N   0  0  0  0  0  0  0  0  0  0  0  0
  -25.5220  -38.0990   24.0330 H   0  0  0  0  0  0  0  0  0  0  0  0
  -30.4590  -21.2100   16.8310 C   0  0  0  0  0  1  0  0  0  0  0  0
  -30.8990  -22.0900   17.8580 O   0  0  0  0  0  0  0  0  0  0  0  0
  1  3  1  0
  2  4  2  0
  3  5  2  0
  4  5  1  0
  4  7  1  0
  5  8  1  0
  6  1  2  0
  6  2  1  0
  9 22  1  0
 10 15  1  0
 11 12  1  0
 11 10  1  0
 13 12  1  0
 13 26  1  0
 13 14  1  0
 15  9  1  0
 15 14  1  0
 16  9  2  0
 17 19  1  0
 17 21  1  0
 18 21  1  0
 18 20  1  0
 21  3  1  0
 22 19  1  0
 22 20  1  0
 23 24  2  0
 24 43  1  0
 25 28  1  0
 25 24  1  0
 26 27  1  0
 26 23  1  0
 27 25  2  0
 28 29  1  0
 29 30  2  0
 31 34  1  0
 31 30  1  0
 32 31  2  0
 33 32  1  0
 33 28  2  0
 34 35  1  0
 35 36  1  0
 36 37  2  0
 38 37  1  0
 38 42  1  0
 39 38  2  0
 40 35  2  0
 40 39  1  0
 41 40  1  0
 43 44  1  0
 44 47  1  0
 44 46  1  0
 45 43  2  0
 48 23  1  0
 48 49  1  0
 50 48  1  0
 51 52  2  0
 51  2  1  0
 53 52  1  0
 53 54  1  0
 54 56  1  0
 55 66  2  0
 56 61  1  0
 57 65  1  0
 57 67  1  0
 58 64  1  0
 58 60  1  0
 59 65  1  0
 60 59  1  0
 61 60  2  0
 62 63  1  0
 62 56  2  0
 63 58  2  0
 64 57  1  0
 65 55  1  0
 67 69  2  0
 68 67  1  0
 70 68  1  0
 71 80  2  0
 71 76  1  0
 72 68  1  0
 72 76  1  0
 73 72  1  0
 74 75  1  0
 74 73  1  0
 75 71  1  0
 76 77  2  0
 77 78  1  0
 79 78  2  0
 80 79  1  0
 81 55  1  0
 81 86  1  0
 81 82  1  0
 82 85  1  1
 82 83  1  0
 84 82  1  0
 86 89  1  0
 87 91  1  0
 87 86  1  0
 88 87  2  0
 91 90  1  0
 93 91  1  0
 93 94  1  0
 93 92  1  0
 95 96  1  0
 96  6  1  0
M  ISO  4   9 100  22 100  53 101  54 101
M  END
>  <TORSDO>  (74) 
F 19

>  <SCORE>  (74) 
-9.415

>  <name>  (74) 
73

>  <ligand_id>  (74) 
73

>  <original_smiles>  (74) 
[H]C(=C([H])C([H])([H])Oc1c([H])c([H])c2c(c1[H])C([H])([H])N(C(=O)C([H])(N([H])C(=O)C([H])(N([H])C([H])([H])[H])C([H])([H])[H])C(C([H])([H])[H])(C([H])([H])[H])C([H])([H])[H])C([H])(C(=O)N([H])C1([H])c3c([H])c([H])c([H])c([H])c3C([H])([H])C([H])([H])C1([H])[H])C2([H])[H])c1c(OC([H])([H])[H])c([H])c(C2([H])C([H])([H])C([H])([H])N(C(=O)N3C([H])([H])C([H])([H])C([H])([H])C([H])(n4nc(-c5c([H])c([H])c(Oc6c([H])c([H])c(F)c([H])c6F)c([H])c5[H])c(C(=O)N([H])[H])c4N([H])[H])C3([H])[H])C([H])([H])C2([H])[H])c(C([H])([H])[H])c1C([H])([H])[H]

>  <smiles>  (74) 
[H]C(=C([H])C([H])([H])Oc1c([H])c([H])c2c(c1[H])C([H])([H])N(C(=O)C([H])(N([H])C(=O)C([H])(N([H])C([H])([H])[H])C([H])([H])[H])C(C([H])([H])[H])(C([H])([H])[H])C([H])([H])[H])C([H])(C(=O)N([H])C1([H])c3c([H])c([H])c([H])c([H])c3C([H])([H])C([H])([H])C1([H])[H])C2([H])[H])c1c(OC([H])([H])[H])c([H])c(C2([H])C([H])([H])C([H])([H])N(C(=O)N3C([H])([H])C([H])([H])C([H])([H])C([H])(n4nc(-c5c([H])c([H])c(Oc6c([H])c([H])c(F)c([H])c6F)c([H])c5[H])c(C(=O)N([H])[H])c4N([H])[H])C3([H])[H])C([H])([H])C2([H])[H])c(C([H])([H])[H])c1C([H])([H])[H]

$$$$
74:0:0
     RDKit          3D

 97106  0  0  1  0  0  0  0  0999 V2000
  -30.0770  -22.0100   19.0080 C   0  0  0  0  0  3  0  0  0  0  0  0
  -30.0740  -20.1890   20.6600 C   0  0  0  0  0  0  0  0  0  0  0  0
  -30.3800  -20.6800   19.3580 C   0  0  0  0  0  0  0  0  0  0  0  0
  -29.3990  -21.0740   21.5660 C   0  0  0  0  0  0  0  0  0  0  0  0
  -29.1610  -22.4440   21.2220 C   0  0  0  0  0  0  0  0  0  0  0  0
  -29.4710  -22.9000   19.9170 C   0  0  0  0  0  0  0  0  0  0  0  0
  -30.9790  -19.8190   18.2570 C   0  0  0  0  0  1  0  0  0  0  0  0
  -28.8630  -20.5560   22.9070 C   0  0  0  0  0  1  0  0  0  0  0  0
  -31.2240  -14.8490   20.0470 C   0  0  0  0  0  0  0  0  0  0  0  0
  -30.8340  -12.7000   18.8700 C   0  0  0  0  0  2  0  0  0  0  0  0
  -29.8230  -12.8790   17.7180 C   0  0  0  0  0  2  0  0  0  0  0  0
  -28.3770  -12.7260   18.2290 C   0  0  0  0  0  2  0  0  0  0  0  0
  -28.1150  -13.5800   19.4930 C   0  0  0  0  0  3  0  0  0  0  0  0
  -29.2280  -13.3270   20.5450 C   0  0  0  0  0  2  0  0  0  0  0  0
  -30.5130  -13.6850   19.9250 N   0  0  0  0  0  0  0  0  0  0  0  0
  -32.2730  -15.0080   19.4090 O   0  0  0  0  0  0  0  0  0  0  0  0
  -29.3390  -17.7360   20.5260 C   0  0  0  0  0  2  0  0  0  0  0  0
  -31.7870  -18.1270   20.9410 C   0  0  0  0  0  2  0  0  0  0  0  0
  -29.4950  -16.3540   21.1820 C   0  0  0  0  0  2  0  0  0  0  0  0
  -31.8510  -16.7040   21.5670 C   0  0  0  0  0  2  0  0  0  0  0  0
  -30.3650  -18.7240   21.0950 C   0  0  0  0  0  3  0  0  0  0  0  0
  -30.8470  -15.7920   20.9700 N   0  0  0  0  0  0  0  0  0  0  0  0
  -25.7940  -14.2550   20.3890 C   0  0  0  0  0  0  0  0  0  0  0  0
  -24.7210  -13.5050   20.7890 C   0  0  0  0  0  0  0  0  0  0  0  0
  -25.1220  -12.1410   20.6550 C   0  0  0  0  0  0  0  0  0  0  0  0
  -26.7840  -13.3450   20.0430 N   0  0  0  0  0  0  0  0  0  0  0  0
  -26.3850  -12.0670   20.2590 N   0  0  0  0  0  0  0  0  0  0  0  0
  -24.3600  -10.8990   20.8220 C   0  0  0  0  0  0  0  0  0  0  0  0
  -24.7600   -9.9080   21.7450 C   0  0  0  0  0  3  0  0  0  0  0  0
  -24.0020   -8.7280   21.9010 C   0  0  0  0  0  3  0  0  0  0  0  0
  -22.8300   -8.5320   21.1330 C   0  0  0  0  0  0  0  0  0  0  0  0
  -22.4490   -9.5110   20.1990 C   0  0  0  0  0  3  0  0  0  0  0  0
  -23.2080  -10.6820   20.0410 C   0  0  0  0  0  3  0  0  0  0  0  0
  -22.0450   -7.4060   21.2000 O   0  0  0  0  0  0  0  0  0  0  0  0
  -21.8810   -6.7120   22.3710 C   0  0  0  0  0  0  0  0  0  0  0  0
  -21.3610   -7.3210   23.5330 C   0  0  0  0  0  3  0  0  0  0  0  0
  -21.1420   -6.5540   24.6930 C   0  0  0  0  0  3  0  0  0  0  0  0
  -21.4350   -5.1760   24.6930 C   0  0  0  0  0  0  0  0  0  0  0  0
  -21.9490   -4.5660   23.5350 C   0  0  0  0  0  3  0  0  0  0  0  0
  -22.1680   -5.3320   22.3760 C   0  0  0  0  0  0  0  0  0  0  0  0
  -22.6430   -4.7340   21.2570 F   0  0  0  0  0  0  0  0  0  0  0  0
  -21.2190   -4.4360   25.8050 F   0  0  0  0  0  0  0  0  0  0  0  0
  -23.3650  -14.0180   21.1820 C   0  0  0  0  0  0  0  0  0  0  0  0
  -22.6700  -13.3020   22.0590 N   0  0  0  0  0  0  0  0  0  0  0  0
  -22.9320  -15.0840   20.7450 O   0  0  0  0  0  0  0  0  0  0  0  0
  -23.0320  -12.4380   22.4320 H   0  0  0  0  0  0  0  0  0  0  0  0
  -21.7620  -13.6250   22.3620 H   0  0  0  0  0  0  0  0  0  0  0  0
  -25.9990  -15.6260   20.2680 N   0  0  0  0  0  0  0  0  0  0  0  0
  -25.2610  -16.2970   20.4520 H   0  0  0  0  0  0  0  0  0  0  0  0
  -26.8320  -16.0520   19.8820 H   0  0  0  0  0  0  0  0  0  0  0  0
  -27.1230  -23.8420   21.8870 C   0  0  0  0  0  1  0  0  0  0  0  0
  -29.4600  -24.6620   22.5180 C   0  0  0  0  0  1  0  0  0  0  0  0
  -28.5640  -23.4370   22.2450 C   0  0  0  0  0  3  0  0  0  0  0  0
  -29.0820  -24.1710   19.5430 O   0  0  0  0  0  0  0  0  0  0  0  0
  -29.9960  -24.9930   18.8210 C   0  0  0  0  0  2  0  0  0  0  0  0
  -29.2980  -26.3040   18.4170 C   0  0  0  0  0  2  0  0  0  0  0  0
  -28.9290  -27.0820   19.5620 O   0  0  0  0  0  0  0  0  0  0  0  0
  -24.7040  -31.6270   23.0370 C   0  0  0  0  0  0  0  0  0  0  0  0
  -27.6780  -27.6640   19.6100 C   0  0  0  0  0  0  0  0  0  0  0  0
  -23.5950  -30.2420   21.3120 C   0  0  0  0  0  3  0  0  0  0  0  0
  -25.1510  -28.9340   19.7730 C   0  0  0  0  0  0  0  0  0  0  0  0
  -26.0770  -30.8280   21.1160 C   0  0  0  0  0  2  0  0  0  0  0  0
  -26.2680  -29.5160   20.3840 C   0  0  0  0  0  0  0  0  0  0  0  0
  -27.5290  -28.8830   20.3100 C   0  0  0  0  0  3  0  0  0  0  0  0
  -26.5320  -27.0740   19.0260 C   0  0  0  0  0  3  0  0  0  0  0  0
  -25.2770  -27.7070   19.0980 C   0  0  0  0  0  3  0  0  0  0  0  0
  -23.8400  -29.6760   19.8880 C   0  0  0  0  0  2  0  0  0  0  0  0
  -24.8100  -30.9110   21.8810 N   0  0  0  0  0  0  0  0  0  0  0  0
  -23.6130  -31.7670   23.6050 O   0  0  0  0  0  0  0  0  0  0  0  0
  -23.0480  -29.1060   22.2060 C   0  0  0  0  0  0  0  0  0  0  0  0
  -21.7460  -28.8100   22.0660 N   0  0  0  0  0  0  0  0  0  0  0  0
  -23.7900  -28.4960   22.9800 O   0  0  0  0  0  0  0  0  0  0  0  0
  -21.2020  -29.3620   21.4170 H   0  0  0  0  0  0  0  0  0  0  0  0
  -18.5050  -27.2640   22.4600 C   0  0  0  0  0  0  0  0  0  0  0  0
  -21.0230  -27.7540   22.7740 C   0  0  0  0  0  3  0  0  0  0  0  0
  -21.2690  -26.3760   22.1180 C   0  0  0  0  0  2  0  0  0  0  0  0
  -20.2100  -26.0060   21.0760 C   0  0  0  0  0  2  0  0  0  0  0  0
  -18.8170  -25.9790   21.7110 C   0  0  0  0  0  2  0  0  0  0  0  0
  -19.5410  -28.1050   22.9450 C   0  0  0  0  0  0  0  0  0  0  0  0
  -19.1970  -29.3060   23.6030 C   0  0  0  0  0  3  0  0  0  0  0  0
  -17.8480  -29.6680   23.7820 C   0  0  0  0  0  3  0  0  0  0  0  0
  -16.8260  -28.8240   23.3140 C   0  0  0  0  0  3  0  0  0  0  0  0
  -17.1550  -27.6230   22.6600 C   0  0  0  0  0  3  0  0  0  0  0  0
  -25.9430  -32.3200   23.6870 C   0  0  0  0  0  3  0  0  0  0  0  0
  -26.5130  -31.5350   24.9310 C   0  0  1  0  0  0  0  0  0  0  0  0
  -25.4410  -31.1820   25.9880 C   0  0  0  0  0  1  0  0  0  0  0  0
  -27.1860  -30.2170   24.4830 C   0  0  0  0  0  1  0  0  0  0  0  0
  -27.6110  -32.3780   25.6240 C   0  0  0  0  0  1  0  0  0  0  0  0
  -25.5380  -33.6780   24.0690 N   0  0  0  0  0  0  0  0  0  0  0  0
  -25.7990  -34.7800   23.3520 C   0  0  0  0  0  0  0  0  0  0  0  0
  -26.4780  -34.7630   22.3200 O   0  0  0  0  0  0  0  0  0  0  0  0
  -24.9320  -33.7610   24.8730 H   0  0  0  0  0  0  0  0  0  0  0  0
  -23.9420  -36.4510   23.0670 C   0  0  0  0  0  1  0  0  0  0  0  0
  -25.2150  -36.1120   23.8590 C   0  0  0  0  0  3  0  0  0  0  0  0
  -27.2840  -37.1220   24.7120 C   0  0  0  0  0  1  0  0  0  0  0  0
  -26.1670  -37.2410   23.7780 N   0  0  0  0  0  0  0  0  0  0  0  0
  -25.6960  -38.1230   23.9590 H   0  0  0  0  0  0  0  0  0  0  0  0
  1  3  2  0
  1  6  1  0
  2  4  2  0
  3  2  1  0
  4  8  1  0
  5  4  1  0
  5 53  1  0
  6  5  2  0
  7  3  1  0
  9 22  1  0
 10 15  1  0
 11 12  1  0
 11 10  1  0
 13 12  1  0
 13 26  1  0
 13 14  1  0
 15  9  1  0
 15 14  1  0
 16  9  2  0
 17 21  1  0
 17 19  1  0
 18 21  1  0
 18 20  1  0
 21  2  1  0
 22 19  1  0
 22 20  1  0
 23 24  2  0
 24 43  1  0
 25 24  1  0
 25 28  1  0
 26 27  1  0
 26 23  1  0
 27 25  2  0
 28 29  1  0
 29 30  2  0
 31 34  1  0
 31 30  1  0
 32 31  2  0
 33 32  1  0
 33 28  2  0
 34 35  1  0
 35 40  2  0
 35 36  1  0
 36 37  2  0
 38 37  1  0
 38 42  1  0
 39 38  2  0
 40 39  1  0
 41 40  1  0
 43 44  1  0
 44 47  1  0
 44 46  1  0
 45 43  2  0
 48 23  1  0
 48 49  1  0
 50 48  1  0
 51 53  1  0
 53 52  1  0
 54  6  1  0
 55 54  1  0
 56 55  1  0
 56 57  1  0
 57 59  1  0
 58 69  2  0
 59 64  1  0
 60 68  1  0
 60 70  1  0
 61 67  1  0
 61 63  1  0
 62 68  1  0
 63 62  1  0
 64 63  2  0
 65 66  1  0
 65 59  2  0
 66 61  2  0
 67 60  1  0
 68 58  1  0
 70 72  2  0
 71 70  1  0
 73 71  1  0
 74 83  2  0
 74 79  1  0
 75 71  1  0
 75 79  1  0
 76 75  1  0
 77 78  1  0
 77 76  1  0
 78 74  1  0
 79 80  2  0
 80 81  1  0
 82 81  2  0
 83 82  1  0
 84 58  1  0
 84 89  1  0
 84 85  1  0
 85 88  1  1
 85 86  1  0
 87 85  1  0
 89 92  1  0
 90 94  1  0
 90 89  1  0
 91 90  2  0
 94 93  1  0
 96 94  1  0
 96 97  1  0
 96 95  1  0
M  ISO  4   9 100  22 100  56 101  57 101
M  END
>  <TORSDO>  (75) 
F 20

>  <SCORE>  (75) 
-9.973

>  <name>  (75) 
74

>  <ligand_id>  (75) 
74

>  <original_smiles>  (75) 
[H]c1c([H])c([H])c2c(c1[H])C([H])([H])C([H])([H])C([H])([H])C2([H])N([H])C(=O)C1([H])N(C(=O)C([H])(N([H])C(=O)C([H])(N([H])C([H])([H])[H])C([H])([H])[H])C(C([H])([H])[H])(C([H])([H])[H])C([H])([H])[H])C([H])([H])c2c([H])c(OC([H])([H])C([H])([H])Oc3c([H])c(C([H])([H])[H])c(C4([H])C([H])([H])C([H])([H])N(C(=O)N5C([H])([H])C([H])([H])C([H])([H])C([H])(n6nc(-c7c([H])c([H])c(Oc8c([H])c([H])c(F)c([H])c8F)c([H])c7[H])c(C(=O)N([H])[H])c6N([H])[H])C5([H])[H])C([H])([H])C4([H])[H])c(C([H])([H])[H])c3C([H])(C([H])([H])[H])C([H])([H])[H])c([H])c([H])c2C1([H])[H]

>  <smiles>  (75) 
[H]c1c([H])c([H])c2c(c1[H])C([H])([H])C([H])([H])C([H])([H])C2([H])N([H])C(=O)C1([H])N(C(=O)C([H])(N([H])C(=O)C([H])(N([H])C([H])([H])[H])C([H])([H])[H])C(C([H])([H])[H])(C([H])([H])[H])C([H])([H])[H])C([H])([H])c2c([H])c(OC([H])([H])C([H])([H])Oc3c([H])c(C([H])([H])[H])c(C4([H])C([H])([H])C([H])([H])N(C(=O)N5C([H])([H])C([H])([H])C([H])([H])C([H])(n6nc(-c7c([H])c([H])c(Oc8c([H])c([H])c(F)c([H])c8F)c([H])c7[H])c(C(=O)N([H])[H])c6N([H])[H])C5([H])[H])C([H])([H])C4([H])[H])c(C([H])([H])[H])c3C([H])(C([H])([H])[H])C([H])([H])[H])c([H])c([H])c2C1([H])[H]

$$$$
75:0:0
     RDKit          3D

 95104  0  0  1  0  0  0  0  0999 V2000
  -29.8230  -22.7340   22.5450 C   0  0  0  0  0  3  0  0  0  0  0  0
  -29.4200  -23.3720   20.2400 C   0  0  0  0  0  3  0  0  0  0  0  0
  -29.5600  -22.3530   21.2160 C   0  0  0  0  0  0  0  0  0  0  0  0
  -29.9870  -24.0850   22.9030 C   0  0  0  0  0  0  0  0  0  0  0  0
  -29.5750  -24.7470   20.5750 C   0  0  0  0  0  0  0  0  0  0  0  0
  -29.8940  -25.1030   21.9190 C   0  0  0  0  0  0  0  0  0  0  0  0
  -30.2790  -24.4090   24.3590 C   0  0  0  0  0  1  0  0  0  0  0  0
  -30.1440  -26.5580   22.3160 C   0  0  0  0  0  1  0  0  0  0  0  0
  -27.9110  -20.5040   20.7330 C   0  0  0  0  0  1  0  0  0  0  0  0
  -29.3960  -20.8540   20.9110 C   0  0  0  0  0  3  0  0  0  0  0  0
  -30.2640  -20.2930   19.7490 C   0  0  0  0  0  2  0  0  0  0  0  0
  -32.1150  -14.7760   20.2700 C   0  0  0  0  0  0  0  0  0  0  0  0
  -31.7170  -12.4820   19.4710 C   0  0  0  0  0  2  0  0  0  0  0  0
  -30.8380  -12.5470   18.2070 C   0  0  0  0  0  2  0  0  0  0  0  0
  -29.3440  -12.5520   18.5890 C   0  0  0  0  0  2  0  0  0  0  0  0
  -29.0080  -13.5900   19.6940 C   0  0  0  0  0  3  0  0  0  0  0  0
  -30.0120  -13.5070   20.8630 C   0  0  0  0  0  2  0  0  0  0  0  0
  -31.3600  -13.6440   20.3010 N   0  0  0  0  0  0  0  0  0  0  0  0
  -33.3080  -14.7480   19.9500 O   0  0  0  0  0  0  0  0  0  0  0  0
  -30.9220  -18.0240   18.7700 C   0  0  0  0  0  2  0  0  0  0  0  0
  -30.3920  -18.0610   21.1640 C   0  0  0  0  0  2  0  0  0  0  0  0
  -31.7860  -16.7670   18.9760 C   0  0  0  0  0  2  0  0  0  0  0  0
  -31.2320  -16.7690   21.3820 C   0  0  0  0  0  2  0  0  0  0  0  0
  -30.9550  -18.9210   20.0140 C   0  0  0  0  0  3  0  0  0  0  0  0
  -31.4320  -15.9540   20.1640 N   0  0  0  0  0  0  0  0  0  0  0  0
  -26.6910  -14.4420   20.4060 C   0  0  0  0  0  0  0  0  0  0  0  0
  -25.5370  -13.7850   20.7380 C   0  0  0  0  0  0  0  0  0  0  0  0
  -25.8410  -12.3900   20.6680 C   0  0  0  0  0  0  0  0  0  0  0  0
  -27.6300  -13.4540   20.1540 N   0  0  0  0  0  0  0  0  0  0  0  0
  -27.1220  -12.2140   20.3720 N   0  0  0  0  0  0  0  0  0  0  0  0
  -24.9740  -11.2150   20.8080 C   0  0  0  0  0  0  0  0  0  0  0  0
  -25.2460  -10.2050   21.7590 C   0  0  0  0  0  3  0  0  0  0  0  0
  -24.3860   -9.0930   21.8870 C   0  0  0  0  0  3  0  0  0  0  0  0
  -23.2400   -8.9830   21.0650 C   0  0  0  0  0  0  0  0  0  0  0  0
  -22.9860   -9.9780   20.1050 C   0  0  0  0  0  3  0  0  0  0  0  0
  -23.8460  -11.0820   19.9740 C   0  0  0  0  0  3  0  0  0  0  0  0
  -22.3620   -7.9260   21.1020 O   0  0  0  0  0  0  0  0  0  0  0  0
  -22.0910   -7.2560   22.2680 C   0  0  0  0  0  0  0  0  0  0  0  0
  -21.5890   -7.9180   23.4090 C   0  0  0  0  0  3  0  0  0  0  0  0
  -21.2600   -7.1800   24.5630 C   0  0  0  0  0  3  0  0  0  0  0  0
  -21.4230   -5.7810   24.5750 C   0  0  0  0  0  0  0  0  0  0  0  0
  -21.9160   -5.1190   23.4370 C   0  0  0  0  0  3  0  0  0  0  0  0
  -22.2480   -5.8550   22.2860 C   0  0  0  0  0  0  0  0  0  0  0  0
  -22.7040   -5.2110   21.1850 F   0  0  0  0  0  0  0  0  0  0  0  0
  -21.0990   -5.0700   25.6800 F   0  0  0  0  0  0  0  0  0  0  0  0
  -24.1990  -14.4110   21.0120 C   0  0  0  0  0  0  0  0  0  0  0  0
  -23.3950  -13.7870   21.8650 N   0  0  0  0  0  0  0  0  0  0  0  0
  -23.8790  -15.4840   20.5040 O   0  0  0  0  0  0  0  0  0  0  0  0
  -23.6660  -12.9160   22.2970 H   0  0  0  0  0  0  0  0  0  0  0  0
  -22.4970  -14.1880   22.0930 H   0  0  0  0  0  0  0  0  0  0  0  0
  -27.0150  -15.7890   20.2770 N   0  0  0  0  0  0  0  0  0  0  0  0
  -26.3350  -16.5280   20.4130 H   0  0  0  0  0  0  0  0  0  0  0  0
  -27.9290  -16.1340   20.0090 H   0  0  0  0  0  0  0  0  0  0  0  0
  -29.4810  -25.7870   19.4450 C   0  0  0  0  0  2  0  0  0  0  0  0
  -29.1800  -27.1320   19.8670 O   0  0  0  0  0  0  0  0  0  0  0  0
  -24.6150  -31.5760   23.0290 C   0  0  0  0  0  0  0  0  0  0  0  0
  -27.9040  -27.6630   19.8350 C   0  0  0  0  0  0  0  0  0  0  0  0
  -23.6630  -30.1670   21.2350 C   0  0  0  0  0  3  0  0  0  0  0  0
  -25.3510  -28.8990   19.8070 C   0  0  0  0  0  0  0  0  0  0  0  0
  -26.1390  -30.8120   21.2080 C   0  0  0  0  0  2  0  0  0  0  0  0
  -26.4110  -29.5030   20.4950 C   0  0  0  0  0  0  0  0  0  0  0  0
  -27.6840  -28.8910   20.5040 C   0  0  0  0  0  3  0  0  0  0  0  0
  -26.8190  -27.0740   19.1430 C   0  0  0  0  0  3  0  0  0  0  0  0
  -25.5520  -27.6850   19.1310 C   0  0  0  0  0  3  0  0  0  0  0  0
  -24.0180  -29.6110   19.8320 C   0  0  0  0  0  2  0  0  0  0  0  0
  -24.8200  -30.8660   21.8850 N   0  0  0  0  0  0  0  0  0  0  0  0
  -23.4850  -31.6870   23.5200 O   0  0  0  0  0  0  0  0  0  0  0  0
  -23.0860  -29.0160   22.0890 C   0  0  0  0  0  0  0  0  0  0  0  0
  -21.7820  -28.7390   21.9200 N   0  0  0  0  0  0  0  0  0  0  0  0
  -23.8070  -28.3770   22.8600 O   0  0  0  0  0  0  0  0  0  0  0  0
  -21.2540  -29.3150   21.2790 H   0  0  0  0  0  0  0  0  0  0  0  0
  -18.4970  -27.2900   22.2990 C   0  0  0  0  0  0  0  0  0  0  0  0
  -21.0370  -27.6730   22.5860 C   0  0  0  0  0  3  0  0  0  0  0  0
  -21.2210  -26.3230   21.8570 C   0  0  0  0  0  2  0  0  0  0  0  0
  -20.1300  -26.0420   20.8200 C   0  0  0  0  0  2  0  0  0  0  0  0
  -18.7490  -26.0330   21.4820 C   0  0  0  0  0  2  0  0  0  0  0  0
  -19.5710  -28.0660   22.8060 C   0  0  0  0  0  0  0  0  0  0  0  0
  -19.2830  -29.2440   23.5300 C   0  0  0  0  0  3  0  0  0  0  0  0
  -17.9530  -29.6450   23.7530 C   0  0  0  0  0  3  0  0  0  0  0  0
  -16.8920  -28.8620   23.2660 C   0  0  0  0  0  3  0  0  0  0  0  0
  -17.1650  -27.6860   22.5430 C   0  0  0  0  0  3  0  0  0  0  0  0
  -25.7870  -32.3010   23.7630 C   0  0  0  0  0  3  0  0  0  0  0  0
  -26.2660  -31.5520   25.0650 C   0  0  1  0  0  0  0  0  0  0  0  0
  -25.1170  -31.1950   26.0360 C   0  0  0  0  0  1  0  0  0  0  0  0
  -27.0010  -30.2410   24.7000 C   0  0  0  0  0  1  0  0  0  0  0  0
  -27.2840  -32.4300   25.8310 C   0  0  0  0  0  1  0  0  0  0  0  0
  -25.3340  -33.6620   24.0830 N   0  0  0  0  0  0  0  0  0  0  0  0
  -25.6610  -34.7580   23.3860 C   0  0  0  0  0  0  0  0  0  0  0  0
  -26.4450  -34.7350   22.4320 O   0  0  0  0  0  0  0  0  0  0  0  0
  -24.6460  -33.7480   24.8180 H   0  0  0  0  0  0  0  0  0  0  0  0
  -23.8480  -36.4200   22.8710 C   0  0  0  0  0  1  0  0  0  0  0  0
  -25.0160  -36.0900   23.8120 C   0  0  0  0  0  3  0  0  0  0  0  0
  -26.9700  -37.1090   24.8970 C   0  0  0  0  0  1  0  0  0  0  0  0
  -25.9690  -37.2220   23.8380 N   0  0  0  0  0  0  0  0  0  0  0  0
  -25.4790  -38.1040   23.9590 H   0  0  0  0  0  0  0  0  0  0  0  0
  1  4  1  0
  2  5  2  0
  2  3  1  0
  3  1  2  0
  4  7  1  0
  5  6  1  0
  6  8  1  0
  6  4  2  0
 10  9  1  0
 10  3  1  0
 11 10  1  0
 12 18  1  0
 13 18  1  0
 14 15  1  0
 14 13  1  0
 16 15  1  0
 16 29  1  0
 16 17  1  0
 18 17  1  0
 19 12  2  0
 20 22  1  0
 20 24  1  0
 21 23  1  0
 22 25  1  0
 24 11  1  0
 24 21  1  0
 25 12  1  0
 25 23  1  0
 26 27  2  0
 27 46  1  0
 28 27  1  0
 28 31  1  0
 29 30  1  0
 29 26  1  0
 30 28  2  0
 31 32  1  0
 32 33  2  0
 34 37  1  0
 34 33  1  0
 35 34  2  0
 36 35  1  0
 36 31  2  0
 37 38  1  0
 38 43  2  0
 38 39  1  0
 39 40  2  0
 40 41  1  0
 41 45  1  0
 42 41  2  0
 43 42  1  0
 44 43  1  0
 46 47  1  0
 47 50  1  0
 47 49  1  0
 48 46  2  0
 51 26  1  0
 51 52  1  0
 53 51  1  0
 54 55  1  0
 54  5  1  0
 56 67  2  0
 57 55  1  0
 57 62  1  0
 58 66  1  0
 58 68  1  0
 59 65  1  0
 59 61  1  0
 60 66  1  0
 61 62  2  0
 61 60  1  0
 63 57  2  0
 64 63  1  0
 64 59  2  0
 65 58  1  0
 66 56  1  0
 68 70  2  0
 69 68  1  0
 71 69  1  0
 72 81  2  0
 72 77  1  0
 73 69  1  0
 73 77  1  0
 74 73  1  0
 75 76  1  0
 75 74  1  0
 76 72  1  0
 77 78  2  0
 78 79  1  0
 80 79  2  0
 81 80  1  0
 82 56  1  0
 82 87  1  0
 82 83  1  0
 83 86  1  1
 83 84  1  0
 85 83  1  0
 87 90  1  0
 88 92  1  0
 88 87  1  0
 89 88  2  0
 92 91  1  0
 92 94  1  0
 94 95  1  0
 94 93  1  0
M  ISO  4  12 100  25 100  54 101  55 101
M  END
>  <TORSDO>  (76) 
F 19

>  <SCORE>  (76) 
-10.069

>  <name>  (76) 
75

>  <ligand_id>  (76) 
75

>  <original_smiles>  (76) 
[H]c1c([H])c([H])c2c(c1[H])C([H])([H])C([H])([H])C([H])([H])C2([H])N([H])C(=O)C1([H])N(C(=O)C([H])(N([H])C(=O)C([H])(N([H])C([H])([H])[H])C([H])([H])[H])C(C([H])([H])[H])(C([H])([H])[H])C([H])([H])[H])C([H])([H])c2c([H])c(OC([H])([H])c3c([H])c(C([H])(C([H])([H])[H])C([H])([H])C4([H])C([H])([H])C([H])([H])N(C(=O)N5C([H])([H])C([H])([H])C([H])([H])C([H])(n6nc(-c7c([H])c([H])c(Oc8c([H])c([H])c(F)c([H])c8F)c([H])c7[H])c(C(=O)N([H])[H])c6N([H])[H])C5([H])[H])C([H])([H])C4([H])[H])c([H])c(C([H])([H])[H])c3C([H])([H])[H])c([H])c([H])c2C1([H])[H]

>  <smiles>  (76) 
[H]c1c([H])c([H])c2c(c1[H])C([H])([H])C([H])([H])C([H])([H])C2([H])N([H])C(=O)C1([H])N(C(=O)C([H])(N([H])C(=O)C([H])(N([H])C([H])([H])[H])C([H])([H])[H])C(C([H])([H])[H])(C([H])([H])[H])C([H])([H])[H])C([H])([H])c2c([H])c(OC([H])([H])c3c([H])c(C([H])(C([H])([H])[H])C([H])([H])C4([H])C([H])([H])C([H])([H])N(C(=O)N5C([H])([H])C([H])([H])C([H])([H])C([H])(n6nc(-c7c([H])c([H])c(Oc8c([H])c([H])c(F)c([H])c8F)c([H])c7[H])c(C(=O)N([H])[H])c6N([H])[H])C5([H])[H])C([H])([H])C4([H])[H])c([H])c(C([H])([H])[H])c3C([H])([H])[H])c([H])c([H])c2C1([H])[H]

$$$$
76:0:0
     RDKit          3D

 95104  0  0  1  0  0  0  0  0999 V2000
  -28.5880  -22.3100   19.4490 C   0  0  0  0  0  3  0  0  0  0  0  0
  -28.9730  -21.1790   20.4870 C   0  0  0  0  0  3  0  0  0  0  0  0
  -28.3880  -23.6580   20.2910 C   0  0  0  0  0  3  0  0  0  0  0  0
  -29.8340  -22.0370   21.4620 C   0  0  0  0  0  3  0  0  0  0  0  0
  -27.3620  -21.9250   18.6070 C   0  0  0  0  0  1  0  0  0  0  0  0
  -31.3470  -21.9560   21.1770 C   0  0  0  0  0  1  0  0  0  0  0  0
  -28.9220  -24.0150   22.6920 C   0  0  0  0  0  1  0  0  0  0  0  0
  -29.3750  -23.4710   21.3910 N   0  0  2  0  0  4  0  0  0  0  0  0
  -30.1930  -24.0060   21.1380 H   0  0  0  0  0  0  0  0  0  0  0  0
  -29.2610  -18.5510   20.2050 C   0  0  0  0  0  0  0  0  0  0  0  0
  -29.6520  -19.8710   20.0660 N   0  0  0  0  0  0  0  0  0  0  0  0
  -28.0790  -18.2690   20.3960 O   0  0  0  0  0  0  0  0  0  0  0  0
  -30.6340  -19.9780   19.8420 H   0  0  0  0  0  0  0  0  0  0  0  0
  -30.6760  -14.7510   19.9940 C   0  0  0  0  0  0  0  0  0  0  0  0
  -30.3760  -12.5030   18.9400 C   0  0  0  0  0  2  0  0  0  0  0  0
  -29.3620  -12.6090   17.7800 C   0  0  0  0  0  2  0  0  0  0  0  0
  -27.9230  -12.4420   18.3050 C   0  0  0  0  0  2  0  0  0  0  0  0
  -27.6410  -13.3070   19.5610 C   0  0  0  0  0  3  0  0  0  0  0  0
  -28.7670  -13.1830   20.6070 C   0  0  0  0  0  2  0  0  0  0  0  0
  -30.0230  -13.5400   19.9360 N   0  0  0  0  0  0  0  0  0  0  0  0
  -31.7970  -14.8620   19.4890 O   0  0  0  0  0  0  0  0  0  0  0  0
  -31.0060  -17.3020   21.5790 C   0  0  0  0  0  2  0  0  0  0  0  0
  -30.0550  -16.1460   21.8970 C   0  0  0  0  0  2  0  0  0  0  0  0
  -30.3460  -17.3620   20.2040 C   0  0  0  0  0  3  0  0  0  0  0  0
  -29.9950  -15.8770   20.4500 N   0  0  0  0  0  0  0  0  0  0  0  0
  -25.3150  -13.9000   20.4620 C   0  0  0  0  0  0  0  0  0  0  0  0
  -24.2670  -13.1260   20.8800 C   0  0  0  0  0  0  0  0  0  0  0  0
  -24.7120  -11.7720   20.7830 C   0  0  0  0  0  0  0  0  0  0  0  0
  -26.3300  -13.0190   20.1340 N   0  0  0  0  0  0  0  0  0  0  0  0
  -25.9790  -11.7310   20.3880 N   0  0  0  0  0  0  0  0  0  0  0  0
  -23.9850  -10.5120   20.9860 C   0  0  0  0  0  0  0  0  0  0  0  0
  -24.4500   -9.5270   21.8860 C   0  0  0  0  0  3  0  0  0  0  0  0
  -23.7220   -8.3320   22.0800 C   0  0  0  0  0  3  0  0  0  0  0  0
  -22.5150   -8.1150   21.3720 C   0  0  0  0  0  0  0  0  0  0  0  0
  -22.0690   -9.0890   20.4620 C   0  0  0  0  0  3  0  0  0  0  0  0
  -22.7980  -10.2740   20.2660 C   0  0  0  0  0  3  0  0  0  0  0  0
  -21.7550   -6.9760   21.4780 O   0  0  0  0  0  0  0  0  0  0  0  0
  -21.7270   -6.2320   22.6310 C   0  0  0  0  0  0  0  0  0  0  0  0
  -21.3310   -6.7890   23.8670 C   0  0  0  0  0  3  0  0  0  0  0  0
  -21.2500   -5.9730   25.0130 C   0  0  0  0  0  3  0  0  0  0  0  0
  -21.5550   -4.6010   24.9240 C   0  0  0  0  0  0  0  0  0  0  0  0
  -21.9440   -4.0450   23.6930 C   0  0  0  0  0  3  0  0  0  0  0  0
  -22.0270   -4.8570   22.5490 C   0  0  0  0  0  0  0  0  0  0  0  0
  -22.3820   -4.3120   21.3610 F   0  0  0  0  0  0  0  0  0  0  0  0
  -21.4690   -3.8160   26.0230 F   0  0  0  0  0  0  0  0  0  0  0  0
  -22.8970  -13.6090   21.2600 C   0  0  0  0  0  0  0  0  0  0  0  0
  -22.2230  -12.8970   22.1570 N   0  0  0  0  0  0  0  0  0  0  0  0
  -22.4350  -14.6510   20.7980 O   0  0  0  0  0  0  0  0  0  0  0  0
  -22.6110  -12.0520   22.5510 H   0  0  0  0  0  0  0  0  0  0  0  0
  -21.3080  -13.2020   22.4550 H   0  0  0  0  0  0  0  0  0  0  0  0
  -25.4840  -15.2740   20.3150 N   0  0  0  0  0  0  0  0  0  0  0  0
  -24.7420  -15.9380   20.5090 H   0  0  0  0  0  0  0  0  0  0  0  0
  -26.3400  -15.7190   20.0010 H   0  0  0  0  0  0  0  0  0  0  0  0
  -28.4840  -25.1050   19.5470 C   0  0  0  0  0  2  0  0  0  0  0  0
  -28.3560  -26.4420   20.2280 O   0  0  0  0  0  0  0  0  0  0  0  0
  -24.6330  -31.8880   23.2360 C   0  0  0  0  0  0  0  0  0  0  0  0
  -27.2280  -27.2920   20.1580 C   0  0  0  0  0  0  0  0  0  0  0  0
  -23.4220  -30.4880   21.6010 C   0  0  0  0  0  3  0  0  0  0  0  0
  -24.8650  -28.9310   20.1670 C   0  0  0  0  0  0  0  0  0  0  0  0
  -25.9630  -30.7970   21.4080 C   0  0  0  0  0  2  0  0  0  0  0  0
  -26.0390  -29.4150   20.7560 C   0  0  0  0  0  0  0  0  0  0  0  0
  -27.2200  -28.6060   20.7410 C   0  0  0  0  0  3  0  0  0  0  0  0
  -26.0220  -26.8650   19.5600 C   0  0  0  0  0  3  0  0  0  0  0  0
  -24.8610  -27.6630   19.5640 C   0  0  0  0  0  3  0  0  0  0  0  0
  -23.6290  -29.8090   20.2230 C   0  0  0  0  0  2  0  0  0  0  0  0
  -24.6920  -31.0790   22.1360 N   0  0  0  0  0  0  0  0  0  0  0  0
  -23.5520  -32.1650   23.7750 O   0  0  0  0  0  0  0  0  0  0  0  0
  -22.7640  -29.4730   22.5680 C   0  0  0  0  0  0  0  0  0  0  0  0
  -21.4360  -29.2950   22.4470 N   0  0  0  0  0  0  0  0  0  0  0  0
  -23.4470  -28.8490   23.3840 O   0  0  0  0  0  0  0  0  0  0  0  0
  -20.9460  -29.8540   21.7620 H   0  0  0  0  0  0  0  0  0  0  0  0
  -18.0650  -28.0840   22.9510 C   0  0  0  0  0  0  0  0  0  0  0  0
  -20.6220  -28.3560   23.2200 C   0  0  0  0  0  3  0  0  0  0  0  0
  -20.7300  -26.9230   22.6510 C   0  0  0  0  0  2  0  0  0  0  0  0
  -19.6290  -26.5920   21.6370 C   0  0  0  0  0  2  0  0  0  0  0  0
  -18.2460  -26.7330   22.2800 C   0  0  0  0  0  2  0  0  0  0  0  0
  -19.1790  -28.8540   23.3780 C   0  0  0  0  0  0  0  0  0  0  0  0
  -18.9550  -30.1170   23.9660 C   0  0  0  0  0  3  0  0  0  0  0  0
  -17.6480  -30.6120   24.1310 C   0  0  0  0  0  3  0  0  0  0  0  0
  -16.5470  -29.8410   23.7210 C   0  0  0  0  0  3  0  0  0  0  0  0
  -16.7570  -28.5780   23.1380 C   0  0  0  0  0  3  0  0  0  0  0  0
  -25.9180  -32.5220   23.8530 C   0  0  0  0  0  3  0  0  0  0  0  0
  -25.6040  -33.9170   24.1970 N   0  0  0  0  0  0  0  0  0  0  0  0
  -25.9190  -34.9790   23.4450 C   0  0  0  0  0  0  0  0  0  0  0  0
  -26.5750  -34.8890   22.4040 O   0  0  0  0  0  0  0  0  0  0  0  0
  -25.0190  -34.0580   25.0080 H   0  0  0  0  0  0  0  0  0  0  0  0
  -24.1740  -36.7640   23.1380 C   0  0  0  0  0  1  0  0  0  0  0  0
  -25.4320  -36.3600   23.9240 C   0  0  0  0  0  3  0  0  0  0  0  0
  -27.5750  -37.2530   24.7240 C   0  0  0  0  0  1  0  0  0  0  0  0
  -26.4550  -37.4220   23.8010 N   0  0  0  0  0  0  0  0  0  0  0  0
  -26.0460  -38.3370   23.9650 H   0  0  0  0  0  0  0  0  0  0  0  0
  -26.4450  -31.7460   25.1230 C   0  0  1  0  0  0  0  0  0  0  0  0
  -25.3600  -31.5020   26.1980 C   0  0  0  0  0  1  0  0  0  0  0  0
  -27.0320  -30.3720   24.7210 C   0  0  0  0  0  1  0  0  0  0  0  0
  -27.5970  -32.5420   25.7810 C   0  0  0  0  0  1  0  0  0  0  0  0
  1  5  1  0
  1  3  1  0
  1  2  1  0
  2 11  1  0
  2  4  1  0
  3 54  1  0
  3  8  1  0
  4  6  1  0
  8  4  1  0
  8  7  1  0
  8  9  1  6
 10 12  2  0
 11 10  1  0
 13 11  1  0
 14 25  1  0
 15 20  1  0
 16 17  1  0
 16 15  1  0
 18 17  1  0
 18 29  1  0
 18 19  1  0
 20 14  1  0
 20 19  1  0
 21 14  2  0
 22 23  1  0
 24 10  1  0
 24 25  1  0
 24 22  1  0
 25 23  1  0
 26 27  2  0
 27 46  1  0
 28 27  1  0
 28 31  1  0
 29 30  1  0
 29 26  1  0
 30 28  2  0
 31 32  1  0
 32 33  2  0
 34 37  1  0
 34 33  1  0
 35 34  2  0
 36 35  1  0
 36 31  2  0
 37 38  1  0
 38 39  1  0
 39 40  2  0
 41 40  1  0
 41 45  1  0
 42 41  2  0
 43 38  2  0
 43 42  1  0
 44 43  1  0
 46 47  1  0
 47 50  1  0
 47 49  1  0
 48 46  2  0
 51 26  1  0
 51 52  1  0
 53 51  1  0
 54 55  1  0
 56 67  2  0
 57 55  1  0
 57 62  1  0
 58 66  1  0
 58 68  1  0
 59 65  1  0
 59 61  1  0
 60 66  1  0
 61 60  1  0
 62 61  2  0
 63 64  1  0
 63 57  2  0
 64 59  2  0
 65 58  1  0
 66 56  1  0
 68 70  2  0
 69 68  1  0
 71 69  1  0
 72 81  2  0
 72 77  1  0
 73 69  1  0
 73 77  1  0
 74 73  1  0
 75 76  1  0
 75 74  1  0
 76 72  1  0
 77 78  2  0
 78 79  1  0
 80 79  2  0
 81 80  1  0
 82 56  1  0
 82 83  1  0
 82 92  1  0
 83 86  1  0
 84 88  1  0
 84 83  1  0
 85 84  2  0
 88 87  1  0
 90 88  1  0
 90 91  1  0
 90 89  1  0
 92 95  1  1
 92 93  1  0
 94 92  1  0
M  ISO  4  14 100  25 100  54 101  55 101
M  END
>  <TORSDO>  (77) 
F 18

>  <SCORE>  (77) 
-14.797

>  <name>  (77) 
76

>  <ligand_id>  (77) 
76

>  <original_smiles>  (77) 
[H]c1c([H])c([H])c2c(c1[H])C([H])([H])C([H])([H])C([H])([H])C2([H])N([H])C(=O)C1([H])N(C(=O)C([H])(N([H])C(=O)C([H])(N([H])C([H])([H])[H])C([H])([H])[H])C(C([H])([H])[H])(C([H])([H])[H])C([H])([H])[H])C([H])([H])c2c([H])c(OC([H])([H])C3([H])C([H])(C([H])([H])[H])C([H])(N([H])C(=O)C4([H])N(C(=O)N5C([H])([H])C([H])([H])C([H])([H])C([H])(n6nc(-c7c([H])c([H])c(Oc8c([H])c([H])c(F)c([H])c8F)c([H])c7[H])c(C(=O)N([H])[H])c6N([H])[H])C5([H])[H])C([H])([H])C4([H])[H])C([H])(C([H])([H])[H])[N+]3([H])C([H])([H])[H])c([H])c([H])c2C1([H])[H]

>  <smiles>  (77) 
[H]c1c([H])c([H])c2c(c1[H])C([H])([H])C([H])([H])C([H])([H])C2([H])N([H])C(=O)C1([H])N(C(=O)C([H])(N([H])C(=O)C([H])(N([H])C([H])([H])[H])C([H])([H])[H])C(C([H])([H])[H])(C([H])([H])[H])C([H])([H])[H])C([H])([H])c2c([H])c(OC([H])([H])C3([H])C([H])(C([H])([H])[H])C([H])(N([H])C(=O)C4([H])N(C(=O)N5C([H])([H])C([H])([H])C([H])([H])C([H])(n6nc(-c7c([H])c([H])c(Oc8c([H])c([H])c(F)c([H])c8F)c([H])c7[H])c(C(=O)N([H])[H])c6N([H])[H])C5([H])[H])C([H])([H])C4([H])[H])C([H])(C([H])([H])[H])[N+]3([H])C([H])([H])[H])c([H])c([H])c2C1([H])[H]

$$$$
77:0:0
     RDKit          3D

 95104  0  0  1  0  0  0  0  0999 V2000
  -29.4120  -20.6280   20.7910 C   0  0  0  0  0  0  0  0  0  0  0  0
  -28.5990  -21.7790   20.2710 C   0  0  0  0  0  0  0  0  0  0  0  0
  -29.9350  -23.4980   21.3930 C   0  0  0  0  0  0  0  0  0  0  0  0
  -28.8120  -23.2440   20.5600 C   0  0  0  0  0  0  0  0  0  0  0  0
  -30.7350  -22.4330   21.9110 C   0  0  0  0  0  0  0  0  0  0  0  0
  -30.4390  -21.0560   21.6710 C   0  0  0  0  0  0  0  0  0  0  0  0
  -27.4210  -21.4030   19.3880 C   0  0  0  0  0  1  0  0  0  0  0  0
  -30.2550  -24.9480   21.7660 C   0  0  0  0  0  1  0  0  0  0  0  0
  -31.9600  -22.7710   22.7640 C   0  0  0  0  0  1  0  0  0  0  0  0
  -30.6250  -15.0750   20.6190 C   0  0  0  0  0  0  0  0  0  0  0  0
  -30.5910  -12.6670   19.7690 C   0  0  0  0  0  2  0  0  0  0  0  0
  -29.7300  -12.4550   18.5000 C   0  0  0  0  0  2  0  0  0  0  0  0
  -28.2460  -12.2600   18.8600 C   0  0  0  0  0  2  0  0  0  0  0  0
  -27.7500  -13.2470   19.9490 C   0  0  0  0  0  3  0  0  0  0  0  0
  -28.7420  -13.3800   21.1210 C   0  0  0  0  0  2  0  0  0  0  0  0
  -30.0180  -13.8130   20.5380 N   0  0  0  0  0  0  0  0  0  0  0  0
  -31.8600  -15.0760   20.5680 O   0  0  0  0  0  0  0  0  0  0  0  0
  -29.1780  -18.3980   19.1530 C   0  0  0  0  0  2  0  0  0  0  0  0
  -30.1150  -17.7140   21.1670 C   0  0  0  0  0  2  0  0  0  0  0  0
  -29.1970  -18.9660   20.5730 C   0  0  0  0  0  3  0  0  0  0  0  0
  -29.3490  -16.8170   19.1920 C   0  0  0  0  0  3  0  0  0  0  0  0
  -30.2110  -16.4070   17.9800 C   0  0  0  0  0  1  0  0  0  0  0  0
  -29.8940  -16.3230   20.4980 N   0  0  0  0  0  0  0  0  0  0  0  0
  -25.3320  -13.8080   20.5560 C   0  0  0  0  0  0  0  0  0  0  0  0
  -24.2590  -13.0260   20.8800 C   0  0  0  0  0  0  0  0  0  0  0  0
  -24.7420  -11.6800   20.9030 C   0  0  0  0  0  0  0  0  0  0  0  0
  -26.3980  -12.9390   20.3930 N   0  0  0  0  0  0  0  0  0  0  0  0
  -26.0490  -11.6560   20.6710 N   0  0  0  0  0  0  0  0  0  0  0  0
  -24.0210  -10.4130   21.0710 C   0  0  0  0  0  0  0  0  0  0  0  0
  -24.4130   -9.4620   22.0390 C   0  0  0  0  0  3  0  0  0  0  0  0
  -23.6890   -8.2610   22.1950 C   0  0  0  0  0  3  0  0  0  0  0  0
  -22.5590   -8.0000   21.3820 C   0  0  0  0  0  0  0  0  0  0  0  0
  -22.1890   -8.9380   20.4010 C   0  0  0  0  0  3  0  0  0  0  0  0
  -22.9140  -10.1310   20.2430 C   0  0  0  0  0  3  0  0  0  0  0  0
  -21.8070   -6.8520   21.4480 O   0  0  0  0  0  0  0  0  0  0  0  0
  -21.6920   -6.1350   22.6110 C   0  0  0  0  0  0  0  0  0  0  0  0
  -21.1340   -6.6940   23.7820 C   0  0  0  0  0  3  0  0  0  0  0  0
  -20.9710   -5.9000   24.9330 C   0  0  0  0  0  3  0  0  0  0  0  0
  -21.3550   -4.5470   24.9160 C   0  0  0  0  0  0  0  0  0  0  0  0
  -21.9060   -3.9850   23.7500 C   0  0  0  0  0  3  0  0  0  0  0  0
  -22.0700   -4.7770   22.6000 C   0  0  0  0  0  0  0  0  0  0  0  0
  -22.5810   -4.2270   21.4730 F   0  0  0  0  0  0  0  0  0  0  0  0
  -21.1920   -3.7800   26.0190 F   0  0  0  0  0  0  0  0  0  0  0  0
  -22.8420  -13.4860   21.0600 C   0  0  0  0  0  0  0  0  0  0  0  0
  -22.0700  -12.7850   21.8840 N   0  0  0  0  0  0  0  0  0  0  0  0
  -22.4260  -14.5010   20.5040 O   0  0  0  0  0  0  0  0  0  0  0  0
  -22.4210  -11.9680   22.3620 H   0  0  0  0  0  0  0  0  0  0  0  0
  -21.1170  -13.0720   22.0440 H   0  0  0  0  0  0  0  0  0  0  0  0
  -25.4890  -15.1800   20.3660 N   0  0  0  0  0  0  0  0  0  0  0  0
  -24.7110  -15.8270   20.4250 H   0  0  0  0  0  0  0  0  0  0  0  0
  -26.3580  -15.6290   20.1080 H   0  0  0  0  0  0  0  0  0  0  0  0
  -30.8060  -20.0390   23.7340 C   0  0  0  0  0  1  0  0  0  0  0  0
  -31.1570  -20.1090   22.3530 O   0  0  0  0  0  0  0  0  0  0  0  0
  -27.8630  -24.5380   20.0630 C   0  0  0  0  0  2  0  0  0  0  0  0
  -28.1440  -26.0850   20.1960 O   0  0  0  0  0  0  0  0  0  0  0  0
  -24.5190  -31.8510   23.0710 C   0  0  0  0  0  0  0  0  0  0  0  0
  -27.1020  -27.0900   20.0910 C   0  0  0  0  0  0  0  0  0  0  0  0
  -23.3220  -30.4350   21.4460 C   0  0  0  0  0  3  0  0  0  0  0  0
  -24.7740  -28.8470   20.0350 C   0  0  0  0  0  0  0  0  0  0  0  0
  -25.8780  -30.7010   21.2780 C   0  0  0  0  0  2  0  0  0  0  0  0
  -25.9540  -29.2990   20.6390 C   0  0  0  0  0  0  0  0  0  0  0  0
  -27.1200  -28.4350   20.6480 C   0  0  0  0  0  3  0  0  0  0  0  0
  -25.8980  -26.7480   19.4390 C   0  0  0  0  0  3  0  0  0  0  0  0
  -24.7600  -27.5870   19.4190 C   0  0  0  0  0  3  0  0  0  0  0  0
  -23.5450  -29.7450   20.0740 C   0  0  0  0  0  2  0  0  0  0  0  0
  -24.5930  -31.0190   21.9860 N   0  0  0  0  0  0  0  0  0  0  0  0
  -23.4310  -32.1400   23.5940 O   0  0  0  0  0  0  0  0  0  0  0  0
  -22.6450  -29.4370   22.4210 C   0  0  0  0  0  0  0  0  0  0  0  0
  -21.3130  -29.2840   22.3180 N   0  0  0  0  0  0  0  0  0  0  0  0
  -23.3210  -28.7980   23.2300 O   0  0  0  0  0  0  0  0  0  0  0  0
  -20.8200  -29.8530   21.6450 H   0  0  0  0  0  0  0  0  0  0  0  0
  -17.9230  -28.1480   22.9070 C   0  0  0  0  0  0  0  0  0  0  0  0
  -20.4930  -28.3580   23.1040 C   0  0  0  0  0  3  0  0  0  0  0  0
  -20.5480  -26.9270   22.5180 C   0  0  0  0  0  2  0  0  0  0  0  0
  -19.4140  -26.6350   21.5310 C   0  0  0  0  0  2  0  0  0  0  0  0
  -18.0540  -26.8010   22.2130 C   0  0  0  0  0  2  0  0  0  0  0  0
  -19.0670  -28.8850   23.3090 C   0  0  0  0  0  0  0  0  0  0  0  0
  -18.8880  -30.1450   23.9210 C   0  0  0  0  0  3  0  0  0  0  0  0
  -17.5980  -30.6680   24.1280 C   0  0  0  0  0  3  0  0  0  0  0  0
  -16.4690  -29.9270   23.7390 C   0  0  0  0  0  3  0  0  0  0  0  0
  -16.6320  -28.6670   23.1350 C   0  0  0  0  0  3  0  0  0  0  0  0
  -25.7940  -32.5010   23.6910 C   0  0  0  0  0  3  0  0  0  0  0  0
  -25.4630  -33.8920   24.0400 N   0  0  0  0  0  0  0  0  0  0  0  0
  -25.8040  -34.9670   23.3170 C   0  0  0  0  0  0  0  0  0  0  0  0
  -26.4930  -34.8910   22.2970 O   0  0  0  0  0  0  0  0  0  0  0  0
  -24.8570  -34.0230   24.8360 H   0  0  0  0  0  0  0  0  0  0  0  0
  -24.1100  -36.7890   22.9320 C   0  0  0  0  0  1  0  0  0  0  0  0
  -25.2990  -36.3410   23.7980 C   0  0  0  0  0  3  0  0  0  0  0  0
  -27.3760  -37.1900   24.7990 C   0  0  0  0  0  1  0  0  0  0  0  0
  -26.3420  -37.3900   23.7870 N   0  0  0  0  0  0  0  0  0  0  0  0
  -25.9300  -38.3090   23.9330 H   0  0  0  0  0  0  0  0  0  0  0  0
  -26.3310  -31.7290   24.9580 C   0  0  1  0  0  0  0  0  0  0  0  0
  -25.2500  -31.4660   26.0330 C   0  0  0  0  0  1  0  0  0  0  0  0
  -26.9340  -30.3630   24.5570 C   0  0  0  0  0  1  0  0  0  0  0  0
  -27.4700  -32.5390   25.6210 C   0  0  0  0  0  1  0  0  0  0  0  0
  1  6  1  0
  2  4  1  0
  2  1  2  0
  3  8  1  0
  3  5  1  0
  4  3  2  0
  5  9  1  0
  6  5  2  0
  6 53  1  0
  7  2  1  0
 11 16  1  0
 12 13  1  0
 12 11  1  0
 14 13  1  0
 14 27  1  0
 14 15  1  0
 16 10  1  0
 16 15  1  0
 17 10  2  0
 18 21  1  0
 18 20  1  0
 20  1  1  0
 20 19  1  0
 21 22  1  0
 21 23  1  0
 23 10  1  0
 23 19  1  0
 24 25  2  0
 25 26  1  0
 25 44  1  0
 26 29  1  0
 27 24  1  0
 27 28  1  0
 28 26  2  0
 29 30  1  0
 30 31  2  0
 32 35  1  0
 32 31  1  0
 33 32  2  0
 34 33  1  0
 34 29  2  0
 35 36  1  0
 36 37  1  0
 37 38  2  0
 39 38  1  0
 39 43  1  0
 40 39  2  0
 41 36  2  0
 41 40  1  0
 42 41  1  0
 44 45  1  0
 45 48  1  0
 45 47  1  0
 46 44  2  0
 49 50  1  0
 49 24  1  0
 51 49  1  0
 53 52  1  0
 54 55  1  0
 54  4  1  0
 56 67  2  0
 57 55  1  0
 57 62  1  0
 58 66  1  0
 58 68  1  0
 59 65  1  0
 59 61  1  0
 60 66  1  0
 61 62  2  0
 61 60  1  0
 63 57  2  0
 64 63  1  0
 64 59  2  0
 65 58  1  0
 66 56  1  0
 68 70  2  0
 69 68  1  0
 71 69  1  0
 72 81  2  0
 72 77  1  0
 73 69  1  0
 73 77  1  0
 74 73  1  0
 75 76  1  0
 75 74  1  0
 76 72  1  0
 77 78  2  0
 78 79  1  0
 80 79  2  0
 81 80  1  0
 82 56  1  0
 82 83  1  0
 82 92  1  0
 83 86  1  0
 84 88  1  0
 84 83  1  0
 85 84  2  0
 88 87  1  0
 90 88  1  0
 90 91  1  0
 90 89  1  0
 92 95  1  1
 92 93  1  0
 94 92  1  0
M  ISO  4  10 100  23 100  54 101  55 101
M  END
>  <TORSDO>  (78) 
F 18

>  <SCORE>  (78) 
-12.272

>  <name>  (78) 
77

>  <ligand_id>  (78) 
77

>  <original_smiles>  (78) 
[H]c1c([H])c([H])c2c(c1[H])C([H])([H])C([H])([H])C([H])([H])C2([H])N([H])C(=O)C1([H])N(C(=O)C([H])(N([H])C(=O)C([H])(N([H])C([H])([H])[H])C([H])([H])[H])C(C([H])([H])[H])(C([H])([H])[H])C([H])([H])[H])C([H])([H])c2c([H])c(OC([H])([H])c3c(C([H])([H])[H])c(C([H])([H])[H])c(OC([H])([H])[H])c(C4([H])C([H])([H])N(C(=O)N5C([H])([H])C([H])([H])C([H])([H])C([H])(n6nc(-c7c([H])c([H])c(Oc8c([H])c([H])c(F)c([H])c8F)c([H])c7[H])c(C(=O)N([H])[H])c6N([H])[H])C5([H])[H])C([H])(C([H])([H])[H])C4([H])[H])c3C([H])([H])[H])c([H])c([H])c2C1([H])[H]

>  <smiles>  (78) 
[H]c1c([H])c([H])c2c(c1[H])C([H])([H])C([H])([H])C([H])([H])C2([H])N([H])C(=O)C1([H])N(C(=O)C([H])(N([H])C(=O)C([H])(N([H])C([H])([H])[H])C([H])([H])[H])C(C([H])([H])[H])(C([H])([H])[H])C([H])([H])[H])C([H])([H])c2c([H])c(OC([H])([H])c3c(C([H])([H])[H])c(C([H])([H])[H])c(OC([H])([H])[H])c(C4([H])C([H])([H])N(C(=O)N5C([H])([H])C([H])([H])C([H])([H])C([H])(n6nc(-c7c([H])c([H])c(Oc8c([H])c([H])c(F)c([H])c8F)c([H])c7[H])c(C(=O)N([H])[H])c6N([H])[H])C5([H])[H])C([H])(C([H])([H])[H])C4([H])[H])c3C([H])([H])[H])c([H])c([H])c2C1([H])[H]

$$$$
78:0:0
     RDKit          3D

 97106  0  0  1  0  0  0  0  0999 V2000
  -27.8070  -21.6280   21.1940 C   0  0  0  0  0  3  0  0  0  0  0  0
  -29.9910  -22.4210   19.6440 C   0  0  0  0  0  3  0  0  0  0  0  0
  -27.7490  -22.8500   20.4930 C   0  0  0  0  0  0  0  0  0  0  0  0
  -28.8900  -23.3260   19.7930 C   0  0  0  0  0  0  0  0  0  0  0  0
  -28.9100  -20.7630   21.0740 C   0  0  0  0  0  0  0  0  0  0  0  0
  -29.9790  -21.1070   20.2080 C   0  0  0  0  0  0  0  0  0  0  0  0
  -27.3720  -24.5570   18.3960 C   0  0  0  0  0  2  0  0  0  0  0  0
  -28.7560  -24.7010   19.0530 C   0  0  2  0  0  0  0  0  0  0  0  0
  -26.4060  -23.5930   20.4070 C   0  0  2  0  0  0  0  0  0  0  0  0
  -28.8950  -19.4710   21.8770 C   0  0  0  0  0  1  0  0  0  0  0  0
  -29.8140  -24.8830   17.9470 C   0  0  0  0  0  1  0  0  0  0  0  0
  -26.0340  -24.1810   21.7860 C   0  0  0  0  0  1  0  0  0  0  0  0
  -25.2780  -22.6620   19.9190 C   0  0  0  0  0  1  0  0  0  0  0  0
  -26.3980  -24.6510   19.4420 O   0  0  0  0  0  0  0  0  0  0  0  0
  -28.8170  -25.9750   20.0300 C   0  0  0  0  0  2  0  0  0  0  0  0
  -28.7520  -27.3670   19.5520 O   0  0  0  0  0  0  0  0  0  0  0  0
  -24.8030  -31.9630   23.5000 C   0  0  0  0  0  0  0  0  0  0  0  0
  -27.5780  -28.0930   19.7500 C   0  0  0  0  0  0  0  0  0  0  0  0
  -23.6360  -30.7540   21.6950 C   0  0  0  0  0  3  0  0  0  0  0  0
  -25.1270  -29.5240   20.0450 C   0  0  0  0  0  0  0  0  0  0  0  0
  -26.1490  -31.2480   21.5200 C   0  0  0  0  0  2  0  0  0  0  0  0
  -26.2850  -29.9850   20.6850 C   0  0  0  0  0  0  0  0  0  0  0  0
  -27.5150  -29.2780   20.5380 C   0  0  0  0  0  3  0  0  0  0  0  0
  -26.3930  -27.6950   19.1030 C   0  0  0  0  0  3  0  0  0  0  0  0
  -25.1780  -28.3710   19.2570 C   0  0  0  0  0  3  0  0  0  0  0  0
  -23.8510  -30.3100   20.2290 C   0  0  0  0  0  2  0  0  0  0  0  0
  -24.8820  -31.3300   22.2950 N   0  0  0  0  0  0  0  0  0  0  0  0
  -23.7200  -32.0990   24.0860 O   0  0  0  0  0  0  0  0  0  0  0  0
  -23.0570  -29.5650   22.4970 C   0  0  0  0  0  0  0  0  0  0  0  0
  -21.7550  -29.2890   22.3090 N   0  0  0  0  0  0  0  0  0  0  0  0
  -23.7770  -28.9000   23.2470 O   0  0  0  0  0  0  0  0  0  0  0  0
  -21.2290  -29.8860   21.6850 H   0  0  0  0  0  0  0  0  0  0  0  0
  -18.5140  -27.7080   22.4940 C   0  0  0  0  0  0  0  0  0  0  0  0
  -21.0140  -28.1970   22.9350 C   0  0  0  0  0  3  0  0  0  0  0  0
  -21.2980  -26.8520   22.2270 C   0  0  0  0  0  2  0  0  0  0  0  0
  -20.2860  -26.5270   21.1250 C   0  0  0  0  0  2  0  0  0  0  0  0
  -18.8650  -26.4650   21.6920 C   0  0  0  0  0  2  0  0  0  0  0  0
  -19.5220  -28.5310   23.0620 C   0  0  0  0  0  0  0  0  0  0  0  0
  -19.1410  -29.6950   23.7660 C   0  0  0  0  0  3  0  0  0  0  0  0
  -17.7840  -30.0400   23.9070 C   0  0  0  0  0  3  0  0  0  0  0  0
  -16.7900  -29.2120   23.3600 C   0  0  0  0  0  3  0  0  0  0  0  0
  -17.1550  -28.0460   22.6620 C   0  0  0  0  0  3  0  0  0  0  0  0
  -26.0660  -32.5670   24.1850 C   0  0  0  0  0  3  0  0  0  0  0  0
  -26.5330  -31.7530   25.4540 C   0  0  1  0  0  0  0  0  0  0  0  0
  -25.3920  -31.4590   26.4560 C   0  0  0  0  0  1  0  0  0  0  0  0
  -27.1570  -30.4000   25.0360 C   0  0  0  0  0  1  0  0  0  0  0  0
  -27.6380  -32.5370   26.2000 C   0  0  0  0  0  1  0  0  0  0  0  0
  -25.7510  -33.9560   24.5440 N   0  0  0  0  0  0  0  0  0  0  0  0
  -26.1070  -35.0270   23.8240 C   0  0  0  0  0  0  0  0  0  0  0  0
  -26.8090  -34.9490   22.8100 O   0  0  0  0  0  0  0  0  0  0  0  0
  -25.1330  -34.0940   25.3310 H   0  0  0  0  0  0  0  0  0  0  0  0
  -24.3940  -36.8330   23.4650 C   0  0  0  0  0  1  0  0  0  0  0  0
  -25.6090  -36.4020   24.3030 C   0  0  0  0  0  3  0  0  0  0  0  0
  -27.7170  -37.2570   25.2260 C   0  0  0  0  0  1  0  0  0  0  0  0
  -26.6460  -37.4550   24.2520 N   0  0  0  0  0  0  0  0  0  0  0  0
  -26.2380  -38.3710   24.4180 H   0  0  0  0  0  0  0  0  0  0  0  0
  -31.0200  -20.2210   19.9430 O   0  0  0  0  0  0  0  0  0  0  0  0
  -30.6980  -18.8310   19.6620 C   0  0  0  0  0  2  0  0  0  0  0  0
  -31.5220  -17.8190   20.5230 C   0  0  0  0  0  2  0  0  0  0  0  0
  -31.7550  -15.3270   20.0710 C   0  0  0  0  0  0  0  0  0  0  0  0
  -31.5310  -12.9890   19.2910 C   0  0  0  0  0  2  0  0  0  0  0  0
  -30.6240  -12.9440   18.0460 C   0  0  0  0  0  2  0  0  0  0  0  0
  -29.1400  -12.8460   18.4460 C   0  0  0  0  0  2  0  0  0  0  0  0
  -28.7460  -13.8840   19.5310 C   0  0  0  0  0  3  0  0  0  0  0  0
  -29.7680  -13.8930   20.6910 C   0  0  0  0  0  2  0  0  0  0  0  0
  -31.1010  -14.1320   20.1160 N   0  0  0  0  0  0  0  0  0  0  0  0
  -32.8890  -15.4480   19.6000 O   0  0  0  0  0  0  0  0  0  0  0  0
  -31.0510  -16.4100   20.4660 N   0  0  0  0  0  0  0  0  0  0  0  0
  -30.1120  -16.2330   20.7950 H   0  0  0  0  0  0  0  0  0  0  0  0
  -26.3790  -14.6030   20.2380 C   0  0  0  0  0  0  0  0  0  0  0  0
  -25.2750  -13.8820   20.6020 C   0  0  0  0  0  0  0  0  0  0  0  0
  -25.6710  -12.5080   20.5710 C   0  0  0  0  0  0  0  0  0  0  0  0
  -27.3810  -13.6730   20.0050 N   0  0  0  0  0  0  0  0  0  0  0  0
  -26.9580  -12.4090   20.2640 N   0  0  0  0  0  0  0  0  0  0  0  0
  -24.8870  -11.2810   20.7570 C   0  0  0  0  0  0  0  0  0  0  0  0
  -25.2150  -10.3360   21.7540 C   0  0  0  0  0  3  0  0  0  0  0  0
  -24.4310   -9.1740   21.9240 C   0  0  0  0  0  3  0  0  0  0  0  0
  -23.3070   -8.9480   21.0950 C   0  0  0  0  0  0  0  0  0  0  0  0
  -22.9980   -9.8800   20.0890 C   0  0  0  0  0  3  0  0  0  0  0  0
  -23.7810  -11.0330   19.9160 C   0  0  0  0  0  3  0  0  0  0  0  0
  -22.5060   -7.8340   21.1720 O   0  0  0  0  0  0  0  0  0  0  0  0
  -22.2320   -7.2260   22.3690 C   0  0  0  0  0  0  0  0  0  0  0  0
  -21.6120   -7.9170   23.4330 C   0  0  0  0  0  3  0  0  0  0  0  0
  -21.2870   -7.2360   24.6220 C   0  0  0  0  0  3  0  0  0  0  0  0
  -21.5730   -5.8630   24.7480 C   0  0  0  0  0  0  0  0  0  0  0  0
  -22.1890   -5.1710   23.6900 C   0  0  0  0  0  3  0  0  0  0  0  0
  -22.5160   -5.8510   22.5040 C   0  0  0  0  0  0  0  0  0  0  0  0
  -23.0890   -5.1760   21.4780 F   0  0  0  0  0  0  0  0  0  0  0  0
  -21.2530   -5.2050   25.8870 F   0  0  0  0  0  0  0  0  0  0  0  0
  -23.9000  -14.4230   20.8720 C   0  0  0  0  0  0  0  0  0  0  0  0
  -23.1470  -13.7750   21.7530 N   0  0  0  0  0  0  0  0  0  0  0  0
  -23.5040  -15.4580   20.3360 O   0  0  0  0  0  0  0  0  0  0  0  0
  -23.4800  -12.9390   22.2090 H   0  0  0  0  0  0  0  0  0  0  0  0
  -22.2240  -14.1230   21.9780 H   0  0  0  0  0  0  0  0  0  0  0  0
  -26.6110  -15.9650   20.0660 N   0  0  0  0  0  0  0  0  0  0  0  0
  -25.8840  -16.6620   20.1890 H   0  0  0  0  0  0  0  0  0  0  0  0
  -27.4810  -16.3600   19.7320 H   0  0  0  0  0  0  0  0  0  0  0  0
  2  4  2  0
  2  6  1  0
  3  1  2  0
  4  3  1  0
  5  1  1  0
  5 10  1  0
  6  5  2  0
  7  8  1  0
  7 14  1  0
  8 11  1  6
  8  4  1  0
  8 15  1  0
  9  3  1  0
  9 12  1  1
 13  9  1  0
 14  9  1  0
 16 18  1  0
 16 15  1  0
 17 28  2  0
 18 23  1  0
 19 27  1  0
 19 29  1  0
 20 26  1  0
 20 22  1  0
 21 27  1  0
 22 21  1  0
 23 22  2  0
 24 25  1  0
 24 18  2  0
 25 20  2  0
 26 19  1  0
 27 17  1  0
 29 31  2  0
 30 29  1  0
 32 30  1  0
 33 42  2  0
 33 38  1  0
 34 30  1  0
 34 38  1  0
 35 34  1  0
 36 37  1  0
 36 35  1  0
 37 33  1  0
 38 39  2  0
 39 40  1  0
 41 40  2  0
 42 41  1  0
 43 17  1  0
 43 48  1  0
 43 44  1  0
 44 47  1  1
 44 45  1  0
 46 44  1  0
 48 51  1  0
 49 53  1  0
 49 48  1  0
 50 49  2  0
 53 52  1  0
 55 53  1  0
 55 56  1  0
 55 54  1  0
 57  6  1  0
 58 57  1  0
 58 59  1  0
 60 66  1  0
 60 68  1  0
 61 66  1  0
 62 63  1  0
 62 61  1  0
 64 63  1  0
 64 73  1  0
 64 65  1  0
 66 65  1  0
 67 60  2  0
 68 59  1  0
 68 69  1  0
 70 71  2  0
 71 90  1  0
 72 71  1  0
 72 75  1  0
 73 70  1  0
 73 74  1  0
 74 72  2  0
 75 76  1  0
 76 77  2  0
 78 81  1  0
 78 77  1  0
 79 78  2  0
 80 79  1  0
 80 75  2  0
 81 82  1  0
 82 87  2  0
 82 83  1  0
 83 84  2  0
 84 85  1  0
 85 89  1  0
 86 85  2  0
 87 86  1  0
 88 87  1  0
 90 91  1  0
 91 94  1  0
 91 93  1  0
 92 90  2  0
 95 96  1  0
 95 70  1  0
 97 95  1  0
M  ISO  4  15 101  16 101  60 100  68 100
M  END
>  <TORSDO>  (79) 
F 20

>  <SCORE>  (79) 
-9.714

>  <name>  (79) 
78

>  <ligand_id>  (79) 
78

>  <original_smiles>  (79) 
[H]c1c([H])c([H])c2c(c1[H])C([H])([H])C([H])([H])C([H])([H])C2([H])N([H])C(=O)C1([H])N(C(=O)C([H])(N([H])C(=O)C([H])(N([H])C([H])([H])[H])C([H])([H])[H])C(C([H])([H])[H])(C([H])([H])[H])C([H])([H])[H])C([H])([H])c2c([H])c(OC([H])([H])C3(C([H])([H])[H])c4c([H])c(OC([H])([H])C([H])([H])N([H])C(=O)N5C([H])([H])C([H])([H])C([H])([H])C([H])(n6nc(-c7c([H])c([H])c(Oc8c([H])c([H])c(F)c([H])c8F)c([H])c7[H])c(C(=O)N([H])[H])c6N([H])[H])C5([H])[H])c(C([H])([H])[H])c([H])c4C(C([H])([H])[H])(C([H])([H])[H])OC3([H])[H])c([H])c([H])c2C1([H])[H]

>  <smiles>  (79) 
[H]c1c([H])c([H])c2c(c1[H])C([H])([H])C([H])([H])C([H])([H])C2([H])N([H])C(=O)C1([H])N(C(=O)C([H])(N([H])C(=O)C([H])(N([H])C([H])([H])[H])C([H])([H])[H])C(C([H])([H])[H])(C([H])([H])[H])C([H])([H])[H])C([H])([H])c2c([H])c(OC([H])([H])C3(C([H])([H])[H])c4c([H])c(OC([H])([H])C([H])([H])N([H])C(=O)N5C([H])([H])C([H])([H])C([H])([H])C([H])(n6nc(-c7c([H])c([H])c(Oc8c([H])c([H])c(F)c([H])c8F)c([H])c7[H])c(C(=O)N([H])[H])c6N([H])[H])C5([H])[H])c(C([H])([H])[H])c([H])c4C(C([H])([H])[H])(C([H])([H])[H])OC3([H])[H])c([H])c([H])c2C1([H])[H]

$$$$
79:0:0
     RDKit          3D

 93102  0  0  1  0  0  0  0  0999 V2000
  -30.4740  -14.6090   20.1030 C   0  0  0  0  0  0  0  0  0  0  0  0
  -30.3490  -12.2200   19.4220 C   0  0  0  0  0  2  0  0  0  0  0  0
  -29.3970  -12.0830   18.2170 C   0  0  0  0  0  2  0  0  0  0  0  0
  -27.9470  -11.8910   18.6970 C   0  0  0  0  0  2  0  0  0  0  0  0
  -27.5380  -12.8960   19.8090 C   0  0  0  0  0  3  0  0  0  0  0  0
  -28.6230  -13.0400   20.9000 C   0  0  0  0  0  2  0  0  0  0  0  0
  -29.8860  -13.3710   20.2300 N   0  0  0  0  0  0  0  0  0  0  0  0
  -31.5870  -14.7020   19.5750 O   0  0  0  0  0  0  0  0  0  0  0  0
  -28.6110  -19.3700   19.1640 C   0  0  0  0  0  3  0  0  0  0  0  0
  -29.7340  -20.0400   21.6100 C   0  0  0  0  0  3  0  0  0  0  0  0
  -29.1140  -18.3020   20.0070 C   0  0  0  0  0  0  0  0  0  0  0  0
  -29.6010  -18.6830   21.2660 C   0  0  0  0  0  0  0  0  0  0  0  0
  -28.6690  -20.7770   19.5240 C   0  0  0  0  0  0  0  0  0  0  0  0
  -29.3350  -21.0860   20.7400 C   0  0  0  0  0  0  0  0  0  0  0  0
  -29.9930  -17.6150   22.2600 C   0  0  0  0  0  2  0  0  0  0  0  0
  -29.1420  -16.7570   19.6400 C   0  0  0  0  0  2  0  0  0  0  0  0
  -30.6810  -16.4370   21.5700 C   0  0  0  0  0  2  0  0  0  0  0  0
  -29.8480  -15.7580   20.5600 N   0  0  0  0  0  0  0  0  0  0  0  0
  -25.1900  -13.4160   20.7030 C   0  0  0  0  0  0  0  0  0  0  0  0
  -24.1640  -12.6100   21.1180 C   0  0  0  0  0  0  0  0  0  0  0  0
  -24.6480  -11.2710   21.0190 C   0  0  0  0  0  0  0  0  0  0  0  0
  -26.2320  -12.5640   20.3760 N   0  0  0  0  0  0  0  0  0  0  0  0
  -25.9160  -11.2670   20.6270 N   0  0  0  0  0  0  0  0  0  0  0  0
  -23.9560   -9.9900   21.2210 C   0  0  0  0  0  0  0  0  0  0  0  0
  -24.4190   -9.0380   22.1560 C   0  0  0  0  0  3  0  0  0  0  0  0
  -23.7240   -7.8240   22.3460 C   0  0  0  0  0  3  0  0  0  0  0  0
  -22.5530   -7.5520   21.5990 C   0  0  0  0  0  0  0  0  0  0  0  0
  -22.1110   -8.4910   20.6510 C   0  0  0  0  0  3  0  0  0  0  0  0
  -22.8060   -9.6970   20.4610 C   0  0  0  0  0  3  0  0  0  0  0  0
  -21.8260   -6.3900   21.6980 O   0  0  0  0  0  0  0  0  0  0  0  0
  -21.7160   -5.7080   22.8840 C   0  0  0  0  0  0  0  0  0  0  0  0
  -21.1340   -6.2940   24.0290 C   0  0  0  0  0  3  0  0  0  0  0  0
  -20.9790   -5.5340   25.2060 C   0  0  0  0  0  3  0  0  0  0  0  0
  -21.3940   -4.1900   25.2380 C   0  0  0  0  0  0  0  0  0  0  0  0
  -21.9630   -3.6020   24.0940 C   0  0  0  0  0  3  0  0  0  0  0  0
  -22.1220   -4.3590   22.9210 C   0  0  0  0  0  0  0  0  0  0  0  0
  -22.6570   -3.7820   21.8180 F   0  0  0  0  0  0  0  0  0  0  0  0
  -21.2360   -3.4580   26.3650 F   0  0  0  0  0  0  0  0  0  0  0  0
  -22.7800  -13.0530   21.4920 C   0  0  0  0  0  0  0  0  0  0  0  0
  -22.1250  -12.3260   22.3900 N   0  0  0  0  0  0  0  0  0  0  0  0
  -22.2900  -14.0800   21.0220 O   0  0  0  0  0  0  0  0  0  0  0  0
  -22.5370  -11.4960   22.7920 H   0  0  0  0  0  0  0  0  0  0  0  0
  -21.1970  -12.6020   22.6790 H   0  0  0  0  0  0  0  0  0  0  0  0
  -25.3190  -14.7930   20.5540 N   0  0  0  0  0  0  0  0  0  0  0  0
  -24.5550  -15.4320   20.7520 H   0  0  0  0  0  0  0  0  0  0  0  0
  -26.1440  -15.2610   20.2040 H   0  0  0  0  0  0  0  0  0  0  0  0
  -28.0340  -21.9180   18.6090 C   0  0  0  0  0  2  0  0  0  0  0  0
  -28.3630  -23.4940   18.7770 C   0  0  0  0  0  3  0  0  0  0  0  0
  -27.3670  -24.5670   18.1250 C   0  0  0  0  0  3  0  0  0  0  0  0
  -27.6720  -26.0340   18.1070 O   0  0  0  0  0  0  0  0  0  0  0  0
  -24.9770  -31.0790   22.5550 C   0  0  0  0  0  0  0  0  0  0  0  0
  -26.6470  -26.9690   18.3730 C   0  0  0  0  0  0  0  0  0  0  0  0
  -23.4120  -30.0590   20.9450 C   0  0  0  0  0  3  0  0  0  0  0  0
  -24.4700  -28.7110   19.0510 C   0  0  0  0  0  0  0  0  0  0  0  0
  -25.9060  -30.2560   20.3750 C   0  0  0  0  0  2  0  0  0  0  0  0
  -25.7590  -29.0080   19.5070 C   0  0  0  0  0  0  0  0  0  0  0  0
  -26.8490  -28.1480   19.1640 C   0  0  0  0  0  3  0  0  0  0  0  0
  -25.3340  -26.7560   17.8880 C   0  0  0  0  0  3  0  0  0  0  0  0
  -24.2600  -27.5920   18.2340 C   0  0  0  0  0  3  0  0  0  0  0  0
  -23.3410  -29.6340   19.4560 C   0  0  0  0  0  2  0  0  0  0  0  0
  -24.7950  -30.4700   21.3460 N   0  0  0  0  0  0  0  0  0  0  0  0
  -24.0210  -31.3160   23.3080 O   0  0  0  0  0  0  0  0  0  0  0  0
  -22.8290  -28.9250   21.8250 C   0  0  0  0  0  0  0  0  0  0  0  0
  -21.4900  -28.8330   21.8860 N   0  0  0  0  0  0  0  0  0  0  0  0
  -23.5760  -28.1400   22.4150 O   0  0  0  0  0  0  0  0  0  0  0  0
  -20.9450  -29.5190   21.3830 H   0  0  0  0  0  0  0  0  0  0  0  0
  -18.1500  -27.6650   22.6440 C   0  0  0  0  0  0  0  0  0  0  0  0
  -20.7300  -27.8200   22.6200 C   0  0  0  0  0  3  0  0  0  0  0  0
  -20.7010  -26.4800   21.8480 C   0  0  0  0  0  2  0  0  0  0  0  0
  -19.4700  -26.3290   20.9490 C   0  0  0  0  0  2  0  0  0  0  0  0
  -18.1840  -26.4180   21.7770 C   0  0  0  0  0  2  0  0  0  0  0  0
  -19.3430  -28.3310   23.0280 C   0  0  0  0  0  0  0  0  0  0  0  0
  -19.2510  -29.5050   23.8070 C   0  0  0  0  0  3  0  0  0  0  0  0
  -17.9990  -30.0080   24.2070 C   0  0  0  0  0  3  0  0  0  0  0  0
  -16.8210  -29.3370   23.8360 C   0  0  0  0  0  3  0  0  0  0  0  0
  -16.8970  -28.1680   23.0570 C   0  0  0  0  0  3  0  0  0  0  0  0
  -26.3900  -31.5230   23.0410 C   0  0  0  0  0  3  0  0  0  0  0  0
  -27.1240  -30.4200   23.8990 C   0  0  1  0  0  0  0  0  0  0  0  0
  -26.2730  -29.8800   25.0720 C   0  0  0  0  0  1  0  0  0  0  0  0
  -27.5300  -29.2170   23.0190 C   0  0  0  0  0  1  0  0  0  0  0  0
  -28.4320  -31.0000   24.4870 C   0  0  0  0  0  1  0  0  0  0  0  0
  -26.2250  -32.7600   23.8170 N   0  0  0  0  0  0  0  0  0  0  0  0
  -26.5730  -33.9810   23.3910 C   0  0  0  0  0  0  0  0  0  0  0  0
  -27.1390  -34.1760   22.3120 O   0  0  0  0  0  0  0  0  0  0  0  0
  -25.7100  -32.6850   24.6830 H   0  0  0  0  0  0  0  0  0  0  0  0
  -24.9920  -35.8980   23.7860 C   0  0  0  0  0  1  0  0  0  0  0  0
  -26.2450  -35.1770   24.3060 C   0  0  0  0  0  3  0  0  0  0  0  0
  -28.4990  -35.6140   25.1790 C   0  0  0  0  0  1  0  0  0  0  0  0
  -27.3570  -36.1440   24.4370 N   0  0  0  0  0  0  0  0  0  0  0  0
  -27.0440  -36.9930   24.8980 H   0  0  0  0  0  0  0  0  0  0  0  0
  -29.5870  -22.4010   21.0570 O   0  0  0  0  0  0  0  0  0  0  0  0
  -31.0130  -24.1460   21.9160 C   0  0  0  0  0  1  0  0  0  0  0  0
  -30.6560  -22.6600   21.9590 C   0  0  0  0  0  2  0  0  0  0  0  0
  1  7  1  0
  1 18  1  0
  2  7  1  0
  3  4  1  0
  3  2  1  0
  5  4  1  0
  5 22  1  0
  5  6  1  0
  7  6  1  0
  8  1  2  0
  9 13  2  0
  9 11  1  0
 11 12  2  0
 12 10  1  0
 12 15  1  0
 13 14  1  0
 14 91  1  0
 14 10  2  0
 16 11  1  0
 16 18  1  0
 17 15  1  0
 18 17  1  0
 19 20  2  0
 20 39  1  0
 21 20  1  0
 21 24  1  0
 22 23  1  0
 22 19  1  0
 23 21  2  0
 24 25  1  0
 25 26  2  0
 27 30  1  0
 27 26  1  0
 28 27  2  0
 29 28  1  0
 29 24  2  0
 30 31  1  0
 31 36  2  0
 31 32  1  0
 32 33  2  0
 33 34  1  0
 34 38  1  0
 35 34  2  0
 36 35  1  0
 37 36  1  0
 39 40  1  0
 40 43  1  0
 40 42  1  0
 41 39  2  0
 44 19  1  0
 44 45  1  0
 46 44  1  0
 47 48  1  0
 47 13  1  0
 49 48  2  0
 50 49  1  0
 50 52  1  0
 51 62  2  0
 52 57  1  0
 53 61  1  0
 53 63  1  0
 54 60  1  0
 54 56  1  0
 55 61  1  0
 56 55  1  0
 57 56  2  0
 58 59  1  0
 58 52  2  0
 59 54  2  0
 60 53  1  0
 61 51  1  0
 63 64  1  0
 63 65  2  0
 66 64  1  0
 67 72  2  0
 67 76  1  0
 68 64  1  0
 68 72  1  0
 69 68  1  0
 70 71  1  0
 70 69  1  0
 71 67  1  0
 72 73  1  0
 73 74  2  0
 75 74  1  0
 76 75  2  0
 77 51  1  0
 77 82  1  0
 77 78  1  0
 78 81  1  1
 78 79  1  0
 80 78  1  0
 82 85  1  0
 83 82  1  0
 83 87  1  0
 84 83  2  0
 87 86  1  0
 87 89  1  0
 89 90  1  0
 89 88  1  0
 91 93  1  0
 92 93  1  0
M  ISO  4   1 100  18 100  49 101  50 101
M  END
>  <TORSDO>  (80) 
F 20

>  <SCORE>  (80) 
-10.023

>  <name>  (80) 
79

>  <ligand_id>  (80) 
79

>  <original_smiles>  (80) 
[H]c1c([H])c([H])c2c(c1[H])C([H])([H])C([H])([H])C([H])([H])C2([H])N([H])C(=O)C1([H])N(C(=O)C([H])(N([H])C(=O)C([H])(N([H])C([H])([H])[H])C([H])([H])[H])C(C([H])([H])[H])(C([H])([H])[H])C([H])([H])[H])C([H])([H])c2c([H])c(OC([H])([H])C([H])([H])C([H])([H])c3c([H])c4c(c([H])c3OC([H])([H])C([H])([H])[H])C([H])([H])C([H])([H])N(C(=O)N3C([H])([H])C([H])([H])C([H])([H])C([H])(n5nc(-c6c([H])c([H])c(Oc7c([H])c([H])c(F)c([H])c7F)c([H])c6[H])c(C(=O)N([H])[H])c5N([H])[H])C3([H])[H])C4([H])[H])c([H])c([H])c2C1([H])[H]

>  <smiles>  (80) 
[H]c1c([H])c([H])c2c(c1[H])C([H])([H])C([H])([H])C([H])([H])C2([H])N([H])C(=O)C1([H])N(C(=O)C([H])(N([H])C(=O)C([H])(N([H])C([H])([H])[H])C([H])([H])[H])C(C([H])([H])[H])(C([H])([H])[H])C([H])([H])[H])C([H])([H])c2c([H])c(OC([H])([H])C([H])([H])C([H])([H])c3c([H])c4c(c([H])c3OC([H])([H])C([H])([H])[H])C([H])([H])C([H])([H])N(C(=O)N3C([H])([H])C([H])([H])C([H])([H])C([H])(n5nc(-c6c([H])c([H])c(Oc7c([H])c([H])c(F)c([H])c7F)c([H])c6[H])c(C(=O)N([H])[H])c5N([H])[H])C3([H])[H])C4([H])[H])c([H])c([H])c2C1([H])[H]

$$$$
80:0:0
     RDKit          3D

 99108  0  0  1  0  0  0  0  0999 V2000
  -30.0900  -20.6480   18.1340 C   0  0  0  0  0  2  0  0  0  0  0  0
  -29.1550  -19.9410   20.3360 C   0  0  0  0  0  2  0  0  0  0  0  0
  -30.2780  -22.0970   18.7390 C   0  0  0  0  0  2  0  0  0  0  0  0
  -29.9860  -19.4100   19.1170 C   0  0  0  0  0  3  0  0  0  0  0  0
  -29.5210  -21.3640   20.8710 C   0  0  0  0  0  3  0  0  0  0  0  0
  -28.8050  -21.6370   22.2050 C   0  0  0  0  0  1  0  0  0  0  0  0
  -29.3250  -22.4520   19.8400 N   0  0  1  0  0  4  0  0  0  0  0  0
  -28.3810  -22.3500   19.4840 H   0  0  0  0  0  0  0  0  0  0  0  0
  -29.3760  -18.0370   18.5430 C   0  0  0  0  0  0  0  0  0  0  0  0
  -28.0570  -18.2480   18.0570 C   0  0  0  0  0  0  0  0  0  0  0  0
  -26.9850  -17.9350   18.9240 C   0  0  0  0  0  0  0  0  0  0  0  0
  -27.2630  -17.1830   20.0970 C   0  0  0  0  0  0  0  0  0  0  0  0
  -28.5160  -16.5230   20.2180 C   0  0  0  0  0  0  0  0  0  0  0  0
  -29.5300  -16.7690   19.2540 C   0  0  0  0  0  0  0  0  0  0  0  0
  -27.7940  -18.9270   16.7190 C   0  0  0  0  0  1  0  0  0  0  0  0
  -25.5900  -18.4830   18.6290 C   0  0  0  0  0  1  0  0  0  0  0  0
  -26.2150  -17.0450   21.1910 C   0  0  0  0  0  1  0  0  0  0  0  0
  -28.7850  -15.6650   21.4530 C   0  0  0  0  0  1  0  0  0  0  0  0
  -31.1700  -14.6420   19.2060 C   0  0  0  0  0  0  0  0  0  0  0  0
  -30.7990  -12.2260   18.7230 C   0  0  0  0  0  2  0  0  0  0  0  0
  -29.8280  -12.0160   17.5450 C   0  0  0  0  0  2  0  0  0  0  0  0
  -28.3750  -11.9720   18.0490 C   0  0  0  0  0  2  0  0  0  0  0  0
  -28.0510  -13.1020   19.0680 C   0  0  0  0  0  3  0  0  0  0  0  0
  -29.1610  -13.2940   20.1220 C   0  0  0  0  0  2  0  0  0  0  0  0
  -30.4190  -13.4980   19.3990 N   0  0  0  0  0  0  0  0  0  0  0  0
  -32.3150  -14.5100   18.7770 O   0  0  0  0  0  0  0  0  0  0  0  0
  -30.7580  -15.9690   19.2940 N   0  0  0  0  0  0  0  0  0  0  0  0
  -31.5670  -16.5380   19.1030 H   0  0  0  0  0  0  0  0  0  0  0  0
  -25.8060  -13.8670   20.0310 C   0  0  0  0  0  0  0  0  0  0  0  0
  -24.7160  -13.1930   20.5140 C   0  0  0  0  0  0  0  0  0  0  0  0
  -25.0610  -11.8100   20.4350 C   0  0  0  0  0  0  0  0  0  0  0  0
  -26.7440  -12.9140   19.6930 N   0  0  0  0  0  0  0  0  0  0  0  0
  -26.3050  -11.6650   19.9940 N   0  0  0  0  0  0  0  0  0  0  0  0
  -24.2430  -10.6190   20.6890 C   0  0  0  0  0  0  0  0  0  0  0  0
  -24.6460   -9.6230   21.6060 C   0  0  0  0  0  3  0  0  0  0  0  0
  -23.8240   -8.4970   21.8430 C   0  0  0  0  0  3  0  0  0  0  0  0
  -22.5880   -8.3620   21.1690 C   0  0  0  0  0  0  0  0  0  0  0  0
  -22.2070   -9.3440   20.2370 C   0  0  0  0  0  3  0  0  0  0  0  0
  -23.0270  -10.4600   19.9960 C   0  0  0  0  0  3  0  0  0  0  0  0
  -21.7410   -7.2900   21.3300 O   0  0  0  0  0  0  0  0  0  0  0  0
  -21.6680   -6.6020   22.5140 C   0  0  0  0  0  0  0  0  0  0  0  0
  -21.2670   -7.2240   23.7190 C   0  0  0  0  0  3  0  0  0  0  0  0
  -21.1420   -6.4620   24.8980 C   0  0  0  0  0  3  0  0  0  0  0  0
  -21.3990   -5.0790   24.8750 C   0  0  0  0  0  0  0  0  0  0  0  0
  -21.7810   -4.4540   23.6760 C   0  0  0  0  0  3  0  0  0  0  0  0
  -21.9160   -5.2130   22.5000 C   0  0  0  0  0  0  0  0  0  0  0  0
  -22.2750   -4.6040   21.3450 F   0  0  0  0  0  0  0  0  0  0  0  0
  -21.2640   -4.3450   26.0050 F   0  0  0  0  0  0  0  0  0  0  0  0
  -23.4030  -13.7950   20.9150 C   0  0  0  0  0  0  0  0  0  0  0  0
  -22.7160  -13.1800   21.8750 N   0  0  0  0  0  0  0  0  0  0  0  0
  -22.9990  -14.8460   20.4160 O   0  0  0  0  0  0  0  0  0  0  0  0
  -23.0590  -12.3330   22.3060 H   0  0  0  0  0  0  0  0  0  0  0  0
  -21.8260  -13.5530   22.1750 H   0  0  0  0  0  0  0  0  0  0  0  0
  -26.0430  -15.2110   19.8370 N   0  0  0  0  0  0  0  0  0  0  0  0
  -25.3790  -15.8870   20.1900 H   0  0  0  0  0  0  0  0  0  0  0  0
  -26.9570  -15.6250   19.6990 H   0  0  0  0  0  0  0  0  0  0  0  0
  -29.4160  -23.9020   20.3770 C   0  0  0  0  0  3  0  0  0  0  0  0
  -29.0450  -25.1350   19.4340 C   0  0  0  0  0  3  0  0  0  0  0  0
  -28.8320  -26.4460   20.1110 O   0  0  0  0  0  0  0  0  0  0  0  0
  -24.8490  -31.7200   23.0390 C   0  0  0  0  0  0  0  0  0  0  0  0
  -27.6440  -27.2000   20.0460 C   0  0  0  0  0  0  0  0  0  0  0  0
  -23.7080  -30.2670   21.4020 C   0  0  0  0  0  3  0  0  0  0  0  0
  -25.2160  -28.7440   20.0170 C   0  0  0  0  0  0  0  0  0  0  0  0
  -26.2430  -30.6540   21.2490 C   0  0  0  0  0  2  0  0  0  0  0  0
  -26.3660  -29.2700   20.6170 C   0  0  0  0  0  0  0  0  0  0  0  0
  -27.5740  -28.5110   20.6220 C   0  0  0  0  0  3  0  0  0  0  0  0
  -26.4570  -26.7150   19.4390 C   0  0  0  0  0  3  0  0  0  0  0  0
  -25.2660  -27.4730   19.4280 C   0  0  0  0  0  3  0  0  0  0  0  0
  -23.9610  -29.5900   20.0330 C   0  0  0  0  0  2  0  0  0  0  0  0
  -24.9510  -30.8990   21.9540 N   0  0  0  0  0  0  0  0  0  0  0  0
  -23.7470  -31.9770   23.5500 O   0  0  0  0  0  0  0  0  0  0  0  0
  -23.0620  -29.2370   22.3590 C   0  0  0  0  0  0  0  0  0  0  0  0
  -21.7450  -29.0230   22.2140 N   0  0  0  0  0  0  0  0  0  0  0  0
  -23.7460  -28.6350   23.1890 O   0  0  0  0  0  0  0  0  0  0  0  0
  -21.2640  -29.5550   21.5030 H   0  0  0  0  0  0  0  0  0  0  0  0
  -18.3670  -27.8440   22.7480 C   0  0  0  0  0  0  0  0  0  0  0  0
  -20.9370  -28.0670   22.9800 C   0  0  0  0  0  3  0  0  0  0  0  0
  -21.0140  -26.6520   22.3680 C   0  0  0  0  0  2  0  0  0  0  0  0
  -19.8790  -26.3500   21.3800 C   0  0  0  0  0  2  0  0  0  0  0  0
  -18.5080  -26.5070   22.0440 C   0  0  0  0  0  2  0  0  0  0  0  0
  -19.5030  -28.5780   23.1780 C   0  0  0  0  0  0  0  0  0  0  0  0
  -19.3040  -29.8290   23.8030 C   0  0  0  0  0  3  0  0  0  0  0  0
  -18.0090  -30.3390   23.9990 C   0  0  0  0  0  3  0  0  0  0  0  0
  -16.8890  -29.5990   23.5900 C   0  0  0  0  0  3  0  0  0  0  0  0
  -17.0690  -28.3550   22.9650 C   0  0  0  0  0  3  0  0  0  0  0  0
  -26.1050  -32.3910   23.6730 C   0  0  0  0  0  3  0  0  0  0  0  0
  -26.6950  -31.5790   24.8890 C   0  0  1  0  0  0  0  0  0  0  0  0
  -25.6270  -31.1740   25.9300 C   0  0  0  0  0  1  0  0  0  0  0  0
  -27.3920  -30.2890   24.3960 C   0  0  0  0  0  1  0  0  0  0  0  0
  -27.7710  -32.4240   25.6050 C   0  0  0  0  0  1  0  0  0  0  0  0
  -25.7100  -33.7420   24.0950 N   0  0  0  0  0  0  0  0  0  0  0  0
  -25.9250  -34.8590   23.3850 C   0  0  0  0  0  0  0  0  0  0  0  0
  -26.5430  -34.8610   22.3160 O   0  0  0  0  0  0  0  0  0  0  0  0
  -25.1510  -33.8120   24.9310 H   0  0  0  0  0  0  0  0  0  0  0  0
  -24.0450  -36.5250   23.2420 C   0  0  0  0  0  1  0  0  0  0  0  0
  -25.3650  -36.1800   23.9490 C   0  0  0  0  0  3  0  0  0  0  0  0
  -27.4770  -37.1940   24.6910 C   0  0  0  0  0  1  0  0  0  0  0  0
  -26.3060  -37.3160   23.8270 N   0  0  0  0  0  0  0  0  0  0  0  0
  -25.8380  -38.1920   24.0420 H   0  0  0  0  0  0  0  0  0  0  0  0
  1  3  1  0
  1  4  1  0
  2  5  1  0
  3  7  1  0
  4  9  1  0
  4  2  1  0
  5  6  1  0
  7 57  1  0
  7  5  1  0
  7  8  1  6
  9 14  1  0
 10  9  2  0
 10 11  1  0
 11 12  2  0
 12 13  1  0
 12 17  1  0
 13 18  1  0
 14 27  1  0
 14 13  2  0
 15 10  1  0
 16 11  1  0
 19 27  1  0
 19 25  1  0
 20 25  1  0
 21 22  1  0
 21 20  1  0
 23 22  1  0
 23 32  1  0
 23 24  1  0
 25 24  1  0
 26 19  2  0
 28 27  1  0
 29 30  2  0
 30 49  1  0
 31 30  1  0
 31 34  1  0
 32 33  1  0
 32 29  1  0
 33 31  2  0
 34 35  1  0
 35 36  2  0
 37 40  1  0
 37 36  1  0
 38 37  2  0
 39 38  1  0
 39 34  2  0
 40 41  1  0
 41 42  1  0
 42 43  2  0
 44 43  1  0
 44 48  1  0
 45 44  2  0
 46 41  2  0
 46 45  1  0
 47 46  1  0
 49 50  1  0
 50 53  1  0
 50 52  1  0
 51 49  2  0
 54 29  1  0
 54 55  1  0
 56 54  1  0
 58 59  1  0
 58 57  2  0
 60 71  2  0
 61 59  1  0
 61 66  1  0
 62 70  1  0
 62 72  1  0
 63 69  1  0
 63 65  1  0
 64 70  1  0
 65 66  2  0
 65 64  1  0
 67 61  2  0
 68 67  1  0
 68 63  2  0
 69 62  1  0
 70 60  1  0
 72 74  2  0
 73 72  1  0
 75 73  1  0
 76 85  2  0
 76 81  1  0
 77 73  1  0
 77 81  1  0
 78 77  1  0
 79 80  1  0
 79 78  1  0
 80 76  1  0
 81 82  2  0
 82 83  1  0
 84 83  2  0
 85 84  1  0
 86 60  1  0
 86 91  1  0
 86 87  1  0
 87 90  1  1
 87 88  1  0
 89 87  1  0
 91 94  1  0
 92 96  1  0
 92 91  1  0
 93 92  2  0
 96 95  1  0
 98 96  1  0
 98 99  1  0
 98 97  1  0
M  ISO  4  19 100  27 100  58 101  59 101
M  END
>  <TORSDO>  (81) 
F 19

>  <SCORE>  (81) 
-10.722

>  <name>  (81) 
80

>  <ligand_id>  (81) 
80

>  <original_smiles>  (81) 
[H]c1c([H])c([H])c2c(c1[H])C([H])([H])C([H])([H])C([H])([H])C2([H])N([H])C(=O)C1([H])N(C(=O)C([H])(N([H])C(=O)C([H])(N([H])C([H])([H])[H])C([H])([H])[H])C(C([H])([H])[H])(C([H])([H])[H])C([H])([H])[H])C([H])([H])c2c([H])c(OC([H])([H])C([H])([H])[N+]3([H])C([H])([H])C([H])([H])C([H])(c4c(N([H])C(=O)N5C([H])([H])C([H])([H])C([H])([H])C([H])(n6nc(-c7c([H])c([H])c(Oc8c([H])c([H])c(F)c([H])c8F)c([H])c7[H])c(C(=O)N([H])[H])c6N([H])[H])C5([H])[H])c(C([H])([H])[H])c(C([H])([H])[H])c(C([H])([H])[H])c4C([H])([H])[H])C([H])([H])C3([H])C([H])([H])[H])c([H])c([H])c2C1([H])[H]

>  <smiles>  (81) 
[H]c1c([H])c([H])c2c(c1[H])C([H])([H])C([H])([H])C([H])([H])C2([H])N([H])C(=O)C1([H])N(C(=O)C([H])(N([H])C(=O)C([H])(N([H])C([H])([H])[H])C([H])([H])[H])C(C([H])([H])[H])(C([H])([H])[H])C([H])([H])[H])C([H])([H])c2c([H])c(OC([H])([H])C([H])([H])[N+]3([H])C([H])([H])C([H])([H])C([H])(c4c(N([H])C(=O)N5C([H])([H])C([H])([H])C([H])([H])C([H])(n6nc(-c7c([H])c([H])c(Oc8c([H])c([H])c(F)c([H])c8F)c([H])c7[H])c(C(=O)N([H])[H])c6N([H])[H])C5([H])[H])c(C([H])([H])[H])c(C([H])([H])[H])c(C([H])([H])[H])c4C([H])([H])[H])C([H])([H])C3([H])C([H])([H])[H])c([H])c([H])c2C1([H])[H]

$$$$
81:0:0
     RDKit          3D

 94103  0  0  1  0  0  0  0  0999 V2000
  -28.9830  -21.3940   19.3330 C   0  0  0  0  0  3  0  0  0  0  0  0
  -29.6650  -20.8020   20.4310 C   0  0  0  0  0  0  0  0  0  0  0  0
  -28.6290  -22.7860   19.2830 C   0  0  0  0  0  0  0  0  0  0  0  0
  -28.9410  -23.6940   20.3450 C   0  0  0  0  0  0  0  0  0  0  0  0
  -29.7010  -23.1240   21.4130 C   0  0  0  0  0  0  0  0  0  0  0  0
  -30.0180  -21.7180   21.4660 C   0  0  0  0  0  0  0  0  0  0  0  0
  -27.8590  -23.2680   18.0640 C   0  0  0  0  0  1  0  0  0  0  0  0
  -30.1610  -24.0370   22.5410 C   0  0  0  0  0  1  0  0  0  0  0  0
  -31.0970  -14.8620   20.0000 C   0  0  0  0  0  0  0  0  0  0  0  0
  -30.7120  -12.6340   18.9520 C   0  0  0  0  0  2  0  0  0  0  0  0
  -29.7100  -12.7270   17.7850 C   0  0  0  0  0  2  0  0  0  0  0  0
  -28.2700  -12.5670   18.3060 C   0  0  0  0  0  2  0  0  0  0  0  0
  -27.9800  -13.4330   19.5640 C   0  0  0  0  0  3  0  0  0  0  0  0
  -29.1140  -13.3330   20.6090 C   0  0  0  0  0  2  0  0  0  0  0  0
  -30.3540  -13.7030   19.9160 N   0  0  0  0  0  0  0  0  0  0  0  0
  -32.2830  -14.7940   19.6640 O   0  0  0  0  0  0  0  0  0  0  0  0
  -29.0300  -18.1810   20.8730 C   0  0  0  0  0  2  0  0  0  0  0  0
  -30.6930  -18.6590   19.2000 C   0  0  0  0  0  2  0  0  0  0  0  0
  -29.5390  -16.6750   21.0130 C   0  0  0  0  0  2  0  0  0  0  0  0
  -31.3370  -17.2460   19.4150 C   0  0  0  0  0  2  0  0  0  0  0  0
  -30.0920  -19.2600   20.4850 C   0  0  0  0  0  3  0  0  0  0  0  0
  -30.5130  -16.1410   20.0110 N   0  0  0  0  0  0  0  0  0  0  0  0
  -25.6510  -13.9970   20.4700 C   0  0  0  0  0  0  0  0  0  0  0  0
  -24.6060  -13.2130   20.8730 C   0  0  0  0  0  0  0  0  0  0  0  0
  -25.0570  -11.8620   20.7560 C   0  0  0  0  0  0  0  0  0  0  0  0
  -26.6740  -13.1260   20.1340 N   0  0  0  0  0  0  0  0  0  0  0  0
  -26.3270  -11.8330   20.3680 N   0  0  0  0  0  0  0  0  0  0  0  0
  -24.3340  -10.5970   20.9320 C   0  0  0  0  0  0  0  0  0  0  0  0
  -24.7560   -9.6290   21.8710 C   0  0  0  0  0  3  0  0  0  0  0  0
  -24.0300   -8.4300   22.0380 C   0  0  0  0  0  3  0  0  0  0  0  0
  -22.8670   -8.1910   21.2690 C   0  0  0  0  0  0  0  0  0  0  0  0
  -22.4650   -9.1470   20.3200 C   0  0  0  0  0  3  0  0  0  0  0  0
  -23.1910  -10.3380   20.1490 C   0  0  0  0  0  3  0  0  0  0  0  0
  -22.1120   -7.0460   21.3480 O   0  0  0  0  0  0  0  0  0  0  0  0
  -21.9310   -6.3820   22.5350 C   0  0  0  0  0  0  0  0  0  0  0  0
  -21.3590   -7.0110   23.6610 C   0  0  0  0  0  3  0  0  0  0  0  0
  -21.1270   -6.2710   24.8390 C   0  0  0  0  0  3  0  0  0  0  0  0
  -21.4600   -4.9040   24.8890 C   0  0  0  0  0  0  0  0  0  0  0  0
  -22.0260   -4.2760   23.7660 C   0  0  0  0  0  3  0  0  0  0  0  0
  -22.2570   -5.0120   22.5910 C   0  0  0  0  0  0  0  0  0  0  0  0
  -22.7830   -4.3960   21.5050 F   0  0  0  0  0  0  0  0  0  0  0  0
  -21.2320   -4.1910   26.0170 F   0  0  0  0  0  0  0  0  0  0  0  0
  -23.2330  -13.6840   21.2520 C   0  0  0  0  0  0  0  0  0  0  0  0
  -22.5630  -12.9660   22.1450 N   0  0  0  0  0  0  0  0  0  0  0  0
  -22.7670  -14.7270   20.7930 O   0  0  0  0  0  0  0  0  0  0  0  0
  -22.9580  -12.1230   22.5380 H   0  0  0  0  0  0  0  0  0  0  0  0
  -21.6420  -13.2590   22.4400 H   0  0  0  0  0  0  0  0  0  0  0  0
  -25.8090  -15.3740   20.3380 N   0  0  0  0  0  0  0  0  0  0  0  0
  -25.0520  -16.0220   20.5230 H   0  0  0  0  0  0  0  0  0  0  0  0
  -26.6350  -15.8250   19.9680 H   0  0  0  0  0  0  0  0  0  0  0  0
  -29.8710  -21.1450   23.7270 C   0  0  0  0  0  1  0  0  0  0  0  0
  -30.6780  -21.2130   22.5570 O   0  0  0  0  0  0  0  0  0  0  0  0
  -28.1770  -25.0830   20.5270 C   0  0  0  0  0  2  0  0  0  0  0  0
  -28.6400  -26.4620   20.1320 O   0  0  0  0  0  0  0  0  0  0  0  0
  -24.8130  -31.7660   23.3290 C   0  0  0  0  0  0  0  0  0  0  0  0
  -27.5890  -27.4140   20.0740 C   0  0  0  0  0  0  0  0  0  0  0  0
  -23.6960  -30.4560   21.5660 C   0  0  0  0  0  3  0  0  0  0  0  0
  -25.2220  -29.0410   20.0880 C   0  0  0  0  0  0  0  0  0  0  0  0
  -26.2400  -30.8100   21.5030 C   0  0  0  0  0  2  0  0  0  0  0  0
  -26.3660  -29.4770   20.7700 C   0  0  0  0  0  0  0  0  0  0  0  0
  -27.5550  -28.6740   20.7640 C   0  0  0  0  0  3  0  0  0  0  0  0
  -26.4370  -27.0920   19.3180 C   0  0  0  0  0  3  0  0  0  0  0  0
  -25.2630  -27.8550   19.3510 C   0  0  0  0  0  3  0  0  0  0  0  0
  -23.9720  -29.8920   20.1520 C   0  0  0  0  0  2  0  0  0  0  0  0
  -24.9340  -31.0250   22.1900 N   0  0  0  0  0  0  0  0  0  0  0  0
  -23.7050  -31.9930   23.8380 O   0  0  0  0  0  0  0  0  0  0  0  0
  -23.0210  -29.3630   22.4300 C   0  0  0  0  0  0  0  0  0  0  0  0
  -21.7010  -29.1790   22.2550 N   0  0  0  0  0  0  0  0  0  0  0  0
  -23.6840  -28.6890   23.2230 O   0  0  0  0  0  0  0  0  0  0  0  0
  -21.2240  -29.7770   21.5940 H   0  0  0  0  0  0  0  0  0  0  0  0
  -18.3210  -27.9320   22.6050 C   0  0  0  0  0  0  0  0  0  0  0  0
  -20.8720  -28.1840   22.9380 C   0  0  0  0  0  3  0  0  0  0  0  0
  -20.9930  -26.7990   22.2610 C   0  0  0  0  0  2  0  0  0  0  0  0
  -19.9110  -26.5460   21.2060 C   0  0  0  0  0  2  0  0  0  0  0  0
  -18.5170  -26.6380   21.8340 C   0  0  0  0  0  2  0  0  0  0  0  0
  -19.4260  -28.6660   23.1090 C   0  0  0  0  0  0  0  0  0  0  0  0
  -19.1900  -29.8800   23.7900 C   0  0  0  0  0  3  0  0  0  0  0  0
  -17.8790  -30.3600   23.9710 C   0  0  0  0  0  3  0  0  0  0  0  0
  -16.7860  -29.6220   23.4820 C   0  0  0  0  0  3  0  0  0  0  0  0
  -17.0090  -28.4100   22.8040 C   0  0  0  0  0  3  0  0  0  0  0  0
  -26.0590  -32.3830   24.0340 C   0  0  0  0  0  3  0  0  0  0  0  0
  -25.7130  -33.7580   24.4220 N   0  0  0  0  0  0  0  0  0  0  0  0
  -26.0230  -34.8520   23.7120 C   0  0  0  0  0  0  0  0  0  0  0  0
  -26.7000  -34.8100   22.6820 O   0  0  0  0  0  0  0  0  0  0  0  0
  -25.1150  -33.8640   25.2280 H   0  0  0  0  0  0  0  0  0  0  0  0
  -24.2360  -36.6030   23.4440 C   0  0  0  0  0  1  0  0  0  0  0  0
  -25.4960  -36.2050   24.2270 C   0  0  0  0  0  3  0  0  0  0  0  0
  -27.6090  -37.1240   25.0790 C   0  0  0  0  0  1  0  0  0  0  0  0
  -26.4940  -37.2950   24.1500 N   0  0  0  0  0  0  0  0  0  0  0  0
  -26.0590  -38.1930   24.3430 H   0  0  0  0  0  0  0  0  0  0  0  0
  -26.5340  -31.5530   25.2900 C   0  0  1  0  0  0  0  0  0  0  0  0
  -25.4040  -31.2490   26.2990 C   0  0  0  0  0  1  0  0  0  0  0  0
  -27.1520  -30.2040   24.8550 C   0  0  0  0  0  1  0  0  0  0  0  0
  -27.6480  -32.3260   26.0340 C   0  0  0  0  0  1  0  0  0  0  0  0
  1  2  1  0
  2  6  2  0
  3  1  2  0
  3  4  1  0
  4 53  1  0
  4  5  2  0
  5  6  1  0
  5  8  1  0
  6 52  1  0
  7  3  1  0
  9 22  1  0
 10 15  1  0
 11 12  1  0
 11 10  1  0
 13 12  1  0
 13 26  1  0
 13 14  1  0
 15  9  1  0
 15 14  1  0
 16  9  2  0
 17 19  1  0
 18 20  1  0
 18 21  1  0
 20 22  1  0
 21  2  1  0
 21 17  1  0
 22 19  1  0
 23 24  2  0
 24 43  1  0
 25 24  1  0
 25 28  1  0
 26 27  1  0
 26 23  1  0
 27 25  2  0
 28 29  1  0
 29 30  2  0
 31 34  1  0
 31 30  1  0
 32 31  2  0
 33 32  1  0
 33 28  2  0
 34 35  1  0
 35 40  2  0
 35 36  1  0
 36 37  2  0
 37 38  1  0
 38 42  1  0
 39 38  2  0
 40 39  1  0
 41 40  1  0
 43 44  1  0
 44 47  1  0
 44 46  1  0
 45 43  2  0
 48 23  1  0
 48 49  1  0
 50 48  1  0
 52 51  1  0
 54 53  1  0
 55 66  2  0
 56 54  1  0
 56 61  1  0
 57 65  1  0
 57 67  1  0
 58 64  1  0
 58 60  1  0
 59 65  1  0
 60 59  1  0
 61 60  2  0
 62 63  1  0
 62 56  2  0
 63 58  2  0
 64 57  1  0
 65 55  1  0
 67 69  2  0
 68 67  1  0
 70 68  1  0
 71 80  2  0
 71 76  1  0
 72 68  1  0
 72 76  1  0
 73 72  1  0
 74 75  1  0
 74 73  1  0
 75 71  1  0
 76 77  2  0
 77 78  1  0
 79 78  2  0
 80 79  1  0
 81 55  1  0
 81 82  1  0
 81 91  1  0
 82 85  1  0
 83 87  1  0
 83 82  1  0
 84 83  2  0
 87 86  1  0
 89 87  1  0
 89 90  1  0
 89 88  1  0
 91 94  1  1
 91 92  1  0
 93 91  1  0
M  ISO  4   9 100  22 100  53 101  54 101
M  END
>  <TORSDO>  (82) 
F 18

>  <SCORE>  (82) 
-13.922

>  <name>  (82) 
81

>  <ligand_id>  (82) 
81

>  <original_smiles>  (82) 
[H]c1c([H])c([H])c2c(c1[H])C([H])([H])C([H])([H])C([H])([H])C2([H])N([H])C(=O)C1([H])N(C(=O)C([H])(N([H])C(=O)C([H])(N([H])C([H])([H])[H])C([H])([H])[H])C(C([H])([H])[H])(C([H])([H])[H])C([H])([H])[H])C([H])([H])c2c([H])c(OC([H])([H])c3c(C([H])([H])[H])c([H])c(C4([H])C([H])([H])C([H])([H])N(C(=O)N5C([H])([H])C([H])([H])C([H])([H])C([H])(n6nc(-c7c([H])c([H])c(Oc8c([H])c([H])c(F)c([H])c8F)c([H])c7[H])c(C(=O)N([H])[H])c6N([H])[H])C5([H])[H])C([H])([H])C4([H])[H])c(OC([H])([H])[H])c3C([H])([H])[H])c([H])c([H])c2C1([H])[H]

>  <smiles>  (82) 
[H]c1c([H])c([H])c2c(c1[H])C([H])([H])C([H])([H])C([H])([H])C2([H])N([H])C(=O)C1([H])N(C(=O)C([H])(N([H])C(=O)C([H])(N([H])C([H])([H])[H])C([H])([H])[H])C(C([H])([H])[H])(C([H])([H])[H])C([H])([H])[H])C([H])([H])c2c([H])c(OC([H])([H])c3c(C([H])([H])[H])c([H])c(C4([H])C([H])([H])C([H])([H])N(C(=O)N5C([H])([H])C([H])([H])C([H])([H])C([H])(n6nc(-c7c([H])c([H])c(Oc8c([H])c([H])c(F)c([H])c8F)c([H])c7[H])c(C(=O)N([H])[H])c6N([H])[H])C5([H])[H])C([H])([H])C4([H])[H])c(OC([H])([H])[H])c3C([H])([H])[H])c([H])c([H])c2C1([H])[H]

$$$$
82:0:0
     RDKit          3D

 98107  0  0  1  0  0  0  0  0999 V2000
  -30.4000  -16.2800   20.2590 C   0  0  0  0  0  0  0  0  0  0  0  0
  -30.1960  -17.3790   21.1590 C   0  0  0  0  0  0  0  0  0  0  0  0
  -29.0640  -18.1870   21.0160 C   0  0  0  0  0  0  0  0  0  0  0  0
  -29.8030  -16.4860   18.9690 C   0  0  0  0  0  0  0  0  0  0  0  0
  -28.1960  -18.0800   19.9310 C   0  0  0  0  0  0  0  0  0  0  0  0
  -28.6710  -17.3530   18.8180 C   0  0  0  0  0  0  0  0  0  0  0  0
  -31.2330  -18.2560   21.8910 C   0  0  0  0  0  2  0  0  0  0  0  0
  -29.1580  -19.4370   21.8370 C   0  0  0  0  0  2  0  0  0  0  0  0
  -30.6670  -19.7540   21.7520 C   0  0  2  0  0  0  0  0  0  0  0  0
  -30.4360  -15.8640   17.7260 C   0  0  0  0  0  1  0  0  0  0  0  0
  -26.9170  -18.9070   19.8820 C   0  0  0  0  0  1  0  0  0  0  0  0
  -27.9900  -17.5870   17.4760 C   0  0  0  0  0  1  0  0  0  0  0  0
  -31.0630  -20.2790   20.3450 C   0  0  0  0  0  1  0  0  0  0  0  0
  -31.2040  -14.9830   20.5430 C   0  0  0  0  0  0  0  0  0  0  0  0
  -30.9510  -12.7410   19.4940 C   0  0  0  0  0  2  0  0  0  0  0  0
  -30.0570  -12.7780   18.2240 C   0  0  0  0  0  2  0  0  0  0  0  0
  -28.5560  -12.8320   18.5590 C   0  0  0  0  0  2  0  0  0  0  0  0
  -28.1740  -13.7260   19.7680 C   0  0  0  0  0  3  0  0  0  0  0  0
  -29.1680  -13.5600   20.9390 C   0  0  0  0  0  2  0  0  0  0  0  0
  -30.5280  -13.7960   20.4330 N   0  0  0  0  0  0  0  0  0  0  0  0
  -32.4360  -15.0280   20.4610 O   0  0  0  0  0  0  0  0  0  0  0  0
  -25.7610  -14.4190   20.3150 C   0  0  0  0  0  0  0  0  0  0  0  0
  -24.6470  -13.6850   20.6280 C   0  0  0  0  0  0  0  0  0  0  0  0
  -25.0740  -12.3260   20.6870 C   0  0  0  0  0  0  0  0  0  0  0  0
  -26.7940  -13.5040   20.1850 N   0  0  0  0  0  0  0  0  0  0  0  0
  -26.3810  -12.2450   20.4810 N   0  0  0  0  0  0  0  0  0  0  0  0
  -24.3070  -11.0870   20.8700 C   0  0  0  0  0  0  0  0  0  0  0  0
  -24.6590  -10.1450   21.8580 C   0  0  0  0  0  3  0  0  0  0  0  0
  -23.8940   -8.9710   22.0320 C   0  0  0  0  0  3  0  0  0  0  0  0
  -22.7670   -8.7330   21.2110 C   0  0  0  0  0  0  0  0  0  0  0  0
  -22.4350   -9.6650   20.2130 C   0  0  0  0  0  3  0  0  0  0  0  0
  -23.1990  -10.8300   20.0400 C   0  0  0  0  0  3  0  0  0  0  0  0
  -21.9790   -7.6080   21.2900 O   0  0  0  0  0  0  0  0  0  0  0  0
  -21.8670   -6.8830   22.4480 C   0  0  0  0  0  0  0  0  0  0  0  0
  -21.4170   -7.4660   23.6550 C   0  0  0  0  0  3  0  0  0  0  0  0
  -21.2580   -6.6690   24.8050 C   0  0  0  0  0  3  0  0  0  0  0  0
  -21.5310   -5.2890   24.7500 C   0  0  0  0  0  0  0  0  0  0  0  0
  -21.9730   -4.7060   23.5480 C   0  0  0  0  0  3  0  0  0  0  0  0
  -22.1380   -5.5000   22.4020 C   0  0  0  0  0  0  0  0  0  0  0  0
  -22.5440   -4.9290   21.2420 F   0  0  0  0  0  0  0  0  0  0  0  0
  -21.3690   -4.5230   25.8520 F   0  0  0  0  0  0  0  0  0  0  0  0
  -23.2430  -14.2070   20.7680 C   0  0  0  0  0  0  0  0  0  0  0  0
  -22.4410  -13.5750   21.6170 N   0  0  0  0  0  0  0  0  0  0  0  0
  -22.8660  -15.2090   20.1640 O   0  0  0  0  0  0  0  0  0  0  0  0
  -22.7530  -12.7670   22.1370 H   0  0  0  0  0  0  0  0  0  0  0  0
  -21.4990  -13.9080   21.7560 H   0  0  0  0  0  0  0  0  0  0  0  0
  -25.9700  -15.7750   20.1130 N   0  0  0  0  0  0  0  0  0  0  0  0
  -25.2300  -16.4600   20.2060 H   0  0  0  0  0  0  0  0  0  0  0  0
  -26.8680  -16.1990   19.9000 H   0  0  0  0  0  0  0  0  0  0  0  0
  -31.0250  -20.8610   22.8250 C   0  0  0  0  0  2  0  0  0  0  0  0
  -30.9120  -22.4260   22.5100 C   0  0  0  0  0  2  0  0  0  0  0  0
  -29.6150  -23.0490   22.0730 N   0  0  0  0  0  4  0  0  0  0  0  0
  -28.8790  -22.6850   22.6530 H   0  0  0  0  0  0  0  0  0  0  0  0
  -29.3990  -22.7710   21.1260 H   0  0  0  0  0  0  0  0  0  0  0  0
  -29.5290  -24.5660   22.1600 C   0  0  0  0  0  2  0  0  0  0  0  0
  -30.6120  -25.2240   19.9270 C   0  0  0  0  0  1  0  0  0  0  0  0
  -29.3680  -25.3800   20.8120 C   0  0  0  0  0  3  0  0  0  0  0  0
  -29.2310  -26.8470   20.9410 O   0  0  0  0  0  0  0  0  0  0  0  0
  -24.7400  -31.8660   23.3250 C   0  0  0  0  0  0  0  0  0  0  0  0
  -28.0310  -27.5260   20.6920 C   0  0  0  0  0  0  0  0  0  0  0  0
  -23.8350  -30.3510   21.5900 C   0  0  0  0  0  3  0  0  0  0  0  0
  -25.5460  -28.9060   20.3680 C   0  0  0  0  0  0  0  0  0  0  0  0
  -26.3370  -30.8910   21.6590 C   0  0  0  0  0  2  0  0  0  0  0  0
  -26.5950  -29.5130   21.0690 C   0  0  0  0  0  0  0  0  0  0  0  0
  -27.8310  -28.8320   21.2250 C   0  0  0  0  0  3  0  0  0  0  0  0
  -26.9690  -26.9720   19.9370 C   0  0  0  0  0  3  0  0  0  0  0  0
  -25.7370  -27.6400   19.7930 C   0  0  0  0  0  3  0  0  0  0  0  0
  -24.2510  -29.6790   20.2510 C   0  0  0  0  0  2  0  0  0  0  0  0
  -24.9820  -31.0570   22.2530 N   0  0  0  0  0  0  0  0  0  0  0  0
  -23.5900  -32.0580   23.7470 O   0  0  0  0  0  0  0  0  0  0  0  0
  -23.1640  -29.2940   22.4970 C   0  0  0  0  0  0  0  0  0  0  0  0
  -21.8570  -29.0530   22.2740 N   0  0  0  0  0  0  0  0  0  0  0  0
  -23.8150  -28.7050   23.3650 O   0  0  0  0  0  0  0  0  0  0  0  0
  -21.4050  -29.5490   21.5210 H   0  0  0  0  0  0  0  0  0  0  0  0
  -18.4920  -27.8110   22.6120 C   0  0  0  0  0  0  0  0  0  0  0  0
  -21.0280  -28.0860   22.9970 C   0  0  0  0  0  3  0  0  0  0  0  0
  -21.1660  -26.6750   22.3800 C   0  0  0  0  0  2  0  0  0  0  0  0
  -20.1200  -26.3820   21.3030 C   0  0  0  0  0  2  0  0  0  0  0  0
  -18.7090  -26.4920   21.8910 C   0  0  0  0  0  2  0  0  0  0  0  0
  -19.5810  -28.5550   23.1330 C   0  0  0  0  0  0  0  0  0  0  0  0
  -19.3180  -29.7790   23.7820 C   0  0  0  0  0  3  0  0  0  0  0  0
  -18.0010  -30.2590   23.9160 C   0  0  0  0  0  3  0  0  0  0  0  0
  -16.9200  -29.5170   23.4130 C   0  0  0  0  0  3  0  0  0  0  0  0
  -17.1710  -28.2910   22.7660 C   0  0  0  0  0  3  0  0  0  0  0  0
  -25.9000  -32.5980   24.0700 C   0  0  0  0  0  3  0  0  0  0  0  0
  -25.4850  -33.9900   24.2790 N   0  0  0  0  0  0  0  0  0  0  0  0
  -25.8500  -35.0150   23.5000 C   0  0  0  0  0  0  0  0  0  0  0  0
  -26.6470  -34.8970   22.5640 O   0  0  0  0  0  0  0  0  0  0  0  0
  -24.8060  -34.1580   25.0100 H   0  0  0  0  0  0  0  0  0  0  0  0
  -24.0760  -36.6730   22.8510 C   0  0  0  0  0  1  0  0  0  0  0  0
  -25.2390  -36.3940   23.8170 C   0  0  0  0  0  3  0  0  0  0  0  0
  -27.2120  -37.4650   24.8150 C   0  0  0  0  0  1  0  0  0  0  0  0
  -26.2170  -37.5020   23.7470 N   0  0  0  0  0  0  0  0  0  0  0  0
  -25.7490  -38.4050   23.7800 H   0  0  0  0  0  0  0  0  0  0  0  0
  -26.2960  -31.9170   25.4430 C   0  0  1  0  0  0  0  0  0  0  0  0
  -25.0890  -31.6560   26.3730 C   0  0  0  0  0  1  0  0  0  0  0  0
  -27.0050  -30.5630   25.2100 C   0  0  0  0  0  1  0  0  0  0  0  0
  -27.3010  -32.8150   26.2060 C   0  0  0  0  0  1  0  0  0  0  0  0
  1 14  1  0
  1  2  1  0
  2  7  1  0
  3  2  2  0
  3  8  1  0
  4  1  2  0
  5  3  1  0
  6  4  1  0
  6  5  2  0
  9 13  1  6
  9  8  1  0
  9  7  1  0
  9 50  1  0
 10  4  1  0
 11  5  1  0
 12  6  1  0
 15 20  1  0
 16 17  1  0
 16 15  1  0
 18 17  1  0
 18 25  1  0
 18 19  1  0
 20 14  1  0
 20 19  1  0
 21 14  2  0
 22 23  2  0
 23 24  1  0
 23 42  1  0
 24 27  1  0
 25 22  1  0
 25 26  1  0
 26 24  2  0
 27 28  1  0
 28 29  2  0
 30 33  1  0
 30 29  1  0
 31 30  2  0
 32 31  1  0
 32 27  2  0
 33 34  1  0
 34 35  1  0
 35 36  2  0
 37 36  1  0
 37 41  1  0
 38 37  2  0
 39 34  2  0
 39 38  1  0
 40 39  1  0
 42 43  1  0
 43 46  1  0
 43 45  1  0
 44 42  2  0
 47 48  1  0
 47 22  1  0
 49 47  1  0
 51 50  1  0
 52 55  1  0
 52 51  1  0
 52 53  1  0
 54 52  1  0
 57 56  1  0
 57 58  1  0
 57 55  1  0
 59 70  2  0
 60 58  1  0
 60 65  1  0
 61 69  1  0
 61 71  1  0
 62 64  1  0
 63 69  1  0
 64 65  2  0
 64 63  1  0
 66 60  2  0
 67 66  1  0
 67 62  2  0
 68 62  1  0
 68 61  1  0
 69 59  1  0
 71 73  2  0
 72 71  1  0
 74 72  1  0
 75 84  2  0
 75 80  1  0
 76 72  1  0
 76 80  1  0
 77 76  1  0
 78 79  1  0
 78 77  1  0
 79 75  1  0
 80 81  2  0
 81 82  1  0
 83 82  2  0
 84 83  1  0
 85 59  1  0
 85 86  1  0
 85 95  1  0
 86 89  1  0
 87 91  1  0
 87 86  1  0
 88 87  2  0
 91 90  1  0
 93 94  1  0
 93 91  1  0
 93 92  1  0
 95 98  1  1
 95 96  1  0
 97 95  1  0
M  ISO  4   1 100  14 100  57 101  58 101
M  END
>  <TORSDO>  (83) 
F 21

>  <SCORE>  (83) 
-10.007

>  <name>  (83) 
82

>  <ligand_id>  (83) 
82

>  <original_smiles>  (83) 
[H]c1c([H])c([H])c2c(c1[H])C([H])([H])C([H])([H])C([H])([H])C2([H])N([H])C(=O)C1([H])N(C(=O)C([H])(N([H])C(=O)C([H])(N([H])C([H])([H])[H])C([H])([H])[H])C(C([H])([H])[H])(C([H])([H])[H])C([H])([H])[H])C([H])([H])c2c([H])c(OC([H])(C([H])([H])[H])C([H])([H])[N+]([H])([H])C([H])([H])C([H])([H])C3(C([H])([H])[H])C([H])([H])c4c(C(=O)N5C([H])([H])C([H])([H])C([H])([H])C([H])(n6nc(-c7c([H])c([H])c(Oc8c([H])c([H])c(F)c([H])c8F)c([H])c7[H])c(C(=O)N([H])[H])c6N([H])[H])C5([H])[H])c(C([H])([H])[H])c(C([H])([H])[H])c(C([H])([H])[H])c4C3([H])[H])c([H])c([H])c2C1([H])[H]

>  <smiles>  (83) 
[H]c1c([H])c([H])c2c(c1[H])C([H])([H])C([H])([H])C([H])([H])C2([H])N([H])C(=O)C1([H])N(C(=O)C([H])(N([H])C(=O)C([H])(N([H])C([H])([H])[H])C([H])([H])[H])C(C([H])([H])[H])(C([H])([H])[H])C([H])([H])[H])C([H])([H])c2c([H])c(OC([H])(C([H])([H])[H])C([H])([H])[N+]([H])([H])C([H])([H])C([H])([H])C3(C([H])([H])[H])C([H])([H])c4c(C(=O)N5C([H])([H])C([H])([H])C([H])([H])C([H])(n6nc(-c7c([H])c([H])c(Oc8c([H])c([H])c(F)c([H])c8F)c([H])c7[H])c(C(=O)N([H])[H])c6N([H])[H])C5([H])[H])c(C([H])([H])[H])c(C([H])([H])[H])c(C([H])([H])[H])c4C3([H])[H])c([H])c([H])c2C1([H])[H]

$$$$
83:0:0
     RDKit          3D

 98107  0  0  1  0  0  0  0  0999 V2000
  -26.6330  -22.5920   20.3540 C   0  0  0  0  0  3  0  0  0  0  0  0
  -29.3250  -23.2420   20.1170 C   0  0  0  0  0  3  0  0  0  0  0  0
  -27.5340  -21.6000   19.9260 C   0  0  0  0  0  0  0  0  0  0  0  0
  -27.0520  -23.8940   20.6880 C   0  0  0  0  0  0  0  0  0  0  0  0
  -28.9250  -21.8830   19.8830 C   0  0  0  0  0  0  0  0  0  0  0  0
  -28.4040  -24.2820   20.4800 C   0  0  0  0  0  0  0  0  0  0  0  0
  -26.9540  -20.2440   19.5430 C   0  0  0  0  0  1  0  0  0  0  0  0
  -26.0040  -24.7920   21.3270 C   0  0  0  0  0  1  0  0  0  0  0  0
  -29.9630  -20.7510   19.5780 C   0  0  0  0  0  2  0  0  0  0  0  0
  -29.8080  -19.5320   20.4420 N   0  0  0  0  0  4  0  0  0  0  0  0
  -29.9040  -19.8750   21.3850 H   0  0  0  0  0  0  0  0  0  0  0  0
  -28.8660  -19.1930   20.3500 H   0  0  0  0  0  0  0  0  0  0  0  0
  -31.2350  -14.8450   19.5080 C   0  0  0  0  0  0  0  0  0  0  0  0
  -30.8450  -12.6390   18.4400 C   0  0  0  0  0  2  0  0  0  0  0  0
  -29.7180  -12.7760   17.3930 C   0  0  0  0  0  2  0  0  0  0  0  0
  -28.3330  -12.6000   18.0470 C   0  0  0  0  0  2  0  0  0  0  0  0
  -28.1720  -13.4410   19.3410 C   0  0  0  0  0  3  0  0  0  0  0  0
  -29.3950  -13.2670   20.2690 C   0  0  0  0  0  2  0  0  0  0  0  0
  -30.5940  -13.6350   19.4990 N   0  0  0  0  0  0  0  0  0  0  0  0
  -32.2650  -15.0280   18.8510 O   0  0  0  0  0  0  0  0  0  0  0  0
  -30.4030  -16.1920   21.4210 C   0  0  0  0  0  2  0  0  0  0  0  0
  -30.3960  -17.2450   19.3280 C   0  0  0  0  0  2  0  0  0  0  0  0
  -30.9850  -17.6000   21.6670 C   0  0  0  0  0  3  0  0  0  0  0  0
  -30.7740  -18.3760   20.3390 C   0  0  0  0  0  3  0  0  0  0  0  0
  -30.5290  -15.9180   19.9910 N   0  0  0  0  0  0  0  0  0  0  0  0
  -25.9800  -14.0080   20.5580 C   0  0  0  0  0  0  0  0  0  0  0  0
  -24.9610  -13.2220   21.0230 C   0  0  0  0  0  0  0  0  0  0  0  0
  -25.3430  -11.8740   20.7430 C   0  0  0  0  0  0  0  0  0  0  0  0
  -26.9200  -13.1380   20.0290 N   0  0  0  0  0  0  0  0  0  0  0  0
  -26.5520  -11.8420   20.1970 N   0  0  0  0  0  0  0  0  0  0  0  0
  -24.6040  -10.6170   20.9110 C   0  0  0  0  0  0  0  0  0  0  0  0
  -25.0230   -9.6310   21.8320 C   0  0  0  0  0  3  0  0  0  0  0  0
  -24.2840   -8.4390   21.9900 C   0  0  0  0  0  3  0  0  0  0  0  0
  -23.1130   -8.2230   21.2260 C   0  0  0  0  0  0  0  0  0  0  0  0
  -22.7120   -9.1960   20.2940 C   0  0  0  0  0  3  0  0  0  0  0  0
  -23.4510  -10.3820   20.1350 C   0  0  0  0  0  3  0  0  0  0  0  0
  -22.3460   -7.0840   21.2930 O   0  0  0  0  0  0  0  0  0  0  0  0
  -22.1020   -6.4520   22.4860 C   0  0  0  0  0  0  0  0  0  0  0  0
  -21.5350   -7.1310   23.5880 C   0  0  0  0  0  3  0  0  0  0  0  0
  -21.2350   -6.4260   24.7700 C   0  0  0  0  0  3  0  0  0  0  0  0
  -21.4920   -5.0440   24.8520 C   0  0  0  0  0  0  0  0  0  0  0  0
  -22.0510   -4.3660   23.7550 C   0  0  0  0  0  3  0  0  0  0  0  0
  -22.3520   -5.0680   22.5740 C   0  0  0  0  0  0  0  0  0  0  0  0
  -22.8710   -4.4050   21.5120 F   0  0  0  0  0  0  0  0  0  0  0  0
  -21.1970   -4.3640   25.9850 F   0  0  0  0  0  0  0  0  0  0  0  0
  -23.6630  -13.6960   21.6070 C   0  0  0  0  0  0  0  0  0  0  0  0
  -23.1250  -12.9620   22.5750 N   0  0  0  0  0  0  0  0  0  0  0  0
  -23.1420  -14.7480   21.2420 O   0  0  0  0  0  0  0  0  0  0  0  0
  -23.5630  -12.1080   22.8890 H   0  0  0  0  0  0  0  0  0  0  0  0
  -22.2630  -13.2590   23.0110 H   0  0  0  0  0  0  0  0  0  0  0  0
  -26.1770  -15.3860   20.5180 N   0  0  0  0  0  0  0  0  0  0  0  0
  -25.4730  -16.0430   20.8380 H   0  0  0  0  0  0  0  0  0  0  0  0
  -26.9710  -15.8340   20.0800 H   0  0  0  0  0  0  0  0  0  0  0  0
  -30.8850  -17.4340   24.2290 C   0  0  0  0  0  1  0  0  0  0  0  0
  -31.1200  -19.6870   23.1540 C   0  0  0  0  0  1  0  0  0  0  0  0
  -30.5220  -18.2750   22.9890 C   0  0  0  0  0  3  0  0  0  0  0  0
  -28.9030  -25.7330   20.7860 C   0  0  0  0  0  2  0  0  0  0  0  0
  -28.7000  -26.7910   19.7990 O   0  0  0  0  0  0  0  0  0  0  0  0
  -24.6680  -31.6970   23.1840 C   0  0  0  0  0  0  0  0  0  0  0  0
  -27.5380  -27.5420   19.8630 C   0  0  0  0  0  0  0  0  0  0  0  0
  -23.5500  -30.3590   21.4310 C   0  0  0  0  0  3  0  0  0  0  0  0
  -25.0930  -28.9880   19.9220 C   0  0  0  0  0  0  0  0  0  0  0  0
  -26.0650  -30.8220   21.3090 C   0  0  0  0  0  2  0  0  0  0  0  0
  -26.2210  -29.4990   20.5790 C   0  0  0  0  0  0  0  0  0  0  0  0
  -27.4460  -28.7800   20.5550 C   0  0  0  0  0  3  0  0  0  0  0  0
  -26.4080  -27.0880   19.1570 C   0  0  0  0  0  3  0  0  0  0  0  0
  -25.1830  -27.7810   19.2070 C   0  0  0  0  0  3  0  0  0  0  0  0
  -23.8110  -29.7900   20.0120 C   0  0  0  0  0  2  0  0  0  0  0  0
  -24.7780  -30.9720   22.0340 N   0  0  0  0  0  0  0  0  0  0  0  0
  -23.5670  -31.8860   23.7210 O   0  0  0  0  0  0  0  0  0  0  0  0
  -22.9310  -29.2470   22.3090 C   0  0  0  0  0  0  0  0  0  0  0  0
  -21.6160  -29.0200   22.1540 N   0  0  0  0  0  0  0  0  0  0  0  0
  -23.6310  -28.5950   23.0870 O   0  0  0  0  0  0  0  0  0  0  0  0
  -21.1090  -29.6010   21.5010 H   0  0  0  0  0  0  0  0  0  0  0  0
  -18.2890  -27.6540   22.5320 C   0  0  0  0  0  0  0  0  0  0  0  0
  -20.8320  -27.9990   22.8470 C   0  0  0  0  0  3  0  0  0  0  0  0
  -20.9990  -26.6180   22.1720 C   0  0  0  0  0  2  0  0  0  0  0  0
  -19.9190  -26.3230   21.1260 C   0  0  0  0  0  2  0  0  0  0  0  0
  -18.5270  -26.3660   21.7630 C   0  0  0  0  0  2  0  0  0  0  0  0
  -19.3730  -28.4300   23.0270 C   0  0  0  0  0  0  0  0  0  0  0  0
  -19.0960  -29.6380   23.7040 C   0  0  0  0  0  3  0  0  0  0  0  0
  -17.7690  -30.0700   23.8930 C   0  0  0  0  0  3  0  0  0  0  0  0
  -16.7020  -29.2910   23.4160 C   0  0  0  0  0  3  0  0  0  0  0  0
  -16.9620  -28.0850   22.7410 C   0  0  0  0  0  3  0  0  0  0  0  0
  -25.9150  -32.3420   23.8650 C   0  0  0  0  0  3  0  0  0  0  0  0
  -26.3820  -31.5770   25.1630 C   0  0  1  0  0  0  0  0  0  0  0  0
  -25.2430  -31.3190   26.1780 C   0  0  0  0  0  1  0  0  0  0  0  0
  -27.0070  -30.2090   24.8010 C   0  0  0  0  0  1  0  0  0  0  0  0
  -27.4870  -32.3890   25.8800 C   0  0  0  0  0  1  0  0  0  0  0  0
  -25.5770  -33.7370   24.1780 N   0  0  0  0  0  0  0  0  0  0  0  0
  -25.9200  -34.7910   23.4240 C   0  0  0  0  0  0  0  0  0  0  0  0
  -26.6270  -34.6930   22.4180 O   0  0  0  0  0  0  0  0  0  0  0  0
  -24.9580  -33.8860   24.9610 H   0  0  0  0  0  0  0  0  0  0  0  0
  -24.1870  -36.5610   22.9970 C   0  0  0  0  0  1  0  0  0  0  0  0
  -25.3990  -36.1740   23.8590 C   0  0  0  0  0  3  0  0  0  0  0  0
  -27.4830  -37.0900   24.7790 C   0  0  0  0  0  1  0  0  0  0  0  0
  -26.4230  -37.2380   23.7850 N   0  0  0  0  0  0  0  0  0  0  0  0
  -25.9990  -38.1540   23.9090 H   0  0  0  0  0  0  0  0  0  0  0  0
  1  4  1  0
  2  6  1  0
  3  1  2  0
  4  8  1  0
  5  3  1  0
  5  2  2  0
  6  4  2  0
  6 57  1  0
  7  3  1  0
  9  5  1  0
  9 10  1  0
 10 11  1  0
 12 10  1  0
 13 25  1  0
 14 19  1  0
 15 16  1  0
 15 14  1  0
 17 16  1  0
 17 29  1  0
 17 18  1  0
 19 13  1  0
 19 18  1  0
 20 13  2  0
 21 23  1  0
 22 25  1  0
 22 24  1  0
 23 56  1  0
 24 10  1  0
 24 23  1  0
 25 21  1  0
 26 27  2  0
 27 46  1  0
 28 31  1  0
 28 27  1  0
 29 30  1  0
 29 26  1  0
 30 28  2  0
 31 32  1  0
 32 33  2  0
 34 37  1  0
 34 33  1  0
 35 34  2  0
 36 35  1  0
 36 31  2  0
 37 38  1  0
 38 43  2  0
 38 39  1  0
 39 40  2  0
 40 41  1  0
 41 45  1  0
 42 41  2  0
 43 42  1  0
 44 43  1  0
 46 47  1  0
 47 49  1  0
 47 50  1  0
 48 46  2  0
 51 26  1  0
 51 52  1  0
 53 51  1  0
 56 55  1  0
 56 54  1  0
 58 60  1  0
 58 57  1  0
 59 70  2  0
 60 65  1  0
 61 69  1  0
 61 71  1  0
 62 68  1  0
 62 64  1  0
 63 69  1  0
 64 63  1  0
 65 64  2  0
 66 67  1  0
 66 60  2  0
 67 62  2  0
 68 61  1  0
 69 59  1  0
 71 73  2  0
 72 71  1  0
 74 72  1  0
 75 84  2  0
 75 80  1  0
 76 72  1  0
 76 80  1  0
 77 76  1  0
 78 79  1  0
 78 77  1  0
 79 75  1  0
 80 81  2  0
 81 82  1  0
 83 82  2  0
 84 83  1  0
 85 59  1  0
 85 90  1  0
 85 86  1  0
 86 89  1  1
 86 87  1  0
 88 86  1  0
 90 93  1  0
 91 95  1  0
 91 90  1  0
 92 91  2  0
 95 94  1  0
 97 95  1  0
 97 98  1  0
 97 96  1  0
M  ISO  4  13 100  25 100  57 101  58 101
M  END
>  <TORSDO>  (84) 
F 20

>  <SCORE>  (84) 
-9.765

>  <name>  (84) 
83

>  <ligand_id>  (84) 
83

>  <original_smiles>  (84) 
[H]c1c([H])c([H])c2c(c1[H])C([H])([H])C([H])([H])C([H])([H])C2([H])N([H])C(=O)C1([H])N(C(=O)C([H])(N([H])C(=O)C([H])(N([H])C([H])([H])[H])C([H])([H])[H])C(C([H])([H])[H])(C([H])([H])[H])C([H])([H])[H])C([H])([H])c2c([H])c(OC([H])([H])c3c([H])c(C([H])([H])[N+]([H])([H])C4([H])C([H])([H])N(C(=O)N5C([H])([H])C([H])([H])C([H])([H])C([H])(n6nc(-c7c([H])c([H])c(Oc8c([H])c([H])c(F)c([H])c8F)c([H])c7[H])c(C(=O)N([H])[H])c6N([H])[H])C5([H])[H])C([H])([H])C4([H])C([H])(C([H])([H])[H])C([H])([H])[H])c(C([H])([H])[H])c([H])c3C([H])([H])[H])c([H])c([H])c2C1([H])[H]

>  <smiles>  (84) 
[H]c1c([H])c([H])c2c(c1[H])C([H])([H])C([H])([H])C([H])([H])C2([H])N([H])C(=O)C1([H])N(C(=O)C([H])(N([H])C(=O)C([H])(N([H])C([H])([H])[H])C([H])([H])[H])C(C([H])([H])[H])(C([H])([H])[H])C([H])([H])[H])C([H])([H])c2c([H])c(OC([H])([H])c3c([H])c(C([H])([H])[N+]([H])([H])C4([H])C([H])([H])N(C(=O)N5C([H])([H])C([H])([H])C([H])([H])C([H])(n6nc(-c7c([H])c([H])c(Oc8c([H])c([H])c(F)c([H])c8F)c([H])c7[H])c(C(=O)N([H])[H])c6N([H])[H])C5([H])[H])C([H])([H])C4([H])C([H])(C([H])([H])[H])C([H])([H])[H])c(C([H])([H])[H])c([H])c3C([H])([H])[H])c([H])c([H])c2C1([H])[H]

$$$$
84:0:0
     RDKit          3D

 99109  0  0  1  0  0  0  0  0999 V2000
  -30.0530  -22.4530   21.5620 C   0  0  0  0  0  3  0  0  0  0  0  0
  -30.4740  -23.1080   20.3850 C   0  0  0  0  0  0  0  0  0  0  0  0
  -30.2990  -21.0860   21.7850 C   0  0  0  0  0  0  0  0  0  0  0  0
  -31.1500  -22.3430   19.3940 C   0  0  0  0  0  0  0  0  0  0  0  0
  -31.4680  -20.9790   19.6400 C   0  0  0  0  0  0  0  0  0  0  0  0
  -30.9960  -20.3280   20.8120 C   0  0  0  0  0  0  0  0  0  0  0  0
  -29.8340  -20.4940   23.1090 C   0  0  0  0  0  1  0  0  0  0  0  0
  -31.5260  -22.9660   18.0510 C   0  0  0  0  0  1  0  0  0  0  0  0
  -32.3270  -20.2230   18.6260 C   0  0  0  0  0  1  0  0  0  0  0  0
  -31.3480  -25.5550   20.5790 C   0  0  0  0  0  2  0  0  0  0  0  0
  -30.7260  -26.9160   20.9160 C   0  0  0  0  0  2  0  0  0  0  0  0
  -29.0240  -25.1940   21.0200 C   0  0  0  0  0  2  0  0  0  0  0  0
  -30.1880  -24.6140   20.1970 C   0  0  0  0  0  3  0  0  0  0  0  0
  -29.2090  -26.7100   20.9460 C   0  0  0  0  0  3  0  0  0  0  0  0
  -28.6490  -27.1570   19.7110 O   0  0  0  0  0  0  0  0  0  0  0  0
  -24.5540  -31.8470   23.1650 C   0  0  0  0  0  0  0  0  0  0  0  0
  -27.4460  -27.8100   19.8100 C   0  0  0  0  0  0  0  0  0  0  0  0
  -23.4160  -30.4730   21.4450 C   0  0  0  0  0  3  0  0  0  0  0  0
  -24.9500  -29.1180   19.9230 C   0  0  0  0  0  0  0  0  0  0  0  0
  -25.9050  -31.0140   21.2500 C   0  0  0  0  0  2  0  0  0  0  0  0
  -26.0710  -29.6920   20.5360 C   0  0  0  0  0  0  0  0  0  0  0  0
  -27.3200  -29.0450   20.4800 C   0  0  0  0  0  3  0  0  0  0  0  0
  -26.3160  -27.2440   19.1860 C   0  0  0  0  0  3  0  0  0  0  0  0
  -25.0640  -27.8900   19.2460 C   0  0  0  0  0  3  0  0  0  0  0  0
  -23.6520  -29.8870   20.0260 C   0  0  0  0  0  2  0  0  0  0  0  0
  -24.6430  -31.1230   22.0130 N   0  0  0  0  0  0  0  0  0  0  0  0
  -23.4650  -32.0180   23.7300 O   0  0  0  0  0  0  0  0  0  0  0  0
  -22.8400  -29.3600   22.3470 C   0  0  0  0  0  0  0  0  0  0  0  0
  -21.5290  -29.1040   22.2140 N   0  0  0  0  0  0  0  0  0  0  0  0
  -23.5680  -28.7300   23.1190 O   0  0  0  0  0  0  0  0  0  0  0  0
  -21.0010  -29.6700   21.5650 H   0  0  0  0  0  0  0  0  0  0  0  0
  -18.2280  -27.7230   22.6920 C   0  0  0  0  0  0  0  0  0  0  0  0
  -20.7770  -28.0760   22.9290 C   0  0  0  0  0  3  0  0  0  0  0  0
  -20.9290  -26.6990   22.2420 C   0  0  0  0  0  2  0  0  0  0  0  0
  -19.8180  -26.4030   21.2290 C   0  0  0  0  0  2  0  0  0  0  0  0
  -18.4470  -26.4370   21.9130 C   0  0  0  0  0  2  0  0  0  0  0  0
  -19.3220  -28.5010   23.1550 C   0  0  0  0  0  0  0  0  0  0  0  0
  -19.0630  -29.7060   23.8430 C   0  0  0  0  0  3  0  0  0  0  0  0
  -17.7430  -30.1340   24.0730 C   0  0  0  0  0  3  0  0  0  0  0  0
  -16.6630  -29.3530   23.6270 C   0  0  0  0  0  3  0  0  0  0  0  0
  -16.9060  -28.1480   22.9420 C   0  0  0  0  0  3  0  0  0  0  0  0
  -25.8090  -32.5130   23.8140 C   0  0  0  0  0  3  0  0  0  0  0  0
  -25.4440  -33.8900   24.1670 N   0  0  0  0  0  0  0  0  0  0  0  0
  -25.6890  -34.9620   23.3990 C   0  0  0  0  0  0  0  0  0  0  0  0
  -26.3200  -34.8970   22.3400 O   0  0  0  0  0  0  0  0  0  0  0  0
  -24.8760  -34.0120   24.9920 H   0  0  0  0  0  0  0  0  0  0  0  0
  -23.8240  -36.6330   23.1700 C   0  0  0  0  0  1  0  0  0  0  0  0
  -25.1490  -36.3200   23.8840 C   0  0  0  0  0  3  0  0  0  0  0  0
  -27.2710  -37.3600   24.5510 C   0  0  0  0  0  1  0  0  0  0  0  0
  -26.0980  -37.4360   23.6830 N   0  0  0  0  0  0  0  0  0  0  0  0
  -25.6430  -38.3300   23.8440 H   0  0  0  0  0  0  0  0  0  0  0  0
  -26.3450  -31.7340   25.0770 C   0  0  1  0  0  0  0  0  0  0  0  0
  -25.2350  -31.3320   26.0750 C   0  0  0  0  0  1  0  0  0  0  0  0
  -27.0860  -30.4450   24.6480 C   0  0  0  0  0  1  0  0  0  0  0  0
  -27.3740  -32.6060   25.8340 C   0  0  0  0  0  1  0  0  0  0  0  0
  -31.2320  -18.9520   20.9840 N   0  0  0  0  0  0  0  0  0  0  0  0
  -31.9960  -18.6180   20.4110 H   0  0  0  0  0  0  0  0  0  0  0  0
  -31.6410  -14.2220   19.7040 C   0  0  0  0  0  0  0  0  0  0  0  0
  -31.2000  -11.9020   19.0000 C   0  0  0  0  0  2  0  0  0  0  0  0
  -30.2340  -11.9040   17.7980 C   0  0  0  0  0  2  0  0  0  0  0  0
  -28.7690  -11.9320   18.2740 C   0  0  0  0  0  2  0  0  0  0  0  0
  -28.5030  -13.0280   19.3400 C   0  0  0  0  0  3  0  0  0  0  0  0
  -29.5750  -12.9840   20.4520 C   0  0  0  0  0  2  0  0  0  0  0  0
  -30.9000  -13.0890   19.8140 N   0  0  0  0  0  0  0  0  0  0  0  0
  -32.7150  -14.2660   19.0880 O   0  0  0  0  0  0  0  0  0  0  0  0
  -30.2210  -16.8800   21.8960 C   0  0  0  0  0  2  0  0  0  0  0  0
  -29.8710  -17.4770   19.4890 C   0  0  0  0  0  2  0  0  0  0  0  0
  -31.2890  -15.8530   21.4590 C   0  0  0  0  0  2  0  0  0  0  0  0
  -30.9490  -16.4450   19.1120 C   0  0  0  0  0  2  0  0  0  0  0  0
  -30.0790  -18.0510   20.9030 C   0  0  0  0  0  3  0  0  0  0  0  0
  -31.0320  -15.3610   20.0980 N   0  0  0  0  0  0  0  0  0  0  0  0
  -26.2360  -13.9210   20.1720 C   0  0  0  0  0  0  0  0  0  0  0  0
  -25.1030  -13.2820   20.6020 C   0  0  0  0  0  0  0  0  0  0  0  0
  -25.3940  -11.8840   20.5420 C   0  0  0  0  0  0  0  0  0  0  0  0
  -27.1520  -12.9210   19.8870 N   0  0  0  0  0  0  0  0  0  0  0  0
  -26.6500  -11.6890   20.1640 N   0  0  0  0  0  0  0  0  0  0  0  0
  -24.5300  -10.7190   20.7680 C   0  0  0  0  0  0  0  0  0  0  0  0
  -24.8760   -9.7150   21.6990 C   0  0  0  0  0  3  0  0  0  0  0  0
  -24.0210   -8.6120   21.9120 C   0  0  0  0  0  3  0  0  0  0  0  0
  -22.8040   -8.5090   21.1990 C   0  0  0  0  0  0  0  0  0  0  0  0
  -22.4760   -9.5000   20.2570 C   0  0  0  0  0  3  0  0  0  0  0  0
  -23.3310  -10.5940   20.0390 C   0  0  0  0  0  3  0  0  0  0  0  0
  -21.9220   -7.4620   21.3250 O   0  0  0  0  0  0  0  0  0  0  0  0
  -21.7520   -6.8040   22.5160 C   0  0  0  0  0  0  0  0  0  0  0  0
  -21.3990   -7.4850   23.7020 C   0  0  0  0  0  3  0  0  0  0  0  0
  -21.1630   -6.7610   24.8860 C   0  0  0  0  0  3  0  0  0  0  0  0
  -21.2710   -5.3570   24.8870 C   0  0  0  0  0  0  0  0  0  0  0  0
  -21.6180   -4.6760   23.7070 C   0  0  0  0  0  3  0  0  0  0  0  0
  -21.8530   -5.3990   22.5240 C   0  0  0  0  0  0  0  0  0  0  0  0
  -22.1620   -4.7350   21.3840 F   0  0  0  0  0  0  0  0  0  0  0  0
  -21.0380   -4.6600   26.0240 F   0  0  0  0  0  0  0  0  0  0  0  0
  -23.7920  -13.9230   20.9540 C   0  0  0  0  0  0  0  0  0  0  0  0
  -23.0740  -13.3600   21.9220 N   0  0  0  0  0  0  0  0  0  0  0  0
  -23.4170  -14.9600   20.4070 O   0  0  0  0  0  0  0  0  0  0  0  0
  -23.3910  -12.5220   22.3860 H   0  0  0  0  0  0  0  0  0  0  0  0
  -22.1980  -13.7750   22.2010 H   0  0  0  0  0  0  0  0  0  0  0  0
  -26.5540  -15.2600   19.9770 N   0  0  0  0  0  0  0  0  0  0  0  0
  -25.8860  -16.0070   20.1350 H   0  0  0  0  0  0  0  0  0  0  0  0
  -27.4260  -15.5860   19.5790 H   0  0  0  0  0  0  0  0  0  0  0  0
  1  3  1  0
  2  1  2  0
  3  7  1  0
  4  5  2  0
  4  2  1  0
  5  6  1  0
  6 56  1  0
  6  3  2  0
  8  4  1  0
  9  5  1  0
 10 11  1  0
 11 14  1  0
 13  2  1  0
 13 10  1  0
 13 12  1  0
 14 15  1  0
 14 12  1  0
 15 17  1  0
 16 27  2  0
 17 22  1  0
 18 26  1  0
 18 28  1  0
 19 25  1  0
 19 21  1  0
 20 26  1  0
 21 20  1  0
 22 21  2  0
 23 24  1  0
 23 17  2  0
 24 19  2  0
 25 18  1  0
 26 16  1  0
 28 30  2  0
 29 28  1  0
 31 29  1  0
 32 41  2  0
 32 37  1  0
 33 29  1  0
 33 37  1  0
 34 33  1  0
 35 36  1  0
 35 34  1  0
 36 32  1  0
 37 38  2  0
 38 39  1  0
 40 39  2  0
 41 40  1  0
 42 16  1  0
 42 43  1  0
 42 52  1  0
 43 46  1  0
 44 48  1  0
 44 43  1  0
 45 44  2  0
 48 47  1  0
 50 51  1  0
 50 48  1  0
 50 49  1  0
 52 55  1  1
 52 53  1  0
 54 52  1  0
 57 56  1  0
 58 64  1  0
 58 71  1  0
 59 64  1  0
 60 61  1  0
 60 59  1  0
 62 61  1  0
 62 75  1  0
 62 63  1  0
 64 63  1  0
 65 58  2  0
 67 70  1  0
 68 66  1  0
 69 67  1  0
 69 71  1  0
 70 56  1  0
 70 66  1  0
 71 68  1  0
 72 73  2  0
 73 92  1  0
 74 73  1  0
 74 77  1  0
 75 76  1  0
 75 72  1  0
 76 74  2  0
 77 78  1  0
 78 79  2  0
 80 83  1  0
 80 79  1  0
 81 80  2  0
 82 81  1  0
 82 77  2  0
 83 84  1  0
 84 89  2  0
 84 85  1  0
 85 86  2  0
 86 87  1  0
 87 91  1  0
 88 87  2  0
 89 88  1  0
 90 89  1  0
 92 93  1  0
 93 96  1  0
 93 95  1  0
 94 92  2  0
 97 98  1  0
 97 72  1  0
 99 97  1  0
M  ISO  4  14 101  15 101  58 100  71 100
M  END
>  <TORSDO>  (85) 
F 18

>  <SCORE>  (85) 
-13.324

>  <name>  (85) 
84

>  <ligand_id>  (85) 
84

>  <original_smiles>  (85) 
[H]c1c([H])c([H])c2c(c1[H])C([H])([H])C([H])([H])C([H])([H])C2([H])N([H])C(=O)C1([H])N(C(=O)C([H])(N([H])C(=O)C([H])(N([H])C([H])([H])[H])C([H])([H])[H])C(C([H])([H])[H])(C([H])([H])[H])C([H])([H])[H])C([H])([H])c2c([H])c(OC3([H])C([H])([H])C([H])([H])C([H])(c4c([H])c(C([H])([H])[H])c(N([H])C5([H])C([H])([H])C([H])([H])N(C(=O)N6C([H])([H])C([H])([H])C([H])([H])C([H])(n7nc(-c8c([H])c([H])c(Oc9c([H])c([H])c(F)c([H])c9F)c([H])c8[H])c(C(=O)N([H])[H])c7N([H])[H])C6([H])[H])C([H])([H])C5([H])[H])c(C([H])([H])[H])c4C([H])([H])[H])C3([H])[H])c([H])c([H])c2C1([H])[H]

>  <smiles>  (85) 
[H]c1c([H])c([H])c2c(c1[H])C([H])([H])C([H])([H])C([H])([H])C2([H])N([H])C(=O)C1([H])N(C(=O)C([H])(N([H])C(=O)C([H])(N([H])C([H])([H])[H])C([H])([H])[H])C(C([H])([H])[H])(C([H])([H])[H])C([H])([H])[H])C([H])([H])c2c([H])c(OC3([H])C([H])([H])C([H])([H])C([H])(c4c([H])c(C([H])([H])[H])c(N([H])C5([H])C([H])([H])C([H])([H])N(C(=O)N6C([H])([H])C([H])([H])C([H])([H])C([H])(n7nc(-c8c([H])c([H])c(Oc9c([H])c([H])c(F)c([H])c9F)c([H])c8[H])c(C(=O)N([H])[H])c7N([H])[H])C6([H])[H])C([H])([H])C5([H])[H])c(C([H])([H])[H])c4C([H])([H])[H])C3([H])[H])c([H])c([H])c2C1([H])[H]

$$$$
85:0:0
     RDKit          3D

 93102  0  0  1  0  0  0  0  0999 V2000
  -29.0660  -21.4310   21.3330 C   0  0  0  0  0  3  0  0  0  0  0  0
  -29.4740  -20.7770   20.1390 C   0  0  0  0  0  0  0  0  0  0  0  0
  -28.6800  -22.8110   21.3930 C   0  0  0  0  0  0  0  0  0  0  0  0
  -29.5550  -21.6450   18.9970 C   0  0  0  0  0  0  0  0  0  0  0  0
  -29.1500  -23.0330   19.0430 C   0  0  0  0  0  0  0  0  0  0  0  0
  -28.6480  -23.6480   20.2330 C   0  0  0  0  0  0  0  0  0  0  0  0
  -28.2560  -23.3560   22.7480 C   0  0  0  0  0  1  0  0  0  0  0  0
  -30.0670  -21.1000   17.6650 C   0  0  0  0  0  1  0  0  0  0  0  0
  -29.2070  -23.8640   17.7610 C   0  0  0  0  0  1  0  0  0  0  0  0
  -30.6690  -14.8180   20.0440 C   0  0  0  0  0  0  0  0  0  0  0  0
  -30.3500  -12.5640   19.0290 C   0  0  0  0  0  2  0  0  0  0  0  0
  -29.3550  -12.6420   17.8520 C   0  0  0  0  0  2  0  0  0  0  0  0
  -27.9130  -12.4660   18.3590 C   0  0  0  0  0  2  0  0  0  0  0  0
  -27.5970  -13.3520   19.5940 C   0  0  0  0  0  3  0  0  0  0  0  0
  -28.7160  -13.2950   20.6570 C   0  0  0  0  0  2  0  0  0  0  0  0
  -29.9770  -13.6290   19.9880 N   0  0  0  0  0  0  0  0  0  0  0  0
  -31.8460  -14.8490   19.6730 O   0  0  0  0  0  0  0  0  0  0  0  0
  -30.0330  -18.4320   21.4320 C   0  0  0  0  0  2  0  0  0  0  0  0
  -28.9870  -18.2560   19.2810 C   0  0  0  0  0  2  0  0  0  0  0  0
  -30.6350  -16.9730   21.2700 C   0  0  0  0  0  2  0  0  0  0  0  0
  -29.5820  -16.8030   19.0810 C   0  0  0  0  0  2  0  0  0  0  0  0
  -29.8870  -19.2230   20.1010 C   0  0  0  0  0  3  0  0  0  0  0  0
  -30.0090  -16.0260   20.2880 N   0  0  0  0  0  0  0  0  0  0  0  0
  -25.2600  -13.9210   20.4760 C   0  0  0  0  0  0  0  0  0  0  0  0
  -24.2110  -13.1380   20.8780 C   0  0  0  0  0  0  0  0  0  0  0  0
  -24.6670  -11.7870   20.7800 C   0  0  0  0  0  0  0  0  0  0  0  0
  -26.2850  -13.0480   20.1550 N   0  0  0  0  0  0  0  0  0  0  0  0
  -25.9410  -11.7570   20.4010 N   0  0  0  0  0  0  0  0  0  0  0  0
  -23.9470  -10.5210   20.9700 C   0  0  0  0  0  0  0  0  0  0  0  0
  -24.3860   -9.5530   21.8990 C   0  0  0  0  0  3  0  0  0  0  0  0
  -23.6640   -8.3530   22.0780 C   0  0  0  0  0  3  0  0  0  0  0  0
  -22.4880   -8.1130   21.3290 C   0  0  0  0  0  0  0  0  0  0  0  0
  -22.0690   -9.0700   20.3880 C   0  0  0  0  0  3  0  0  0  0  0  0
  -22.7900  -10.2610   20.2080 C   0  0  0  0  0  3  0  0  0  0  0  0
  -21.7390   -6.9640   21.4170 O   0  0  0  0  0  0  0  0  0  0  0  0
  -21.6460   -6.2540   22.5860 C   0  0  0  0  0  0  0  0  0  0  0  0
  -21.1070   -6.8190   23.7620 C   0  0  0  0  0  3  0  0  0  0  0  0
  -20.9660   -6.0330   24.9220 C   0  0  0  0  0  3  0  0  0  0  0  0
  -21.3530   -4.6790   24.9070 C   0  0  0  0  0  0  0  0  0  0  0  0
  -21.8860   -4.1120   23.7360 C   0  0  0  0  0  3  0  0  0  0  0  0
  -22.0290   -4.8970   22.5780 C   0  0  0  0  0  0  0  0  0  0  0  0
  -22.5230   -4.3400   21.4460 F   0  0  0  0  0  0  0  0  0  0  0  0
  -21.2110   -3.9200   26.0190 F   0  0  0  0  0  0  0  0  0  0  0  0
  -22.8330  -13.6090   21.2390 C   0  0  0  0  0  0  0  0  0  0  0  0
  -22.1540  -12.8930   22.1260 N   0  0  0  0  0  0  0  0  0  0  0  0
  -22.3720  -14.6490   20.7700 O   0  0  0  0  0  0  0  0  0  0  0  0
  -22.5420  -12.0510   22.5240 H   0  0  0  0  0  0  0  0  0  0  0  0
  -21.2310  -13.1900   22.4100 H   0  0  0  0  0  0  0  0  0  0  0  0
  -25.4210  -15.2960   20.3350 N   0  0  0  0  0  0  0  0  0  0  0  0
  -24.6690  -15.9530   20.5140 H   0  0  0  0  0  0  0  0  0  0  0  0
  -26.2690  -15.7430   20.0100 H   0  0  0  0  0  0  0  0  0  0  0  0
  -27.7610  -24.9770   20.1880 C   0  0  0  0  0  2  0  0  0  0  0  0
  -28.2250  -26.4100   20.1700 O   0  0  0  0  0  0  0  0  0  0  0  0
  -24.6330  -31.9080   23.2980 C   0  0  0  0  0  0  0  0  0  0  0  0
  -27.1720  -27.3640   20.1120 C   0  0  0  0  0  0  0  0  0  0  0  0
  -23.4100  -30.5590   21.6370 C   0  0  0  0  0  3  0  0  0  0  0  0
  -24.8390  -29.0490   20.1570 C   0  0  0  0  0  0  0  0  0  0  0  0
  -25.9600  -30.8480   21.4500 C   0  0  0  0  0  2  0  0  0  0  0  0
  -26.0220  -29.4890   20.7630 C   0  0  0  0  0  0  0  0  0  0  0  0
  -27.1950  -28.6600   20.7330 C   0  0  0  0  0  3  0  0  0  0  0  0
  -25.9640  -27.0210   19.4530 C   0  0  0  0  0  3  0  0  0  0  0  0
  -24.8170  -27.8220   19.4890 C   0  0  0  0  0  3  0  0  0  0  0  0
  -23.6120  -29.9320   20.2360 C   0  0  0  0  0  2  0  0  0  0  0  0
  -24.6880  -31.1220   22.1830 N   0  0  0  0  0  0  0  0  0  0  0  0
  -23.5550  -32.1770   23.8470 O   0  0  0  0  0  0  0  0  0  0  0  0
  -22.7500  -29.5170   22.5720 C   0  0  0  0  0  0  0  0  0  0  0  0
  -21.4250  -29.3310   22.4360 N   0  0  0  0  0  0  0  0  0  0  0  0
  -23.4290  -28.8820   23.3830 O   0  0  0  0  0  0  0  0  0  0  0  0
  -20.9360  -29.8990   21.7600 H   0  0  0  0  0  0  0  0  0  0  0  0
  -18.0490  -28.1150   22.9160 C   0  0  0  0  0  0  0  0  0  0  0  0
  -20.6080  -28.3760   23.1880 C   0  0  0  0  0  3  0  0  0  0  0  0
  -20.7120  -26.9550   22.5880 C   0  0  0  0  0  2  0  0  0  0  0  0
  -19.6090  -26.6490   21.5690 C   0  0  0  0  0  2  0  0  0  0  0  0
  -18.2280  -26.7790   22.2140 C   0  0  0  0  0  2  0  0  0  0  0  0
  -19.1660  -28.8730   23.3590 C   0  0  0  0  0  0  0  0  0  0  0  0
  -18.9430  -30.1220   23.9740 C   0  0  0  0  0  3  0  0  0  0  0  0
  -17.6360  -30.6150   24.1540 C   0  0  0  0  0  3  0  0  0  0  0  0
  -16.5340  -29.8550   23.7250 C   0  0  0  0  0  3  0  0  0  0  0  0
  -16.7420  -28.6060   23.1120 C   0  0  0  0  0  3  0  0  0  0  0  0
  -25.9220  -32.5220   23.9230 C   0  0  0  0  0  3  0  0  0  0  0  0
  -25.6270  -33.9220   24.2600 N   0  0  0  0  0  0  0  0  0  0  0  0
  -25.9180  -34.9710   23.4800 C   0  0  0  0  0  0  0  0  0  0  0  0
  -26.5340  -34.8630   22.4170 O   0  0  0  0  0  0  0  0  0  0  0  0
  -25.0780  -34.0790   25.0930 H   0  0  0  0  0  0  0  0  0  0  0  0
  -24.1570  -36.7500   23.2280 C   0  0  0  0  0  1  0  0  0  0  0  0
  -25.4540  -36.3610   23.9560 C   0  0  0  0  0  3  0  0  0  0  0  0
  -27.6280  -37.2760   24.6380 C   0  0  0  0  0  1  0  0  0  0  0  0
  -26.4690  -37.4200   23.7610 N   0  0  0  0  0  0  0  0  0  0  0  0
  -26.0650  -38.3400   23.9170 H   0  0  0  0  0  0  0  0  0  0  0  0
  -26.4230  -31.7380   25.1980 C   0  0  1  0  0  0  0  0  0  0  0  0
  -25.3220  -31.5050   26.2590 C   0  0  0  0  0  1  0  0  0  0  0  0
  -26.9970  -30.3570   24.8040 C   0  0  0  0  0  1  0  0  0  0  0  0
  -27.5770  -32.5200   25.8690 C   0  0  0  0  0  1  0  0  0  0  0  0
  1  3  1  0
  2  1  2  0
  3  7  1  0
  4  5  2  0
  4  2  1  0
  5  6  1  0
  6  3  2  0
  8  4  1  0
  9  5  1  0
 10 23  1  0
 11 16  1  0
 12 13  1  0
 12 11  1  0
 14 13  1  0
 14 27  1  0
 14 15  1  0
 16 10  1  0
 16 15  1  0
 17 10  2  0
 19 22  1  0
 20 18  1  0
 21 19  1  0
 21 23  1  0
 22  2  1  0
 22 18  1  0
 23 20  1  0
 24 25  2  0
 25 44  1  0
 26 25  1  0
 26 29  1  0
 27 28  1  0
 27 24  1  0
 28 26  2  0
 29 30  1  0
 30 31  2  0
 32 35  1  0
 32 31  1  0
 33 32  2  0
 34 33  1  0
 34 29  2  0
 35 36  1  0
 36 37  1  0
 37 38  2  0
 39 38  1  0
 39 43  1  0
 40 39  2  0
 41 36  2  0
 41 40  1  0
 42 41  1  0
 44 45  1  0
 45 48  1  0
 45 47  1  0
 46 44  2  0
 49 24  1  0
 49 50  1  0
 51 49  1  0
 52  6  1  0
 53 52  1  0
 54 65  2  0
 55 53  1  0
 55 60  1  0
 56 64  1  0
 56 66  1  0
 57 63  1  0
 57 59  1  0
 58 64  1  0
 59 58  1  0
 60 59  2  0
 61 62  1  0
 61 55  2  0
 62 57  2  0
 63 56  1  0
 64 54  1  0
 66 68  2  0
 67 66  1  0
 69 67  1  0
 70 79  2  0
 70 75  1  0
 71 67  1  0
 71 75  1  0
 72 71  1  0
 73 74  1  0
 73 72  1  0
 74 70  1  0
 75 76  2  0
 76 77  1  0
 78 77  2  0
 79 78  1  0
 80 54  1  0
 80 81  1  0
 80 90  1  0
 81 84  1  0
 82 86  1  0
 82 81  1  0
 83 82  2  0
 86 85  1  0
 88 89  1  0
 88 86  1  0
 88 87  1  0
 90 93  1  1
 90 91  1  0
 92 90  1  0
M  ISO  4  10 100  23 100  52 101  53 101
M  END
>  <TORSDO>  (86) 
F 17

>  <SCORE>  (86) 
-14.626

>  <name>  (86) 
85

>  <ligand_id>  (86) 
85

>  <original_smiles>  (86) 
[H]c1c([H])c([H])c2c(c1[H])C([H])([H])C([H])([H])C([H])([H])C2([H])N([H])C(=O)C1([H])N(C(=O)C([H])(N([H])C(=O)C([H])(N([H])C([H])([H])[H])C([H])([H])[H])C(C([H])([H])[H])(C([H])([H])[H])C([H])([H])[H])C([H])([H])c2c([H])c(OC([H])([H])c3c(C([H])([H])[H])c([H])c(C4([H])C([H])([H])C([H])([H])N(C(=O)N5C([H])([H])C([H])([H])C([H])([H])C([H])(n6nc(-c7c([H])c([H])c(Oc8c([H])c([H])c(F)c([H])c8F)c([H])c7[H])c(C(=O)N([H])[H])c6N([H])[H])C5([H])[H])C([H])([H])C4([H])[H])c(C([H])([H])[H])c3C([H])([H])[H])c([H])c([H])c2C1([H])[H]

>  <smiles>  (86) 
[H]c1c([H])c([H])c2c(c1[H])C([H])([H])C([H])([H])C([H])([H])C2([H])N([H])C(=O)C1([H])N(C(=O)C([H])(N([H])C(=O)C([H])(N([H])C([H])([H])[H])C([H])([H])[H])C(C([H])([H])[H])(C([H])([H])[H])C([H])([H])[H])C([H])([H])c2c([H])c(OC([H])([H])c3c(C([H])([H])[H])c([H])c(C4([H])C([H])([H])C([H])([H])N(C(=O)N5C([H])([H])C([H])([H])C([H])([H])C([H])(n6nc(-c7c([H])c([H])c(Oc8c([H])c([H])c(F)c([H])c8F)c([H])c7[H])c(C(=O)N([H])[H])c6N([H])[H])C5([H])[H])C([H])([H])C4([H])[H])c(C([H])([H])[H])c3C([H])([H])[H])c([H])c([H])c2C1([H])[H]

$$$$
86:0:0
     RDKit          3D

 95104  0  0  1  0  0  0  0  0999 V2000
  -29.6980  -19.9270   20.7100 C   0  0  0  0  0  0  0  0  0  0  0  0
  -28.8740  -21.0700   20.3020 C   0  0  0  0  0  0  0  0  0  0  0  0
  -30.8520  -20.2560   21.4820 C   0  0  0  0  0  0  0  0  0  0  0  0
  -29.2490  -22.4460   20.6150 C   0  0  0  0  0  0  0  0  0  0  0  0
  -31.1490  -21.6280   21.7300 C   0  0  0  0  0  0  0  0  0  0  0  0
  -27.5600  -20.7910   19.5860 C   0  0  0  0  0  1  0  0  0  0  0  0
  -32.3090  -22.0660   22.6180 C   0  0  0  0  0  1  0  0  0  0  0  0
  -30.3940  -22.6590   21.2900 N   0  0  0  0  0  0  0  0  0  0  0  0
  -30.6550  -14.7190   19.9810 C   0  0  0  0  0  0  0  0  0  0  0  0
  -30.3880  -12.4810   18.8660 C   0  0  0  0  0  2  0  0  0  0  0  0
  -29.3770  -12.6010   17.7050 C   0  0  0  0  0  2  0  0  0  0  0  0
  -27.9300  -12.4230   18.2080 C   0  0  0  0  0  2  0  0  0  0  0  0
  -27.6430  -13.2580   19.4870 C   0  0  0  0  0  3  0  0  0  0  0  0
  -28.7660  -13.0690   20.5310 C   0  0  0  0  0  2  0  0  0  0  0  0
  -30.0150  -13.4940   19.8890 N   0  0  0  0  0  0  0  0  0  0  0  0
  -31.7880  -14.8170   19.4920 O   0  0  0  0  0  0  0  0  0  0  0  0
  -28.8080  -17.6120   21.6830 C   0  0  0  0  0  2  0  0  0  0  0  0
  -28.9710  -16.0920   21.3850 C   0  0  0  0  0  2  0  0  0  0  0  0
  -30.3310  -17.2920   19.8680 C   0  0  0  0  0  2  0  0  0  0  0  0
  -29.3140  -18.3770   20.4540 C   0  0  0  0  0  3  0  0  0  0  0  0
  -29.9510  -15.8910   20.3000 N   0  0  0  0  0  0  0  0  0  0  0  0
  -25.3060  -13.8430   20.3620 C   0  0  0  0  0  0  0  0  0  0  0  0
  -24.2630  -13.0670   20.7850 C   0  0  0  0  0  0  0  0  0  0  0  0
  -24.7130  -11.7140   20.6850 C   0  0  0  0  0  0  0  0  0  0  0  0
  -26.3300  -12.9660   20.0430 N   0  0  0  0  0  0  0  0  0  0  0  0
  -25.9820  -11.6780   20.2980 N   0  0  0  0  0  0  0  0  0  0  0  0
  -23.9890  -10.4530   20.8850 C   0  0  0  0  0  0  0  0  0  0  0  0
  -24.4040   -9.5070   21.8500 C   0  0  0  0  0  3  0  0  0  0  0  0
  -23.6810   -8.3110   22.0370 C   0  0  0  0  0  3  0  0  0  0  0  0
  -22.5240   -8.0540   21.2660 C   0  0  0  0  0  0  0  0  0  0  0  0
  -22.1270   -8.9860   20.2890 C   0  0  0  0  0  3  0  0  0  0  0  0
  -22.8520  -10.1730   20.0990 C   0  0  0  0  0  3  0  0  0  0  0  0
  -21.7710   -6.9100   21.3640 O   0  0  0  0  0  0  0  0  0  0  0  0
  -21.6170   -6.2480   22.5550 C   0  0  0  0  0  0  0  0  0  0  0  0
  -21.0490   -6.8740   23.6880 C   0  0  0  0  0  3  0  0  0  0  0  0
  -20.8490   -6.1380   24.8720 C   0  0  0  0  0  3  0  0  0  0  0  0
  -21.1990   -4.7750   24.9230 C   0  0  0  0  0  0  0  0  0  0  0  0
  -21.7580   -4.1490   23.7940 C   0  0  0  0  0  3  0  0  0  0  0  0
  -21.9630   -4.8830   22.6120 C   0  0  0  0  0  0  0  0  0  0  0  0
  -22.4810   -4.2680   21.5210 F   0  0  0  0  0  0  0  0  0  0  0  0
  -20.9980   -4.0630   26.0560 F   0  0  0  0  0  0  0  0  0  0  0  0
  -22.8890  -13.5460   21.1570 C   0  0  0  0  0  0  0  0  0  0  0  0
  -22.2180  -12.8410   22.0610 N   0  0  0  0  0  0  0  0  0  0  0  0
  -22.4220  -14.5790   20.6780 O   0  0  0  0  0  0  0  0  0  0  0  0
  -22.6130  -12.0090   22.4740 H   0  0  0  0  0  0  0  0  0  0  0  0
  -21.2970  -13.1410   22.3510 H   0  0  0  0  0  0  0  0  0  0  0  0
  -25.4480  -15.2190   20.1940 N   0  0  0  0  0  0  0  0  0  0  0  0
  -24.6630  -15.8410   20.3550 H   0  0  0  0  0  0  0  0  0  0  0  0
  -26.2360  -15.6790   19.7580 H   0  0  0  0  0  0  0  0  0  0  0  0
  -33.0510  -19.1730   21.7710 C   0  0  0  0  0  1  0  0  0  0  0  0
  -31.6220  -19.2310   22.0650 N   0  0  0  0  0  0  0  0  0  0  0  0
  -31.1610  -18.3250   22.0480 H   0  0  0  0  0  0  0  0  0  0  0  0
  -28.3630  -23.7850   20.5220 C   0  0  0  0  0  2  0  0  0  0  0  0
  -28.7410  -25.0440   19.5800 C   0  0  0  0  0  2  0  0  0  0  0  0
  -28.5460  -26.4770   19.9900 O   0  0  0  0  0  0  0  0  0  0  0  0
  -24.5240  -31.6650   22.9740 C   0  0  0  0  0  0  0  0  0  0  0  0
  -27.3640  -27.2420   19.8930 C   0  0  0  0  0  0  0  0  0  0  0  0
  -23.3990  -30.2540   21.2840 C   0  0  0  0  0  3  0  0  0  0  0  0
  -24.9290  -28.7720   19.8570 C   0  0  0  0  0  0  0  0  0  0  0  0
  -25.9250  -30.6670   21.1430 C   0  0  0  0  0  2  0  0  0  0  0  0
  -26.0660  -29.2990   20.4790 C   0  0  0  0  0  0  0  0  0  0  0  0
  -27.2800  -28.5470   20.4820 C   0  0  0  0  0  3  0  0  0  0  0  0
  -26.2040  -26.7660   19.2450 C   0  0  0  0  0  3  0  0  0  0  0  0
  -25.0040  -27.5170   19.2270 C   0  0  0  0  0  3  0  0  0  0  0  0
  -23.6600  -29.6030   19.8970 C   0  0  0  0  0  2  0  0  0  0  0  0
  -24.6340  -30.8800   21.8580 N   0  0  0  0  0  0  0  0  0  0  0  0
  -23.4230  -31.8930   23.4950 O   0  0  0  0  0  0  0  0  0  0  0  0
  -22.7520  -29.2020   22.2150 C   0  0  0  0  0  0  0  0  0  0  0  0
  -21.4300  -29.0040   22.0810 N   0  0  0  0  0  0  0  0  0  0  0  0
  -23.4400  -28.5700   23.0210 O   0  0  0  0  0  0  0  0  0  0  0  0
  -20.9330  -29.5660   21.4060 H   0  0  0  0  0  0  0  0  0  0  0  0
  -18.0670  -27.7680   22.5820 C   0  0  0  0  0  0  0  0  0  0  0  0
  -20.6290  -28.0300   22.8230 C   0  0  0  0  0  3  0  0  0  0  0  0
  -20.7300  -26.6270   22.1820 C   0  0  0  0  0  2  0  0  0  0  0  0
  -19.6130  -26.3450   21.1730 C   0  0  0  0  0  2  0  0  0  0  0  0
  -18.2400  -26.4540   21.8430 C   0  0  0  0  0  2  0  0  0  0  0  0
  -19.1890  -28.5170   23.0300 C   0  0  0  0  0  0  0  0  0  0  0  0
  -18.9730  -29.7480   23.6860 C   0  0  0  0  0  3  0  0  0  0  0  0
  -17.6670  -30.2320   23.8960 C   0  0  0  0  0  3  0  0  0  0  0  0
  -16.5600  -29.4810   23.4620 C   0  0  0  0  0  3  0  0  0  0  0  0
  -16.7610  -28.2500   22.8130 C   0  0  0  0  0  3  0  0  0  0  0  0
  -25.7710  -32.3280   23.6360 C   0  0  0  0  0  3  0  0  0  0  0  0
  -26.3150  -31.5270   24.8820 C   0  0  1  0  0  0  0  0  0  0  0  0
  -25.2260  -31.1920   25.9270 C   0  0  0  0  0  1  0  0  0  0  0  0
  -26.9660  -30.1960   24.4380 C   0  0  0  0  0  1  0  0  0  0  0  0
  -27.4220  -32.3420   25.5930 C   0  0  0  0  0  1  0  0  0  0  0  0
  -25.3960  -33.6950   24.0220 N   0  0  0  0  0  0  0  0  0  0  0  0
  -25.6830  -34.7940   23.3140 C   0  0  0  0  0  0  0  0  0  0  0  0
  -26.3600  -34.7670   22.2830 O   0  0  0  0  0  0  0  0  0  0  0  0
  -24.7810  -33.7850   24.8180 H   0  0  0  0  0  0  0  0  0  0  0  0
  -23.8800  -36.5290   23.0260 C   0  0  0  0  0  1  0  0  0  0  0  0
  -25.1310  -36.1380   23.8280 C   0  0  0  0  0  3  0  0  0  0  0  0
  -27.2140  -37.0820   24.7280 C   0  0  0  0  0  1  0  0  0  0  0  0
  -26.1180  -37.2410   23.7760 N   0  0  0  0  0  0  0  0  0  0  0  0
  -25.6690  -38.1340   23.9580 H   0  0  0  0  0  0  0  0  0  0  0  0
  1  3  1  0
  2  4  1  0
  2  1  2  0
  3  5  2  0
  3 51  1  0
  4  8  2  0
  5  7  1  0
  6  2  1  0
  8  5  1  0
  9 21  1  0
 10 15  1  0
 11 12  1  0
 11 10  1  0
 13 12  1  0
 13 25  1  0
 13 14  1  0
 15  9  1  0
 15 14  1  0
 16  9  2  0
 18 17  1  0
 19 21  1  0
 19 20  1  0
 20  1  1  0
 20 17  1  0
 21 18  1  0
 22 23  2  0
 23 42  1  0
 24 23  1  0
 24 27  1  0
 25 26  1  0
 25 22  1  0
 26 24  2  0
 27 28  1  0
 28 29  2  0
 30 33  1  0
 30 29  1  0
 31 30  2  0
 32 31  1  0
 32 27  2  0
 33 34  1  0
 34 39  2  0
 34 35  1  0
 35 36  2  0
 36 37  1  0
 37 41  1  0
 38 37  2  0
 39 38  1  0
 40 39  1  0
 42 43  1  0
 43 46  1  0
 43 45  1  0
 44 42  2  0
 47 48  1  0
 47 22  1  0
 49 47  1  0
 50 51  1  0
 52 51  1  0
 53  4  1  0
 54 55  1  0
 54 53  1  0
 56 67  2  0
 57 55  1  0
 57 62  1  0
 58 66  1  0
 58 68  1  0
 59 65  1  0
 59 61  1  0
 60 66  1  0
 61 62  2  0
 61 60  1  0
 63 57  2  0
 64 63  1  0
 64 59  2  0
 65 58  1  0
 66 56  1  0
 68 70  2  0
 69 68  1  0
 71 69  1  0
 72 81  2  0
 72 77  1  0
 73 69  1  0
 73 77  1  0
 74 73  1  0
 75 76  1  0
 75 74  1  0
 76 72  1  0
 77 78  2  0
 78 79  1  0
 80 79  2  0
 81 80  1  0
 82 56  1  0
 82 87  1  0
 82 83  1  0
 83 86  1  1
 83 84  1  0
 85 83  1  0
 87 90  1  0
 88 92  1  0
 88 87  1  0
 89 88  2  0
 92 91  1  0
 94 92  1  0
 94 95  1  0
 94 93  1  0
M  ISO  4   9 100  21 100  54 101  55 101
M  END
>  <TORSDO>  (87) 
F 19

>  <SCORE>  (87) 
-11.458

>  <name>  (87) 
86

>  <ligand_id>  (87) 
86

>  <original_smiles>  (87) 
[H]c1c([H])c([H])c2c(c1[H])C([H])([H])C([H])([H])C([H])([H])C2([H])N([H])C(=O)C1([H])N(C(=O)C([H])(N([H])C(=O)C([H])(N([H])C([H])([H])[H])C([H])([H])[H])C(C([H])([H])[H])(C([H])([H])[H])C([H])([H])[H])C([H])([H])c2c([H])c(OC([H])([H])C([H])([H])c3nc(C([H])([H])[H])c(N([H])C([H])([H])[H])c(C4([H])C([H])([H])N(C(=O)N5C([H])([H])C([H])([H])C([H])([H])C([H])(n6nc(-c7c([H])c([H])c(Oc8c([H])c([H])c(F)c([H])c8F)c([H])c7[H])c(C(=O)N([H])[H])c6N([H])[H])C5([H])[H])C([H])([H])C4([H])[H])c3C([H])([H])[H])c([H])c([H])c2C1([H])[H]

>  <smiles>  (87) 
[H]c1c([H])c([H])c2c(c1[H])C([H])([H])C([H])([H])C([H])([H])C2([H])N([H])C(=O)C1([H])N(C(=O)C([H])(N([H])C(=O)C([H])(N([H])C([H])([H])[H])C([H])([H])[H])C(C([H])([H])[H])(C([H])([H])[H])C([H])([H])[H])C([H])([H])c2c([H])c(OC([H])([H])C([H])([H])c3nc(C([H])([H])[H])c(N([H])C([H])([H])[H])c(C4([H])C([H])([H])N(C(=O)N5C([H])([H])C([H])([H])C([H])([H])C([H])(n6nc(-c7c([H])c([H])c(Oc8c([H])c([H])c(F)c([H])c8F)c([H])c7[H])c(C(=O)N([H])[H])c6N([H])[H])C5([H])[H])C([H])([H])C4([H])[H])c3C([H])([H])[H])c([H])c([H])c2C1([H])[H]

$$$$
87:0:0
     RDKit          3D

 94103  0  0  1  0  0  0  0  0999 V2000
  -31.0620  -19.3040   19.5830 C   0  0  0  0  0  3  0  0  0  0  0  0
  -29.0400  -19.3240   20.8730 C   0  0  0  0  0  3  0  0  0  0  0  0
  -29.7700  -21.4380   19.7520 C   0  0  0  0  0  0  0  0  0  0  0  0
  -30.1780  -18.6010   20.4310 C   0  0  0  0  0  0  0  0  0  0  0  0
  -30.8720  -20.6740   19.2420 C   0  0  0  0  0  0  0  0  0  0  0  0
  -28.8330  -20.7020   20.5420 C   0  0  0  0  0  0  0  0  0  0  0  0
  -31.9050  -21.2940   18.3110 C   0  0  0  0  0  1  0  0  0  0  0  0
  -27.3950  -21.4520   21.1360 Cl  0  0  0  0  0  0  0  0  0  0  0  0
  -28.7420  -23.2450   18.1440 C   0  0  0  0  0  2  0  0  0  0  0  0
  -28.5940  -24.7770   18.1220 C   0  0  0  0  0  2  0  0  0  0  0  0
  -29.6150  -22.9720   19.3700 C   0  0  0  0  0  3  0  0  0  0  0  0
  -29.1950  -24.1150   20.3900 C   0  0  0  0  0  3  0  0  0  0  0  0
  -28.3260  -25.1730   19.5860 C   0  0  0  0  0  3  0  0  0  0  0  0
  -30.4230  -24.7550   21.0540 C   0  0  0  0  0  1  0  0  0  0  0  0
  -28.4600  -26.6310   19.8520 O   0  0  0  0  0  0  0  0  0  0  0  0
  -24.5960  -31.7880   23.1230 C   0  0  0  0  0  0  0  0  0  0  0  0
  -27.3120  -27.4430   19.8490 C   0  0  0  0  0  0  0  0  0  0  0  0
  -23.4240  -30.4360   21.4250 C   0  0  0  0  0  3  0  0  0  0  0  0
  -24.9070  -28.9950   19.9290 C   0  0  0  0  0  0  0  0  0  0  0  0
  -25.9560  -30.8280   21.2510 C   0  0  0  0  0  2  0  0  0  0  0  0
  -26.0670  -29.4850   20.5400 C   0  0  0  0  0  0  0  0  0  0  0  0
  -27.2730  -28.7220   20.4890 C   0  0  0  0  0  3  0  0  0  0  0  0
  -26.1160  -27.0080   19.2300 C   0  0  0  0  0  3  0  0  0  0  0  0
  -24.9330  -27.7620   19.2670 C   0  0  0  0  0  3  0  0  0  0  0  0
  -23.6490  -29.8320   20.0160 C   0  0  0  0  0  2  0  0  0  0  0  0
  -24.6770  -31.0320   21.9900 N   0  0  0  0  0  0  0  0  0  0  0  0
  -23.5060  -32.0130   23.6690 O   0  0  0  0  0  0  0  0  0  0  0  0
  -22.7900  -29.3570   22.3380 C   0  0  0  0  0  0  0  0  0  0  0  0
  -21.4650  -29.1690   22.2180 N   0  0  0  0  0  0  0  0  0  0  0  0
  -23.4880  -28.6970   23.1110 O   0  0  0  0  0  0  0  0  0  0  0  0
  -20.9600  -29.7560   21.5700 H   0  0  0  0  0  0  0  0  0  0  0  0
  -18.1020  -27.9460   22.7470 C   0  0  0  0  0  0  0  0  0  0  0  0
  -20.6680  -28.1810   22.9490 C   0  0  0  0  0  3  0  0  0  0  0  0
  -20.7450  -26.7930   22.2750 C   0  0  0  0  0  2  0  0  0  0  0  0
  -19.6080  -26.5420   21.2780 C   0  0  0  0  0  2  0  0  0  0  0  0
  -18.2490  -26.6460   21.9760 C   0  0  0  0  0  2  0  0  0  0  0  0
  -19.2360  -28.6750   23.1900 C   0  0  0  0  0  0  0  0  0  0  0  0
  -19.0410  -29.8960   23.8740 C   0  0  0  0  0  3  0  0  0  0  0  0
  -17.7450  -30.3870   24.1160 C   0  0  0  0  0  3  0  0  0  0  0  0
  -16.6240  -29.6520   23.6880 C   0  0  0  0  0  3  0  0  0  0  0  0
  -16.8040  -28.4330   23.0110 C   0  0  0  0  0  3  0  0  0  0  0  0
  -25.8640  -32.4230   23.7720 C   0  0  0  0  0  3  0  0  0  0  0  0
  -25.5300  -33.8100   24.1260 N   0  0  0  0  0  0  0  0  0  0  0  0
  -25.8250  -34.8790   23.3750 C   0  0  0  0  0  0  0  0  0  0  0  0
  -26.4760  -34.8040   22.3300 O   0  0  0  0  0  0  0  0  0  0  0  0
  -24.9500  -33.9420   24.9410 H   0  0  0  0  0  0  0  0  0  0  0  0
  -24.0450  -36.6340   23.0900 C   0  0  0  0  0  1  0  0  0  0  0  0
  -25.3190  -36.2510   23.8610 C   0  0  0  0  0  3  0  0  0  0  0  0
  -27.4490  -37.1850   24.6490 C   0  0  0  0  0  1  0  0  0  0  0  0
  -26.3220  -37.3300   23.7310 N   0  0  0  0  0  0  0  0  0  0  0  0
  -25.8950  -38.2380   23.8940 H   0  0  0  0  0  0  0  0  0  0  0  0
  -26.3750  -31.6330   25.0390 C   0  0  1  0  0  0  0  0  0  0  0  0
  -25.2730  -31.3570   26.0870 C   0  0  0  0  0  1  0  0  0  0  0  0
  -26.9840  -30.2730   24.6280 C   0  0  0  0  0  1  0  0  0  0  0  0
  -27.5080  -32.4300   25.7290 C   0  0  0  0  0  1  0  0  0  0  0  0
  -30.5950  -17.2080   21.0220 C   0  0  0  0  0  2  0  0  0  0  0  0
  -30.6810  -14.8000   20.1840 C   0  0  0  0  0  0  0  0  0  0  0  0
  -30.3750  -12.6110   19.0520 C   0  0  0  0  0  2  0  0  0  0  0  0
  -29.3860  -12.7690   17.8780 C   0  0  0  0  0  2  0  0  0  0  0  0
  -27.9350  -12.5920   18.3670 C   0  0  0  0  0  2  0  0  0  0  0  0
  -27.6230  -13.4240   19.6410 C   0  0  0  0  0  3  0  0  0  0  0  0
  -28.7300  -13.2660   20.7070 C   0  0  0  0  0  2  0  0  0  0  0  0
  -30.0070  -13.6150   20.0700 N   0  0  0  0  0  0  0  0  0  0  0  0
  -31.8410  -14.9100   19.7840 O   0  0  0  0  0  0  0  0  0  0  0  0
  -29.9880  -15.9030   20.6020 N   0  0  0  0  0  0  0  0  0  0  0  0
  -29.0150  -15.7640   20.8280 H   0  0  0  0  0  0  0  0  0  0  0  0
  -25.2570  -13.9780   20.4710 C   0  0  0  0  0  0  0  0  0  0  0  0
  -24.2120  -13.1860   20.8610 C   0  0  0  0  0  0  0  0  0  0  0  0
  -24.6850  -11.8410   20.7810 C   0  0  0  0  0  0  0  0  0  0  0  0
  -26.3000  -13.1150   20.1760 N   0  0  0  0  0  0  0  0  0  0  0  0
  -25.9640  -11.8230   20.4240 N   0  0  0  0  0  0  0  0  0  0  0  0
  -23.9790  -10.5660   20.9670 C   0  0  0  0  0  0  0  0  0  0  0  0
  -24.4360   -9.5950   21.8840 C   0  0  0  0  0  3  0  0  0  0  0  0
  -23.7270   -8.3860   22.0590 C   0  0  0  0  0  3  0  0  0  0  0  0
  -22.5490   -8.1400   21.3160 C   0  0  0  0  0  0  0  0  0  0  0  0
  -22.1110   -9.1000   20.3870 C   0  0  0  0  0  3  0  0  0  0  0  0
  -22.8200  -10.3000   20.2100 C   0  0  0  0  0  3  0  0  0  0  0  0
  -21.8110   -6.9840   21.4020 O   0  0  0  0  0  0  0  0  0  0  0  0
  -21.7680   -6.2400   22.5540 C   0  0  0  0  0  0  0  0  0  0  0  0
  -21.2820   -6.7740   23.7670 C   0  0  0  0  0  3  0  0  0  0  0  0
  -21.1920   -5.9540   24.9110 C   0  0  0  0  0  3  0  0  0  0  0  0
  -21.5770   -4.6020   24.8400 C   0  0  0  0  0  0  0  0  0  0  0  0
  -22.0560   -4.0670   23.6310 C   0  0  0  0  0  3  0  0  0  0  0  0
  -22.1480   -4.8850   22.4900 C   0  0  0  0  0  0  0  0  0  0  0  0
  -22.5910   -4.3590   21.3220 F   0  0  0  0  0  0  0  0  0  0  0  0
  -21.4830   -3.8110   25.9350 F   0  0  0  0  0  0  0  0  0  0  0  0
  -22.8210  -13.6410   21.1940 C   0  0  0  0  0  0  0  0  0  0  0  0
  -22.1290  -12.9160   22.0650 N   0  0  0  0  0  0  0  0  0  0  0  0
  -22.3560  -14.6760   20.7170 O   0  0  0  0  0  0  0  0  0  0  0  0
  -22.5190  -12.0790   22.4730 H   0  0  0  0  0  0  0  0  0  0  0  0
  -21.1980  -13.2010   22.3290 H   0  0  0  0  0  0  0  0  0  0  0  0
  -25.4010  -15.3550   20.3190 N   0  0  0  0  0  0  0  0  0  0  0  0
  -24.6340  -15.9990   20.4740 H   0  0  0  0  0  0  0  0  0  0  0  0
  -26.2280  -15.8080   19.9510 H   0  0  0  0  0  0  0  0  0  0  0  0
  1  4  1  0
  3  6  2  0
  4  2  2  0
  4 56  1  0
  5  1  2  0
  5  3  1  0
  6  2  1  0
  6  8  1  0
  7  5  1  0
  9 11  1  0
 10  9  1  0
 10 13  1  0
 11  3  1  0
 11 12  1  0
 12 14  1  0
 13 15  1  0
 13 12  1  0
 16 27  2  0
 17 15  1  0
 17 22  1  0
 18 26  1  0
 18 28  1  0
 19 25  1  0
 19 21  1  0
 20 26  1  0
 21 20  1  0
 22 21  2  0
 23 24  1  0
 23 17  2  0
 24 19  2  0
 25 18  1  0
 26 16  1  0
 28 30  2  0
 29 28  1  0
 31 29  1  0
 32 41  2  0
 32 37  1  0
 33 29  1  0
 33 37  1  0
 34 33  1  0
 35 36  1  0
 35 34  1  0
 36 32  1  0
 37 38  2  0
 38 39  1  0
 40 39  2  0
 41 40  1  0
 42 16  1  0
 42 43  1  0
 42 52  1  0
 43 46  1  0
 44 48  1  0
 44 43  1  0
 45 44  2  0
 48 47  1  0
 50 48  1  0
 50 51  1  0
 50 49  1  0
 52 55  1  1
 52 53  1  0
 54 52  1  0
 57 65  1  0
 58 63  1  0
 59 60  1  0
 59 58  1  0
 61 60  1  0
 61 70  1  0
 61 62  1  0
 63 57  1  0
 63 62  1  0
 64 57  2  0
 65 66  1  0
 65 56  1  0
 67 68  2  0
 68 87  1  0
 69 68  1  0
 69 72  1  0
 70 71  1  0
 70 67  1  0
 71 69  2  0
 72 73  1  0
 73 74  2  0
 75 78  1  0
 75 74  1  0
 76 75  2  0
 77 76  1  0
 77 72  2  0
 78 79  1  0
 79 80  1  0
 80 81  2  0
 82 81  1  0
 82 86  1  0
 83 82  2  0
 84 79  2  0
 84 83  1  0
 85 84  1  0
 87 88  1  0
 88 91  1  0
 88 90  1  0
 89 87  2  0
 92 67  1  0
 92 93  1  0
 94 92  1  0
M  ISO  4  13 101  15 101  57 100  65 100
M  END
>  <TORSDO>  (88) 
F 18

>  <SCORE>  (88) 
-14.234

>  <name>  (88) 
87

>  <ligand_id>  (88) 
87

>  <original_smiles>  (88) 
[H]c1c([H])c([H])c2c(c1[H])C([H])([H])C([H])([H])C([H])([H])C2([H])N([H])C(=O)C1([H])N(C(=O)C([H])(N([H])C(=O)C([H])(N([H])C([H])([H])[H])C([H])([H])[H])C(C([H])([H])[H])(C([H])([H])[H])C([H])([H])[H])C([H])([H])c2c([H])c(OC3([H])C([H])([H])C([H])([H])C([H])(c4c(Cl)c([H])c(C([H])([H])N([H])C(=O)N5C([H])([H])C([H])([H])C([H])([H])C([H])(n6nc(-c7c([H])c([H])c(Oc8c([H])c([H])c(F)c([H])c8F)c([H])c7[H])c(C(=O)N([H])[H])c6N([H])[H])C5([H])[H])c([H])c4C([H])([H])[H])C3([H])C([H])([H])[H])c([H])c([H])c2C1([H])[H]

>  <smiles>  (88) 
[H]c1c([H])c([H])c2c(c1[H])C([H])([H])C([H])([H])C([H])([H])C2([H])N([H])C(=O)C1([H])N(C(=O)C([H])(N([H])C(=O)C([H])(N([H])C([H])([H])[H])C([H])([H])[H])C(C([H])([H])[H])(C([H])([H])[H])C([H])([H])[H])C([H])([H])c2c([H])c(OC3([H])C([H])([H])C([H])([H])C([H])(c4c(Cl)c([H])c(C([H])([H])N([H])C(=O)N5C([H])([H])C([H])([H])C([H])([H])C([H])(n6nc(-c7c([H])c([H])c(Oc8c([H])c([H])c(F)c([H])c8F)c([H])c7[H])c(C(=O)N([H])[H])c6N([H])[H])C5([H])[H])c([H])c4C([H])([H])[H])C3([H])C([H])([H])[H])c([H])c([H])c2C1([H])[H]

$$$$
88:0:0
     RDKit          3D

 98108  0  0  1  0  0  0  0  0999 V2000
  -29.4580  -21.6920   20.1310 C   0  0  0  0  0  3  0  0  0  0  0  0
  -30.0330  -22.9490   19.7430 C   0  0  0  0  0  0  0  0  0  0  0  0
  -30.0250  -20.4270   19.7210 C   0  0  0  0  0  0  0  0  0  0  0  0
  -31.2050  -22.9350   18.9710 C   0  0  0  0  0  0  0  0  0  0  0  0
  -31.1770  -20.4720   18.8780 C   0  0  0  0  0  0  0  0  0  0  0  0
  -31.7770  -21.7120   18.5110 C   0  0  0  0  0  0  0  0  0  0  0  0
  -30.9430  -25.1920   19.7910 C   0  0  0  0  0  2  0  0  0  0  0  0
  -29.6960  -24.3910   20.2670 C   0  0  2  0  0  0  0  0  0  0  0  0
  -31.7570  -24.3460   18.7740 C   0  0  1  0  0  0  0  0  0  0  0  0
  -31.8440  -19.1920   18.3650 C   0  0  0  0  0  1  0  0  0  0  0  0
  -33.0630  -21.6840   17.6750 C   0  0  0  0  0  1  0  0  0  0  0  0
  -29.6270  -24.3330   21.8100 C   0  0  0  0  0  1  0  0  0  0  0  0
  -33.2630  -24.5160   19.1190 C   0  0  0  0  0  1  0  0  0  0  0  0
  -31.4650  -24.8040   17.3290 C   0  0  0  0  0  1  0  0  0  0  0  0
  -30.5890  -14.7200   20.3140 C   0  0  0  0  0  0  0  0  0  0  0  0
  -30.3640  -12.4670   19.2920 C   0  0  0  0  0  2  0  0  0  0  0  0
  -29.4120  -12.5760   18.0790 C   0  0  0  0  0  2  0  0  0  0  0  0
  -27.9440  -12.4120   18.5230 C   0  0  0  0  0  2  0  0  0  0  0  0
  -27.5890  -13.2780   19.7620 C   0  0  0  0  0  3  0  0  0  0  0  0
  -28.6590  -13.1840   20.8660 C   0  0  0  0  0  2  0  0  0  0  0  0
  -29.9490  -13.5110   20.2520 N   0  0  0  0  0  0  0  0  0  0  0  0
  -31.7930  -14.8010   20.0490 O   0  0  0  0  0  0  0  0  0  0  0  0
  -28.8690  -18.0480   19.1640 C   0  0  0  0  0  2  0  0  0  0  0  0
  -30.3300  -18.2610   21.2260 C   0  0  0  0  0  2  0  0  0  0  0  0
  -29.4110  -16.5570   19.1030 C   0  0  0  0  0  2  0  0  0  0  0  0
  -29.8590  -16.7960   21.5270 C   0  0  0  0  0  2  0  0  0  0  0  0
  -29.4350  -19.0470   20.2310 C   0  0  0  0  0  3  0  0  0  0  0  0
  -29.8050  -15.8670   20.3690 N   0  0  0  0  0  0  0  0  0  0  0  0
  -25.2200  -13.8770   20.5360 C   0  0  0  0  0  0  0  0  0  0  0  0
  -24.1520  -13.1030   20.9050 C   0  0  0  0  0  0  0  0  0  0  0  0
  -24.6080  -11.7520   20.8510 C   0  0  0  0  0  0  0  0  0  0  0  0
  -26.2540  -12.9920   20.2750 N   0  0  0  0  0  0  0  0  0  0  0  0
  -25.8960  -11.7090   20.5320 N   0  0  0  0  0  0  0  0  0  0  0  0
  -23.8800  -10.4900   21.0430 C   0  0  0  0  0  0  0  0  0  0  0  0
  -24.3080   -9.5240   21.9790 C   0  0  0  0  0  3  0  0  0  0  0  0
  -23.5830   -8.3260   22.1490 C   0  0  0  0  0  3  0  0  0  0  0  0
  -22.4170   -8.0860   21.3850 C   0  0  0  0  0  0  0  0  0  0  0  0
  -22.0080   -9.0410   20.4380 C   0  0  0  0  0  3  0  0  0  0  0  0
  -22.7350  -10.2320   20.2670 C   0  0  0  0  0  3  0  0  0  0  0  0
  -21.6580   -6.9440   21.4660 O   0  0  0  0  0  0  0  0  0  0  0  0
  -21.5800   -6.2150   22.6250 C   0  0  0  0  0  0  0  0  0  0  0  0
  -21.0860   -6.7720   23.8240 C   0  0  0  0  0  3  0  0  0  0  0  0
  -20.9500   -5.9660   24.9720 C   0  0  0  0  0  3  0  0  0  0  0  0
  -21.3020   -4.6040   24.9240 C   0  0  0  0  0  0  0  0  0  0  0  0
  -21.7870   -4.0450   23.7270 C   0  0  0  0  0  3  0  0  0  0  0  0
  -21.9190   -4.8470   22.5810 C   0  0  0  0  0  0  0  0  0  0  0  0
  -22.3690   -4.2960   21.4270 F   0  0  0  0  0  0  0  0  0  0  0  0
  -21.1640   -3.8280   26.0240 F   0  0  0  0  0  0  0  0  0  0  0  0
  -22.7620  -13.5910   21.1920 C   0  0  0  0  0  0  0  0  0  0  0  0
  -22.0280  -12.8900   22.0520 N   0  0  0  0  0  0  0  0  0  0  0  0
  -22.3340  -14.6310   20.6940 O   0  0  0  0  0  0  0  0  0  0  0  0
  -22.3830  -12.0580   22.4910 H   0  0  0  0  0  0  0  0  0  0  0  0
  -21.0920  -13.1960   22.2740 H   0  0  0  0  0  0  0  0  0  0  0  0
  -25.3900  -15.2470   20.3760 N   0  0  0  0  0  0  0  0  0  0  0  0
  -24.6380  -15.9130   20.5200 H   0  0  0  0  0  0  0  0  0  0  0  0
  -26.2600  -15.6850   20.0940 H   0  0  0  0  0  0  0  0  0  0  0  0
  -28.4080  -25.1790   19.7630 C   0  0  0  0  0  2  0  0  0  0  0  0
  -28.3990  -26.5990   20.1790 O   0  0  0  0  0  0  0  0  0  0  0  0
  -24.5800  -31.8810   23.2380 C   0  0  0  0  0  0  0  0  0  0  0  0
  -27.2340  -27.3750   20.1520 C   0  0  0  0  0  0  0  0  0  0  0  0
  -23.3770  -30.4780   21.5980 C   0  0  0  0  0  3  0  0  0  0  0  0
  -24.8330  -28.9280   20.1720 C   0  0  0  0  0  0  0  0  0  0  0  0
  -25.9110  -30.8200   21.4020 C   0  0  0  0  0  2  0  0  0  0  0  0
  -25.9990  -29.4430   20.7570 C   0  0  0  0  0  0  0  0  0  0  0  0
  -27.1980  -28.6770   20.7360 C   0  0  0  0  0  3  0  0  0  0  0  0
  -26.0450  -26.9010   19.5550 C   0  0  0  0  0  3  0  0  0  0  0  0
  -24.8590  -27.6610   19.5660 C   0  0  0  0  0  3  0  0  0  0  0  0
  -23.5900  -29.7960   20.2210 C   0  0  0  0  0  2  0  0  0  0  0  0
  -24.6430  -31.0760   22.1380 N   0  0  0  0  0  0  0  0  0  0  0  0
  -23.4940  -32.1610   23.7720 O   0  0  0  0  0  0  0  0  0  0  0  0
  -22.7180  -29.4640   22.5610 C   0  0  0  0  0  0  0  0  0  0  0  0
  -21.3930  -29.2820   22.4350 N   0  0  0  0  0  0  0  0  0  0  0  0
  -23.3990  -28.8390   23.3800 O   0  0  0  0  0  0  0  0  0  0  0  0
  -20.9050  -29.8430   21.7510 H   0  0  0  0  0  0  0  0  0  0  0  0
  -18.0140  -28.0980   22.9490 C   0  0  0  0  0  0  0  0  0  0  0  0
  -20.5750  -28.3450   23.2040 C   0  0  0  0  0  3  0  0  0  0  0  0
  -20.6650  -26.9150   22.6220 C   0  0  0  0  0  2  0  0  0  0  0  0
  -19.5540  -26.6020   21.6140 C   0  0  0  0  0  2  0  0  0  0  0  0
  -18.1790  -26.7520   22.2670 C   0  0  0  0  0  2  0  0  0  0  0  0
  -19.1390  -28.8540   23.3750 C   0  0  0  0  0  0  0  0  0  0  0  0
  -18.9310  -30.1150   23.9740 C   0  0  0  0  0  3  0  0  0  0  0  0
  -17.6290  -30.6200   24.1510 C   0  0  0  0  0  3  0  0  0  0  0  0
  -16.5180  -29.8640   23.7380 C   0  0  0  0  0  3  0  0  0  0  0  0
  -16.7130  -28.6040   23.1440 C   0  0  0  0  0  3  0  0  0  0  0  0
  -25.8630  -32.5150   23.8590 C   0  0  0  0  0  3  0  0  0  0  0  0
  -25.5560  -33.9150   24.1860 N   0  0  0  0  0  0  0  0  0  0  0  0
  -25.8870  -34.9640   23.4220 C   0  0  0  0  0  0  0  0  0  0  0  0
  -26.5570  -34.8550   22.3910 O   0  0  0  0  0  0  0  0  0  0  0  0
  -24.9640  -34.0740   24.9890 H   0  0  0  0  0  0  0  0  0  0  0  0
  -24.1680  -36.7580   23.0500 C   0  0  0  0  0  1  0  0  0  0  0  0
  -25.4000  -36.3550   23.8740 C   0  0  0  0  0  3  0  0  0  0  0  0
  -27.5270  -37.2350   24.7240 C   0  0  0  0  0  1  0  0  0  0  0  0
  -26.4370  -37.4040   23.7660 N   0  0  0  0  0  0  0  0  0  0  0  0
  -26.0330  -38.3250   23.9050 H   0  0  0  0  0  0  0  0  0  0  0  0
  -26.3740  -31.7490   25.1400 C   0  0  1  0  0  0  0  0  0  0  0  0
  -25.2760  -31.5170   26.2040 C   0  0  0  0  0  1  0  0  0  0  0  0
  -26.9640  -30.3710   24.7560 C   0  0  0  0  0  1  0  0  0  0  0  0
  -27.5220  -32.5470   25.8010 C   0  0  0  0  0  1  0  0  0  0  0  0
  2  1  1  0
  2  8  1  0
  3  1  2  0
  4  2  2  0
  5  3  1  0
  6  5  2  0
  6  4  1  0
  7  8  1  0
  8 12  1  1
  9  4  1  0
  9 13  1  1
  9  7  1  0
 10  5  1  0
 11  6  1  0
 14  9  1  0
 15 28  1  0
 16 21  1  0
 17 18  1  0
 17 16  1  0
 19 18  1  0
 19 32  1  0
 19 20  1  0
 21 15  1  0
 21 20  1  0
 22 15  2  0
 23 27  1  0
 24 26  1  0
 25 23  1  0
 25 28  1  0
 27  3  1  0
 27 24  1  0
 28 26  1  0
 29 30  2  0
 30 49  1  0
 31 30  1  0
 31 34  1  0
 32 33  1  0
 32 29  1  0
 33 31  2  0
 34 35  1  0
 35 36  2  0
 37 40  1  0
 37 36  1  0
 38 37  2  0
 39 38  1  0
 39 34  2  0
 40 41  1  0
 41 42  1  0
 42 43  2  0
 44 43  1  0
 44 48  1  0
 45 44  2  0
 46 41  2  0
 46 45  1  0
 47 46  1  0
 49 50  1  0
 50 53  1  0
 50 52  1  0
 51 49  2  0
 54 55  1  0
 54 29  1  0
 56 54  1  0
 57 58  1  0
 57  8  1  0
 59 70  2  0
 60 58  1  0
 60 65  1  0
 61 69  1  0
 61 71  1  0
 62 68  1  0
 62 64  1  0
 63 69  1  0
 64 63  1  0
 65 64  2  0
 66 67  1  0
 66 60  2  0
 67 62  2  0
 68 61  1  0
 69 59  1  0
 71 73  2  0
 72 71  1  0
 74 72  1  0
 75 84  2  0
 75 80  1  0
 76 72  1  0
 76 80  1  0
 77 76  1  0
 78 79  1  0
 78 77  1  0
 79 75  1  0
 80 81  2  0
 81 82  1  0
 83 82  2  0
 84 83  1  0
 85 59  1  0
 85 86  1  0
 85 95  1  0
 86 89  1  0
 87 91  1  0
 87 86  1  0
 88 87  2  0
 91 90  1  0
 93 91  1  0
 93 94  1  0
 93 92  1  0
 95 98  1  1
 95 96  1  0
 97 95  1  0
M  ISO  4  15 100  28 100  57 101  58 101
M  END
>  <TORSDO>  (89) 
F 17

>  <SCORE>  (89) 
-15.368

>  <name>  (89) 
88

>  <ligand_id>  (89) 
88

>  <original_smiles>  (89) 
[H]c1c([H])c([H])c2c(c1[H])C([H])([H])C([H])([H])C([H])([H])C2([H])N([H])C(=O)C1([H])N(C(=O)C([H])(N([H])C(=O)C([H])(N([H])C([H])([H])[H])C([H])([H])[H])C(C([H])([H])[H])(C([H])([H])[H])C([H])([H])[H])C([H])([H])c2c([H])c(OC([H])([H])C3(C([H])([H])[H])c4c([H])c(C5([H])C([H])([H])C([H])([H])N(C(=O)N6C([H])([H])C([H])([H])C([H])([H])C([H])(n7nc(-c8c([H])c([H])c(Oc9c([H])c([H])c(F)c([H])c9F)c([H])c8[H])c(C(=O)N([H])[H])c7N([H])[H])C6([H])[H])C([H])([H])C5([H])[H])c(C([H])([H])[H])c(C([H])([H])[H])c4C(C([H])([H])[H])(C([H])([H])[H])C3([H])[H])c([H])c([H])c2C1([H])[H]

>  <smiles>  (89) 
[H]c1c([H])c([H])c2c(c1[H])C([H])([H])C([H])([H])C([H])([H])C2([H])N([H])C(=O)C1([H])N(C(=O)C([H])(N([H])C(=O)C([H])(N([H])C([H])([H])[H])C([H])([H])[H])C(C([H])([H])[H])(C([H])([H])[H])C([H])([H])[H])C([H])([H])c2c([H])c(OC([H])([H])C3(C([H])([H])[H])c4c([H])c(C5([H])C([H])([H])C([H])([H])N(C(=O)N6C([H])([H])C([H])([H])C([H])([H])C([H])(n7nc(-c8c([H])c([H])c(Oc9c([H])c([H])c(F)c([H])c9F)c([H])c8[H])c(C(=O)N([H])[H])c7N([H])[H])C6([H])[H])C([H])([H])C5([H])[H])c(C([H])([H])[H])c(C([H])([H])[H])c4C(C([H])([H])[H])(C([H])([H])[H])C3([H])[H])c([H])c([H])c2C1([H])[H]

$$$$
89:0:0
     RDKit          3D

102111  0  0  1  0  0  0  0  0999 V2000
  -26.7930  -23.3200   18.8930 C   0  0  0  0  0  2  0  0  0  0  0  0
  -27.0470  -23.2250   21.4120 C   0  0  0  0  0  1  0  0  0  0  0  0
  -26.0440  -23.2070   20.2440 C   0  0  0  0  0  3  0  0  0  0  0  0
  -24.9720  -24.3080   20.4350 C   0  0  0  0  0  2  0  0  0  0  0  0
  -23.8620  -24.2450   19.4520 N   0  0  0  0  0  4  0  0  0  0  0  0
  -24.2520  -24.1040   18.5340 H   0  0  0  0  0  0  0  0  0  0  0  0
  -23.2780  -23.4530   19.6700 H   0  0  0  0  0  0  0  0  0  0  0  0
  -19.9480  -26.8670   21.2410 C   0  0  0  0  0  0  0  0  0  0  0  0
  -19.4900  -28.3770   23.1280 C   0  0  0  0  0  2  0  0  0  0  0  0
  -20.4140  -29.6080   23.0400 C   0  0  0  0  0  2  0  0  0  0  0  0
  -21.7740  -29.3310   23.7160 C   0  0  0  0  0  2  0  0  0  0  0  0
  -22.3950  -27.9680   23.2980 C   0  0  0  0  0  3  0  0  0  0  0  0
  -21.3310  -26.8540   23.3960 C   0  0  0  0  0  2  0  0  0  0  0  0
  -20.2210  -27.2490   22.5220 N   0  0  0  0  0  0  0  0  0  0  0  0
  -18.8340  -27.1020   20.7550 O   0  0  0  0  0  0  0  0  0  0  0  0
  -21.8810  -27.0700   17.9710 C   0  0  0  0  0  2  0  0  0  0  0  0
  -20.7430  -27.1960   18.9940 C   0  0  0  0  0  2  0  0  0  0  0  0
  -21.9300  -25.5230   20.4700 C   0  0  0  0  0  2  0  0  0  0  0  0
  -23.0450  -25.4830   19.3910 C   0  0  0  0  0  3  0  0  0  0  0  0
  -22.4390  -25.6540   17.9990 C   0  0  0  0  0  3  0  0  0  0  0  0
  -20.9970  -26.6810   20.3740 N   0  0  0  0  0  0  0  0  0  0  0  0
  -24.8860  -27.4460   23.6540 C   0  0  0  0  0  0  0  0  0  0  0  0
  -25.6320  -27.2740   24.7880 C   0  0  0  0  0  0  0  0  0  0  0  0
  -24.7220  -27.4090   25.8820 C   0  0  0  0  0  0  0  0  0  0  0  0
  -23.5870  -27.6620   24.0830 N   0  0  0  0  0  0  0  0  0  0  0  0
  -23.4860  -27.5870   25.4340 N   0  0  0  0  0  0  0  0  0  0  0  0
  -24.9640  -27.4370   27.3300 C   0  0  0  0  0  0  0  0  0  0  0  0
  -25.6720  -26.4020   27.9800 C   0  0  0  0  0  3  0  0  0  0  0  0
  -25.9100  -26.4610   29.3710 C   0  0  0  0  0  3  0  0  0  0  0  0
  -25.4420  -27.5640   30.1240 C   0  0  0  0  0  0  0  0  0  0  0  0
  -24.7170  -28.5800   29.4760 C   0  0  0  0  0  3  0  0  0  0  0  0
  -24.4760  -28.5170   28.0940 C   0  0  0  0  0  3  0  0  0  0  0  0
  -25.6040  -27.6950   31.4830 O   0  0  0  0  0  0  0  0  0  0  0  0
  -25.9720  -26.6320   32.2680 C   0  0  0  0  0  0  0  0  0  0  0  0
  -27.3280  -26.3230   32.5170 C   0  0  0  0  0  3  0  0  0  0  0  0
  -27.6610  -25.2650   33.3860 C   0  0  0  0  0  3  0  0  0  0  0  0
  -26.6430  -24.5210   34.0140 C   0  0  0  0  0  0  0  0  0  0  0  0
  -25.2930  -24.8300   33.7700 C   0  0  0  0  0  3  0  0  0  0  0  0
  -24.9590  -25.8850   32.9020 C   0  0  0  0  0  0  0  0  0  0  0  0
  -23.6570  -26.1920   32.6890 F   0  0  0  0  0  0  0  0  0  0  0  0
  -26.9620  -23.5100   34.8540 F   0  0  0  0  0  0  0  0  0  0  0  0
  -27.1200  -27.0930   24.8610 C   0  0  0  0  0  0  0  0  0  0  0  0
  -27.5840  -25.8520   24.9560 N   0  0  0  0  0  0  0  0  0  0  0  0
  -27.8840  -28.0550   24.7870 O   0  0  0  0  0  0  0  0  0  0  0  0
  -26.9570  -25.0620   24.9980 H   0  0  0  0  0  0  0  0  0  0  0  0
  -28.5800  -25.6900   24.9880 H   0  0  0  0  0  0  0  0  0  0  0  0
  -25.2060  -27.4640   22.2990 N   0  0  0  0  0  0  0  0  0  0  0  0
  -26.1770  -27.4980   22.0100 H   0  0  0  0  0  0  0  0  0  0  0  0
  -24.5730  -27.8410   21.6060 H   0  0  0  0  0  0  0  0  0  0  0  0
  -22.8870  -25.1360   15.7260 C   0  0  0  0  0  1  0  0  0  0  0  0
  -23.4350  -25.4570   17.0020 O   0  0  0  0  0  0  0  0  0  0  0  0
  -27.3030  -22.0410   18.5260 O   0  0  0  0  0  0  0  0  0  0  0  0
  -30.5120  -20.2410   18.3560 C   0  0  0  0  0  3  0  0  0  0  0  0
  -29.5740  -22.7560   19.1690 C   0  0  0  0  0  3  0  0  0  0  0  0
  -31.4300  -21.1830   18.8680 C   0  0  0  0  0  0  0  0  0  0  0  0
  -29.1440  -20.5540   18.2270 C   0  0  0  0  0  0  0  0  0  0  0  0
  -30.9500  -22.4520   19.2790 C   0  0  0  0  0  0  0  0  0  0  0  0
  -28.6580  -21.8100   18.6480 C   0  0  0  0  0  0  0  0  0  0  0  0
  -28.1850  -19.5200   17.6660 C   0  0  0  0  0  1  0  0  0  0  0  0
  -31.8930  -23.4950   19.8550 C   0  0  0  0  0  1  0  0  0  0  0  0
  -32.9000  -20.7870   19.0290 C   0  0  0  0  0  2  0  0  0  0  0  0
  -33.6170  -20.7220   17.7960 O   0  0  0  0  0  0  0  0  0  0  0  0
  -36.1150  -27.3350   18.7140 C   0  0  0  0  0  0  0  0  0  0  0  0
  -33.9320  -21.9390   17.2460 C   0  0  0  0  0  0  0  0  0  0  0  0
  -35.0680  -26.8580   16.5230 C   0  0  0  0  0  3  0  0  0  0  0  0
  -34.5810  -24.4010   16.0370 C   0  0  0  0  0  0  0  0  0  0  0  0
  -36.1760  -24.9930   17.8740 C   0  0  0  0  0  2  0  0  0  0  0  0
  -35.1820  -24.0370   17.2500 C   0  0  0  0  0  0  0  0  0  0  0  0
  -34.8570  -22.8090   17.8640 C   0  0  0  0  0  3  0  0  0  0  0  0
  -33.3460  -22.3070   16.0200 C   0  0  0  0  0  3  0  0  0  0  0  0
  -33.6580  -23.5400   15.4170 C   0  0  0  0  0  3  0  0  0  0  0  0
  -34.9800  -25.7370   15.4520 C   0  0  0  0  0  2  0  0  0  0  0  0
  -35.7850  -26.4160   17.7630 N   0  0  0  0  0  0  0  0  0  0  0  0
  -35.8720  -28.5390   18.5540 O   0  0  0  0  0  0  0  0  0  0  0  0
  -33.6440  -27.3910   16.7950 C   0  0  0  0  0  0  0  0  0  0  0  0
  -33.4030  -28.6620   16.4350 N   0  0  0  0  0  0  0  0  0  0  0  0
  -32.7800  -26.6620   17.2890 O   0  0  0  0  0  0  0  0  0  0  0  0
  -34.1660  -29.1930   16.0410 H   0  0  0  0  0  0  0  0  0  0  0  0
  -31.8810  -31.9360   16.5240 C   0  0  0  0  0  0  0  0  0  0  0  0
  -32.1270  -29.3640   16.5570 C   0  0  0  0  0  3  0  0  0  0  0  0
  -31.3670  -29.3720   15.2120 C   0  0  0  0  0  2  0  0  0  0  0  0
  -31.6430  -30.6240   14.3710 C   0  0  0  0  0  2  0  0  0  0  0  0
  -31.2490  -31.8880   15.1420 C   0  0  0  0  0  2  0  0  0  0  0  0
  -32.3080  -30.7520   17.1790 C   0  0  0  0  0  0  0  0  0  0  0  0
  -32.9220  -30.8540   18.4460 C   0  0  0  0  0  3  0  0  0  0  0  0
  -33.1070  -32.1080   19.0580 C   0  0  0  0  0  3  0  0  0  0  0  0
  -32.6680  -33.2760   18.4120 C   0  0  0  0  0  3  0  0  0  0  0  0
  -32.0540  -33.1880   17.1490 C   0  0  0  0  0  3  0  0  0  0  0  0
  -36.8330  -26.9210   20.0370 C   0  0  0  0  0  3  0  0  0  0  0  0
  -37.4600  -28.1270   20.5940 N   0  0  0  0  0  0  0  0  0  0  0  0
  -38.7240  -28.5040   20.3600 C   0  0  0  0  0  0  0  0  0  0  0  0
  -39.5150  -27.8240   19.7010 O   0  0  0  0  0  0  0  0  0  0  0  0
  -36.8580  -28.7540   21.1070 H   0  0  0  0  0  0  0  0  0  0  0  0
  -39.4280  -30.8550   19.8150 C   0  0  0  0  0  1  0  0  0  0  0  0
  -39.1820  -29.8500   20.9510 C   0  0  0  0  0  3  0  0  0  0  0  0
  -40.1370  -29.1680   23.1080 C   0  0  0  0  0  1  0  0  0  0  0  0
  -40.3960  -29.7400   21.7910 N   0  0  0  0  0  0  0  0  0  0  0  0
  -40.8280  -30.6510   21.9200 H   0  0  0  0  0  0  0  0  0  0  0  0
  -35.8660  -26.2560   21.0920 C   0  0  1  0  0  0  0  0  0  0  0  0
  -35.9580  -26.8850   22.5010 C   0  0  0  0  0  1  0  0  0  0  0  0
  -34.3950  -26.3580   20.6210 C   0  0  0  0  0  1  0  0  0  0  0  0
  -36.1860  -24.7480   21.2200 C   0  0  0  0  0  1  0  0  0  0  0  0
  1  3  1  0
  3  4  1  0
  3  2  1  0
  5  7  1  0
  5  4  1  0
  6  5  1  0
  8 14  1  0
 10  9  1  0
 10 11  1  0
 12 13  1  0
 12 11  1  0
 12 25  1  0
 14  9  1  0
 14 13  1  0
 15  8  2  0
 16 20  1  0
 16 17  1  0
 17 21  1  0
 19  5  1  0
 19 18  1  0
 20 51  1  0
 20 19  1  0
 21 18  1  0
 21  8  1  0
 22 25  1  0
 22 23  2  0
 23 42  1  0
 23 24  1  0
 24 27  1  0
 25 26  1  0
 26 24  2  0
 27 28  2  0
 27 32  1  0
 28 29  1  0
 29 30  2  0
 30 33  1  0
 31 30  1  0
 32 31  2  0
 33 34  1  0
 34 35  2  0
 34 39  1  0
 35 36  1  0
 36 37  2  0
 37 41  1  0
 38 37  1  0
 39 38  2  0
 40 39  1  0
 42 43  1  0
 43 46  1  0
 43 45  1  0
 44 42  2  0
 47 22  1  0
 48 47  1  0
 49 47  1  0
 50 51  1  0
 52 58  1  0
 52  1  1  0
 53 55  1  0
 54 57  1  0
 55 61  1  0
 55 57  2  0
 56 53  2  0
 56 58  1  0
 57 60  1  0
 58 54  2  0
 59 56  1  0
 62 61  1  0
 64 62  1  0
 64 69  1  0
 65 75  1  0
 65 73  1  0
 66 68  1  0
 68 69  2  0
 68 67  1  0
 70 64  2  0
 71 70  1  0
 71 66  2  0
 72 66  1  0
 72 65  1  0
 73 67  1  0
 73 63  1  0
 74 63  2  0
 75 77  2  0
 76 75  1  0
 78 76  1  0
 79 88  2  0
 79 84  1  0
 80 76  1  0
 80 84  1  0
 81 80  1  0
 82 83  1  0
 82 81  1  0
 83 79  1  0
 84 85  2  0
 85 86  1  0
 87 86  2  0
 88 87  1  0
 89 63  1  0
 89 90  1  0
 89 99  1  0
 90 93  1  0
 91 90  1  0
 91 95  1  0
 92 91  2  0
 95 94  1  0
 95 97  1  0
 97 98  1  0
 97 96  1  0
 99102  1  1
 99100  1  0
101 99  1  0
M  ISO  4   8 100  21 100  61 101  62 101
M  END
>  <TORSDO>  (90) 
F 23

>  <SCORE>  (90) 
-7.045

>  <name>  (90) 
89

>  <ligand_id>  (90) 
89

>  <original_smiles>  (90) 
[H]c1c([H])c([H])c2c(c1[H])C([H])([H])C([H])([H])C([H])([H])C2([H])N([H])C(=O)C1([H])N(C(=O)C([H])(N([H])C(=O)C([H])(N([H])C([H])([H])[H])C([H])([H])[H])C(C([H])([H])[H])(C([H])([H])[H])C([H])([H])[H])C([H])([H])c2c([H])c(OC([H])([H])c3c([H])c(C([H])([H])[H])c(OC([H])([H])C([H])(C([H])([H])[H])C([H])([H])[N+]([H])([H])C4([H])C([H])([H])N(C(=O)N5C([H])([H])C([H])([H])C([H])([H])C([H])(n6nc(-c7c([H])c([H])c(Oc8c([H])c([H])c(F)c([H])c8F)c([H])c7[H])c(C(=O)N([H])[H])c6N([H])[H])C5([H])[H])C([H])([H])C([H])([H])C4([H])OC([H])([H])[H])c([H])c3C([H])([H])[H])c([H])c([H])c2C1([H])[H]

>  <smiles>  (90) 
[H]c1c([H])c([H])c2c(c1[H])C([H])([H])C([H])([H])C([H])([H])C2([H])N([H])C(=O)C1([H])N(C(=O)C([H])(N([H])C(=O)C([H])(N([H])C([H])([H])[H])C([H])([H])[H])C(C([H])([H])[H])(C([H])([H])[H])C([H])([H])[H])C([H])([H])c2c([H])c(OC([H])([H])c3c([H])c(C([H])([H])[H])c(OC([H])([H])C([H])(C([H])([H])[H])C([H])([H])[N+]([H])([H])C4([H])C([H])([H])N(C(=O)N5C([H])([H])C([H])([H])C([H])([H])C([H])(n6nc(-c7c([H])c([H])c(Oc8c([H])c([H])c(F)c([H])c8F)c([H])c7[H])c(C(=O)N([H])[H])c6N([H])[H])C5([H])[H])C([H])([H])C([H])([H])C4([H])OC([H])([H])[H])c([H])c3C([H])([H])[H])c([H])c([H])c2C1([H])[H]

$$$$
90:0:0
     RDKit          3D

 98107  0  0  1  0  0  0  0  0999 V2000
  -30.1410  -20.1590   22.2160 C   0  0  0  0  0  3  0  0  0  0  0  0
  -30.2140  -19.6590   19.4380 C   0  0  0  0  0  3  0  0  0  0  0  0
  -30.7320  -18.9940   21.7080 C   0  0  0  0  0  0  0  0  0  0  0  0
  -30.7430  -18.7020   20.3500 C   0  0  0  0  0  0  0  0  0  0  0  0
  -29.5810  -21.1010   21.3270 C   0  0  0  0  0  0  0  0  0  0  0  0
  -29.6380  -20.8890   19.9130 C   0  0  0  0  0  0  0  0  0  0  0  0
  -31.5000  -17.9860   22.5100 C   0  0  0  0  0  2  0  0  0  0  0  0
  -31.5620  -17.4180   20.0810 C   0  0  0  0  0  3  0  0  0  0  0  0
  -32.2830  -17.1800   21.4480 C   0  0  0  0  0  3  0  0  0  0  0  0
  -28.9490  -22.3360   21.9550 C   0  0  0  0  0  1  0  0  0  0  0  0
  -31.4630  -15.0400   19.3140 C   0  0  0  0  0  0  0  0  0  0  0  0
  -31.0860  -12.7160   18.5440 C   0  0  0  0  0  2  0  0  0  0  0  0
  -30.0500  -12.7030   17.4040 C   0  0  0  0  0  2  0  0  0  0  0  0
  -28.6190  -12.6330   17.9740 C   0  0  0  0  0  2  0  0  0  0  0  0
  -28.3680  -13.6690   19.1010 C   0  0  0  0  0  3  0  0  0  0  0  0
  -29.5140  -13.6570   20.1370 C   0  0  0  0  0  2  0  0  0  0  0  0
  -30.7740  -13.8670   19.4110 N   0  0  0  0  0  0  0  0  0  0  0  0
  -32.5610  -15.1070   18.7580 O   0  0  0  0  0  0  0  0  0  0  0  0
  -30.8510  -16.1600   19.7720 N   0  0  0  0  0  0  0  0  0  0  0  0
  -29.9220  -16.0590   20.1450 H   0  0  0  0  0  0  0  0  0  0  0  0
  -26.1180  -14.4260   20.0890 C   0  0  0  0  0  0  0  0  0  0  0  0
  -25.0430  -13.7250   20.5680 C   0  0  0  0  0  0  0  0  0  0  0  0
  -25.4020  -12.3440   20.4710 C   0  0  0  0  0  0  0  0  0  0  0  0
  -27.0640  -13.4780   19.7300 N   0  0  0  0  0  0  0  0  0  0  0  0
  -26.6430  -12.2210   20.0180 N   0  0  0  0  0  0  0  0  0  0  0  0
  -24.6130  -11.1330   20.7270 C   0  0  0  0  0  0  0  0  0  0  0  0
  -24.9660  -10.2210   21.7480 C   0  0  0  0  0  3  0  0  0  0  0  0
  -24.1780   -9.0740   21.9860 C   0  0  0  0  0  3  0  0  0  0  0  0
  -23.0230   -8.8310   21.2050 C   0  0  0  0  0  0  0  0  0  0  0  0
  -22.6910   -9.7290   20.1760 C   0  0  0  0  0  3  0  0  0  0  0  0
  -23.4790  -10.8660   19.9350 C   0  0  0  0  0  3  0  0  0  0  0  0
  -22.2150   -7.7300   21.3480 O   0  0  0  0  0  0  0  0  0  0  0  0
  -21.9270   -7.2010   22.5810 C   0  0  0  0  0  0  0  0  0  0  0  0
  -21.2800   -7.9570   23.5830 C   0  0  0  0  0  3  0  0  0  0  0  0
  -20.9410   -7.3540   24.8110 C   0  0  0  0  0  3  0  0  0  0  0  0
  -21.2400   -5.9970   25.0370 C   0  0  0  0  0  0  0  0  0  0  0  0
  -21.8800   -5.2420   24.0370 C   0  0  0  0  0  3  0  0  0  0  0  0
  -22.2210   -5.8420   22.8120 C   0  0  0  0  0  0  0  0  0  0  0  0
  -22.8170   -5.1040   21.8460 F   0  0  0  0  0  0  0  0  0  0  0  0
  -20.9070   -5.4160   26.2130 F   0  0  0  0  0  0  0  0  0  0  0  0
  -23.7250  -14.2970   21.0000 C   0  0  0  0  0  0  0  0  0  0  0  0
  -23.0590  -13.6580   21.9550 N   0  0  0  0  0  0  0  0  0  0  0  0
  -23.2970  -15.3480   20.5240 O   0  0  0  0  0  0  0  0  0  0  0  0
  -23.4200  -12.8110   22.3670 H   0  0  0  0  0  0  0  0  0  0  0  0
  -22.1790  -14.0260   22.2830 H   0  0  0  0  0  0  0  0  0  0  0  0
  -26.3630  -15.7830   19.9120 N   0  0  0  0  0  0  0  0  0  0  0  0
  -25.6660  -16.4950   20.1130 H   0  0  0  0  0  0  0  0  0  0  0  0
  -27.2040  -16.1630   19.4940 H   0  0  0  0  0  0  0  0  0  0  0  0
  -33.6120  -17.6690   21.3670 O   0  0  0  0  0  0  0  0  0  0  0  0
  -33.5590  -18.5770   21.0810 H   0  0  0  0  0  0  0  0  0  0  0  0
  -29.0560  -21.9330   18.9100 C   0  0  0  0  0  2  0  0  0  0  0  0
  -29.3790  -23.3640   19.2200 N   0  0  0  0  0  4  0  0  0  0  0  0
  -30.3140  -23.5540   18.8900 H   0  0  0  0  0  0  0  0  0  0  0  0
  -29.4060  -23.3930   20.2260 H   0  0  0  0  0  0  0  0  0  0  0  0
  -28.4350  -24.4420   18.7400 C   0  0  0  0  0  2  0  0  0  0  0  0
  -27.7810  -25.7140   20.9030 C   0  0  0  0  0  1  0  0  0  0  0  0
  -28.5460  -25.7830   19.5590 C   0  0  0  0  0  3  0  0  0  0  0  0
  -28.2830  -27.0200   18.8210 O   0  0  0  0  0  0  0  0  0  0  0  0
  -24.4540  -31.4300   22.9670 C   0  0  0  0  0  0  0  0  0  0  0  0
  -27.0900  -27.6970   19.0250 C   0  0  0  0  0  0  0  0  0  0  0  0
  -23.2060  -30.2160   21.2120 C   0  0  0  0  0  3  0  0  0  0  0  0
  -24.6270  -29.0320   19.4460 C   0  0  0  0  0  0  0  0  0  0  0  0
  -25.6820  -30.7770   20.8930 C   0  0  0  0  0  2  0  0  0  0  0  0
  -25.7980  -29.5310   20.0330 C   0  0  0  0  0  0  0  0  0  0  0  0
  -27.0330  -28.8730   19.8180 C   0  0  0  0  0  3  0  0  0  0  0  0
  -25.9050  -27.2270   18.4270 C   0  0  0  0  0  3  0  0  0  0  0  0
  -24.6770  -27.8790   18.6420 C   0  0  0  0  0  3  0  0  0  0  0  0
  -23.3410  -29.7830   19.7260 C   0  0  0  0  0  2  0  0  0  0  0  0
  -24.4690  -30.8160   21.7480 N   0  0  0  0  0  0  0  0  0  0  0  0
  -23.4080  -31.5340   23.6220 O   0  0  0  0  0  0  0  0  0  0  0  0
  -22.7010  -29.0110   22.0380 C   0  0  0  0  0  0  0  0  0  0  0  0
  -21.3990  -28.7070   21.9190 N   0  0  0  0  0  0  0  0  0  0  0  0
  -23.4740  -28.3590   22.7470 O   0  0  0  0  0  0  0  0  0  0  0  0
  -20.8330  -29.2950   21.3240 H   0  0  0  0  0  0  0  0  0  0  0  0
  -18.2090  -27.0320   22.2230 C   0  0  0  0  0  0  0  0  0  0  0  0
  -20.7100  -27.5890   22.5670 C   0  0  0  0  0  3  0  0  0  0  0  0
  -21.0020  -26.2590   21.8380 C   0  0  0  0  0  2  0  0  0  0  0  0
  -19.9560  -25.9090   20.7750 C   0  0  0  0  0  2  0  0  0  0  0  0
  -18.5650  -25.8000   21.4060 C   0  0  0  0  0  2  0  0  0  0  0  0
  -19.2170  -27.8820   22.7530 C   0  0  0  0  0  0  0  0  0  0  0  0
  -18.8310  -29.0340   23.4730 C   0  0  0  0  0  3  0  0  0  0  0  0
  -17.4710  -29.3410   23.6680 C   0  0  0  0  0  3  0  0  0  0  0  0
  -16.4780  -28.4870   23.1570 C   0  0  0  0  0  3  0  0  0  0  0  0
  -16.8480  -27.3330   22.4390 C   0  0  0  0  0  3  0  0  0  0  0  0
  -25.7480  -32.0470   23.5870 C   0  0  0  0  0  3  0  0  0  0  0  0
  -25.4280  -33.4200   23.9990 N   0  0  0  0  0  0  0  0  0  0  0  0
  -25.7730  -34.5190   23.3140 C   0  0  0  0  0  0  0  0  0  0  0  0
  -26.4680  -34.4800   22.2950 O   0  0  0  0  0  0  0  0  0  0  0  0
  -24.8200  -33.5220   24.7970 H   0  0  0  0  0  0  0  0  0  0  0  0
  -24.0690  -36.3420   23.0070 C   0  0  0  0  0  1  0  0  0  0  0  0
  -25.2710  -35.8760   23.8440 C   0  0  0  0  0  3  0  0  0  0  0  0
  -27.3670  -36.6880   24.8330 C   0  0  0  0  0  1  0  0  0  0  0  0
  -26.3130  -36.9270   23.8510 N   0  0  0  0  0  0  0  0  0  0  0  0
  -25.9030  -37.8380   24.0380 H   0  0  0  0  0  0  0  0  0  0  0  0
  -26.3070  -31.2180   24.8060 C   0  0  1  0  0  0  0  0  0  0  0  0
  -25.2410  -30.8910   25.8790 C   0  0  0  0  0  1  0  0  0  0  0  0
  -26.9170  -29.8810   24.3190 C   0  0  0  0  0  1  0  0  0  0  0  0
  -27.4530  -32.0020   25.4900 C   0  0  0  0  0  1  0  0  0  0  0  0
  2  6  2  0
  2  4  1  0
  3  1  1  0
  3  7  1  0
  4  3  2  0
  5 10  1  0
  5  1  2  0
  6  5  1  0
  8 19  1  0
  8  4  1  0
  8  9  1  0
  9 49  1  0
  9  7  1  0
 11 17  1  0
 11 19  1  0
 12 17  1  0
 13 14  1  0
 13 12  1  0
 15 14  1  0
 15 24  1  0
 15 16  1  0
 17 16  1  0
 18 11  2  0
 19 20  1  0
 21 22  2  0
 22 41  1  0
 23 22  1  0
 23 26  1  0
 24 25  1  0
 24 21  1  0
 25 23  2  0
 26 27  1  0
 27 28  2  0
 29 32  1  0
 29 28  1  0
 30 29  2  0
 31 30  1  0
 31 26  2  0
 32 33  1  0
 33 38  2  0
 33 34  1  0
 34 35  2  0
 35 36  1  0
 36 40  1  0
 37 36  2  0
 38 37  1  0
 39 38  1  0
 41 42  1  0
 42 45  1  0
 42 44  1  0
 43 41  2  0
 46 21  1  0
 46 47  1  0
 48 46  1  0
 50 49  1  0
 51 52  1  0
 51  6  1  0
 52 54  1  0
 53 52  1  0
 55 52  1  0
 55 57  1  0
 57 56  1  0
 58 60  1  0
 58 57  1  0
 59 70  2  0
 60 65  1  0
 61 69  1  0
 61 71  1  0
 62 68  1  0
 62 64  1  0
 63 69  1  0
 64 63  1  0
 65 64  2  0
 66 67  1  0
 66 60  2  0
 67 62  2  0
 68 61  1  0
 69 59  1  0
 71 73  2  0
 72 71  1  0
 74 72  1  0
 75 84  2  0
 75 80  1  0
 76 72  1  0
 76 80  1  0
 77 76  1  0
 78 79  1  0
 78 77  1  0
 79 75  1  0
 80 81  2  0
 81 82  1  0
 83 82  2  0
 84 83  1  0
 85 59  1  0
 85 86  1  0
 85 95  1  0
 86 89  1  0
 87 91  1  0
 87 86  1  0
 88 87  2  0
 91 90  1  0
 91 93  1  0
 93 94  1  0
 93 92  1  0
 95 98  1  1
 95 96  1  0
 97 95  1  0
M  ISO  4  11 100  19 100  57 101  58 101
M  END
>  <TORSDO>  (91) 
F 21

>  <SCORE>  (91) 
-8.219

>  <name>  (91) 
90

>  <ligand_id>  (91) 
90

>  <original_smiles>  (91) 
[H]OC1([H])C([H])([H])c2c([H])c(C([H])([H])[H])c(C([H])([H])[N+]([H])([H])C([H])([H])C([H])(Oc3c([H])c([H])c4c(c3[H])C([H])([H])N(C(=O)C([H])(N([H])C(=O)C([H])(N([H])C([H])([H])[H])C([H])([H])[H])C(C([H])([H])[H])(C([H])([H])[H])C([H])([H])[H])C([H])(C(=O)N([H])C3([H])c5c([H])c([H])c([H])c([H])c5C([H])([H])C([H])([H])C3([H])[H])C4([H])[H])C([H])([H])[H])c([H])c2C1([H])N([H])C(=O)N1C([H])([H])C([H])([H])C([H])([H])C([H])(n2nc(-c3c([H])c([H])c(Oc4c([H])c([H])c(F)c([H])c4F)c([H])c3[H])c(C(=O)N([H])[H])c2N([H])[H])C1([H])[H]

>  <smiles>  (91) 
[H]OC1([H])C([H])([H])c2c([H])c(C([H])([H])[H])c(C([H])([H])[N+]([H])([H])C([H])([H])C([H])(Oc3c([H])c([H])c4c(c3[H])C([H])([H])N(C(=O)C([H])(N([H])C(=O)C([H])(N([H])C([H])([H])[H])C([H])([H])[H])C(C([H])([H])[H])(C([H])([H])[H])C([H])([H])[H])C([H])(C(=O)N([H])C3([H])c5c([H])c([H])c([H])c([H])c5C([H])([H])C([H])([H])C3([H])[H])C4([H])[H])C([H])([H])[H])c([H])c2C1([H])N([H])C(=O)N1C([H])([H])C([H])([H])C([H])([H])C([H])(n2nc(-c3c([H])c([H])c(Oc4c([H])c([H])c(F)c([H])c4F)c([H])c3[H])c(C(=O)N([H])[H])c2N([H])[H])C1([H])[H]

$$$$
91:0:0
     RDKit          3D

100109  0  0  1  0  0  0  0  0999 V2000
  -28.5410  -23.6420   20.8070 C   0  0  0  0  0  0  0  0  0  0  0  0
  -30.4310  -24.1610   19.3420 C   0  0  0  0  0  0  0  0  0  0  0  0
  -29.2630  -22.5440   21.3600 C   0  0  0  0  0  0  0  0  0  0  0  0
  -31.1870  -23.1210   19.9580 C   0  0  0  0  0  0  0  0  0  0  0  0
  -29.1050  -24.4390   19.7700 C   0  0  0  0  0  0  0  0  0  0  0  0
  -30.5820  -22.2350   20.9060 C   0  0  0  0  0  0  0  0  0  0  0  0
  -27.1440  -23.9490   21.3530 C   0  0  0  0  0  1  0  0  0  0  0  0
  -31.0280  -24.9950   18.2020 C   0  0  0  0  0  1  0  0  0  0  0  0
  -28.6010  -21.7180   22.4660 C   0  0  0  0  0  1  0  0  0  0  0  0
  -32.6770  -23.0010   19.6130 C   0  0  0  0  0  1  0  0  0  0  0  0
  -32.1050  -21.4760   22.7980 C   0  0  0  0  0  1  0  0  0  0  0  0
  -31.4130  -21.0440   21.4840 C   0  0  0  0  0  3  0  0  0  0  0  0
  -31.1510  -17.1610   22.2010 C   0  0  0  0  0  2  0  0  0  0  0  0
  -31.6950  -18.5920   22.2600 C   0  0  0  0  0  2  0  0  0  0  0  0
  -30.9200  -16.7670   20.7410 C   0  0  0  0  0  3  0  0  0  0  0  0
  -30.7750  -19.6070   21.5350 C   0  0  0  0  0  3  0  0  0  0  0  0
  -30.0080  -17.8100   20.0280 C   0  0  1  0  0  0  0  0  0  0  0  0
  -30.0270  -17.5760   18.5090 C   0  0  0  0  0  1  0  0  0  0  0  0
  -28.5430  -17.7760   20.5130 C   0  0  0  0  0  1  0  0  0  0  0  0
  -30.5540  -19.1320   20.1960 O   0  0  0  0  0  0  0  0  0  0  0  0
  -30.9450  -14.3870   19.9570 C   0  0  0  0  0  0  0  0  0  0  0  0
  -30.5360  -12.1800   18.9320 C   0  0  0  0  0  2  0  0  0  0  0  0
  -29.5370  -12.3160   17.7660 C   0  0  0  0  0  2  0  0  0  0  0  0
  -28.0870  -12.2280   18.2780 C   0  0  0  0  0  2  0  0  0  0  0  0
  -27.8240  -13.1540   19.4960 C   0  0  0  0  0  3  0  0  0  0  0  0
  -28.9290  -12.9900   20.5640 C   0  0  0  0  0  2  0  0  0  0  0  0
  -30.2300  -13.2300   19.9160 N   0  0  0  0  0  0  0  0  0  0  0  0
  -32.0000  -14.5410   19.3370 O   0  0  0  0  0  0  0  0  0  0  0  0
  -30.3960  -15.3940   20.6540 N   0  0  0  0  0  0  0  0  0  0  0  0
  -29.5190  -15.2040   21.1120 H   0  0  0  0  0  0  0  0  0  0  0  0
  -25.5050  -13.8510   20.3680 C   0  0  0  0  0  0  0  0  0  0  0  0
  -24.4280  -13.1180   20.7930 C   0  0  0  0  0  0  0  0  0  0  0  0
  -24.8230  -11.7480   20.7060 C   0  0  0  0  0  0  0  0  0  0  0  0
  -26.4920  -12.9290   20.0550 N   0  0  0  0  0  0  0  0  0  0  0  0
  -26.0870  -11.6580   20.3120 N   0  0  0  0  0  0  0  0  0  0  0  0
  -24.0530  -10.5160   20.9160 C   0  0  0  0  0  0  0  0  0  0  0  0
  -24.4680   -9.5360   21.8450 C   0  0  0  0  0  3  0  0  0  0  0  0
  -23.6990   -8.3680   22.0440 C   0  0  0  0  0  3  0  0  0  0  0  0
  -22.5030   -8.1730   21.3150 C   0  0  0  0  0  0  0  0  0  0  0  0
  -22.1070   -9.1410   20.3750 C   0  0  0  0  0  3  0  0  0  0  0  0
  -22.8750  -10.3000   20.1740 C   0  0  0  0  0  3  0  0  0  0  0  0
  -21.7070   -7.0580   21.4230 O   0  0  0  0  0  0  0  0  0  0  0  0
  -21.6120   -6.3530   22.5960 C   0  0  0  0  0  0  0  0  0  0  0  0
  -21.1700   -6.9550   23.7940 C   0  0  0  0  0  3  0  0  0  0  0  0
  -21.0210   -6.1780   24.9610 C   0  0  0  0  0  3  0  0  0  0  0  0
  -21.3040   -4.7990   24.9290 C   0  0  0  0  0  0  0  0  0  0  0  0
  -21.7390   -4.1960   23.7350 C   0  0  0  0  0  3  0  0  0  0  0  0
  -21.8890   -4.9710   22.5710 C   0  0  0  0  0  0  0  0  0  0  0  0
  -22.2880   -4.3810   21.4190 F   0  0  0  0  0  0  0  0  0  0  0  0
  -21.1540   -4.0500   26.0460 F   0  0  0  0  0  0  0  0  0  0  0  0
  -23.0750  -13.6520   21.1680 C   0  0  0  0  0  0  0  0  0  0  0  0
  -22.3810  -12.9770   22.0780 N   0  0  0  0  0  0  0  0  0  0  0  0
  -22.6470  -14.7020   20.6900 O   0  0  0  0  0  0  0  0  0  0  0  0
  -22.7410  -12.1260   22.4840 H   0  0  0  0  0  0  0  0  0  0  0  0
  -21.4760  -13.3170   22.3710 H   0  0  0  0  0  0  0  0  0  0  0  0
  -25.7180  -15.2150   20.2040 N   0  0  0  0  0  0  0  0  0  0  0  0
  -24.9880  -15.8990   20.3680 H   0  0  0  0  0  0  0  0  0  0  0  0
  -26.5570  -15.6180   19.8090 H   0  0  0  0  0  0  0  0  0  0  0  0
  -28.2790  -25.5630   19.0980 C   0  0  0  0  0  2  0  0  0  0  0  0
  -28.1320  -26.7500   19.9050 O   0  0  0  0  0  0  0  0  0  0  0  0
  -24.5230  -31.8600   23.3000 C   0  0  0  0  0  0  0  0  0  0  0  0
  -26.9510  -27.4760   19.9340 C   0  0  0  0  0  0  0  0  0  0  0  0
  -23.2170  -30.5200   21.6840 C   0  0  0  0  0  3  0  0  0  0  0  0
  -24.5750  -29.0220   20.1330 C   0  0  0  0  0  0  0  0  0  0  0  0
  -25.7360  -30.8560   21.3660 C   0  0  0  0  0  2  0  0  0  0  0  0
  -25.7700  -29.5060   20.6770 C   0  0  0  0  0  0  0  0  0  0  0  0
  -26.9540  -28.7370   20.5820 C   0  0  0  0  0  3  0  0  0  0  0  0
  -25.7290  -27.0230   19.3760 C   0  0  0  0  0  3  0  0  0  0  0  0
  -24.5500  -27.7810   19.4830 C   0  0  0  0  0  3  0  0  0  0  0  0
  -23.3460  -29.8890   20.2730 C   0  0  0  0  0  2  0  0  0  0  0  0
  -24.5140  -31.0920   22.1740 N   0  0  0  0  0  0  0  0  0  0  0  0
  -23.4740  -32.1250   23.9030 O   0  0  0  0  0  0  0  0  0  0  0  0
  -22.6090  -29.4720   22.6450 C   0  0  0  0  0  0  0  0  0  0  0  0
  -21.2960  -29.2260   22.5100 N   0  0  0  0  0  0  0  0  0  0  0  0
  -23.3180  -28.8830   23.4660 O   0  0  0  0  0  0  0  0  0  0  0  0
  -20.7850  -29.7570   21.8180 H   0  0  0  0  0  0  0  0  0  0  0  0
  -18.0040  -27.7890   22.9070 C   0  0  0  0  0  0  0  0  0  0  0  0
  -20.5200  -28.2560   23.2800 C   0  0  0  0  0  3  0  0  0  0  0  0
  -20.7580  -26.8170   22.7650 C   0  0  0  0  0  2  0  0  0  0  0  0
  -19.7320  -26.3720   21.7180 C   0  0  0  0  0  2  0  0  0  0  0  0
  -18.3140  -26.4340   22.2950 C   0  0  0  0  0  2  0  0  0  0  0  0
  -19.0400  -28.6510   23.3550 C   0  0  0  0  0  0  0  0  0  0  0  0
  -18.7000  -29.9150   23.8830 C   0  0  0  0  0  3  0  0  0  0  0  0
  -17.3540  -30.3200   23.9710 C   0  0  0  0  0  3  0  0  0  0  0  0
  -16.3320  -29.4560   23.5410 C   0  0  0  0  0  3  0  0  0  0  0  0
  -16.6570  -28.1940   23.0140 C   0  0  0  0  0  3  0  0  0  0  0  0
  -25.8450  -32.4620   23.8660 C   0  0  0  0  0  3  0  0  0  0  0  0
  -26.3850  -31.6930   25.1350 C   0  0  1  0  0  0  0  0  0  0  0  0
  -25.3200  -31.4930   26.2390 C   0  0  0  0  0  1  0  0  0  0  0  0
  -26.9220  -30.2970   24.7400 C   0  0  0  0  0  1  0  0  0  0  0  0
  -27.5740  -32.4660   25.7510 C   0  0  0  0  0  1  0  0  0  0  0  0
  -25.5880  -33.8720   24.1850 N   0  0  0  0  0  0  0  0  0  0  0  0
  -25.8990  -34.9000   23.3840 C   0  0  0  0  0  0  0  0  0  0  0  0
  -26.5040  -34.7610   22.3180 O   0  0  0  0  0  0  0  0  0  0  0  0
  -25.0420  -34.0560   25.0140 H   0  0  0  0  0  0  0  0  0  0  0  0
  -24.1840  -36.7180   23.1000 C   0  0  0  0  0  1  0  0  0  0  0  0
  -25.4680  -36.3090   23.8390 C   0  0  0  0  0  3  0  0  0  0  0  0
  -27.6650  -37.1720   24.5140 C   0  0  0  0  0  1  0  0  0  0  0  0
  -26.5110  -37.3380   23.6340 N   0  0  0  0  0  0  0  0  0  0  0  0
  -26.1310  -38.2690   23.7810 H   0  0  0  0  0  0  0  0  0  0  0  0
  1  7  1  0
  1  3  1  0
  2  5  1  0
  2  4  2  0
  3  9  1  0
  4  6  1  0
  5  1  2  0
  6  3  2  0
  6 12  1  0
  8  2  1  0
 10  4  1  0
 12 11  1  0
 13 14  1  0
 15 29  1  0
 15 13  1  0
 16 12  1  0
 16 14  1  0
 17 20  1  0
 17 19  1  1
 17 15  1  0
 18 17  1  0
 20 16  1  0
 21 29  1  0
 22 27  1  0
 23 24  1  0
 23 22  1  0
 25 24  1  0
 25 34  1  0
 25 26  1  0
 27 21  1  0
 27 26  1  0
 28 21  2  0
 29 30  1  0
 31 32  2  0
 32 51  1  0
 33 32  1  0
 33 36  1  0
 34 35  1  0
 34 31  1  0
 35 33  2  0
 36 37  1  0
 37 38  2  0
 39 42  1  0
 39 38  1  0
 40 39  2  0
 41 40  1  0
 41 36  2  0
 42 43  1  0
 43 44  1  0
 44 45  2  0
 46 45  1  0
 46 50  1  0
 47 46  2  0
 48 43  2  0
 48 47  1  0
 49 48  1  0
 51 52  1  0
 52 55  1  0
 52 54  1  0
 53 51  2  0
 56 31  1  0
 56 57  1  0
 58 56  1  0
 59  5  1  0
 59 60  1  0
 60 62  1  0
 61 72  2  0
 62 67  1  0
 63 71  1  0
 63 73  1  0
 64 70  1  0
 64 66  1  0
 65 71  1  0
 66 65  1  0
 67 66  2  0
 68 69  1  0
 68 62  2  0
 69 64  2  0
 70 63  1  0
 71 61  1  0
 73 75  2  0
 74 73  1  0
 76 74  1  0
 77 86  2  0
 77 82  1  0
 78 74  1  0
 78 82  1  0
 79 78  1  0
 80 81  1  0
 80 79  1  0
 81 77  1  0
 82 83  2  0
 83 84  1  0
 85 84  2  0
 86 85  1  0
 87 61  1  0
 87 92  1  0
 87 88  1  0
 88 91  1  1
 88 89  1  0
 90 88  1  0
 92 95  1  0
 93 97  1  0
 93 92  1  0
 94 93  2  0
 97 96  1  0
 99100  1  0
 99 97  1  0
 99 98  1  0
M  ISO  4  21 100  29 100  59 101  60 101
M  END
>  <TORSDO>  (92) 
F 19

>  <SCORE>  (92) 
-13.631

>  <name>  (92) 
91

>  <ligand_id>  (92) 
91

>  <original_smiles>  (92) 
[H]c1c([H])c([H])c2c(c1[H])C([H])([H])C([H])([H])C([H])([H])C2([H])N([H])C(=O)C1([H])N(C(=O)C([H])(N([H])C(=O)C([H])(N([H])C([H])([H])[H])C([H])([H])[H])C(C([H])([H])[H])(C([H])([H])[H])C([H])([H])[H])C([H])([H])c2c([H])c(OC([H])([H])c3c(C([H])([H])[H])c(C([H])([H])[H])c(C([H])(C([H])([H])[H])C4([H])OC(C([H])([H])[H])(C([H])([H])[H])C([H])(N([H])C(=O)N5C([H])([H])C([H])([H])C([H])([H])C([H])(n6nc(-c7c([H])c([H])c(Oc8c([H])c([H])c(F)c([H])c8F)c([H])c7[H])c(C(=O)N([H])[H])c6N([H])[H])C5([H])[H])C([H])([H])C4([H])[H])c(C([H])([H])[H])c3C([H])([H])[H])c([H])c([H])c2C1([H])[H]

>  <smiles>  (92) 
[H]c1c([H])c([H])c2c(c1[H])C([H])([H])C([H])([H])C([H])([H])C2([H])N([H])C(=O)C1([H])N(C(=O)C([H])(N([H])C(=O)C([H])(N([H])C([H])([H])[H])C([H])([H])[H])C(C([H])([H])[H])(C([H])([H])[H])C([H])([H])[H])C([H])([H])c2c([H])c(OC([H])([H])c3c(C([H])([H])[H])c(C([H])([H])[H])c(C([H])(C([H])([H])[H])C4([H])OC(C([H])([H])[H])(C([H])([H])[H])C([H])(N([H])C(=O)N5C([H])([H])C([H])([H])C([H])([H])C([H])(n6nc(-c7c([H])c([H])c(Oc8c([H])c([H])c(F)c([H])c8F)c([H])c7[H])c(C(=O)N([H])[H])c6N([H])[H])C5([H])[H])C([H])([H])C4([H])[H])c(C([H])([H])[H])c3C([H])([H])[H])c([H])c([H])c2C1([H])[H]

$$$$
92:0:0
     RDKit          3D

 89 98  0  0  1  0  0  0  0  0999 V2000
  -30.6750  -14.8530   20.4260 C   0  0  0  0  0  0  0  0  0  0  0  0
  -30.4030  -12.5410   19.4810 C   0  0  0  0  0  2  0  0  0  0  0  0
  -29.5060  -12.5270   18.2290 C   0  0  0  0  0  2  0  0  0  0  0  0
  -28.0340  -12.3450   18.6390 C   0  0  0  0  0  2  0  0  0  0  0  0
  -27.6210  -13.2920   19.7950 C   0  0  0  0  0  3  0  0  0  0  0  0
  -28.6570  -13.3340   20.9410 C   0  0  0  0  0  2  0  0  0  0  0  0
  -29.9530  -13.6700   20.3420 N   0  0  0  0  0  0  0  0  0  0  0  0
  -31.8870  -14.7820   20.2010 O   0  0  0  0  0  0  0  0  0  0  0  0
  -28.3080  -19.5450   20.1530 C   0  0  0  0  0  0  0  0  0  0  0  0
  -28.8090  -16.7620   20.2400 C   0  0  0  0  0  2  0  0  0  0  0  0
  -30.5010  -20.0840   20.3510 C   0  0  0  0  0  2  0  0  0  0  0  0
  -30.9300  -17.3770   20.9030 C   0  0  0  0  0  2  0  0  0  0  0  0
  -29.0410  -18.2370   19.6780 C   0  0  0  0  0  3  0  0  0  0  0  0
  -30.4780  -18.5470   19.9460 C   0  0  0  0  0  3  0  0  0  0  0  0
  -29.1230  -20.6450   20.2650 N   0  0  0  0  0  0  0  0  0  0  0  0
  -30.1140  -16.1380   20.6410 N   0  0  0  0  0  0  0  0  0  0  0  0
  -27.0790  -19.5870   20.2350 O   0  0  0  0  0  0  0  0  0  0  0  0
  -25.2360  -13.9170   20.4750 C   0  0  0  0  0  0  0  0  0  0  0  0
  -24.1560  -13.1590   20.8320 C   0  0  0  0  0  0  0  0  0  0  0  0
  -24.6090  -11.8030   20.8400 C   0  0  0  0  0  0  0  0  0  0  0  0
  -26.2740  -13.0220   20.2760 N   0  0  0  0  0  0  0  0  0  0  0  0
  -25.9060  -11.7490   20.5640 N   0  0  0  0  0  0  0  0  0  0  0  0
  -23.8680  -10.5510   21.0330 C   0  0  0  0  0  0  0  0  0  0  0  0
  -24.2860   -9.5860   21.9740 C   0  0  0  0  0  3  0  0  0  0  0  0
  -23.5470   -8.3980   22.1570 C   0  0  0  0  0  3  0  0  0  0  0  0
  -22.3750   -8.1680   21.3970 C   0  0  0  0  0  0  0  0  0  0  0  0
  -21.9770   -9.1220   20.4440 C   0  0  0  0  0  3  0  0  0  0  0  0
  -22.7170  -10.3010   20.2600 C   0  0  0  0  0  3  0  0  0  0  0  0
  -21.6070   -7.0320   21.4880 O   0  0  0  0  0  0  0  0  0  0  0  0
  -21.5590   -6.2880   22.6390 C   0  0  0  0  0  0  0  0  0  0  0  0
  -21.1700   -6.8500   23.8740 C   0  0  0  0  0  3  0  0  0  0  0  0
  -21.0670   -6.0340   25.0180 C   0  0  0  0  0  3  0  0  0  0  0  0
  -21.3410   -4.6550   24.9270 C   0  0  0  0  0  0  0  0  0  0  0  0
  -21.7230   -4.0930   23.6970 C   0  0  0  0  0  3  0  0  0  0  0  0
  -21.8280   -4.9070   22.5560 C   0  0  0  0  0  0  0  0  0  0  0  0
  -22.1760   -4.3560   21.3670 F   0  0  0  0  0  0  0  0  0  0  0  0
  -21.2360   -3.8680   26.0240 F   0  0  0  0  0  0  0  0  0  0  0  0
  -22.7560  -13.6520   21.0550 C   0  0  0  0  0  0  0  0  0  0  0  0
  -22.0020  -12.9830   21.9210 N   0  0  0  0  0  0  0  0  0  0  0  0
  -22.3390  -14.6660   20.4980 O   0  0  0  0  0  0  0  0  0  0  0  0
  -22.3520  -12.1640   22.3950 H   0  0  0  0  0  0  0  0  0  0  0  0
  -21.0610  -13.2970   22.1120 H   0  0  0  0  0  0  0  0  0  0  0  0
  -25.4140  -15.2820   20.2740 N   0  0  0  0  0  0  0  0  0  0  0  0
  -24.6520  -15.9450   20.3660 H   0  0  0  0  0  0  0  0  0  0  0  0
  -26.2760  -15.7120   19.9640 H   0  0  0  0  0  0  0  0  0  0  0  0
  -28.7490  -22.0570   19.7210 C   0  0  0  0  0  2  0  0  0  0  0  0
  -28.9370  -23.5080   20.4710 C   0  0  0  0  0  3  0  0  0  0  0  0
  -28.1380  -24.8230   19.8820 C   0  0  0  0  0  3  0  0  0  0  0  0
  -28.3450  -26.2920   20.2520 O   0  0  0  0  0  0  0  0  0  0  0  0
  -24.6210  -31.8470   23.1830 C   0  0  0  0  0  0  0  0  0  0  0  0
  -27.2710  -27.2290   20.1480 C   0  0  0  0  0  0  0  0  0  0  0  0
  -23.4460  -30.4470   21.5280 C   0  0  0  0  0  3  0  0  0  0  0  0
  -24.9210  -28.9080   20.1050 C   0  0  0  0  0  0  0  0  0  0  0  0
  -25.9940  -30.7530   21.3850 C   0  0  0  0  0  2  0  0  0  0  0  0
  -26.0860  -29.3720   20.7290 C   0  0  0  0  0  0  0  0  0  0  0  0
  -27.2600  -28.5440   20.7430 C   0  0  0  0  0  3  0  0  0  0  0  0
  -26.0880  -26.8630   19.4650 C   0  0  0  0  0  3  0  0  0  0  0  0
  -24.9300  -27.6640   19.4600 C   0  0  0  0  0  3  0  0  0  0  0  0
  -23.6820  -29.7840   20.1460 C   0  0  0  0  0  2  0  0  0  0  0  0
  -24.7060  -31.0350   22.0880 N   0  0  0  0  0  0  0  0  0  0  0  0
  -23.5280  -32.1180   23.7050 O   0  0  0  0  0  0  0  0  0  0  0  0
  -22.7750  -29.4240   22.4770 C   0  0  0  0  0  0  0  0  0  0  0  0
  -21.4450  -29.2670   22.3610 N   0  0  0  0  0  0  0  0  0  0  0  0
  -23.4510  -28.7770   23.2820 O   0  0  0  0  0  0  0  0  0  0  0  0
  -20.9570  -29.8400   21.6860 H   0  0  0  0  0  0  0  0  0  0  0  0
  -18.0540  -28.1140   22.8930 C   0  0  0  0  0  0  0  0  0  0  0  0
  -20.6210  -28.3270   23.1250 C   0  0  0  0  0  3  0  0  0  0  0  0
  -20.6900  -26.9060   22.5180 C   0  0  0  0  0  2  0  0  0  0  0  0
  -19.5660  -26.6230   21.5150 C   0  0  0  0  0  2  0  0  0  0  0  0
  -18.1970  -26.7770   22.1840 C   0  0  0  0  0  2  0  0  0  0  0  0
  -19.1920  -28.8490   23.3200 C   0  0  0  0  0  0  0  0  0  0  0  0
  -19.0030  -30.1000   23.9440 C   0  0  0  0  0  3  0  0  0  0  0  0
  -17.7100  -30.6180   24.1440 C   0  0  0  0  0  3  0  0  0  0  0  0
  -16.5870  -29.8810   23.7310 C   0  0  0  0  0  3  0  0  0  0  0  0
  -16.7590  -28.6310   23.1120 C   0  0  0  0  0  3  0  0  0  0  0  0
  -25.8890  -32.4890   23.8220 C   0  0  0  0  0  3  0  0  0  0  0  0
  -25.5600  -33.8810   24.1650 N   0  0  0  0  0  0  0  0  0  0  0  0
  -25.8740  -34.9460   23.4170 C   0  0  0  0  0  0  0  0  0  0  0  0
  -26.5400  -34.8620   22.3820 O   0  0  0  0  0  0  0  0  0  0  0  0
  -24.9650  -34.0170   24.9690 H   0  0  0  0  0  0  0  0  0  0  0  0
  -24.1110  -36.7150   23.1030 C   0  0  0  0  0  1  0  0  0  0  0  0
  -25.3710  -36.3240   23.8920 C   0  0  0  0  0  3  0  0  0  0  0  0
  -27.5050  -37.2370   24.6940 C   0  0  0  0  0  1  0  0  0  0  0  0
  -26.3850  -37.3950   23.7700 N   0  0  0  0  0  0  0  0  0  0  0  0
  -25.9660  -38.3070   23.9320 H   0  0  0  0  0  0  0  0  0  0  0  0
  -26.4020  -31.7130   25.0970 C   0  0  1  0  0  0  0  0  0  0  0  0
  -25.3020  -31.4590   26.1550 C   0  0  0  0  0  1  0  0  0  0  0  0
  -26.9990  -30.3420   24.7040 C   0  0  0  0  0  1  0  0  0  0  0  0
  -27.5410  -32.5110   25.7740 C   0  0  0  0  0  1  0  0  0  0  0  0
  1 16  1  0
  2  7  1  0
  3  4  1  0
  3  2  1  0
  5  4  1  0
  5 21  1  0
  5  6  1  0
  7  1  1  0
  7  6  1  0
  8  1  2  0
  9 17  2  0
  9 15  1  0
 10 16  1  0
 13 14  1  0
 13  9  1  0
 13 10  1  0
 14 11  1  0
 14 12  1  0
 15 11  1  0
 16 12  1  0
 18 19  2  0
 19 20  1  0
 19 38  1  0
 20 23  1  0
 21 18  1  0
 21 22  1  0
 22 20  2  0
 23 24  1  0
 24 25  2  0
 26 29  1  0
 26 25  1  0
 27 26  2  0
 28 27  1  0
 28 23  2  0
 29 30  1  0
 30 31  1  0
 31 32  2  0
 33 32  1  0
 33 37  1  0
 34 33  2  0
 35 30  2  0
 35 34  1  0
 36 35  1  0
 38 39  1  0
 39 42  1  0
 39 41  1  0
 40 38  2  0
 43 44  1  0
 43 18  1  0
 45 43  1  0
 46 15  1  0
 46 47  1  0
 48 49  1  0
 48 47  2  0
 50 61  2  0
 51 49  1  0
 51 56  1  0
 52 60  1  0
 52 62  1  0
 53 59  1  0
 53 55  1  0
 54 60  1  0
 55 56  2  0
 55 54  1  0
 57 51  2  0
 58 57  1  0
 58 53  2  0
 59 52  1  0
 60 50  1  0
 62 64  2  0
 63 62  1  0
 65 63  1  0
 66 75  2  0
 66 71  1  0
 67 63  1  0
 67 71  1  0
 68 67  1  0
 69 70  1  0
 69 68  1  0
 70 66  1  0
 71 72  2  0
 72 73  1  0
 74 73  2  0
 75 74  1  0
 76 50  1  0
 76 77  1  0
 76 86  1  0
 77 80  1  0
 78 82  1  0
 78 77  1  0
 79 78  2  0
 82 81  1  0
 84 82  1  0
 84 85  1  0
 84 83  1  0
 86 89  1  1
 86 87  1  0
 88 86  1  0
M  ISO  4   1 100  16 100  48 101  49 101
M  END
>  <TORSDO>  (93) 
F 18

>  <SCORE>  (93) 
-14.356

>  <name>  (93) 
92

>  <ligand_id>  (93) 
92

>  <original_smiles>  (93) 
[H]c1c([H])c([H])c2c(c1[H])C([H])([H])C([H])([H])C([H])([H])C2([H])N([H])C(=O)C1([H])N(C(=O)C([H])(N([H])C(=O)C([H])(N([H])C([H])([H])[H])C([H])([H])[H])C(C([H])([H])[H])(C([H])([H])[H])C([H])([H])[H])C([H])([H])c2c([H])c(OC([H])([H])C([H])([H])C([H])([H])N3C(=O)C4([H])C([H])([H])N(C(=O)N5C([H])([H])C([H])([H])C([H])([H])C([H])(n6nc(-c7c([H])c([H])c(Oc8c([H])c([H])c(F)c([H])c8F)c([H])c7[H])c(C(=O)N([H])[H])c6N([H])[H])C5([H])[H])C([H])([H])C4([H])C3([H])[H])c([H])c([H])c2C1([H])[H]

>  <smiles>  (93) 
[H]c1c([H])c([H])c2c(c1[H])C([H])([H])C([H])([H])C([H])([H])C2([H])N([H])C(=O)C1([H])N(C(=O)C([H])(N([H])C(=O)C([H])(N([H])C([H])([H])[H])C([H])([H])[H])C(C([H])([H])[H])(C([H])([H])[H])C([H])([H])[H])C([H])([H])c2c([H])c(OC([H])([H])C([H])([H])C([H])([H])N3C(=O)C4([H])C([H])([H])N(C(=O)N5C([H])([H])C([H])([H])C([H])([H])C([H])(n6nc(-c7c([H])c([H])c(Oc8c([H])c([H])c(F)c([H])c8F)c([H])c7[H])c(C(=O)N([H])[H])c6N([H])[H])C5([H])[H])C([H])([H])C4([H])C3([H])[H])c([H])c([H])c2C1([H])[H]

$$$$
93:0:0
     RDKit          3D

102112  0  0  1  0  0  0  0  0999 V2000
  -29.3550  -22.7200   21.1500 C   0  0  0  0  0  2  0  0  0  0  0  0
  -29.9360  -22.3030   18.8660 C   0  0  0  0  0  3  0  0  0  0  0  0
  -29.3910  -24.1150   20.4250 C   0  0  0  0  0  3  0  0  0  0  0  0
  -29.2280  -23.7160   18.9420 C   0  0  2  0  0  0  0  0  0  0  0  0
  -27.7300  -23.6240   18.5210 C   0  0  0  0  0  1  0  0  0  0  0  0
  -29.9440  -24.7790   18.0670 C   0  0  0  0  0  1  0  0  0  0  0  0
  -29.7920  -21.6360   20.1970 N   0  0  1  0  0  4  0  0  0  0  0  0
  -28.9800  -21.0530   20.0950 H   0  0  0  0  0  0  0  0  0  0  0  0
  -28.1470  -20.7510   17.8770 C   0  0  0  0  0  3  0  0  0  0  0  0
  -29.6070  -20.3740   15.5220 C   0  0  0  0  0  3  0  0  0  0  0  0
  -29.4060  -21.3950   17.7390 C   0  0  0  0  0  0  0  0  0  0  0  0
  -27.6080  -19.9570   16.8450 C   0  0  0  0  0  0  0  0  0  0  0  0
  -30.1230  -21.2210   16.5240 C   0  0  0  0  0  0  0  0  0  0  0  0
  -28.3620  -19.7370   15.6730 C   0  0  0  0  0  0  0  0  0  0  0  0
  -26.2040  -19.3840   16.9870 C   0  0  0  0  0  1  0  0  0  0  0  0
  -31.4360  -21.9340   16.2320 C   0  0  0  0  0  1  0  0  0  0  0  0
  -27.8470  -18.8400   14.5620 C   0  0  0  0  0  1  0  0  0  0  0  0
  -30.9020  -20.6760   20.6310 C   0  0  0  0  0  2  0  0  0  0  0  0
  -31.2780  -14.9990   21.1110 C   0  0  0  0  0  0  0  0  0  0  0  0
  -31.0650  -12.7370   20.0520 C   0  0  0  0  0  2  0  0  0  0  0  0
  -30.3060  -12.7960   18.7120 C   0  0  0  0  0  2  0  0  0  0  0  0
  -28.7870  -12.6740   18.9460 C   0  0  0  0  0  2  0  0  0  0  0  0
  -28.2950  -13.6450   20.0400 C   0  0  0  0  0  3  0  0  0  0  0  0
  -29.1730  -13.5760   21.3060 C   0  0  0  0  0  2  0  0  0  0  0  0
  -30.5630  -13.8390   20.9100 N   0  0  0  0  0  0  0  0  0  0  0  0
  -32.4920  -14.9970   20.8780 O   0  0  0  0  0  0  0  0  0  0  0  0
  -31.6870  -18.4970   21.9580 C   0  0  0  0  0  2  0  0  0  0  0  0
  -29.7960  -18.2630   20.4060 C   0  0  0  0  0  2  0  0  0  0  0  0
  -31.3350  -17.0790   22.5500 C   0  0  0  0  0  2  0  0  0  0  0  0
  -29.4820  -16.8800   21.0740 C   0  0  0  0  0  2  0  0  0  0  0  0
  -30.4900  -19.2920   21.3420 C   0  0  0  0  0  3  0  0  0  0  0  0
  -30.6680  -16.1550   21.5980 N   0  0  0  0  0  0  0  0  0  0  0  0
  -25.8920  -14.4330   20.4660 C   0  0  0  0  0  0  0  0  0  0  0  0
  -24.7360  -13.7400   20.7100 C   0  0  0  0  0  0  0  0  0  0  0  0
  -25.1100  -12.3640   20.7620 C   0  0  0  0  0  0  0  0  0  0  0  0
  -26.8890  -13.4760   20.3680 N   0  0  0  0  0  0  0  0  0  0  0  0
  -26.4190  -12.2290   20.6170 N   0  0  0  0  0  0  0  0  0  0  0  0
  -24.2860  -11.1570   20.8860 C   0  0  0  0  0  0  0  0  0  0  0  0
  -24.5650  -10.1700   21.8560 C   0  0  0  0  0  3  0  0  0  0  0  0
  -23.7470   -9.0250   21.9620 C   0  0  0  0  0  3  0  0  0  0  0  0
  -22.6400   -8.8610   21.0970 C   0  0  0  0  0  0  0  0  0  0  0  0
  -22.3820   -9.8360   20.1190 C   0  0  0  0  0  3  0  0  0  0  0  0
  -23.1990  -10.9730   20.0100 C   0  0  0  0  0  3  0  0  0  0  0  0
  -21.8020   -7.7720   21.1130 O   0  0  0  0  0  0  0  0  0  0  0  0
  -21.6200   -7.0210   22.2450 C   0  0  0  0  0  0  0  0  0  0  0  0
  -21.1560   -7.5930   23.4500 C   0  0  0  0  0  3  0  0  0  0  0  0
  -20.9140   -6.7750   24.5680 C   0  0  0  0  0  3  0  0  0  0  0  0
  -21.1270   -5.3850   24.4860 C   0  0  0  0  0  0  0  0  0  0  0  0
  -21.5900   -4.8130   23.2880 C   0  0  0  0  0  3  0  0  0  0  0  0
  -21.8330   -5.6300   22.1700 C   0  0  0  0  0  0  0  0  0  0  0  0
  -22.2570   -5.0720   21.0100 F   0  0  0  0  0  0  0  0  0  0  0  0
  -20.8870   -4.5980   25.5600 F   0  0  0  0  0  0  0  0  0  0  0  0
  -23.3510  -14.3110   20.7920 C   0  0  0  0  0  0  0  0  0  0  0  0
  -22.4890  -13.6920   21.5940 N   0  0  0  0  0  0  0  0  0  0  0  0
  -23.0420  -15.3330   20.1860 O   0  0  0  0  0  0  0  0  0  0  0  0
  -22.7580  -12.8630   22.1010 H   0  0  0  0  0  0  0  0  0  0  0  0
  -21.5520  -14.0520   21.7010 H   0  0  0  0  0  0  0  0  0  0  0  0
  -26.1540  -15.7880   20.3000 N   0  0  0  0  0  0  0  0  0  0  0  0
  -25.4130  -16.4800   20.3450 H   0  0  0  0  0  0  0  0  0  0  0  0
  -27.0510  -16.1910   20.0690 H   0  0  0  0  0  0  0  0  0  0  0  0
  -28.4480  -25.2800   20.9780 C   0  0  0  0  0  2  0  0  0  0  0  0
  -28.5850  -26.6430   20.4420 O   0  0  0  0  0  0  0  0  0  0  0  0
  -24.5990  -31.8850   23.3320 C   0  0  0  0  0  0  0  0  0  0  0  0
  -27.4390  -27.4320   20.3860 C   0  0  0  0  0  0  0  0  0  0  0  0
  -23.4880  -30.4530   21.6530 C   0  0  0  0  0  3  0  0  0  0  0  0
  -25.0240  -28.9420   20.2870 C   0  0  0  0  0  0  0  0  0  0  0  0
  -26.0160  -30.8480   21.5570 C   0  0  0  0  0  2  0  0  0  0  0  0
  -26.1530  -29.4690   20.9290 C   0  0  0  0  0  0  0  0  0  0  0  0
  -27.3600  -28.7200   20.9840 C   0  0  0  0  0  3  0  0  0  0  0  0
  -26.3080  -26.9750   19.6770 C   0  0  0  0  0  3  0  0  0  0  0  0
  -25.1020  -27.6960   19.6500 C   0  0  0  0  0  3  0  0  0  0  0  0
  -23.7590  -29.7720   20.2860 C   0  0  0  0  0  2  0  0  0  0  0  0
  -24.7180  -31.0780   22.2370 N   0  0  0  0  0  0  0  0  0  0  0  0
  -23.4920  -32.1360   23.8260 O   0  0  0  0  0  0  0  0  0  0  0  0
  -22.8190  -29.4260   22.5940 C   0  0  0  0  0  0  0  0  0  0  0  0
  -21.4990  -29.2290   22.4280 N   0  0  0  0  0  0  0  0  0  0  0  0
  -23.4850  -28.8040   23.4270 O   0  0  0  0  0  0  0  0  0  0  0  0
  -21.0260  -29.7770   21.7250 H   0  0  0  0  0  0  0  0  0  0  0  0
  -18.1150  -28.0450   22.8850 C   0  0  0  0  0  0  0  0  0  0  0  0
  -20.6710  -28.2800   23.1750 C   0  0  0  0  0  3  0  0  0  0  0  0
  -20.7690  -26.8610   22.5680 C   0  0  0  0  0  2  0  0  0  0  0  0
  -19.6700  -26.5670   21.5430 C   0  0  0  0  0  2  0  0  0  0  0  0
  -18.2860  -26.7090   22.1820 C   0  0  0  0  0  2  0  0  0  0  0  0
  -19.2350  -28.7910   23.3360 C   0  0  0  0  0  0  0  0  0  0  0  0
  -19.0210  -30.0430   23.9500 C   0  0  0  0  0  3  0  0  0  0  0  0
  -17.7180  -30.5470   24.1240 C   0  0  0  0  0  3  0  0  0  0  0  0
  -16.6110  -29.7960   23.6880 C   0  0  0  0  0  3  0  0  0  0  0  0
  -16.8100  -28.5490   23.0710 C   0  0  0  0  0  3  0  0  0  0  0  0
  -25.8430  -32.5460   23.9960 C   0  0  0  0  0  3  0  0  0  0  0  0
  -26.3080  -31.8090   25.3110 C   0  0  1  0  0  0  0  0  0  0  0  0
  -25.1650  -31.5440   26.3180 C   0  0  0  0  0  1  0  0  0  0  0  0
  -26.9570  -30.4460   24.9710 C   0  0  0  0  0  1  0  0  0  0  0  0
  -27.3990  -32.6430   26.0190 C   0  0  0  0  0  1  0  0  0  0  0  0
  -25.5030  -33.9470   24.2770 N   0  0  0  0  0  0  0  0  0  0  0  0
  -25.8640  -34.9870   23.5120 C   0  0  0  0  0  0  0  0  0  0  0  0
  -26.5850  -34.8680   22.5170 O   0  0  0  0  0  0  0  0  0  0  0  0
  -24.8670  -34.1120   25.0430 H   0  0  0  0  0  0  0  0  0  0  0  0
  -24.1340  -36.7460   23.0300 C   0  0  0  0  0  1  0  0  0  0  0  0
  -25.3380  -36.3790   23.9130 C   0  0  0  0  0  3  0  0  0  0  0  0
  -27.4240  -37.3040   24.8150 C   0  0  0  0  0  1  0  0  0  0  0  0
  -26.3630  -37.4440   23.8230 N   0  0  0  0  0  0  0  0  0  0  0  0
  -25.9410  -38.3610   23.9390 H   0  0  0  0  0  0  0  0  0  0  0  0
  2 11  1  0
  2  4  1  0
  2  7  1  0
  3 61  1  0
  3  1  1  0
  4  3  1  0
  4  5  1  6
  6  4  1  0
  7 18  1  0
  7  1  1  0
  7  8  1  6
 10 14  2  0
 10 13  1  0
 11  9  1  0
 12 15  1  0
 12  9  2  0
 13 11  2  0
 14 12  1  0
 16 13  1  0
 17 14  1  0
 19 32  1  0
 20 25  1  0
 21 22  1  0
 21 20  1  0
 23 22  1  0
 23 36  1  0
 23 24  1  0
 25 19  1  0
 25 24  1  0
 26 19  2  0
 27 29  1  0
 28 30  1  0
 28 31  1  0
 30 32  1  0
 31 18  1  0
 31 27  1  0
 32 29  1  0
 33 34  2  0
 34 35  1  0
 34 53  1  0
 35 38  1  0
 36 33  1  0
 36 37  1  0
 37 35  2  0
 38 39  1  0
 39 40  2  0
 41 44  1  0
 41 40  1  0
 42 41  2  0
 43 42  1  0
 43 38  2  0
 44 45  1  0
 45 46  1  0
 46 47  2  0
 48 47  1  0
 48 52  1  0
 49 48  2  0
 50 45  2  0
 50 49  1  0
 51 50  1  0
 53 54  1  0
 54 57  1  0
 54 56  1  0
 55 53  2  0
 58 59  1  0
 58 33  1  0
 60 58  1  0
 62 61  1  0
 63 74  2  0
 64 62  1  0
 64 69  1  0
 65 73  1  0
 65 75  1  0
 66 68  1  0
 67 73  1  0
 68 69  2  0
 68 67  1  0
 70 64  2  0
 71 70  1  0
 71 66  2  0
 72 66  1  0
 72 65  1  0
 73 63  1  0
 75 77  2  0
 76 75  1  0
 78 76  1  0
 79 88  2  0
 79 84  1  0
 80 76  1  0
 80 84  1  0
 81 80  1  0
 82 83  1  0
 82 81  1  0
 83 79  1  0
 84 85  2  0
 85 86  1  0
 87 86  2  0
 88 87  1  0
 89 63  1  0
 89 94  1  0
 89 90  1  0
 90 93  1  1
 90 91  1  0
 92 90  1  0
 94 97  1  0
 95 99  1  0
 95 94  1  0
 96 95  2  0
 99 98  1  0
101 99  1  0
101102  1  0
101100  1  0
M  ISO  4  19 100  32 100  61 101  62 101
M  END
>  <TORSDO>  (94) 
F 19

>  <SCORE>  (94) 
-11.613

>  <name>  (94) 
93

>  <ligand_id>  (94) 
93

>  <original_smiles>  (94) 
[H]c1c([H])c([H])c2c(c1[H])C([H])([H])C([H])([H])C([H])([H])C2([H])N([H])C(=O)C1([H])N(C(=O)C([H])(N([H])C(=O)C([H])(N([H])C([H])([H])[H])C([H])([H])[H])C(C([H])([H])[H])(C([H])([H])[H])C([H])([H])[H])C([H])([H])c2c([H])c(OC([H])([H])C3([H])C(C([H])([H])[H])(C([H])([H])[H])C([H])(c4c([H])c(C([H])([H])[H])c(C([H])([H])[H])c([H])c4C([H])([H])[H])[N+]([H])(C([H])([H])C4([H])C([H])([H])C([H])([H])N(C(=O)N5C([H])([H])C([H])([H])C([H])([H])C([H])(n6nc(-c7c([H])c([H])c(Oc8c([H])c([H])c(F)c([H])c8F)c([H])c7[H])c(C(=O)N([H])[H])c6N([H])[H])C5([H])[H])C([H])([H])C4([H])[H])C3([H])[H])c([H])c([H])c2C1([H])[H]

>  <smiles>  (94) 
[H]c1c([H])c([H])c2c(c1[H])C([H])([H])C([H])([H])C([H])([H])C2([H])N([H])C(=O)C1([H])N(C(=O)C([H])(N([H])C(=O)C([H])(N([H])C([H])([H])[H])C([H])([H])[H])C(C([H])([H])[H])(C([H])([H])[H])C([H])([H])[H])C([H])([H])c2c([H])c(OC([H])([H])C3([H])C(C([H])([H])[H])(C([H])([H])[H])C([H])(c4c([H])c(C([H])([H])[H])c(C([H])([H])[H])c([H])c4C([H])([H])[H])[N+]([H])(C([H])([H])C4([H])C([H])([H])C([H])([H])N(C(=O)N5C([H])([H])C([H])([H])C([H])([H])C([H])(n6nc(-c7c([H])c([H])c(Oc8c([H])c([H])c(F)c([H])c8F)c([H])c7[H])c(C(=O)N([H])[H])c6N([H])[H])C5([H])[H])C([H])([H])C4([H])[H])C3([H])[H])c([H])c([H])c2C1([H])[H]

$$$$
94:0:0
     RDKit          3D

 95101  0  0  1  0  0  0  0  0999 V2000
  -29.4050  -15.1150   19.0080 C   0  0  0  0  0  2  0  0  0  0  0  0
  -28.4170  -16.3220   19.2800 C   0  0  0  0  0  3  0  0  0  0  0  0
  -30.5140  -16.1570   18.8120 C   0  0  0  0  0  3  0  0  0  0  0  0
  -28.4980  -17.7480   18.8270 C   0  0  0  0  0  3  0  0  0  0  0  0
  -30.5900  -17.5210   19.4780 C   0  0  0  0  0  3  0  0  0  0  0  0
  -29.5960  -18.5760   19.2340 C   0  0  0  0  0  3  0  0  0  0  0  0
  -29.2310  -12.4240   19.2450 C   0  0  0  0  0  2  0  0  0  0  0  0
  -27.3240  -16.4350   20.3880 C   0  0  0  0  0  1  0  0  0  0  0  0
  -31.1040  -16.3230   17.4060 C   0  0  0  0  0  1  0  0  0  0  0  0
  -27.2990  -18.4030   18.1660 C   0  0  0  0  0  1  0  0  0  0  0  0
  -31.4490  -17.6670   20.7360 C   0  0  0  0  0  2  0  0  0  0  0  0
  -30.6510  -17.4560   22.0790 C   0  0  0  0  0  2  0  0  0  0  0  0
  -30.8970  -15.0170   21.8550 C   0  0  0  0  0  0  0  0  0  0  0  0
  -30.9140  -13.4960   19.8640 C   0  0  0  0  0  1  0  0  0  0  0  0
  -29.7300  -13.0660   18.3460 C   0  0  0  0  0  1  0  0  0  0  0  0
  -27.7840  -12.9710   18.6360 C   0  0  0  0  0  2  0  0  0  0  0  0
  -27.1070  -13.3820   20.4250 C   0  0  0  0  0  2  0  0  0  0  0  0
  -28.4490  -13.7780   21.9420 C   0  0  0  0  0  1  0  0  0  0  0  0
  -30.2130  -13.9330   21.5060 N   0  0  0  0  0  0  0  0  0  0  0  0
  -32.0450  -15.1710   21.4670 O   0  0  0  0  0  0  0  0  0  0  0  0
  -30.2290  -16.0660   22.3430 N   0  0  0  0  0  0  0  0  0  0  0  0
  -29.2600  -15.9240   22.5820 H   0  0  0  0  0  0  0  0  0  0  0  0
  -24.7780  -13.6200   20.9990 C   0  0  0  0  0  0  0  0  0  0  0  0
  -23.8250  -12.7190   21.2500 C   0  0  0  0  0  0  0  0  0  0  0  0
  -24.4480  -11.4340   21.1830 C   0  0  0  0  0  0  0  0  0  0  0  0
  -25.9080  -12.8570   20.8280 N   0  0  0  0  0  0  0  0  0  0  0  0
  -25.7460  -11.5330   20.9590 N   0  0  0  0  0  0  0  0  0  0  0  0
  -23.8460  -10.1190   21.2400 C   0  0  0  0  0  0  0  0  0  0  0  0
  -24.3030   -9.1370   22.1410 C   0  0  0  0  0  3  0  0  0  0  0  0
  -23.6470   -7.8930   22.2050 C   0  0  0  0  0  3  0  0  0  0  0  0
  -22.5340   -7.6340   21.3680 C   0  0  0  0  0  0  0  0  0  0  0  0
  -22.1090   -8.6140   20.4530 C   0  0  0  0  0  3  0  0  0  0  0  0
  -22.7650   -9.8480   20.3850 C   0  0  0  0  0  3  0  0  0  0  0  0
  -21.8390   -6.4530   21.3530 O   0  0  0  0  0  0  0  0  0  0  0  0
  -21.7130   -5.6890   22.4820 C   0  0  0  0  0  0  0  0  0  0  0  0
  -21.0010   -6.1350   23.6150 C   0  0  0  0  0  3  0  0  0  0  0  0
  -20.8370   -5.2780   24.7210 C   0  0  0  0  0  3  0  0  0  0  0  0
  -21.3780   -3.9780   24.6920 C   0  0  0  0  0  0  0  0  0  0  0  0
  -22.0850   -3.5340   23.5600 C   0  0  0  0  0  3  0  0  0  0  0  0
  -22.2470   -4.3870   22.4550 C   0  0  0  0  0  0  0  0  0  0  0  0
  -22.9060   -3.9470   21.3550 F   0  0  0  0  0  0  0  0  0  0  0  0
  -21.2150   -3.1520   25.7510 F   0  0  0  0  0  0  0  0  0  0  0  0
  -22.4010  -13.0870   21.4260 C   0  0  0  0  0  0  0  0  0  0  0  0
  -21.6830  -12.3120   22.2180 N   0  0  0  0  0  0  0  0  0  0  0  0
  -21.9430  -14.1150   20.9210 O   0  0  0  0  0  0  0  0  0  0  0  0
  -22.0950  -11.5060   22.6680 H   0  0  0  0  0  0  0  0  0  0  0  0
  -20.7120  -12.5300   22.3870 H   0  0  0  0  0  0  0  0  0  0  0  0
  -24.7110  -15.0060   20.8490 N   0  0  0  0  0  0  0  0  0  0  0  0
  -23.8310  -15.5080   20.8510 H   0  0  0  0  0  0  0  0  0  0  0  0
  -25.5200  -15.5960   20.6990 H   0  0  0  0  0  0  0  0  0  0  0  0
  -29.7130  -20.0770   19.4890 O   0  0  0  0  0  0  0  0  0  0  0  0
  -28.7720  -21.3880   19.3610 C   0  0  0  0  0  3  0  0  0  0  0  0
  -29.1210  -23.1030   19.7260 C   0  0  0  0  0  3  0  0  0  0  0  0
  -28.1740  -24.6170   19.6710 C   0  0  0  0  0  2  0  0  0  0  0  0
  -28.4570  -26.1890   20.0440 O   0  0  0  0  0  0  0  0  0  0  0  0
  -24.7890  -32.0020   23.2640 C   0  0  0  0  0  0  0  0  0  0  0  0
  -27.4380  -27.2650   20.0910 C   0  0  0  0  0  0  0  0  0  0  0  0
  -23.6330  -30.6210   21.5910 C   0  0  0  0  0  3  0  0  0  0  0  0
  -25.1110  -29.0840   20.1430 C   0  0  0  0  0  0  0  0  0  0  0  0
  -26.1990  -30.8860   21.4650 C   0  0  0  0  0  2  0  0  0  0  0  0
  -26.2950  -29.4960   20.7680 C   0  0  0  0  0  0  0  0  0  0  0  0
  -27.4580  -28.6010   20.7270 C   0  0  0  0  0  3  0  0  0  0  0  0
  -26.2090  -26.9920   19.4630 C   0  0  0  0  0  3  0  0  0  0  0  0
  -25.0880  -27.8490   19.4830 C   0  0  0  0  0  3  0  0  0  0  0  0
  -23.8780  -29.9790   20.2020 C   0  0  0  0  0  2  0  0  0  0  0  0
  -24.8960  -31.1970   22.1600 N   0  0  0  0  0  0  0  0  0  0  0  0
  -23.6890  -32.2570   23.7810 O   0  0  0  0  0  0  0  0  0  0  0  0
  -22.9580  -29.5840   22.5290 C   0  0  0  0  0  0  0  0  0  0  0  0
  -21.6410  -29.3630   22.3630 N   0  0  0  0  0  0  0  0  0  0  0  0
  -23.6240  -28.9810   23.3740 O   0  0  0  0  0  0  0  0  0  0  0  0
  -21.1570  -29.9030   21.6560 H   0  0  0  0  0  0  0  0  0  0  0  0
  -18.2760  -28.0820   22.8400 C   0  0  0  0  0  0  0  0  0  0  0  0
  -20.8330  -28.3860   23.1010 C   0  0  0  0  0  3  0  0  0  0  0  0
  -20.9550  -26.9760   22.4790 C   0  0  0  0  0  2  0  0  0  0  0  0
  -19.8510  -26.6660   21.4610 C   0  0  0  0  0  2  0  0  0  0  0  0
  -18.4710  -26.7620   22.1170 C   0  0  0  0  0  2  0  0  0  0  0  0
  -19.3830  -28.8520   23.2900 C   0  0  0  0  0  0  0  0  0  0  0  0
  -19.1380  -30.0850   23.9320 C   0  0  0  0  0  3  0  0  0  0  0  0
  -17.8240  -30.5490   24.1280 C   0  0  0  0  0  3  0  0  0  0  0  0
  -16.7330  -29.7770   23.6880 C   0  0  0  0  0  3  0  0  0  0  0  0
  -16.9610  -28.5450   23.0500 C   0  0  0  0  0  3  0  0  0  0  0  0
  -26.0380  -32.6580   23.9230 C   0  0  0  0  0  3  0  0  0  0  0  0
  -25.6960  -34.0520   24.2490 N   0  0  0  0  0  0  0  0  0  0  0  0
  -25.9770  -35.1120   23.4780 C   0  0  0  0  0  0  0  0  0  0  0  0
  -26.6140  -35.0180   22.4260 O   0  0  0  0  0  0  0  0  0  0  0  0
  -25.1250  -34.1940   25.0680 H   0  0  0  0  0  0  0  0  0  0  0  0
  -24.1890  -36.8590   23.1890 C   0  0  0  0  0  1  0  0  0  0  0  0
  -25.4760  -36.4930   23.9460 C   0  0  0  0  0  3  0  0  0  0  0  0
  -27.6060  -37.4550   24.7010 C   0  0  0  0  0  1  0  0  0  0  0  0
  -26.4790  -37.5700   23.7800 N   0  0  0  0  0  0  0  0  0  0  0  0
  -26.0530  -38.4850   23.9070 H   0  0  0  0  0  0  0  0  0  0  0  0
  -26.5210  -31.8990   25.2200 C   0  0  1  0  0  0  0  0  0  0  0  0
  -25.3910  -31.6300   26.2420 C   0  0  0  0  0  1  0  0  0  0  0  0
  -27.1540  -30.5370   24.8590 C   0  0  0  0  0  1  0  0  0  0  0  0
  -27.6320  -32.7220   25.9180 C   0  0  0  0  0  1  0  0  0  0  0  0
  1  2  1  0
  2  8  1  0
  3  9  1  0
  3  1  1  0
  3  5  1  0
  4 10  1  0
  4  6  1  0
  4  2  1  0
  5 11  1  0
  6  5  1  0
  6 51  1  0
 11 12  1  0
 12 21  1  0
 13 21  1  0
 14 19  1  0
 15  7  1  0
 16  7  1  0
 16 17  1  0
 17 26  1  0
 19 13  1  0
 19 18  1  0
 20 13  2  0
 21 22  1  0
 23 24  2  0
 24 43  1  0
 25 28  1  0
 25 24  1  0
 26 27  1  0
 26 23  1  0
 27 25  2  0
 28 29  1  0
 29 30  2  0
 31 30  1  0
 32 31  2  0
 33 32  1  0
 33 28  2  0
 34 31  1  0
 34 35  1  0
 35 36  1  0
 36 37  2  0
 38 37  1  0
 38 42  1  0
 39 38  2  0
 40 35  2  0
 40 39  1  0
 41 40  1  0
 43 44  1  0
 44 47  1  0
 44 46  1  0
 45 43  2  0
 48 49  1  0
 48 23  1  0
 50 48  1  0
 52 51  1  0
 52 53  2  0
 54 53  1  0
 54 55  1  0
 55 57  1  0
 56 67  2  0
 57 62  1  0
 58 66  1  0
 58 68  1  0
 59 65  1  0
 59 61  1  0
 60 66  1  0
 61 60  1  0
 62 61  2  0
 63 64  1  0
 63 57  2  0
 64 59  2  0
 65 58  1  0
 66 56  1  0
 68 70  2  0
 69 68  1  0
 71 69  1  0
 72 81  2  0
 72 77  1  0
 73 69  1  0
 73 77  1  0
 74 73  1  0
 75 76  1  0
 75 74  1  0
 76 72  1  0
 77 78  2  0
 78 79  1  0
 80 79  2  0
 81 80  1  0
 82 56  1  0
 82 83  1  0
 82 92  1  0
 83 86  1  0
 84 88  1  0
 84 83  1  0
 85 84  2  0
 88 87  1  0
 90 91  1  0
 90 88  1  0
 90 89  1  0
 92 95  1  1
 92 93  1  0
 94 92  1  0
M  ISO  4  13 100  21 100  54 101  55 101
M  END
>  <TORSDO>  (95) 
F 22

>  <SCORE>  (95) 
-11.948

>  <name>  (95) 
94

>  <ligand_id>  (95) 
94

>  <original_smiles>  (95) 
[H]c1c([H])c([H])c2c(c1[H])C([H])([H])C([H])([H])C([H])([H])C2([H])N([H])C(=O)C1([H])N(C(=O)C([H])(N([H])C(=O)C([H])(N([H])C([H])([H])[H])C([H])([H])[H])C(C([H])([H])[H])(C([H])([H])[H])C([H])([H])[H])C([H])([H])c2c([H])c(OC([H])([H])C([H])([H])C([H])([H])Oc3c(C([H])([H])[H])c(C([H])([H])[H])c(C([H])([H])[H])c(C([H])([H])[H])c3C([H])([H])C([H])([H])N([H])C(=O)N3C([H])([H])C([H])([H])C([H])([H])C([H])(n4nc(-c5c([H])c([H])c(Oc6c([H])c([H])c(F)c([H])c6F)c([H])c5[H])c(C(=O)N([H])[H])c4N([H])[H])C3([H])[H])c([H])c([H])c2C1([H])[H]

>  <smiles>  (95) 
[H]c1c([H])c([H])c2c(c1[H])C([H])([H])C([H])([H])C([H])([H])C2([H])N([H])C(=O)C1([H])N(C(=O)C([H])(N([H])C(=O)C([H])(N([H])C([H])([H])[H])C([H])([H])[H])C(C([H])([H])[H])(C([H])([H])[H])C([H])([H])[H])C([H])([H])c2c([H])c(OC([H])([H])C([H])([H])C([H])([H])Oc3c(C([H])([H])[H])c(C([H])([H])[H])c(C([H])([H])[H])c(C([H])([H])[H])c3C([H])([H])C([H])([H])N([H])C(=O)N3C([H])([H])C([H])([H])C([H])([H])C([H])(n4nc(-c5c([H])c([H])c(Oc6c([H])c([H])c(F)c([H])c6F)c([H])c5[H])c(C(=O)N([H])[H])c4N([H])[H])C3([H])[H])c([H])c([H])c2C1([H])[H]

$$$$
95:0:0
     RDKit          3D

 99108  0  0  1  0  0  0  0  0999 V2000
  -30.6500  -22.4350   21.9870 C   0  0  0  0  0  2  0  0  0  0  0  0
  -31.1900  -21.1400   21.3620 C   0  0  0  0  0  2  0  0  0  0  0  0
  -29.2320  -21.0950   19.8120 C   0  0  0  0  0  2  0  0  0  0  0  0
  -28.6560  -22.3640   20.4560 C   0  0  0  0  0  3  0  0  0  0  0  0
  -29.8340  -23.2280   20.9510 C   0  0  0  0  0  3  0  0  0  0  0  0
  -27.7500  -23.1060   19.4540 C   0  0  0  0  0  1  0  0  0  0  0  0
  -30.1230  -20.3690   20.7230 N   0  0  0  0  0  0  0  0  0  0  0  0
  -31.8740  -18.2900   18.2030 C   0  0  0  0  0  3  0  0  0  0  0  0
  -31.4960  -19.3910   18.9760 C   0  0  0  0  0  3  0  0  0  0  0  0
  -31.4380  -17.0000   18.5490 C   0  0  0  0  0  0  0  0  0  0  0  0
  -30.2290  -17.9310   20.4780 C   0  0  0  0  0  0  0  0  0  0  0  0
  -30.6260  -19.2310   20.0760 C   0  0  0  0  0  0  0  0  0  0  0  0
  -30.6880  -16.8030   19.7470 C   0  0  0  0  0  0  0  0  0  0  0  0
  -31.7250  -15.8980   17.5400 C   0  0  0  0  0  1  0  0  0  0  0  0
  -29.2860  -17.7430   21.6660 C   0  0  0  0  0  1  0  0  0  0  0  0
  -31.0920  -14.4200   20.2530 C   0  0  0  0  0  0  0  0  0  0  0  0
  -30.7080  -12.2970   19.1340 C   0  0  0  0  0  2  0  0  0  0  0  0
  -29.7640  -12.5900   17.9480 C   0  0  0  0  0  2  0  0  0  0  0  0
  -28.2880  -12.5260   18.3860 C   0  0  0  0  0  2  0  0  0  0  0  0
  -28.0010  -13.3300   19.6820 C   0  0  0  0  0  3  0  0  0  0  0  0
  -29.0620  -13.0450   20.7720 C   0  0  0  0  0  2  0  0  0  0  0  0
  -30.3930  -13.2650   20.1870 N   0  0  0  0  0  0  0  0  0  0  0  0
  -32.3060  -14.5040   20.0570 O   0  0  0  0  0  0  0  0  0  0  0  0
  -30.3040  -15.5050   20.1930 N   0  0  0  0  0  0  0  0  0  0  0  0
  -29.3320  -15.3650   20.4170 H   0  0  0  0  0  0  0  0  0  0  0  0
  -25.6220  -14.0000   20.3960 C   0  0  0  0  0  0  0  0  0  0  0  0
  -24.5380  -13.2530   20.7690 C   0  0  0  0  0  0  0  0  0  0  0  0
  -24.9720  -11.8920   20.7490 C   0  0  0  0  0  0  0  0  0  0  0  0
  -26.6460  -13.0930   20.1710 N   0  0  0  0  0  0  0  0  0  0  0  0
  -26.2590  -11.8230   20.4440 N   0  0  0  0  0  0  0  0  0  0  0  0
  -24.2230  -10.6470   20.9430 C   0  0  0  0  0  0  0  0  0  0  0  0
  -24.6190   -9.6860   21.9000 C   0  0  0  0  0  3  0  0  0  0  0  0
  -23.8690   -8.5030   22.0770 C   0  0  0  0  0  3  0  0  0  0  0  0
  -22.7100   -8.2730   21.2970 C   0  0  0  0  0  0  0  0  0  0  0  0
  -22.3350   -9.2230   20.3310 C   0  0  0  0  0  3  0  0  0  0  0  0
  -23.0860  -10.3960   20.1500 C   0  0  0  0  0  3  0  0  0  0  0  0
  -21.9340   -7.1430   21.3860 O   0  0  0  0  0  0  0  0  0  0  0  0
  -21.8050   -6.4480   22.5600 C   0  0  0  0  0  0  0  0  0  0  0  0
  -21.3040   -7.0530   23.7330 C   0  0  0  0  0  3  0  0  0  0  0  0
  -21.1230   -6.2840   24.9000 C   0  0  0  0  0  3  0  0  0  0  0  0
  -21.4310   -4.9100   24.8930 C   0  0  0  0  0  0  0  0  0  0  0  0
  -21.9240   -4.3040   23.7250 C   0  0  0  0  0  3  0  0  0  0  0  0
  -22.1060   -5.0710   22.5610 C   0  0  0  0  0  0  0  0  0  0  0  0
  -22.5630   -4.4770   21.4300 F   0  0  0  0  0  0  0  0  0  0  0  0
  -21.2520   -4.1680   26.0120 F   0  0  0  0  0  0  0  0  0  0  0  0
  -23.1510  -13.7610   21.0340 C   0  0  0  0  0  0  0  0  0  0  0  0
  -22.4130  -13.0940   21.9130 N   0  0  0  0  0  0  0  0  0  0  0  0
  -22.7290  -14.7850   20.4960 O   0  0  0  0  0  0  0  0  0  0  0  0
  -22.7680  -12.2650   22.3680 H   0  0  0  0  0  0  0  0  0  0  0  0
  -21.4790  -13.4120   22.1310 H   0  0  0  0  0  0  0  0  0  0  0  0
  -25.8170  -15.3670   20.2110 N   0  0  0  0  0  0  0  0  0  0  0  0
  -25.0540  -16.0280   20.3010 H   0  0  0  0  0  0  0  0  0  0  0  0
  -26.6630  -15.7930   19.8550 H   0  0  0  0  0  0  0  0  0  0  0  0
  -29.3510  -24.5150   21.4910 N   0  0  0  0  0  4  0  0  0  0  0  0
  -29.1090  -24.4270   22.4660 H   0  0  0  0  0  0  0  0  0  0  0  0
  -28.5020  -24.7170   20.9830 H   0  0  0  0  0  0  0  0  0  0  0  0
  -30.2430  -25.6750   21.2550 C   0  0  0  0  0  2  0  0  0  0  0  0
  -29.4080  -26.9490   21.0990 C   0  0  0  0  0  2  0  0  0  0  0  0
  -28.4340  -26.7040   20.0780 O   0  0  0  0  0  0  0  0  0  0  0  0
  -24.6040  -31.8520   23.1750 C   0  0  0  0  0  0  0  0  0  0  0  0
  -27.2920  -27.4720   20.0940 C   0  0  0  0  0  0  0  0  0  0  0  0
  -23.4010  -30.4510   21.5230 C   0  0  0  0  0  3  0  0  0  0  0  0
  -24.8680  -28.9270   20.0930 C   0  0  0  0  0  0  0  0  0  0  0  0
  -25.9170  -30.8390   21.3220 C   0  0  0  0  0  2  0  0  0  0  0  0
  -26.0130  -29.4700   20.6850 C   0  0  0  0  0  0  0  0  0  0  0  0
  -27.2250  -28.7550   20.6850 C   0  0  0  0  0  3  0  0  0  0  0  0
  -26.1340  -26.9390   19.4880 C   0  0  0  0  0  3  0  0  0  0  0  0
  -24.9210  -27.6570   19.4880 C   0  0  0  0  0  3  0  0  0  0  0  0
  -23.6130  -29.7690   20.1410 C   0  0  0  0  0  2  0  0  0  0  0  0
  -24.6580  -31.0610   22.0670 N   0  0  0  0  0  0  0  0  0  0  0  0
  -23.5240  -32.1190   23.7200 O   0  0  0  0  0  0  0  0  0  0  0  0
  -22.7550  -29.4260   22.4810 C   0  0  0  0  0  0  0  0  0  0  0  0
  -21.4270  -29.2600   22.3680 N   0  0  0  0  0  0  0  0  0  0  0  0
  -23.4440  -28.7820   23.2780 O   0  0  0  0  0  0  0  0  0  0  0  0
  -20.9340  -29.8300   21.6950 H   0  0  0  0  0  0  0  0  0  0  0  0
  -18.0420  -28.1180   22.9060 C   0  0  0  0  0  0  0  0  0  0  0  0
  -20.6090  -28.3200   23.1340 C   0  0  0  0  0  3  0  0  0  0  0  0
  -20.6740  -26.9010   22.5250 C   0  0  0  0  0  2  0  0  0  0  0  0
  -19.5460  -26.6200   21.5280 C   0  0  0  0  0  2  0  0  0  0  0  0
  -18.1790  -26.7810   22.1990 C   0  0  0  0  0  2  0  0  0  0  0  0
  -19.1840  -28.8490   23.3310 C   0  0  0  0  0  0  0  0  0  0  0  0
  -19.0020  -30.1040   23.9510 C   0  0  0  0  0  3  0  0  0  0  0  0
  -17.7120  -30.6290   24.1490 C   0  0  0  0  0  3  0  0  0  0  0  0
  -16.5840  -29.8940   23.7430 C   0  0  0  0  0  3  0  0  0  0  0  0
  -16.7510  -28.6390   23.1290 C   0  0  0  0  0  3  0  0  0  0  0  0
  -25.8920  -32.4810   23.7960 C   0  0  0  0  0  3  0  0  0  0  0  0
  -26.4220  -31.6920   25.0540 C   0  0  1  0  0  0  0  0  0  0  0  0
  -25.3360  -31.4220   26.1210 C   0  0  0  0  0  1  0  0  0  0  0  0
  -27.0130  -30.3260   24.6320 C   0  0  0  0  0  1  0  0  0  0  0  0
  -27.5670  -32.4840   25.7280 C   0  0  0  0  0  1  0  0  0  0  0  0
  -25.5780  -33.8730   24.1460 N   0  0  0  0  0  0  0  0  0  0  0  0
  -25.9080  -34.9350   23.3990 C   0  0  0  0  0  0  0  0  0  0  0  0
  -26.5800  -34.8450   22.3680 O   0  0  0  0  0  0  0  0  0  0  0  0
  -24.9820  -34.0170   24.9490 H   0  0  0  0  0  0  0  0  0  0  0  0
  -24.1780  -36.7260   23.0510 C   0  0  0  0  0  1  0  0  0  0  0  0
  -25.4140  -36.3160   23.8700 C   0  0  0  0  0  3  0  0  0  0  0  0
  -27.5370  -37.1910   24.7390 C   0  0  0  0  0  1  0  0  0  0  0  0
  -26.4460  -37.3720   23.7840 N   0  0  0  0  0  0  0  0  0  0  0  0
  -26.0390  -38.2900   23.9420 H   0  0  0  0  0  0  0  0  0  0  0  0
  2  1  1  0
  3  4  1  0
  3  7  1  0
  4  6  1  0
  4  5  1  0
  5 54  1  0
  5  1  1  0
  7  2  1  0
  8 10  2  0
  8  9  1  0
  9 12  2  0
 10 13  1  0
 11 15  1  0
 12 11  1  0
 12  7  1  0
 13 24  1  0
 13 11  2  0
 14 10  1  0
 17 22  1  0
 18 19  1  0
 18 17  1  0
 20 19  1  0
 20 29  1  0
 20 21  1  0
 22 16  1  0
 22 21  1  0
 23 16  2  0
 24 16  1  0
 24 25  1  0
 26 27  2  0
 27 46  1  0
 28 27  1  0
 28 31  1  0
 29 26  1  0
 29 30  1  0
 30 28  2  0
 31 32  1  0
 32 33  2  0
 34 37  1  0
 34 33  1  0
 35 34  2  0
 36 35  1  0
 36 31  2  0
 37 38  1  0
 38 43  2  0
 38 39  1  0
 39 40  2  0
 41 40  1  0
 41 45  1  0
 42 41  2  0
 43 42  1  0
 44 43  1  0
 46 47  1  0
 47 50  1  0
 47 49  1  0
 48 46  2  0
 51 52  1  0
 51 26  1  0
 53 51  1  0
 54 55  1  0
 56 54  1  0
 57 54  1  0
 58 57  1  0
 59 61  1  0
 59 58  1  0
 60 71  2  0
 61 66  1  0
 62 70  1  0
 62 72  1  0
 63 69  1  0
 63 65  1  0
 64 70  1  0
 65 66  2  0
 65 64  1  0
 67 61  2  0
 68 67  1  0
 68 63  2  0
 69 62  1  0
 70 60  1  0
 72 74  2  0
 73 72  1  0
 75 73  1  0
 76 85  2  0
 76 81  1  0
 77 73  1  0
 77 81  1  0
 78 77  1  0
 79 80  1  0
 79 78  1  0
 80 76  1  0
 81 82  2  0
 82 83  1  0
 84 83  2  0
 85 84  1  0
 86 60  1  0
 86 91  1  0
 86 87  1  0
 87 90  1  1
 87 88  1  0
 89 87  1  0
 91 94  1  0
 92 96  1  0
 92 91  1  0
 93 92  2  0
 96 95  1  0
 98 96  1  0
 98 99  1  0
 98 97  1  0
M  ISO  4  16 100  24 100  58 101  59 101
M  END
>  <TORSDO>  (96) 
F 20

>  <SCORE>  (96) 
-13.510

>  <name>  (96) 
95

>  <ligand_id>  (96) 
95

>  <original_smiles>  (96) 
[H]c1c([H])c([H])c2c(c1[H])C([H])([H])C([H])([H])C([H])([H])C2([H])N([H])C(=O)C1([H])N(C(=O)C([H])(N([H])C(=O)C([H])(N([H])C([H])([H])[H])C([H])([H])[H])C(C([H])([H])[H])(C([H])([H])[H])C([H])([H])[H])C([H])([H])c2c([H])c(OC([H])([H])C([H])([H])[N+]([H])([H])C3([H])C([H])([H])C([H])([H])N(c4c([H])c([H])c(C([H])([H])[H])c(N([H])C(=O)N5C([H])([H])C([H])([H])C([H])([H])C([H])(n6nc(-c7c([H])c([H])c(Oc8c([H])c([H])c(F)c([H])c8F)c([H])c7[H])c(C(=O)N([H])[H])c6N([H])[H])C5([H])[H])c4C([H])([H])[H])C([H])([H])C3([H])C([H])([H])[H])c([H])c([H])c2C1([H])[H]

>  <smiles>  (96) 
[H]c1c([H])c([H])c2c(c1[H])C([H])([H])C([H])([H])C([H])([H])C2([H])N([H])C(=O)C1([H])N(C(=O)C([H])(N([H])C(=O)C([H])(N([H])C([H])([H])[H])C([H])([H])[H])C(C([H])([H])[H])(C([H])([H])[H])C([H])([H])[H])C([H])([H])c2c([H])c(OC([H])([H])C([H])([H])[N+]([H])([H])C3([H])C([H])([H])C([H])([H])N(c4c([H])c([H])c(C([H])([H])[H])c(N([H])C(=O)N5C([H])([H])C([H])([H])C([H])([H])C([H])(n6nc(-c7c([H])c([H])c(Oc8c([H])c([H])c(F)c([H])c8F)c([H])c7[H])c(C(=O)N([H])[H])c6N([H])[H])C5([H])[H])c4C([H])([H])[H])C([H])([H])C3([H])C([H])([H])[H])c([H])c([H])c2C1([H])[H]

$$$$
96:0:0
     RDKit          3D

 93102  0  0  1  0  0  0  0  0999 V2000
  -30.0580  -20.4620   21.6620 C   0  0  0  0  0  0  0  0  0  0  0  0
  -29.5080  -20.1860   20.3820 C   0  0  0  0  0  0  0  0  0  0  0  0
  -29.9160  -21.7290   22.3310 C   0  0  0  0  0  0  0  0  0  0  0  0
  -28.9380  -21.5030   19.7820 C   0  0  0  0  0  0  0  0  0  0  0  0
  -29.4210  -22.9250   21.7000 C   0  0  0  0  0  0  0  0  0  0  0  0
  -28.8910  -22.9420   20.3800 C   0  0  0  0  0  0  0  0  0  0  0  0
  -30.9500  -19.3600   22.2440 C   0  0  0  0  0  2  0  0  0  0  0  0
  -31.9850  -18.8230   21.2200 C   0  0  0  0  0  2  0  0  0  0  0  0
  -31.4760  -18.7630   19.7610 C   0  0  0  0  0  2  0  0  0  0  0  0
  -29.9520  -18.5870   19.7370 C   0  0  0  0  0  3  0  0  0  0  0  0
  -30.3190  -21.8060   23.8070 C   0  0  0  0  0  1  0  0  0  0  0  0
  -28.3620  -21.3590   18.3870 C   0  0  0  0  0  1  0  0  0  0  0  0
  -29.4720  -24.2600   22.4460 C   0  0  0  0  0  1  0  0  0  0  0  0
  -30.5280  -15.6610   20.1260 C   0  0  0  0  0  0  0  0  0  0  0  0
  -30.6150  -13.1360   19.4550 C   0  0  0  0  0  2  0  0  0  0  0  0
  -29.7330  -12.7690   18.2310 C   0  0  0  0  0  2  0  0  0  0  0  0
  -28.2960  -12.4590   18.6790 C   0  0  0  0  0  2  0  0  0  0  0  0
  -27.7820  -13.4940   19.7090 C   0  0  0  0  0  3  0  0  0  0  0  0
  -28.7980  -13.8050   20.8300 C   0  0  0  0  0  2  0  0  0  0  0  0
  -30.0080  -14.3260   20.1750 N   0  0  0  0  0  0  0  0  0  0  0  0
  -31.7430  -15.6480   19.8770 O   0  0  0  0  0  0  0  0  0  0  0  0
  -29.7470  -16.9500   20.1600 N   0  0  0  0  0  0  0  0  0  0  0  0
  -28.7830  -16.7650   20.3950 H   0  0  0  0  0  0  0  0  0  0  0  0
  -25.4190  -14.0200   20.4950 C   0  0  0  0  0  0  0  0  0  0  0  0
  -24.3680  -13.2300   20.8630 C   0  0  0  0  0  0  0  0  0  0  0  0
  -24.8450  -11.8840   20.8110 C   0  0  0  0  0  0  0  0  0  0  0  0
  -26.4650  -13.1570   20.2280 N   0  0  0  0  0  0  0  0  0  0  0  0
  -26.1330  -11.8640   20.4870 N   0  0  0  0  0  0  0  0  0  0  0  0
  -24.1280  -10.6150   20.9900 C   0  0  0  0  0  0  0  0  0  0  0  0
  -24.5290   -9.6690   21.9600 C   0  0  0  0  0  3  0  0  0  0  0  0
  -23.8080   -8.4670   22.1280 C   0  0  0  0  0  3  0  0  0  0  0  0
  -22.6720   -8.2010   21.3270 C   0  0  0  0  0  0  0  0  0  0  0  0
  -22.2910   -9.1350   20.3480 C   0  0  0  0  0  3  0  0  0  0  0  0
  -23.0120  -10.3280   20.1770 C   0  0  0  0  0  3  0  0  0  0  0  0
  -21.9260   -7.0490   21.4030 O   0  0  0  0  0  0  0  0  0  0  0  0
  -21.7930   -6.3550   22.5790 C   0  0  0  0  0  0  0  0  0  0  0  0
  -21.2090   -6.9350   23.7250 C   0  0  0  0  0  3  0  0  0  0  0  0
  -21.0270   -6.1630   24.8900 C   0  0  0  0  0  3  0  0  0  0  0  0
  -21.4200   -4.8120   24.9080 C   0  0  0  0  0  0  0  0  0  0  0  0
  -21.9980   -4.2310   23.7660 C   0  0  0  0  0  3  0  0  0  0  0  0
  -22.1800   -5.0000   22.6030 C   0  0  0  0  0  0  0  0  0  0  0  0
  -22.7180   -4.4290   21.4990 F   0  0  0  0  0  0  0  0  0  0  0  0
  -21.2400   -4.0680   26.0250 F   0  0  0  0  0  0  0  0  0  0  0  0
  -22.9700  -13.6940   21.1480 C   0  0  0  0  0  0  0  0  0  0  0  0
  -22.2520  -12.9820   22.0080 N   0  0  0  0  0  0  0  0  0  0  0  0
  -22.5250  -14.7240   20.6430 O   0  0  0  0  0  0  0  0  0  0  0  0
  -22.6250  -12.1460   22.4350 H   0  0  0  0  0  0  0  0  0  0  0  0
  -21.3150  -13.2750   22.2440 H   0  0  0  0  0  0  0  0  0  0  0  0
  -25.5670  -15.3950   20.3310 N   0  0  0  0  0  0  0  0  0  0  0  0
  -24.7890  -16.0340   20.4570 H   0  0  0  0  0  0  0  0  0  0  0  0
  -26.3940  -15.8480   19.9670 H   0  0  0  0  0  0  0  0  0  0  0  0
  -28.1810  -24.4720   19.8170 C   0  0  0  0  0  2  0  0  0  0  0  0
  -28.3160  -26.0740   20.2670 O   0  0  0  0  0  0  0  0  0  0  0  0
  -24.6880  -31.9770   23.3090 C   0  0  0  0  0  0  0  0  0  0  0  0
  -27.3180  -27.1940   20.1710 C   0  0  0  0  0  0  0  0  0  0  0  0
  -23.5250  -30.6170   21.6190 C   0  0  0  0  0  3  0  0  0  0  0  0
  -25.0040  -29.0730   20.1520 C   0  0  0  0  0  0  0  0  0  0  0  0
  -26.0900  -30.8550   21.5020 C   0  0  0  0  0  2  0  0  0  0  0  0
  -26.1810  -29.4640   20.8030 C   0  0  0  0  0  0  0  0  0  0  0  0
  -27.3260  -28.5440   20.7940 C   0  0  0  0  0  3  0  0  0  0  0  0
  -26.1160  -26.9750   19.4570 C   0  0  0  0  0  3  0  0  0  0  0  0
  -25.0010  -27.8540   19.4560 C   0  0  0  0  0  3  0  0  0  0  0  0
  -23.7750  -29.9810   20.2230 C   0  0  0  0  0  2  0  0  0  0  0  0
  -24.7880  -31.1760   22.1980 N   0  0  0  0  0  0  0  0  0  0  0  0
  -23.5900  -32.2370   23.8300 O   0  0  0  0  0  0  0  0  0  0  0  0
  -22.8360  -29.5830   22.5490 C   0  0  0  0  0  0  0  0  0  0  0  0
  -21.5160  -29.3750   22.3810 N   0  0  0  0  0  0  0  0  0  0  0  0
  -23.4960  -28.9730   23.3920 O   0  0  0  0  0  0  0  0  0  0  0  0
  -21.0330  -29.9260   21.6850 H   0  0  0  0  0  0  0  0  0  0  0  0
  -18.1760  -28.0000   22.7360 C   0  0  0  0  0  0  0  0  0  0  0  0
  -20.7050  -28.3960   23.1150 C   0  0  0  0  0  3  0  0  0  0  0  0
  -20.9030  -26.9710   22.5470 C   0  0  0  0  0  2  0  0  0  0  0  0
  -19.8660  -26.5940   21.4840 C   0  0  0  0  0  2  0  0  0  0  0  0
  -18.4510  -26.6650   22.0650 C   0  0  0  0  0  2  0  0  0  0  0  0
  -19.2330  -28.8190   23.2160 C   0  0  0  0  0  0  0  0  0  0  0  0
  -18.9210  -30.0620   23.8050 C   0  0  0  0  0  3  0  0  0  0  0  0
  -17.5840  -30.4900   23.9200 C   0  0  0  0  0  3  0  0  0  0  0  0
  -16.5410  -29.6700   23.4550 C   0  0  0  0  0  3  0  0  0  0  0  0
  -16.8370  -28.4270   22.8680 C   0  0  0  0  0  3  0  0  0  0  0  0
  -25.9430  -32.6180   23.9720 C   0  0  0  0  0  3  0  0  0  0  0  0
  -25.6280  -34.0260   24.2800 N   0  0  0  0  0  0  0  0  0  0  0  0
  -25.9530  -35.0730   23.5100 C   0  0  0  0  0  0  0  0  0  0  0  0
  -26.6100  -34.9560   22.4730 O   0  0  0  0  0  0  0  0  0  0  0  0
  -25.0420  -34.1880   25.0860 H   0  0  0  0  0  0  0  0  0  0  0  0
  -24.2010  -36.8560   23.1900 C   0  0  0  0  0  1  0  0  0  0  0  0
  -25.4750  -36.4690   23.9590 C   0  0  0  0  0  3  0  0  0  0  0  0
  -27.6270  -37.3960   24.6990 C   0  0  0  0  0  1  0  0  0  0  0  0
  -26.4960  -37.5260   23.7850 N   0  0  0  0  0  0  0  0  0  0  0  0
  -26.0860  -38.4480   23.9180 H   0  0  0  0  0  0  0  0  0  0  0  0
  -26.4020  -31.8680   25.2840 C   0  0  1  0  0  0  0  0  0  0  0  0
  -25.2650  -31.6560   26.3110 C   0  0  0  0  0  1  0  0  0  0  0  0
  -26.9940  -30.4800   24.9490 C   0  0  0  0  0  1  0  0  0  0  0  0
  -27.5280  -32.6700   25.9790 C   0  0  0  0  0  1  0  0  0  0  0  0
  1  7  1  0
  1  3  1  0
  2  1  2  0
  3 11  1  0
  4  6  2  0
  4  2  1  0
  5  3  2  0
  5 13  1  0
  6  5  1  0
  8  7  1  0
  9  8  1  0
 10  9  1  0
 10 22  1  0
 10  2  1  0
 12  4  1  0
 14 22  1  0
 14 20  1  0
 15 20  1  0
 16 17  1  0
 16 15  1  0
 18 17  1  0
 18 27  1  0
 18 19  1  0
 20 19  1  0
 21 14  2  0
 22 23  1  0
 24 25  2  0
 25 44  1  0
 26 25  1  0
 26 29  1  0
 27 28  1  0
 27 24  1  0
 28 26  2  0
 29 30  1  0
 30 31  2  0
 32 35  1  0
 32 31  1  0
 33 32  2  0
 34 33  1  0
 34 29  2  0
 35 36  1  0
 36 41  2  0
 36 37  1  0
 37 38  2  0
 38 39  1  0
 39 43  1  0
 40 39  2  0
 41 40  1  0
 42 41  1  0
 44 45  1  0
 45 48  1  0
 45 47  1  0
 46 44  2  0
 49 50  1  0
 49 24  1  0
 51 49  1  0
 52 53  1  0
 52  6  1  0
 54 65  2  0
 55 53  1  0
 55 60  1  0
 56 64  1  0
 56 66  1  0
 57 63  1  0
 57 59  1  0
 58 64  1  0
 59 58  1  0
 60 59  2  0
 61 55  2  0
 62 61  1  0
 62 57  2  0
 63 56  1  0
 64 54  1  0
 66 68  2  0
 67 66  1  0
 69 67  1  0
 70 79  2  0
 70 75  1  0
 71 67  1  0
 71 75  1  0
 72 71  1  0
 73 74  1  0
 73 72  1  0
 74 70  1  0
 75 76  2  0
 76 77  1  0
 78 77  2  0
 79 78  1  0
 80 54  1  0
 80 81  1  0
 80 90  1  0
 81 84  1  0
 82 86  1  0
 82 81  1  0
 83 82  2  0
 86 85  1  0
 88 89  1  0
 88 86  1  0
 88 87  1  0
 90 93  1  1
 90 91  1  0
 92 90  1  0
M  ISO  4  14 100  22 100  52 101  53 101
M  END
>  <TORSDO>  (97) 
F 17

>  <SCORE>  (97) 
-17.344

>  <name>  (97) 
96

>  <ligand_id>  (97) 
96

>  <original_smiles>  (97) 
[H]c1c([H])c([H])c2c(c1[H])C([H])([H])C([H])([H])C([H])([H])C2([H])N([H])C(=O)C1([H])N(C(=O)C([H])(N([H])C(=O)C([H])(N([H])C([H])([H])[H])C([H])([H])[H])C(C([H])([H])[H])(C([H])([H])[H])C([H])([H])[H])C([H])([H])c2c([H])c(OC([H])([H])c3c(C([H])([H])[H])c(C([H])([H])[H])c4c(c3C([H])([H])[H])C([H])(N([H])C(=O)N3C([H])([H])C([H])([H])C([H])([H])C([H])(n5nc(-c6c([H])c([H])c(Oc7c([H])c([H])c(F)c([H])c7F)c([H])c6[H])c(C(=O)N([H])[H])c5N([H])[H])C3([H])[H])C([H])([H])C([H])([H])C4([H])[H])c([H])c([H])c2C1([H])[H]

>  <smiles>  (97) 
[H]c1c([H])c([H])c2c(c1[H])C([H])([H])C([H])([H])C([H])([H])C2([H])N([H])C(=O)C1([H])N(C(=O)C([H])(N([H])C(=O)C([H])(N([H])C([H])([H])[H])C([H])([H])[H])C(C([H])([H])[H])(C([H])([H])[H])C([H])([H])[H])C([H])([H])c2c([H])c(OC([H])([H])c3c(C([H])([H])[H])c(C([H])([H])[H])c4c(c3C([H])([H])[H])C([H])(N([H])C(=O)N3C([H])([H])C([H])([H])C([H])([H])C([H])(n5nc(-c6c([H])c([H])c(Oc7c([H])c([H])c(F)c([H])c7F)c([H])c6[H])c(C(=O)N([H])[H])c5N([H])[H])C3([H])[H])C([H])([H])C([H])([H])C4([H])[H])c([H])c([H])c2C1([H])[H]

$$$$
97:0:0
     RDKit          3D

 97106  0  0  1  0  0  0  0  0999 V2000
  -32.4020  -23.7990   19.0420 C   0  0  0  0  0  0  0  0  0  0  0  0
  -32.9410  -22.5560   19.4250 C   0  0  0  0  0  0  0  0  0  0  0  0
  -31.0050  -23.9880   19.0820 C   0  0  0  0  0  0  0  0  0  0  0  0
  -32.0780  -21.4670   19.7410 C   0  0  0  0  0  0  0  0  0  0  0  0
  -30.1620  -23.0430   19.7460 C   0  0  0  0  0  0  0  0  0  0  0  0
  -30.6540  -21.6650   19.9370 C   0  0  0  0  0  0  0  0  0  0  0  0
  -33.3460  -24.9340   18.6210 C   0  0  0  0  0  1  0  0  0  0  0  0
  -34.4670  -22.3810   19.4520 C   0  0  0  0  0  1  0  0  0  0  0  0
  -30.4460  -25.2100   18.3620 C   0  0  0  0  0  1  0  0  0  0  0  0
  -32.7770  -20.1120   19.9000 C   0  0  0  0  0  1  0  0  0  0  0  0
  -29.7710  -20.5670   20.3220 N   0  0  0  0  0  0  0  0  0  0  0  0
  -28.8080  -20.8320   20.5070 H   0  0  0  0  0  0  0  0  0  0  0  0
  -30.6590  -14.7000   20.0040 C   0  0  0  0  0  0  0  0  0  0  0  0
  -30.2910  -12.4840   18.9270 C   0  0  0  0  0  2  0  0  0  0  0  0
  -29.2840  -12.6130   17.7690 C   0  0  0  0  0  2  0  0  0  0  0  0
  -27.8450  -12.4430   18.2920 C   0  0  0  0  0  2  0  0  0  0  0  0
  -27.5630  -13.2990   19.5580 C   0  0  0  0  0  3  0  0  0  0  0  0
  -28.6940  -13.1820   20.6020 C   0  0  0  0  0  2  0  0  0  0  0  0
  -29.9440  -13.5270   19.9190 N   0  0  0  0  0  0  0  0  0  0  0  0
  -31.8420  -14.6930   19.6510 O   0  0  0  0  0  0  0  0  0  0  0  0
  -29.8030  -18.3540   18.9580 C   0  0  0  0  0  2  0  0  0  0  0  0
  -29.1850  -18.1550   21.2560 C   0  0  0  0  0  2  0  0  0  0  0  0
  -30.3610  -16.8870   18.9250 C   0  0  0  0  0  2  0  0  0  0  0  0
  -29.6720  -16.6370   21.3020 C   0  0  0  0  0  2  0  0  0  0  0  0
  -30.0190  -19.0620   20.3130 C   0  0  0  0  0  3  0  0  0  0  0  0
  -29.9890  -15.9280   20.0190 N   0  0  0  0  0  0  0  0  0  0  0  0
  -25.2310  -13.8700   20.4540 C   0  0  0  0  0  0  0  0  0  0  0  0
  -24.1880  -13.0860   20.8680 C   0  0  0  0  0  0  0  0  0  0  0  0
  -24.6460  -11.7360   20.7750 C   0  0  0  0  0  0  0  0  0  0  0  0
  -26.2550  -12.9960   20.1300 N   0  0  0  0  0  0  0  0  0  0  0  0
  -25.9150  -11.7060   20.3870 N   0  0  0  0  0  0  0  0  0  0  0  0
  -23.9280  -10.4700   20.9790 C   0  0  0  0  0  0  0  0  0  0  0  0
  -24.3900   -9.4980   21.8940 C   0  0  0  0  0  3  0  0  0  0  0  0
  -23.6720   -8.2980   22.0860 C   0  0  0  0  0  3  0  0  0  0  0  0
  -22.4800   -8.0600   21.3620 C   0  0  0  0  0  0  0  0  0  0  0  0
  -22.0380   -9.0190   20.4340 C   0  0  0  0  0  3  0  0  0  0  0  0
  -22.7550  -10.2110   20.2410 C   0  0  0  0  0  3  0  0  0  0  0  0
  -21.7310   -6.9110   21.4640 O   0  0  0  0  0  0  0  0  0  0  0  0
  -21.6830   -6.1830   22.6250 C   0  0  0  0  0  0  0  0  0  0  0  0
  -21.2510   -6.7510   23.8440 C   0  0  0  0  0  3  0  0  0  0  0  0
  -21.1510   -5.9490   24.9980 C   0  0  0  0  0  3  0  0  0  0  0  0
  -21.4730   -4.5800   24.9350 C   0  0  0  0  0  0  0  0  0  0  0  0
  -21.8990   -4.0120   23.7220 C   0  0  0  0  0  3  0  0  0  0  0  0
  -22.0010   -4.8100   22.5700 C   0  0  0  0  0  0  0  0  0  0  0  0
  -22.3910   -4.2540   21.3980 F   0  0  0  0  0  0  0  0  0  0  0  0
  -21.3710   -3.8080   26.0420 F   0  0  0  0  0  0  0  0  0  0  0  0
  -22.8110  -13.5560   21.2370 C   0  0  0  0  0  0  0  0  0  0  0  0
  -22.1400  -12.8420   22.1330 N   0  0  0  0  0  0  0  0  0  0  0  0
  -22.3420  -14.5920   20.7660 O   0  0  0  0  0  0  0  0  0  0  0  0
  -22.5360  -12.0050   22.5360 H   0  0  0  0  0  0  0  0  0  0  0  0
  -21.2170  -13.1360   22.4200 H   0  0  0  0  0  0  0  0  0  0  0  0
  -25.3880  -15.2440   20.3030 N   0  0  0  0  0  0  0  0  0  0  0  0
  -24.6380  -15.9010   20.4860 H   0  0  0  0  0  0  0  0  0  0  0  0
  -26.2320  -15.6890   19.9620 H   0  0  0  0  0  0  0  0  0  0  0  0
  -28.8330  -23.5940   20.4030 C   0  0  0  0  0  2  0  0  0  0  0  0
  -27.9820  -24.9070   19.9740 C   0  0  0  0  0  2  0  0  0  0  0  0
  -28.2940  -26.3600   20.1990 O   0  0  0  0  0  0  0  0  0  0  0  0
  -24.6010  -31.8430   23.1900 C   0  0  0  0  0  0  0  0  0  0  0  0
  -27.2130  -27.2710   20.1200 C   0  0  0  0  0  0  0  0  0  0  0  0
  -23.4040  -30.4500   21.5450 C   0  0  0  0  0  3  0  0  0  0  0  0
  -24.8600  -28.9180   20.1070 C   0  0  0  0  0  0  0  0  0  0  0  0
  -25.9490  -30.7650   21.3720 C   0  0  0  0  0  2  0  0  0  0  0  0
  -26.0310  -29.3890   20.7140 C   0  0  0  0  0  0  0  0  0  0  0  0
  -27.2110  -28.5780   20.7120 C   0  0  0  0  0  3  0  0  0  0  0  0
  -26.0180  -26.8800   19.4690 C   0  0  0  0  0  3  0  0  0  0  0  0
  -24.8590  -27.6710   19.4730 C   0  0  0  0  0  3  0  0  0  0  0  0
  -23.6230  -29.7910   20.1590 C   0  0  0  0  0  2  0  0  0  0  0  0
  -24.6710  -31.0370   22.0910 N   0  0  0  0  0  0  0  0  0  0  0  0
  -23.5150  -32.1160   23.7220 O   0  0  0  0  0  0  0  0  0  0  0  0
  -22.7430  -29.4240   22.4970 C   0  0  0  0  0  0  0  0  0  0  0  0
  -21.4150  -29.2550   22.3770 N   0  0  0  0  0  0  0  0  0  0  0  0
  -23.4240  -28.7860   23.3040 O   0  0  0  0  0  0  0  0  0  0  0  0
  -20.9250  -29.8230   21.7010 H   0  0  0  0  0  0  0  0  0  0  0  0
  -18.0320  -28.0830   22.9020 C   0  0  0  0  0  0  0  0  0  0  0  0
  -20.5950  -28.3160   23.1460 C   0  0  0  0  0  3  0  0  0  0  0  0
  -20.6770  -26.8900   22.5540 C   0  0  0  0  0  2  0  0  0  0  0  0
  -19.5600  -26.5890   21.5490 C   0  0  0  0  0  2  0  0  0  0  0  0
  -18.1880  -26.7390   22.2090 C   0  0  0  0  0  2  0  0  0  0  0  0
  -19.1620  -28.8300   23.3290 C   0  0  0  0  0  0  0  0  0  0  0  0
  -18.9600  -30.0870   23.9380 C   0  0  0  0  0  3  0  0  0  0  0  0
  -17.6620  -30.5970   24.1240 C   0  0  0  0  0  3  0  0  0  0  0  0
  -16.5460  -29.8470   23.7140 C   0  0  0  0  0  3  0  0  0  0  0  0
  -16.7320  -28.5910   23.1090 C   0  0  0  0  0  3  0  0  0  0  0  0
  -25.8790  -32.4780   23.8160 C   0  0  0  0  0  3  0  0  0  0  0  0
  -26.3980  -31.7020   25.0880 C   0  0  1  0  0  0  0  0  0  0  0  0
  -25.3060  -31.4540   26.1540 C   0  0  0  0  0  1  0  0  0  0  0  0
  -26.9860  -30.3280   24.6920 C   0  0  0  0  0  1  0  0  0  0  0  0
  -27.5440  -32.4980   25.7560 C   0  0  0  0  0  1  0  0  0  0  0  0
  -25.5610  -33.8730   24.1550 N   0  0  0  0  0  0  0  0  0  0  0  0
  -25.8820  -34.9320   23.3990 C   0  0  0  0  0  0  0  0  0  0  0  0
  -26.5450  -34.8390   22.3630 O   0  0  0  0  0  0  0  0  0  0  0  0
  -24.9710  -34.0190   24.9600 H   0  0  0  0  0  0  0  0  0  0  0  0
  -24.1380  -36.7160   23.0700 C   0  0  0  0  0  1  0  0  0  0  0  0
  -25.3890  -36.3160   23.8680 C   0  0  0  0  0  3  0  0  0  0  0  0
  -27.5230  -37.2120   24.6860 C   0  0  0  0  0  1  0  0  0  0  0  0
  -26.4130  -37.3760   23.7520 N   0  0  0  0  0  0  0  0  0  0  0  0
  -26.0020  -38.2930   23.9060 H   0  0  0  0  0  0  0  0  0  0  0  0
  1  3  2  0
  1  2  1  0
  2  8  1  0
  2  4  2  0
  3  5  1  0
  4 10  1  0
  4  6  1  0
  5  6  2  0
  5 55  1  0
  6 11  1  0
  7  1  1  0
  9  3  1  0
 11 12  1  0
 13 26  1  0
 14 19  1  0
 15 16  1  0
 15 14  1  0
 17 16  1  0
 17 30  1  0
 17 18  1  0
 19 13  1  0
 19 18  1  0
 20 13  2  0
 21 25  1  0
 22 24  1  0
 23 21  1  0
 23 26  1  0
 25 11  1  0
 25 22  1  0
 26 24  1  0
 27 28  2  0
 28 47  1  0
 29 28  1  0
 29 32  1  0
 30 31  1  0
 30 27  1  0
 31 29  2  0
 32 33  1  0
 33 34  2  0
 35 38  1  0
 35 34  1  0
 36 35  2  0
 37 36  1  0
 37 32  2  0
 38 39  1  0
 39 40  1  0
 40 41  2  0
 42 41  1  0
 42 46  1  0
 43 42  2  0
 44 39  2  0
 44 43  1  0
 45 44  1  0
 47 48  1  0
 48 51  1  0
 48 50  1  0
 49 47  2  0
 52 27  1  0
 52 53  1  0
 54 52  1  0
 56 57  1  0
 56 55  1  0
 58 69  2  0
 59 57  1  0
 59 64  1  0
 60 68  1  0
 60 70  1  0
 61 67  1  0
 61 63  1  0
 62 68  1  0
 63 62  1  0
 64 63  2  0
 65 66  1  0
 65 59  2  0
 66 61  2  0
 67 60  1  0
 68 58  1  0
 70 72  2  0
 71 70  1  0
 73 71  1  0
 74 83  2  0
 74 79  1  0
 75 71  1  0
 75 79  1  0
 76 75  1  0
 77 78  1  0
 77 76  1  0
 78 74  1  0
 79 80  2  0
 80 81  1  0
 82 81  2  0
 83 82  1  0
 84 58  1  0
 84 89  1  0
 84 85  1  0
 85 88  1  1
 85 86  1  0
 87 85  1  0
 89 92  1  0
 90 94  1  0
 90 89  1  0
 91 90  2  0
 94 93  1  0
 96 94  1  0
 96 97  1  0
 96 95  1  0
M  ISO  4  13 100  26 100  56 101  57 101
M  END
>  <TORSDO>  (98) 
F 19

>  <SCORE>  (98) 
-14.026

>  <name>  (98) 
97

>  <ligand_id>  (98) 
97

>  <original_smiles>  (98) 
[H]c1c([H])c([H])c2c(c1[H])C([H])([H])C([H])([H])C([H])([H])C2([H])N([H])C(=O)C1([H])N(C(=O)C([H])(N([H])C(=O)C([H])(N([H])C([H])([H])[H])C([H])([H])[H])C(C([H])([H])[H])(C([H])([H])[H])C([H])([H])[H])C([H])([H])c2c([H])c(OC([H])([H])C([H])([H])c3c(N([H])C4([H])C([H])([H])C([H])([H])N(C(=O)N5C([H])([H])C([H])([H])C([H])([H])C([H])(n6nc(-c7c([H])c([H])c(Oc8c([H])c([H])c(F)c([H])c8F)c([H])c7[H])c(C(=O)N([H])[H])c6N([H])[H])C5([H])[H])C([H])([H])C4([H])[H])c(C([H])([H])[H])c(C([H])([H])[H])c(C([H])([H])[H])c3C([H])([H])[H])c([H])c([H])c2C1([H])[H]

>  <smiles>  (98) 
[H]c1c([H])c([H])c2c(c1[H])C([H])([H])C([H])([H])C([H])([H])C2([H])N([H])C(=O)C1([H])N(C(=O)C([H])(N([H])C(=O)C([H])(N([H])C([H])([H])[H])C([H])([H])[H])C(C([H])([H])[H])(C([H])([H])[H])C([H])([H])[H])C([H])([H])c2c([H])c(OC([H])([H])C([H])([H])c3c(N([H])C4([H])C([H])([H])C([H])([H])N(C(=O)N5C([H])([H])C([H])([H])C([H])([H])C([H])(n6nc(-c7c([H])c([H])c(Oc8c([H])c([H])c(F)c([H])c8F)c([H])c7[H])c(C(=O)N([H])[H])c6N([H])[H])C5([H])[H])C([H])([H])C4([H])[H])c(C([H])([H])[H])c(C([H])([H])[H])c(C([H])([H])[H])c3C([H])([H])[H])c([H])c([H])c2C1([H])[H]

$$$$
98:0:0
     RDKit          3D

 96106  0  0  1  0  0  0  0  0999 V2000
  -29.0900  -20.5010   21.0100 C   0  0  0  0  0  3  0  0  0  0  0  0
  -30.3110  -21.6920   18.8050 C   0  0  0  0  0  3  0  0  0  0  0  0
  -29.6940  -19.6490   20.0470 C   0  0  0  0  0  0  0  0  0  0  0  0
  -29.0680  -21.9110   20.8700 C   0  0  0  0  0  0  0  0  0  0  0  0
  -30.2980  -20.2770   18.9210 C   0  0  0  0  0  0  0  0  0  0  0  0
  -29.6870  -22.5230   19.7560 C   0  0  0  0  0  0  0  0  0  0  0  0
  -28.3800  -22.7640   21.9260 C   0  0  0  0  0  3  0  0  0  0  0  0
  -28.7930  -24.2500   21.8090 C   0  0  0  0  0  3  0  0  0  0  0  0
  -28.7930  -24.7050   20.3260 C   0  0  0  0  0  3  0  0  0  0  0  0
  -30.9100  -19.4770   17.7850 C   0  0  0  0  0  1  0  0  0  0  0  0
  -26.8520  -22.5860   21.8620 C   0  0  0  0  0  1  0  0  0  0  0  0
  -30.1440  -24.4990   22.5150 C   0  0  0  0  0  1  0  0  0  0  0  0
  -29.7230  -23.9000   19.5760 O   0  0  0  0  0  0  0  0  0  0  0  0
  -31.1520  -14.7150   20.0130 C   0  0  0  0  0  0  0  0  0  0  0  0
  -30.8650  -12.5040   18.9320 C   0  0  0  0  0  2  0  0  0  0  0  0
  -29.8470  -12.6330   17.7770 C   0  0  0  0  0  2  0  0  0  0  0  0
  -28.3970  -12.4870   18.2880 C   0  0  0  0  0  2  0  0  0  0  0  0
  -28.1200  -13.3420   19.5530 C   0  0  0  0  0  3  0  0  0  0  0  0
  -29.2400  -13.1140   20.5920 C   0  0  0  0  0  2  0  0  0  0  0  0
  -30.5060  -13.5060   19.9540 N   0  0  0  0  0  0  0  0  0  0  0  0
  -32.2620  -14.8600   19.4890 O   0  0  0  0  0  0  0  0  0  0  0  0
  -29.3510  -17.5700   21.6040 C   0  0  0  0  0  2  0  0  0  0  0  0
  -29.5330  -16.0550   21.4630 C   0  0  0  0  0  2  0  0  0  0  0  0
  -30.6740  -17.1550   19.6970 C   0  0  0  0  0  2  0  0  0  0  0  0
  -29.5480  -18.1040   20.1860 C   0  0  0  0  0  3  0  0  0  0  0  0
  -30.4090  -15.8300   20.3060 N   0  0  0  0  0  0  0  0  0  0  0  0
  -25.7820  -13.9620   20.4320 C   0  0  0  0  0  0  0  0  0  0  0  0
  -24.7270  -13.1930   20.8420 C   0  0  0  0  0  0  0  0  0  0  0  0
  -25.1600  -11.8370   20.7290 C   0  0  0  0  0  0  0  0  0  0  0  0
  -26.7950  -13.0740   20.1050 N   0  0  0  0  0  0  0  0  0  0  0  0
  -26.4260  -11.7880   20.3350 N   0  0  0  0  0  0  0  0  0  0  0  0
  -24.4270  -10.5790   20.9160 C   0  0  0  0  0  0  0  0  0  0  0  0
  -24.8460   -9.6140   21.8580 C   0  0  0  0  0  3  0  0  0  0  0  0
  -24.1130   -8.4210   22.0330 C   0  0  0  0  0  3  0  0  0  0  0  0
  -22.9480   -8.1850   21.2660 C   0  0  0  0  0  0  0  0  0  0  0  0
  -22.5480   -9.1390   20.3140 C   0  0  0  0  0  3  0  0  0  0  0  0
  -23.2810  -10.3240   20.1370 C   0  0  0  0  0  3  0  0  0  0  0  0
  -22.1870   -7.0430   21.3510 O   0  0  0  0  0  0  0  0  0  0  0  0
  -22.0180   -6.3780   22.5390 C   0  0  0  0  0  0  0  0  0  0  0  0
  -21.4460   -7.0030   23.6680 C   0  0  0  0  0  3  0  0  0  0  0  0
  -21.2260   -6.2630   24.8470 C   0  0  0  0  0  3  0  0  0  0  0  0
  -21.5670   -4.8990   24.8960 C   0  0  0  0  0  0  0  0  0  0  0  0
  -22.1330   -4.2730   23.7710 C   0  0  0  0  0  3  0  0  0  0  0  0
  -22.3540   -5.0100   22.5940 C   0  0  0  0  0  0  0  0  0  0  0  0
  -22.8790   -4.3980   21.5060 F   0  0  0  0  0  0  0  0  0  0  0  0
  -21.3490   -4.1840   26.0250 F   0  0  0  0  0  0  0  0  0  0  0  0
  -23.3590  -13.6810   21.2250 C   0  0  0  0  0  0  0  0  0  0  0  0
  -22.6890  -12.9750   22.1290 N   0  0  0  0  0  0  0  0  0  0  0  0
  -22.8960  -14.7210   20.7590 O   0  0  0  0  0  0  0  0  0  0  0  0
  -23.0760  -12.1310   22.5260 H   0  0  0  0  0  0  0  0  0  0  0  0
  -21.7740  -13.2830   22.4290 H   0  0  0  0  0  0  0  0  0  0  0  0
  -25.9570  -15.3370   20.2920 N   0  0  0  0  0  0  0  0  0  0  0  0
  -25.2080  -15.9960   20.4700 H   0  0  0  0  0  0  0  0  0  0  0  0
  -26.7910  -15.7730   19.9210 H   0  0  0  0  0  0  0  0  0  0  0  0
  -29.1020  -26.2310   20.1840 C   0  0  0  0  0  2  0  0  0  0  0  0
  -28.4700  -26.8570   19.0600 O   0  0  0  0  0  0  0  0  0  0  0  0
  -24.7010  -31.5900   22.9220 C   0  0  0  0  0  0  0  0  0  0  0  0
  -27.3040  -27.5530   19.2920 C   0  0  0  0  0  0  0  0  0  0  0  0
  -23.4500  -30.3210   21.2080 C   0  0  0  0  0  3  0  0  0  0  0  0
  -24.8730  -28.9720   19.5720 C   0  0  0  0  0  0  0  0  0  0  0  0
  -25.9520  -30.7740   20.9270 C   0  0  0  0  0  2  0  0  0  0  0  0
  -26.0440  -29.4690   20.1600 C   0  0  0  0  0  0  0  0  0  0  0  0
  -27.2640  -28.7640   20.0260 C   0  0  0  0  0  3  0  0  0  0  0  0
  -26.1200  -27.0730   18.6990 C   0  0  0  0  0  3  0  0  0  0  0  0
  -24.9040  -27.7700   18.8440 C   0  0  0  0  0  3  0  0  0  0  0  0
  -23.6100  -29.7840   19.7590 C   0  0  0  0  0  2  0  0  0  0  0  0
  -24.7220  -30.9050   21.7440 N   0  0  0  0  0  0  0  0  0  0  0  0
  -23.6420  -31.7750   23.5390 O   0  0  0  0  0  0  0  0  0  0  0  0
  -22.8760  -29.1900   22.0920 C   0  0  0  0  0  0  0  0  0  0  0  0
  -21.5490  -28.9910   22.0230 N   0  0  0  0  0  0  0  0  0  0  0  0
  -23.6180  -28.5000   22.7940 O   0  0  0  0  0  0  0  0  0  0  0  0
  -21.0100  -29.6050   21.4290 H   0  0  0  0  0  0  0  0  0  0  0  0
  -18.2320  -27.6720   22.5840 C   0  0  0  0  0  0  0  0  0  0  0  0
  -20.7970  -27.9590   22.7350 C   0  0  0  0  0  3  0  0  0  0  0  0
  -20.8900  -26.5990   22.0040 C   0  0  0  0  0  2  0  0  0  0  0  0
  -19.7340  -26.3610   21.0260 C   0  0  0  0  0  2  0  0  0  0  0  0
  -18.3910  -26.4060   21.7600 C   0  0  0  0  0  2  0  0  0  0  0  0
  -19.3610  -28.4100   23.0280 C   0  0  0  0  0  0  0  0  0  0  0  0
  -19.1580  -29.6000   23.7610 C   0  0  0  0  0  3  0  0  0  0  0  0
  -17.8570  -30.0510   24.0540 C   0  0  0  0  0  3  0  0  0  0  0  0
  -16.7440  -29.3090   23.6250 C   0  0  0  0  0  3  0  0  0  0  0  0
  -16.9320  -28.1200   22.8970 C   0  0  0  0  0  3  0  0  0  0  0  0
  -26.0000  -32.1960   23.5390 C   0  0  0  0  0  3  0  0  0  0  0  0
  -25.6800  -33.5530   24.0010 N   0  0  0  0  0  0  0  0  0  0  0  0
  -25.9770  -34.6740   23.3320 C   0  0  0  0  0  0  0  0  0  0  0  0
  -26.6230  -34.6760   22.2800 O   0  0  0  0  0  0  0  0  0  0  0  0
  -25.1040  -33.6250   24.8280 H   0  0  0  0  0  0  0  0  0  0  0  0
  -24.2110  -36.4570   23.1830 C   0  0  0  0  0  1  0  0  0  0  0  0
  -25.4800  -36.0080   23.9240 C   0  0  0  0  0  3  0  0  0  0  0  0
  -27.6160  -36.8600   24.7810 C   0  0  0  0  0  1  0  0  0  0  0  0
  -26.4910  -37.0850   23.8780 N   0  0  0  0  0  0  0  0  0  0  0  0
  -26.0730  -37.9820   24.1090 H   0  0  0  0  0  0  0  0  0  0  0  0
  -26.5920  -31.3290   24.7180 C   0  0  1  0  0  0  0  0  0  0  0  0
  -25.5570  -30.9800   25.8120 C   0  0  0  0  0  1  0  0  0  0  0  0
  -27.1760  -30.0020   24.1790 C   0  0  0  0  0  1  0  0  0  0  0  0
  -27.7620  -32.0860   25.3900 C   0  0  0  0  0  1  0  0  0  0  0  0
  2  5  2  0
  2  6  1  0
  3  1  2  0
  4  1  1  0
  4  7  1  0
  5  3  1  0
  6  4  2  0
  7 11  1  0
  8  7  1  0
  8 12  1  0
  9 55  1  0
  9  8  1  0
 10  5  1  0
 13  6  1  0
 13  9  1  0
 14 26  1  0
 15 20  1  0
 16 17  1  0
 16 15  1  0
 18 17  1  0
 18 30  1  0
 18 19  1  0
 20 14  1  0
 20 19  1  0
 21 14  2  0
 23 22  1  0
 24 25  1  0
 24 26  1  0
 25  3  1  0
 25 22  1  0
 26 23  1  0
 27 28  2  0
 28 47  1  0
 29 28  1  0
 29 32  1  0
 30 31  1  0
 30 27  1  0
 31 29  2  0
 32 33  1  0
 33 34  2  0
 35 38  1  0
 35 34  1  0
 36 35  2  0
 37 36  1  0
 37 32  2  0
 38 39  1  0
 39 44  2  0
 39 40  1  0
 40 41  2  0
 41 42  1  0
 42 46  1  0
 43 42  2  0
 44 43  1  0
 45 44  1  0
 47 48  1  0
 48 51  1  0
 48 50  1  0
 49 47  2  0
 52 27  1  0
 52 53  1  0
 54 52  1  0
 56 58  1  0
 56 55  1  0
 57 68  2  0
 58 63  1  0
 59 67  1  0
 59 69  1  0
 60 66  1  0
 60 62  1  0
 61 67  1  0
 62 61  1  0
 63 62  2  0
 64 65  1  0
 64 58  2  0
 65 60  2  0
 66 59  1  0
 67 57  1  0
 69 71  2  0
 70 69  1  0
 72 70  1  0
 73 82  2  0
 73 78  1  0
 74 70  1  0
 74 78  1  0
 75 74  1  0
 76 77  1  0
 76 75  1  0
 77 73  1  0
 78 79  2  0
 79 80  1  0
 81 80  2  0
 82 81  1  0
 83 57  1  0
 83 84  1  0
 83 93  1  0
 84 87  1  0
 85 89  1  0
 85 84  1  0
 86 85  2  0
 89 88  1  0
 91 89  1  0
 91 92  1  0
 91 90  1  0
 93 96  1  1
 93 94  1  0
 95 93  1  0
M  ISO  4  14 100  26 100  55 101  56 101
M  END
>  <TORSDO>  (99) 
F 17

>  <SCORE>  (99) 
-12.637

>  <name>  (99) 
98

>  <ligand_id>  (99) 
98

>  <original_smiles>  (99) 
[H]c1c([H])c([H])c2c(c1[H])C([H])([H])C([H])([H])C([H])([H])C2([H])N([H])C(=O)C1([H])N(C(=O)C([H])(N([H])C(=O)C([H])(N([H])C([H])([H])[H])C([H])([H])[H])C(C([H])([H])[H])(C([H])([H])[H])C([H])([H])[H])C([H])([H])c2c([H])c(OC([H])([H])C3([H])Oc4c([H])c(C([H])([H])[H])c(C5([H])C([H])([H])N(C(=O)N6C([H])([H])C([H])([H])C([H])([H])C([H])(n7nc(-c8c([H])c([H])c(Oc9c([H])c([H])c(F)c([H])c9F)c([H])c8[H])c(C(=O)N([H])[H])c7N([H])[H])C6([H])[H])C([H])([H])C5([H])[H])c([H])c4C([H])(C([H])([H])[H])C3([H])C([H])([H])[H])c([H])c([H])c2C1([H])[H]

>  <smiles>  (99) 
[H]c1c([H])c([H])c2c(c1[H])C([H])([H])C([H])([H])C([H])([H])C2([H])N([H])C(=O)C1([H])N(C(=O)C([H])(N([H])C(=O)C([H])(N([H])C([H])([H])[H])C([H])([H])[H])C(C([H])([H])[H])(C([H])([H])[H])C([H])([H])[H])C([H])([H])c2c([H])c(OC([H])([H])C3([H])Oc4c([H])c(C([H])([H])[H])c(C5([H])C([H])([H])N(C(=O)N6C([H])([H])C([H])([H])C([H])([H])C([H])(n7nc(-c8c([H])c([H])c(Oc9c([H])c([H])c(F)c([H])c9F)c([H])c8[H])c(C(=O)N([H])[H])c7N([H])[H])C6([H])[H])C([H])([H])C5([H])[H])c([H])c4C([H])(C([H])([H])[H])C3([H])C([H])([H])[H])c([H])c([H])c2C1([H])[H]

$$$$
99:0:0
     RDKit          3D

 98108  0  0  1  0  0  0  0  0999 V2000
  -30.8240  -20.5380   19.1030 C   0  0  0  0  0  3  0  0  0  0  0  0
  -29.5460  -22.4730   20.6540 C   0  0  0  0  0  3  0  0  0  0  0  0
  -30.3020  -20.1740   20.3670 C   0  0  0  0  0  0  0  0  0  0  0  0
  -29.8550  -22.7740   19.3090 C   0  0  0  0  0  0  0  0  0  0  0  0
  -29.7580  -21.1890   21.1900 C   0  0  0  0  0  0  0  0  0  0  0  0
  -30.6150  -21.8300   18.5680 C   0  0  0  0  0  0  0  0  0  0  0  0
  -29.2990  -20.9220   22.6140 C   0  0  0  0  0  1  0  0  0  0  0  0
  -31.1600  -22.1270   17.1790 C   0  0  0  0  0  1  0  0  0  0  0  0
  -31.0210  -14.6710   20.4510 C   0  0  0  0  0  0  0  0  0  0  0  0
  -30.6680  -12.5120   19.3190 C   0  0  0  0  0  2  0  0  0  0  0  0
  -29.7440  -12.7020   18.1010 C   0  0  0  0  0  2  0  0  0  0  0  0
  -28.2680  -12.5500   18.5160 C   0  0  0  0  0  2  0  0  0  0  0  0
  -27.9020  -13.4030   19.7570 C   0  0  0  0  0  3  0  0  0  0  0  0
  -28.9580  -13.2570   20.8830 C   0  0  0  0  0  2  0  0  0  0  0  0
  -30.2920  -13.5250   20.3150 N   0  0  0  0  0  0  0  0  0  0  0  0
  -32.1910  -14.7720   20.0760 O   0  0  0  0  0  0  0  0  0  0  0  0
  -29.8140  -17.8220   19.5490 C   0  0  0  0  0  2  0  0  0  0  0  0
  -31.3450  -18.0470   21.4740 C   0  0  0  0  0  2  0  0  0  0  0  0
  -29.3990  -16.4190   20.0000 C   0  0  0  0  0  2  0  0  0  0  0  0
  -30.9470  -16.6270   21.9580 C   0  0  0  0  0  2  0  0  0  0  0  0
  -30.1610  -18.6950   20.7510 C   0  0  0  0  0  3  0  0  0  0  0  0
  -30.3660  -15.7640   20.9030 N   0  0  0  0  0  0  0  0  0  0  0  0
  -25.5060  -14.0370   20.4330 C   0  0  0  0  0  0  0  0  0  0  0  0
  -24.4300  -13.2730   20.7900 C   0  0  0  0  0  0  0  0  0  0  0  0
  -24.8890  -11.9200   20.7820 C   0  0  0  0  0  0  0  0  0  0  0  0
  -26.5490  -13.1440   20.2290 N   0  0  0  0  0  0  0  0  0  0  0  0
  -26.1830  -11.8680   20.4990 N   0  0  0  0  0  0  0  0  0  0  0  0
  -24.1590  -10.6620   20.9680 C   0  0  0  0  0  0  0  0  0  0  0  0
  -24.5520   -9.7210   21.9450 C   0  0  0  0  0  3  0  0  0  0  0  0
  -23.8240   -8.5260   22.1180 C   0  0  0  0  0  3  0  0  0  0  0  0
  -22.6900   -8.2640   21.3130 C   0  0  0  0  0  0  0  0  0  0  0  0
  -22.3170   -9.1950   20.3260 C   0  0  0  0  0  3  0  0  0  0  0  0
  -23.0470  -10.3810   20.1520 C   0  0  0  0  0  3  0  0  0  0  0  0
  -21.9360   -7.1200   21.3940 O   0  0  0  0  0  0  0  0  0  0  0  0
  -21.8140   -6.4210   22.5680 C   0  0  0  0  0  0  0  0  0  0  0  0
  -21.2670   -7.0080   23.7310 C   0  0  0  0  0  3  0  0  0  0  0  0
  -21.0970   -6.2330   24.8950 C   0  0  0  0  0  3  0  0  0  0  0  0
  -21.4610   -4.8730   24.8970 C   0  0  0  0  0  0  0  0  0  0  0  0
  -21.9990   -4.2870   23.7390 C   0  0  0  0  0  3  0  0  0  0  0  0
  -22.1730   -5.0590   22.5770 C   0  0  0  0  0  0  0  0  0  0  0  0
  -22.6720   -4.4840   21.4560 F   0  0  0  0  0  0  0  0  0  0  0  0
  -21.2910   -4.1260   26.0140 F   0  0  0  0  0  0  0  0  0  0  0  0
  -23.0290  -13.7570   21.0310 C   0  0  0  0  0  0  0  0  0  0  0  0
  -22.2850  -13.0700   21.8900 N   0  0  0  0  0  0  0  0  0  0  0  0
  -22.6020  -14.7770   20.4930 O   0  0  0  0  0  0  0  0  0  0  0  0
  -22.6440  -12.2470   22.3480 H   0  0  0  0  0  0  0  0  0  0  0  0
  -21.3440  -13.3750   22.0930 H   0  0  0  0  0  0  0  0  0  0  0  0
  -25.6740  -15.4060   20.2430 N   0  0  0  0  0  0  0  0  0  0  0  0
  -24.9030  -16.0600   20.3250 H   0  0  0  0  0  0  0  0  0  0  0  0
  -26.5300  -15.8400   19.9240 H   0  0  0  0  0  0  0  0  0  0  0  0
  -27.2960  -24.3940   17.6290 C   0  0  0  0  0  2  0  0  0  0  0  0
  -28.6710  -23.8700   17.2300 C   0  0  0  0  0  2  0  0  0  0  0  0
  -27.6960  -24.0490   19.0610 C   0  0  0  0  0  2  0  0  0  0  0  0
  -29.2040  -24.0320   18.6870 C   0  0  1  0  0  0  0  0  0  0  0  0
  -31.0480  -25.2800   20.1120 C   0  0  0  0  0  1  0  0  0  0  0  0
  -30.0550  -25.3330   18.9310 C   0  0  0  0  0  3  0  0  0  0  0  0
  -29.2820  -26.6900   18.9560 C   0  0  0  0  0  2  0  0  0  0  0  0
  -28.6670  -26.9680   20.2160 O   0  0  0  0  0  0  0  0  0  0  0  0
  -24.6950  -31.9900   23.3300 C   0  0  0  0  0  0  0  0  0  0  0  0
  -27.4860  -27.6780   20.1920 C   0  0  0  0  0  0  0  0  0  0  0  0
  -23.5370  -30.5730   21.6670 C   0  0  0  0  0  3  0  0  0  0  0  0
  -25.0420  -29.1020   20.2320 C   0  0  0  0  0  0  0  0  0  0  0  0
  -26.0520  -31.0040   21.4920 C   0  0  0  0  0  2  0  0  0  0  0  0
  -26.1800  -29.6430   20.8440 C   0  0  0  0  0  0  0  0  0  0  0  0
  -27.3990  -28.9280   20.8430 C   0  0  0  0  0  3  0  0  0  0  0  0
  -26.3280  -27.1560   19.5720 C   0  0  0  0  0  3  0  0  0  0  0  0
  -25.1090  -27.8500   19.6030 C   0  0  0  0  0  3  0  0  0  0  0  0
  -23.7720  -29.9180   20.2810 C   0  0  0  0  0  2  0  0  0  0  0  0
  -24.7780  -31.2030   22.2230 N   0  0  0  0  0  0  0  0  0  0  0  0
  -23.6030  -32.2300   23.8640 O   0  0  0  0  0  0  0  0  0  0  0  0
  -22.9100  -29.5210   22.6100 C   0  0  0  0  0  0  0  0  0  0  0  0
  -21.5950  -29.2960   22.4630 N   0  0  0  0  0  0  0  0  0  0  0  0
  -23.6030  -28.9130   23.4310 O   0  0  0  0  0  0  0  0  0  0  0  0
  -21.0960  -29.8380   21.7730 H   0  0  0  0  0  0  0  0  0  0  0  0
  -18.2570  -27.9930   22.9130 C   0  0  0  0  0  0  0  0  0  0  0  0
  -20.8000  -28.3280   23.2190 C   0  0  0  0  0  3  0  0  0  0  0  0
  -20.9570  -26.9050   22.6340 C   0  0  0  0  0  2  0  0  0  0  0  0
  -19.8780  -26.5540   21.6040 C   0  0  0  0  0  2  0  0  0  0  0  0
  -18.4840  -26.6530   22.2310 C   0  0  0  0  0  2  0  0  0  0  0  0
  -19.3440  -28.7860   23.3620 C   0  0  0  0  0  0  0  0  0  0  0  0
  -19.0800  -30.0390   23.9570 C   0  0  0  0  0  3  0  0  0  0  0  0
  -17.7580  -30.4990   24.1060 C   0  0  0  0  0  3  0  0  0  0  0  0
  -16.6840  -29.7040   23.6740 C   0  0  0  0  0  3  0  0  0  0  0  0
  -16.9340  -28.4520   23.0830 C   0  0  0  0  0  3  0  0  0  0  0  0
  -25.9600  -32.6480   23.9630 C   0  0  0  0  0  3  0  0  0  0  0  0
  -26.4730  -31.9000   25.2530 C   0  0  1  0  0  0  0  0  0  0  0  0
  -25.3640  -31.6370   26.2980 C   0  0  0  0  0  1  0  0  0  0  0  0
  -27.1020  -30.5360   24.8780 C   0  0  0  0  0  1  0  0  0  0  0  0
  -27.5900  -32.7280   25.9310 C   0  0  0  0  0  1  0  0  0  0  0  0
  -25.6240  -34.0460   24.2690 N   0  0  0  0  0  0  0  0  0  0  0  0
  -25.9400  -35.0900   23.4900 C   0  0  0  0  0  0  0  0  0  0  0  0
  -26.6160  -34.9810   22.4630 O   0  0  0  0  0  0  0  0  0  0  0  0
  -25.0260  -34.2040   25.0650 H   0  0  0  0  0  0  0  0  0  0  0  0
  -24.1770  -36.8390   23.0960 C   0  0  0  0  0  1  0  0  0  0  0  0
  -25.4220  -36.4760   23.9200 C   0  0  0  0  0  3  0  0  0  0  0  0
  -27.5290  -37.4200   24.7520 C   0  0  0  0  0  1  0  0  0  0  0  0
  -26.4340  -37.5470   23.7940 N   0  0  0  0  0  0  0  0  0  0  0  0
  -26.0070  -38.4610   23.9190 H   0  0  0  0  0  0  0  0  0  0  0  0
  1  3  1  0
  2  5  1  0
  3  5  2  0
  4  2  2  0
  5  7  1  0
  6  1  2  0
  6  4  1  0
  8  6  1  0
  9 22  1  0
 10 15  1  0
 11 12  1  0
 11 10  1  0
 13 12  1  0
 13 26  1  0
 13 14  1  0
 15  9  1  0
 15 14  1  0
 16  9  2  0
 17 19  1  0
 17 21  1  0
 18 20  1  0
 19 22  1  0
 21  3  1  0
 21 18  1  0
 22 20  1  0
 23 24  2  0
 24 43  1  0
 25 24  1  0
 25 28  1  0
 26 23  1  0
 26 27  1  0
 27 25  2  0
 28 29  1  0
 29 30  2  0
 31 34  1  0
 31 30  1  0
 32 31  2  0
 33 32  1  0
 33 28  2  0
 34 35  1  0
 35 40  2  0
 35 36  1  0
 36 37  2  0
 37 38  1  0
 38 42  1  0
 39 38  2  0
 40 39  1  0
 41 40  1  0
 43 44  1  0
 44 47  1  0
 44 46  1  0
 45 43  2  0
 48 49  1  0
 48 23  1  0
 50 48  1  0
 51 53  1  0
 52 51  1  0
 52 54  1  0
 54 56  1  6
 54 53  1  0
 54  4  1  0
 56 57  1  0
 56 55  1  0
 57 58  1  0
 59 70  2  0
 60 58  1  0
 60 65  1  0
 61 69  1  0
 61 71  1  0
 62 68  1  0
 62 64  1  0
 63 69  1  0
 64 63  1  0
 65 64  2  0
 66 67  1  0
 66 60  2  0
 67 62  2  0
 68 61  1  0
 69 59  1  0
 71 73  2  0
 72 71  1  0
 74 72  1  0
 75 84  2  0
 75 80  1  0
 76 72  1  0
 76 80  1  0
 77 76  1  0
 78 79  1  0
 78 77  1  0
 79 75  1  0
 80 81  2  0
 81 82  1  0
 83 82  2  0
 84 83  1  0
 85 59  1  0
 85 90  1  0
 85 86  1  0
 86 89  1  1
 86 87  1  0
 88 86  1  0
 90 93  1  0
 91 95  1  0
 91 90  1  0
 92 91  2  0
 95 94  1  0
 97 98  1  0
 97 95  1  0
 97 96  1  0
M  ISO  4   9 100  22 100  57 101  58 101
M  END
>  <TORSDO>  (100) 
F 19

>  <SCORE>  (100) 
-13.996

>  <name>  (100) 
99

>  <ligand_id>  (100) 
99

>  <original_smiles>  (100) 
[H]c1c([H])c([H])c2c(c1[H])C([H])([H])C([H])([H])C([H])([H])C2([H])N([H])C(=O)C1([H])N(C(=O)C([H])(N([H])C(=O)C([H])(N([H])C([H])([H])[H])C([H])([H])[H])C(C([H])([H])[H])(C([H])([H])[H])C([H])([H])[H])C([H])([H])c2c([H])c(OC([H])([H])C([H])(C([H])([H])[H])C3(c4c([H])c(C([H])([H])[H])c(C5([H])C([H])([H])C([H])([H])N(C(=O)N6C([H])([H])C([H])([H])C([H])([H])C([H])(n7nc(-c8c([H])c([H])c(Oc9c([H])c([H])c(F)c([H])c9F)c([H])c8[H])c(C(=O)N([H])[H])c7N([H])[H])C6([H])[H])C([H])([H])C5([H])[H])c([H])c4C([H])([H])[H])C([H])([H])C([H])([H])C3([H])[H])c([H])c([H])c2C1([H])[H]

>  <smiles>  (100) 
[H]c1c([H])c([H])c2c(c1[H])C([H])([H])C([H])([H])C([H])([H])C2([H])N([H])C(=O)C1([H])N(C(=O)C([H])(N([H])C(=O)C([H])(N([H])C([H])([H])[H])C([H])([H])[H])C(C([H])([H])[H])(C([H])([H])[H])C([H])([H])[H])C([H])([H])c2c([H])c(OC([H])([H])C([H])(C([H])([H])[H])C3(c4c([H])c(C([H])([H])[H])c(C5([H])C([H])([H])C([H])([H])N(C(=O)N6C([H])([H])C([H])([H])C([H])([H])C([H])(n7nc(-c8c([H])c([H])c(Oc9c([H])c([H])c(F)c([H])c9F)c([H])c8[H])c(C(=O)N([H])[H])c7N([H])[H])C6([H])[H])C([H])([H])C5([H])[H])c([H])c4C([H])([H])[H])C([H])([H])C([H])([H])C3([H])[H])c([H])c([H])c2C1([H])[H]

$$$$
