0:0:0
     RDKit          3D

 98108  0  0  1  0  0  0  0  0999 V2000
  -30.3810  -20.9670   19.5180 C   0  0  0  0  0  2  0  0  0  0  0  0
  -30.1310  -21.5580   21.7760 C   0  0  0  0  0  2  0  0  0  0  0  0
  -31.0240  -19.6900   20.3490 C   0  0  0  0  0  3  0  0  0  0  0  0
  -30.3570  -19.9920   21.7130 C   0  0  0  0  0  3  0  0  0  0  0  0
  -31.1850  -19.4930   22.9120 C   0  0  0  0  0  1  0  0  0  0  0  0
  -29.7460  -22.0650   20.4300 N   0  0  1  0  0  4  0  0  0  0  0  0
  -28.7560  -21.8710   20.3560 H   0  0  0  0  0  0  0  0  0  0  0  0
  -30.5960  -16.8470   20.1400 C   0  0  0  0  0  0  0  0  0  0  0  0
  -31.2690  -18.1310   19.7670 C   0  0  0  0  0  0  0  0  0  0  0  0
  -31.3890  -18.1220   18.3650 C   0  0  0  0  0  0  0  0  0  0  0  0
  -29.2420  -17.1030   19.8070 C   0  0  0  0  0  0  0  0  0  0  0  0
  -30.1500  -17.9470   17.6980 C   0  0  0  0  0  0  0  0  0  0  0  0
  -29.0060  -17.6700   18.5040 C   0  0  0  0  0  0  0  0  0  0  0  0
  -28.1950  -17.0110   20.9120 C   0  0  0  0  0  1  0  0  0  0  0  0
  -30.0520  -18.1230   16.1890 C   0  0  0  0  0  1  0  0  0  0  0  0
  -27.6320  -18.0440   17.9670 C   0  0  0  0  0  1  0  0  0  0  0  0
  -31.1990  -15.3460   19.8650 C   0  0  0  0  0  0  0  0  0  0  0  0
  -30.9210  -12.9700   18.9690 C   0  0  0  0  0  2  0  0  0  0  0  0
  -29.9280  -12.9400   17.7800 C   0  0  0  0  0  2  0  0  0  0  0  0
  -28.4730  -12.8030   18.2690 C   0  0  0  0  0  2  0  0  0  0  0  0
  -28.1610  -13.7320   19.4720 C   0  0  0  0  0  3  0  0  0  0  0  0
  -29.2870  -13.6930   20.5360 C   0  0  0  0  0  2  0  0  0  0  0  0
  -30.5360  -14.1010   19.8760 N   0  0  0  0  0  0  0  0  0  0  0  0
  -32.3780  -15.2870   19.4940 O   0  0  0  0  0  0  0  0  0  0  0  0
  -25.8440  -14.3820   20.3640 C   0  0  0  0  0  0  0  0  0  0  0  0
  -24.7690  -13.6620   20.7750 C   0  0  0  0  0  0  0  0  0  0  0  0
  -25.1460  -12.2960   20.6300 C   0  0  0  0  0  0  0  0  0  0  0  0
  -26.8370  -13.4760   20.0350 N   0  0  0  0  0  0  0  0  0  0  0  0
  -26.4150  -12.2010   20.2430 N   0  0  0  0  0  0  0  0  0  0  0  0
  -24.3400  -11.0810   20.7800 C   0  0  0  0  0  0  0  0  0  0  0  0
  -24.6970  -10.0710   21.6970 C   0  0  0  0  0  3  0  0  0  0  0  0
  -23.8900   -8.9230   21.8400 C   0  0  0  0  0  3  0  0  0  0  0  0
  -22.7130   -8.7820   21.0650 C   0  0  0  0  0  0  0  0  0  0  0  0
  -22.3760   -9.7830   20.1380 C   0  0  0  0  0  3  0  0  0  0  0  0
  -23.1840  -10.9210   19.9910 C   0  0  0  0  0  3  0  0  0  0  0  0
  -21.8800   -7.6910   21.1200 O   0  0  0  0  0  0  0  0  0  0  0  0
  -21.6940   -6.9900   22.2840 C   0  0  0  0  0  0  0  0  0  0  0  0
  -21.1780   -7.6010   23.4490 C   0  0  0  0  0  3  0  0  0  0  0  0
  -20.9350   -6.8240   24.6000 C   0  0  0  0  0  3  0  0  0  0  0  0
  -21.2010   -5.4430   24.5860 C   0  0  0  0  0  0  0  0  0  0  0  0
  -21.7120   -4.8340   23.4270 C   0  0  0  0  0  3  0  0  0  0  0  0
  -21.9550   -5.6060   22.2770 C   0  0  0  0  0  0  0  0  0  0  0  0
  -22.4260   -5.0110   21.1540 F   0  0  0  0  0  0  0  0  0  0  0  0
  -20.9620   -4.6970   25.6910 F   0  0  0  0  0  0  0  0  0  0  0  0
  -23.4310  -14.2190   21.1650 C   0  0  0  0  0  0  0  0  0  0  0  0
  -22.7220  -13.5340   22.0520 N   0  0  0  0  0  0  0  0  0  0  0  0
  -23.0330  -15.3000   20.7250 O   0  0  0  0  0  0  0  0  0  0  0  0
  -23.0660  -12.6580   22.4200 H   0  0  0  0  0  0  0  0  0  0  0  0
  -21.8270  -13.8810   22.3640 H   0  0  0  0  0  0  0  0  0  0  0  0
  -26.0110  -15.7410   20.2110 N   0  0  0  0  0  0  0  0  0  0  0  0
  -25.2400  -16.3840   20.3410 H   0  0  0  0  0  0  0  0  0  0  0  0
  -26.8610  -16.1780   19.8740 H   0  0  0  0  0  0  0  0  0  0  0  0
  -33.8630  -19.0480   18.2120 C   0  0  0  0  0  2  0  0  0  0  0  0
  -33.1250  -19.5490   16.9910 C   0  0  0  0  0  2  0  0  0  0  0  0
  -32.7020  -18.2620   17.6500 C   0  0  0  0  0  3  0  0  0  0  0  0
  -29.8740  -23.6420   20.1640 C   0  0  0  0  0  3  0  0  0  0  0  0
  -28.6340  -24.7790   20.3900 C   0  0  0  0  0  3  0  0  0  0  0  0
  -28.7280  -26.3430   20.3220 O   0  0  0  0  0  0  0  0  0  0  0  0
  -24.5930  -31.7850   23.1300 C   0  0  0  0  0  0  0  0  0  0  0  0
  -27.5740  -27.2150   20.2440 C   0  0  0  0  0  0  0  0  0  0  0  0
  -23.5230  -30.2630   21.5100 C   0  0  0  0  0  3  0  0  0  0  0  0
  -25.1090  -28.7700   20.1430 C   0  0  0  0  0  0  0  0  0  0  0  0
  -26.0490  -30.7220   21.3670 C   0  0  0  0  0  2  0  0  0  0  0  0
  -26.2410  -29.3230   20.7530 C   0  0  0  0  0  0  0  0  0  0  0  0
  -27.4720  -28.5630   20.7830 C   0  0  0  0  0  3  0  0  0  0  0  0
  -26.4030  -26.7600   19.5950 C   0  0  0  0  0  3  0  0  0  0  0  0
  -25.2020  -27.5030   19.5490 C   0  0  0  0  0  3  0  0  0  0  0  0
  -23.8150  -29.5720   20.1530 C   0  0  0  0  0  2  0  0  0  0  0  0
  -24.7390  -30.9480   22.0580 N   0  0  0  0  0  0  0  0  0  0  0  0
  -23.4810  -31.9990   23.6380 O   0  0  0  0  0  0  0  0  0  0  0  0
  -22.9090  -29.2300   22.4910 C   0  0  0  0  0  0  0  0  0  0  0  0
  -21.5960  -28.9640   22.3570 N   0  0  0  0  0  0  0  0  0  0  0  0
  -23.6170  -28.6710   23.3320 O   0  0  0  0  0  0  0  0  0  0  0  0
  -21.0800  -29.4700   21.6520 H   0  0  0  0  0  0  0  0  0  0  0  0
  -18.3030  -27.5450   22.8670 C   0  0  0  0  0  0  0  0  0  0  0  0
  -20.8370  -27.9870   23.1420 C   0  0  0  0  0  3  0  0  0  0  0  0
  -21.0390  -26.5550   22.5940 C   0  0  0  0  0  2  0  0  0  0  0  0
  -19.9690  -26.1390   21.5810 C   0  0  0  0  0  2  0  0  0  0  0  0
  -18.5770  -26.2000   22.2150 C   0  0  0  0  0  2  0  0  0  0  0  0
  -19.3640  -28.3900   23.2860 C   0  0  0  0  0  0  0  0  0  0  0  0
  -19.0560  -29.6440   23.8580 C   0  0  0  0  0  3  0  0  0  0  0  0
  -17.7190  -30.0560   24.0120 C   0  0  0  0  0  3  0  0  0  0  0  0
  -16.6720  -29.2100   23.6080 C   0  0  0  0  0  3  0  0  0  0  0  0
  -16.9660  -27.9560   23.0420 C   0  0  0  0  0  3  0  0  0  0  0  0
  -25.8100  -32.5310   23.7580 C   0  0  0  0  0  3  0  0  0  0  0  0
  -26.3810  -31.8120   25.0410 C   0  0  1  0  0  0  0  0  0  0  0  0
  -25.3000  -31.4590   26.0900 C   0  0  0  0  0  1  0  0  0  0  0  0
  -27.1080  -30.5010   24.6610 C   0  0  0  0  0  1  0  0  0  0  0  0
  -27.4320  -32.7180   25.7230 C   0  0  0  0  0  1  0  0  0  0  0  0
  -25.3780  -33.9000   24.0840 N   0  0  0  0  0  0  0  0  0  0  0  0
  -25.6610  -34.9850   23.3510 C   0  0  0  0  0  0  0  0  0  0  0  0
  -26.3760  -34.9440   22.3470 O   0  0  0  0  0  0  0  0  0  0  0  0
  -24.7430  -33.9990   24.8630 H   0  0  0  0  0  0  0  0  0  0  0  0
  -23.8330  -36.6630   22.9330 C   0  0  0  0  0  1  0  0  0  0  0  0
  -25.0550  -36.3280   23.8020 C   0  0  0  0  0  3  0  0  0  0  0  0
  -27.0800  -37.3440   24.7560 C   0  0  0  0  0  1  0  0  0  0  0  0
  -26.0170  -37.4530   23.7590 N   0  0  0  0  0  0  0  0  0  0  0  0
  -25.5390  -38.3390   23.9030 H   0  0  0  0  0  0  0  0  0  0  0  0
  1  3  1  0
  1  6  1  0
  3  9  1  0
  3  4  1  0
  4  2  1  0
  4  5  1  0
  6  2  1  0
  6  7  1  1
  9  8  2  0
 10  9  1  0
 11  8  1  0
 11 14  1  0
 12 10  2  0
 12 13  1  0
 13 11  2  0
 15 12  1  0
 16 13  1  0
 17 23  1  0
 17  8  1  0
 18 23  1  0
 19 20  1  0
 19 18  1  0
 21 20  1  0
 21 28  1  0
 21 22  1  0
 23 22  1  0
 24 17  2  0
 25 26  2  0
 26 45  1  0
 27 26  1  0
 27 30  1  0
 28 29  1  0
 28 25  1  0
 29 27  2  0
 30 31  1  0
 31 32  2  0
 33 36  1  0
 33 32  1  0
 34 33  2  0
 35 34  1  0
 35 30  2  0
 36 37  1  0
 37 38  1  0
 38 39  2  0
 40 39  1  0
 40 44  1  0
 41 40  2  0
 42 37  2  0
 42 41  1  0
 43 42  1  0
 45 46  1  0
 46 49  1  0
 46 48  1  0
 47 45  2  0
 50 51  1  0
 50 25  1  0
 52 50  1  0
 54 55  1  0
 54 53  1  0
 55 53  1  0
 55 10  1  0
 56 57  2  0
 56  6  1  0
 58 57  1  0
 59 70  2  0
 60 58  1  0
 60 65  1  0
 61 69  1  0
 61 71  1  0
 62 68  1  0
 62 64  1  0
 63 69  1  0
 64 65  2  0
 64 63  1  0
 66 60  2  0
 67 66  1  0
 67 62  2  0
 68 61  1  0
 69 59  1  0
 71 73  2  0
 72 71  1  0
 74 72  1  0
 75 84  2  0
 75 80  1  0
 76 72  1  0
 76 80  1  0
 77 76  1  0
 78 79  1  0
 78 77  1  0
 79 75  1  0
 80 81  2  0
 81 82  1  0
 83 82  2  0
 84 83  1  0
 85 59  1  0
 85 90  1  0
 85 86  1  0
 86 89  1  1
 86 87  1  0
 88 86  1  0
 90 93  1  0
 91 95  1  0
 91 90  1  0
 92 91  2  0
 95 94  1  0
 97 95  1  0
 97 98  1  0
 97 96  1  0
M  ISO  4   8 100  17 100  57 101  58 101
M  END
>  <TORSDO>  (1) 
F 20

>  <SCORE>  (1) 
-12.857

>  <name>  (1) 
0

>  <ligand_id>  (1) 
0

>  <original_smiles>  (1) 
[H]c1c([H])c([H])c2c(c1[H])C([H])([H])C([H])([H])C([H])([H])C2([H])N([H])C(=O)C1([H])N(C(=O)C([H])(N([H])C(=O)C([H])(N([H])C([H])([H])[H])C([H])([H])[H])C(C([H])([H])[H])(C([H])([H])[H])C([H])([H])[H])C([H])([H])c2c([H])c(OC([H])([H])C([H])([H])[N+]3([H])C([H])([H])C([H])(c4c(C(=O)N5C([H])([H])C([H])([H])C([H])([H])C([H])(n6nc(-c7c([H])c([H])c(Oc8c([H])c([H])c(F)c([H])c8F)c([H])c7[H])c(C(=O)N([H])[H])c6N([H])[H])C5([H])[H])c(C([H])([H])[H])c(C([H])([H])[H])c(C([H])([H])[H])c4C4([H])C([H])([H])C4([H])[H])C([H])(C([H])([H])[H])C3([H])[H])c([H])c([H])c2C1([H])[H]

>  <smiles>  (1) 
[H]c1c([H])c([H])c2c(c1[H])C([H])([H])C([H])([H])C([H])([H])C2([H])N([H])C(=O)C1([H])N(C(=O)C([H])(N([H])C(=O)C([H])(N([H])C([H])([H])[H])C([H])([H])[H])C(C([H])([H])[H])(C([H])([H])[H])C([H])([H])[H])C([H])([H])c2c([H])c(OC([H])([H])C([H])([H])[N+]3([H])C([H])([H])C([H])(c4c(C(=O)N5C([H])([H])C([H])([H])C([H])([H])C([H])(n6nc(-c7c([H])c([H])c(Oc8c([H])c([H])c(F)c([H])c8F)c([H])c7[H])c(C(=O)N([H])[H])c6N([H])[H])C5([H])[H])c(C([H])([H])[H])c(C([H])([H])[H])c(C([H])([H])[H])c4C4([H])C([H])([H])C4([H])[H])C([H])(C([H])([H])[H])C3([H])[H])c([H])c([H])c2C1([H])[H]

$$$$
1:0:0
     RDKit          3D

 98109  0  0  1  0  0  0  0  0999 V2000
  -29.6780  -20.2620   21.4670 C   0  0  0  0  0  3  0  0  0  0  0  0
  -29.2800  -21.1330   18.8140 C   0  0  0  0  0  0  0  0  0  0  0  0
  -29.0550  -22.0340   19.8940 C   0  0  0  0  0  0  0  0  0  0  0  0
  -29.7340  -19.8110   19.0740 C   0  0  0  0  0  0  0  0  0  0  0  0
  -29.2340  -21.5730   21.2240 C   0  0  0  0  0  0  0  0  0  0  0  0
  -29.9180  -19.3720   20.4020 C   0  0  0  0  0  0  0  0  0  0  0  0
  -29.0230  -21.5800   17.3740 C   0  0  0  0  0  2  0  0  0  0  0  0
  -29.9780  -18.8060   17.9490 C   0  0  0  0  0  2  0  0  0  0  0  0
  -28.8550  -20.4240   16.3820 C   0  0  0  0  0  2  0  0  0  0  0  0
  -29.9880  -19.4150   16.5430 C   0  0  0  0  0  2  0  0  0  0  0  0
  -28.9330  -22.4540   22.4270 C   0  0  0  0  0  1  0  0  0  0  0  0
  -29.3050  -24.4260   18.7290 C   0  0  0  0  0  2  0  0  0  0  0  0
  -28.5910  -23.4510   19.6430 C   0  0  0  0  0  3  0  0  0  0  0  0
  -29.3410  -24.6370   20.2200 C   0  0  0  0  0  3  0  0  0  0  0  0
  -28.5830  -25.7600   20.8970 C   0  0  0  0  0  2  0  0  0  0  0  0
  -28.5960  -26.9330   20.0900 O   0  0  0  0  0  0  0  0  0  0  0  0
  -24.6520  -31.9500   23.2010 C   0  0  0  0  0  0  0  0  0  0  0  0
  -27.4120  -27.6180   20.1060 C   0  0  0  0  0  0  0  0  0  0  0  0
  -23.4810  -30.5240   21.5490 C   0  0  0  0  0  3  0  0  0  0  0  0
  -24.9740  -29.0280   20.1240 C   0  0  0  0  0  0  0  0  0  0  0  0
  -25.9920  -30.9560   21.3520 C   0  0  0  0  0  2  0  0  0  0  0  0
  -26.1150  -29.5910   20.7120 C   0  0  0  0  0  0  0  0  0  0  0  0
  -27.3390  -28.8930   20.7010 C   0  0  0  0  0  3  0  0  0  0  0  0
  -26.2610  -27.0560   19.5160 C   0  0  0  0  0  3  0  0  0  0  0  0
  -25.0400  -27.7570   19.5250 C   0  0  0  0  0  3  0  0  0  0  0  0
  -23.7080  -29.8510   20.1700 C   0  0  0  0  0  2  0  0  0  0  0  0
  -24.7260  -31.1570   22.0940 N   0  0  0  0  0  0  0  0  0  0  0  0
  -23.5660  -32.1930   23.7420 O   0  0  0  0  0  0  0  0  0  0  0  0
  -22.8550  -29.4850   22.5060 C   0  0  0  0  0  0  0  0  0  0  0  0
  -21.5420  -29.2520   22.3560 N   0  0  0  0  0  0  0  0  0  0  0  0
  -23.5480  -28.8910   23.3360 O   0  0  0  0  0  0  0  0  0  0  0  0
  -21.0430  -29.7850   21.6570 H   0  0  0  0  0  0  0  0  0  0  0  0
  -18.2150  -27.9050   22.7640 C   0  0  0  0  0  0  0  0  0  0  0  0
  -20.7470  -28.2890   23.1160 C   0  0  0  0  0  3  0  0  0  0  0  0
  -20.9360  -26.8540   22.5680 C   0  0  0  0  0  2  0  0  0  0  0  0
  -19.8860  -26.4640   21.5250 C   0  0  0  0  0  2  0  0  0  0  0  0
  -18.4770  -26.5550   22.1200 C   0  0  0  0  0  2  0  0  0  0  0  0
  -19.2810  -28.7260   23.2180 C   0  0  0  0  0  0  0  0  0  0  0  0
  -18.9840  -29.9880   23.7760 C   0  0  0  0  0  3  0  0  0  0  0  0
  -17.6540  -30.4300   23.8890 C   0  0  0  0  0  3  0  0  0  0  0  0
  -16.6010  -29.6070   23.4540 C   0  0  0  0  0  3  0  0  0  0  0  0
  -16.8810  -28.3470   22.8970 C   0  0  0  0  0  3  0  0  0  0  0  0
  -25.9240  -32.6060   23.8240 C   0  0  0  0  0  3  0  0  0  0  0  0
  -26.4660  -31.8340   25.0910 C   0  0  1  0  0  0  0  0  0  0  0  0
  -25.3790  -31.5370   26.1500 C   0  0  0  0  0  1  0  0  0  0  0  0
  -27.1030  -30.4870   24.6770 C   0  0  0  0  0  1  0  0  0  0  0  0
  -27.5820  -32.6610   25.7710 C   0  0  0  0  0  1  0  0  0  0  0  0
  -25.5830  -33.9930   24.1660 N   0  0  0  0  0  0  0  0  0  0  0  0
  -25.8880  -35.0580   23.4120 C   0  0  0  0  0  0  0  0  0  0  0  0
  -26.5580  -34.9770   22.3780 O   0  0  0  0  0  0  0  0  0  0  0  0
  -24.9850  -34.1270   24.9680 H   0  0  0  0  0  0  0  0  0  0  0  0
  -24.1170  -36.8080   23.0670 C   0  0  0  0  0  1  0  0  0  0  0  0
  -25.3660  -36.4300   23.8770 C   0  0  0  0  0  3  0  0  0  0  0  0
  -27.4760  -37.3620   24.7190 C   0  0  0  0  0  1  0  0  0  0  0  0
  -26.3730  -37.5080   23.7730 N   0  0  0  0  0  0  0  0  0  0  0  0
  -25.9440  -38.4180   23.9240 H   0  0  0  0  0  0  0  0  0  0  0  0
  -30.3400  -18.0790   20.6020 O   0  0  0  0  0  0  0  0  0  0  0  0
  -30.7530  -14.4480   20.0240 C   0  0  0  0  0  0  0  0  0  0  0  0
  -30.3060  -12.3980   18.7170 C   0  0  0  0  0  2  0  0  0  0  0  0
  -29.2610  -12.6430   17.6130 C   0  0  0  0  0  2  0  0  0  0  0  0
  -27.8310  -12.4770   18.1590 C   0  0  0  0  0  2  0  0  0  0  0  0
  -27.6040  -13.2670   19.4740 C   0  0  0  0  0  3  0  0  0  0  0  0
  -28.7420  -12.9750   20.4770 C   0  0  0  0  0  2  0  0  0  0  0  0
  -30.0250  -13.3130   19.8330 N   0  0  0  0  0  0  0  0  0  0  0  0
  -31.7210  -14.7390   19.3120 O   0  0  0  0  0  0  0  0  0  0  0  0
  -30.9550  -16.9740   22.6420 C   0  0  0  0  0  2  0  0  0  0  0  0
  -31.5450  -15.7330   21.9690 C   0  0  0  0  0  2  0  0  0  0  0  0
  -29.3100  -16.0370   21.1900 C   0  0  0  0  0  2  0  0  0  0  0  0
  -29.8140  -17.3740   21.7220 C   0  0  0  0  0  3  0  0  0  0  0  0
  -30.4750  -15.1430   21.1490 N   0  0  0  0  0  0  0  0  0  0  0  0
  -25.2720  -13.8570   20.3940 C   0  0  0  0  0  0  0  0  0  0  0  0
  -24.2330  -13.0730   20.8200 C   0  0  0  0  0  0  0  0  0  0  0  0
  -24.6830  -11.7220   20.6980 C   0  0  0  0  0  0  0  0  0  0  0  0
  -26.2910  -12.9830   20.0480 N   0  0  0  0  0  0  0  0  0  0  0  0
  -25.9420  -11.6910   20.2830 N   0  0  0  0  0  0  0  0  0  0  0  0
  -23.9700  -10.4540   20.9000 C   0  0  0  0  0  0  0  0  0  0  0  0
  -24.4130   -9.5000   21.8430 C   0  0  0  0  0  3  0  0  0  0  0  0
  -23.7010   -8.2960   22.0310 C   0  0  0  0  0  3  0  0  0  0  0  0
  -22.5320   -8.0370   21.2750 C   0  0  0  0  0  0  0  0  0  0  0  0
  -22.1090   -8.9800   20.3210 C   0  0  0  0  0  3  0  0  0  0  0  0
  -22.8220  -10.1760   20.1320 C   0  0  0  0  0  3  0  0  0  0  0  0
  -21.7920   -6.8850   21.3710 O   0  0  0  0  0  0  0  0  0  0  0  0
  -21.6660   -6.2060   22.5570 C   0  0  0  0  0  0  0  0  0  0  0  0
  -21.1250   -6.8160   23.7100 C   0  0  0  0  0  3  0  0  0  0  0  0
  -20.9500   -6.0630   24.8890 C   0  0  0  0  0  3  0  0  0  0  0  0
  -21.3050   -4.7000   24.9130 C   0  0  0  0  0  0  0  0  0  0  0  0
  -21.8380   -4.0910   23.7630 C   0  0  0  0  0  3  0  0  0  0  0  0
  -22.0150   -4.8410   22.5880 C   0  0  0  0  0  0  0  0  0  0  0  0
  -22.5090   -4.2430   21.4780 F   0  0  0  0  0  0  0  0  0  0  0  0
  -21.1290   -3.9750   26.0420 F   0  0  0  0  0  0  0  0  0  0  0  0
  -22.8650  -13.5410   21.2270 C   0  0  0  0  0  0  0  0  0  0  0  0
  -22.2130  -12.8180   22.1320 N   0  0  0  0  0  0  0  0  0  0  0  0
  -22.3850  -14.5800   20.7790 O   0  0  0  0  0  0  0  0  0  0  0  0
  -22.6150  -11.9760   22.5170 H   0  0  0  0  0  0  0  0  0  0  0  0
  -21.3000  -13.1120   22.4460 H   0  0  0  0  0  0  0  0  0  0  0  0
  -25.4280  -15.2320   20.2550 N   0  0  0  0  0  0  0  0  0  0  0  0
  -24.6760  -15.8840   20.4520 H   0  0  0  0  0  0  0  0  0  0  0  0
  -26.2480  -15.6810   19.8690 H   0  0  0  0  0  0  0  0  0  0  0  0
  2  4  2  0
  2  3  1  0
  3  5  2  0
  4  6  1  0
  5  1  1  0
  5 11  1  0
  6 57  1  0
  6  1  2  0
  7  2  1  0
  8  4  1  0
  9 10  1  0
  9  7  1  0
 10  8  1  0
 12 13  1  0
 12 14  1  0
 13  3  1  0
 13 14  1  0
 14 15  1  0
 16 18  1  0
 16 15  1  0
 17 28  2  0
 18 23  1  0
 19 27  1  0
 19 29  1  0
 20 26  1  0
 20 22  1  0
 21 27  1  0
 22 21  1  0
 23 22  2  0
 24 25  1  0
 24 18  2  0
 25 20  2  0
 26 19  1  0
 27 17  1  0
 29 31  2  0
 30 29  1  0
 32 30  1  0
 33 42  2  0
 33 38  1  0
 34 30  1  0
 34 38  1  0
 35 34  1  0
 36 37  1  0
 36 35  1  0
 37 33  1  0
 38 39  2  0
 39 40  1  0
 41 40  2  0
 42 41  1  0
 43 17  1  0
 43 48  1  0
 43 44  1  0
 44 47  1  1
 44 45  1  0
 46 44  1  0
 48 51  1  0
 49 53  1  0
 49 48  1  0
 50 49  2  0
 53 52  1  0
 55 53  1  0
 55 56  1  0
 55 54  1  0
 58 70  1  0
 59 64  1  0
 60 61  1  0
 60 59  1  0
 62 61  1  0
 62 74  1  0
 62 63  1  0
 64 58  1  0
 64 63  1  0
 65 58  2  0
 67 66  1  0
 68 69  1  0
 69 57  1  0
 69 66  1  0
 70 68  1  0
 70 67  1  0
 71 72  2  0
 72 91  1  0
 73 72  1  0
 73 76  1  0
 74 75  1  0
 74 71  1  0
 75 73  2  0
 76 77  1  0
 77 78  2  0
 79 82  1  0
 79 78  1  0
 80 79  2  0
 81 80  1  0
 81 76  2  0
 82 83  1  0
 83 88  2  0
 83 84  1  0
 84 85  2  0
 85 86  1  0
 86 90  1  0
 87 86  2  0
 88 87  1  0
 89 88  1  0
 91 92  1  0
 92 95  1  0
 92 94  1  0
 93 91  2  0
 96 71  1  0
 96 97  1  0
 98 96  1  0
M  ISO  4  15 101  16 101  58 100  70 100
M  END
>  <TORSDO>  (2) 
F 19

>  <SCORE>  (2) 
-13.439

>  <name>  (2) 
1

>  <ligand_id>  (2) 
1

>  <original_smiles>  (2) 
[H]c1c([H])c([H])c2c(c1[H])C([H])([H])C([H])([H])C([H])([H])C2([H])N([H])C(=O)C1([H])N(C(=O)C([H])(N([H])C(=O)C([H])(N([H])C([H])([H])[H])C([H])([H])[H])C(C([H])([H])[H])(C([H])([H])[H])C([H])([H])[H])C([H])([H])c2c([H])c(OC([H])([H])C3([H])C([H])([H])C3([H])c3c(C([H])([H])[H])c([H])c(OC4([H])C([H])([H])N(C(=O)N5C([H])([H])C([H])([H])C([H])([H])C([H])(n6nc(-c7c([H])c([H])c(Oc8c([H])c([H])c(F)c([H])c8F)c([H])c7[H])c(C(=O)N([H])[H])c6N([H])[H])C5([H])[H])C([H])([H])C4([H])[H])c4c3C([H])([H])C([H])([H])C([H])([H])C4([H])[H])c([H])c([H])c2C1([H])[H]

>  <smiles>  (2) 
[H]c1c([H])c([H])c2c(c1[H])C([H])([H])C([H])([H])C([H])([H])C2([H])N([H])C(=O)C1([H])N(C(=O)C([H])(N([H])C(=O)C([H])(N([H])C([H])([H])[H])C([H])([H])[H])C(C([H])([H])[H])(C([H])([H])[H])C([H])([H])[H])C([H])([H])c2c([H])c(OC([H])([H])C3([H])C([H])([H])C3([H])c3c(C([H])([H])[H])c([H])c(OC4([H])C([H])([H])N(C(=O)N5C([H])([H])C([H])([H])C([H])([H])C([H])(n6nc(-c7c([H])c([H])c(Oc8c([H])c([H])c(F)c([H])c8F)c([H])c7[H])c(C(=O)N([H])[H])c6N([H])[H])C5([H])[H])C([H])([H])C4([H])[H])c4c3C([H])([H])C([H])([H])C([H])([H])C4([H])[H])c([H])c([H])c2C1([H])[H]

$$$$
2:0:0
     RDKit          3D

 96106  0  0  1  0  0  0  0  0999 V2000
  -30.0660  -19.5100   19.2120 C   0  0  0  0  0  3  0  0  0  0  0  0
  -28.9010  -18.2960   20.9440 C   0  0  0  0  0  3  0  0  0  0  0  0
  -29.3730  -20.6700   19.6160 C   0  0  0  0  0  0  0  0  0  0  0  0
  -29.8820  -18.3020   19.9370 C   0  0  0  0  0  0  0  0  0  0  0  0
  -28.5280  -20.5750   20.7370 C   0  0  0  0  0  0  0  0  0  0  0  0
  -28.0820  -21.8310   21.4290 C   0  0  0  0  0  0  0  0  0  0  0  0
  -29.5590  -22.0470   18.9470 C   0  0  0  0  0  2  0  0  0  0  0  0
  -29.4100  -23.2660   19.9380 C   0  0  0  0  0  3  0  0  0  0  0  0
  -28.2380  -19.3970   21.3300 N   0  0  0  0  0  0  0  0  0  0  0  0
  -28.9830  -22.8250   21.2840 N   0  0  0  0  0  0  0  0  0  0  0  0
  -27.1780  -21.8290   22.2730 O   0  0  0  0  0  0  0  0  0  0  0  0
  -29.7610  -22.8860   23.7510 C   0  0  0  0  0  2  0  0  0  0  0  0
  -30.9470  -23.1560   22.8550 C   0  0  0  0  0  2  0  0  0  0  0  0
  -29.5540  -23.5450   22.3910 C   0  0  0  0  0  3  0  0  0  0  0  0
  -30.7180  -17.0580   19.5980 C   0  0  0  0  0  2  0  0  0  0  0  0
  -31.1150  -14.6760   20.1030 C   0  0  0  0  0  0  0  0  0  0  0  0
  -30.8260  -12.3990   19.2440 C   0  0  0  0  0  2  0  0  0  0  0  0
  -29.8960  -12.5030   18.0150 C   0  0  0  0  0  2  0  0  0  0  0  0
  -28.4140  -12.4010   18.4390 C   0  0  0  0  0  2  0  0  0  0  0  0
  -28.0690  -13.3410   19.6260 C   0  0  0  0  0  3  0  0  0  0  0  0
  -29.1240  -13.2630   20.7550 C   0  0  0  0  0  2  0  0  0  0  0  0
  -30.4510  -13.4880   20.1640 N   0  0  0  0  0  0  0  0  0  0  0  0
  -32.2630  -14.7650   19.6730 O   0  0  0  0  0  0  0  0  0  0  0  0
  -30.3740  -15.7900   20.2620 N   0  0  0  0  0  0  0  0  0  0  0  0
  -29.4620  -15.6870   20.6740 H   0  0  0  0  0  0  0  0  0  0  0  0
  -25.7390  -14.0300   20.4870 C   0  0  0  0  0  0  0  0  0  0  0  0
  -24.6350  -13.2960   20.8410 C   0  0  0  0  0  0  0  0  0  0  0  0
  -24.9980  -11.9270   20.6560 C   0  0  0  0  0  0  0  0  0  0  0  0
  -26.7090  -13.1070   20.1270 N   0  0  0  0  0  0  0  0  0  0  0  0
  -26.2690  -11.8310   20.2840 N   0  0  0  0  0  0  0  0  0  0  0  0
  -24.1940  -10.7060   20.7550 C   0  0  0  0  0  0  0  0  0  0  0  0
  -24.6190   -9.6090   21.5320 C   0  0  0  0  0  3  0  0  0  0  0  0
  -23.8240   -8.4490   21.6170 C   0  0  0  0  0  3  0  0  0  0  0  0
  -22.5890   -8.3810   20.9320 C   0  0  0  0  0  0  0  0  0  0  0  0
  -22.1840   -9.4670   20.1320 C   0  0  0  0  0  3  0  0  0  0  0  0
  -22.9810  -10.6200   20.0450 C   0  0  0  0  0  3  0  0  0  0  0  0
  -21.7590   -7.2840   20.9550 O   0  0  0  0  0  0  0  0  0  0  0  0
  -21.7740   -6.3840   21.9890 C   0  0  0  0  0  0  0  0  0  0  0  0
  -21.5240   -6.7810   23.3210 C   0  0  0  0  0  3  0  0  0  0  0  0
  -21.4770   -5.8180   24.3490 C   0  0  0  0  0  3  0  0  0  0  0  0
  -21.6660   -4.4580   24.0440 C   0  0  0  0  0  0  0  0  0  0  0  0
  -21.9120   -4.0580   22.7180 C   0  0  0  0  0  3  0  0  0  0  0  0
  -21.9620   -5.0180   21.6930 C   0  0  0  0  0  0  0  0  0  0  0  0
  -22.1800   -4.6260   20.4130 F   0  0  0  0  0  0  0  0  0  0  0  0
  -21.6110   -3.5270   25.0270 F   0  0  0  0  0  0  0  0  0  0  0  0
  -23.2800  -13.8330   21.2100 C   0  0  0  0  0  0  0  0  0  0  0  0
  -22.5440  -13.1070   22.0500 N   0  0  0  0  0  0  0  0  0  0  0  0
  -22.8840  -14.9190   20.7980 O   0  0  0  0  0  0  0  0  0  0  0  0
  -22.8690  -12.2220   22.4100 H   0  0  0  0  0  0  0  0  0  0  0  0
  -21.6390  -13.4490   22.3350 H   0  0  0  0  0  0  0  0  0  0  0  0
  -26.0030  -15.3900   20.4100 N   0  0  0  0  0  0  0  0  0  0  0  0
  -25.3240  -16.1110   20.6290 H   0  0  0  0  0  0  0  0  0  0  0  0
  -26.8220  -15.7450   19.9340 H   0  0  0  0  0  0  0  0  0  0  0  0
  -28.4440  -24.4040   19.4490 C   0  0  0  0  0  2  0  0  0  0  0  0
  -29.0640  -25.6370   18.7180 C   0  0  0  0  0  2  0  0  0  0  0  0
  -28.9150  -26.9100   19.4080 O   0  0  0  0  0  0  0  0  0  0  0  0
  -24.7090  -31.4020   23.0710 C   0  0  0  0  0  0  0  0  0  0  0  0
  -27.6800  -27.5470   19.4730 C   0  0  0  0  0  0  0  0  0  0  0  0
  -23.6100  -30.1080   21.2830 C   0  0  0  0  0  3  0  0  0  0  0  0
  -25.1640  -28.8730   19.6790 C   0  0  0  0  0  0  0  0  0  0  0  0
  -26.1040  -30.6760   21.1310 C   0  0  0  0  0  2  0  0  0  0  0  0
  -26.2890  -29.4030   20.3240 C   0  0  0  0  0  0  0  0  0  0  0  0
  -27.5430  -28.7510   20.2150 C   0  0  0  0  0  3  0  0  0  0  0  0
  -26.5250  -27.0350   18.8340 C   0  0  0  0  0  3  0  0  0  0  0  0
  -25.2820  -27.6900   18.9280 C   0  0  0  0  0  3  0  0  0  0  0  0
  -23.8560  -29.6220   19.8340 C   0  0  0  0  0  2  0  0  0  0  0  0
  -24.8280  -30.7360   21.8880 N   0  0  0  0  0  0  0  0  0  0  0  0
  -23.6150  -31.5170   23.6420 O   0  0  0  0  0  0  0  0  0  0  0  0
  -23.0540  -28.9270   22.1090 C   0  0  0  0  0  0  0  0  0  0  0  0
  -21.7500  -28.6460   21.9530 N   0  0  0  0  0  0  0  0  0  0  0  0
  -23.7930  -28.2700   22.8470 O   0  0  0  0  0  0  0  0  0  0  0  0
  -21.2040  -29.2340   21.3400 H   0  0  0  0  0  0  0  0  0  0  0  0
  -18.5040  -27.0950   22.2690 C   0  0  0  0  0  0  0  0  0  0  0  0
  -21.0240  -27.5570   22.6070 C   0  0  0  0  0  3  0  0  0  0  0  0
  -21.2650  -26.2130   21.8830 C   0  0  0  0  0  2  0  0  0  0  0  0
  -20.2020  -25.9000   20.8230 C   0  0  0  0  0  2  0  0  0  0  0  0
  -18.8090  -25.8480   21.4560 C   0  0  0  0  0  2  0  0  0  0  0  0
  -19.5440  -27.9040   22.7960 C   0  0  0  0  0  0  0  0  0  0  0  0
  -19.2050  -29.0740   23.5120 C   0  0  0  0  0  3  0  0  0  0  0  0
  -17.8580  -29.4350   23.7060 C   0  0  0  0  0  3  0  0  0  0  0  0
  -16.8320  -28.6190   23.1980 C   0  0  0  0  0  3  0  0  0  0  0  0
  -17.1560  -27.4510   22.4830 C   0  0  0  0  0  3  0  0  0  0  0  0
  -25.9400  -32.0640   23.7580 C   0  0  0  0  0  3  0  0  0  0  0  0
  -26.4640  -31.2520   25.0050 C   0  0  1  0  0  0  0  0  0  0  0  0
  -25.3610  -30.9140   26.0350 C   0  0  0  0  0  1  0  0  0  0  0  0
  -27.1190  -29.9260   24.5570 C   0  0  0  0  0  1  0  0  0  0  0  0
  -27.5580  -32.0630   25.7410 C   0  0  0  0  0  1  0  0  0  0  0  0
  -25.5460  -33.4220   24.1570 N   0  0  0  0  0  0  0  0  0  0  0  0
  -25.8590  -34.5350   23.4810 C   0  0  0  0  0  0  0  0  0  0  0  0
  -26.5790  -34.5310   22.4800 O   0  0  0  0  0  0  0  0  0  0  0  0
  -24.9070  -33.4940   24.9330 H   0  0  0  0  0  0  0  0  0  0  0  0
  -24.0480  -36.2550   23.1650 C   0  0  0  0  0  1  0  0  0  0  0  0
  -25.2790  -35.8680   24.0010 C   0  0  0  0  0  3  0  0  0  0  0  0
  -27.3280  -36.8100   24.9660 C   0  0  0  0  0  1  0  0  0  0  0  0
  -26.2540  -36.9780   23.9900 N   0  0  0  0  0  0  0  0  0  0  0  0
  -25.7950  -37.8650   24.1760 H   0  0  0  0  0  0  0  0  0  0  0  0
  1  3  2  0
  1  4  1  0
  2  9  1  0
  3  5  1  0
  4  2  2  0
  5  9  2  0
  5  6  1  0
  6 11  2  0
  7  3  1  0
  7  8  1  0
  8 54  1  0
  8 10  1  0
 10  6  1  0
 10 14  1  0
 13 12  1  0
 14 13  1  0
 14 12  1  0
 15  4  1  0
 15 24  1  0
 16 22  1  0
 16 24  1  0
 17 22  1  0
 18 19  1  0
 18 17  1  0
 20 19  1  0
 20 29  1  0
 20 21  1  0
 22 21  1  0
 23 16  2  0
 24 25  1  0
 26 27  2  0
 27 46  1  0
 28 31  1  0
 28 27  1  0
 29 30  1  0
 29 26  1  0
 30 28  2  0
 31 32  1  0
 32 33  2  0
 34 37  1  0
 34 33  1  0
 35 34  2  0
 36 35  1  0
 36 31  2  0
 37 38  1  0
 38 39  1  0
 39 40  2  0
 41 40  1  0
 41 45  1  0
 42 41  2  0
 43 38  2  0
 43 42  1  0
 44 43  1  0
 46 47  1  0
 47 50  1  0
 47 49  1  0
 48 46  2  0
 51 26  1  0
 51 52  1  0
 53 51  1  0
 55 56  1  0
 55 54  1  0
 56 58  1  0
 57 68  2  0
 58 63  1  0
 59 67  1  0
 59 69  1  0
 60 66  1  0
 60 62  1  0
 61 67  1  0
 62 61  1  0
 63 62  2  0
 64 65  1  0
 64 58  2  0
 65 60  2  0
 66 59  1  0
 67 57  1  0
 69 71  2  0
 70 69  1  0
 72 70  1  0
 73 82  2  0
 73 78  1  0
 74 70  1  0
 74 78  1  0
 75 74  1  0
 76 77  1  0
 76 75  1  0
 77 73  1  0
 78 79  2  0
 79 80  1  0
 81 80  2  0
 82 81  1  0
 83 57  1  0
 83 88  1  0
 83 84  1  0
 84 87  1  1
 84 85  1  0
 86 84  1  0
 88 91  1  0
 89 93  1  0
 89 88  1  0
 90 89  2  0
 93 92  1  0
 95 93  1  0
 95 96  1  0
 95 94  1  0
M  ISO  4  16 100  24 100  55 101  56 101
M  END
>  <TORSDO>  (3) 
F 20

>  <SCORE>  (3) 
-9.632

>  <name>  (3) 
2

>  <ligand_id>  (3) 
2

>  <original_smiles>  (3) 
[H]c1nc2c(c([H])c1C([H])([H])N([H])C(=O)N1C([H])([H])C([H])([H])C([H])([H])C([H])(n3nc(-c4c([H])c([H])c(Oc5c([H])c([H])c(F)c([H])c5F)c([H])c4[H])c(C(=O)N([H])[H])c3N([H])[H])C1([H])[H])C([H])([H])C([H])(C([H])([H])C([H])([H])Oc1c([H])c([H])c3c(c1[H])C([H])([H])N(C(=O)C([H])(N([H])C(=O)C([H])(N([H])C([H])([H])[H])C([H])([H])[H])C(C([H])([H])[H])(C([H])([H])[H])C([H])([H])[H])C([H])(C(=O)N([H])C1([H])c4c([H])c([H])c([H])c([H])c4C([H])([H])C([H])([H])C1([H])[H])C3([H])[H])N(C1([H])C([H])([H])C1([H])[H])C2=O

>  <smiles>  (3) 
[H]c1nc2c(c([H])c1C([H])([H])N([H])C(=O)N1C([H])([H])C([H])([H])C([H])([H])C([H])(n3nc(-c4c([H])c([H])c(Oc5c([H])c([H])c(F)c([H])c5F)c([H])c4[H])c(C(=O)N([H])[H])c3N([H])[H])C1([H])[H])C([H])([H])C([H])(C([H])([H])C([H])([H])Oc1c([H])c([H])c3c(c1[H])C([H])([H])N(C(=O)C([H])(N([H])C(=O)C([H])(N([H])C([H])([H])[H])C([H])([H])[H])C(C([H])([H])[H])(C([H])([H])[H])C([H])([H])[H])C([H])(C(=O)N([H])C1([H])c4c([H])c([H])c([H])c([H])c4C([H])([H])C([H])([H])C1([H])[H])C3([H])[H])N(C1([H])C([H])([H])C1([H])[H])C2=O

$$$$
3:0:0
     RDKit          3D

 98108  0  0  1  0  0  0  0  0999 V2000
  -29.5590  -17.9200   21.1270 C   0  0  0  0  0  2  0  0  0  0  0  0
  -30.1410  -17.8150   18.9730 C   0  0  0  0  0  2  0  0  0  0  0  0
  -29.1860  -16.7460   20.1650 C   0  0  2  0  0  0  0  0  0  0  0  0
  -29.5510  -19.4430   20.4580 C   0  0  2  0  0  0  0  0  0  0  0  0
  -27.6990  -16.9410   19.7860 C   0  0  0  0  0  1  0  0  0  0  0  0
  -30.5410  -20.2130   21.3750 C   0  0  0  0  0  1  0  0  0  0  0  0
  -28.1270  -20.0450   20.6530 C   0  0  0  0  0  1  0  0  0  0  0  0
  -29.9640  -19.4970   18.9510 N   0  0  1  0  0  4  0  0  0  0  0  0
  -29.0970  -19.5360   18.4350 H   0  0  0  0  0  0  0  0  0  0  0  0
  -28.7900  -13.8970   22.1950 C   0  0  0  0  0  2  0  0  0  0  0  0
  -29.3400  -14.1240   19.2450 C   0  0  0  0  0  3  0  0  0  0  0  0
  -29.1960  -14.9260   20.6820 C   0  0  0  0  0  0  0  0  0  0  0  0
  -28.4490  -11.9880   22.0520 C   0  0  0  0  0  3  0  0  0  0  0  0
  -29.1420  -12.4900   18.9240 C   0  0  0  0  0  3  0  0  0  0  0  0
  -28.3950  -11.1190   23.2940 C   0  0  0  0  0  1  0  0  0  0  0  0
  -28.4720  -11.3370   20.2410 N   0  0  0  0  0  2  0  0  0  0  0  0
  -32.0730  -12.8550   19.2800 C   0  0  0  0  0  0  0  0  0  0  0  0
  -32.7480  -10.7160   19.8950 C   0  0  0  0  0  2  0  0  0  0  0  0
  -31.6220   -9.9630   19.2030 C   0  0  0  0  0  2  0  0  0  0  0  0
  -30.6420  -10.2610   20.3970 C   0  0  0  0  0  2  0  0  0  0  0  0
  -30.2860  -11.9680   20.8060 C   0  0  0  0  0  2  0  0  0  0  0  0
  -31.4830  -12.2870   21.5180 C   0  0  0  0  0  2  0  0  0  0  0  0
  -32.3130  -12.0690   20.3460 N   0  0  0  0  0  0  0  0  0  0  0  0
  -33.1430  -13.4480   19.1270 O   0  0  0  0  0  0  0  0  0  0  0  0
  -30.7540  -12.7700   18.4820 N   0  0  0  0  0  0  0  0  0  0  0  0
  -30.8340  -13.2810   17.6170 H   0  0  0  0  0  0  0  0  0  0  0  0
  -26.6850  -13.6700   20.0870 C   0  0  0  0  0  3  0  0  0  0  0  0
  -25.4790  -13.0130   20.2850 C   0  0  2  0  0  0  0  0  0  0  0  0
  -25.6940  -11.6650   20.6010 C   0  0  0  0  0  3  0  0  0  0  0  0
  -27.5980  -12.9150   20.7290 N   0  0  2  0  0  4  0  0  0  0  0  0
  -26.5120  -12.1950   21.3960 N   0  0  0  0  0  0  0  0  0  0  0  0
  -24.8630  -10.4470   20.9360 C   0  0  0  0  0  0  0  0  0  0  0  0
  -24.9490   -9.6110   22.0900 C   0  0  0  0  0  3  0  0  0  0  0  0
  -24.0700   -8.5120   22.2990 C   0  0  0  0  0  3  0  0  0  0  0  0
  -23.0460   -8.2490   21.3540 C   0  0  0  0  0  0  0  0  0  0  0  0
  -22.9790   -9.0520   20.2040 C   0  0  0  0  0  3  0  0  0  0  0  0
  -23.8800  -10.1100   19.9910 C   0  0  0  0  0  3  0  0  0  0  0  0
  -22.1250   -7.2250   21.4330 O   0  0  0  0  0  0  0  0  0  0  0  0
  -21.4980   -6.8790   22.6050 C   0  0  0  0  0  0  0  0  0  0  0  0
  -20.7750   -7.8120   23.3780 C   0  0  0  0  0  3  0  0  0  0  0  0
  -20.0920   -7.3900   24.5360 C   0  0  0  0  0  3  0  0  0  0  0  0
  -20.1210   -6.0340   24.9210 C   0  0  0  0  0  0  0  0  0  0  0  0
  -20.8310   -5.1040   24.1490 C   0  0  0  0  0  3  0  0  0  0  0  0
  -21.5170   -5.5250   22.9950 C   0  0  0  0  0  0  0  0  0  0  0  0
  -22.1780   -4.6160   22.2370 F   0  0  0  0  0  0  0  0  0  0  0  0
  -19.4620   -5.6270   26.0280 F   0  0  0  0  0  0  0  0  0  0  0  0
  -24.2210  -13.7070   20.5650 C   0  0  0  0  0  0  0  0  0  0  0  0
  -23.4610  -13.2310   21.5510 N   0  0  0  0  0  0  0  0  0  0  0  0
  -23.9950  -14.7620   20.0090 O   0  0  0  0  0  0  0  0  0  0  0  0
  -23.7620  -12.4320   22.0820 H   0  0  0  0  0  0  0  0  0  0  0  0
  -22.6040  -13.7040   21.7990 H   0  0  0  0  0  0  0  0  0  0  0  0
  -27.0230  -14.9090   19.6090 N   0  0  0  0  0  0  0  0  0  0  0  0
  -26.4080  -15.5260   19.0940 H   0  0  0  0  0  0  0  0  0  0  0  0
  -28.0040  -15.1650   19.6010 H   0  0  0  0  0  0  0  0  0  0  0  0
  -30.4880  -22.0500   19.5390 C   0  0  0  0  0  1  0  0  0  0  0  0
  -30.7150  -21.0570   18.3610 C   0  0  0  0  0  3  0  0  0  0  0  0
  -30.6360  -22.5340   17.0860 C   0  0  0  0  0  2  0  0  0  0  0  0
  -30.6390  -24.3180   17.0890 O   0  0  0  0  0  0  0  0  0  0  0  0
  -25.8130  -28.3050   21.4720 C   0  0  0  0  0  0  0  0  0  0  0  0
  -29.5660  -25.4140   17.2600 C   0  0  0  0  0  0  0  0  0  0  0  0
  -25.1190  -27.5160   19.2530 C   0  0  0  0  0  3  0  0  0  0  0  0
  -27.0030  -26.9590   17.5530 C   0  0  0  0  0  0  0  0  0  0  0  0
  -27.5830  -28.1950   19.6230 C   0  0  0  0  0  2  0  0  0  0  0  0
  -28.0210  -27.2010   18.4820 C   0  0  0  0  0  0  0  0  0  0  0  0
  -29.3000  -26.4670   18.3100 C   0  0  0  0  0  3  0  0  0  0  0  0
  -28.5280  -25.4480   16.3070 C   0  0  0  0  0  3  0  0  0  0  0  0
  -27.2990  -26.1480   16.4470 C   0  0  0  0  0  3  0  0  0  0  0  0
  -25.6060  -27.5430   17.7750 C   0  0  0  0  0  2  0  0  0  0  0  0
  -26.1860  -28.0160   20.1810 N   0  0  0  0  0  0  0  0  0  0  0  0
  -24.6480  -28.1430   21.8700 O   0  0  0  0  0  0  0  0  0  0  0  0
  -24.6310  -26.0910   19.6250 C   0  0  0  0  0  0  0  0  0  0  0  0
  -23.4120  -25.7140   19.2010 N   0  0  0  0  0  0  0  0  0  0  0  0
  -25.3610  -25.3390   20.2730 O   0  0  0  0  0  0  0  0  0  0  0  0
  -22.8560  -26.3840   18.6840 H   0  0  0  0  0  0  0  0  0  0  0  0
  -20.4430  -23.7140   18.6060 C   0  0  0  0  0  0  0  0  0  0  0  0
  -22.8110  -24.3890   19.3980 C   0  0  0  0  0  3  0  0  0  0  0  0
  -23.3310  -23.3840   18.3440 C   0  0  0  0  0  2  0  0  0  0  0  0
  -22.4330  -23.2850   17.1080 C   0  0  0  0  0  2  0  0  0  0  0  0
  -21.0210  -22.8470   17.5030 C   0  0  0  0  0  2  0  0  0  0  0  0
  -21.2790  -24.4510   19.4860 C   0  0  0  0  0  0  0  0  0  0  0  0
  -20.6840  -25.2670   20.4740 C   0  0  0  0  0  3  0  0  0  0  0  0
  -19.2830  -25.3470   20.5920 C   0  0  0  0  0  3  0  0  0  0  0  0
  -18.4620  -24.6070   19.7240 C   0  0  0  0  0  3  0  0  0  0  0  0
  -19.0410  -23.7900   18.7380 C   0  0  0  0  0  3  0  0  0  0  0  0
  -26.8260  -28.8730   22.5090 C   0  0  0  0  0  3  0  0  0  0  0  0
  -27.5980  -27.7420   23.2940 C   0  0  1  0  0  0  0  0  0  0  0  0
  -26.6630  -26.6840   23.9240 C   0  0  0  0  0  1  0  0  0  0  0  0
  -28.5870  -26.9950   22.3720 C   0  0  0  0  0  1  0  0  0  0  0  0
  -28.4500  -28.3810   24.4150 C   0  0  0  0  0  1  0  0  0  0  0  0
  -26.0800  -29.7250   23.4560 N   0  0  0  0  0  0  0  0  0  0  0  0
  -26.0610  -31.0650   23.4410 C   0  0  0  0  0  0  0  0  0  0  0  0
  -26.7250  -31.7300   22.6430 O   0  0  0  0  0  0  0  0  0  0  0  0
  -25.4560  -29.2480   24.0900 H   0  0  0  0  0  0  0  0  0  0  0  0
  -23.8560  -32.2320   23.8070 C   0  0  0  0  0  1  0  0  0  0  0  0
  -25.1680  -31.7860   24.4730 C   0  0  0  0  0  3  0  0  0  0  0  0
  -26.9100  -32.5930   26.0060 C   0  0  0  0  0  1  0  0  0  0  0  0
  -25.8210  -32.9550   25.1020 N   0  0  0  0  0  0  0  0  0  0  0  0
  -25.1460  -33.5060   25.6270 H   0  0  0  0  0  0  0  0  0  0  0  0
  2  3  1  0
  3  5  1  6
  3 12  1  0
  3  1  1  0
  4  7  1  6
  4  1  1  0
  4  6  1  0
  8  2  1  0
  8  4  1  0
  8  9  1  6
 11 12  2  0
 12 10  1  0
 13 10  1  0
 13 15  1  0
 14 25  1  0
 14 11  1  0
 14 16  1  0
 17 23  1  0
 18 23  1  0
 19 18  1  0
 19 20  1  0
 20 21  1  0
 21 22  1  0
 23 22  1  0
 24 17  2  0
 25 17  1  0
 26 25  1  0
 27 52  1  0
 27 28  1  0
 27 30  1  0
 28 47  1  6
 28 29  1  0
 28 31  1  0
 29 32  1  0
 29 31  1  0
 30 16  1  6
 30 31  1  0
 30 13  1  0
 32 33  1  0
 33 34  2  0
 35 38  1  0
 35 34  1  0
 36 35  2  0
 37 36  1  0
 37 32  2  0
 38 39  1  0
 39 44  2  0
 39 40  1  0
 40 41  2  0
 41 42  1  0
 42 46  1  0
 43 42  2  0
 44 43  1  0
 45 44  1  0
 47 48  1  0
 48 51  1  0
 48 50  1  0
 49 47  2  0
 53 52  1  0
 54 52  1  0
 56  8  1  0
 56 55  1  0
 57 58  1  0
 57 56  1  0
 58 60  1  0
 59 70  2  0
 59 85  1  0
 60 65  1  0
 61 71  1  0
 61 69  1  0
 62 68  1  0
 62 64  1  0
 63 69  1  0
 64 63  1  0
 65 64  2  0
 66 67  1  0
 66 60  2  0
 67 62  2  0
 68 61  1  0
 69 59  1  0
 71 73  2  0
 72 76  1  0
 72 71  1  0
 74 72  1  0
 75 84  2  0
 75 80  1  0
 76 80  1  0
 77 76  1  0
 78 79  1  0
 78 77  1  0
 79 75  1  0
 80 81  2  0
 81 82  1  0
 83 82  2  0
 84 83  1  0
 85 86  1  0
 85 90  1  0
 86 87  1  1
 86 89  1  0
 88 86  1  0
 90 93  1  0
 91 90  1  0
 91 95  1  0
 92 91  2  0
 94 95  1  0
 95 97  1  0
 97 98  1  0
 97 96  1  0
M  ISO  4  17 100  25 100  57 101  58 101
M  END
>  <TORSDO>  (4) 
F 19

>  <SCORE>  (4) 
-8.260

>  <name>  (4) 
3

>  <ligand_id>  (4) 
3

>  <original_smiles>  (4) 
[H]c1c([H])c([H])c2c(c1[H])C([H])([H])C([H])([H])C([H])([H])C2([H])N([H])C(=O)C1([H])N(C(=O)C([H])(N([H])C(=O)C([H])(N([H])C([H])([H])[H])C([H])([H])[H])C(C([H])([H])[H])(C([H])([H])[H])C([H])([H])[H])C([H])([H])c2c([H])c(OC([H])([H])C([H])(C([H])([H])[H])[N+]3([H])C([H])([H])C(c4c([H])c(N([H])C(=O)N5C([H])([H])C([H])([H])C([H])([H])C([H])(n6nc(-c7c([H])c([H])c(Oc8c([H])c([H])c(F)c([H])c8F)c([H])c7[H])c(C(=O)N([H])[H])c6N([H])[H])C5([H])[H])nc(C([H])([H])[H])c4[H])(C([H])([H])[H])C([H])([H])C3(C([H])([H])[H])C([H])([H])[H])c([H])c([H])c2C1([H])[H]

>  <smiles>  (4) 
[H]c1c([H])c([H])c2c(c1[H])C([H])([H])C([H])([H])C([H])([H])C2([H])N([H])C(=O)C1([H])N(C(=O)C([H])(N([H])C(=O)C([H])(N([H])C([H])([H])[H])C([H])([H])[H])C(C([H])([H])[H])(C([H])([H])[H])C([H])([H])[H])C([H])([H])c2c([H])c(OC([H])([H])C([H])(C([H])([H])[H])[N+]3([H])C([H])([H])C(c4c([H])c(N([H])C(=O)N5C([H])([H])C([H])([H])C([H])([H])C([H])(n6nc(-c7c([H])c([H])c(Oc8c([H])c([H])c(F)c([H])c8F)c([H])c7[H])c(C(=O)N([H])[H])c6N([H])[H])C5([H])[H])nc(C([H])([H])[H])c4[H])(C([H])([H])[H])C([H])([H])C3(C([H])([H])[H])C([H])([H])[H])c([H])c([H])c2C1([H])[H]

$$$$
4:0:0
     RDKit          3D

 97107  0  0  1  0  0  0  0  0999 V2000
  -30.8770  -21.5480   20.0210 C   0  0  0  0  0  3  0  0  0  0  0  0
  -28.7040  -22.4000   20.6470 C   0  0  0  0  0  3  0  0  0  0  0  0
  -31.2420  -22.8430   19.5820 C   0  0  0  0  0  0  0  0  0  0  0  0
  -29.0450  -23.7240   20.2180 C   0  0  0  0  0  0  0  0  0  0  0  0
  -29.5950  -21.2890   20.5490 C   0  0  0  0  0  0  0  0  0  0  0  0
  -30.3310  -23.9350   19.6710 C   0  0  0  0  0  0  0  0  0  0  0  0
  -32.6730  -24.3360   18.1500 C   0  0  0  0  0  2  0  0  0  0  0  0
  -32.0070  -25.4780   18.9230 C   0  0  0  0  0  2  0  0  0  0  0  0
  -32.6200  -23.0380   18.9650 C   0  0  0  0  0  3  0  0  0  0  0  0
  -33.7240  -22.9790   20.0360 C   0  0  0  0  0  1  0  0  0  0  0  0
  -30.6370  -25.1890   19.1850 O   0  0  0  0  0  0  0  0  0  0  0  0
  -29.1830  -19.9870   20.9670 N   0  0  0  0  0  0  0  0  0  0  0  0
  -28.2420  -19.9090   21.3440 H   0  0  0  0  0  0  0  0  0  0  0  0
  -30.7420  -14.4220   20.1650 C   0  0  0  0  0  0  0  0  0  0  0  0
  -30.2880  -12.3130   18.9580 C   0  0  0  0  0  2  0  0  0  0  0  0
  -29.2910  -12.5870   17.8150 C   0  0  0  0  0  2  0  0  0  0  0  0
  -27.8440  -12.4520   18.3250 C   0  0  0  0  0  2  0  0  0  0  0  0
  -27.5940  -13.2280   19.6480 C   0  0  0  0  0  3  0  0  0  0  0  0
  -28.7160  -12.9850   20.6820 C   0  0  0  0  0  2  0  0  0  0  0  0
  -29.9960  -13.2850   20.0280 N   0  0  0  0  0  0  0  0  0  0  0  0
  -31.9100  -14.4660   19.7670 O   0  0  0  0  0  0  0  0  0  0  0  0
  -29.0400  -17.8110   19.6940 C   0  0  0  0  0  2  0  0  0  0  0  0
  -30.0960  -17.8000   21.8900 C   0  0  0  0  0  2  0  0  0  0  0  0
  -29.7430  -16.4600   19.3510 C   0  0  0  0  0  2  0  0  0  0  0  0
  -30.7740  -16.4300   21.5490 C   0  0  0  0  0  2  0  0  0  0  0  0
  -29.8620  -18.6980   20.6530 C   0  0  0  0  0  3  0  0  0  0  0  0
  -30.1120  -15.5980   20.5050 N   0  0  0  0  0  0  0  0  0  0  0  0
  -25.2580  -13.8310   20.5220 C   0  0  0  0  0  0  0  0  0  0  0  0
  -24.1970  -13.0610   20.9130 C   0  0  0  0  0  0  0  0  0  0  0  0
  -24.6310  -11.7040   20.8000 C   0  0  0  0  0  0  0  0  0  0  0  0
  -26.2720  -12.9450   20.1970 N   0  0  0  0  0  0  0  0  0  0  0  0
  -25.9030  -11.6580   20.4240 N   0  0  0  0  0  0  0  0  0  0  0  0
  -23.8900  -10.4480   20.9710 C   0  0  0  0  0  0  0  0  0  0  0  0
  -24.3030   -9.4690   21.9020 C   0  0  0  0  0  3  0  0  0  0  0  0
  -23.5640   -8.2770   22.0640 C   0  0  0  0  0  3  0  0  0  0  0  0
  -22.3980   -8.0560   21.2940 C   0  0  0  0  0  0  0  0  0  0  0  0
  -22.0040   -9.0230   20.3530 C   0  0  0  0  0  3  0  0  0  0  0  0
  -22.7440  -10.2050   20.1890 C   0  0  0  0  0  3  0  0  0  0  0  0
  -21.6310   -6.9180   21.3650 O   0  0  0  0  0  0  0  0  0  0  0  0
  -21.5240   -6.1940   22.5250 C   0  0  0  0  0  0  0  0  0  0  0  0
  -20.9440   -6.7380   23.6920 C   0  0  0  0  0  3  0  0  0  0  0  0
  -20.7900   -5.9370   24.8410 C   0  0  0  0  0  3  0  0  0  0  0  0
  -21.2040   -4.5910   24.8230 C   0  0  0  0  0  0  0  0  0  0  0  0
  -21.7750   -4.0460   23.6590 C   0  0  0  0  0  3  0  0  0  0  0  0
  -21.9310   -4.8440   22.5130 C   0  0  0  0  0  0  0  0  0  0  0  0
  -22.4630   -4.3080   21.3890 F   0  0  0  0  0  0  0  0  0  0  0  0
  -21.0480   -3.8200   25.9230 F   0  0  0  0  0  0  0  0  0  0  0  0
  -22.8250  -13.5490   21.2760 C   0  0  0  0  0  0  0  0  0  0  0  0
  -22.1300  -12.8300   22.1500 N   0  0  0  0  0  0  0  0  0  0  0  0
  -22.3810  -14.6030   20.8220 O   0  0  0  0  0  0  0  0  0  0  0  0
  -22.5030  -11.9770   22.5380 H   0  0  0  0  0  0  0  0  0  0  0  0
  -21.2110  -13.1380   22.4360 H   0  0  0  0  0  0  0  0  0  0  0  0
  -25.4420  -15.2050   20.3980 N   0  0  0  0  0  0  0  0  0  0  0  0
  -24.7030  -15.8740   20.5840 H   0  0  0  0  0  0  0  0  0  0  0  0
  -26.3010  -15.6400   20.0810 H   0  0  0  0  0  0  0  0  0  0  0  0
  -27.9500  -24.8300   20.2460 C   0  0  0  0  0  2  0  0  0  0  0  0
  -28.2620  -26.2560   20.4580 O   0  0  0  0  0  0  0  0  0  0  0  0
  -24.6440  -31.8010   23.3070 C   0  0  0  0  0  0  0  0  0  0  0  0
  -27.1720  -27.1360   20.3640 C   0  0  0  0  0  0  0  0  0  0  0  0
  -23.4230  -30.3990   21.6860 C   0  0  0  0  0  3  0  0  0  0  0  0
  -24.8480  -28.7980   20.3050 C   0  0  0  0  0  0  0  0  0  0  0  0
  -25.9720  -30.6560   21.5230 C   0  0  0  0  0  2  0  0  0  0  0  0
  -26.0240  -29.2670   20.9040 C   0  0  0  0  0  0  0  0  0  0  0  0
  -27.1890  -28.4460   20.9290 C   0  0  0  0  0  3  0  0  0  0  0  0
  -25.9720  -26.7270   19.7300 C   0  0  0  0  0  3  0  0  0  0  0  0
  -24.8230  -27.5310   19.7110 C   0  0  0  0  0  3  0  0  0  0  0  0
  -23.6320  -29.6980   20.3210 C   0  0  0  0  0  2  0  0  0  0  0  0
  -24.6990  -30.9690   22.2280 N   0  0  0  0  0  0  0  0  0  0  0  0
  -23.5620  -32.1160   23.8230 O   0  0  0  0  0  0  0  0  0  0  0  0
  -22.7290  -29.4150   22.6570 C   0  0  0  0  0  0  0  0  0  0  0  0
  -21.4120  -29.2150   22.4750 N   0  0  0  0  0  0  0  0  0  0  0  0
  -23.3740  -28.8330   23.5320 O   0  0  0  0  0  0  0  0  0  0  0  0
  -20.9520  -29.7360   21.7410 H   0  0  0  0  0  0  0  0  0  0  0  0
  -18.0350  -27.9730   22.8340 C   0  0  0  0  0  0  0  0  0  0  0  0
  -20.5650  -28.3070   23.2480 C   0  0  0  0  0  3  0  0  0  0  0  0
  -20.7310  -26.8460   22.7690 C   0  0  0  0  0  2  0  0  0  0  0  0
  -19.7020  -26.4370   21.7110 C   0  0  0  0  0  2  0  0  0  0  0  0
  -18.2790  -26.5900   22.2550 C   0  0  0  0  0  2  0  0  0  0  0  0
  -19.1080  -28.7850   23.2850 C   0  0  0  0  0  0  0  0  0  0  0  0
  -18.8270  -30.0770   23.7820 C   0  0  0  0  0  3  0  0  0  0  0  0
  -17.5050  -30.5570   23.8350 C   0  0  0  0  0  3  0  0  0  0  0  0
  -16.4450  -29.7420   23.4010 C   0  0  0  0  0  3  0  0  0  0  0  0
  -16.7090  -28.4530   22.9060 C   0  0  0  0  0  3  0  0  0  0  0  0
  -25.9360  -32.4150   23.9280 C   0  0  0  0  0  3  0  0  0  0  0  0
  -25.6450  -33.8150   24.2640 N   0  0  0  0  0  0  0  0  0  0  0  0
  -25.9470  -34.8630   23.4870 C   0  0  0  0  0  0  0  0  0  0  0  0
  -26.5720  -34.7530   22.4280 O   0  0  0  0  0  0  0  0  0  0  0  0
  -25.0860  -33.9740   25.0900 H   0  0  0  0  0  0  0  0  0  0  0  0
  -24.2050  -36.6560   23.2010 C   0  0  0  0  0  1  0  0  0  0  0  0
  -25.4810  -36.2540   23.9570 C   0  0  0  0  0  3  0  0  0  0  0  0
  -27.6380  -37.1570   24.7060 C   0  0  0  0  0  1  0  0  0  0  0  0
  -26.5090  -37.3060   23.7920 N   0  0  0  0  0  0  0  0  0  0  0  0
  -26.1060  -38.2280   23.9320 H   0  0  0  0  0  0  0  0  0  0  0  0
  -26.4450  -31.6320   25.2010 C   0  0  1  0  0  0  0  0  0  0  0  0
  -25.3470  -31.3890   26.2630 C   0  0  0  0  0  1  0  0  0  0  0  0
  -27.0250  -30.2540   24.8010 C   0  0  0  0  0  1  0  0  0  0  0  0
  -27.5950  -32.4180   25.8730 C   0  0  0  0  0  1  0  0  0  0  0  0
  1  5  1  0
  3  6  1  0
  3  1  2  0
  4 56  1  0
  4  2  1  0
  5  2  2  0
  5 12  1  0
  6  4  2  0
  7  8  1  0
  7  9  1  0
  8 11  1  0
  9  3  1  0
  9 10  1  0
 11  6  1  0
 12 13  1  0
 14 27  1  0
 15 20  1  0
 16 17  1  0
 16 15  1  0
 18 17  1  0
 18 31  1  0
 18 19  1  0
 20 14  1  0
 20 19  1  0
 21 14  2  0
 22 26  1  0
 24 22  1  0
 24 27  1  0
 25 23  1  0
 26 12  1  0
 26 23  1  0
 27 25  1  0
 28 29  2  0
 29 48  1  0
 30 29  1  0
 30 33  1  0
 31 32  1  0
 31 28  1  0
 32 30  2  0
 33 34  1  0
 34 35  2  0
 36 39  1  0
 36 35  1  0
 37 36  2  0
 38 37  1  0
 38 33  2  0
 39 40  1  0
 40 41  1  0
 41 42  2  0
 43 42  1  0
 43 47  1  0
 44 43  2  0
 45 40  2  0
 45 44  1  0
 46 45  1  0
 48 49  1  0
 49 52  1  0
 49 51  1  0
 50 48  2  0
 53 28  1  0
 53 54  1  0
 55 53  1  0
 56 57  1  0
 58 69  2  0
 59 57  1  0
 59 64  1  0
 60 68  1  0
 60 70  1  0
 61 67  1  0
 61 63  1  0
 62 68  1  0
 63 64  2  0
 63 62  1  0
 65 59  2  0
 66 65  1  0
 66 61  2  0
 67 60  1  0
 68 58  1  0
 70 72  2  0
 71 70  1  0
 73 71  1  0
 74 83  2  0
 74 79  1  0
 75 71  1  0
 75 79  1  0
 76 75  1  0
 77 78  1  0
 77 76  1  0
 78 74  1  0
 79 80  2  0
 80 81  1  0
 82 81  2  0
 83 82  1  0
 84 58  1  0
 84 85  1  0
 84 94  1  0
 85 88  1  0
 86 90  1  0
 86 85  1  0
 87 86  2  0
 90 89  1  0
 92 93  1  0
 92 90  1  0
 92 91  1  0
 94 97  1  1
 94 95  1  0
 96 94  1  0
M  ISO  4  14 100  27 100  56 101  57 101
M  END
>  <TORSDO>  (5) 
F 18

>  <SCORE>  (5) 
-14.464

>  <name>  (5) 
4

>  <ligand_id>  (5) 
4

>  <original_smiles>  (5) 
[H]c1c([H])c([H])c2c(c1[H])C([H])([H])C([H])([H])C([H])([H])C2([H])N([H])C(=O)C1([H])N(C(=O)C([H])(N([H])C(=O)C([H])(N([H])C([H])([H])[H])C([H])([H])[H])C(C([H])([H])[H])(C([H])([H])[H])C([H])([H])[H])C([H])([H])c2c([H])c(OC([H])([H])c3c([H])c(N([H])C4([H])C([H])([H])C([H])([H])N(C(=O)N5C([H])([H])C([H])([H])C([H])([H])C([H])(n6nc(-c7c([H])c([H])c(Oc8c([H])c([H])c(F)c([H])c8F)c([H])c7[H])c(C(=O)N([H])[H])c6N([H])[H])C5([H])[H])C([H])([H])C4([H])[H])c([H])c4c3OC([H])([H])C([H])([H])C4([H])C([H])([H])[H])c([H])c([H])c2C1([H])[H]

>  <smiles>  (5) 
[H]c1c([H])c([H])c2c(c1[H])C([H])([H])C([H])([H])C([H])([H])C2([H])N([H])C(=O)C1([H])N(C(=O)C([H])(N([H])C(=O)C([H])(N([H])C([H])([H])[H])C([H])([H])[H])C(C([H])([H])[H])(C([H])([H])[H])C([H])([H])[H])C([H])([H])c2c([H])c(OC([H])([H])c3c([H])c(N([H])C4([H])C([H])([H])C([H])([H])N(C(=O)N5C([H])([H])C([H])([H])C([H])([H])C([H])(n6nc(-c7c([H])c([H])c(Oc8c([H])c([H])c(F)c([H])c8F)c([H])c7[H])c(C(=O)N([H])[H])c6N([H])[H])C5([H])[H])C([H])([H])C4([H])[H])c([H])c4c3OC([H])([H])C([H])([H])C4([H])C([H])([H])[H])c([H])c([H])c2C1([H])[H]

$$$$
5:0:0
     RDKit          3D

 93103  0  0  1  0  0  0  0  0999 V2000
  -29.7410  -19.5600   20.1690 C   0  0  0  0  0  0  0  0  0  0  0  0
  -28.4760  -20.2350   20.2260 C   0  0  0  0  0  0  0  0  0  0  0  0
  -28.3950  -21.6690   20.1090 C   0  0  0  0  0  0  0  0  0  0  0  0
  -29.5560  -22.4490   19.8750 C   0  0  0  0  0  0  0  0  0  0  0  0
  -30.8330  -20.4270   19.8600 C   0  0  0  0  0  0  0  0  0  0  0  0
  -27.1790  -19.4500   20.3990 C   0  0  0  0  0  1  0  0  0  0  0  0
  -27.0580  -22.3780   20.3020 C   0  0  0  0  0  1  0  0  0  0  0  0
  -32.2410  -19.9080   19.6450 C   0  0  0  0  0  1  0  0  0  0  0  0
  -30.7360  -21.7880   19.7340 N   0  0  0  0  0  0  0  0  0  0  0  0
  -30.9390  -14.7460   19.9910 C   0  0  0  0  0  0  0  0  0  0  0  0
  -30.5460  -12.5010   19.0000 C   0  0  0  0  0  2  0  0  0  0  0  0
  -29.5830  -12.6550   17.8040 C   0  0  0  0  0  2  0  0  0  0  0  0
  -28.1190  -12.5580   18.2830 C   0  0  0  0  0  2  0  0  0  0  0  0
  -27.8310  -13.4560   19.5170 C   0  0  0  0  0  3  0  0  0  0  0  0
  -28.9270  -13.3130   20.5980 C   0  0  0  0  0  2  0  0  0  0  0  0
  -30.2190  -13.5790   19.9600 N   0  0  0  0  0  0  0  0  0  0  0  0
  -32.0930  -14.7600   19.5530 O   0  0  0  0  0  0  0  0  0  0  0  0
  -29.2780  -16.7430   19.8910 C   0  0  0  0  0  2  0  0  0  0  0  0
  -31.1920  -17.1560   20.5660 C   0  0  0  0  0  2  0  0  0  0  0  0
  -29.9030  -18.0090   20.5380 C   0  0  0  0  0  3  0  0  0  0  0  0
  -30.3790  -15.9160   20.4660 N   0  0  0  0  0  0  0  0  0  0  0  0
  -25.5080  -14.1350   20.3740 C   0  0  0  0  0  0  0  0  0  0  0  0
  -24.4230  -13.3980   20.7670 C   0  0  0  0  0  0  0  0  0  0  0  0
  -24.8160  -12.0310   20.6610 C   0  0  0  0  0  0  0  0  0  0  0  0
  -26.4960  -13.2170   20.0590 N   0  0  0  0  0  0  0  0  0  0  0  0
  -26.0880  -11.9430   20.2910 N   0  0  0  0  0  0  0  0  0  0  0  0
  -24.0340  -10.7990   20.8350 C   0  0  0  0  0  0  0  0  0  0  0  0
  -24.4690   -9.7610   21.6880 C   0  0  0  0  0  3  0  0  0  0  0  0
  -23.6890   -8.5970   21.8540 C   0  0  0  0  0  3  0  0  0  0  0  0
  -22.4600   -8.4610   21.1680 C   0  0  0  0  0  0  0  0  0  0  0  0
  -22.0410   -9.4880   20.3030 C   0  0  0  0  0  3  0  0  0  0  0  0
  -22.8200  -10.6450   20.1350 C   0  0  0  0  0  3  0  0  0  0  0  0
  -21.6480   -7.3550   21.2490 O   0  0  0  0  0  0  0  0  0  0  0  0
  -21.6640   -6.5320   22.3470 C   0  0  0  0  0  0  0  0  0  0  0  0
  -21.3640   -7.0100   23.6420 C   0  0  0  0  0  3  0  0  0  0  0  0
  -21.3220   -6.1150   24.7300 C   0  0  0  0  0  3  0  0  0  0  0  0
  -21.5710   -4.7450   24.5270 C   0  0  0  0  0  0  0  0  0  0  0  0
  -21.8650   -4.2660   23.2380 C   0  0  0  0  0  3  0  0  0  0  0  0
  -21.9080   -5.1570   22.1510 C   0  0  0  0  0  0  0  0  0  0  0  0
  -22.1700   -4.6860   20.9070 F   0  0  0  0  0  0  0  0  0  0  0  0
  -21.5220   -3.8860   25.5710 F   0  0  0  0  0  0  0  0  0  0  0  0
  -23.0670  -13.9360   21.1190 C   0  0  0  0  0  0  0  0  0  0  0  0
  -22.3490  -13.2520   22.0050 N   0  0  0  0  0  0  0  0  0  0  0  0
  -22.6530  -14.9930   20.6450 O   0  0  0  0  0  0  0  0  0  0  0  0
  -22.6940  -12.3940   22.4080 H   0  0  0  0  0  0  0  0  0  0  0  0
  -21.4420  -13.5950   22.2860 H   0  0  0  0  0  0  0  0  0  0  0  0
  -25.7250  -15.5010   20.2330 N   0  0  0  0  0  0  0  0  0  0  0  0
  -24.9870  -16.1800   20.3830 H   0  0  0  0  0  0  0  0  0  0  0  0
  -26.5540  -15.9030   19.8170 H   0  0  0  0  0  0  0  0  0  0  0  0
  -29.9570  -24.7820   18.6210 C   0  0  0  0  0  2  0  0  0  0  0  0
  -29.6440  -24.0290   19.8980 C   0  0  0  0  0  3  0  0  0  0  0  0
  -28.6520  -25.1190   19.3100 C   0  0  0  0  0  3  0  0  0  0  0  0
  -28.6200  -26.5490   19.7870 O   0  0  0  0  0  0  0  0  0  0  0  0
  -24.4990  -31.6430   23.0160 C   0  0  0  0  0  0  0  0  0  0  0  0
  -27.4290  -27.3220   19.7990 C   0  0  0  0  0  0  0  0  0  0  0  0
  -23.4110  -30.2330   21.3130 C   0  0  0  0  0  3  0  0  0  0  0  0
  -24.9700  -28.8160   19.8580 C   0  0  0  0  0  0  0  0  0  0  0  0
  -25.9370  -30.6810   21.1940 C   0  0  0  0  0  2  0  0  0  0  0  0
  -26.1070  -29.3360   20.4870 C   0  0  0  0  0  0  0  0  0  0  0  0
  -27.3370  -28.6000   20.4490 C   0  0  0  0  0  3  0  0  0  0  0  0
  -26.2480  -26.8580   19.1670 C   0  0  0  0  0  3  0  0  0  0  0  0
  -25.0440  -27.5800   19.2020 C   0  0  0  0  0  3  0  0  0  0  0  0
  -23.6880  -29.6200   19.9150 C   0  0  0  0  0  2  0  0  0  0  0  0
  -24.6330  -30.8670   21.8980 N   0  0  0  0  0  0  0  0  0  0  0  0
  -23.3910  -31.8390   23.5390 O   0  0  0  0  0  0  0  0  0  0  0  0
  -22.7850  -29.1460   22.2220 C   0  0  0  0  0  0  0  0  0  0  0  0
  -21.4630  -28.9420   22.0990 N   0  0  0  0  0  0  0  0  0  0  0  0
  -23.4940  -28.4950   22.9940 O   0  0  0  0  0  0  0  0  0  0  0  0
  -20.9540  -29.5180   21.4410 H   0  0  0  0  0  0  0  0  0  0  0  0
  -18.1200  -27.6640   22.6350 C   0  0  0  0  0  0  0  0  0  0  0  0
  -20.6840  -27.9410   22.8280 C   0  0  0  0  0  3  0  0  0  0  0  0
  -20.7820  -26.5540   22.1500 C   0  0  0  0  0  2  0  0  0  0  0  0
  -19.6470  -26.2900   21.1560 C   0  0  0  0  0  2  0  0  0  0  0  0
  -18.2860  -26.3670   21.8570 C   0  0  0  0  0  2  0  0  0  0  0  0
  -19.2440  -28.4100   23.0760 C   0  0  0  0  0  0  0  0  0  0  0  0
  -19.0330  -29.6230   23.7670 C   0  0  0  0  0  3  0  0  0  0  0  0
  -17.7320  -30.0920   24.0160 C   0  0  0  0  0  3  0  0  0  0  0  0
  -16.6220  -29.3410   23.5960 C   0  0  0  0  0  3  0  0  0  0  0  0
  -16.8170  -28.1290   22.9080 C   0  0  0  0  0  3  0  0  0  0  0  0
  -25.7290  -32.3320   23.6790 C   0  0  0  0  0  3  0  0  0  0  0  0
  -25.3420  -33.7090   24.0150 N   0  0  0  0  0  0  0  0  0  0  0  0
  -25.6600  -34.7910   23.2920 C   0  0  0  0  0  0  0  0  0  0  0  0
  -26.3770  -34.7370   22.2910 O   0  0  0  0  0  0  0  0  0  0  0  0
  -24.7050  -33.8200   24.7920 H   0  0  0  0  0  0  0  0  0  0  0  0
  -23.8600  -36.5060   22.9000 C   0  0  0  0  0  1  0  0  0  0  0  0
  -25.0870  -36.1460   23.7500 C   0  0  0  0  0  3  0  0  0  0  0  0
  -27.1360  -37.1260   24.6860 C   0  0  0  0  0  1  0  0  0  0  0  0
  -26.0710  -37.2490   23.6950 N   0  0  0  0  0  0  0  0  0  0  0  0
  -25.6130  -38.1460   23.8400 H   0  0  0  0  0  0  0  0  0  0  0  0
  -26.2450  -31.5730   24.9620 C   0  0  1  0  0  0  0  0  0  0  0  0
  -25.1370  -31.2770   25.9980 C   0  0  0  0  0  1  0  0  0  0  0  0
  -26.8990  -30.2230   24.5800 C   0  0  0  0  0  1  0  0  0  0  0  0
  -27.3390  -32.4130   25.6630 C   0  0  0  0  0  1  0  0  0  0  0  0
  1  2  1  0
  2  6  1  0
  3  2  2  0
  3  7  1  0
  4  3  1  0
  5  1  2  0
  8  5  1  0
  9  5  1  0
  9  4  2  0
 10 21  1  0
 11 16  1  0
 12 13  1  0
 12 11  1  0
 14 13  1  0
 14 25  1  0
 14 15  1  0
 16 10  1  0
 16 15  1  0
 17 10  2  0
 18 21  1  0
 18 20  1  0
 20  1  1  0
 20 19  1  0
 21 19  1  0
 22 23  2  0
 23 42  1  0
 24 23  1  0
 24 27  1  0
 25 26  1  0
 25 22  1  0
 26 24  2  0
 27 28  1  0
 28 29  2  0
 30 33  1  0
 30 29  1  0
 31 30  2  0
 32 31  1  0
 32 27  2  0
 33 34  1  0
 34 35  1  0
 35 36  2  0
 37 36  1  0
 37 41  1  0
 38 37  2  0
 39 34  2  0
 39 38  1  0
 40 39  1  0
 42 43  1  0
 43 46  1  0
 43 45  1  0
 44 42  2  0
 47 22  1  0
 47 48  1  0
 49 47  1  0
 50 52  1  0
 50 51  1  0
 51  4  1  0
 52 53  1  0
 52 51  1  0
 53 55  1  0
 54 65  2  0
 55 60  1  0
 56 64  1  0
 56 66  1  0
 57 63  1  0
 57 59  1  0
 58 64  1  0
 59 58  1  0
 60 59  2  0
 61 62  1  0
 61 55  2  0
 62 57  2  0
 63 56  1  0
 64 54  1  0
 66 68  2  0
 67 66  1  0
 69 67  1  0
 70 79  2  0
 70 75  1  0
 71 67  1  0
 71 75  1  0
 72 71  1  0
 73 74  1  0
 73 72  1  0
 74 70  1  0
 75 76  2  0
 76 77  1  0
 78 77  2  0
 79 78  1  0
 80 54  1  0
 80 81  1  0
 80 90  1  0
 81 84  1  0
 82 86  1  0
 82 81  1  0
 83 82  2  0
 86 85  1  0
 88 86  1  0
 88 89  1  0
 88 87  1  0
 90 93  1  1
 90 91  1  0
 92 90  1  0
M  ISO  4  10 100  21 100  52 101  53 101
M  END
>  <TORSDO>  (6) 
F 17

>  <SCORE>  (6) 
-13.821

>  <name>  (6) 
5

>  <ligand_id>  (6) 
5

>  <original_smiles>  (6) 
[H]c1c([H])c([H])c2c(c1[H])C([H])([H])C([H])([H])C([H])([H])C2([H])N([H])C(=O)C1([H])N(C(=O)C([H])(N([H])C(=O)C([H])(N([H])C([H])([H])[H])C([H])([H])[H])C(C([H])([H])[H])(C([H])([H])[H])C([H])([H])[H])C([H])([H])c2c([H])c(OC3([H])C([H])([H])C3([H])c3nc(C([H])([H])[H])c(C4([H])C([H])([H])N(C(=O)N5C([H])([H])C([H])([H])C([H])([H])C([H])(n6nc(-c7c([H])c([H])c(Oc8c([H])c([H])c(F)c([H])c8F)c([H])c7[H])c(C(=O)N([H])[H])c6N([H])[H])C5([H])[H])C4([H])[H])c(C([H])([H])[H])c3C([H])([H])[H])c([H])c([H])c2C1([H])[H]

>  <smiles>  (6) 
[H]c1c([H])c([H])c2c(c1[H])C([H])([H])C([H])([H])C([H])([H])C2([H])N([H])C(=O)C1([H])N(C(=O)C([H])(N([H])C(=O)C([H])(N([H])C([H])([H])[H])C([H])([H])[H])C(C([H])([H])[H])(C([H])([H])[H])C([H])([H])[H])C([H])([H])c2c([H])c(OC3([H])C([H])([H])C3([H])c3nc(C([H])([H])[H])c(C4([H])C([H])([H])N(C(=O)N5C([H])([H])C([H])([H])C([H])([H])C([H])(n6nc(-c7c([H])c([H])c(Oc8c([H])c([H])c(F)c([H])c8F)c([H])c7[H])c(C(=O)N([H])[H])c6N([H])[H])C5([H])[H])C4([H])[H])c(C([H])([H])[H])c3C([H])([H])[H])c([H])c([H])c2C1([H])[H]

$$$$
6:0:0
     RDKit          3D

 95 98  0  0  1  0  0  0  0  0999 V2000
  -23.6760  -25.8070   19.3300 C   0  0  0  0  0  3  0  0  0  0  0  0
  -21.7220  -24.4890   19.3420 C   0  0  0  0  0  3  0  0  0  0  0  0
  -23.9020  -23.4400   19.3970 C   0  0  0  0  0  3  0  0  0  0  0  0
  -22.0870  -25.8560   19.3130 C   0  0  0  0  0  0  0  0  0  0  0  0
  -24.7130  -24.5970   19.3720 C   0  0  0  0  0  0  0  0  0  0  0  0
  -22.5390  -23.3950   19.3770 N   0  0  0  0  0  0  0  0  0  0  0  0
  -19.3810  -26.8400   20.2100 C   0  0  0  0  0  2  0  0  0  0  0  0
  -20.6610  -27.0530   19.4580 C   0  0  0  0  0  2  0  0  0  0  0  0
  -18.8310  -27.5160   18.8810 C   0  0  0  0  0  1  0  0  0  0  0  0
  -16.6960  -25.9570   15.7980 C   0  0  0  0  0  1  0  0  0  0  0  0
  -18.0470  -26.7010   16.2380 C   0  0  0  0  0  1  0  0  0  0  0  0
  -19.3840  -25.5170   15.1720 C   0  0  0  0  0  1  0  0  0  0  0  0
  -21.0920  -25.3420   14.4970 O   0  0  0  0  0  0  0  0  0  0  0  0
  -22.4050  -23.9210    9.3640 C   0  0  0  0  0  0  0  0  0  0  0  0
  -22.4320  -24.9830   14.9590 C   0  0  0  0  0  3  0  0  0  0  0  0
  -20.8500  -23.3200   11.1360 C   0  0  0  0  0  3  0  0  0  0  0  0
  -21.8200  -22.9680   13.5200 C   0  0  0  0  0  3  0  0  0  0  0  0
  -23.3420  -23.4810   11.6290 C   0  0  0  0  0  2  0  0  0  0  0  0
  -22.9000  -23.7130   13.0510 C   0  0  0  0  0  3  0  0  0  0  0  0
  -23.3760  -24.7140   13.9140 C   0  0  0  0  0  2  0  0  0  0  0  0
  -22.1940  -23.8980   15.7510 C   0  0  0  0  0  2  0  0  0  0  0  0
  -21.6280  -22.9020   14.9370 C   0  0  0  0  0  2  0  0  0  0  0  0
  -20.8570  -22.4680   12.4630 C   0  0  0  0  0  2  0  0  0  0  0  0
  -22.2310  -23.5490   10.6550 N   0  0  0  0  0  0  0  0  0  0  0  0
  -21.4530  -23.9780    8.5710 O   0  0  0  0  0  0  0  0  0  0  0  0
  -20.1860  -24.7260   11.1820 C   0  0  0  0  0  0  0  0  0  0  0  0
  -19.0330  -24.9290   10.6070 N   0  0  0  0  0  0  0  0  0  0  0  0
  -20.7460  -25.7100   11.6410 O   0  0  0  0  0  0  0  0  0  0  0  0
  -18.6060  -24.1710   10.0920 H   0  0  0  0  0  0  0  0  0  0  0  0
  -16.4650  -26.8010    8.7560 C   0  0  0  0  0  0  0  0  0  0  0  0
  -18.1230  -26.0020   11.0610 C   0  0  0  0  0  2  0  0  0  0  0  0
  -16.6720  -25.4270   12.4050 C   0  0  0  0  0 15  0  0  0  0  0  0
  -14.6150  -25.4510   11.2970 C   0  0  0  0  0 15  0  0  0  0  0  0
  -14.8820  -26.2840    9.4310 C   0  0  0  0  0  1  0  0  0  0  0  0
  -17.8150  -26.6270    9.4410 C   0  0  0  0  0  0  0  0  0  0  0  0
  -18.9940  -26.9580    8.6490 C   0  0  0  0  0  3  0  0  0  0  0  0
  -18.9970  -27.5390    7.3560 C   0  0  0  0  0  3  0  0  0  0  0  0
  -17.7630  -27.8690    6.7840 C   0  0  0  0  0  3  0  0  0  0  0  0
  -16.5560  -27.5080    7.4700 C   0  0  0  0  0  3  0  0  0  0  0  0
  -23.8150  -24.2670    8.8290 C   0  0  0  0  0  3  0  0  0  0  0  0
  -23.9560  -23.5530    7.5590 N   0  0  0  0  0  0  0  0  0  0  0  0
  -24.6180  -22.4000    7.4130 C   0  0  0  0  0  0  0  0  0  0  0  0
  -25.2580  -21.8750    8.3300 O   0  0  0  0  0  0  0  0  0  0  0  0
  -23.4130  -23.8980    6.7810 H   0  0  0  0  0  0  0  0  0  0  0  0
  -23.5340  -20.5940    6.0400 C   0  0  0  0  0  1  0  0  0  0  0  0
  -24.5700  -21.7290    6.0300 C   0  0  0  0  0  3  0  0  0  0  0  0
  -26.7590  -22.2400    5.0450 C   0  0  0  0  0  1  0  0  0  0  0  0
  -25.8810  -21.2070    5.5890 N   0  0  0  0  0  0  0  0  0  0  0  0
  -25.7630  -20.4870    4.8810 H   0  0  0  0  0  0  0  0  0  0  0  0
  -24.0470  -25.8150    8.6400 C   0  0  1  0  0  0  0  0  0  0  0  0
  -22.8230  -26.5660    8.0680 C   0  0  0  0  0  1  0  0  0  0  0  0
  -24.4260  -26.4940    9.9770 C   0  0  0  0  0  1  0  0  0  0  0  0
  -25.2410  -26.0340    7.6850 C   0  0  0  0  0  1  0  0  0  0  0  0
  -26.3070  -24.3760   19.3810 N   0  0  0  0  0  0  0  0  0  0  0  0
  -26.6990  -24.6370   20.2850 H   0  0  0  0  0  0  0  0  0  0  0  0
  -27.5540  -23.7560   18.3850 C   0  0  0  0  0  2  0  0  0  0  0  0
  -29.4550  -23.7310   18.4080 C   0  0  0  0  0  2  0  0  0  0  0  0
  -32.2110  -23.5810   16.8530 C   0  0  0  0  0  0  0  0  0  0  0  0
  -34.1780  -24.4840   15.3030 C   0  0  0  0  0  2  0  0  0  0  0  0
  -34.3130  -26.0350   15.4060 C   0  0  0  0  0  2  0  0  0  0  0  0
  -33.1640  -26.7540   14.6670 C   0  0  0  0  0  2  0  0  0  0  0  0
  -31.8230  -26.0290   14.9170 C   0  0  0  0  0  3  0  0  0  0  0  0
  -31.9170  -24.5430   14.5890 C   0  0  0  0  0  2  0  0  0  0  0  0
  -32.7570  -24.0560   15.6390 N   0  0  0  0  0  0  0  0  0  0  0  0
  -33.1270  -23.0160   17.5110 O   0  0  0  0  0  0  0  0  0  0  0  0
  -30.7420  -23.8760   17.2400 N   0  0  0  0  0  0  0  0  0  0  0  0
  -30.3470  -24.3540   16.4420 H   0  0  0  0  0  0  0  0  0  0  0  0
  -29.4780  -26.9460   14.7460 C   0  0  0  0  0  0  0  0  0  0  0  0
  -28.7680  -27.4170   13.6830 C   0  0  0  0  0  0  0  0  0  0  0  0
  -29.6180  -27.2760   12.5440 C   0  0  0  0  0  0  0  0  0  0  0  0
  -30.7000  -26.5790   14.2210 N   0  0  0  0  0  0  0  0  0  0  0  0
  -30.7610  -26.7020   12.8800 N   0  0  0  0  0  0  0  0  0  0  0  0
  -29.4470  -27.7190   11.1620 C   0  0  0  0  0  0  0  0  0  0  0  0
  -29.1760  -26.8040   10.1230 C   0  0  0  0  0  3  0  0  0  0  0  0
  -29.0030  -27.2640    8.8000 C   0  0  0  0  0  3  0  0  0  0  0  0
  -29.0990  -28.6470    8.5150 C   0  0  0  0  0  0  0  0  0  0  0  0
  -29.3960  -29.5470    9.5520 C   0  0  0  0  0  3  0  0  0  0  0  0
  -29.5730  -29.0890   10.8660 C   0  0  0  0  0  3  0  0  0  0  0  0
  -28.9680  -29.1840    7.2580 O   0  0  0  0  0  0  0  0  0  0  0  0
  -27.8790  -28.9090    6.4720 C   0  0  0  0  0  0  0  0  0  0  0  0
  -26.5990  -29.4290    6.7600 C   0  0  0  0  0  3  0  0  0  0  0  0
  -25.5240  -29.1760    5.8850 C   0  0  0  0  0  3  0  0  0  0  0  0
  -25.7290  -28.4140    4.7190 C   0  0  0  0  0  0  0  0  0  0  0  0
  -27.0040  -27.8990    4.4290 C   0  0  0  0  0  3  0  0  0  0  0  0
  -28.0770  -28.1480    5.3020 C   0  0  0  0  0  0  0  0  0  0  0  0
  -29.3100  -27.6680    5.0080 F   0  0  0  0  0  0  0  0  0  0  0  0
  -24.6990  -28.1780    3.8720 F   0  0  0  0  0  0  0  0  0  0  0  0
  -27.4200  -28.0660   13.7420 C   0  0  0  0  0  0  0  0  0  0  0  0
  -26.5340  -27.7150   12.8190 N   0  0  0  0  0  0  0  0  0  0  0  0
  -27.1330  -28.8580   14.6400 O   0  0  0  0  0  0  0  0  0  0  0  0
  -26.7690  -27.0520   12.0960 H   0  0  0  0  0  0  0  0  0  0  0  0
  -25.6060  -28.1160   12.8350 H   0  0  0  0  0  0  0  0  0  0  0  0
  -29.2040  -26.8240   16.1070 N   0  0  0  0  0  0  0  0  0  0  0  0
  -28.3550  -27.2370   16.4770 H   0  0  0  0  0  0  0  0  0  0  0  0
  -29.9290  -26.7380   16.8070 H   0  0  0  0  0  0  0  0  0  0  0  0
  1  5  1  0
  2  6  2  0
  4  1  2  0
  4  2  1  0
  4  8  1  0
  5 54  1  0
  5  3  2  0
  6  3  1  0
  8  7  1  0
  9  7  1  0
 10 11  1  0
 13 12  1  0
 14 24  1  0
 15 13  1  0
 15 21  1  0
 16 26  1  0
 16 23  1  0
 17 23  1  0
 17 22  1  0
 19 18  1  0
 19 17  1  0
 19 20  1  0
 20 15  1  0
 22 21  1  0
 24 16  1  0
 24 18  1  0
 25 14  2  0
 26 28  2  0
 27 31  1  0
 27 26  1  0
 29 27  1  0
 30 34  1  0
 30 35  1  0
 35 31  1  0
 36 35  2  0
 37 36  1  0
 38 37  2  0
 38 39  1  0
 39 30  2  0
 40 14  1  0
 41 40  1  0
 42 41  1  0
 42 43  2  0
 44 41  1  0
 46 45  1  0
 46 42  1  0
 47 48  1  0
 48 46  1  0
 49 48  1  0
 50 40  1  0
 50 52  1  1
 51 50  1  0
 53 50  1  0
 54 55  1  0
 56 57  1  0
 56 54  1  0
 58 66  1  0
 58 65  2  0
 59 60  1  0
 59 64  1  0
 61 62  1  0
 61 60  1  0
 62 71  1  0
 63 62  1  0
 63 64  1  0
 64 58  1  0
 66 57  1  0
 67 66  1  0
 68 93  1  0
 69 88  1  0
 69 68  2  0
 70 72  2  0
 70 69  1  0
 71 68  1  0
 72 71  1  0
 73 70  1  0
 74 73  2  0
 75 74  1  0
 76 75  2  0
 76 77  1  0
 77 78  2  0
 78 73  1  0
 79 76  1  0
 80 81  1  0
 80 79  1  0
 82 81  2  0
 83 82  1  0
 84 83  2  0
 84 85  1  0
 85 80  2  0
 86 85  1  0
 87 83  1  0
 88 90  2  0
 89 92  1  0
 89 88  1  0
 91 89  1  0
 93 94  1  0
 93 95  1  0
M  ISO  4  12 101  13 101  58 100  66 100
M  END
>  <TORSDO>  (7) 
F 22

>  <SCORE>  (7) 
-6.963

>  <name>  (7) 
6

>  <ligand_id>  (7) 
6

>  <original_smiles>  (7) 
[H]c1nc([H])c(C2([H])C([H])([H])C2([H])C([H])(C([H])([H])[H])C([H])([H])Oc2c([H])c([H])c3c(c2[H])C([H])([H])N(C(=O)C([H])(N([H])C(=O)C([H])(N([H])C([H])([H])[H])C([H])([H])[H])C(C([H])([H])[H])(C([H])([H])[H])C([H])([H])[H])C([H])(C(=O)N([H])C2([H])c4c([H])c([H])c([H])c([H])c4C([H])([H])C([H])([H])C2([H])[H])C3([H])[H])c([H])c1N([H])C([H])([H])C([H])([H])N([H])C(=O)N1C([H])([H])C([H])([H])C([H])([H])C([H])(n2nc(-c3c([H])c([H])c(Oc4c([H])c([H])c(F)c([H])c4F)c([H])c3[H])c(C(=O)N([H])[H])c2N([H])[H])C1([H])[H]

>  <smiles>  (7) 
[H]c1nc([H])c(C2([H])C([H])([H])C2([H])C([H])(C([H])([H])[H])C([H])([H])Oc2c([H])c([H])c3c(c2[H])C([H])([H])N(C(=O)C([H])(N([H])C(=O)C([H])(N([H])C([H])([H])[H])C([H])([H])[H])C(C([H])([H])[H])(C([H])([H])[H])C([H])([H])[H])C([H])(C(=O)N([H])C2([H])c4c([H])c([H])c([H])c([H])c4C([H])([H])C([H])([H])C2([H])[H])C3([H])[H])c([H])c1N([H])C([H])([H])C([H])([H])N([H])C(=O)N1C([H])([H])C([H])([H])C([H])([H])C([H])(n2nc(-c3c([H])c([H])c(Oc4c([H])c([H])c(F)c([H])c4F)c([H])c3[H])c(C(=O)N([H])[H])c2N([H])[H])C1([H])[H]

$$$$
7:0:0
     RDKit          3D

 95104  0  0  1  0  0  0  0  0999 V2000
  -30.4090  -23.7530   19.8420 C   0  0  0  0  0  0  0  0  0  0  0  0
  -31.3710  -22.6990   19.8370 C   0  0  0  0  0  0  0  0  0  0  0  0
  -29.0380  -23.4920   20.0980 C   0  0  0  0  0  0  0  0  0  0  0  0
  -31.0020  -21.3220   19.9600 C   0  0  0  0  0  0  0  0  0  0  0  0
  -28.6980  -22.0540   20.2820 C   0  0  0  0  0  0  0  0  0  0  0  0
  -29.6530  -20.9160   20.2020 C   0  0  0  0  0  0  0  0  0  0  0  0
  -30.8430  -25.1900   19.5320 C   0  0  0  0  0  1  0  0  0  0  0  0
  -32.8530  -23.0640   19.6760 C   0  0  0  0  0  1  0  0  0  0  0  0
  -32.1150  -20.2820   19.8030 C   0  0  0  0  0  1  0  0  0  0  0  0
  -27.2400  -21.7380   20.5760 C   0  0  0  0  0  1  0  0  0  0  0  0
  -30.5650  -14.9590   20.0600 C   0  0  0  0  0  0  0  0  0  0  0  0
  -30.3190  -12.6500   19.0590 C   0  0  0  0  0  2  0  0  0  0  0  0
  -29.3390  -12.6630   17.8660 C   0  0  0  0  0  2  0  0  0  0  0  0
  -27.9010  -12.4390   18.3660 C   0  0  0  0  0  2  0  0  0  0  0  0
  -27.5520  -13.3360   19.5850 C   0  0  0  0  0  3  0  0  0  0  0  0
  -28.6590  -13.3360   20.6600 C   0  0  0  0  0  2  0  0  0  0  0  0
  -29.9030  -13.7370   19.9930 N   0  0  0  0  0  0  0  0  0  0  0  0
  -31.7540  -14.9580   19.7230 O   0  0  0  0  0  0  0  0  0  0  0  0
  -29.1490  -18.5190   19.2270 C   0  0  0  0  0  2  0  0  0  0  0  0
  -28.9500  -16.9370   19.5530 C   0  0  0  0  0  2  0  0  0  0  0  0
  -29.9090  -18.6750   21.5060 C   0  0  0  0  0  2  0  0  0  0  0  0
  -30.6530  -17.2640   21.2140 C   0  0  0  0  0  3  0  0  0  0  0  0
  -31.1350  -16.6990   22.5640 C   0  0  0  0  0  1  0  0  0  0  0  0
  -29.3570  -19.4610   20.3680 N   0  0  0  0  0  0  0  0  0  0  0  0
  -29.9380  -16.1930   20.4190 N   0  0  0  0  0  0  0  0  0  0  0  0
  -25.2080  -13.8910   20.4470 C   0  0  0  0  0  0  0  0  0  0  0  0
  -24.1650  -13.1050   20.8510 C   0  0  0  0  0  0  0  0  0  0  0  0
  -24.6300  -11.7570   20.7720 C   0  0  0  0  0  0  0  0  0  0  0  0
  -26.2410  -13.0220   20.1390 N   0  0  0  0  0  0  0  0  0  0  0  0
  -25.9070  -11.7310   20.4010 N   0  0  0  0  0  0  0  0  0  0  0  0
  -23.9170  -10.4880   20.9690 C   0  0  0  0  0  0  0  0  0  0  0  0
  -24.3640   -9.5240   21.8980 C   0  0  0  0  0  3  0  0  0  0  0  0
  -23.6490   -8.3220   22.0850 C   0  0  0  0  0  3  0  0  0  0  0  0
  -22.4710   -8.0750   21.3420 C   0  0  0  0  0  0  0  0  0  0  0  0
  -22.0410   -9.0280   20.4010 C   0  0  0  0  0  3  0  0  0  0  0  0
  -22.7570  -10.2210   20.2130 C   0  0  0  0  0  3  0  0  0  0  0  0
  -21.7240   -6.9260   21.4380 O   0  0  0  0  0  0  0  0  0  0  0  0
  -21.6560   -6.2060   22.6040 C   0  0  0  0  0  0  0  0  0  0  0  0
  -21.2000   -6.7810   23.8110 C   0  0  0  0  0  3  0  0  0  0  0  0
  -21.0820   -5.9860   24.9680 C   0  0  0  0  0  3  0  0  0  0  0  0
  -21.4100   -4.6190   24.9200 C   0  0  0  0  0  0  0  0  0  0  0  0
  -21.8590   -4.0420   23.7190 C   0  0  0  0  0  3  0  0  0  0  0  0
  -21.9780   -4.8340   22.5630 C   0  0  0  0  0  0  0  0  0  0  0  0
  -22.3910   -4.2690   21.4030 F   0  0  0  0  0  0  0  0  0  0  0  0
  -21.2900   -3.8530   26.0300 F   0  0  0  0  0  0  0  0  0  0  0  0
  -22.7810  -13.5730   21.1940 C   0  0  0  0  0  0  0  0  0  0  0  0
  -22.0870  -12.8550   22.0690 N   0  0  0  0  0  0  0  0  0  0  0  0
  -22.3240  -14.6120   20.7190 O   0  0  0  0  0  0  0  0  0  0  0  0
  -22.4700  -12.0130   22.4730 H   0  0  0  0  0  0  0  0  0  0  0  0
  -21.1600  -13.1520   22.3350 H   0  0  0  0  0  0  0  0  0  0  0  0
  -25.3600  -15.2660   20.2880 N   0  0  0  0  0  0  0  0  0  0  0  0
  -24.5980  -15.9150   20.4550 H   0  0  0  0  0  0  0  0  0  0  0  0
  -26.1960  -15.7120   19.9390 H   0  0  0  0  0  0  0  0  0  0  0  0
  -27.9570  -24.7350   20.0630 C   0  0  0  0  0  2  0  0  0  0  0  0
  -28.2600  -26.2510   20.2000 O   0  0  0  0  0  0  0  0  0  0  0  0
  -24.6600  -31.8970   23.2310 C   0  0  0  0  0  0  0  0  0  0  0  0
  -27.2020  -27.2220   20.1470 C   0  0  0  0  0  0  0  0  0  0  0  0
  -23.4450  -30.5240   21.5850 C   0  0  0  0  0  3  0  0  0  0  0  0
  -24.8780  -28.9610   20.1410 C   0  0  0  0  0  0  0  0  0  0  0  0
  -25.9980  -30.7840   21.4100 C   0  0  0  0  0  2  0  0  0  0  0  0
  -26.0620  -29.4010   20.7460 C   0  0  0  0  0  0  0  0  0  0  0  0
  -27.2270  -28.5480   20.7310 C   0  0  0  0  0  3  0  0  0  0  0  0
  -25.9920  -26.8800   19.5000 C   0  0  0  0  0  3  0  0  0  0  0  0
  -24.8550  -27.7140   19.5030 C   0  0  0  0  0  3  0  0  0  0  0  0
  -23.6540  -29.8590   20.1990 C   0  0  0  0  0  2  0  0  0  0  0  0
  -24.7210  -31.0890   22.1300 N   0  0  0  0  0  0  0  0  0  0  0  0
  -23.5780  -32.1830   23.7660 O   0  0  0  0  0  0  0  0  0  0  0  0
  -22.7660  -29.5100   22.5390 C   0  0  0  0  0  0  0  0  0  0  0  0
  -21.4380  -29.3440   22.4120 N   0  0  0  0  0  0  0  0  0  0  0  0
  -23.4370  -28.8760   23.3580 O   0  0  0  0  0  0  0  0  0  0  0  0
  -20.9560  -29.9030   21.7240 H   0  0  0  0  0  0  0  0  0  0  0  0
  -18.0490  -28.1700   22.9160 C   0  0  0  0  0  0  0  0  0  0  0  0
  -20.6120  -28.4070   23.1770 C   0  0  0  0  0  3  0  0  0  0  0  0
  -20.6990  -26.9800   22.5890 C   0  0  0  0  0  2  0  0  0  0  0  0
  -19.5910  -26.6760   21.5760 C   0  0  0  0  0  2  0  0  0  0  0  0
  -18.2130  -26.8270   22.2260 C   0  0  0  0  0  2  0  0  0  0  0  0
  -19.1750  -28.9190   23.3490 C   0  0  0  0  0  0  0  0  0  0  0  0
  -18.9680  -30.1760   23.9550 C   0  0  0  0  0  3  0  0  0  0  0  0
  -17.6660  -30.6860   24.1320 C   0  0  0  0  0  3  0  0  0  0  0  0
  -16.5550  -29.9330   23.7160 C   0  0  0  0  0  3  0  0  0  0  0  0
  -16.7470  -28.6770   23.1150 C   0  0  0  0  0  3  0  0  0  0  0  0
  -25.9450  -32.5170   23.8580 C   0  0  0  0  0  3  0  0  0  0  0  0
  -25.6420  -33.9140   24.2070 N   0  0  0  0  0  0  0  0  0  0  0  0
  -25.9480  -34.9750   23.4480 C   0  0  0  0  0  0  0  0  0  0  0  0
  -26.5840  -34.8810   22.3950 O   0  0  0  0  0  0  0  0  0  0  0  0
  -25.0740  -34.0610   25.0290 H   0  0  0  0  0  0  0  0  0  0  0  0
  -24.1900  -36.7590   23.1900 C   0  0  0  0  0  1  0  0  0  0  0  0
  -25.4740  -36.3600   23.9340 C   0  0  0  0  0  3  0  0  0  0  0  0
  -27.6400  -37.2630   24.6560 C   0  0  0  0  0  1  0  0  0  0  0  0
  -26.4900  -37.4220   23.7700 N   0  0  0  0  0  0  0  0  0  0  0  0
  -26.0840  -38.3380   23.9370 H   0  0  0  0  0  0  0  0  0  0  0  0
  -26.4570  -31.7310   25.1280 C   0  0  1  0  0  0  0  0  0  0  0  0
  -25.3630  -31.4890   26.1940 C   0  0  0  0  0  1  0  0  0  0  0  0
  -27.0300  -30.3520   24.7270 C   0  0  0  0  0  1  0  0  0  0  0  0
  -27.6140  -32.5110   25.7950 C   0  0  0  0  0  1  0  0  0  0  0  0
  1  3  1  0
  2  1  2  0
  2  4  1  0
  3  5  2  0
  4  6  2  0
  5 10  1  0
  6  5  1  0
  6 24  1  0
  7  1  1  0
  8  2  1  0
  9  4  1  0
 11 25  1  0
 12 17  1  0
 13 14  1  0
 13 12  1  0
 15 14  1  0
 15 29  1  0
 15 16  1  0
 17 11  1  0
 17 16  1  0
 18 11  2  0
 19 20  1  0
 19 24  1  0
 20 25  1  0
 22 21  1  0
 22 23  1  0
 24 21  1  0
 25 22  1  0
 26 27  2  0
 27 46  1  0
 28 27  1  0
 28 31  1  0
 29 30  1  0
 29 26  1  0
 30 28  2  0
 31 32  1  0
 32 33  2  0
 34 37  1  0
 34 33  1  0
 35 34  2  0
 36 35  1  0
 36 31  2  0
 37 38  1  0
 38 39  1  0
 39 40  2  0
 41 40  1  0
 41 45  1  0
 42 41  2  0
 43 38  2  0
 43 42  1  0
 44 43  1  0
 46 47  1  0
 47 50  1  0
 47 49  1  0
 48 46  2  0
 51 26  1  0
 51 52  1  0
 53 51  1  0
 54  3  1  0
 54 55  1  0
 56 67  2  0
 57 55  1  0
 57 62  1  0
 58 66  1  0
 58 68  1  0
 59 65  1  0
 59 61  1  0
 60 66  1  0
 61 60  1  0
 62 61  2  0
 63 64  1  0
 63 57  2  0
 64 59  2  0
 65 58  1  0
 66 56  1  0
 68 70  2  0
 69 68  1  0
 71 69  1  0
 72 81  2  0
 72 77  1  0
 73 69  1  0
 73 77  1  0
 74 73  1  0
 75 76  1  0
 75 74  1  0
 76 72  1  0
 77 78  2  0
 78 79  1  0
 80 79  2  0
 81 80  1  0
 82 56  1  0
 82 83  1  0
 82 92  1  0
 83 86  1  0
 84 88  1  0
 84 83  1  0
 85 84  2  0
 88 87  1  0
 90 88  1  0
 90 91  1  0
 90 89  1  0
 92 95  1  1
 92 93  1  0
 94 92  1  0
M  ISO  4  11 100  25 100  54 101  55 101
M  END
>  <TORSDO>  (8) 
F 17

>  <SCORE>  (8) 
-14.646

>  <name>  (8) 
7

>  <ligand_id>  (8) 
7

>  <original_smiles>  (8) 
[H]c1c([H])c([H])c2c(c1[H])C([H])([H])C([H])([H])C([H])([H])C2([H])N([H])C(=O)C1([H])N(C(=O)C([H])(N([H])C(=O)C([H])(N([H])C([H])([H])[H])C([H])([H])[H])C(C([H])([H])[H])(C([H])([H])[H])C([H])([H])[H])C([H])([H])c2c([H])c(OC([H])([H])c3c(C([H])([H])[H])c(N4C([H])([H])C([H])([H])N(C(=O)N5C([H])([H])C([H])([H])C([H])([H])C([H])(n6nc(-c7c([H])c([H])c(Oc8c([H])c([H])c(F)c([H])c8F)c([H])c7[H])c(C(=O)N([H])[H])c6N([H])[H])C5([H])[H])C([H])(C([H])([H])[H])C4([H])[H])c(C([H])([H])[H])c(C([H])([H])[H])c3C([H])([H])[H])c([H])c([H])c2C1([H])[H]

>  <smiles>  (8) 
[H]c1c([H])c([H])c2c(c1[H])C([H])([H])C([H])([H])C([H])([H])C2([H])N([H])C(=O)C1([H])N(C(=O)C([H])(N([H])C(=O)C([H])(N([H])C([H])([H])[H])C([H])([H])[H])C(C([H])([H])[H])(C([H])([H])[H])C([H])([H])[H])C([H])([H])c2c([H])c(OC([H])([H])c3c(C([H])([H])[H])c(N4C([H])([H])C([H])([H])N(C(=O)N5C([H])([H])C([H])([H])C([H])([H])C([H])(n6nc(-c7c([H])c([H])c(Oc8c([H])c([H])c(F)c([H])c8F)c([H])c7[H])c(C(=O)N([H])[H])c6N([H])[H])C5([H])[H])C([H])(C([H])([H])[H])C4([H])[H])c(C([H])([H])[H])c(C([H])([H])[H])c3C([H])([H])[H])c([H])c([H])c2C1([H])[H]

$$$$
8:0:0
     RDKit          3D

 95104  0  0  1  0  0  0  0  0999 V2000
  -29.2920  -21.0070   19.9150 C   0  0  0  0  0  0  0  0  0  0  0  0
  -28.7110  -22.1840   20.5870 C   0  0  0  0  0  0  0  0  0  0  0  0
  -29.8640  -21.3330   18.6490 C   0  0  0  0  0  0  0  0  0  0  0  0
  -28.7330  -23.5490   20.0190 C   0  0  0  0  0  0  0  0  0  0  0  0
  -29.8430  -22.6720   18.1660 C   0  0  0  0  0  0  0  0  0  0  0  0
  -28.0550  -21.9740   21.9430 C   0  0  0  0  0  1  0  0  0  0  0  0
  -30.4360  -23.0150   16.8080 C   0  0  0  0  0  1  0  0  0  0  0  0
  -29.3100  -23.7280   18.8170 N   0  0  0  0  0  0  0  0  0  0  0  0
  -30.6610  -14.9410   20.3020 C   0  0  0  0  0  0  0  0  0  0  0  0
  -30.4250  -12.6290   19.3330 C   0  0  0  0  0  2  0  0  0  0  0  0
  -29.4910  -12.6040   18.1060 C   0  0  0  0  0  2  0  0  0  0  0  0
  -28.0340  -12.3930   18.5510 C   0  0  0  0  0  2  0  0  0  0  0  0
  -27.6330  -13.3170   19.7300 C   0  0  0  0  0  3  0  0  0  0  0  0
  -28.6990  -13.3650   20.8460 C   0  0  0  0  0  2  0  0  0  0  0  0
  -29.9680  -13.7400   20.2140 N   0  0  0  0  0  0  0  0  0  0  0  0
  -31.8730  -14.9010   20.0680 O   0  0  0  0  0  0  0  0  0  0  0  0
  -28.6370  -18.3100   19.6320 C   0  0  0  0  0  2  0  0  0  0  0  0
  -30.7440  -18.7980   20.7080 C   0  0  0  0  0  2  0  0  0  0  0  0
  -28.7530  -16.7630   20.0800 C   0  0  0  0  0  2  0  0  0  0  0  0
  -30.7830  -17.3090   21.2850 C   0  0  0  0  0  2  0  0  0  0  0  0
  -29.3370  -19.4550   20.4740 C   0  0  0  0  0  3  0  0  0  0  0  0
  -30.0610  -16.2060   20.5610 N   0  0  0  0  0  0  0  0  0  0  0  0
  -25.2640  -13.9000   20.4920 C   0  0  0  0  0  0  0  0  0  0  0  0
  -24.2010  -13.1220   20.8600 C   0  0  0  0  0  0  0  0  0  0  0  0
  -24.6680  -11.7720   20.8200 C   0  0  0  0  0  0  0  0  0  0  0  0
  -26.3040  -13.0200   20.2430 N   0  0  0  0  0  0  0  0  0  0  0  0
  -25.9570  -11.7370   20.5080 N   0  0  0  0  0  0  0  0  0  0  0  0
  -23.9450  -10.5080   21.0030 C   0  0  0  0  0  0  0  0  0  0  0  0
  -24.3710   -9.5420   21.9400 C   0  0  0  0  0  3  0  0  0  0  0  0
  -23.6460   -8.3440   22.1110 C   0  0  0  0  0  3  0  0  0  0  0  0
  -22.4820   -8.1030   21.3440 C   0  0  0  0  0  0  0  0  0  0  0  0
  -22.0760   -9.0580   20.3950 C   0  0  0  0  0  3  0  0  0  0  0  0
  -22.8010  -10.2480   20.2230 C   0  0  0  0  0  3  0  0  0  0  0  0
  -21.7280   -6.9570   21.4260 O   0  0  0  0  0  0  0  0  0  0  0  0
  -21.6590   -6.2220   22.5820 C   0  0  0  0  0  0  0  0  0  0  0  0
  -21.1860   -6.7780   23.7910 C   0  0  0  0  0  3  0  0  0  0  0  0
  -21.0660   -5.9690   24.9390 C   0  0  0  0  0  3  0  0  0  0  0  0
  -21.4090   -4.6050   24.8780 C   0  0  0  0  0  0  0  0  0  0  0  0
  -21.8760   -4.0490   23.6730 C   0  0  0  0  0  3  0  0  0  0  0  0
  -21.9980   -4.8550   22.5280 C   0  0  0  0  0  0  0  0  0  0  0  0
  -22.4280   -4.3100   21.3650 F   0  0  0  0  0  0  0  0  0  0  0  0
  -21.2870   -3.8250   25.9770 F   0  0  0  0  0  0  0  0  0  0  0  0
  -22.8050  -13.5970   21.1330 C   0  0  0  0  0  0  0  0  0  0  0  0
  -22.0750  -12.8920   21.9890 N   0  0  0  0  0  0  0  0  0  0  0  0
  -22.3700  -14.6280   20.6220 O   0  0  0  0  0  0  0  0  0  0  0  0
  -22.4420  -12.0590   22.4240 H   0  0  0  0  0  0  0  0  0  0  0  0
  -21.1380  -13.1900   22.2160 H   0  0  0  0  0  0  0  0  0  0  0  0
  -25.4260  -15.2710   20.3200 N   0  0  0  0  0  0  0  0  0  0  0  0
  -24.6600  -15.9240   20.4440 H   0  0  0  0  0  0  0  0  0  0  0  0
  -26.2730  -15.7130   19.9880 H   0  0  0  0  0  0  0  0  0  0  0  0
  -30.4580  -20.3520   17.8490 N   0  0  0  0  0  0  0  0  0  0  0  0
  -30.6170  -19.4160   18.2040 H   0  0  0  0  0  0  0  0  0  0  0  0
  -31.0030  -20.6010   17.0290 H   0  0  0  0  0  0  0  0  0  0  0  0
  -28.0610  -24.8970   20.6410 C   0  0  0  0  0  2  0  0  0  0  0  0
  -28.3050  -26.3240   20.1350 O   0  0  0  0  0  0  0  0  0  0  0  0
  -24.6240  -31.8860   23.2060 C   0  0  0  0  0  0  0  0  0  0  0  0
  -27.2310  -27.2620   20.1380 C   0  0  0  0  0  0  0  0  0  0  0  0
  -23.4280  -30.4940   21.5620 C   0  0  0  0  0  3  0  0  0  0  0  0
  -24.8820  -28.9430   20.1250 C   0  0  0  0  0  0  0  0  0  0  0  0
  -25.9740  -30.7950   21.3860 C   0  0  0  0  0  2  0  0  0  0  0  0
  -26.0570  -29.4100   20.7300 C   0  0  0  0  0  0  0  0  0  0  0  0
  -27.2370  -28.5850   20.7180 C   0  0  0  0  0  3  0  0  0  0  0  0
  -26.0340  -26.8810   19.4970 C   0  0  0  0  0  3  0  0  0  0  0  0
  -24.8790  -27.6900   19.4940 C   0  0  0  0  0  3  0  0  0  0  0  0
  -23.6470  -29.8240   20.1790 C   0  0  0  0  0  2  0  0  0  0  0  0
  -24.6950  -31.0780   22.1070 N   0  0  0  0  0  0  0  0  0  0  0  0
  -23.5380  -32.1600   23.7390 O   0  0  0  0  0  0  0  0  0  0  0  0
  -22.7610  -29.4740   22.5180 C   0  0  0  0  0  0  0  0  0  0  0  0
  -21.4340  -29.2970   22.3910 N   0  0  0  0  0  0  0  0  0  0  0  0
  -23.4390  -28.8470   23.3370 O   0  0  0  0  0  0  0  0  0  0  0  0
  -20.9450  -29.8540   21.7040 H   0  0  0  0  0  0  0  0  0  0  0  0
  -18.0570  -28.0990   22.9120 C   0  0  0  0  0  0  0  0  0  0  0  0
  -20.6180  -28.3520   23.1580 C   0  0  0  0  0  3  0  0  0  0  0  0
  -20.7110  -26.9270   22.5630 C   0  0  0  0  0  2  0  0  0  0  0  0
  -19.5970  -26.6210   21.5560 C   0  0  0  0  0  2  0  0  0  0  0  0
  -18.2220  -26.7600   22.2150 C   0  0  0  0  0  2  0  0  0  0  0  0
  -19.1810  -28.8530   23.3410 C   0  0  0  0  0  0  0  0  0  0  0  0
  -18.9700  -30.1080   23.9540 C   0  0  0  0  0  3  0  0  0  0  0  0
  -17.6660  -30.6070   24.1420 C   0  0  0  0  0  3  0  0  0  0  0  0
  -16.5570  -29.8510   23.7270 C   0  0  0  0  0  3  0  0  0  0  0  0
  -16.7530  -28.5970   23.1190 C   0  0  0  0  0  3  0  0  0  0  0  0
  -25.9010  -32.5220   23.8370 C   0  0  0  0  0  3  0  0  0  0  0  0
  -25.5860  -33.9210   24.1670 N   0  0  0  0  0  0  0  0  0  0  0  0
  -25.9190  -34.9780   23.4150 C   0  0  0  0  0  0  0  0  0  0  0  0
  -26.5910  -34.8770   22.3850 O   0  0  0  0  0  0  0  0  0  0  0  0
  -24.9870  -34.0710   24.9650 H   0  0  0  0  0  0  0  0  0  0  0  0
  -24.1960  -36.7770   23.0600 C   0  0  0  0  0  1  0  0  0  0  0  0
  -25.4310  -36.3660   23.8770 C   0  0  0  0  0  3  0  0  0  0  0  0
  -27.5590  -37.2440   24.7310 C   0  0  0  0  0  1  0  0  0  0  0  0
  -26.4660  -37.4170   23.7770 N   0  0  0  0  0  0  0  0  0  0  0  0
  -26.0600  -38.3370   23.9260 H   0  0  0  0  0  0  0  0  0  0  0  0
  -26.4120  -31.7530   25.1170 C   0  0  1  0  0  0  0  0  0  0  0  0
  -25.3130  -31.5150   26.1790 C   0  0  0  0  0  1  0  0  0  0  0  0
  -26.9990  -30.3750   24.7320 C   0  0  0  0  0  1  0  0  0  0  0  0
  -27.5590  -32.5500   25.7820 C   0  0  0  0  0  1  0  0  0  0  0  0
  1  2  1  0
  2  6  1  0
  3  1  2  0
  4  2  2  0
  4 54  1  0
  5  3  1  0
  5  8  2  0
  7  5  1  0
  8  4  1  0
  9 22  1  0
 10 15  1  0
 11 12  1  0
 11 10  1  0
 13 12  1  0
 13 26  1  0
 13 14  1  0
 15  9  1  0
 15 14  1  0
 16  9  2  0
 17 19  1  0
 17 21  1  0
 18 20  1  0
 19 22  1  0
 21  1  1  0
 21 18  1  0
 22 20  1  0
 23 24  2  0
 24 43  1  0
 25 24  1  0
 25 28  1  0
 26 23  1  0
 26 27  1  0
 27 25  2  0
 28 29  1  0
 29 30  2  0
 31 34  1  0
 31 30  1  0
 32 31  2  0
 33 32  1  0
 33 28  2  0
 34 35  1  0
 35 36  1  0
 36 37  2  0
 38 37  1  0
 38 42  1  0
 39 38  2  0
 40 35  2  0
 40 39  1  0
 41 40  1  0
 43 44  1  0
 44 47  1  0
 44 46  1  0
 45 43  2  0
 48 49  1  0
 48 23  1  0
 50 48  1  0
 51 52  1  0
 51  3  1  0
 53 51  1  0
 55 57  1  0
 55 54  1  0
 56 67  2  0
 57 62  1  0
 58 66  1  0
 58 68  1  0
 59 65  1  0
 59 61  1  0
 60 66  1  0
 61 60  1  0
 62 61  2  0
 63 57  2  0
 64 63  1  0
 64 59  2  0
 65 58  1  0
 66 56  1  0
 68 70  2  0
 69 68  1  0
 71 69  1  0
 72 81  2  0
 72 77  1  0
 73 69  1  0
 73 77  1  0
 74 73  1  0
 75 76  1  0
 75 74  1  0
 76 72  1  0
 77 78  2  0
 78 79  1  0
 80 79  2  0
 81 80  1  0
 82 56  1  0
 82 83  1  0
 82 92  1  0
 83 86  1  0
 84 88  1  0
 84 83  1  0
 85 84  2  0
 88 87  1  0
 90 88  1  0
 90 91  1  0
 90 89  1  0
 92 95  1  1
 92 93  1  0
 94 92  1  0
M  ISO  4   9 100  22 100  54 101  55 101
M  END
>  <TORSDO>  (9) 
F 18

>  <SCORE>  (9) 
-15.085

>  <name>  (9) 
8

>  <ligand_id>  (9) 
8

>  <original_smiles>  (9) 
[H]c1c([H])c([H])c2c(c1[H])C([H])([H])C([H])([H])C([H])([H])C2([H])N([H])C(=O)C1([H])N(C(=O)C([H])(N([H])C(=O)C([H])(N([H])C([H])([H])[H])C([H])([H])[H])C(C([H])([H])[H])(C([H])([H])[H])C([H])([H])[H])C([H])([H])c2c([H])c(OC([H])([H])c3nc(C([H])([H])[H])c(N([H])[H])c(C4([H])C([H])([H])C([H])([H])N(C(=O)N5C([H])([H])C([H])([H])C([H])([H])C([H])(n6nc(-c7c([H])c([H])c(Oc8c([H])c([H])c(F)c([H])c8F)c([H])c7[H])c(C(=O)N([H])[H])c6N([H])[H])C5([H])[H])C([H])([H])C4([H])[H])c3C([H])([H])[H])c([H])c([H])c2C1([H])[H]

>  <smiles>  (9) 
[H]c1c([H])c([H])c2c(c1[H])C([H])([H])C([H])([H])C([H])([H])C2([H])N([H])C(=O)C1([H])N(C(=O)C([H])(N([H])C(=O)C([H])(N([H])C([H])([H])[H])C([H])([H])[H])C(C([H])([H])[H])(C([H])([H])[H])C([H])([H])[H])C([H])([H])c2c([H])c(OC([H])([H])c3nc(C([H])([H])[H])c(N([H])[H])c(C4([H])C([H])([H])C([H])([H])N(C(=O)N5C([H])([H])C([H])([H])C([H])([H])C([H])(n6nc(-c7c([H])c([H])c(Oc8c([H])c([H])c(F)c([H])c8F)c([H])c7[H])c(C(=O)N([H])[H])c6N([H])[H])C5([H])[H])C([H])([H])C4([H])[H])c3C([H])([H])[H])c([H])c([H])c2C1([H])[H]

$$$$
9:0:0
     RDKit          3D

 96105  0  0  1  0  0  0  0  0999 V2000
  -30.6220  -21.5780   18.8270 C   0  0  0  0  0  3  0  0  0  0  0  0
  -29.9480  -20.8430   19.8530 C   0  0  0  0  0  0  0  0  0  0  0  0
  -30.3370  -22.9730   18.5360 C   0  0  0  0  0  0  0  0  0  0  0  0
  -28.9900  -21.6890   20.5210 C   0  0  0  0  0  0  0  0  0  0  0  0
  -29.3640  -23.7370   19.2690 C   0  0  0  0  0  0  0  0  0  0  0  0
  -31.0590  -23.6230   17.3700 C   0  0  0  0  0  1  0  0  0  0  0  0
  -28.7260  -23.0170   20.2400 N   0  0  0  0  0  0  0  0  0  0  0  0
  -31.3210  -19.4210   21.4240 C   0  0  0  0  0  2  0  0  0  0  0  0
  -32.4280  -18.3320   19.6560 C   0  0  0  0  0  2  0  0  0  0  0  0
  -30.2320  -19.2950   20.3530 C   0  0  0  0  0  3  0  0  0  0  0  0
  -30.9080  -18.0300   19.5170 C   0  0  0  0  0  3  0  0  0  0  0  0
  -32.5640  -19.4110   20.6480 N   0  0  0  0  0  4  0  0  0  0  0  0
  -33.3680  -19.2730   21.2360 H   0  0  0  0  0  0  0  0  0  0  0  0
  -32.6540  -20.2950   20.1750 H   0  0  0  0  0  0  0  0  0  0  0  0
  -31.3170  -15.3170   19.6850 C   0  0  0  0  0  0  0  0  0  0  0  0
  -31.0850  -12.9350   18.9030 C   0  0  0  0  0  2  0  0  0  0  0  0
  -30.1040  -12.8640   17.7110 C   0  0  0  0  0  2  0  0  0  0  0  0
  -28.6560  -12.7140   18.2150 C   0  0  0  0  0  2  0  0  0  0  0  0
  -28.3190  -13.7120   19.3540 C   0  0  0  0  0  3  0  0  0  0  0  0
  -29.4210  -13.7620   20.4360 C   0  0  0  0  0  2  0  0  0  0  0  0
  -30.6810  -14.0860   19.7590 N   0  0  0  0  0  0  0  0  0  0  0  0
  -32.4790  -15.3340   19.2720 O   0  0  0  0  0  0  0  0  0  0  0  0
  -30.6040  -16.5220   19.8770 N   0  0  0  0  0  0  0  0  0  0  0  0
  -29.6620  -16.3670   20.2060 H   0  0  0  0  0  0  0  0  0  0  0  0
  -26.0160  -14.3780   20.2570 C   0  0  0  0  0  0  0  0  0  0  0  0
  -24.9410  -13.6410   20.6690 C   0  0  0  0  0  0  0  0  0  0  0  0
  -25.3350  -12.2710   20.5620 C   0  0  0  0  0  0  0  0  0  0  0  0
  -26.9990  -13.4610   19.9230 N   0  0  0  0  0  0  0  0  0  0  0  0
  -26.6010  -12.1860   20.1710 N   0  0  0  0  0  0  0  0  0  0  0  0
  -24.5590  -11.0390   20.7540 C   0  0  0  0  0  0  0  0  0  0  0  0
  -24.9500  -10.0570   21.6920 C   0  0  0  0  0  3  0  0  0  0  0  0
  -24.1750   -8.8910   21.8720 C   0  0  0  0  0  3  0  0  0  0  0  0
  -22.9950   -8.6980   21.1140 C   0  0  0  0  0  0  0  0  0  0  0  0
  -22.6230   -9.6670   20.1670 C   0  0  0  0  0  3  0  0  0  0  0  0
  -23.3980  -10.8250   19.9830 C   0  0  0  0  0  3  0  0  0  0  0  0
  -22.1950   -7.5840   21.2040 O   0  0  0  0  0  0  0  0  0  0  0  0
  -22.0250   -6.9130   22.3880 C   0  0  0  0  0  0  0  0  0  0  0  0
  -21.4700   -7.5380   23.5270 C   0  0  0  0  0  3  0  0  0  0  0  0
  -21.2500   -6.7920   24.7020 C   0  0  0  0  0  3  0  0  0  0  0  0
  -21.5730   -5.4230   24.7390 C   0  0  0  0  0  0  0  0  0  0  0  0
  -22.1210   -4.7980   23.6050 C   0  0  0  0  0  3  0  0  0  0  0  0
  -22.3440   -5.5410   22.4330 C   0  0  0  0  0  0  0  0  0  0  0  0
  -22.8510   -4.9280   21.3360 F   0  0  0  0  0  0  0  0  0  0  0  0
  -21.3550   -4.7050   25.8650 F   0  0  0  0  0  0  0  0  0  0  0  0
  -23.5870  -14.1740   21.0420 C   0  0  0  0  0  0  0  0  0  0  0  0
  -22.8840  -13.4900   21.9370 N   0  0  0  0  0  0  0  0  0  0  0  0
  -23.1670  -15.2310   20.5730 O   0  0  0  0  0  0  0  0  0  0  0  0
  -23.2400  -12.6330   22.3360 H   0  0  0  0  0  0  0  0  0  0  0  0
  -21.9780  -13.8280   22.2280 H   0  0  0  0  0  0  0  0  0  0  0  0
  -26.2350  -15.7450   20.1140 N   0  0  0  0  0  0  0  0  0  0  0  0
  -25.5000  -16.4240   20.2820 H   0  0  0  0  0  0  0  0  0  0  0  0
  -27.0610  -16.1530   19.6960 H   0  0  0  0  0  0  0  0  0  0  0  0
  -26.8460  -20.4450   21.0750 C   0  0  0  0  0  1  0  0  0  0  0  0
  -28.0920  -21.1490   21.6290 C   0  0  0  0  0  2  0  0  0  0  0  0
  -28.6650  -25.1410   18.7810 C   0  0  0  0  0  2  0  0  0  0  0  0
  -28.8690  -26.5970   19.2510 O   0  0  0  0  0  0  0  0  0  0  0  0
  -24.6510  -31.3910   22.8900 C   0  0  0  0  0  0  0  0  0  0  0  0
  -27.7280  -27.4760   19.2750 C   0  0  0  0  0  0  0  0  0  0  0  0
  -23.6060  -30.0860   21.0820 C   0  0  0  0  0  3  0  0  0  0  0  0
  -25.2120  -28.9130   19.4640 C   0  0  0  0  0  0  0  0  0  0  0  0
  -26.1060  -30.6810   20.9630 C   0  0  0  0  0  2  0  0  0  0  0  0
  -26.3360  -29.4070   20.1360 C   0  0  0  0  0  0  0  0  0  0  0  0
  -27.5920  -28.7010   20.0390 C   0  0  0  0  0  3  0  0  0  0  0  0
  -26.5700  -27.1090   18.5470 C   0  0  0  0  0  3  0  0  0  0  0  0
  -25.3390  -27.7800   18.6540 C   0  0  0  0  0  3  0  0  0  0  0  0
  -23.8860  -29.6360   19.6270 C   0  0  0  0  0  2  0  0  0  0  0  0
  -24.8060  -30.7350   21.7020 N   0  0  0  0  0  0  0  0  0  0  0  0
  -23.5450  -31.4700   23.4480 O   0  0  0  0  0  0  0  0  0  0  0  0
  -23.0700  -28.8830   21.8990 C   0  0  0  0  0  0  0  0  0  0  0  0
  -21.7760  -28.5590   21.7350 N   0  0  0  0  0  0  0  0  0  0  0  0
  -23.8200  -28.2510   22.6480 O   0  0  0  0  0  0  0  0  0  0  0  0
  -21.2180  -29.1290   21.1140 H   0  0  0  0  0  0  0  0  0  0  0  0
  -18.5810  -26.8740   22.0270 C   0  0  0  0  0  0  0  0  0  0  0  0
  -21.0830  -27.4370   22.3740 C   0  0  0  0  0  3  0  0  0  0  0  0
  -21.3770  -26.1090   21.6390 C   0  0  0  0  0  2  0  0  0  0  0  0
  -20.3310  -25.7660   20.5740 C   0  0  0  0  0  2  0  0  0  0  0  0
  -18.9400  -25.6490   21.2020 C   0  0  0  0  0  2  0  0  0  0  0  0
  -19.5870  -27.7210   22.5640 C   0  0  0  0  0  0  0  0  0  0  0  0
  -19.1980  -28.8640   23.2970 C   0  0  0  0  0  3  0  0  0  0  0  0
  -17.8370  -29.1630   23.4970 C   0  0  0  0  0  3  0  0  0  0  0  0
  -16.8460  -28.3130   22.9740 C   0  0  0  0  0  3  0  0  0  0  0  0
  -17.2200  -27.1700   22.2460 C   0  0  0  0  0  3  0  0  0  0  0  0
  -25.8510  -32.0910   23.5960 C   0  0  0  0  0  3  0  0  0  0  0  0
  -26.3770  -31.2980   24.8540 C   0  0  1  0  0  0  0  0  0  0  0  0
  -25.2680  -30.9320   25.8680 C   0  0  0  0  0  1  0  0  0  0  0  0
  -27.0720  -29.9850   24.4270 C   0  0  0  0  0  1  0  0  0  0  0  0
  -27.4450  -32.1380   25.5950 C   0  0  0  0  0  1  0  0  0  0  0  0
  -25.4170  -33.4420   23.9830 N   0  0  0  0  0  0  0  0  0  0  0  0
  -25.7110  -34.5610   23.3060 C   0  0  0  0  0  0  0  0  0  0  0  0
  -26.4420  -34.5690   22.3130 O   0  0  0  0  0  0  0  0  0  0  0  0
  -24.7700  -33.5040   24.7540 H   0  0  0  0  0  0  0  0  0  0  0  0
  -23.8650  -36.2390   22.9670 C   0  0  0  0  0  1  0  0  0  0  0  0
  -25.0980  -35.8820   23.8130 C   0  0  0  0  0  3  0  0  0  0  0  0
  -27.1110  -36.8840   24.8000 C   0  0  0  0  0  1  0  0  0  0  0  0
  -26.0500  -37.0150   23.8050 N   0  0  0  0  0  0  0  0  0  0  0  0
  -25.5660  -37.8920   23.9710 H   0  0  0  0  0  0  0  0  0  0  0  0
  1  2  1  0
  2  4  2  0
  3  1  2  0
  3  5  1  0
  4 54  1  0
  5  7  2  0
  6  3  1  0
  7  4  1  0
  9 12  1  0
 10  2  1  0
 10  8  1  0
 11  9  1  0
 11 23  1  0
 11 10  1  0
 12 13  1  0
 12  8  1  0
 14 12  1  0
 15 21  1  0
 15 23  1  0
 16 21  1  0
 17 18  1  0
 17 16  1  0
 19 18  1  0
 19 28  1  0
 19 20  1  0
 21 20  1  0
 22 15  2  0
 23 24  1  0
 25 26  2  0
 26 45  1  0
 27 26  1  0
 27 30  1  0
 28 29  1  0
 28 25  1  0
 29 27  2  0
 30 31  1  0
 31 32  2  0
 33 36  1  0
 33 32  1  0
 34 33  2  0
 35 34  1  0
 35 30  2  0
 36 37  1  0
 37 42  2  0
 37 38  1  0
 38 39  2  0
 39 40  1  0
 40 44  1  0
 41 40  2  0
 42 41  1  0
 43 42  1  0
 45 46  1  0
 46 49  1  0
 46 48  1  0
 47 45  2  0
 50 25  1  0
 50 51  1  0
 52 50  1  0
 53 54  1  0
 55 56  1  0
 55  5  1  0
 56 58  1  0
 57 68  2  0
 58 63  1  0
 59 67  1  0
 59 69  1  0
 60 66  1  0
 60 62  1  0
 61 67  1  0
 62 61  1  0
 63 62  2  0
 64 65  1  0
 64 58  2  0
 65 60  2  0
 66 59  1  0
 67 57  1  0
 69 71  2  0
 70 69  1  0
 72 70  1  0
 73 82  2  0
 73 78  1  0
 74 70  1  0
 74 78  1  0
 75 74  1  0
 76 77  1  0
 76 75  1  0
 77 73  1  0
 78 79  2  0
 79 80  1  0
 81 80  2  0
 82 81  1  0
 83 57  1  0
 83 88  1  0
 83 84  1  0
 84 87  1  1
 84 85  1  0
 86 84  1  0
 88 91  1  0
 89 93  1  0
 89 88  1  0
 90 89  2  0
 93 92  1  0
 95 93  1  0
 95 96  1  0
 95 94  1  0
M  ISO  4  15 100  23 100  55 101  56 101
M  END
>  <TORSDO>  (10) 
F 19

>  <SCORE>  (10) 
-8.709

>  <name>  (10) 
9

>  <ligand_id>  (10) 
9

>  <original_smiles>  (10) 
[H]c1c([H])c([H])c2c(c1[H])C([H])([H])C([H])([H])C([H])([H])C2([H])N([H])C(=O)C1([H])N(C(=O)C([H])(N([H])C(=O)C([H])(N([H])C([H])([H])[H])C([H])([H])[H])C(C([H])([H])[H])(C([H])([H])[H])C([H])([H])[H])C([H])([H])c2c([H])c(OC([H])([H])c3nc(C([H])([H])C([H])([H])[H])c(C4([H])C([H])(N([H])C(=O)N5C([H])([H])C([H])([H])C([H])([H])C([H])(n6nc(-c7c([H])c([H])c(Oc8c([H])c([H])c(F)c([H])c8F)c([H])c7[H])c(C(=O)N([H])[H])c6N([H])[H])C5([H])[H])C([H])([H])[N+]([H])([H])C4([H])[H])c([H])c3C([H])([H])[H])c([H])c([H])c2C1([H])[H]

>  <smiles>  (10) 
[H]c1c([H])c([H])c2c(c1[H])C([H])([H])C([H])([H])C([H])([H])C2([H])N([H])C(=O)C1([H])N(C(=O)C([H])(N([H])C(=O)C([H])(N([H])C([H])([H])[H])C([H])([H])[H])C(C([H])([H])[H])(C([H])([H])[H])C([H])([H])[H])C([H])([H])c2c([H])c(OC([H])([H])c3nc(C([H])([H])C([H])([H])[H])c(C4([H])C([H])(N([H])C(=O)N5C([H])([H])C([H])([H])C([H])([H])C([H])(n6nc(-c7c([H])c([H])c(Oc8c([H])c([H])c(F)c([H])c8F)c([H])c7[H])c(C(=O)N([H])[H])c6N([H])[H])C5([H])[H])C([H])([H])[N+]([H])([H])C4([H])[H])c([H])c3C([H])([H])[H])c([H])c([H])c2C1([H])[H]

$$$$
10:0:0
     RDKit          3D

 94103  0  0  1  0  0  0  0  0999 V2000
  -30.6120  -18.8950   20.4310 C   0  0  0  0  0  3  0  0  0  0  0  0
  -30.4830  -20.3760   20.3860 C   0  0  0  0  0  0  0  0  0  0  0  0
  -29.6080  -17.9270   20.0600 C   0  0  0  0  0  0  0  0  0  0  0  0
  -28.4580  -18.7510   19.6660 C   0  0  0  0  0  0  0  0  0  0  0  0
  -29.2750  -21.1140   19.9760 C   0  0  0  0  0  0  0  0  0  0  0  0
  -28.3320  -20.1710   19.5930 N   0  0  0  0  0  0  0  0  0  0  0  0
  -30.4950  -15.1310   19.8870 C   0  0  0  0  0  0  0  0  0  0  0  0
  -30.4650  -12.7140   18.9530 C   0  0  0  0  0  2  0  0  0  0  0  0
  -29.4540  -12.5470   17.7910 C   0  0  0  0  0  2  0  0  0  0  0  0
  -28.0430  -12.2450   18.3290 C   0  0  0  0  0  2  0  0  0  0  0  0
  -27.6680  -13.1660   19.5160 C   0  0  0  0  0  3  0  0  0  0  0  0
  -28.7960  -13.2790   20.5630 C   0  0  0  0  0  2  0  0  0  0  0  0
  -29.9770  -13.8090   19.8610 N   0  0  0  0  0  0  0  0  0  0  0  0
  -31.6850  -15.2120   19.5480 O   0  0  0  0  0  0  0  0  0  0  0  0
  -29.6430  -16.3120   20.1000 N   0  0  0  0  0  0  0  0  0  0  0  0
  -28.7220  -15.9530   20.3060 H   0  0  0  0  0  0  0  0  0  0  0  0
  -25.3550  -13.6680   20.4700 C   0  0  0  0  0  0  0  0  0  0  0  0
  -24.3350  -12.8700   20.9000 C   0  0  0  0  0  0  0  0  0  0  0  0
  -24.8070  -11.5280   20.7750 C   0  0  0  0  0  0  0  0  0  0  0  0
  -26.3840  -12.8160   20.1110 N   0  0  0  0  0  0  0  0  0  0  0  0
  -26.0700  -11.5180   20.3600 N   0  0  0  0  0  0  0  0  0  0  0  0
  -24.1040  -10.2550   20.9680 C   0  0  0  0  0  0  0  0  0  0  0  0
  -24.5630   -9.2910   21.8900 C   0  0  0  0  0  3  0  0  0  0  0  0
  -23.8570   -8.0820   22.0720 C   0  0  0  0  0  3  0  0  0  0  0  0
  -22.6780   -7.8300   21.3300 C   0  0  0  0  0  0  0  0  0  0  0  0
  -22.2390   -8.7840   20.3950 C   0  0  0  0  0  3  0  0  0  0  0  0
  -22.9460   -9.9840   20.2120 C   0  0  0  0  0  3  0  0  0  0  0  0
  -21.9410   -6.6750   21.4230 O   0  0  0  0  0  0  0  0  0  0  0  0
  -21.8310   -5.9840   22.6030 C   0  0  0  0  0  0  0  0  0  0  0  0
  -21.3000   -6.5820   23.7680 C   0  0  0  0  0  3  0  0  0  0  0  0
  -21.1390   -5.8170   24.9400 C   0  0  0  0  0  3  0  0  0  0  0  0
  -21.4990   -4.4550   24.9480 C   0  0  0  0  0  0  0  0  0  0  0  0
  -22.0210   -3.8570   23.7870 C   0  0  0  0  0  3  0  0  0  0  0  0
  -22.1840   -4.6200   22.6180 C   0  0  0  0  0  0  0  0  0  0  0  0
  -22.6690   -4.0350   21.4960 F   0  0  0  0  0  0  0  0  0  0  0  0
  -21.3360   -3.7180   26.0710 F   0  0  0  0  0  0  0  0  0  0  0  0
  -22.9610  -13.3270   21.2960 C   0  0  0  0  0  0  0  0  0  0  0  0
  -22.3140  -12.6060   22.2040 N   0  0  0  0  0  0  0  0  0  0  0  0
  -22.4740  -14.3590   20.8360 O   0  0  0  0  0  0  0  0  0  0  0  0
  -22.7230  -11.7710   22.5970 H   0  0  0  0  0  0  0  0  0  0  0  0
  -21.3960  -12.8950   22.5110 H   0  0  0  0  0  0  0  0  0  0  0  0
  -25.4820  -15.0400   20.3160 N   0  0  0  0  0  0  0  0  0  0  0  0
  -24.6910  -15.6570   20.4670 H   0  0  0  0  0  0  0  0  0  0  0  0
  -26.2270  -15.4670   19.7860 H   0  0  0  0  0  0  0  0  0  0  0  0
  -25.9030  -18.7590   18.8730 C   0  0  0  0  0  2  0  0  0  0  0  0
  -25.9990  -18.1460   20.2490 C   0  0  0  0  0  2  0  0  0  0  0  0
  -27.1760  -18.0540   19.3030 C   0  0  0  0  0  3  0  0  0  0  0  0
  -33.0550  -20.5760   20.2550 C   0  0  0  0  0  1  0  0  0  0  0  0
  -31.7890  -21.3900   22.2970 C   0  0  0  0  0  1  0  0  0  0  0  0
  -31.7350  -21.1740   20.7780 C   0  0  0  0  0  3  0  0  0  0  0  0
  -29.6070  -23.0100   18.1980 C   0  0  0  0  0  1  0  0  0  0  0  0
  -29.1820  -22.8380   19.6630 C   0  0  0  0  0  3  0  0  0  0  0  0
  -28.0560  -24.1840   19.9570 C   0  0  0  0  0  2  0  0  0  0  0  0
  -28.2430  -25.8080   19.8270 O   0  0  0  0  0  0  0  0  0  0  0  0
  -24.6720  -31.6380   22.9920 C   0  0  0  0  0  0  0  0  0  0  0  0
  -27.2000  -26.8620   19.8410 C   0  0  0  0  0  0  0  0  0  0  0  0
  -23.4600  -30.2890   21.3250 C   0  0  0  0  0  3  0  0  0  0  0  0
  -24.8940  -28.7180   19.8570 C   0  0  0  0  0  0  0  0  0  0  0  0
  -26.0230  -30.5080   21.1620 C   0  0  0  0  0  2  0  0  0  0  0  0
  -26.0860  -29.1160   20.4740 C   0  0  0  0  0  0  0  0  0  0  0  0
  -27.2350  -28.2110   20.4390 C   0  0  0  0  0  3  0  0  0  0  0  0
  -25.9750  -26.6030   19.1860 C   0  0  0  0  0  3  0  0  0  0  0  0
  -24.8610  -27.4810   19.1930 C   0  0  0  0  0  3  0  0  0  0  0  0
  -23.6780  -29.6380   19.9310 C   0  0  0  0  0  2  0  0  0  0  0  0
  -24.7400  -30.8360   21.8810 N   0  0  0  0  0  0  0  0  0  0  0  0
  -23.5880  -31.9170   23.5280 O   0  0  0  0  0  0  0  0  0  0  0  0
  -22.7690  -29.2710   22.2690 C   0  0  0  0  0  0  0  0  0  0  0  0
  -21.4320  -29.1530   22.1820 N   0  0  0  0  0  0  0  0  0  0  0  0
  -23.4430  -28.5900   23.0460 O   0  0  0  0  0  0  0  0  0  0  0  0
  -20.9420  -29.7530   21.5340 H   0  0  0  0  0  0  0  0  0  0  0  0
  -18.0270  -28.0560   22.7860 C   0  0  0  0  0  0  0  0  0  0  0  0
  -20.6050  -28.2060   22.9400 C   0  0  0  0  0  3  0  0  0  0  0  0
  -20.6200  -26.8050   22.2810 C   0  0  0  0  0  2  0  0  0  0  0  0
  -19.4600  -26.5860   21.3060 C   0  0  0  0  0  2  0  0  0  0  0  0
  -18.1160  -26.7450   22.0240 C   0  0  0  0  0  2  0  0  0  0  0  0
  -19.1950  -28.7500   23.2020 C   0  0  0  0  0  0  0  0  0  0  0  0
  -19.0540  -29.9790   23.8810 C   0  0  0  0  0  3  0  0  0  0  0  0
  -17.7800  -30.5160   24.1450 C   0  0  0  0  0  3  0  0  0  0  0  0
  -16.6280  -29.8190   23.7420 C   0  0  0  0  0  3  0  0  0  0  0  0
  -16.7520  -28.5910   23.0690 C   0  0  0  0  0  3  0  0  0  0  0  0
  -25.9510  -32.2560   23.6330 C   0  0  0  0  0  3  0  0  0  0  0  0
  -26.4780  -31.4380   24.8770 C   0  0  1  0  0  0  0  0  0  0  0  0
  -25.3970  -31.1700   25.9500 C   0  0  0  0  0  1  0  0  0  0  0  0
  -27.0470  -30.0700   24.4370 C   0  0  0  0  0  1  0  0  0  0  0  0
  -27.6420  -32.2010   25.5510 C   0  0  0  0  0  1  0  0  0  0  0  0
  -25.6330  -33.6390   24.0330 N   0  0  0  0  0  0  0  0  0  0  0  0
  -25.9470  -34.7330   23.3260 C   0  0  0  0  0  0  0  0  0  0  0  0
  -26.5940  -34.6850   22.2770 O   0  0  0  0  0  0  0  0  0  0  0  0
  -25.0540  -33.7490   24.8510 H   0  0  0  0  0  0  0  0  0  0  0  0
  -24.2010  -36.5360   23.1110 C   0  0  0  0  0  1  0  0  0  0  0  0
  -25.4670  -36.0970   23.8640 C   0  0  0  0  0  3  0  0  0  0  0  0
  -27.6190  -36.9620   24.6760 C   0  0  0  0  0  1  0  0  0  0  0  0
  -26.4910  -37.1620   23.7700 N   0  0  0  0  0  0  0  0  0  0  0  0
  -26.0830  -38.0720   23.9680 H   0  0  0  0  0  0  0  0  0  0  0  0
  2  1  1  0
  2 50  1  0
  3 15  1  0
  3  1  2  0
  4  3  1  0
  5  2  2  0
  6  4  2  0
  6  5  1  0
  7 15  1  0
  8 13  1  0
  9 10  1  0
  9  8  1  0
 11 10  1  0
 11 20  1  0
 11 12  1  0
 13  7  1  0
 13 12  1  0
 14  7  2  0
 15 16  1  0
 17 18  2  0
 18 37  1  0
 19 18  1  0
 19 22  1  0
 20 21  1  0
 20 17  1  0
 21 19  2  0
 22 23  1  0
 23 24  2  0
 25 28  1  0
 25 24  1  0
 26 25  2  0
 27 26  1  0
 27 22  2  0
 28 29  1  0
 29 34  2  0
 29 30  1  0
 30 31  2  0
 31 32  1  0
 32 36  1  0
 33 32  2  0
 34 33  1  0
 35 34  1  0
 37 38  1  0
 38 41  1  0
 38 40  1  0
 39 37  2  0
 42 43  1  0
 42 17  1  0
 44 42  1  0
 45 47  1  0
 45 46  1  0
 47  4  1  0
 47 46  1  0
 48 50  1  0
 50 49  1  0
 52 51  1  0
 52 53  1  0
 52  5  1  0
 54 56  1  0
 54 53  1  0
 55 66  2  0
 56 61  1  0
 57 65  1  0
 57 67  1  0
 58 64  1  0
 58 60  1  0
 59 65  1  0
 60 59  1  0
 61 60  2  0
 62 63  1  0
 62 56  2  0
 63 58  2  0
 64 57  1  0
 65 55  1  0
 67 69  2  0
 68 67  1  0
 70 68  1  0
 71 80  2  0
 71 76  1  0
 72 68  1  0
 72 76  1  0
 73 72  1  0
 74 75  1  0
 74 73  1  0
 75 71  1  0
 76 77  2  0
 77 78  1  0
 79 78  2  0
 80 79  1  0
 81 55  1  0
 81 86  1  0
 81 82  1  0
 82 85  1  1
 82 83  1  0
 84 82  1  0
 86 89  1  0
 87 91  1  0
 87 86  1  0
 88 87  2  0
 91 90  1  0
 93 91  1  0
 93 94  1  0
 93 92  1  0
M  ISO  4   7 100  15 100  53 101  54 101
M  END
>  <TORSDO>  (11) 
F 20

>  <SCORE>  (11) 
-13.456

>  <name>  (11) 
10

>  <ligand_id>  (11) 
10

>  <original_smiles>  (11) 
[H]c1c([H])c([H])c2c(c1[H])C([H])([H])C([H])([H])C([H])([H])C2([H])N([H])C(=O)C1([H])N(C(=O)C([H])(N([H])C(=O)C([H])(N([H])C([H])([H])[H])C([H])([H])[H])C(C([H])([H])[H])(C([H])([H])[H])C([H])([H])[H])C([H])([H])c2c([H])c(OC([H])([H])C([H])(c3nc(C4([H])C([H])([H])C4([H])[H])c(N([H])C(=O)N4C([H])([H])C([H])([H])C([H])([H])C([H])(n5nc(-c6c([H])c([H])c(Oc7c([H])c([H])c(F)c([H])c7F)c([H])c6[H])c(C(=O)N([H])[H])c5N([H])[H])C4([H])[H])c([H])c3C([H])(C([H])([H])[H])C([H])([H])[H])C([H])([H])[H])c([H])c([H])c2C1([H])[H]

>  <smiles>  (11) 
[H]c1c([H])c([H])c2c(c1[H])C([H])([H])C([H])([H])C([H])([H])C2([H])N([H])C(=O)C1([H])N(C(=O)C([H])(N([H])C(=O)C([H])(N([H])C([H])([H])[H])C([H])([H])[H])C(C([H])([H])[H])(C([H])([H])[H])C([H])([H])[H])C([H])([H])c2c([H])c(OC([H])([H])C([H])(c3nc(C4([H])C([H])([H])C4([H])[H])c(N([H])C(=O)N4C([H])([H])C([H])([H])C([H])([H])C([H])(n5nc(-c6c([H])c([H])c(Oc7c([H])c([H])c(F)c([H])c7F)c([H])c6[H])c(C(=O)N([H])[H])c5N([H])[H])C4([H])[H])c([H])c3C([H])(C([H])([H])[H])C([H])([H])[H])C([H])([H])[H])c([H])c([H])c2C1([H])[H]

$$$$
11:0:0
     RDKit          3D

 97107  0  0  1  0  0  0  0  0999 V2000
  -27.0570  -23.7840   18.5580 C   0  0  0  0  0  2  0  0  0  0  0  0
  -28.9440  -22.8570   18.9190 C   0  0  0  0  0  3  0  0  0  0  0  0
  -27.5310  -22.3380   18.5340 C   0  0  1  0  0  0  0  0  0  0  0  0
  -28.4360  -24.3480   18.9360 C   0  0  1  0  0  0  0  0  0  0  0  0
  -26.7780  -21.4400   19.5290 C   0  0  0  0  0  1  0  0  0  0  0  0
  -27.4300  -21.6570   17.1630 C   0  0  0  0  0  1  0  0  0  0  0  0
  -29.0620  -25.2280   17.8420 C   0  0  0  0  0  1  0  0  0  0  0  0
  -30.6800  -22.6290   20.9220 C   0  0  0  0  0  3  0  0  0  0  0  0
  -29.7480  -20.7430   20.0910 C   0  0  0  0  0  3  0  0  0  0  0  0
  -29.7420  -22.1050   19.9920 C   0  0  0  0  0  0  0  0  0  0  0  0
  -31.1900  -21.5600   21.6200 C   0  0  0  0  0  0  0  0  0  0  0  0
  -32.1930  -21.5760   22.7400 C   0  0  0  0  0  1  0  0  0  0  0  0
  -30.6210  -20.3840   21.1100 N   0  0  0  0  0  0  0  0  0  0  0  0
  -29.6440  -18.2110   21.8520 C   0  0  0  0  0  2  0  0  0  0  0  0
  -30.5510  -17.8270   20.7030 C   0  0  0  0  0  3  0  0  0  0  0  0
  -30.8980  -19.0180   21.5860 C   0  0  0  0  0  3  0  0  0  0  0  0
  -31.3850  -16.5620   20.7970 C   0  0  0  0  0  2  0  0  0  0  0  0
  -31.1610  -14.2520   19.9170 C   0  0  0  0  0  0  0  0  0  0  0  0
  -30.6830  -12.0540   18.9200 C   0  0  0  0  0  2  0  0  0  0  0  0
  -29.7190  -12.2310   17.7340 C   0  0  0  0  0  2  0  0  0  0  0  0
  -28.2620  -12.1700   18.2280 C   0  0  0  0  0  2  0  0  0  0  0  0
  -27.9960  -13.1060   19.4370 C   0  0  0  0  0  3  0  0  0  0  0  0
  -29.0860  -12.9390   20.5220 C   0  0  0  0  0  2  0  0  0  0  0  0
  -30.4000  -13.1280   19.8840 N   0  0  0  0  0  0  0  0  0  0  0  0
  -32.2280  -14.3560   19.3080 O   0  0  0  0  0  0  0  0  0  0  0  0
  -30.6710  -15.2930   20.6010 N   0  0  0  0  0  0  0  0  0  0  0  0
  -29.7660  -15.1810   21.0340 H   0  0  0  0  0  0  0  0  0  0  0  0
  -25.6710  -13.8300   20.2690 C   0  0  0  0  0  0  0  0  0  0  0  0
  -24.5850  -13.1100   20.6870 C   0  0  0  0  0  0  0  0  0  0  0  0
  -24.9710  -11.7360   20.6260 C   0  0  0  0  0  0  0  0  0  0  0  0
  -26.6560  -12.8970   19.9800 N   0  0  0  0  0  0  0  0  0  0  0  0
  -26.2410  -11.6330   20.2530 N   0  0  0  0  0  0  0  0  0  0  0  0
  -24.1920  -10.5130   20.8460 C   0  0  0  0  0  0  0  0  0  0  0  0
  -24.5950   -9.5370   21.7860 C   0  0  0  0  0  3  0  0  0  0  0  0
  -23.8200   -8.3780   21.9930 C   0  0  0  0  0  3  0  0  0  0  0  0
  -22.6240   -8.1840   21.2620 C   0  0  0  0  0  0  0  0  0  0  0  0
  -22.2370   -9.1460   20.3110 C   0  0  0  0  0  3  0  0  0  0  0  0
  -23.0140  -10.2970   20.1020 C   0  0  0  0  0  3  0  0  0  0  0  0
  -21.8200   -7.0760   21.3770 O   0  0  0  0  0  0  0  0  0  0  0  0
  -21.7220   -6.3780   22.5550 C   0  0  0  0  0  0  0  0  0  0  0  0
  -21.3040   -6.9960   23.7540 C   0  0  0  0  0  3  0  0  0  0  0  0
  -21.1500   -6.2270   24.9250 C   0  0  0  0  0  3  0  0  0  0  0  0
  -21.4020   -4.8420   24.8970 C   0  0  0  0  0  0  0  0  0  0  0  0
  -21.8120   -4.2240   23.7030 C   0  0  0  0  0  3  0  0  0  0  0  0
  -21.9680   -4.9910   22.5350 C   0  0  0  0  0  0  0  0  0  0  0  0
  -22.3430   -4.3870   21.3810 F   0  0  0  0  0  0  0  0  0  0  0  0
  -21.2460   -4.1020   26.0200 F   0  0  0  0  0  0  0  0  0  0  0  0
  -23.2290  -13.6580   21.0330 C   0  0  0  0  0  0  0  0  0  0  0  0
  -22.5150  -12.9980   21.9360 N   0  0  0  0  0  0  0  0  0  0  0  0
  -22.8150  -14.7070   20.5390 O   0  0  0  0  0  0  0  0  0  0  0  0
  -22.8590  -12.1470   22.3570 H   0  0  0  0  0  0  0  0  0  0  0  0
  -21.6080  -13.3470   22.2150 H   0  0  0  0  0  0  0  0  0  0  0  0
  -25.9020  -15.1920   20.0920 N   0  0  0  0  0  0  0  0  0  0  0  0
  -25.1840  -15.8900   20.2500 H   0  0  0  0  0  0  0  0  0  0  0  0
  -26.7680  -15.5830   19.7440 H   0  0  0  0  0  0  0  0  0  0  0  0
  -28.4680  -25.1860   20.2470 C   0  0  0  0  0  2  0  0  0  0  0  0
  -28.5600  -26.6190   20.0820 O   0  0  0  0  0  0  0  0  0  0  0  0
  -24.7030  -31.7170   23.2050 C   0  0  0  0  0  0  0  0  0  0  0  0
  -27.3890  -27.3440   20.0740 C   0  0  0  0  0  0  0  0  0  0  0  0
  -23.5180  -30.3240   21.5420 C   0  0  0  0  0  3  0  0  0  0  0  0
  -24.9850  -28.8340   20.0950 C   0  0  0  0  0  0  0  0  0  0  0  0
  -26.0410  -30.7180   21.3540 C   0  0  0  0  0  2  0  0  0  0  0  0
  -26.1380  -29.3550   20.6990 C   0  0  0  0  0  0  0  0  0  0  0  0
  -27.3440  -28.6180   20.6860 C   0  0  0  0  0  3  0  0  0  0  0  0
  -26.2270  -26.8630   19.4360 C   0  0  0  0  0  3  0  0  0  0  0  0
  -25.0240  -27.5840   19.4610 C   0  0  0  0  0  3  0  0  0  0  0  0
  -23.7350  -29.6760   20.1490 C   0  0  0  0  0  2  0  0  0  0  0  0
  -24.7730  -30.9330   22.0930 N   0  0  0  0  0  0  0  0  0  0  0  0
  -23.6170  -31.9700   23.7420 O   0  0  0  0  0  0  0  0  0  0  0  0
  -22.8800  -29.2750   22.4810 C   0  0  0  0  0  0  0  0  0  0  0  0
  -21.5560  -29.0870   22.3560 N   0  0  0  0  0  0  0  0  0  0  0  0
  -23.5710  -28.6360   23.2790 O   0  0  0  0  0  0  0  0  0  0  0  0
  -21.0550  -29.6650   21.6930 H   0  0  0  0  0  0  0  0  0  0  0  0
  -18.1920  -27.8710   22.8540 C   0  0  0  0  0  0  0  0  0  0  0  0
  -20.7490  -28.1290   23.1120 C   0  0  0  0  0  3  0  0  0  0  0  0
  -20.8500  -26.7110   22.5020 C   0  0  0  0  0  2  0  0  0  0  0  0
  -19.7400  -26.4070   21.4890 C   0  0  0  0  0  2  0  0  0  0  0  0
  -18.3620  -26.5370   22.1470 C   0  0  0  0  0  2  0  0  0  0  0  0
  -19.3120  -28.6250   23.2930 C   0  0  0  0  0  0  0  0  0  0  0  0
  -19.0970  -29.8740   23.9120 C   0  0  0  0  0  3  0  0  0  0  0  0
  -17.7950  -30.3750   24.0910 C   0  0  0  0  0  3  0  0  0  0  0  0
  -16.6870  -29.6170   23.6740 C   0  0  0  0  0  3  0  0  0  0  0  0
  -16.8860  -28.3660   23.0620 C   0  0  0  0  0  3  0  0  0  0  0  0
  -25.9810  -32.3530   23.8370 C   0  0  0  0  0  3  0  0  0  0  0  0
  -26.4960  -31.5820   25.1090 C   0  0  1  0  0  0  0  0  0  0  0  0
  -25.4010  -31.3300   26.1710 C   0  0  0  0  0  1  0  0  0  0  0  0
  -27.0900  -30.2130   24.7040 C   0  0  0  0  0  1  0  0  0  0  0  0
  -27.6400  -32.3810   25.7750 C   0  0  0  0  0  1  0  0  0  0  0  0
  -25.6630  -33.7480   24.1720 N   0  0  0  0  0  0  0  0  0  0  0  0
  -25.9720  -34.8030   23.4080 C   0  0  0  0  0  0  0  0  0  0  0  0
  -26.6330  -34.7100   22.3690 O   0  0  0  0  0  0  0  0  0  0  0  0
  -25.0860  -33.8990   24.9840 H   0  0  0  0  0  0  0  0  0  0  0  0
  -24.2230  -36.5740   23.0590 C   0  0  0  0  0  1  0  0  0  0  0  0
  -25.4700  -36.1830   23.8690 C   0  0  0  0  0  3  0  0  0  0  0  0
  -27.5980  -37.0910   24.6930 C   0  0  0  0  0  1  0  0  0  0  0  0
  -26.4890  -37.2470   23.7530 N   0  0  0  0  0  0  0  0  0  0  0  0
  -26.0740  -38.1630   23.9030 H   0  0  0  0  0  0  0  0  0  0  0  0
  1  4  1  0
  2  4  1  0
  2 10  1  0
  3  1  1  0
  3  2  1  0
  3  5  1  1
  4  7  1  6
  4 56  1  0
  6  3  1  0
  8 11  2  0
  9 13  1  0
 10  9  2  0
 10  8  1  0
 11 12  1  0
 13 11  1  0
 15 17  1  0
 15 16  1  0
 15 14  1  0
 16 13  1  0
 16 14  1  0
 18 26  1  0
 19 24  1  0
 20 21  1  0
 20 19  1  0
 22 21  1  0
 22 31  1  0
 22 23  1  0
 24 18  1  0
 24 23  1  0
 25 18  2  0
 26 17  1  0
 26 27  1  0
 28 29  2  0
 29 48  1  0
 30 29  1  0
 30 33  1  0
 31 32  1  0
 31 28  1  0
 32 30  2  0
 33 34  1  0
 34 35  2  0
 36 39  1  0
 36 35  1  0
 37 36  2  0
 38 37  1  0
 38 33  2  0
 39 40  1  0
 40 41  1  0
 41 42  2  0
 43 42  1  0
 43 47  1  0
 44 43  2  0
 45 40  2  0
 45 44  1  0
 46 45  1  0
 48 49  1  0
 49 52  1  0
 49 51  1  0
 50 48  2  0
 53 54  1  0
 53 28  1  0
 55 53  1  0
 57 56  1  0
 58 69  2  0
 59 57  1  0
 59 64  1  0
 60 68  1  0
 60 70  1  0
 61 67  1  0
 61 63  1  0
 62 68  1  0
 63 62  1  0
 64 63  2  0
 65 66  1  0
 65 59  2  0
 66 61  2  0
 67 60  1  0
 68 58  1  0
 70 72  2  0
 71 70  1  0
 73 71  1  0
 74 83  2  0
 74 79  1  0
 75 71  1  0
 75 79  1  0
 76 75  1  0
 77 78  1  0
 77 76  1  0
 78 74  1  0
 79 80  2  0
 80 81  1  0
 82 81  2  0
 83 82  1  0
 84 58  1  0
 84 89  1  0
 84 85  1  0
 85 88  1  1
 85 86  1  0
 87 85  1  0
 89 92  1  0
 90 94  1  0
 90 89  1  0
 91 90  2  0
 94 93  1  0
 96 94  1  0
 96 97  1  0
 96 95  1  0
M  ISO  4  18 100  26 100  56 101  57 101
M  END
>  <TORSDO>  (12) 
F 20

>  <SCORE>  (12) 
-12.281

>  <name>  (12) 
11

>  <ligand_id>  (12) 
11

>  <original_smiles>  (12) 
[H]c1c([H])c([H])c2c(c1[H])C([H])([H])C([H])([H])C([H])([H])C2([H])N([H])C(=O)C1([H])N(C(=O)C([H])(N([H])C(=O)C([H])(N([H])C([H])([H])[H])C([H])([H])[H])C(C([H])([H])[H])(C([H])([H])[H])C([H])([H])[H])C([H])([H])c2c([H])c(OC([H])([H])C3(C([H])([H])[H])C([H])([H])C(C([H])([H])[H])(C([H])([H])[H])C3([H])c3c([H])c(C([H])([H])[H])n(C4([H])C([H])([H])C4([H])C([H])([H])N([H])C(=O)N4C([H])([H])C([H])([H])C([H])([H])C([H])(n5nc(-c6c([H])c([H])c(Oc7c([H])c([H])c(F)c([H])c7F)c([H])c6[H])c(C(=O)N([H])[H])c5N([H])[H])C4([H])[H])c3[H])c([H])c([H])c2C1([H])[H]

>  <smiles>  (12) 
[H]c1c([H])c([H])c2c(c1[H])C([H])([H])C([H])([H])C([H])([H])C2([H])N([H])C(=O)C1([H])N(C(=O)C([H])(N([H])C(=O)C([H])(N([H])C([H])([H])[H])C([H])([H])[H])C(C([H])([H])[H])(C([H])([H])[H])C([H])([H])[H])C([H])([H])c2c([H])c(OC([H])([H])C3(C([H])([H])[H])C([H])([H])C(C([H])([H])[H])(C([H])([H])[H])C3([H])c3c([H])c(C([H])([H])[H])n(C4([H])C([H])([H])C4([H])C([H])([H])N([H])C(=O)N4C([H])([H])C([H])([H])C([H])([H])C([H])(n5nc(-c6c([H])c([H])c(Oc7c([H])c([H])c(F)c([H])c7F)c([H])c6[H])c(C(=O)N([H])[H])c5N([H])[H])C4([H])[H])c3[H])c([H])c([H])c2C1([H])[H]

$$$$
12:0:0
     RDKit          3D

 90 98  0  0  1  0  0  0  0  0999 V2000
  -29.2790  -22.8550   21.6090 C   0  0  0  0  0  0  0  0  0  0  0  0
  -28.5140  -23.2160   20.4420 C   0  0  0  0  0  0  0  0  0  0  0  0
  -29.5010  -21.4730   21.6730 C   0  0  0  0  0  0  0  0  0  0  0  0
  -28.4040  -21.9280   19.8260 C   0  0  0  0  0  0  0  0  0  0  0  0
  -29.6840  -23.8440   22.6790 C   0  0  0  0  0  1  0  0  0  0  0  0
  -30.0900  -20.6850   22.8040 C   0  0  0  0  0  1  0  0  0  0  0  0
  -27.6470  -21.6350   18.5660 C   0  0  0  0  0  1  0  0  0  0  0  0
  -29.0070  -20.8020   20.5490 N   0  0  0  0  0  0  0  0  0  0  0  0
  -27.7490  -24.6840   20.0730 C   0  0  0  0  0  2  0  0  0  0  0  0
  -28.1320  -26.1940   20.3160 O   0  0  0  0  0  0  0  0  0  0  0  0
  -24.5710  -31.9970   23.2250 C   0  0  0  0  0  0  0  0  0  0  0  0
  -27.1260  -27.2430   20.2010 C   0  0  0  0  0  0  0  0  0  0  0  0
  -23.3740  -30.6050   21.5840 C   0  0  0  0  0  3  0  0  0  0  0  0
  -24.8190  -29.0360   20.1490 C   0  0  0  0  0  0  0  0  0  0  0  0
  -25.9300  -30.8600   21.4210 C   0  0  0  0  0  2  0  0  0  0  0  0
  -26.0000  -29.4640   20.7690 C   0  0  0  0  0  0  0  0  0  0  0  0
  -27.1540  -28.5850   20.7770 C   0  0  0  0  0  3  0  0  0  0  0  0
  -25.9220  -26.9450   19.5180 C   0  0  0  0  0  3  0  0  0  0  0  0
  -24.7960  -27.7940   19.5040 C   0  0  0  0  0  3  0  0  0  0  0  0
  -23.5940  -29.9340   20.2010 C   0  0  0  0  0  2  0  0  0  0  0  0
  -24.6440  -31.1790   22.1300 N   0  0  0  0  0  0  0  0  0  0  0  0
  -23.4840  -32.2750   23.7530 O   0  0  0  0  0  0  0  0  0  0  0  0
  -22.6920  -29.5980   22.5470 C   0  0  0  0  0  0  0  0  0  0  0  0
  -21.3660  -29.4120   22.4120 N   0  0  0  0  0  0  0  0  0  0  0  0
  -23.3630  -28.9860   23.3820 O   0  0  0  0  0  0  0  0  0  0  0  0
  -20.8840  -29.9550   21.7080 H   0  0  0  0  0  0  0  0  0  0  0  0
  -17.9860  -28.1960   22.9030 C   0  0  0  0  0  0  0  0  0  0  0  0
  -20.5430  -28.4690   23.1750 C   0  0  0  0  0  3  0  0  0  0  0  0
  -20.6540  -27.0390   22.5990 C   0  0  0  0  0  2  0  0  0  0  0  0
  -19.5540  -26.7100   21.5830 C   0  0  0  0  0  2  0  0  0  0  0  0
  -18.1680  -26.8500   22.2200 C   0  0  0  0  0  2  0  0  0  0  0  0
  -19.0990  -28.9640   23.3350 C   0  0  0  0  0  0  0  0  0  0  0  0
  -18.8710  -30.2240   23.9310 C   0  0  0  0  0  3  0  0  0  0  0  0
  -17.5620  -30.7160   24.0960 C   0  0  0  0  0  3  0  0  0  0  0  0
  -16.4640  -29.9450   23.6780 C   0  0  0  0  0  3  0  0  0  0  0  0
  -16.6750  -28.6850   23.0890 C   0  0  0  0  0  3  0  0  0  0  0  0
  -25.8460  -32.6330   23.8560 C   0  0  0  0  0  3  0  0  0  0  0  0
  -26.3510  -31.8670   25.1410 C   0  0  1  0  0  0  0  0  0  0  0  0
  -25.2390  -31.6080   26.1860 C   0  0  0  0  0  1  0  0  0  0  0  0
  -26.9670  -30.5040   24.7580 C   0  0  0  0  0  1  0  0  0  0  0  0
  -27.4750  -32.6800   25.8300 C   0  0  0  0  0  1  0  0  0  0  0  0
  -25.5350  -34.0330   24.1900 N   0  0  0  0  0  0  0  0  0  0  0  0
  -25.8590  -35.0920   23.4350 C   0  0  0  0  0  0  0  0  0  0  0  0
  -26.5160  -34.9930   22.3970 O   0  0  0  0  0  0  0  0  0  0  0  0
  -24.9650  -34.1840   25.0090 H   0  0  0  0  0  0  0  0  0  0  0  0
  -24.1270  -36.8870   23.1050 C   0  0  0  0  0  1  0  0  0  0  0  0
  -25.3760  -36.4790   23.9060 C   0  0  0  0  0  3  0  0  0  0  0  0
  -27.5100  -37.3630   24.7390 C   0  0  0  0  0  1  0  0  0  0  0  0
  -26.4080  -37.5340   23.7930 N   0  0  0  0  0  0  0  0  0  0  0  0
  -26.0010  -38.4550   23.9360 H   0  0  0  0  0  0  0  0  0  0  0  0
  -28.9060  -19.1980   20.3160 C   0  0  0  0  0  3  0  0  0  0  0  0
  -30.0470  -17.9440   20.5770 C   0  0  0  0  0  3  0  0  0  0  0  0
  -30.5280  -15.1780   20.3390 C   0  0  0  0  0  0  0  0  0  0  0  0
  -30.4340  -12.8080   19.3960 C   0  0  0  0  0  2  0  0  0  0  0  0
  -29.5020  -12.7440   18.1640 C   0  0  0  0  0  2  0  0  0  0  0  0
  -28.0440  -12.5120   18.6010 C   0  0  0  0  0  2  0  0  0  0  0  0
  -27.6300  -13.4300   19.7830 C   0  0  0  0  0  3  0  0  0  0  0  0
  -28.6900  -13.4620   20.9040 C   0  0  0  0  0  2  0  0  0  0  0  0
  -29.9480  -13.9050   20.2870 N   0  0  0  0  0  0  0  0  0  0  0  0
  -31.7280  -15.2440   20.0470 O   0  0  0  0  0  0  0  0  0  0  0  0
  -29.7450  -16.3660   20.5260 N   0  0  0  0  0  0  0  0  0  0  0  0
  -28.7770  -16.1440   20.7120 H   0  0  0  0  0  0  0  0  0  0  0  0
  -25.2540  -13.9810   20.5540 C   0  0  0  0  0  0  0  0  0  0  0  0
  -24.1980  -13.1940   20.9200 C   0  0  0  0  0  0  0  0  0  0  0  0
  -24.6650  -11.8460   20.8530 C   0  0  0  0  0  0  0  0  0  0  0  0
  -26.2980  -13.1110   20.2850 N   0  0  0  0  0  0  0  0  0  0  0  0
  -25.9530  -11.8200   20.5300 N   0  0  0  0  0  0  0  0  0  0  0  0
  -23.9430  -10.5780   21.0190 C   0  0  0  0  0  0  0  0  0  0  0  0
  -24.3590   -9.6070   21.9590 C   0  0  0  0  0  3  0  0  0  0  0  0
  -23.6330   -8.4070   22.1140 C   0  0  0  0  0  3  0  0  0  0  0  0
  -22.4780   -8.1660   21.3300 C   0  0  0  0  0  0  0  0  0  0  0  0
  -22.0860   -9.1240   20.3780 C   0  0  0  0  0  3  0  0  0  0  0  0
  -22.8130  -10.3170   20.2210 C   0  0  0  0  0  3  0  0  0  0  0  0
  -21.7260   -7.0180   21.3940 O   0  0  0  0  0  0  0  0  0  0  0  0
  -21.6150   -6.2970   22.5540 C   0  0  0  0  0  0  0  0  0  0  0  0
  -21.0530   -6.8500   23.7260 C   0  0  0  0  0  3  0  0  0  0  0  0
  -20.8940   -6.0500   24.8770 C   0  0  0  0  0  3  0  0  0  0  0  0
  -21.2860   -4.6980   24.8550 C   0  0  0  0  0  0  0  0  0  0  0  0
  -21.8400   -4.1450   23.6870 C   0  0  0  0  0  3  0  0  0  0  0  0
  -22.0020   -4.9410   22.5400 C   0  0  0  0  0  0  0  0  0  0  0  0
  -22.5170   -4.3970   21.4120 F   0  0  0  0  0  0  0  0  0  0  0  0
  -21.1270   -3.9270   25.9560 F   0  0  0  0  0  0  0  0  0  0  0  0
  -22.8030  -13.6620   21.2180 C   0  0  0  0  0  0  0  0  0  0  0  0
  -22.0860  -12.9370   22.0710 N   0  0  0  0  0  0  0  0  0  0  0  0
  -22.3610  -14.7020   20.7310 O   0  0  0  0  0  0  0  0  0  0  0  0
  -22.4600  -12.0930   22.4810 H   0  0  0  0  0  0  0  0  0  0  0  0
  -21.1510  -13.2300   22.3210 H   0  0  0  0  0  0  0  0  0  0  0  0
  -25.4130  -15.3550   20.4030 N   0  0  0  0  0  0  0  0  0  0  0  0
  -24.6380  -15.9990   20.5130 H   0  0  0  0  0  0  0  0  0  0  0  0
  -26.2400  -15.7960   20.0250 H   0  0  0  0  0  0  0  0  0  0  0  0
  1  3  2  0
  1  5  1  0
  2  1  1  0
  3  6  1  0
  4  2  2  0
  4  8  1  0
  7  4  1  0
  8  3  1  0
  9 10  1  0
  9  2  1  0
 11 22  2  0
 12 10  1  0
 12 17  1  0
 13 21  1  0
 13 23  1  0
 14 20  1  0
 14 16  1  0
 15 21  1  0
 16 17  2  0
 16 15  1  0
 18 12  2  0
 19 18  1  0
 19 14  2  0
 20 13  1  0
 21 11  1  0
 23 25  2  0
 24 23  1  0
 26 24  1  0
 27 36  2  0
 27 32  1  0
 28 24  1  0
 28 32  1  0
 29 28  1  0
 30 31  1  0
 30 29  1  0
 31 27  1  0
 32 33  2  0
 33 34  1  0
 35 34  2  0
 36 35  1  0
 37 11  1  0
 37 42  1  0
 37 38  1  0
 38 41  1  1
 38 39  1  0
 40 38  1  0
 42 45  1  0
 43 47  1  0
 43 42  1  0
 44 43  2  0
 47 46  1  0
 49 47  1  0
 49 50  1  0
 49 48  1  0
 51  8  1  0
 51 52  2  0
 53 61  1  0
 54 59  1  0
 55 56  1  0
 55 54  1  0
 57 56  1  0
 57 66  1  0
 57 58  1  0
 59 53  1  0
 59 58  1  0
 60 53  2  0
 61 52  1  0
 61 62  1  0
 63 64  2  0
 64 83  1  0
 65 64  1  0
 65 68  1  0
 66 67  1  0
 66 63  1  0
 67 65  2  0
 68 69  1  0
 69 70  2  0
 71 74  1  0
 71 70  1  0
 72 71  2  0
 73 72  1  0
 73 68  2  0
 74 75  1  0
 75 76  1  0
 76 77  2  0
 78 77  1  0
 78 82  1  0
 79 78  2  0
 80 75  2  0
 80 79  1  0
 81 80  1  0
 83 84  1  0
 84 87  1  0
 84 86  1  0
 85 83  2  0
 88 89  1  0
 88 63  1  0
 90 88  1  0
M  ISO  4   9 101  10 101  53 100  61 100
M  END
>  <TORSDO>  (13) 
F 19

>  <SCORE>  (13) 
-15.724

>  <name>  (13) 
12

>  <ligand_id>  (13) 
12

>  <original_smiles>  (13) 
[H]c1c([H])c([H])c2c(c1[H])C([H])([H])C([H])([H])C([H])([H])C2([H])N([H])C(=O)C1([H])N(C(=O)C([H])(N([H])C(=O)C([H])(N([H])C([H])([H])[H])C([H])([H])[H])C(C([H])([H])[H])(C([H])([H])[H])C([H])([H])[H])C([H])([H])c2c([H])c(OC([H])([H])c3c(C([H])([H])[H])c(C([H])([H])[H])n(C([H])([H])C([H])([H])N([H])C(=O)N4C([H])([H])C([H])([H])C([H])([H])C([H])(n5nc(-c6c([H])c([H])c(Oc7c([H])c([H])c(F)c([H])c7F)c([H])c6[H])c(C(=O)N([H])[H])c5N([H])[H])C4([H])[H])c3C([H])([H])[H])c([H])c([H])c2C1([H])[H]

>  <smiles>  (13) 
[H]c1c([H])c([H])c2c(c1[H])C([H])([H])C([H])([H])C([H])([H])C2([H])N([H])C(=O)C1([H])N(C(=O)C([H])(N([H])C(=O)C([H])(N([H])C([H])([H])[H])C([H])([H])[H])C(C([H])([H])[H])(C([H])([H])[H])C([H])([H])[H])C([H])([H])c2c([H])c(OC([H])([H])c3c(C([H])([H])[H])c(C([H])([H])[H])n(C([H])([H])C([H])([H])N([H])C(=O)N4C([H])([H])C([H])([H])C([H])([H])C([H])(n5nc(-c6c([H])c([H])c(Oc7c([H])c([H])c(F)c([H])c7F)c([H])c6[H])c(C(=O)N([H])[H])c5N([H])[H])C4([H])[H])c3C([H])([H])[H])c([H])c([H])c2C1([H])[H]

$$$$
13:0:0
     RDKit          3D

 95105  0  0  1  0  0  0  0  0999 V2000
  -30.8490  -15.3120   20.1000 C   0  0  0  0  0  0  0  0  0  0  0  0
  -30.6610  -12.8960   19.3190 C   0  0  0  0  0  2  0  0  0  0  0  0
  -29.7340  -12.7310   18.0950 C   0  0  0  0  0  2  0  0  0  0  0  0
  -28.2760  -12.5420   18.5500 C   0  0  0  0  0  2  0  0  0  0  0  0
  -27.8660  -13.5510   19.6540 C   0  0  0  0  0  3  0  0  0  0  0  0
  -28.9270  -13.6980   20.7650 C   0  0  0  0  0  2  0  0  0  0  0  0
  -30.1780  -14.0810   20.0980 N   0  0  0  0  0  0  0  0  0  0  0  0
  -32.0600  -15.2410   19.8710 O   0  0  0  0  0  0  0  0  0  0  0  0
  -29.4460  -22.3210   18.7160 C   0  0  0  0  0  3  0  0  0  0  0  0
  -28.4630  -22.6380   20.8220 C   0  0  0  0  0  3  0  0  0  0  0  0
  -29.7180  -20.8920   19.0030 C   0  0  0  0  0  0  0  0  0  0  0  0
  -29.3200  -20.2880   20.2360 C   0  0  0  0  0  0  0  0  0  0  0  0
  -28.8080  -23.2950   19.5930 C   0  0  0  0  0  0  0  0  0  0  0  0
  -28.6950  -21.2320   21.1320 C   0  0  0  0  0  0  0  0  0  0  0  0
  -30.3280  -19.9600   17.9630 C   0  0  0  0  0  0  0  0  0  0  0  0
  -28.9340  -17.3270   20.3280 C   0  0  0  0  0  2  0  0  0  0  0  0
  -29.6740  -18.7220   20.5820 C   0  0  0  0  0  3  0  0  0  0  0  0
  -30.9610  -18.5350   18.3370 C   0  0  0  0  0  3  0  0  0  0  0  0
  -30.8170  -18.0390   19.8130 C   0  0  0  0  0  3  0  0  0  0  0  0
  -28.2200  -20.7280   22.4840 C   0  0  0  0  0  1  0  0  0  0  0  0
  -32.4630  -18.4770   17.9720 C   0  0  0  0  0  1  0  0  0  0  0  0
  -30.2670  -20.3640   16.7500 N   0  0  0  0  0  0  0  0  0  0  0  0
  -30.2400  -16.6270   20.0530 N   0  0  0  0  0  0  0  0  0  0  0  0
  -25.5450  -14.1840   20.5160 C   0  0  0  0  0  0  0  0  0  0  0  0
  -24.4550  -13.4380   20.8680 C   0  0  0  0  0  0  0  0  0  0  0  0
  -24.8500  -12.0710   20.7350 C   0  0  0  0  0  0  0  0  0  0  0  0
  -26.5360  -13.2760   20.1840 N   0  0  0  0  0  0  0  0  0  0  0  0
  -26.1290  -11.9940   20.3830 N   0  0  0  0  0  0  0  0  0  0  0  0
  -24.0650  -10.8370   20.8660 C   0  0  0  0  0  0  0  0  0  0  0  0
  -24.5190   -9.7480   21.6410 C   0  0  0  0  0  3  0  0  0  0  0  0
  -23.7330   -8.5800   21.7670 C   0  0  0  0  0  3  0  0  0  0  0  0
  -22.4780   -8.4950   21.1200 C   0  0  0  0  0  0  0  0  0  0  0  0
  -22.0410   -9.5720   20.3290 C   0  0  0  0  0  3  0  0  0  0  0  0
  -22.8260  -10.7310   20.2000 C   0  0  0  0  0  3  0  0  0  0  0  0
  -21.6610   -7.3900   21.1640 O   0  0  0  0  0  0  0  0  0  0  0  0
  -21.7590   -6.4640   22.1700 C   0  0  0  0  0  0  0  0  0  0  0  0
  -21.6010   -6.8180   23.5280 C   0  0  0  0  0  3  0  0  0  0  0  0
  -21.6390   -5.8210   24.5240 C   0  0  0  0  0  3  0  0  0  0  0  0
  -21.8260   -4.4720   24.1660 C   0  0  0  0  0  0  0  0  0  0  0  0
  -21.9790   -4.1180   22.8140 C   0  0  0  0  0  3  0  0  0  0  0  0
  -21.9420   -5.1120   21.8190 C   0  0  0  0  0  0  0  0  0  0  0  0
  -22.0680   -4.7610   20.5160 F   0  0  0  0  0  0  0  0  0  0  0  0
  -21.8560   -3.5150   25.1210 F   0  0  0  0  0  0  0  0  0  0  0  0
  -23.0930  -13.9660   21.2100 C   0  0  0  0  0  0  0  0  0  0  0  0
  -22.3650  -13.2710   22.0750 N   0  0  0  0  0  0  0  0  0  0  0  0
  -22.6860  -15.0290   20.7420 O   0  0  0  0  0  0  0  0  0  0  0  0
  -22.7100  -12.4110   22.4760 H   0  0  0  0  0  0  0  0  0  0  0  0
  -21.4510  -13.6060   22.3420 H   0  0  0  0  0  0  0  0  0  0  0  0
  -25.7700  -15.5530   20.4210 N   0  0  0  0  0  0  0  0  0  0  0  0
  -25.0350  -16.2310   20.5850 H   0  0  0  0  0  0  0  0  0  0  0  0
  -26.6210  -15.9680   20.0660 H   0  0  0  0  0  0  0  0  0  0  0  0
  -30.8040  -20.1310   14.5520 C   0  0  0  0  0  1  0  0  0  0  0  0
  -30.6960  -19.4400   15.7890 O   0  0  0  0  0  0  0  0  0  0  0  0
  -28.1700  -24.7810   19.1170 C   0  0  0  0  0  2  0  0  0  0  0  0
  -28.4480  -26.2840   19.5170 O   0  0  0  0  0  0  0  0  0  0  0  0
  -24.5340  -31.6330   22.8590 C   0  0  0  0  0  0  0  0  0  0  0  0
  -27.3810  -27.2820   19.4840 C   0  0  0  0  0  0  0  0  0  0  0  0
  -23.4220  -30.2950   21.1160 C   0  0  0  0  0  3  0  0  0  0  0  0
  -24.9640  -28.9300   19.5730 C   0  0  0  0  0  0  0  0  0  0  0  0
  -25.9620  -30.7140   20.9860 C   0  0  0  0  0  2  0  0  0  0  0  0
  -26.1180  -29.3800   20.2270 C   0  0  0  0  0  0  0  0  0  0  0  0
  -27.3260  -28.5730   20.1700 C   0  0  0  0  0  3  0  0  0  0  0  0
  -26.1990  -26.9720   18.7730 C   0  0  0  0  0  3  0  0  0  0  0  0
  -25.0210  -27.7470   18.8280 C   0  0  0  0  0  3  0  0  0  0  0  0
  -23.6840  -29.7460   19.6900 C   0  0  0  0  0  2  0  0  0  0  0  0
  -24.6590  -30.9000   21.7090 N   0  0  0  0  0  0  0  0  0  0  0  0
  -23.4320  -31.8080   23.4030 O   0  0  0  0  0  0  0  0  0  0  0  0
  -22.8090  -29.1760   21.9960 C   0  0  0  0  0  0  0  0  0  0  0  0
  -21.4730  -29.0160   21.9490 N   0  0  0  0  0  0  0  0  0  0  0  0
  -23.5350  -28.4580   22.6870 O   0  0  0  0  0  0  0  0  0  0  0  0
  -20.9410  -29.6500   21.3670 H   0  0  0  0  0  0  0  0  0  0  0  0
  -18.1260  -27.7840   22.6010 C   0  0  0  0  0  0  0  0  0  0  0  0
  -20.7050  -27.9900   22.6600 C   0  0  0  0  0  3  0  0  0  0  0  0
  -20.7240  -26.6470   21.8940 C   0  0  0  0  0  2  0  0  0  0  0  0
  -19.5280  -26.4740   20.9520 C   0  0  0  0  0  2  0  0  0  0  0  0
  -18.2140  -26.5390   21.7360 C   0  0  0  0  0  2  0  0  0  0  0  0
  -19.2950  -28.4750   23.0220 C   0  0  0  0  0  0  0  0  0  0  0  0
  -19.1540  -29.6440   23.8010 C   0  0  0  0  0  3  0  0  0  0  0  0
  -17.8790  -30.1240   24.1560 C   0  0  0  0  0  3  0  0  0  0  0  0
  -16.7280  -29.4300   23.7470 C   0  0  0  0  0  3  0  0  0  0  0  0
  -16.8530  -28.2610   22.9760 C   0  0  0  0  0  3  0  0  0  0  0  0
  -25.7680  -32.3010   23.5370 C   0  0  0  0  0  3  0  0  0  0  0  0
  -25.3720  -33.6570   23.9500 N   0  0  0  0  0  0  0  0  0  0  0  0
  -25.6730  -34.7780   23.2820 C   0  0  0  0  0  0  0  0  0  0  0  0
  -26.3790  -34.7820   22.2700 O   0  0  0  0  0  0  0  0  0  0  0  0
  -24.7440  -33.7220   24.7370 H   0  0  0  0  0  0  0  0  0  0  0  0
  -23.8630  -36.5080   23.0110 C   0  0  0  0  0  1  0  0  0  0  0  0
  -25.1060  -36.1080   23.8220 C   0  0  0  0  0  3  0  0  0  0  0  0
  -27.1680  -37.0460   24.7710 C   0  0  0  0  0  1  0  0  0  0  0  0
  -26.0840  -37.2170   23.8060 N   0  0  0  0  0  0  0  0  0  0  0  0
  -25.6270  -38.1030   24.0000 H   0  0  0  0  0  0  0  0  0  0  0  0
  -26.3080  -31.4870   24.7780 C   0  0  1  0  0  0  0  0  0  0  0  0
  -25.2200  -31.1490   25.8240 C   0  0  0  0  0  1  0  0  0  0  0  0
  -26.9510  -30.1550   24.3270 C   0  0  0  0  0  1  0  0  0  0  0  0
  -27.4220  -32.2930   25.4880 C   0  0  0  0  0  1  0  0  0  0  0  0
  2  7  1  0
  3  4  1  0
  3  2  1  0
  5  4  1  0
  5 27  1  0
  5  6  1  0
  7  1  1  0
  7  6  1  0
  8  1  2  0
  9 11  2  0
  9 13  1  0
 10 14  1  0
 11 12  1  0
 12 17  1  0
 12 14  2  0
 13 10  2  0
 14 20  1  0
 15 18  1  0
 15 11  1  0
 17 16  1  0
 18 21  1  0
 18 19  1  0
 19 23  1  0
 19 17  1  0
 22 15  2  0
 23  1  1  0
 23 16  1  0
 24 25  2  0
 25 44  1  0
 26 29  1  0
 26 25  1  0
 27 28  1  0
 27 24  1  0
 28 26  2  0
 29 30  1  0
 30 31  2  0
 32 35  1  0
 32 31  1  0
 33 32  2  0
 34 33  1  0
 34 29  2  0
 35 36  1  0
 36 37  1  0
 37 38  2  0
 39 38  1  0
 39 43  1  0
 40 39  2  0
 41 36  2  0
 41 40  1  0
 42 41  1  0
 44 45  1  0
 45 48  1  0
 45 47  1  0
 46 44  2  0
 49 24  1  0
 49 50  1  0
 51 49  1  0
 52 53  1  0
 53 22  1  0
 54 55  1  0
 54 13  1  0
 56 67  2  0
 57 55  1  0
 57 62  1  0
 58 66  1  0
 58 68  1  0
 59 65  1  0
 59 61  1  0
 60 66  1  0
 61 60  1  0
 62 61  2  0
 63 64  1  0
 63 57  2  0
 64 59  2  0
 65 58  1  0
 66 56  1  0
 68 70  2  0
 69 68  1  0
 71 69  1  0
 72 81  2  0
 72 77  1  0
 73 69  1  0
 73 77  1  0
 74 73  1  0
 75 76  1  0
 75 74  1  0
 76 72  1  0
 77 78  2  0
 78 79  1  0
 80 79  2  0
 81 80  1  0
 82 56  1  0
 82 83  1  0
 82 92  1  0
 83 86  1  0
 84 88  1  0
 84 83  1  0
 85 84  2  0
 88 87  1  0
 90 88  1  0
 90 91  1  0
 90 89  1  0
 92 95  1  1
 92 93  1  0
 94 92  1  0
M  ISO  4   1 100  23 100  54 101  55 101
M  END
>  <TORSDO>  (14) 
F 17

>  <SCORE>  (14) 
-11.905

>  <name>  (14) 
13

>  <ligand_id>  (14) 
13

>  <original_smiles>  (14) 
[H]c1c([H])c([H])c2c(c1[H])C([H])([H])C([H])([H])C([H])([H])C2([H])N([H])C(=O)C1([H])N(C(=O)C([H])(N([H])C(=O)C([H])(N([H])C([H])([H])[H])C([H])([H])[H])C(C([H])([H])[H])(C([H])([H])[H])C([H])([H])[H])C([H])([H])c2c([H])c(OC([H])([H])c3c([H])c4c(c(C([H])([H])[H])c3[H])C3([H])C([H])([H])N(C(=O)N5C([H])([H])C([H])([H])C([H])([H])C([H])(n6nc(-c7c([H])c([H])c(Oc8c([H])c([H])c(F)c([H])c8F)c([H])c7[H])c(C(=O)N([H])[H])c6N([H])[H])C5([H])[H])C3([H])C([H])(C([H])([H])[H])C4=NOC([H])([H])[H])c([H])c([H])c2C1([H])[H]

>  <smiles>  (14) 
[H]c1c([H])c([H])c2c(c1[H])C([H])([H])C([H])([H])C([H])([H])C2([H])N([H])C(=O)C1([H])N(C(=O)C([H])(N([H])C(=O)C([H])(N([H])C([H])([H])[H])C([H])([H])[H])C(C([H])([H])[H])(C([H])([H])[H])C([H])([H])[H])C([H])([H])c2c([H])c(OC([H])([H])c3c([H])c4c(c(C([H])([H])[H])c3[H])C3([H])C([H])([H])N(C(=O)N5C([H])([H])C([H])([H])C([H])([H])C([H])(n6nc(-c7c([H])c([H])c(Oc8c([H])c([H])c(F)c([H])c8F)c([H])c7[H])c(C(=O)N([H])[H])c6N([H])[H])C5([H])[H])C3([H])C([H])(C([H])([H])[H])C4=NOC([H])([H])[H])c([H])c([H])c2C1([H])[H]

$$$$
14:0:0
     RDKit          3D

 99108  0  0  1  0  0  0  0  0999 V2000
  -33.4310  -16.4250   17.4230 C   0  0  0  0  0  2  0  0  0  0  0  0
  -31.9230  -17.2390   19.0030 C   0  0  0  0  0  3  0  0  0  0  0  0
  -32.7710  -15.8560   18.6990 C   0  0  0  0  0  3  0  0  0  0  0  0
  -33.7160  -17.9760   17.6690 C   0  0  0  0  0  3  0  0  0  0  0  0
  -35.1490  -18.1740   18.2000 C   0  0  0  0  0  1  0  0  0  0  0  0
  -32.7450  -18.5180   18.6690 N   0  0  1  0  0  4  0  0  0  0  0  0
  -33.2910  -18.6480   19.5060 H   0  0  0  0  0  0  0  0  0  0  0  0
  -32.6860  -13.0370   18.5570 C   0  0  0  0  0  0  0  0  0  0  0  0
  -31.8920  -10.6970   17.9400 C   0  0  0  0  0  2  0  0  0  0  0  0
  -30.6770  -10.7610   16.9860 C   0  0  0  0  0  2  0  0  0  0  0  0
  -29.3630  -10.8900   17.7810 C   0  0  0  0  0  2  0  0  0  0  0  0
  -29.4540  -11.9570   18.9040 C   0  0  0  0  0  3  0  0  0  0  0  0
  -30.7510  -11.8260   19.7280 C   0  0  0  0  0  2  0  0  0  0  0  0
  -31.8670  -11.9280   18.7830 N   0  0  0  0  0  0  0  0  0  0  0  0
  -33.7820  -12.8250   18.0280 O   0  0  0  0  0  0  0  0  0  0  0  0
  -32.1900  -14.3640   18.7380 N   0  0  0  0  0  0  0  0  0  0  0  0
  -31.2400  -14.3490   19.0790 H   0  0  0  0  0  0  0  0  0  0  0  0
  -27.3730  -13.0200   19.9390 C   0  0  0  0  0  0  0  0  0  0  0  0
  -26.3820  -12.5230   20.7370 C   0  0  0  0  0  0  0  0  0  0  0  0
  -26.7390  -11.1650   21.0070 C   0  0  0  0  0  0  0  0  0  0  0  0
  -28.2650  -11.9800   19.7460 N   0  0  0  0  0  0  0  0  0  0  0  0
  -27.9110  -10.8770   20.4540 N   0  0  0  0  0  0  0  0  0  0  0  0
  -26.0000  -10.1100   21.7120 C   0  0  0  0  0  0  0  0  0  0  0  0
  -25.9170  -10.0790   23.1200 C   0  0  0  0  0  3  0  0  0  0  0  0
  -25.1830   -9.0660   23.7740 C   0  0  0  0  0  3  0  0  0  0  0  0
  -24.5190   -8.0700   23.0180 C   0  0  0  0  0  0  0  0  0  0  0  0
  -24.6230   -8.0920   21.6160 C   0  0  0  0  0  3  0  0  0  0  0  0
  -25.3590   -9.0990   20.9660 C   0  0  0  0  0  3  0  0  0  0  0  0
  -23.8050   -7.0320   23.5660 O   0  0  0  0  0  0  0  0  0  0  0  0
  -22.4540   -7.1240   23.7850 C   0  0  0  0  0  0  0  0  0  0  0  0
  -21.5340   -7.2680   22.7230 C   0  0  0  0  0  3  0  0  0  0  0  0
  -20.1510   -7.2900   22.9880 C   0  0  0  0  0  3  0  0  0  0  0  0
  -19.6850   -7.1570   24.3100 C   0  0  0  0  0  0  0  0  0  0  0  0
  -20.5980   -7.0100   25.3680 C   0  0  0  0  0  3  0  0  0  0  0  0
  -21.9790   -6.9900   25.1050 C   0  0  0  0  0  0  0  0  0  0  0  0
  -22.8550   -6.8240   26.1250 F   0  0  0  0  0  0  0  0  0  0  0  0
  -18.3550   -7.1700   24.5650 F   0  0  0  0  0  0  0  0  0  0  0  0
  -25.1220  -13.2330   21.1400 C   0  0  0  0  0  0  0  0  0  0  0  0
  -24.5690  -12.8930   22.2990 N   0  0  0  0  0  0  0  0  0  0  0  0
  -24.6480  -14.1320   20.4470 O   0  0  0  0  0  0  0  0  0  0  0  0
  -24.9670  -12.1690   22.8780 H   0  0  0  0  0  0  0  0  0  0  0  0
  -23.7310  -13.3630   22.6090 H   0  0  0  0  0  0  0  0  0  0  0  0
  -27.5790  -14.2580   19.3420 N   0  0  0  0  0  0  0  0  0  0  0  0
  -26.9340  -15.0300   19.4640 H   0  0  0  0  0  0  0  0  0  0  0  0
  -28.3700  -14.4950   18.7610 H   0  0  0  0  0  0  0  0  0  0  0  0
  -31.9790  -18.3270   21.2910 C   0  0  0  0  0  3  0  0  0  0  0  0
  -29.7550  -16.8690   22.1800 C   0  0  0  0  0  3  0  0  0  0  0  0
  -31.4000  -17.3600   20.4350 C   0  0  0  0  0  0  0  0  0  0  0  0
  -31.4370  -18.5900   22.5660 C   0  0  0  0  0  0  0  0  0  0  0  0
  -30.2850  -16.6110   20.8980 C   0  0  0  0  0  0  0  0  0  0  0  0
  -30.3070  -17.8660   23.0080 C   0  0  0  0  0  0  0  0  0  0  0  0
  -32.0550  -19.6710   23.4380 C   0  0  0  0  0  1  0  0  0  0  0  0
  -29.6070  -15.5540   20.0390 C   0  0  0  0  0  1  0  0  0  0  0  0
  -29.6600  -18.1570   24.3530 C   0  0  0  0  0  1  0  0  0  0  0  0
  -32.0770  -19.9630   18.4510 C   0  0  0  0  0  2  0  0  0  0  0  0
  -33.9010  -21.8640   18.3620 C   0  0  0  0  0  1  0  0  0  0  0  0
  -32.6120  -21.4560   19.0900 C   0  0  0  0  0  3  0  0  0  0  0  0
  -31.6690  -22.8690   19.1600 C   0  0  0  0  0  2  0  0  0  0  0  0
  -31.8490  -24.1420   20.0580 O   0  0  0  0  0  0  0  0  0  0  0  0
  -26.6910  -28.1380   23.5120 C   0  0  0  0  0  0  0  0  0  0  0  0
  -30.9090  -25.2420   20.0600 C   0  0  0  0  0  0  0  0  0  0  0  0
  -26.6860  -28.1540   21.0470 C   0  0  0  0  0  3  0  0  0  0  0  0
  -28.8090  -27.2570   19.9040 C   0  0  0  0  0  0  0  0  0  0  0  0
  -28.8950  -27.8310   22.3220 C   0  0  0  0  0  2  0  0  0  0  0  0
  -29.4310  -27.0140   21.1330 C   0  0  0  0  0  0  0  0  0  0  0  0
  -30.4860  -26.0260   21.2100 C   0  0  0  0  0  3  0  0  0  0  0  0
  -30.2780  -25.6020   18.8480 C   0  0  0  0  0  3  0  0  0  0  0  0
  -29.2540  -26.5690   18.7640 C   0  0  0  0  0  3  0  0  0  0  0  0
  -27.6700  -28.2650   19.8490 C   0  0  0  0  0  2  0  0  0  0  0  0
  -27.4100  -28.0260   22.3520 N   0  0  0  0  0  0  0  0  0  0  0  0
  -25.4710  -28.3590   23.5000 O   0  0  0  0  0  0  0  0  0  0  0  0
  -25.6900  -26.9950   20.7840 C   0  0  0  0  0  0  0  0  0  0  0  0
  -24.6730  -27.2390   19.9390 N   0  0  0  0  0  0  0  0  0  0  0  0
  -25.8560  -25.8940   21.3170 O   0  0  0  0  0  0  0  0  0  0  0  0
  -24.5900  -28.1690   19.5520 H   0  0  0  0  0  0  0  0  0  0  0  0
  -21.5840  -26.8520   18.0820 C   0  0  0  0  0  0  0  0  0  0  0  0
  -23.6600  -26.2690   19.5120 C   0  0  0  0  0  3  0  0  0  0  0  0
  -24.1440  -25.4560   18.2900 C   0  0  0  0  0  2  0  0  0  0  0  0
  -23.7060  -26.0600   16.9520 C   0  0  0  0  0  2  0  0  0  0  0  0
  -22.1780  -26.1460   16.8750 C   0  0  0  0  0  2  0  0  0  0  0  0
  -22.2870  -26.9230   19.3160 C   0  0  0  0  0  0  0  0  0  0  0  0
  -21.7030  -27.6170   20.3970 C   0  0  0  0  0  3  0  0  0  0  0  0
  -20.4430  -28.2320   20.2610 C   0  0  0  0  0  3  0  0  0  0  0  0
  -19.7470  -28.1480   19.0430 C   0  0  0  0  0  3  0  0  0  0  0  0
  -20.3150  -27.4560   17.9590 C   0  0  0  0  0  3  0  0  0  0  0  0
  -27.3710  -28.0150   24.9110 C   0  0  0  0  0  3  0  0  0  0  0  0
  -27.2170  -26.5790   25.5490 C   0  0  1  0  0  0  0  0  0  0  0  0
  -25.7670  -26.0420   25.5370 C   0  0  0  0  0  1  0  0  0  0  0  0
  -28.1030  -25.5510   24.8090 C   0  0  0  0  0  1  0  0  0  0  0  0
  -27.7030  -26.6050   27.0170 C   0  0  0  0  0  1  0  0  0  0  0  0
  -26.7740  -29.0330   25.7910 N   0  0  0  0  0  0  0  0  0  0  0  0
  -27.2840  -30.2530   26.0070 C   0  0  0  0  0  0  0  0  0  0  0  0
  -28.3580  -30.6210   25.5240 O   0  0  0  0  0  0  0  0  0  0  0  0
  -25.8640  -28.8200   26.1750 H   0  0  0  0  0  0  0  0  0  0  0  0
  -25.6580  -32.1750   26.0190 C   0  0  0  0  0  1  0  0  0  0  0  0
  -26.4780  -31.2180   26.8990 C   0  0  0  0  0  3  0  0  0  0  0  0
  -27.8590  -31.2080   28.9300 C   0  0  0  0  0  1  0  0  0  0  0  0
  -27.3190  -32.0020   27.8300 N   0  0  0  0  0  0  0  0  0  0  0  0
  -26.7940  -32.7770   28.2260 H   0  0  0  0  0  0  0  0  0  0  0  0
  1  4  1  0
  1  3  1  0
  2 48  1  0
  3 16  1  0
  3  2  1  0
  4  5  1  0
  4  6  1  0
  6  2  1  0
  6  7  1  1
  8 16  1  0
  8 14  1  0
  9 14  1  0
 10 11  1  0
 10  9  1  0
 12 11  1  0
 12 13  1  0
 12 21  1  0
 14 13  1  0
 15  8  2  0
 16 17  1  0
 18 19  2  0
 19 20  1  0
 19 38  1  0
 20 23  1  0
 21 18  1  0
 21 22  1  0
 22 20  2  0
 23 24  1  0
 24 25  2  0
 26 29  1  0
 26 25  1  0
 27 26  2  0
 28 27  1  0
 28 23  2  0
 29 30  1  0
 30 35  1  0
 31 32  1  0
 31 30  2  0
 32 33  2  0
 33 37  1  0
 33 34  1  0
 35 34  2  0
 35 36  1  0
 38 39  1  0
 39 42  1  0
 39 41  1  0
 40 38  2  0
 43 44  1  0
 43 18  1  0
 45 43  1  0
 46 49  1  0
 47 51  1  0
 48 50  1  0
 48 46  2  0
 49 51  2  0
 49 52  1  0
 50 47  2  0
 51 54  1  0
 53 50  1  0
 55  6  1  0
 55 57  1  0
 57 56  1  0
 57 58  1  0
 58 59  1  0
 59 61  1  0
 61 66  1  0
 62 72  1  0
 62 70  1  0
 63 65  1  0
 64 70  1  0
 65 66  2  0
 65 64  1  0
 67 61  2  0
 68 67  1  0
 68 63  2  0
 69 63  1  0
 69 62  1  0
 70 60  1  0
 71 60  2  0
 72 74  2  0
 73 72  1  0
 75 73  1  0
 76 81  1  0
 77 73  1  0
 78 77  1  0
 79 78  1  0
 80 79  1  0
 80 76  1  0
 81 77  1  0
 81 82  2  0
 83 82  1  0
 84 83  2  0
 85 76  2  0
 85 84  1  0
 86 60  1  0
 86 87  1  0
 86 91  1  0
 87 90  1  1
 88 87  1  0
 89 87  1  0
 91 92  1  0
 91 94  1  0
 92 96  1  0
 93 92  2  0
 96 95  1  0
 96 98  1  0
 98 99  1  0
 98 97  1  0
M  ISO  4   8 100  16 100  58 101  59 101
M  END
>  <TORSDO>  (15) 
F 20

>  <SCORE>  (15) 
9.232

>  <name>  (15) 
14

>  <ligand_id>  (15) 
14

>  <original_smiles>  (15) 
[H]c1c([H])c([H])c2c(c1[H])C([H])([H])C([H])([H])C([H])([H])C2([H])N([H])C(=O)C1([H])N(C(=O)C([H])(N([H])C(=O)C([H])(N([H])C([H])([H])[H])C([H])([H])[H])C(C([H])([H])[H])(C([H])([H])[H])C([H])([H])[H])C([H])([H])c2c([H])c(OC([H])([H])C([H])(C([H])([H])[H])C([H])([H])[N+]3([H])C([H])(c4c([H])c(C([H])([H])[H])c(C([H])([H])[H])c([H])c4C([H])([H])[H])C([H])(N([H])C(=O)N4C([H])([H])C([H])([H])C([H])([H])C([H])(n5nc(-c6c([H])c([H])c(Oc7c([H])c([H])c(F)c([H])c7F)c([H])c6[H])c(C(=O)N([H])[H])c5N([H])[H])C4([H])[H])C([H])([H])C3([H])C([H])([H])[H])c([H])c([H])c2C1([H])[H]

>  <smiles>  (15) 
[H]c1c([H])c([H])c2c(c1[H])C([H])([H])C([H])([H])C([H])([H])C2([H])N([H])C(=O)C1([H])N(C(=O)C([H])(N([H])C(=O)C([H])(N([H])C([H])([H])[H])C([H])([H])[H])C(C([H])([H])[H])(C([H])([H])[H])C([H])([H])[H])C([H])([H])c2c([H])c(OC([H])([H])C([H])(C([H])([H])[H])C([H])([H])[N+]3([H])C([H])(c4c([H])c(C([H])([H])[H])c(C([H])([H])[H])c([H])c4C([H])([H])[H])C([H])(N([H])C(=O)N4C([H])([H])C([H])([H])C([H])([H])C([H])(n5nc(-c6c([H])c([H])c(Oc7c([H])c([H])c(F)c([H])c7F)c([H])c6[H])c(C(=O)N([H])[H])c5N([H])[H])C4([H])[H])C([H])([H])C3([H])C([H])([H])[H])c([H])c([H])c2C1([H])[H]

$$$$
15:0:0
     RDKit          3D

 93102  0  0  1  0  0  0  0  0999 V2000
  -29.5370  -21.0820   20.1170 C   0  0  0  0  0  0  0  0  0  0  0  0
  -29.7940  -19.7330   19.3860 C   0  0  0  0  0  0  0  0  0  0  0  0
  -30.1150  -18.3250   19.9840 C   0  0  0  0  0  0  0  0  0  0  0  0
  -29.6390  -20.8240   21.5050 C   0  0  0  0  0  0  0  0  0  0  0  0
  -30.1770  -18.4700   21.3910 C   0  0  0  0  0  0  0  0  0  0  0  0
  -29.7640  -19.8380   17.8730 C   0  0  0  0  0  1  0  0  0  0  0  0
  -29.4290  -21.9390   22.5120 C   0  0  0  0  0  1  0  0  0  0  0  0
  -30.4370  -17.2800   22.2980 C   0  0  0  0  0  1  0  0  0  0  0  0
  -29.9460  -19.6250   22.0740 N   0  0  0  0  0  0  0  0  0  0  0  0
  -30.9130  -15.4850   19.6430 C   0  0  0  0  0  0  0  0  0  0  0  0
  -30.7770  -13.0260   18.7740 C   0  0  0  0  0  2  0  0  0  0  0  0
  -29.7630  -12.7830   17.6280 C   0  0  0  0  0  2  0  0  0  0  0  0
  -28.3490  -12.5440   18.1860 C   0  0  0  0  0  2  0  0  0  0  0  0
  -27.9950  -13.5330   19.3240 C   0  0  0  0  0  3  0  0  0  0  0  0
  -29.1310  -13.6960   20.3540 C   0  0  0  0  0  2  0  0  0  0  0  0
  -30.2960  -14.1950   19.6020 N   0  0  0  0  0  0  0  0  0  0  0  0
  -32.1420  -15.4030   19.4970 O   0  0  0  0  0  0  0  0  0  0  0  0
  -29.6600  -16.7570   18.0190 C   0  0  0  0  0  1  0  0  0  0  0  0
  -30.2140  -16.7990   19.3760 N   0  0  0  0  0  0  0  0  0  0  0  0
  -25.7330  -14.1670   20.3040 C   0  0  0  0  0  0  0  0  0  0  0  0
  -24.6640  -13.4240   20.7230 C   0  0  0  0  0  0  0  0  0  0  0  0
  -25.0590  -12.0570   20.5970 C   0  0  0  0  0  0  0  0  0  0  0  0
  -26.7060  -13.2550   19.9390 N   0  0  0  0  0  0  0  0  0  0  0  0
  -26.3190  -11.9750   20.1820 N   0  0  0  0  0  0  0  0  0  0  0  0
  -24.2860  -10.8220   20.7880 C   0  0  0  0  0  0  0  0  0  0  0  0
  -24.7110   -9.8150   21.6800 C   0  0  0  0  0  3  0  0  0  0  0  0
  -23.9380   -8.6480   21.8630 C   0  0  0  0  0  3  0  0  0  0  0  0
  -22.7240   -8.4820   21.1540 C   0  0  0  0  0  0  0  0  0  0  0  0
  -22.3170   -9.4780   20.2490 C   0  0  0  0  0  3  0  0  0  0  0  0
  -23.0900  -10.6360   20.0640 C   0  0  0  0  0  3  0  0  0  0  0  0
  -21.9200   -7.3710   21.2490 O   0  0  0  0  0  0  0  0  0  0  0  0
  -21.8530   -6.6280   22.4000 C   0  0  0  0  0  0  0  0  0  0  0  0
  -21.4660   -7.1970   23.6330 C   0  0  0  0  0  3  0  0  0  0  0  0
  -21.3420   -6.3820   24.7760 C   0  0  0  0  0  3  0  0  0  0  0  0
  -21.5970   -5.0010   24.6880 C   0  0  0  0  0  0  0  0  0  0  0  0
  -21.9800   -4.4310   23.4610 C   0  0  0  0  0  3  0  0  0  0  0  0
  -22.1040   -5.2430   22.3200 C   0  0  0  0  0  0  0  0  0  0  0  0
  -22.4510   -4.6870   21.1340 F   0  0  0  0  0  0  0  0  0  0  0  0
  -21.4730   -4.2160   25.7850 F   0  0  0  0  0  0  0  0  0  0  0  0
  -23.3190  -13.9560   21.1190 C   0  0  0  0  0  0  0  0  0  0  0  0
  -22.6250  -13.2620   22.0140 N   0  0  0  0  0  0  0  0  0  0  0  0
  -22.8950  -15.0190   20.6680 O   0  0  0  0  0  0  0  0  0  0  0  0
  -22.9820  -12.4010   22.4030 H   0  0  0  0  0  0  0  0  0  0  0  0
  -21.7230  -13.5990   22.3170 H   0  0  0  0  0  0  0  0  0  0  0  0
  -25.9490  -15.5370   20.1750 N   0  0  0  0  0  0  0  0  0  0  0  0
  -25.2260  -16.2180   20.3800 H   0  0  0  0  0  0  0  0  0  0  0  0
  -26.7990  -15.9550   19.8210 H   0  0  0  0  0  0  0  0  0  0  0  0
  -29.3170  -22.7950   19.6480 C   0  0  0  0  0  3  0  0  0  0  0  0
  -28.4860  -24.2850   20.2000 C   0  0  0  0  0  3  0  0  0  0  0  0
  -28.0480  -23.3930   19.0390 C   0  0  2  0  0  0  0  0  0  0  0  0
  -26.7620  -22.6020   19.1680 C   0  0  0  0  0  1  0  0  0  0  0  0
  -28.1530  -23.9510   17.6290 C   0  0  0  0  0  1  0  0  0  0  0  0
  -28.5600  -25.9290   19.9270 O   0  0  0  0  0  0  0  0  0  0  0  0
  -24.6350  -31.6240   23.0790 C   0  0  0  0  0  0  0  0  0  0  0  0
  -27.4680  -26.9560   19.9470 C   0  0  0  0  0  0  0  0  0  0  0  0
  -23.5210  -30.1960   21.4130 C   0  0  0  0  0  3  0  0  0  0  0  0
  -25.0560  -28.7050   19.9530 C   0  0  0  0  0  0  0  0  0  0  0  0
  -26.0710  -30.5580   21.2630 C   0  0  0  0  0  2  0  0  0  0  0  0
  -26.2230  -29.1670   20.5750 C   0  0  0  0  0  0  0  0  0  0  0  0
  -27.4230  -28.3180   20.5400 C   0  0  0  0  0  3  0  0  0  0  0  0
  -26.2570  -26.6460   19.2910 C   0  0  0  0  0  3  0  0  0  0  0  0
  -25.0980  -27.4680   19.2900 C   0  0  0  0  0  3  0  0  0  0  0  0
  -23.7850  -29.5550   20.0220 C   0  0  0  0  0  2  0  0  0  0  0  0
  -24.7630  -30.8220   21.9720 N   0  0  0  0  0  0  0  0  0  0  0  0
  -23.5310  -31.8360   23.6090 O   0  0  0  0  0  0  0  0  0  0  0  0
  -22.8870  -29.1420   22.3580 C   0  0  0  0  0  0  0  0  0  0  0  0
  -21.5790  -28.8660   22.1980 N   0  0  0  0  0  0  0  0  0  0  0  0
  -23.5820  -28.5730   23.2030 O   0  0  0  0  0  0  0  0  0  0  0  0
  -21.0690  -29.3780   21.4920 H   0  0  0  0  0  0  0  0  0  0  0  0
  -18.3220  -27.3030   22.5540 C   0  0  0  0  0  0  0  0  0  0  0  0
  -20.8200  -27.8560   22.9440 C   0  0  0  0  0  3  0  0  0  0  0  0
  -21.1090  -26.4350   22.4070 C   0  0  0  0  0  2  0  0  0  0  0  0
  -20.1050  -25.9770   21.3430 C   0  0  0  0  0  2  0  0  0  0  0  0
  -18.6840  -25.9740   21.9120 C   0  0  0  0  0  2  0  0  0  0  0  0
  -19.3250  -28.1930   23.0240 C   0  0  0  0  0  0  0  0  0  0  0  0
  -18.9340  -29.4280   23.5840 C   0  0  0  0  0  3  0  0  0  0  0  0
  -17.5740  -29.7790   23.6780 C   0  0  0  0  0  3  0  0  0  0  0  0
  -16.5860  -28.8880   23.2230 C   0  0  0  0  0  3  0  0  0  0  0  0
  -16.9600  -27.6520   22.6680 C   0  0  0  0  0  3  0  0  0  0  0  0
  -25.8670  -32.3270   23.7260 C   0  0  0  0  0  3  0  0  0  0  0  0
  -25.4730  -33.7040   24.0730 N   0  0  0  0  0  0  0  0  0  0  0  0
  -25.8020  -34.7980   23.3710 C   0  0  0  0  0  0  0  0  0  0  0  0
  -26.5280  -34.7540   22.3750 O   0  0  0  0  0  0  0  0  0  0  0  0
  -24.8320  -33.8070   24.8460 H   0  0  0  0  0  0  0  0  0  0  0  0
  -24.0240  -36.5400   22.9850 C   0  0  0  0  0  1  0  0  0  0  0  0
  -25.2380  -36.1530   23.8470 C   0  0  0  0  0  3  0  0  0  0  0  0
  -27.2910  -37.0920   24.8150 C   0  0  0  0  0  1  0  0  0  0  0  0
  -26.2310  -37.2480   23.8200 N   0  0  0  0  0  0  0  0  0  0  0  0
  -25.7830  -38.1470   23.9730 H   0  0  0  0  0  0  0  0  0  0  0  0
  -26.4030  -31.5780   25.0080 C   0  0  1  0  0  0  0  0  0  0  0  0
  -25.3090  -31.2780   26.0600 C   0  0  0  0  0  1  0  0  0  0  0  0
  -27.0650  -30.2350   24.6290 C   0  0  0  0  0  1  0  0  0  0  0  0
  -27.4990  -32.4300   25.6910 C   0  0  0  0  0  1  0  0  0  0  0  0
  1  4  1  0
  2  3  1  0
  2  1  2  0
  3  5  2  0
  4  9  2  0
  4  7  1  0
  5  9  1  0
  5  8  1  0
  6  2  1  0
 11 16  1  0
 12 13  1  0
 12 11  1  0
 14 13  1  0
 14 23  1  0
 14 15  1  0
 16 10  1  0
 16 15  1  0
 17 10  2  0
 18 19  1  0
 19 10  1  0
 19  3  1  0
 20 21  2  0
 21 40  1  0
 22 21  1  0
 22 25  1  0
 23 24  1  0
 23 20  1  0
 24 22  2  0
 25 26  1  0
 26 27  2  0
 28 31  1  0
 28 27  1  0
 29 28  2  0
 30 29  1  0
 30 25  2  0
 31 32  1  0
 32 33  1  0
 33 34  2  0
 35 34  1  0
 35 39  1  0
 36 35  2  0
 37 32  2  0
 37 36  1  0
 38 37  1  0
 40 41  1  0
 41 44  1  0
 41 43  1  0
 42 40  2  0
 45 20  1  0
 45 46  1  0
 47 45  1  0
 48  1  1  0
 48 49  1  0
 49 53  1  0
 50 51  1  1
 50 48  1  0
 50 49  1  0
 52 50  1  0
 53 55  1  0
 54 65  2  0
 55 60  1  0
 56 64  1  0
 56 66  1  0
 57 63  1  0
 57 59  1  0
 58 64  1  0
 59 58  1  0
 60 59  2  0
 61 55  2  0
 62 61  1  0
 62 57  2  0
 63 56  1  0
 64 54  1  0
 66 68  2  0
 67 66  1  0
 69 67  1  0
 70 79  2  0
 70 75  1  0
 71 67  1  0
 71 75  1  0
 72 71  1  0
 73 74  1  0
 73 72  1  0
 74 70  1  0
 75 76  2  0
 76 77  1  0
 78 77  2  0
 79 78  1  0
 80 54  1  0
 80 81  1  0
 80 90  1  0
 81 84  1  0
 82 86  1  0
 82 81  1  0
 83 82  2  0
 86 85  1  0
 88 86  1  0
 88 89  1  0
 88 87  1  0
 90 93  1  1
 90 91  1  0
 92 90  1  0
M  ISO  4  10 100  19 100  49 101  53 101
M  END
>  <TORSDO>  (16) 
F 17

>  <SCORE>  (16) 
-14.145

>  <name>  (16) 
15

>  <ligand_id>  (16) 
15

>  <original_smiles>  (16) 
[H]c1c([H])c([H])c2c(c1[H])C([H])([H])C([H])([H])C([H])([H])C2([H])N([H])C(=O)C1([H])N(C(=O)C([H])(N([H])C(=O)C([H])(N([H])C([H])([H])[H])C([H])([H])[H])C(C([H])([H])[H])(C([H])([H])[H])C([H])([H])[H])C([H])([H])c2c([H])c(OC3([H])C([H])(c4c(C([H])([H])[H])nc(C([H])([H])[H])c(N(C(=O)N5C([H])([H])C([H])([H])C([H])([H])C([H])(n6nc(-c7c([H])c([H])c(Oc8c([H])c([H])c(F)c([H])c8F)c([H])c7[H])c(C(=O)N([H])[H])c6N([H])[H])C5([H])[H])C([H])([H])[H])c4C([H])([H])[H])C3(C([H])([H])[H])C([H])([H])[H])c([H])c([H])c2C1([H])[H]

>  <smiles>  (16) 
[H]c1c([H])c([H])c2c(c1[H])C([H])([H])C([H])([H])C([H])([H])C2([H])N([H])C(=O)C1([H])N(C(=O)C([H])(N([H])C(=O)C([H])(N([H])C([H])([H])[H])C([H])([H])[H])C(C([H])([H])[H])(C([H])([H])[H])C([H])([H])[H])C([H])([H])c2c([H])c(OC3([H])C([H])(c4c(C([H])([H])[H])nc(C([H])([H])[H])c(N(C(=O)N5C([H])([H])C([H])([H])C([H])([H])C([H])(n6nc(-c7c([H])c([H])c(Oc8c([H])c([H])c(F)c([H])c8F)c([H])c7[H])c(C(=O)N([H])[H])c6N([H])[H])C5([H])[H])C([H])([H])[H])c4C([H])([H])[H])C3(C([H])([H])[H])C([H])([H])[H])c([H])c([H])c2C1([H])[H]

$$$$
16:0:0
     RDKit          3D

 93102  0  0  1  0  0  0  0  0999 V2000
  -28.3970  -21.4290   20.2980 C   0  0  0  0  0  3  0  0  0  0  0  0
  -30.6680  -22.1770   20.3090 C   0  0  0  0  0  0  0  0  0  0  0  0
  -30.1820  -23.5240   20.4320 C   0  0  0  0  0  0  0  0  0  0  0  0
  -29.7670  -21.0630   20.2780 C   0  0  0  0  0  0  0  0  0  0  0  0
  -28.7840  -23.7770   20.4730 C   0  0  0  0  0  0  0  0  0  0  0  0
  -32.1730  -21.9240   20.2500 C   0  0  0  0  0  1  0  0  0  0  0  0
  -31.1610  -24.6880   20.5600 C   0  0  0  0  0  1  0  0  0  0  0  0
  -27.9330  -22.7140   20.3880 N   0  0  0  0  0  0  0  0  0  0  0  0
  -30.2800  -19.7120   20.2380 N   0  0  0  0  0  0  0  0  0  0  0  0
  -31.2920  -19.6400   20.2700 H   0  0  0  0  0  0  0  0  0  0  0  0
  -30.7270  -14.7010   20.0320 C   0  0  0  0  0  0  0  0  0  0  0  0
  -30.4080  -12.4770   18.9520 C   0  0  0  0  0  2  0  0  0  0  0  0
  -29.4050  -12.5960   17.7850 C   0  0  0  0  0  2  0  0  0  0  0  0
  -27.9600  -12.4250   18.2900 C   0  0  0  0  0  2  0  0  0  0  0  0
  -27.6650  -13.2750   19.5550 C   0  0  0  0  0  3  0  0  0  0  0  0
  -28.7850  -13.1250   20.6090 C   0  0  0  0  0  2  0  0  0  0  0  0
  -30.0440  -13.5060   19.9550 N   0  0  0  0  0  0  0  0  0  0  0  0
  -31.8790  -14.7600   19.5880 O   0  0  0  0  0  0  0  0  0  0  0  0
  -29.1790  -17.7950   21.5070 C   0  0  0  0  0  2  0  0  0  0  0  0
  -29.1240  -16.2530   21.3080 C   0  0  0  0  0  2  0  0  0  0  0  0
  -30.4690  -17.2030   19.6200 C   0  0  0  0  0  2  0  0  0  0  0  0
  -29.5850  -18.3890   20.1560 C   0  0  0  0  0  3  0  0  0  0  0  0
  -30.0370  -15.8950   20.2130 N   0  0  0  0  0  0  0  0  0  0  0  0
  -25.3140  -13.8510   20.4100 C   0  0  0  0  0  0  0  0  0  0  0  0
  -24.2720  -13.0690   20.8240 C   0  0  0  0  0  0  0  0  0  0  0  0
  -24.7350  -11.7200   20.7470 C   0  0  0  0  0  0  0  0  0  0  0  0
  -26.3480  -12.9790   20.1090 N   0  0  0  0  0  0  0  0  0  0  0  0
  -26.0080  -11.6910   20.3720 N   0  0  0  0  0  0  0  0  0  0  0  0
  -24.0220  -10.4520   20.9540 C   0  0  0  0  0  0  0  0  0  0  0  0
  -24.4770   -9.4910   21.8820 C   0  0  0  0  0  3  0  0  0  0  0  0
  -23.7620   -8.2890   22.0760 C   0  0  0  0  0  3  0  0  0  0  0  0
  -22.5790   -8.0410   21.3410 C   0  0  0  0  0  0  0  0  0  0  0  0
  -22.1420   -8.9920   20.4020 C   0  0  0  0  0  3  0  0  0  0  0  0
  -22.8570  -10.1850   20.2050 C   0  0  0  0  0  3  0  0  0  0  0  0
  -21.8330   -6.8910   21.4460 O   0  0  0  0  0  0  0  0  0  0  0  0
  -21.7710   -6.1760   22.6150 C   0  0  0  0  0  0  0  0  0  0  0  0
  -21.3210   -6.7580   23.8200 C   0  0  0  0  0  3  0  0  0  0  0  0
  -21.2080   -5.9700   24.9830 C   0  0  0  0  0  3  0  0  0  0  0  0
  -21.5340   -4.6010   24.9420 C   0  0  0  0  0  0  0  0  0  0  0  0
  -21.9770   -4.0200   23.7410 C   0  0  0  0  0  3  0  0  0  0  0  0
  -22.0930   -4.8050   22.5810 C   0  0  0  0  0  0  0  0  0  0  0  0
  -22.5000   -4.2340   21.4210 F   0  0  0  0  0  0  0  0  0  0  0  0
  -21.4180   -3.8420   26.0560 F   0  0  0  0  0  0  0  0  0  0  0  0
  -22.8900  -13.5380   21.1750 C   0  0  0  0  0  0  0  0  0  0  0  0
  -22.2120  -12.8300   22.0720 N   0  0  0  0  0  0  0  0  0  0  0  0
  -22.4230  -14.5680   20.6920 O   0  0  0  0  0  0  0  0  0  0  0  0
  -22.6050  -11.9970   22.4830 H   0  0  0  0  0  0  0  0  0  0  0  0
  -21.2880  -13.1270   22.3530 H   0  0  0  0  0  0  0  0  0  0  0  0
  -25.4620  -15.2250   20.2410 N   0  0  0  0  0  0  0  0  0  0  0  0
  -24.6970  -15.8710   20.3950 H   0  0  0  0  0  0  0  0  0  0  0  0
  -26.2850  -15.6690   19.8540 H   0  0  0  0  0  0  0  0  0  0  0  0
  -28.1250  -25.1640   20.8760 C   0  0  0  0  0  2  0  0  0  0  0  0
  -28.4210  -26.4530   20.1960 O   0  0  0  0  0  0  0  0  0  0  0  0
  -24.5740  -31.8190   23.1550 C   0  0  0  0  0  0  0  0  0  0  0  0
  -27.3280  -27.3310   20.1320 C   0  0  0  0  0  0  0  0  0  0  0  0
  -23.4300  -30.4080   21.4830 C   0  0  0  0  0  3  0  0  0  0  0  0
  -24.9410  -28.8980   20.0740 C   0  0  0  0  0  0  0  0  0  0  0  0
  -25.9670  -30.7770   21.3520 C   0  0  0  0  0  2  0  0  0  0  0  0
  -26.0880  -29.4050   20.6990 C   0  0  0  0  0  0  0  0  0  0  0  0
  -27.2890  -28.6330   20.7200 C   0  0  0  0  0  3  0  0  0  0  0  0
  -26.1670  -26.8840   19.4670 C   0  0  0  0  0  3  0  0  0  0  0  0
  -24.9820  -27.6420   19.4470 C   0  0  0  0  0  3  0  0  0  0  0  0
  -23.6840  -29.7450   20.1040 C   0  0  0  0  0  2  0  0  0  0  0  0
  -24.6750  -31.0180   22.0530 N   0  0  0  0  0  0  0  0  0  0  0  0
  -23.4760  -32.0730   23.6680 O   0  0  0  0  0  0  0  0  0  0  0  0
  -22.7680  -29.3730   22.4240 C   0  0  0  0  0  0  0  0  0  0  0  0
  -21.4450  -29.1820   22.2790 N   0  0  0  0  0  0  0  0  0  0  0  0
  -23.4440  -28.7460   23.2450 O   0  0  0  0  0  0  0  0  0  0  0  0
  -20.9590  -29.7400   21.5920 H   0  0  0  0  0  0  0  0  0  0  0  0
  -18.0760  -27.9440   22.7230 C   0  0  0  0  0  0  0  0  0  0  0  0
  -20.6270  -28.2280   23.0300 C   0  0  0  0  0  3  0  0  0  0  0  0
  -20.7540  -26.8030   22.4420 C   0  0  0  0  0  2  0  0  0  0  0  0
  -19.6680  -26.4790   21.4100 C   0  0  0  0  0  2  0  0  0  0  0  0
  -18.2760  -26.6020   22.0370 C   0  0  0  0  0  2  0  0  0  0  0  0
  -19.1800  -28.7140   23.1750 C   0  0  0  0  0  0  0  0  0  0  0  0
  -18.9380  -29.9690   23.7760 C   0  0  0  0  0  3  0  0  0  0  0  0
  -17.6260  -30.4530   23.9280 C   0  0  0  0  0  3  0  0  0  0  0  0
  -16.5360  -29.6800   23.4930 C   0  0  0  0  0  3  0  0  0  0  0  0
  -16.7620  -28.4260   22.8970 C   0  0  0  0  0  3  0  0  0  0  0  0
  -25.8330  -32.4720   23.8050 C   0  0  0  0  0  3  0  0  0  0  0  0
  -25.4900  -33.8620   24.1390 N   0  0  0  0  0  0  0  0  0  0  0  0
  -25.8160  -34.9270   23.3960 C   0  0  0  0  0  0  0  0  0  0  0  0
  -26.5070  -34.8440   22.3770 O   0  0  0  0  0  0  0  0  0  0  0  0
  -24.8780  -33.9990   24.9310 H   0  0  0  0  0  0  0  0  0  0  0  0
  -24.0610  -36.6900   23.0230 C   0  0  0  0  0  1  0  0  0  0  0  0
  -25.2940  -36.3020   23.8540 C   0  0  0  0  0  3  0  0  0  0  0  0
  -27.3960  -37.2190   24.7320 C   0  0  0  0  0  1  0  0  0  0  0  0
  -26.3080  -37.3760   23.7720 N   0  0  0  0  0  0  0  0  0  0  0  0
  -25.8810  -38.2860   23.9230 H   0  0  0  0  0  0  0  0  0  0  0  0
  -26.3400  -31.7020   25.0860 C   0  0  1  0  0  0  0  0  0  0  0  0
  -25.2310  -31.4370   26.1310 C   0  0  0  0  0  1  0  0  0  0  0  0
  -26.9550  -30.3370   24.6970 C   0  0  0  0  0  1  0  0  0  0  0  0
  -27.4630  -32.5120   25.7750 C   0  0  0  0  0  1  0  0  0  0  0  0
  1  8  1  0
  2  3  2  0
  3  5  1  0
  3  7  1  0
  4  1  2  0
  4  2  1  0
  5 52  1  0
  6  2  1  0
  8  5  2  0
  9 10  1  0
  9  4  1  0
 11 23  1  0
 12 17  1  0
 13 14  1  0
 13 12  1  0
 15 14  1  0
 15 27  1  0
 15 16  1  0
 17 11  1  0
 17 16  1  0
 18 11  2  0
 20 19  1  0
 21 22  1  0
 21 23  1  0
 22  9  1  0
 22 19  1  0
 23 20  1  0
 24 25  2  0
 25 44  1  0
 26 25  1  0
 26 29  1  0
 27 28  1  0
 27 24  1  0
 28 26  2  0
 29 30  1  0
 30 31  2  0
 32 35  1  0
 32 31  1  0
 33 32  2  0
 34 33  1  0
 34 29  2  0
 35 36  1  0
 36 37  1  0
 37 38  2  0
 39 38  1  0
 39 43  1  0
 40 39  2  0
 41 36  2  0
 41 40  1  0
 42 41  1  0
 44 45  1  0
 45 48  1  0
 45 47  1  0
 46 44  2  0
 49 50  1  0
 49 24  1  0
 51 49  1  0
 53 52  1  0
 54 65  2  0
 55 53  1  0
 55 60  1  0
 56 64  1  0
 56 66  1  0
 57 63  1  0
 57 59  1  0
 58 64  1  0
 59 60  2  0
 59 58  1  0
 61 55  2  0
 62 61  1  0
 62 57  2  0
 63 56  1  0
 64 54  1  0
 66 68  2  0
 67 66  1  0
 69 67  1  0
 70 79  2  0
 70 75  1  0
 71 67  1  0
 71 75  1  0
 72 71  1  0
 73 74  1  0
 73 72  1  0
 74 70  1  0
 75 76  2  0
 76 77  1  0
 78 77  2  0
 79 78  1  0
 80 54  1  0
 80 81  1  0
 80 90  1  0
 81 84  1  0
 82 86  1  0
 82 81  1  0
 83 82  2  0
 86 85  1  0
 88 86  1  0
 88 89  1  0
 88 87  1  0
 90 93  1  1
 90 91  1  0
 92 90  1  0
M  ISO  4  11 100  23 100  52 101  53 101
M  END
>  <TORSDO>  (17) 
F 18

>  <SCORE>  (17) 
-14.067

>  <name>  (17) 
16

>  <ligand_id>  (17) 
16

>  <original_smiles>  (17) 
[H]c1nc(C([H])([H])Oc2c([H])c([H])c3c(c2[H])C([H])([H])N(C(=O)C([H])(N([H])C(=O)C([H])(N([H])C([H])([H])[H])C([H])([H])[H])C(C([H])([H])[H])(C([H])([H])[H])C([H])([H])[H])C([H])(C(=O)N([H])C2([H])c4c([H])c([H])c([H])c([H])c4C([H])([H])C([H])([H])C2([H])[H])C3([H])[H])c(C([H])([H])[H])c(C([H])([H])[H])c1N([H])C1([H])C([H])([H])N(C(=O)N2C([H])([H])C([H])([H])C([H])([H])C([H])(n3nc(-c4c([H])c([H])c(Oc5c([H])c([H])c(F)c([H])c5F)c([H])c4[H])c(C(=O)N([H])[H])c3N([H])[H])C2([H])[H])C([H])([H])C1([H])[H]

>  <smiles>  (17) 
[H]c1nc(C([H])([H])Oc2c([H])c([H])c3c(c2[H])C([H])([H])N(C(=O)C([H])(N([H])C(=O)C([H])(N([H])C([H])([H])[H])C([H])([H])[H])C(C([H])([H])[H])(C([H])([H])[H])C([H])([H])[H])C([H])(C(=O)N([H])C2([H])c4c([H])c([H])c([H])c([H])c4C([H])([H])C([H])([H])C2([H])[H])C3([H])[H])c(C([H])([H])[H])c(C([H])([H])[H])c1N([H])C1([H])C([H])([H])N(C(=O)N2C([H])([H])C([H])([H])C([H])([H])C([H])(n3nc(-c4c([H])c([H])c(Oc5c([H])c([H])c(F)c([H])c5F)c([H])c4[H])c(C(=O)N([H])[H])c3N([H])[H])C2([H])[H])C([H])([H])C1([H])[H]

$$$$
17:0:0
     RDKit          3D

 95104  0  0  1  0  0  0  0  0999 V2000
  -28.9890  -21.8900   18.4590 C   0  0  0  0  0  2  0  0  0  0  0  0
  -28.6220  -23.3960   18.5470 C   0  0  0  0  0  2  0  0  0  0  0  0
  -29.6800  -21.5020   19.7770 C   0  0  0  0  0  3  0  0  0  0  0  0
  -29.0060  -23.9050   19.9500 C   0  0  0  0  0  3  0  0  0  0  0  0
  -29.0550  -22.5490   20.7660 C   0  0  0  0  0  3  0  0  0  0  0  0
  -29.8540  -22.6630   22.0720 C   0  0  0  0  0  1  0  0  0  0  0  0
  -28.5290  -19.1620   20.1870 C   0  0  0  0  0  3  0  0  0  0  0  0
  -29.7000  -19.9480   20.0720 C   0  0  0  0  0  0  0  0  0  0  0  0
  -28.6030  -17.7390   20.3720 C   0  0  0  0  0  0  0  0  0  0  0  0
  -30.9150  -19.2110   20.1790 C   0  0  0  0  0  0  0  0  0  0  0  0
  -29.8700  -17.0960   20.4530 C   0  0  0  0  0  0  0  0  0  0  0  0
  -32.2650  -19.8930   20.0610 C   0  0  0  0  0  1  0  0  0  0  0  0
  -30.9890  -17.8600   20.3640 N   0  0  0  0  0  0  0  0  0  0  0  0
  -30.5930  -14.6300   20.0630 C   0  0  0  0  0  0  0  0  0  0  0  0
  -30.3260  -12.4380   18.9160 C   0  0  0  0  0  2  0  0  0  0  0  0
  -29.3080  -12.6240   17.7690 C   0  0  0  0  0  2  0  0  0  0  0  0
  -27.8680  -12.4270   18.2820 C   0  0  0  0  0  2  0  0  0  0  0  0
  -27.5830  -13.2220   19.5840 C   0  0  0  0  0  3  0  0  0  0  0  0
  -28.7130  -13.0230   20.6220 C   0  0  0  0  0  2  0  0  0  0  0  0
  -29.9820  -13.4040   19.9810 N   0  0  0  0  0  0  0  0  0  0  0  0
  -31.7150  -14.8070   19.5770 O   0  0  0  0  0  0  0  0  0  0  0  0
  -29.8380  -15.6440   20.5900 N   0  0  0  0  0  0  0  0  0  0  0  0
  -29.0020  -15.3260   21.0520 H   0  0  0  0  0  0  0  0  0  0  0  0
  -25.2280  -13.7560   20.4610 C   0  0  0  0  0  0  0  0  0  0  0  0
  -24.1980  -12.9530   20.8710 C   0  0  0  0  0  0  0  0  0  0  0  0
  -24.6760  -11.6120   20.7660 C   0  0  0  0  0  0  0  0  0  0  0  0
  -26.2700  -12.9010   20.1380 N   0  0  0  0  0  0  0  0  0  0  0  0
  -25.9450  -11.6040   20.3780 N   0  0  0  0  0  0  0  0  0  0  0  0
  -23.9810  -10.3330   20.9580 C   0  0  0  0  0  0  0  0  0  0  0  0
  -24.4280   -9.3830   21.9040 C   0  0  0  0  0  3  0  0  0  0  0  0
  -23.7320   -8.1690   22.0830 C   0  0  0  0  0  3  0  0  0  0  0  0
  -22.5750   -7.8940   21.3190 C   0  0  0  0  0  0  0  0  0  0  0  0
  -22.1460   -8.8330   20.3640 C   0  0  0  0  0  3  0  0  0  0  0  0
  -22.8420  -10.0390   20.1820 C   0  0  0  0  0  3  0  0  0  0  0  0
  -21.8490   -6.7310   21.4060 O   0  0  0  0  0  0  0  0  0  0  0  0
  -21.7370   -6.0400   22.5870 C   0  0  0  0  0  0  0  0  0  0  0  0
  -21.2010   -6.6350   23.7500 C   0  0  0  0  0  3  0  0  0  0  0  0
  -21.0400   -5.8680   24.9220 C   0  0  0  0  0  3  0  0  0  0  0  0
  -21.4040   -4.5080   24.9310 C   0  0  0  0  0  0  0  0  0  0  0  0
  -21.9320   -3.9130   23.7700 C   0  0  0  0  0  3  0  0  0  0  0  0
  -22.0950   -4.6770   22.6010 C   0  0  0  0  0  0  0  0  0  0  0  0
  -22.5850   -4.0920   21.4810 F   0  0  0  0  0  0  0  0  0  0  0  0
  -21.2410   -3.7690   26.0530 F   0  0  0  0  0  0  0  0  0  0  0  0
  -22.8130  -13.4000   21.2440 C   0  0  0  0  0  0  0  0  0  0  0  0
  -22.1580  -12.6760   22.1450 N   0  0  0  0  0  0  0  0  0  0  0  0
  -22.3210  -14.4240   20.7710 O   0  0  0  0  0  0  0  0  0  0  0  0
  -22.5680  -11.8470   22.5480 H   0  0  0  0  0  0  0  0  0  0  0  0
  -21.2320  -12.9570   22.4370 H   0  0  0  0  0  0  0  0  0  0  0  0
  -25.3590  -15.1330   20.3200 N   0  0  0  0  0  0  0  0  0  0  0  0
  -24.5880  -15.7670   20.4960 H   0  0  0  0  0  0  0  0  0  0  0  0
  -26.1960  -15.6060   20.0030 H   0  0  0  0  0  0  0  0  0  0  0  0
  -26.2420  -17.4420   20.0150 C   0  0  0  0  0  1  0  0  0  0  0  0
  -27.4910  -16.9250   20.4610 O   0  0  0  0  0  0  0  0  0  0  0  0
  -28.1130  -25.1090   20.4880 C   0  0  0  0  0  2  0  0  0  0  0  0
  -28.3000  -26.4610   19.9210 O   0  0  0  0  0  0  0  0  0  0  0  0
  -24.6650  -31.8630   23.0230 C   0  0  0  0  0  0  0  0  0  0  0  0
  -27.1890  -27.3090   19.9220 C   0  0  0  0  0  0  0  0  0  0  0  0
  -23.4230  -30.4820   21.3950 C   0  0  0  0  0  3  0  0  0  0  0  0
  -24.8380  -28.9250   19.9430 C   0  0  0  0  0  0  0  0  0  0  0  0
  -25.9590  -30.7850   21.1720 C   0  0  0  0  0  2  0  0  0  0  0  0
  -26.0180  -29.4090   20.5230 C   0  0  0  0  0  0  0  0  0  0  0  0
  -27.1990  -28.6140   20.5000 C   0  0  0  0  0  3  0  0  0  0  0  0
  -25.9940  -26.8750   19.3130 C   0  0  0  0  0  3  0  0  0  0  0  0
  -24.8270  -27.6630   19.3260 C   0  0  0  0  0  3  0  0  0  0  0  0
  -23.6090  -29.8080   20.0090 C   0  0  0  0  0  2  0  0  0  0  0  0
  -24.7030  -31.0610   21.9190 N   0  0  0  0  0  0  0  0  0  0  0  0
  -23.5930  -32.1490   23.5760 O   0  0  0  0  0  0  0  0  0  0  0  0
  -22.7670  -29.4690   22.3620 C   0  0  0  0  0  0  0  0  0  0  0  0
  -21.4320  -29.3300   22.2760 N   0  0  0  0  0  0  0  0  0  0  0  0
  -23.4540  -28.8100   23.1470 O   0  0  0  0  0  0  0  0  0  0  0  0
  -20.9370  -29.9100   21.6130 H   0  0  0  0  0  0  0  0  0  0  0  0
  -18.0380  -28.2430   22.8870 C   0  0  0  0  0  0  0  0  0  0  0  0
  -20.6130  -28.4040   23.0590 C   0  0  0  0  0  3  0  0  0  0  0  0
  -20.6390  -26.9840   22.4480 C   0  0  0  0  0  2  0  0  0  0  0  0
  -19.4860  -26.7260   21.4730 C   0  0  0  0  0  2  0  0  0  0  0  0
  -18.1370  -26.9050   22.1750 C   0  0  0  0  0  2  0  0  0  0  0  0
  -19.2000  -28.9530   23.2880 C   0  0  0  0  0  0  0  0  0  0  0  0
  -19.0510  -30.2100   23.9150 C   0  0  0  0  0  3  0  0  0  0  0  0
  -17.7730  -30.7530   24.1450 C   0  0  0  0  0  3  0  0  0  0  0  0
  -16.6260  -30.0380   23.7610 C   0  0  0  0  0  3  0  0  0  0  0  0
  -16.7600  -28.7840   23.1380 C   0  0  0  0  0  3  0  0  0  0  0  0
  -25.9650  -32.4790   23.6290 C   0  0  0  0  0  3  0  0  0  0  0  0
  -26.5420  -31.6450   24.8390 C   0  0  1  0  0  0  0  0  0  0  0  0
  -25.4940  -31.3300   25.9320 C   0  0  0  0  0  1  0  0  0  0  0  0
  -27.1280  -30.3010   24.3450 C   0  0  0  0  0  1  0  0  0  0  0  0
  -27.7070  -32.4190   25.4990 C   0  0  0  0  0  1  0  0  0  0  0  0
  -25.6510  -33.8510   24.0500 N   0  0  0  0  0  0  0  0  0  0  0  0
  -25.9250  -34.9490   23.3320 C   0  0  0  0  0  0  0  0  0  0  0  0
  -26.5400  -34.9130   22.2620 O   0  0  0  0  0  0  0  0  0  0  0  0
  -25.0990  -33.9520   24.8890 H   0  0  0  0  0  0  0  0  0  0  0  0
  -24.1490  -36.7230   23.1700 C   0  0  0  0  0  1  0  0  0  0  0  0
  -25.4400  -36.3010   23.8900 C   0  0  0  0  0  3  0  0  0  0  0  0
  -27.6010  -37.1870   24.6480 C   0  0  0  0  0  1  0  0  0  0  0  0
  -26.4470  -37.3800   23.7750 N   0  0  0  0  0  0  0  0  0  0  0  0
  -26.0330  -38.2840   23.9900 H   0  0  0  0  0  0  0  0  0  0  0  0
  1  2  1  0
  1  3  1  0
  2  4  1  0
  3  8  1  0
  3  5  1  0
  4 54  1  0
  4  5  1  0
  5  6  1  0
  7  9  1  0
  8 10  1  0
  8  7  2  0
  9 11  2  0
  9 53  1  0
 10 13  2  0
 11 22  1  0
 12 10  1  0
 13 11  1  0
 14 22  1  0
 15 20  1  0
 16 17  1  0
 16 15  1  0
 18 17  1  0
 18 27  1  0
 18 19  1  0
 20 14  1  0
 20 19  1  0
 21 14  2  0
 22 23  1  0
 24 25  2  0
 25 44  1  0
 26 25  1  0
 26 29  1  0
 27 28  1  0
 27 24  1  0
 28 26  2  0
 29 30  1  0
 30 31  2  0
 32 35  1  0
 32 31  1  0
 33 32  2  0
 34 33  1  0
 34 29  2  0
 35 36  1  0
 36 41  2  0
 36 37  1  0
 37 38  2  0
 38 39  1  0
 39 43  1  0
 40 39  2  0
 41 40  1  0
 42 41  1  0
 44 45  1  0
 45 48  1  0
 45 47  1  0
 46 44  2  0
 49 24  1  0
 49 50  1  0
 51 49  1  0
 52 53  1  0
 55 57  1  0
 55 54  1  0
 56 67  2  0
 57 62  1  0
 58 66  1  0
 58 68  1  0
 59 65  1  0
 59 61  1  0
 60 66  1  0
 61 60  1  0
 62 61  2  0
 63 64  1  0
 63 57  2  0
 64 59  2  0
 65 58  1  0
 66 56  1  0
 68 70  2  0
 69 68  1  0
 71 69  1  0
 72 81  2  0
 72 77  1  0
 73 69  1  0
 73 77  1  0
 74 73  1  0
 75 76  1  0
 75 74  1  0
 76 72  1  0
 77 78  2  0
 78 79  1  0
 80 79  2  0
 81 80  1  0
 82 56  1  0
 82 87  1  0
 82 83  1  0
 83 86  1  1
 83 84  1  0
 85 83  1  0
 87 90  1  0
 88 92  1  0
 88 87  1  0
 89 88  2  0
 92 91  1  0
 94 92  1  0
 94 95  1  0
 94 93  1  0
M  ISO  4  14 100  22 100  54 101  55 101
M  END
>  <TORSDO>  (18) 
F 19

>  <SCORE>  (18) 
-14.297

>  <name>  (18) 
17

>  <ligand_id>  (18) 
17

>  <original_smiles>  (18) 
[H]c1c([H])c([H])c2c(c1[H])C([H])([H])C([H])([H])C([H])([H])C2([H])N([H])C(=O)C1([H])N(C(=O)C([H])(N([H])C(=O)C([H])(N([H])C([H])([H])[H])C([H])([H])[H])C(C([H])([H])[H])(C([H])([H])[H])C([H])([H])[H])C([H])([H])c2c([H])c(OC([H])([H])C3([H])C([H])([H])C([H])([H])C([H])(c4c(C([H])([H])[H])nc(N([H])C(=O)N5C([H])([H])C([H])([H])C([H])([H])C([H])(n6nc(-c7c([H])c([H])c(Oc8c([H])c([H])c(F)c([H])c8F)c([H])c7[H])c(C(=O)N([H])[H])c6N([H])[H])C5([H])[H])c(OC([H])([H])[H])c4[H])C3([H])C([H])([H])[H])c([H])c([H])c2C1([H])[H]

>  <smiles>  (18) 
[H]c1c([H])c([H])c2c(c1[H])C([H])([H])C([H])([H])C([H])([H])C2([H])N([H])C(=O)C1([H])N(C(=O)C([H])(N([H])C(=O)C([H])(N([H])C([H])([H])[H])C([H])([H])[H])C(C([H])([H])[H])(C([H])([H])[H])C([H])([H])[H])C([H])([H])c2c([H])c(OC([H])([H])C3([H])C([H])([H])C([H])([H])C([H])(c4c(C([H])([H])[H])nc(N([H])C(=O)N5C([H])([H])C([H])([H])C([H])([H])C([H])(n6nc(-c7c([H])c([H])c(Oc8c([H])c([H])c(F)c([H])c8F)c([H])c7[H])c(C(=O)N([H])[H])c6N([H])[H])C5([H])[H])c(OC([H])([H])[H])c4[H])C3([H])C([H])([H])[H])c([H])c([H])c2C1([H])[H]

$$$$
18:0:0
     RDKit          3D

 93102  0  0  1  0  0  0  0  0999 V2000
  -28.9650  -21.6900   21.0800 C   0  0  0  0  0  0  0  0  0  0  0  0
  -28.5670  -23.0800   21.0950 C   0  0  0  0  0  0  0  0  0  0  0  0
  -29.2410  -21.0050   19.8490 C   0  0  0  0  0  0  0  0  0  0  0  0
  -28.4900  -23.8730   19.9000 C   0  0  0  0  0  0  0  0  0  0  0  0
  -29.1280  -21.8880   18.7140 C   0  0  0  0  0  0  0  0  0  0  0  0
  -29.0870  -20.9540   22.4130 C   0  0  0  0  0  1  0  0  0  0  0  0
  -28.1910  -23.7370   22.4300 C   0  0  0  0  0  1  0  0  0  0  0  0
  -29.3910  -21.3400   17.3250 C   0  0  0  0  0  1  0  0  0  0  0  0
  -28.7790  -23.2300   18.7320 N   0  0  0  0  0  0  0  0  0  0  0  0
  -30.9180  -15.2070   19.8340 C   0  0  0  0  0  0  0  0  0  0  0  0
  -30.6250  -12.8560   19.0130 C   0  0  0  0  0  2  0  0  0  0  0  0
  -29.6610  -12.7800   17.8120 C   0  0  0  0  0  2  0  0  0  0  0  0
  -28.2160  -12.5980   18.3080 C   0  0  0  0  0  2  0  0  0  0  0  0
  -27.8520  -13.5900   19.4430 C   0  0  0  0  0  3  0  0  0  0  0  0
  -28.9500  -13.6830   20.5310 C   0  0  0  0  0  2  0  0  0  0  0  0
  -30.2060  -14.0160   19.8480 N   0  0  0  0  0  0  0  0  0  0  0  0
  -32.1140  -15.1260   19.5330 O   0  0  0  0  0  0  0  0  0  0  0  0
  -30.8200  -19.1020   20.3970 C   0  0  0  0  0  3  0  0  0  0  0  0
  -28.5700  -18.5120   19.8570 C   0  0  0  0  0  3  0  0  0  0  0  0
  -31.3110  -17.6690   19.9530 C   0  0  0  0  0  3  0  0  0  0  0  0
  -29.0020  -16.9840   19.6140 C   0  0  0  0  0  3  0  0  0  0  0  0
  -29.5980  -19.5780   19.7310 N   0  0  0  0  0  0  0  0  0  0  0  0
  -30.3670  -16.5020   19.9970 N   0  0  0  0  0  0  0  0  0  0  0  0
  -25.5280  -14.2100   20.3200 C   0  0  0  0  0  0  0  0  0  0  0  0
  -24.4660  -13.4490   20.7260 C   0  0  0  0  0  0  0  0  0  0  0  0
  -24.8960  -12.0900   20.6360 C   0  0  0  0  0  0  0  0  0  0  0  0
  -26.5360  -13.3150   20.0070 N   0  0  0  0  0  0  0  0  0  0  0  0
  -26.1690  -12.0330   20.2640 N   0  0  0  0  0  0  0  0  0  0  0  0
  -24.1500  -10.8410   20.8250 C   0  0  0  0  0  0  0  0  0  0  0  0
  -24.5380   -9.8880   21.7930 C   0  0  0  0  0  3  0  0  0  0  0  0
  -23.7920   -8.7030   21.9700 C   0  0  0  0  0  3  0  0  0  0  0  0
  -22.6440   -8.4620   21.1790 C   0  0  0  0  0  0  0  0  0  0  0  0
  -22.2760   -9.4020   20.2000 C   0  0  0  0  0  3  0  0  0  0  0  0
  -23.0230  -10.5790   20.0220 C   0  0  0  0  0  3  0  0  0  0  0  0
  -21.8720   -7.3280   21.2650 O   0  0  0  0  0  0  0  0  0  0  0  0
  -21.6780   -6.6780   22.4570 C   0  0  0  0  0  0  0  0  0  0  0  0
  -21.0550   -7.3070   23.5570 C   0  0  0  0  0  3  0  0  0  0  0  0
  -20.8140   -6.5800   24.7400 C   0  0  0  0  0  3  0  0  0  0  0  0
  -21.1860   -5.2240   24.8220 C   0  0  0  0  0  0  0  0  0  0  0  0
  -21.8010   -4.5950   23.7260 C   0  0  0  0  0  3  0  0  0  0  0  0
  -22.0440   -5.3200   22.5460 C   0  0  0  0  0  0  0  0  0  0  0  0
  -22.6180   -4.7030   21.4840 F   0  0  0  0  0  0  0  0  0  0  0  0
  -20.9470   -4.5240   25.9550 F   0  0  0  0  0  0  0  0  0  0  0  0
  -23.0960  -13.9520   21.0760 C   0  0  0  0  0  0  0  0  0  0  0  0
  -22.4040  -13.2650   21.9780 N   0  0  0  0  0  0  0  0  0  0  0  0
  -22.6510  -14.9880   20.5840 O   0  0  0  0  0  0  0  0  0  0  0  0
  -22.7770  -12.4260   22.3970 H   0  0  0  0  0  0  0  0  0  0  0  0
  -21.4870  -13.5850   22.2550 H   0  0  0  0  0  0  0  0  0  0  0  0
  -25.7070  -15.5810   20.1650 N   0  0  0  0  0  0  0  0  0  0  0  0
  -24.9510  -16.2370   20.3220 H   0  0  0  0  0  0  0  0  0  0  0  0
  -26.5280  -16.0090   19.7610 H   0  0  0  0  0  0  0  0  0  0  0  0
  -27.9270  -25.3960   19.9860 C   0  0  0  0  0  2  0  0  0  0  0  0
  -28.0140  -26.5380   18.9990 O   0  0  0  0  0  0  0  0  0  0  0  0
  -24.6820  -31.6210   23.0280 C   0  0  0  0  0  0  0  0  0  0  0  0
  -26.9860  -27.5020   19.1540 C   0  0  0  0  0  0  0  0  0  0  0  0
  -23.3370  -30.4530   21.3210 C   0  0  0  0  0  3  0  0  0  0  0  0
  -24.6550  -29.1350   19.5630 C   0  0  0  0  0  0  0  0  0  0  0  0
  -25.8590  -30.8030   20.9680 C   0  0  0  0  0  2  0  0  0  0  0  0
  -25.8790  -29.5260   20.1240 C   0  0  0  0  0  0  0  0  0  0  0  0
  -27.0500  -28.7230   19.9120 C   0  0  0  0  0  3  0  0  0  0  0  0
  -25.7460  -27.2040   18.5510 C   0  0  0  0  0  3  0  0  0  0  0  0
  -24.5940  -27.9850   18.7620 C   0  0  0  0  0  3  0  0  0  0  0  0
  -23.4300  -29.9840   19.8460 C   0  0  0  0  0  2  0  0  0  0  0  0
  -24.6490  -30.9690   21.8280 N   0  0  0  0  0  0  0  0  0  0  0  0
  -23.6490  -31.8110   23.6890 O   0  0  0  0  0  0  0  0  0  0  0  0
  -22.7570  -29.3060   22.1850 C   0  0  0  0  0  0  0  0  0  0  0  0
  -21.4280  -29.1130   22.1250 N   0  0  0  0  0  0  0  0  0  0  0  0
  -23.5000  -28.5990   22.8700 O   0  0  0  0  0  0  0  0  0  0  0  0
  -20.8840  -29.7370   21.5470 H   0  0  0  0  0  0  0  0  0  0  0  0
  -18.1150  -27.7690   22.6920 C   0  0  0  0  0  0  0  0  0  0  0  0
  -20.6810  -28.0640   22.8230 C   0  0  0  0  0  3  0  0  0  0  0  0
  -20.7700  -26.7190   22.0650 C   0  0  0  0  0  2  0  0  0  0  0  0
  -19.6070  -26.4970   21.0930 C   0  0  0  0  0  2  0  0  0  0  0  0
  -18.2700  -26.5220   21.8380 C   0  0  0  0  0  2  0  0  0  0  0  0
  -19.2450  -28.5020   23.1410 C   0  0  0  0  0  0  0  0  0  0  0  0
  -19.0430  -29.6730   23.9040 C   0  0  0  0  0  3  0  0  0  0  0  0
  -17.7430  -30.1110   24.2180 C   0  0  0  0  0  3  0  0  0  0  0  0
  -16.6280  -29.3750   23.7840 C   0  0  0  0  0  3  0  0  0  0  0  0
  -16.8140  -28.2040   23.0260 C   0  0  0  0  0  3  0  0  0  0  0  0
  -26.0150  -32.1760   23.6190 C   0  0  0  0  0  3  0  0  0  0  0  0
  -25.7550  -33.5430   24.0940 N   0  0  0  0  0  0  0  0  0  0  0  0
  -26.0650  -34.6580   23.4190 C   0  0  0  0  0  0  0  0  0  0  0  0
  -26.6690  -34.6400   22.3420 O   0  0  0  0  0  0  0  0  0  0  0  0
  -25.2130  -33.6310   24.9410 H   0  0  0  0  0  0  0  0  0  0  0  0
  -24.3510  -36.4990   23.3540 C   0  0  0  0  0  1  0  0  0  0  0  0
  -25.6380  -36.0050   24.0330 C   0  0  0  0  0  3  0  0  0  0  0  0
  -27.8340  -36.7920   24.7980 C   0  0  0  0  0  1  0  0  0  0  0  0
  -26.6810  -37.0510   23.9410 N   0  0  0  0  0  0  0  0  0  0  0  0
  -26.3010  -37.9610   24.1860 H   0  0  0  0  0  0  0  0  0  0  0  0
  -26.5950  -31.2850   24.7850 C   0  0  1  0  0  0  0  0  0  0  0  0
  -25.5700  -30.9800   25.9040 C   0  0  0  0  0  1  0  0  0  0  0  0
  -27.1110  -29.9330   24.2400 C   0  0  0  0  0  1  0  0  0  0  0  0
  -27.8100  -31.9930   25.4300 C   0  0  0  0  0  1  0  0  0  0  0  0
  1  2  1  0
  1  6  1  0
  2  7  1  0
  3  1  2  0
  4 52  1  0
  4  2  2  0
  5  9  2  0
  5  3  1  0
  8  5  1  0
  9  4  1  0
 10 16  1  0
 10 23  1  0
 11 16  1  0
 12 13  1  0
 12 11  1  0
 14 13  1  0
 14 27  1  0
 14 15  1  0
 16 15  1  0
 17 10  2  0
 20 23  1  0
 20 18  2  0
 21 19  2  0
 21 23  1  0
 22  3  1  0
 22 19  1  0
 22 18  1  0
 24 25  2  0
 25 44  1  0
 26 25  1  0
 26 29  1  0
 27 28  1  0
 27 24  1  0
 28 26  2  0
 29 30  1  0
 30 31  2  0
 32 35  1  0
 32 31  1  0
 33 32  2  0
 34 33  1  0
 34 29  2  0
 35 36  1  0
 36 41  2  0
 36 37  1  0
 37 38  2  0
 38 39  1  0
 39 43  1  0
 40 39  2  0
 41 40  1  0
 42 41  1  0
 44 45  1  0
 45 48  1  0
 45 47  1  0
 46 44  2  0
 49 24  1  0
 49 50  1  0
 51 49  1  0
 53 55  1  0
 53 52  1  0
 54 65  2  0
 55 60  1  0
 56 64  1  0
 56 66  1  0
 57 63  1  0
 57 59  1  0
 58 64  1  0
 59 58  1  0
 60 59  2  0
 61 62  1  0
 61 55  2  0
 62 57  2  0
 63 56  1  0
 64 54  1  0
 66 68  2  0
 67 66  1  0
 69 67  1  0
 70 79  2  0
 70 75  1  0
 71 67  1  0
 71 75  1  0
 72 71  1  0
 73 74  1  0
 73 72  1  0
 74 70  1  0
 75 76  2  0
 76 77  1  0
 78 77  2  0
 79 78  1  0
 80 54  1  0
 80 81  1  0
 80 90  1  0
 81 84  1  0
 82 86  1  0
 82 81  1  0
 83 82  2  0
 86 85  1  0
 88 86  1  0
 88 89  1  0
 88 87  1  0
 90 93  1  1
 90 91  1  0
 92 90  1  0
M  ISO  4  10 100  23 100  52 101  53 101
M  END
>  <TORSDO>  (19) 
F 17

>  <SCORE>  (19) 
-12.887

>  <name>  (19) 
18

>  <ligand_id>  (19) 
18

>  <original_smiles>  (19) 
[H]c1c([H])c([H])c2c(c1[H])C([H])([H])C([H])([H])C([H])([H])C2([H])N([H])C(=O)C1([H])N(C(=O)C([H])(N([H])C(=O)C([H])(N([H])C([H])([H])[H])C([H])([H])[H])C(C([H])([H])[H])(C([H])([H])[H])C([H])([H])[H])C([H])([H])c2c([H])c(OC([H])([H])c3nc(C([H])([H])[H])c(N4C([H])([H])C([H])([H])N(C(=O)N5C([H])([H])C([H])([H])C([H])([H])C([H])(n6nc(-c7c([H])c([H])c(Oc8c([H])c([H])c(F)c([H])c8F)c([H])c7[H])c(C(=O)N([H])[H])c6N([H])[H])C5([H])[H])C([H])([H])C4([H])[H])c(C([H])([H])[H])c3C([H])([H])[H])c([H])c([H])c2C1([H])[H]

>  <smiles>  (19) 
[H]c1c([H])c([H])c2c(c1[H])C([H])([H])C([H])([H])C([H])([H])C2([H])N([H])C(=O)C1([H])N(C(=O)C([H])(N([H])C(=O)C([H])(N([H])C([H])([H])[H])C([H])([H])[H])C(C([H])([H])[H])(C([H])([H])[H])C([H])([H])[H])C([H])([H])c2c([H])c(OC([H])([H])c3nc(C([H])([H])[H])c(N4C([H])([H])C([H])([H])N(C(=O)N5C([H])([H])C([H])([H])C([H])([H])C([H])(n6nc(-c7c([H])c([H])c(Oc8c([H])c([H])c(F)c([H])c8F)c([H])c7[H])c(C(=O)N([H])[H])c6N([H])[H])C5([H])[H])C([H])([H])C4([H])[H])c(C([H])([H])[H])c3C([H])([H])[H])c([H])c([H])c2C1([H])[H]

$$$$
19:0:0
     RDKit          3D

 92101  0  0  1  0  0  0  0  0999 V2000
  -28.6150  -22.1520   20.2670 C   0  0  0  0  0  3  0  0  0  0  0  0
  -28.9910  -23.5740   20.2280 C   0  0  0  0  0  0  0  0  0  0  0  0
  -29.5300  -20.9950   20.3170 C   0  0  0  0  0  0  0  0  0  0  0  0
  -30.3820  -23.7730   20.2410 C   0  0  0  0  0  0  0  0  0  0  0  0
  -30.8810  -21.4570   20.3180 C   0  0  0  0  0  0  0  0  0  0  0  0
  -31.0000  -25.1560   20.1820 C   0  0  0  0  0  1  0  0  0  0  0  0
  -32.0580  -20.4970   20.3410 C   0  0  0  0  0  1  0  0  0  0  0  0
  -31.2690  -22.7560   20.2880 N   0  0  0  0  0  0  0  0  0  0  0  0
  -29.6160  -18.5560   21.3900 C   0  0  0  0  0  2  0  0  0  0  0  0
  -29.4520  -18.5310   19.2920 C   0  0  0  0  0  2  0  0  0  0  0  0
  -30.1780  -17.5610   20.3030 C   0  0  0  0  0  3  0  0  0  0  0  0
  -29.1410  -19.5280   20.3610 N   0  0  0  0  0  0  0  0  0  0  0  0
  -30.5580  -14.8990   20.1080 C   0  0  0  0  0  0  0  0  0  0  0  0
  -30.3510  -12.6070   19.0920 C   0  0  0  0  0  2  0  0  0  0  0  0
  -29.3590  -12.6430   17.9080 C   0  0  0  0  0  2  0  0  0  0  0  0
  -27.9140  -12.4400   18.4040 C   0  0  0  0  0  2  0  0  0  0  0  0
  -27.5790  -13.3210   19.6360 C   0  0  0  0  0  3  0  0  0  0  0  0
  -28.6880  -13.2640   20.7090 C   0  0  0  0  0  2  0  0  0  0  0  0
  -29.9410  -13.6590   20.0560 N   0  0  0  0  0  0  0  0  0  0  0  0
  -31.7350  -14.9890   19.7450 O   0  0  0  0  0  0  0  0  0  0  0  0
  -29.8000  -16.0520   20.3650 N   0  0  0  0  0  0  0  0  0  0  0  0
  -28.8400  -15.8680   20.6120 H   0  0  0  0  0  0  0  0  0  0  0  0
  -25.2320  -13.8820   20.4990 C   0  0  0  0  0  0  0  0  0  0  0  0
  -24.1860  -13.0960   20.8970 C   0  0  0  0  0  0  0  0  0  0  0  0
  -24.6480  -11.7470   20.8050 C   0  0  0  0  0  0  0  0  0  0  0  0
  -26.2630  -13.0120   20.1860 N   0  0  0  0  0  0  0  0  0  0  0  0
  -25.9230  -11.7210   20.4340 N   0  0  0  0  0  0  0  0  0  0  0  0
  -23.9300  -10.4780   20.9910 C   0  0  0  0  0  0  0  0  0  0  0  0
  -24.3690   -9.5090   21.9200 C   0  0  0  0  0  3  0  0  0  0  0  0
  -23.6510   -8.3070   22.0940 C   0  0  0  0  0  3  0  0  0  0  0  0
  -22.4790   -8.0650   21.3400 C   0  0  0  0  0  0  0  0  0  0  0  0
  -22.0590   -9.0220   20.4010 C   0  0  0  0  0  3  0  0  0  0  0  0
  -22.7780  -10.2160   20.2230 C   0  0  0  0  0  3  0  0  0  0  0  0
  -21.7310   -6.9160   21.4250 O   0  0  0  0  0  0  0  0  0  0  0  0
  -21.6380   -6.2030   22.5930 C   0  0  0  0  0  0  0  0  0  0  0  0
  -21.1210   -6.7740   23.7760 C   0  0  0  0  0  3  0  0  0  0  0  0
  -20.9780   -5.9850   24.9350 C   0  0  0  0  0  3  0  0  0  0  0  0
  -21.3400   -4.6260   24.9120 C   0  0  0  0  0  0  0  0  0  0  0  0
  -21.8500   -4.0530   23.7330 C   0  0  0  0  0  3  0  0  0  0  0  0
  -21.9950   -4.8380   22.5760 C   0  0  0  0  0  0  0  0  0  0  0  0
  -22.4660   -4.2770   21.4370 F   0  0  0  0  0  0  0  0  0  0  0  0
  -21.1970   -3.8650   26.0220 F   0  0  0  0  0  0  0  0  0  0  0  0
  -22.8030  -13.5630   21.2460 C   0  0  0  0  0  0  0  0  0  0  0  0
  -22.1190  -12.8460   22.1300 N   0  0  0  0  0  0  0  0  0  0  0  0
  -22.3400  -14.5990   20.7710 O   0  0  0  0  0  0  0  0  0  0  0  0
  -22.5090  -12.0070   22.5350 H   0  0  0  0  0  0  0  0  0  0  0  0
  -21.1930  -13.1390   22.4070 H   0  0  0  0  0  0  0  0  0  0  0  0
  -25.3860  -15.2580   20.3520 N   0  0  0  0  0  0  0  0  0  0  0  0
  -24.6200  -15.9030   20.5110 H   0  0  0  0  0  0  0  0  0  0  0  0
  -26.2030  -15.7050   19.9580 H   0  0  0  0  0  0  0  0  0  0  0  0
  -27.9450  -24.8090   20.0910 C   0  0  0  0  0  2  0  0  0  0  0  0
  -28.2660  -26.3000   20.2690 O   0  0  0  0  0  0  0  0  0  0  0  0
  -24.6440  -31.9110   23.2860 C   0  0  0  0  0  0  0  0  0  0  0  0
  -27.2030  -27.2590   20.2090 C   0  0  0  0  0  0  0  0  0  0  0  0
  -23.4370  -30.5410   21.6300 C   0  0  0  0  0  3  0  0  0  0  0  0
  -24.8770  -28.9830   20.1930 C   0  0  0  0  0  0  0  0  0  0  0  0
  -25.9900  -30.8060   21.4680 C   0  0  0  0  0  2  0  0  0  0  0  0
  -26.0570  -29.4260   20.8040 C   0  0  0  0  0  0  0  0  0  0  0  0
  -27.2220  -28.5790   20.7960 C   0  0  0  0  0  3  0  0  0  0  0  0
  -25.9950  -26.9060   19.5640 C   0  0  0  0  0  3  0  0  0  0  0  0
  -24.8560  -27.7330   19.5590 C   0  0  0  0  0  3  0  0  0  0  0  0
  -23.6530  -29.8800   20.2440 C   0  0  0  0  0  2  0  0  0  0  0  0
  -24.7100  -31.1060   22.1830 N   0  0  0  0  0  0  0  0  0  0  0  0
  -23.5590  -32.1960   23.8150 O   0  0  0  0  0  0  0  0  0  0  0  0
  -22.7530  -29.5250   22.5770 C   0  0  0  0  0  0  0  0  0  0  0  0
  -21.4250  -29.3620   22.4430 N   0  0  0  0  0  0  0  0  0  0  0  0
  -23.4180  -28.8870   23.3960 O   0  0  0  0  0  0  0  0  0  0  0  0
  -20.9450  -29.9270   21.7560 H   0  0  0  0  0  0  0  0  0  0  0  0
  -18.0320  -28.1930   22.9280 C   0  0  0  0  0  0  0  0  0  0  0  0
  -20.5930  -28.4250   23.2030 C   0  0  0  0  0  3  0  0  0  0  0  0
  -20.6810  -26.9980   22.6120 C   0  0  0  0  0  2  0  0  0  0  0  0
  -19.5760  -26.6980   21.5940 C   0  0  0  0  0  2  0  0  0  0  0  0
  -18.1950  -26.8500   22.2370 C   0  0  0  0  0  2  0  0  0  0  0  0
  -19.1570  -28.9400   23.3670 C   0  0  0  0  0  0  0  0  0  0  0  0
  -18.9510  -30.1980   23.9730 C   0  0  0  0  0  3  0  0  0  0  0  0
  -17.6500  -30.7090   24.1460 C   0  0  0  0  0  3  0  0  0  0  0  0
  -16.5380  -29.9590   23.7230 C   0  0  0  0  0  3  0  0  0  0  0  0
  -16.7300  -28.7030   23.1200 C   0  0  0  0  0  3  0  0  0  0  0  0
  -25.9270  -32.5300   23.9200 C   0  0  0  0  0  3  0  0  0  0  0  0
  -25.6280  -33.9300   24.2550 N   0  0  0  0  0  0  0  0  0  0  0  0
  -25.9300  -34.9820   23.4810 C   0  0  0  0  0  0  0  0  0  0  0  0
  -26.5590  -34.8750   22.4240 O   0  0  0  0  0  0  0  0  0  0  0  0
  -25.0670  -34.0880   25.0790 H   0  0  0  0  0  0  0  0  0  0  0  0
  -24.1760  -36.7650   23.2100 C   0  0  0  0  0  1  0  0  0  0  0  0
  -25.4630  -36.3730   23.9530 C   0  0  0  0  0  3  0  0  0  0  0  0
  -27.6330  -37.2800   24.6590 C   0  0  0  0  0  1  0  0  0  0  0  0
  -26.4820  -37.4300   23.7730 N   0  0  0  0  0  0  0  0  0  0  0  0
  -26.0780  -38.3490   23.9290 H   0  0  0  0  0  0  0  0  0  0  0  0
  -26.4220  -31.7510   25.2000 C   0  0  1  0  0  0  0  0  0  0  0  0
  -25.3160  -31.5200   26.2560 C   0  0  0  0  0  1  0  0  0  0  0  0
  -26.9970  -30.3680   24.8140 C   0  0  0  0  0  1  0  0  0  0  0  0
  -27.5730  -32.5330   25.8750 C   0  0  0  0  0  1  0  0  0  0  0  0
  1  3  1  0
  2  4  1  0
  2  1  2  0
  3  5  2  0
  3 12  1  0
  4  8  2  0
  5  7  1  0
  6  4  1  0
  8  5  1  0
 10 11  1  0
 10 12  1  0
 11 21  1  0
 11  9  1  0
 12  9  1  0
 13 21  1  0
 14 19  1  0
 15 16  1  0
 15 14  1  0
 17 16  1  0
 17 26  1  0
 17 18  1  0
 19 13  1  0
 19 18  1  0
 20 13  2  0
 21 22  1  0
 23 24  2  0
 24 43  1  0
 25 24  1  0
 25 28  1  0
 26 27  1  0
 26 23  1  0
 27 25  2  0
 28 29  1  0
 29 30  2  0
 31 34  1  0
 31 30  1  0
 32 31  2  0
 33 32  1  0
 33 28  2  0
 34 35  1  0
 35 36  1  0
 36 37  2  0
 38 37  1  0
 38 42  1  0
 39 38  2  0
 40 35  2  0
 40 39  1  0
 41 40  1  0
 43 44  1  0
 44 47  1  0
 44 46  1  0
 45 43  2  0
 48 23  1  0
 48 49  1  0
 50 48  1  0
 51  2  1  0
 51 52  1  0
 53 64  2  0
 54 52  1  0
 54 59  1  0
 55 63  1  0
 55 65  1  0
 56 62  1  0
 56 58  1  0
 57 63  1  0
 58 57  1  0
 59 58  2  0
 60 54  2  0
 61 60  1  0
 61 56  2  0
 62 55  1  0
 63 53  1  0
 65 67  2  0
 66 65  1  0
 68 66  1  0
 69 78  2  0
 69 74  1  0
 70 66  1  0
 70 74  1  0
 71 70  1  0
 72 73  1  0
 72 71  1  0
 73 69  1  0
 74 75  2  0
 75 76  1  0
 77 76  2  0
 78 77  1  0
 79 53  1  0
 79 80  1  0
 79 89  1  0
 80 83  1  0
 81 85  1  0
 81 80  1  0
 82 81  2  0
 85 84  1  0
 87 88  1  0
 87 85  1  0
 87 86  1  0
 89 92  1  1
 89 90  1  0
 91 89  1  0
M  ISO  4  13 100  21 100  51 101  52 101
M  END
>  <TORSDO>  (20) 
F 18

>  <SCORE>  (20) 
-14.429

>  <name>  (20) 
19

>  <ligand_id>  (20) 
19

>  <original_smiles>  (20) 
[H]c1c([H])c([H])c2c(c1[H])C([H])([H])C([H])([H])C([H])([H])C2([H])N([H])C(=O)C1([H])N(C(=O)C([H])(N([H])C(=O)C([H])(N([H])C([H])([H])[H])C([H])([H])[H])C(C([H])([H])[H])(C([H])([H])[H])C([H])([H])[H])C([H])([H])c2c([H])c(OC([H])([H])c3c(C([H])([H])[H])nc(C([H])([H])[H])c(N4C([H])([H])C([H])(N([H])C(=O)N5C([H])([H])C([H])([H])C([H])([H])C([H])(n6nc(-c7c([H])c([H])c(Oc8c([H])c([H])c(F)c([H])c8F)c([H])c7[H])c(C(=O)N([H])[H])c6N([H])[H])C5([H])[H])C4([H])[H])c3[H])c([H])c([H])c2C1([H])[H]

>  <smiles>  (20) 
[H]c1c([H])c([H])c2c(c1[H])C([H])([H])C([H])([H])C([H])([H])C2([H])N([H])C(=O)C1([H])N(C(=O)C([H])(N([H])C(=O)C([H])(N([H])C([H])([H])[H])C([H])([H])[H])C(C([H])([H])[H])(C([H])([H])[H])C([H])([H])[H])C([H])([H])c2c([H])c(OC([H])([H])c3c(C([H])([H])[H])nc(C([H])([H])[H])c(N4C([H])([H])C([H])(N([H])C(=O)N5C([H])([H])C([H])([H])C([H])([H])C([H])(n6nc(-c7c([H])c([H])c(Oc8c([H])c([H])c(F)c([H])c8F)c([H])c7[H])c(C(=O)N([H])[H])c6N([H])[H])C5([H])[H])C4([H])[H])c3[H])c([H])c([H])c2C1([H])[H]

$$$$
20:0:0
     RDKit          3D

 92101  0  0  1  0  0  0  0  0999 V2000
  -30.8010  -22.2430   20.3290 C   0  0  0  0  0  3  0  0  0  0  0  0
  -28.1420  -22.5960   20.6630 C   0  0  0  0  0  3  0  0  0  0  0  0
  -30.3000  -23.5790   20.4100 C   0  0  0  0  0  0  0  0  0  0  0  0
  -28.9140  -23.7950   20.6080 C   0  0  0  0  0  0  0  0  0  0  0  0
  -29.9590  -21.1010   20.4580 C   0  0  0  0  0  0  0  0  0  0  0  0
  -31.2620  -24.7480   20.3330 C   0  0  0  0  0  1  0  0  0  0  0  0
  -31.8130  -19.7180   21.1980 C   0  0  0  0  0  1  0  0  0  0  0  0
  -28.6280  -21.3130   20.5860 N   0  0  0  0  0  0  0  0  0  0  0  0
  -30.5090  -19.7610   20.5300 N   0  0  0  0  0  0  0  0  0  0  0  0
  -30.8620  -14.7370   20.0110 C   0  0  0  0  0  0  0  0  0  0  0  0
  -30.5260  -12.5330   18.8910 C   0  0  0  0  0  2  0  0  0  0  0  0
  -29.5030  -12.6790   17.7430 C   0  0  0  0  0  2  0  0  0  0  0  0
  -28.0660  -12.4930   18.2700 C   0  0  0  0  0  2  0  0  0  0  0  0
  -27.7940  -13.3080   19.5620 C   0  0  0  0  0  3  0  0  0  0  0  0
  -28.9340  -13.1390   20.5880 C   0  0  0  0  0  2  0  0  0  0  0  0
  -30.1790  -13.5410   19.9220 N   0  0  0  0  0  0  0  0  0  0  0  0
  -31.9990  -14.8100   19.5340 O   0  0  0  0  0  0  0  0  0  0  0  0
  -29.3850  -17.7610   21.6890 C   0  0  0  0  0  2  0  0  0  0  0  0
  -29.3060  -16.2370   21.4010 C   0  0  0  0  0  2  0  0  0  0  0  0
  -30.5910  -17.2600   19.6960 C   0  0  0  0  0  2  0  0  0  0  0  0
  -29.7890  -18.4440   20.3750 C   0  0  0  0  0  3  0  0  0  0  0  0
  -30.1790  -15.9270   20.2580 N   0  0  0  0  0  0  0  0  0  0  0  0
  -25.4620  -13.8580   20.4800 C   0  0  0  0  0  0  0  0  0  0  0  0
  -24.4290  -13.0650   20.8970 C   0  0  0  0  0  0  0  0  0  0  0  0
  -24.8900  -11.7180   20.7750 C   0  0  0  0  0  0  0  0  0  0  0  0
  -26.4880  -12.9940   20.1340 N   0  0  0  0  0  0  0  0  0  0  0  0
  -26.1550  -11.6990   20.3710 N   0  0  0  0  0  0  0  0  0  0  0  0
  -24.1810  -10.4470   20.9630 C   0  0  0  0  0  0  0  0  0  0  0  0
  -24.6090   -9.4950   21.9160 C   0  0  0  0  0  3  0  0  0  0  0  0
  -23.8970   -8.2880   22.0930 C   0  0  0  0  0  3  0  0  0  0  0  0
  -22.7440   -8.0240   21.3170 C   0  0  0  0  0  0  0  0  0  0  0  0
  -22.3350   -8.9630   20.3540 C   0  0  0  0  0  3  0  0  0  0  0  0
  -23.0470  -10.1610   20.1760 C   0  0  0  0  0  3  0  0  0  0  0  0
  -22.0060   -6.8690   21.4030 O   0  0  0  0  0  0  0  0  0  0  0  0
  -21.8370   -6.2080   22.5930 C   0  0  0  0  0  0  0  0  0  0  0  0
  -21.2290   -6.8240   23.7080 C   0  0  0  0  0  3  0  0  0  0  0  0
  -21.0140   -6.0870   24.8900 C   0  0  0  0  0  3  0  0  0  0  0  0
  -21.3960   -4.7330   24.9550 C   0  0  0  0  0  0  0  0  0  0  0  0
  -21.9970   -4.1170   23.8440 C   0  0  0  0  0  3  0  0  0  0  0  0
  -22.2140   -4.8510   22.6660 C   0  0  0  0  0  0  0  0  0  0  0  0
  -22.7740   -4.2460   21.5910 F   0  0  0  0  0  0  0  0  0  0  0  0
  -21.1820   -4.0230   26.0880 F   0  0  0  0  0  0  0  0  0  0  0  0
  -23.0550  -13.5250   21.2910 C   0  0  0  0  0  0  0  0  0  0  0  0
  -22.3990  -12.7950   22.1880 N   0  0  0  0  0  0  0  0  0  0  0  0
  -22.5750  -14.5640   20.8410 O   0  0  0  0  0  0  0  0  0  0  0  0
  -22.8030  -11.9540   22.5720 H   0  0  0  0  0  0  0  0  0  0  0  0
  -21.4810  -13.0830   22.4940 H   0  0  0  0  0  0  0  0  0  0  0  0
  -25.6060  -15.2360   20.3420 N   0  0  0  0  0  0  0  0  0  0  0  0
  -24.8390  -15.8750   20.5180 H   0  0  0  0  0  0  0  0  0  0  0  0
  -26.4150  -15.6890   19.9400 H   0  0  0  0  0  0  0  0  0  0  0  0
  -28.2500  -25.1830   20.9890 C   0  0  0  0  0  2  0  0  0  0  0  0
  -28.5360  -26.4670   20.2980 O   0  0  0  0  0  0  0  0  0  0  0  0
  -24.5570  -31.7890   23.1620 C   0  0  0  0  0  0  0  0  0  0  0  0
  -27.4270  -27.3250   20.2100 C   0  0  0  0  0  0  0  0  0  0  0  0
  -23.4570  -30.3420   21.4900 C   0  0  0  0  0  3  0  0  0  0  0  0
  -25.0080  -28.8460   20.1110 C   0  0  0  0  0  0  0  0  0  0  0  0
  -25.9860  -30.7580   21.3820 C   0  0  0  0  0  2  0  0  0  0  0  0
  -26.1400  -29.3810   20.7440 C   0  0  0  0  0  0  0  0  0  0  0  0
  -27.3550  -28.6310   20.7860 C   0  0  0  0  0  3  0  0  0  0  0  0
  -26.2810  -26.8510   19.5370 C   0  0  0  0  0  3  0  0  0  0  0  0
  -25.0820  -27.5870   19.4960 C   0  0  0  0  0  3  0  0  0  0  0  0
  -23.7370  -29.6720   20.1200 C   0  0  0  0  0  2  0  0  0  0  0  0
  -24.6830  -30.9800   22.0680 N   0  0  0  0  0  0  0  0  0  0  0  0
  -23.4480  -32.0270   23.6630 O   0  0  0  0  0  0  0  0  0  0  0  0
  -22.8010  -29.3050   22.4330 C   0  0  0  0  0  0  0  0  0  0  0  0
  -21.4830  -29.0950   22.2800 N   0  0  0  0  0  0  0  0  0  0  0  0
  -23.4790  -28.6930   23.2630 O   0  0  0  0  0  0  0  0  0  0  0  0
  -20.9940  -29.6420   21.5850 H   0  0  0  0  0  0  0  0  0  0  0  0
  -18.1220  -27.8330   22.7320 C   0  0  0  0  0  0  0  0  0  0  0  0
  -20.6730  -28.1340   23.0310 C   0  0  0  0  0  3  0  0  0  0  0  0
  -20.8040  -26.7110   22.4400 C   0  0  0  0  0  2  0  0  0  0  0  0
  -19.7180  -26.3820   21.4100 C   0  0  0  0  0  2  0  0  0  0  0  0
  -18.3280  -26.4960   22.0410 C   0  0  0  0  0  2  0  0  0  0  0  0
  -19.2230  -28.6100   23.1820 C   0  0  0  0  0  0  0  0  0  0  0  0
  -18.9760  -29.8600   23.7880 C   0  0  0  0  0  3  0  0  0  0  0  0
  -17.6610  -30.3360   23.9480 C   0  0  0  0  0  3  0  0  0  0  0  0
  -16.5740  -29.5580   23.5130 C   0  0  0  0  0  3  0  0  0  0  0  0
  -16.8060  -28.3080   22.9120 C   0  0  0  0  0  3  0  0  0  0  0  0
  -25.7960  -32.4690   23.8210 C   0  0  0  0  0  3  0  0  0  0  0  0
  -25.4210  -33.8510   24.1540 N   0  0  0  0  0  0  0  0  0  0  0  0
  -25.7340  -34.9230   23.4140 C   0  0  0  0  0  0  0  0  0  0  0  0
  -26.4380  -34.8560   22.4020 O   0  0  0  0  0  0  0  0  0  0  0  0
  -24.7980  -33.9730   24.9380 H   0  0  0  0  0  0  0  0  0  0  0  0
  -23.9600  -36.6600   23.0070 C   0  0  0  0  0  1  0  0  0  0  0  0
  -25.1770  -36.2870   23.8680 C   0  0  0  0  0  3  0  0  0  0  0  0
  -27.2380  -37.2330   24.8100 C   0  0  0  0  0  1  0  0  0  0  0  0
  -26.1720  -37.3790   23.8210 N   0  0  0  0  0  0  0  0  0  0  0  0
  -25.7250  -38.2790   23.9710 H   0  0  0  0  0  0  0  0  0  0  0  0
  -26.3110  -31.7100   25.1060 C   0  0  1  0  0  0  0  0  0  0  0  0
  -25.2000  -31.4100   26.1400 C   0  0  0  0  0  1  0  0  0  0  0  0
  -26.9680  -30.3640   24.7190 C   0  0  0  0  0  1  0  0  0  0  0  0
  -27.4040  -32.5500   25.8070 C   0  0  0  0  0  1  0  0  0  0  0  0
  1  3  2  0
  1  5  1  0
  3  4  1  0
  4  2  2  0
  4 51  1  0
  5  9  1  0
  5  8  2  0
  6  3  1  0
  8  2  1  0
  9  7  1  0
 10 22  1  0
 11 16  1  0
 12 13  1  0
 12 11  1  0
 14 13  1  0
 14 26  1  0
 14 15  1  0
 16 10  1  0
 16 15  1  0
 17 10  2  0
 19 18  1  0
 20 22  1  0
 20 21  1  0
 21  9  1  0
 21 18  1  0
 22 19  1  0
 23 24  2  0
 24 43  1  0
 25 24  1  0
 25 28  1  0
 26 27  1  0
 26 23  1  0
 27 25  2  0
 28 29  1  0
 29 30  2  0
 31 34  1  0
 31 30  1  0
 32 31  2  0
 33 32  1  0
 33 28  2  0
 34 35  1  0
 35 40  2  0
 35 36  1  0
 36 37  2  0
 37 38  1  0
 38 42  1  0
 39 38  2  0
 40 39  1  0
 41 40  1  0
 43 44  1  0
 44 47  1  0
 44 46  1  0
 45 43  2  0
 48 23  1  0
 48 49  1  0
 50 48  1  0
 52 51  1  0
 53 64  2  0
 54 52  1  0
 54 59  1  0
 55 63  1  0
 55 65  1  0
 56 62  1  0
 56 58  1  0
 57 63  1  0
 58 59  2  0
 58 57  1  0
 60 54  2  0
 61 60  1  0
 61 56  2  0
 62 55  1  0
 63 53  1  0
 65 67  2  0
 66 65  1  0
 68 66  1  0
 69 78  2  0
 69 74  1  0
 70 66  1  0
 70 74  1  0
 71 70  1  0
 72 73  1  0
 72 71  1  0
 73 69  1  0
 74 75  2  0
 75 76  1  0
 77 76  2  0
 78 77  1  0
 79 53  1  0
 79 80  1  0
 79 89  1  0
 80 83  1  0
 81 85  1  0
 81 80  1  0
 82 81  2  0
 85 84  1  0
 87 85  1  0
 87 88  1  0
 87 86  1  0
 89 92  1  1
 89 90  1  0
 91 89  1  0
M  ISO  4  10 100  22 100  51 101  52 101
M  END
>  <TORSDO>  (21) 
F 17

>  <SCORE>  (21) 
-14.214

>  <name>  (21) 
20

>  <ligand_id>  (21) 
20

>  <original_smiles>  (21) 
[H]c1nc(N(C([H])([H])[H])C2([H])C([H])([H])N(C(=O)N3C([H])([H])C([H])([H])C([H])([H])C([H])(n4nc(-c5c([H])c([H])c(Oc6c([H])c([H])c(F)c([H])c6F)c([H])c5[H])c(C(=O)N([H])[H])c4N([H])[H])C3([H])[H])C([H])([H])C2([H])[H])c([H])c(C([H])([H])[H])c1C([H])([H])Oc1c([H])c([H])c2c(c1[H])C([H])([H])N(C(=O)C([H])(N([H])C(=O)C([H])(N([H])C([H])([H])[H])C([H])([H])[H])C(C([H])([H])[H])(C([H])([H])[H])C([H])([H])[H])C([H])(C(=O)N([H])C1([H])c3c([H])c([H])c([H])c([H])c3C([H])([H])C([H])([H])C1([H])[H])C2([H])[H]

>  <smiles>  (21) 
[H]c1nc(N(C([H])([H])[H])C2([H])C([H])([H])N(C(=O)N3C([H])([H])C([H])([H])C([H])([H])C([H])(n4nc(-c5c([H])c([H])c(Oc6c([H])c([H])c(F)c([H])c6F)c([H])c5[H])c(C(=O)N([H])[H])c4N([H])[H])C3([H])[H])C([H])([H])C2([H])[H])c([H])c(C([H])([H])[H])c1C([H])([H])Oc1c([H])c([H])c2c(c1[H])C([H])([H])N(C(=O)C([H])(N([H])C(=O)C([H])(N([H])C([H])([H])[H])C([H])([H])[H])C(C([H])([H])[H])(C([H])([H])[H])C([H])([H])[H])C([H])(C(=O)N([H])C1([H])c3c([H])c([H])c([H])c([H])c3C([H])([H])C([H])([H])C1([H])[H])C2([H])[H]

$$$$
21:0:0
     RDKit          3D

 91101  0  0  1  0  0  0  0  0999 V2000
  -28.8770  -23.6030   18.9710 C   0  0  0  0  0  3  0  0  0  0  0  0
  -28.3600  -22.0740   21.0980 C   0  0  0  0  0  3  0  0  0  0  0  0
  -29.1330  -22.1360   18.9440 C   0  0  0  0  0  0  0  0  0  0  0  0
  -28.9000  -21.2010   20.0450 C   0  0  0  0  0  0  0  0  0  0  0  0
  -28.3160  -24.3830   20.0570 C   0  0  0  0  0  0  0  0  0  0  0  0
  -28.1210  -23.4910   21.1190 N   0  0  0  0  0  0  0  0  0  0  0  0
  -30.5440  -15.3690   20.0010 C   0  0  0  0  0  0  0  0  0  0  0  0
  -30.4900  -12.9290   19.0960 C   0  0  0  0  0  2  0  0  0  0  0  0
  -29.5200  -12.7070   17.9090 C   0  0  0  0  0  2  0  0  0  0  0  0
  -28.1000  -12.4050   18.4140 C   0  0  0  0  0  2  0  0  0  0  0  0
  -27.6870  -13.3490   19.5720 C   0  0  0  0  0  3  0  0  0  0  0  0
  -28.7870  -13.5080   20.6440 C   0  0  0  0  0  2  0  0  0  0  0  0
  -29.9640  -14.0620   19.9530 N   0  0  0  0  0  0  0  0  0  0  0  0
  -31.7470  -15.3410   19.6960 O   0  0  0  0  0  0  0  0  0  0  0  0
  -28.2780  -18.5510   21.0300 C   0  0  0  0  0  2  0  0  0  0  0  0
  -28.5210  -16.9890   20.7340 C   0  0  0  0  0  2  0  0  0  0  0  0
  -30.2230  -18.2370   19.8170 C   0  0  0  0  0  2  0  0  0  0  0  0
  -29.0020  -19.4330   19.9840 C   0  0  0  0  0  3  0  0  0  0  0  0
  -29.8400  -16.6920   20.1120 N   0  0  0  0  0  0  0  0  0  0  0  0
  -25.3530  -13.8540   20.4660 C   0  0  0  0  0  0  0  0  0  0  0  0
  -24.3210  -13.0550   20.8640 C   0  0  0  0  0  0  0  0  0  0  0  0
  -24.7980  -11.7120   20.7650 C   0  0  0  0  0  0  0  0  0  0  0  0
  -26.3920  -13.0000   20.1410 N   0  0  0  0  0  0  0  0  0  0  0  0
  -26.0730  -11.7020   20.3890 N   0  0  0  0  0  0  0  0  0  0  0  0
  -24.0920  -10.4380   20.9490 C   0  0  0  0  0  0  0  0  0  0  0  0
  -24.5170   -9.4860   21.9020 C   0  0  0  0  0  3  0  0  0  0  0  0
  -23.8060   -8.2790   22.0760 C   0  0  0  0  0  3  0  0  0  0  0  0
  -22.6550   -8.0160   21.2960 C   0  0  0  0  0  0  0  0  0  0  0  0
  -22.2490   -8.9560   20.3330 C   0  0  0  0  0  3  0  0  0  0  0  0
  -22.9620  -10.1530   20.1570 C   0  0  0  0  0  3  0  0  0  0  0  0
  -21.9170   -6.8590   21.3770 O   0  0  0  0  0  0  0  0  0  0  0  0
  -21.7650   -6.1840   22.5620 C   0  0  0  0  0  0  0  0  0  0  0  0
  -21.1750   -6.7890   23.6930 C   0  0  0  0  0  3  0  0  0  0  0  0
  -20.9740   -6.0380   24.8680 C   0  0  0  0  0  3  0  0  0  0  0  0
  -21.3550   -4.6830   24.9130 C   0  0  0  0  0  0  0  0  0  0  0  0
  -21.9380   -4.0780   23.7850 C   0  0  0  0  0  3  0  0  0  0  0  0
  -22.1400   -4.8270   22.6130 C   0  0  0  0  0  0  0  0  0  0  0  0
  -22.6840   -4.2340   21.5230 F   0  0  0  0  0  0  0  0  0  0  0  0
  -21.1570   -3.9590   26.0390 F   0  0  0  0  0  0  0  0  0  0  0  0
  -22.9350  -13.5100   21.2150 C   0  0  0  0  0  0  0  0  0  0  0  0
  -22.2580  -12.7880   22.1000 N   0  0  0  0  0  0  0  0  0  0  0  0
  -22.4630  -14.5430   20.7410 O   0  0  0  0  0  0  0  0  0  0  0  0
  -22.6550  -11.9540   22.5050 H   0  0  0  0  0  0  0  0  0  0  0  0
  -21.3300  -13.0750   22.3780 H   0  0  0  0  0  0  0  0  0  0  0  0
  -25.4830  -15.2300   20.3220 N   0  0  0  0  0  0  0  0  0  0  0  0
  -24.7080  -15.8630   20.4960 H   0  0  0  0  0  0  0  0  0  0  0  0
  -26.2930  -15.6930   19.9330 H   0  0  0  0  0  0  0  0  0  0  0  0
  -29.2690  -22.0960   16.3070 C   0  0  0  0  0  2  0  0  0  0  0  0
  -28.8190  -20.7270   16.7520 C   0  0  0  0  0  2  0  0  0  0  0  0
  -29.6810  -21.5680   17.6660 C   0  0  0  0  0  3  0  0  0  0  0  0
  -28.2800  -25.9230   20.1860 O   0  0  0  0  0  0  0  0  0  0  0  0
  -24.6320  -31.8390   23.1670 C   0  0  0  0  0  0  0  0  0  0  0  0
  -27.2220  -26.9760   20.1460 C   0  0  0  0  0  0  0  0  0  0  0  0
  -23.4530  -30.4490   21.5100 C   0  0  0  0  0  3  0  0  0  0  0  0
  -24.9140  -28.8490   20.0910 C   0  0  0  0  0  0  0  0  0  0  0  0
  -26.0180  -30.6640   21.3850 C   0  0  0  0  0  2  0  0  0  0  0  0
  -26.0930  -29.2560   20.7260 C   0  0  0  0  0  0  0  0  0  0  0  0
  -27.2380  -28.3380   20.7300 C   0  0  0  0  0  3  0  0  0  0  0  0
  -26.0140  -26.7200   19.4590 C   0  0  0  0  0  3  0  0  0  0  0  0
  -24.8990  -27.6020   19.4390 C   0  0  0  0  0  3  0  0  0  0  0  0
  -23.6940  -29.7690   20.1330 C   0  0  0  0  0  2  0  0  0  0  0  0
  -24.7220  -31.0120   22.0740 N   0  0  0  0  0  0  0  0  0  0  0  0
  -23.5380  -32.1240   23.6800 O   0  0  0  0  0  0  0  0  0  0  0  0
  -22.7530  -29.4490   22.4660 C   0  0  0  0  0  0  0  0  0  0  0  0
  -21.4220  -29.2940   22.3390 N   0  0  0  0  0  0  0  0  0  0  0  0
  -23.4140  -28.8120   23.2900 O   0  0  0  0  0  0  0  0  0  0  0  0
  -20.9410  -29.8590   21.6540 H   0  0  0  0  0  0  0  0  0  0  0  0
  -18.0240  -28.1380   22.8730 C   0  0  0  0  0  0  0  0  0  0  0  0
  -20.5930  -28.3520   23.1000 C   0  0  0  0  0  3  0  0  0  0  0  0
  -20.6590  -26.9340   22.4870 C   0  0  0  0  0  2  0  0  0  0  0  0
  -19.5340  -26.6570   21.4830 C   0  0  0  0  0  2  0  0  0  0  0  0
  -18.1670  -26.8060   22.1560 C   0  0  0  0  0  2  0  0  0  0  0  0
  -19.1630  -28.8710   23.3030 C   0  0  0  0  0  0  0  0  0  0  0  0
  -18.9740  -30.1160   23.9400 C   0  0  0  0  0  3  0  0  0  0  0  0
  -17.6800  -30.6300   24.1470 C   0  0  0  0  0  3  0  0  0  0  0  0
  -16.5570  -29.8950   23.7320 C   0  0  0  0  0  3  0  0  0  0  0  0
  -16.7300  -28.6500   23.1020 C   0  0  0  0  0  3  0  0  0  0  0  0
  -25.8970  -32.4790   23.8140 C   0  0  0  0  0  3  0  0  0  0  0  0
  -25.5750  -33.8770   24.1540 N   0  0  0  0  0  0  0  0  0  0  0  0
  -25.8790  -34.9420   23.4000 C   0  0  0  0  0  0  0  0  0  0  0  0
  -26.5240  -34.8520   22.3530 O   0  0  0  0  0  0  0  0  0  0  0  0
  -24.9960  -34.0180   24.9700 H   0  0  0  0  0  0  0  0  0  0  0  0
  -24.1150  -36.7190   23.1310 C   0  0  0  0  0  1  0  0  0  0  0  0
  -25.3950  -36.3260   23.8830 C   0  0  0  0  0  3  0  0  0  0  0  0
  -27.5470  -37.2490   24.6280 C   0  0  0  0  0  1  0  0  0  0  0  0
  -26.4080  -37.3930   23.7240 N   0  0  0  0  0  0  0  0  0  0  0  0
  -25.9940  -38.3080   23.8780 H   0  0  0  0  0  0  0  0  0  0  0  0
  -26.3900  -31.7090   25.1010 C   0  0  1  0  0  0  0  0  0  0  0  0
  -25.2780  -31.4670   26.1490 C   0  0  0  0  0  1  0  0  0  0  0  0
  -26.9860  -30.3340   24.7270 C   0  0  0  0  0  1  0  0  0  0  0  0
  -27.5260  -32.5070   25.7860 C   0  0  0  0  0  1  0  0  0  0  0  0
  1  5  1  0
  2  6  1  0
  3  1  2  0
  3  4  1  0
  4  2  2  0
  5 51  1  0
  5  6  2  0
  7 19  1  0
  8 13  1  0
  9 10  1  0
  9  8  1  0
 11 10  1  0
 11 23  1  0
 11 12  1  0
 13  7  1  0
 13 12  1  0
 14  7  2  0
 16 15  1  0
 17 18  1  0
 17 19  1  0
 18  4  1  0
 18 15  1  0
 19 16  1  0
 20 21  2  0
 21 40  1  0
 22 21  1  0
 22 25  1  0
 23 24  1  0
 23 20  1  0
 24 22  2  0
 25 26  1  0
 26 27  2  0
 28 31  1  0
 28 27  1  0
 29 28  2  0
 30 29  1  0
 30 25  2  0
 31 32  1  0
 32 37  2  0
 32 33  1  0
 33 34  2  0
 34 35  1  0
 35 39  1  0
 36 35  2  0
 37 36  1  0
 38 37  1  0
 40 41  1  0
 41 44  1  0
 41 43  1  0
 42 40  2  0
 45 20  1  0
 45 46  1  0
 47 45  1  0
 48 49  1  0
 48 50  1  0
 49 50  1  0
 50  3  1  0
 52 63  2  0
 53 51  1  0
 53 58  1  0
 54 62  1  0
 54 64  1  0
 55 61  1  0
 55 57  1  0
 56 62  1  0
 57 58  2  0
 57 56  1  0
 59 53  2  0
 60 59  1  0
 60 55  2  0
 61 54  1  0
 62 52  1  0
 64 66  2  0
 65 64  1  0
 67 65  1  0
 68 77  2  0
 68 73  1  0
 69 65  1  0
 69 73  1  0
 70 69  1  0
 71 72  1  0
 71 70  1  0
 72 68  1  0
 73 74  2  0
 74 75  1  0
 76 75  2  0
 77 76  1  0
 78 52  1  0
 78 79  1  0
 78 88  1  0
 79 82  1  0
 80 84  1  0
 80 79  1  0
 81 80  2  0
 84 83  1  0
 86 87  1  0
 86 84  1  0
 86 85  1  0
 88 91  1  1
 88 89  1  0
 90 88  1  0
M  ISO  4   5 101   7 100  19 100  51 101
M  END
>  <TORSDO>  (22) 
F 17

>  <SCORE>  (22) 
-14.607

>  <name>  (22) 
21

>  <ligand_id>  (22) 
21

>  <original_smiles>  (22) 
[H]c1nc(Oc2c([H])c([H])c3c(c2[H])C([H])([H])N(C(=O)C([H])(N([H])C(=O)C([H])(N([H])C([H])([H])[H])C([H])([H])[H])C(C([H])([H])[H])(C([H])([H])[H])C([H])([H])[H])C([H])(C(=O)N([H])C2([H])c4c([H])c([H])c([H])c([H])c4C([H])([H])C([H])([H])C2([H])[H])C3([H])[H])c([H])c(C2([H])C([H])([H])C2([H])[H])c1C1([H])C([H])([H])N(C(=O)N2C([H])([H])C([H])([H])C([H])([H])C([H])(n3nc(-c4c([H])c([H])c(Oc5c([H])c([H])c(F)c([H])c5F)c([H])c4[H])c(C(=O)N([H])[H])c3N([H])[H])C2([H])[H])C([H])([H])C1([H])[H]

>  <smiles>  (22) 
[H]c1nc(Oc2c([H])c([H])c3c(c2[H])C([H])([H])N(C(=O)C([H])(N([H])C(=O)C([H])(N([H])C([H])([H])[H])C([H])([H])[H])C(C([H])([H])[H])(C([H])([H])[H])C([H])([H])[H])C([H])(C(=O)N([H])C2([H])c4c([H])c([H])c([H])c([H])c4C([H])([H])C([H])([H])C2([H])[H])C3([H])[H])c([H])c(C2([H])C([H])([H])C2([H])[H])c1C1([H])C([H])([H])N(C(=O)N2C([H])([H])C([H])([H])C([H])([H])C([H])(n3nc(-c4c([H])c([H])c(Oc5c([H])c([H])c(F)c([H])c5F)c([H])c4[H])c(C(=O)N([H])[H])c3N([H])[H])C2([H])[H])C([H])([H])C1([H])[H]

$$$$
22:0:0
     RDKit          3D

 99109  0  0  1  0  0  0  0  0999 V2000
  -29.3690  -23.5400   20.9440 C   0  0  0  0  0  0  0  0  0  0  0  0
  -29.8790  -22.2010   21.1430 C   0  0  0  0  0  0  0  0  0  0  0  0
  -28.7630  -23.8890   19.6990 C   0  0  0  0  0  0  0  0  0  0  0  0
  -29.7040  -21.1940   20.1470 C   0  0  0  0  0  0  0  0  0  0  0  0
  -28.7060  -22.8220   18.7490 C   0  0  0  0  0  0  0  0  0  0  0  0
  -30.6490  -21.8380   22.4080 C   0  0  0  0  0  1  0  0  0  0  0  0
  -28.0730  -22.9990   17.3790 C   0  0  0  0  0  1  0  0  0  0  0  0
  -29.1590  -21.5520   18.9640 N   0  0  0  0  0  0  0  0  0  0  0  0
  -30.1860  -18.6210   21.3140 C   0  0  0  0  0  2  0  0  0  0  0  0
  -30.2970  -19.7230   20.1950 C   0  0  0  0  0  3  0  0  0  0  0  0
  -30.6080  -17.5480   20.2510 C   0  0  0  0  0  3  0  0  0  0  0  0
  -29.8410  -18.5190   19.2910 C   0  0  0  0  0  3  0  0  0  0  0  0
  -30.8200  -14.9800   20.1550 C   0  0  0  0  0  0  0  0  0  0  0  0
  -30.5560  -12.7200   19.1520 C   0  0  0  0  0  2  0  0  0  0  0  0
  -29.5980  -12.8070   17.9460 C   0  0  0  0  0  2  0  0  0  0  0  0
  -28.1390  -12.6400   18.4070 C   0  0  0  0  0  2  0  0  0  0  0  0
  -27.7900  -13.5340   19.6280 C   0  0  0  0  0  3  0  0  0  0  0  0
  -28.8710  -13.4530   20.7290 C   0  0  0  0  0  2  0  0  0  0  0  0
  -30.1610  -13.7770   20.1080 N   0  0  0  0  0  0  0  0  0  0  0  0
  -31.9890  -15.0670   19.7700 O   0  0  0  0  0  0  0  0  0  0  0  0
  -30.1010  -16.1270   20.4130 N   0  0  0  0  0  0  0  0  0  0  0  0
  -29.1360  -15.9990   20.6770 H   0  0  0  0  0  0  0  0  0  0  0  0
  -25.4180  -14.1190   20.4160 C   0  0  0  0  0  0  0  0  0  0  0  0
  -24.3610  -13.3400   20.8020 C   0  0  0  0  0  0  0  0  0  0  0  0
  -24.8230  -11.9900   20.7450 C   0  0  0  0  0  0  0  0  0  0  0  0
  -26.4570  -13.2420   20.1460 N   0  0  0  0  0  0  0  0  0  0  0  0
  -26.1060  -11.9550   20.4060 N   0  0  0  0  0  0  0  0  0  0  0  0
  -24.1010  -10.7250   20.9370 C   0  0  0  0  0  0  0  0  0  0  0  0
  -24.5110   -9.7780   21.9020 C   0  0  0  0  0  3  0  0  0  0  0  0
  -23.7890   -8.5790   22.0810 C   0  0  0  0  0  3  0  0  0  0  0  0
  -22.6420   -8.3170   21.2950 C   0  0  0  0  0  0  0  0  0  0  0  0
  -22.2500   -9.2520   20.3200 C   0  0  0  0  0  3  0  0  0  0  0  0
  -22.9740  -10.4430   20.1400 C   0  0  0  0  0  3  0  0  0  0  0  0
  -21.8930   -7.1690   21.3820 O   0  0  0  0  0  0  0  0  0  0  0  0
  -21.7720   -6.4760   22.5600 C   0  0  0  0  0  0  0  0  0  0  0  0
  -21.1650   -7.0450   23.7000 C   0  0  0  0  0  3  0  0  0  0  0  0
  -20.9990   -6.2740   24.8680 C   0  0  0  0  0  3  0  0  0  0  0  0
  -21.4290   -4.9330   24.8950 C   0  0  0  0  0  0  0  0  0  0  0  0
  -22.0300   -4.3630   23.7580 C   0  0  0  0  0  3  0  0  0  0  0  0
  -22.1970   -5.1320   22.5930 C   0  0  0  0  0  0  0  0  0  0  0  0
  -22.7570   -4.5720   21.4940 F   0  0  0  0  0  0  0  0  0  0  0  0
  -21.2630   -4.1900   26.0140 F   0  0  0  0  0  0  0  0  0  0  0  0
  -22.9700  -13.8150   21.1110 C   0  0  0  0  0  0  0  0  0  0  0  0
  -22.2670  -13.1160   21.9950 N   0  0  0  0  0  0  0  0  0  0  0  0
  -22.5170  -14.8400   20.6020 O   0  0  0  0  0  0  0  0  0  0  0  0
  -22.6450  -12.2860   22.4250 H   0  0  0  0  0  0  0  0  0  0  0  0
  -21.3350  -13.4150   22.2440 H   0  0  0  0  0  0  0  0  0  0  0  0
  -25.5770  -15.4920   20.2490 N   0  0  0  0  0  0  0  0  0  0  0  0
  -24.8100  -16.1420   20.3800 H   0  0  0  0  0  0  0  0  0  0  0  0
  -26.4110  -15.9340   19.8820 H   0  0  0  0  0  0  0  0  0  0  0  0
  -30.3660  -18.5910   17.9130 N   0  0  0  0  0  4  0  0  0  0  0  0
  -31.3680  -18.6510   17.8930 H   0  0  0  0  0  0  0  0  0  0  0  0
  -29.9970  -19.4050   17.4520 H   0  0  0  0  0  0  0  0  0  0  0  0
  -30.0890  -17.7840   17.3840 H   0  0  0  0  0  0  0  0  0  0  0  0
  -29.0660  -24.3210   23.4630 C   0  0  0  0  0  2  0  0  0  0  0  0
  -28.2420  -25.2560   22.6230 C   0  0  0  0  0  2  0  0  0  0  0  0
  -29.4680  -24.5910   22.0260 C   0  0  0  0  0  3  0  0  0  0  0  0
  -27.9220  -25.2150   19.4460 C   0  0  0  0  0  2  0  0  0  0  0  0
  -28.2530  -26.6090   19.8780 O   0  0  0  0  0  0  0  0  0  0  0  0
  -24.5970  -31.9070   23.2550 C   0  0  0  0  0  0  0  0  0  0  0  0
  -27.1670  -27.5250   19.8740 C   0  0  0  0  0  0  0  0  0  0  0  0
  -23.3710  -30.5900   21.5710 C   0  0  0  0  0  3  0  0  0  0  0  0
  -24.8020  -29.1550   20.0190 C   0  0  0  0  0  0  0  0  0  0  0  0
  -25.9090  -30.9330   21.3550 C   0  0  0  0  0  2  0  0  0  0  0  0
  -25.9850  -29.5940   20.6260 C   0  0  0  0  0  0  0  0  0  0  0  0
  -27.1690  -28.7890   20.5560 C   0  0  0  0  0  3  0  0  0  0  0  0
  -25.9570  -27.1840   19.2140 C   0  0  0  0  0  3  0  0  0  0  0  0
  -24.7930  -27.9570   19.3050 C   0  0  0  0  0  3  0  0  0  0  0  0
  -23.5600  -30.0110   20.1480 C   0  0  0  0  0  2  0  0  0  0  0  0
  -24.6460  -31.1580   22.1170 N   0  0  0  0  0  0  0  0  0  0  0  0
  -23.5210  -32.1440   23.8250 O   0  0  0  0  0  0  0  0  0  0  0  0
  -22.7430  -29.5060   22.4810 C   0  0  0  0  0  0  0  0  0  0  0  0
  -21.4290  -29.2700   22.3220 N   0  0  0  0  0  0  0  0  0  0  0  0
  -23.4350  -28.8870   23.2920 O   0  0  0  0  0  0  0  0  0  0  0  0
  -20.9270  -29.8290   21.6450 H   0  0  0  0  0  0  0  0  0  0  0  0
  -18.1120  -27.8710   22.6890 C   0  0  0  0  0  0  0  0  0  0  0  0
  -20.6410  -28.2720   23.0470 C   0  0  0  0  0  3  0  0  0  0  0  0
  -20.8450  -26.8600   22.4500 C   0  0  0  0  0  2  0  0  0  0  0  0
  -19.7950  -26.4940   21.3950 C   0  0  0  0  0  2  0  0  0  0  0  0
  -18.3870  -26.5480   21.9960 C   0  0  0  0  0  2  0  0  0  0  0  0
  -19.1700  -28.6880   23.1680 C   0  0  0  0  0  0  0  0  0  0  0  0
  -18.8590  -29.9250   23.7750 C   0  0  0  0  0  3  0  0  0  0  0  0
  -17.5240  -30.3470   23.9070 C   0  0  0  0  0  3  0  0  0  0  0  0
  -16.4780  -29.5280   23.4440 C   0  0  0  0  0  3  0  0  0  0  0  0
  -16.7740  -28.2920   22.8410 C   0  0  0  0  0  3  0  0  0  0  0  0
  -25.8850  -32.5200   23.8830 C   0  0  0  0  0  3  0  0  0  0  0  0
  -26.3890  -31.7340   25.1550 C   0  0  1  0  0  0  0  0  0  0  0  0
  -25.2870  -31.4930   26.2130 C   0  0  0  0  0  1  0  0  0  0  0  0
  -26.9680  -30.3580   24.7540 C   0  0  0  0  0  1  0  0  0  0  0  0
  -27.5400  -32.5160   25.8300 C   0  0  0  0  0  1  0  0  0  0  0  0
  -25.5910  -33.9190   24.2210 N   0  0  0  0  0  0  0  0  0  0  0  0
  -25.8870  -34.9700   23.4450 C   0  0  0  0  0  0  0  0  0  0  0  0
  -26.5090  -34.8620   22.3840 O   0  0  0  0  0  0  0  0  0  0  0  0
  -25.0350  -34.0770   25.0500 H   0  0  0  0  0  0  0  0  0  0  0  0
  -24.1330  -36.7530   23.1800 C   0  0  0  0  0  1  0  0  0  0  0  0
  -25.4210  -36.3590   23.9200 C   0  0  0  0  0  3  0  0  0  0  0  0
  -27.5850  -37.2720   24.6370 C   0  0  0  0  0  1  0  0  0  0  0  0
  -26.4420  -37.4160   23.7400 N   0  0  0  0  0  0  0  0  0  0  0  0
  -26.0370  -38.3360   23.8880 H   0  0  0  0  0  0  0  0  0  0  0  0
  1  2  1  0
  1 57  1  0
  2  6  1  0
  3  1  2  0
  4  2  2  0
  5  8  2  0
  5  3  1  0
  7  5  1  0
  8  4  1  0
 10  4  1  0
 10  9  1  0
 11 21  1  0
 11  9  1  0
 12 51  1  0
 12 10  1  0
 12 11  1  0
 13 21  1  0
 14 19  1  0
 15 16  1  0
 15 14  1  0
 17 16  1  0
 17 26  1  0
 17 18  1  0
 19 13  1  0
 19 18  1  0
 20 13  2  0
 21 22  1  0
 23 24  2  0
 24 43  1  0
 25 24  1  0
 25 28  1  0
 26 27  1  0
 26 23  1  0
 27 25  2  0
 28 29  1  0
 29 30  2  0
 31 34  1  0
 31 30  1  0
 32 31  2  0
 33 32  1  0
 33 28  2  0
 34 35  1  0
 35 40  2  0
 35 36  1  0
 36 37  2  0
 37 38  1  0
 38 42  1  0
 39 38  2  0
 40 39  1  0
 41 40  1  0
 43 44  1  0
 44 47  1  0
 44 46  1  0
 45 43  2  0
 48 49  1  0
 48 23  1  0
 50 48  1  0
 52 51  1  0
 53 51  1  0
 54 51  1  0
 56 55  1  0
 57 56  1  0
 57 55  1  0
 58  3  1  0
 58 59  1  0
 60 71  2  0
 61 59  1  0
 61 66  1  0
 62 70  1  0
 62 72  1  0
 63 69  1  0
 63 65  1  0
 64 70  1  0
 65 64  1  0
 66 65  2  0
 67 68  1  0
 67 61  2  0
 68 63  2  0
 69 62  1  0
 70 60  1  0
 72 74  2  0
 73 72  1  0
 75 73  1  0
 76 85  2  0
 76 81  1  0
 77 73  1  0
 77 81  1  0
 78 77  1  0
 79 80  1  0
 79 78  1  0
 80 76  1  0
 81 82  2  0
 82 83  1  0
 84 83  2  0
 85 84  1  0
 86 60  1  0
 86 91  1  0
 86 87  1  0
 87 90  1  1
 87 88  1  0
 89 87  1  0
 91 94  1  0
 92 96  1  0
 92 91  1  0
 93 92  2  0
 96 95  1  0
 98 99  1  0
 98 96  1  0
 98 97  1  0
M  ISO  4  13 100  21 100  58 101  59 101
M  END
>  <TORSDO>  (23) 
F 20

>  <SCORE>  (23) 
-13.784

>  <name>  (23) 
22

>  <ligand_id>  (23) 
22

>  <original_smiles>  (23) 
[H]c1c([H])c([H])c2c(c1[H])C([H])([H])C([H])([H])C([H])([H])C2([H])N([H])C(=O)C1([H])N(C(=O)C([H])(N([H])C(=O)C([H])(N([H])C([H])([H])[H])C([H])([H])[H])C(C([H])([H])[H])(C([H])([H])[H])C([H])([H])[H])C([H])([H])c2c([H])c(OC([H])([H])c3c(C([H])([H])[H])nc(C4([H])C([H])([H])C([H])(N([H])C(=O)N5C([H])([H])C([H])([H])C([H])([H])C([H])(n6nc(-c7c([H])c([H])c(Oc8c([H])c([H])c(F)c([H])c8F)c([H])c7[H])c(C(=O)N([H])[H])c6N([H])[H])C5([H])[H])C4([H])[N+]([H])([H])[H])c(C([H])([H])[H])c3C3([H])C([H])([H])C3([H])[H])c([H])c([H])c2C1([H])[H]

>  <smiles>  (23) 
[H]c1c([H])c([H])c2c(c1[H])C([H])([H])C([H])([H])C([H])([H])C2([H])N([H])C(=O)C1([H])N(C(=O)C([H])(N([H])C(=O)C([H])(N([H])C([H])([H])[H])C([H])([H])[H])C(C([H])([H])[H])(C([H])([H])[H])C([H])([H])[H])C([H])([H])c2c([H])c(OC([H])([H])c3c(C([H])([H])[H])nc(C4([H])C([H])([H])C([H])(N([H])C(=O)N5C([H])([H])C([H])([H])C([H])([H])C([H])(n6nc(-c7c([H])c([H])c(Oc8c([H])c([H])c(F)c([H])c8F)c([H])c7[H])c(C(=O)N([H])[H])c6N([H])[H])C5([H])[H])C4([H])[N+]([H])([H])[H])c(C([H])([H])[H])c3C3([H])C([H])([H])C3([H])[H])c([H])c([H])c2C1([H])[H]

$$$$
23:0:0
     RDKit          3D

 94103  0  0  1  0  0  0  0  0999 V2000
  -28.8510  -22.0750   20.6610 C   0  0  0  0  0  2  0  0  0  0  0  0
  -27.1260  -23.1720   19.2890 C   0  0  0  0  0  2  0  0  0  0  0  0
  -28.9840  -20.7290   19.7230 C   0  0  0  0  0  3  0  0  0  0  0  0
  -27.8930  -20.8020   18.5700 C   0  0  0  0  0  3  0  0  0  0  0  0
  -28.4670  -23.5160   19.9560 C   0  0  2  0  0  0  0  0  0  0  0  0
  -28.4860  -20.3370   17.2130 C   0  0  0  0  0  1  0  0  0  0  0  0
  -29.5550  -23.8740   18.9240 C   0  0  0  0  0  1  0  0  0  0  0  0
  -25.8390  -21.8710   17.6900 C   0  0  0  0  0  1  0  0  0  0  0  0
  -27.1910  -22.0960   18.2670 N   0  0  1  0  0  4  0  0  0  0  0  0
  -27.7380  -22.4970   17.5210 H   0  0  0  0  0  0  0  0  0  0  0  0
  -30.6050  -14.9070   20.3370 C   0  0  0  0  0  0  0  0  0  0  0  0
  -30.3780  -12.6090   19.3220 C   0  0  0  0  0  2  0  0  0  0  0  0
  -29.4160  -12.6020   18.1140 C   0  0  0  0  0  2  0  0  0  0  0  0
  -27.9660  -12.3720   18.5810 C   0  0  0  0  0  2  0  0  0  0  0  0
  -27.5830  -13.2650   19.7880 C   0  0  0  0  0  3  0  0  0  0  0  0
  -28.6750  -13.3010   20.8820 C   0  0  0  0  0  2  0  0  0  0  0  0
  -29.9310  -13.6980   20.2330 N   0  0  0  0  0  0  0  0  0  0  0  0
  -31.8130  -14.9070   20.0760 O   0  0  0  0  0  0  0  0  0  0  0  0
  -30.5600  -17.2980   21.3840 C   0  0  0  0  0  2  0  0  0  0  0  0
  -28.7280  -16.6560   20.0060 C   0  0  0  0  0  2  0  0  0  0  0  0
  -30.3940  -18.8200   20.8470 C   0  0  0  0  0  2  0  0  0  0  0  0
  -28.7970  -18.1240   19.4210 C   0  0  0  0  0  2  0  0  0  0  0  0
  -29.9610  -16.1350   20.6310 N   0  0  0  0  0  0  0  0  0  0  0  0
  -29.0620  -19.2820   20.3370 N   0  0  0  0  0  0  0  0  0  0  0  0
  -25.2190  -13.8240   20.5870 C   0  0  0  0  0  0  0  0  0  0  0  0
  -24.1690  -13.0360   20.9610 C   0  0  0  0  0  0  0  0  0  0  0  0
  -24.6420  -11.6890   20.8960 C   0  0  0  0  0  0  0  0  0  0  0  0
  -26.2630  -12.9550   20.3140 N   0  0  0  0  0  0  0  0  0  0  0  0
  -25.9260  -11.6660   20.5640 N   0  0  0  0  0  0  0  0  0  0  0  0
  -23.9320  -10.4180   21.0760 C   0  0  0  0  0  0  0  0  0  0  0  0
  -24.3770   -9.4490   22.0010 C   0  0  0  0  0  3  0  0  0  0  0  0
  -23.6640   -8.2430   22.1680 C   0  0  0  0  0  3  0  0  0  0  0  0
  -22.4930   -7.9970   21.4120 C   0  0  0  0  0  0  0  0  0  0  0  0
  -22.0680   -8.9580   20.4770 C   0  0  0  0  0  3  0  0  0  0  0  0
  -22.7810  -10.1550   20.3070 C   0  0  0  0  0  3  0  0  0  0  0  0
  -21.7530   -6.8420   21.4900 O   0  0  0  0  0  0  0  0  0  0  0  0
  -21.7000   -6.0990   22.6420 C   0  0  0  0  0  0  0  0  0  0  0  0
  -21.2230   -6.6380   23.8550 C   0  0  0  0  0  3  0  0  0  0  0  0
  -21.1210   -5.8210   24.9990 C   0  0  0  0  0  3  0  0  0  0  0  0
  -21.4860   -4.4640   24.9280 C   0  0  0  0  0  0  0  0  0  0  0  0
  -21.9560   -3.9220   23.7190 C   0  0  0  0  0  3  0  0  0  0  0  0
  -22.0620   -4.7380   22.5790 C   0  0  0  0  0  0  0  0  0  0  0  0
  -22.4960   -4.2080   21.4100 F   0  0  0  0  0  0  0  0  0  0  0  0
  -21.3820   -3.6760   26.0230 F   0  0  0  0  0  0  0  0  0  0  0  0
  -22.7740  -13.4970   21.2660 C   0  0  0  0  0  0  0  0  0  0  0  0
  -22.0690  -12.7750   22.1290 N   0  0  0  0  0  0  0  0  0  0  0  0
  -22.3210  -14.5310   20.7760 O   0  0  0  0  0  0  0  0  0  0  0  0
  -22.4510  -11.9370   22.5420 H   0  0  0  0  0  0  0  0  0  0  0  0
  -21.1340  -13.0650   22.3810 H   0  0  0  0  0  0  0  0  0  0  0  0
  -25.3650  -15.1980   20.4230 N   0  0  0  0  0  0  0  0  0  0  0  0
  -24.5950  -15.8440   20.5450 H   0  0  0  0  0  0  0  0  0  0  0  0
  -26.2020  -15.6430   20.0750 H   0  0  0  0  0  0  0  0  0  0  0  0
  -28.2060  -24.9030   20.8360 C   0  0  0  0  0  2  0  0  0  0  0  0
  -28.3280  -26.3390   20.3180 O   0  0  0  0  0  0  0  0  0  0  0  0
  -24.6150  -31.9280   23.2620 C   0  0  0  0  0  0  0  0  0  0  0  0
  -27.2320  -27.2480   20.3110 C   0  0  0  0  0  0  0  0  0  0  0  0
  -23.4280  -30.5140   21.6240 C   0  0  0  0  0  3  0  0  0  0  0  0
  -24.8900  -28.9330   20.2350 C   0  0  0  0  0  0  0  0  0  0  0  0
  -25.9770  -30.8080   21.4660 C   0  0  0  0  0  2  0  0  0  0  0  0
  -26.0620  -29.4110   20.8340 C   0  0  0  0  0  0  0  0  0  0  0  0
  -27.2410  -28.5880   20.8450 C   0  0  0  0  0  3  0  0  0  0  0  0
  -26.0300  -26.8380   19.7010 C   0  0  0  0  0  3  0  0  0  0  0  0
  -24.8810  -27.6560   19.6540 C   0  0  0  0  0  3  0  0  0  0  0  0
  -23.6610  -29.8260   20.2530 C   0  0  0  0  0  2  0  0  0  0  0  0
  -24.6930  -31.1030   22.1730 N   0  0  0  0  0  0  0  0  0  0  0  0
  -23.5260  -32.2130   23.7810 O   0  0  0  0  0  0  0  0  0  0  0  0
  -22.7500  -29.5100   22.5880 C   0  0  0  0  0  0  0  0  0  0  0  0
  -21.4250  -29.3300   22.4470 N   0  0  0  0  0  0  0  0  0  0  0  0
  -23.4170  -28.8940   23.4240 O   0  0  0  0  0  0  0  0  0  0  0  0
  -20.9460  -29.8770   21.7450 H   0  0  0  0  0  0  0  0  0  0  0  0
  -18.0390  -28.1400   22.9340 C   0  0  0  0  0  0  0  0  0  0  0  0
  -20.5970  -28.4000   23.2200 C   0  0  0  0  0  3  0  0  0  0  0  0
  -20.7000  -26.9630   22.6560 C   0  0  0  0  0  2  0  0  0  0  0  0
  -19.6040  -26.6340   21.6380 C   0  0  0  0  0  2  0  0  0  0  0  0
  -18.2180  -26.7850   22.2710 C   0  0  0  0  0  2  0  0  0  0  0  0
  -19.1560  -28.9040   23.3670 C   0  0  0  0  0  0  0  0  0  0  0  0
  -18.9340  -30.1690   23.9500 C   0  0  0  0  0  3  0  0  0  0  0  0
  -17.6280  -30.6720   24.1050 C   0  0  0  0  0  3  0  0  0  0  0  0
  -16.5250  -29.9050   23.6910 C   0  0  0  0  0  3  0  0  0  0  0  0
  -16.7330  -28.6410   23.1100 C   0  0  0  0  0  3  0  0  0  0  0  0
  -25.8880  -32.5680   23.8940 C   0  0  0  0  0  3  0  0  0  0  0  0
  -25.5780  -33.9730   24.1930 N   0  0  0  0  0  0  0  0  0  0  0  0
  -25.9210  -35.0140   23.4210 C   0  0  0  0  0  0  0  0  0  0  0  0
  -26.5990  -34.8900   22.3990 O   0  0  0  0  0  0  0  0  0  0  0  0
  -24.9820  -34.1420   24.9920 H   0  0  0  0  0  0  0  0  0  0  0  0
  -24.2080  -36.8120   23.0140 C   0  0  0  0  0  1  0  0  0  0  0  0
  -25.4330  -36.4120   23.8520 C   0  0  0  0  0  3  0  0  0  0  0  0
  -27.5560  -37.3010   24.7090 C   0  0  0  0  0  1  0  0  0  0  0  0
  -26.4720  -37.4590   23.7430 N   0  0  0  0  0  0  0  0  0  0  0  0
  -26.0660  -38.3830   23.8690 H   0  0  0  0  0  0  0  0  0  0  0  0
  -26.3790  -31.8230   25.1950 C   0  0  1  0  0  0  0  0  0  0  0  0
  -25.2640  -31.6120   26.2460 C   0  0  0  0  0  1  0  0  0  0  0  0
  -26.9660  -30.4360   24.8460 C   0  0  0  0  0  1  0  0  0  0  0  0
  -27.5180  -32.6290   25.8630 C   0  0  0  0  0  1  0  0  0  0  0  0
  2  5  1  0
  3 24  1  0
  3  1  1  0
  4  6  1  0
  4  3  1  0
  5  7  1  6
  5  1  1  0
  5 53  1  0
  8  9  1  0
  9  4  1  0
  9  2  1  0
  9 10  1  6
 11 23  1  0
 12 17  1  0
 13 14  1  0
 13 12  1  0
 15 14  1  0
 15 28  1  0
 15 16  1  0
 17 11  1  0
 17 16  1  0
 18 11  2  0
 20 23  1  0
 21 19  1  0
 22 20  1  0
 23 19  1  0
 24 22  1  0
 24 21  1  0
 25 26  2  0
 26 45  1  0
 27 26  1  0
 27 30  1  0
 28 29  1  0
 28 25  1  0
 29 27  2  0
 30 31  1  0
 31 32  2  0
 33 36  1  0
 33 32  1  0
 34 33  2  0
 35 34  1  0
 35 30  2  0
 36 37  1  0
 37 38  1  0
 38 39  2  0
 40 39  1  0
 40 44  1  0
 41 40  2  0
 42 37  2  0
 42 41  1  0
 43 42  1  0
 45 46  1  0
 46 49  1  0
 46 48  1  0
 47 45  2  0
 50 51  1  0
 50 25  1  0
 52 50  1  0
 54 53  1  0
 55 66  2  0
 56 54  1  0
 56 61  1  0
 57 65  1  0
 57 67  1  0
 58 64  1  0
 58 60  1  0
 59 65  1  0
 60 61  2  0
 60 59  1  0
 62 56  2  0
 63 62  1  0
 63 58  2  0
 64 57  1  0
 65 55  1  0
 67 69  2  0
 68 67  1  0
 70 68  1  0
 71 80  2  0
 71 76  1  0
 72 68  1  0
 72 76  1  0
 73 72  1  0
 74 75  1  0
 74 73  1  0
 75 71  1  0
 76 77  2  0
 77 78  1  0
 79 78  2  0
 80 79  1  0
 81 55  1  0
 81 82  1  0
 81 91  1  0
 82 85  1  0
 83 87  1  0
 83 82  1  0
 84 83  2  0
 87 86  1  0
 89 87  1  0
 89 90  1  0
 89 88  1  0
 91 94  1  1
 91 92  1  0
 93 91  1  0
M  ISO  4  11 100  23 100  53 101  54 101
M  END
>  <TORSDO>  (24) 
F 17

>  <SCORE>  (24) 
-15.507

>  <name>  (24) 
23

>  <ligand_id>  (24) 
23

>  <original_smiles>  (24) 
[H]c1c([H])c([H])c2c(c1[H])C([H])([H])C([H])([H])C([H])([H])C2([H])N([H])C(=O)C1([H])N(C(=O)C([H])(N([H])C(=O)C([H])(N([H])C([H])([H])[H])C([H])([H])[H])C(C([H])([H])[H])(C([H])([H])[H])C([H])([H])[H])C([H])([H])c2c([H])c(OC([H])([H])C3(C([H])([H])[H])C([H])([H])C([H])(N4C([H])([H])C([H])([H])N(C(=O)N5C([H])([H])C([H])([H])C([H])([H])C([H])(n6nc(-c7c([H])c([H])c(Oc8c([H])c([H])c(F)c([H])c8F)c([H])c7[H])c(C(=O)N([H])[H])c6N([H])[H])C5([H])[H])C([H])([H])C4([H])[H])C([H])(C([H])([H])[H])[N+]([H])(C([H])([H])[H])C3([H])[H])c([H])c([H])c2C1([H])[H]

>  <smiles>  (24) 
[H]c1c([H])c([H])c2c(c1[H])C([H])([H])C([H])([H])C([H])([H])C2([H])N([H])C(=O)C1([H])N(C(=O)C([H])(N([H])C(=O)C([H])(N([H])C([H])([H])[H])C([H])([H])[H])C(C([H])([H])[H])(C([H])([H])[H])C([H])([H])[H])C([H])([H])c2c([H])c(OC([H])([H])C3(C([H])([H])[H])C([H])([H])C([H])(N4C([H])([H])C([H])([H])N(C(=O)N5C([H])([H])C([H])([H])C([H])([H])C([H])(n6nc(-c7c([H])c([H])c(Oc8c([H])c([H])c(F)c([H])c8F)c([H])c7[H])c(C(=O)N([H])[H])c6N([H])[H])C5([H])[H])C([H])([H])C4([H])[H])C([H])(C([H])([H])[H])[N+]([H])(C([H])([H])[H])C3([H])[H])c([H])c([H])c2C1([H])[H]

$$$$
24:0:0
     RDKit          3D

 91101  0  0  1  0  0  0  0  0999 V2000
  -29.3460  -20.9920   19.0910 C   0  0  0  0  0  3  0  0  0  0  0  0
  -28.9750  -22.3920   18.9670 C   0  0  0  0  0  3  0  0  0  0  0  0
  -29.6500  -20.3380   20.3320 C   0  0  0  0  0  0  0  0  0  0  0  0
  -29.5510  -21.3210   21.3930 C   0  0  0  0  0  0  0  0  0  0  0  0
  -28.8610  -23.3010   20.0720 C   0  0  0  0  0  0  0  0  0  0  0  0
  -29.1550  -22.6680   21.2670 N   0  0  0  0  0  0  0  0  0  0  0  0
  -30.9470  -15.2500   20.4540 C   0  0  0  0  0  0  0  0  0  0  0  0
  -30.8970  -12.8660   19.5650 C   0  0  0  0  0  2  0  0  0  0  0  0
  -30.0000  -12.7540   18.3100 C   0  0  0  0  0  2  0  0  0  0  0  0
  -28.5340  -12.5120   18.7140 C   0  0  0  0  0  2  0  0  0  0  0  0
  -28.0710  -13.4630   19.8490 C   0  0  0  0  0  3  0  0  0  0  0  0
  -29.0950  -13.5520   21.0000 C   0  0  0  0  0  2  0  0  0  0  0  0
  -30.3660  -13.9800   20.4050 N   0  0  0  0  0  0  0  0  0  0  0  0
  -32.1580  -15.3070   20.2090 O   0  0  0  0  0  0  0  0  0  0  0  0
  -29.8180  -17.5190   21.4180 C   0  0  0  0  0  2  0  0  0  0  0  0
  -30.1840  -17.5720   19.3750 C   0  0  0  0  0  2  0  0  0  0  0  0
  -30.1570  -18.7380   20.4470 C   0  0  0  0  0  3  0  0  0  0  0  0
  -30.1510  -16.4440   20.3940 N   0  0  0  0  0  0  0  0  0  0  0  0
  -25.6730  -13.9990   20.5580 C   0  0  0  0  0  0  0  0  0  0  0  0
  -24.6120  -13.2050   20.8930 C   0  0  0  0  0  0  0  0  0  0  0  0
  -25.0950  -11.8610   20.8550 C   0  0  0  0  0  0  0  0  0  0  0  0
  -26.7320  -13.1370   20.3240 N   0  0  0  0  0  0  0  0  0  0  0  0
  -26.3930  -11.8450   20.5700 N   0  0  0  0  0  0  0  0  0  0  0  0
  -24.3800  -10.5860   21.0150 C   0  0  0  0  0  0  0  0  0  0  0  0
  -24.7640   -9.6400   21.9890 C   0  0  0  0  0  3  0  0  0  0  0  0
  -24.0480   -8.4320   22.1360 C   0  0  0  0  0  3  0  0  0  0  0  0
  -22.9330   -8.1630   21.3070 C   0  0  0  0  0  0  0  0  0  0  0  0
  -22.5700   -9.0980   20.3220 C   0  0  0  0  0  3  0  0  0  0  0  0
  -23.2870  -10.2970   20.1740 C   0  0  0  0  0  3  0  0  0  0  0  0
  -22.1950   -7.0060   21.3600 O   0  0  0  0  0  0  0  0  0  0  0  0
  -21.9720   -6.3480   22.5430 C   0  0  0  0  0  0  0  0  0  0  0  0
  -21.3300   -6.9710   23.6340 C   0  0  0  0  0  3  0  0  0  0  0  0
  -21.0600   -6.2360   24.8070 C   0  0  0  0  0  3  0  0  0  0  0  0
  -21.4210   -4.8790   24.8850 C   0  0  0  0  0  0  0  0  0  0  0  0
  -22.0560   -4.2530   23.7970 C   0  0  0  0  0  3  0  0  0  0  0  0
  -22.3270   -4.9860   22.6280 C   0  0  0  0  0  0  0  0  0  0  0  0
  -22.9190   -4.3730   21.5750 F   0  0  0  0  0  0  0  0  0  0  0  0
  -21.1550   -4.1700   26.0090 F   0  0  0  0  0  0  0  0  0  0  0  0
  -23.2030  -13.6610   21.1410 C   0  0  0  0  0  0  0  0  0  0  0  0
  -22.4700  -12.9540   21.9930 N   0  0  0  0  0  0  0  0  0  0  0  0
  -22.7610  -14.6810   20.6130 O   0  0  0  0  0  0  0  0  0  0  0  0
  -22.8400  -12.1280   22.4390 H   0  0  0  0  0  0  0  0  0  0  0  0
  -21.5250  -13.2420   22.2030 H   0  0  0  0  0  0  0  0  0  0  0  0
  -25.8260  -15.3740   20.4060 N   0  0  0  0  0  0  0  0  0  0  0  0
  -25.0550  -16.0230   20.5280 H   0  0  0  0  0  0  0  0  0  0  0  0
  -26.6900  -15.8290   20.1400 H   0  0  0  0  0  0  0  0  0  0  0  0
  -30.7930  -21.7710   23.6640 C   0  0  0  0  0  2  0  0  0  0  0  0
  -31.2320  -20.4110   23.1970 C   0  0  0  0  0  2  0  0  0  0  0  0
  -29.8630  -20.9320   22.8100 C   0  0  0  0  0  3  0  0  0  0  0  0
  -28.0190  -24.7500   19.9880 C   0  0  0  0  0  2  0  0  0  0  0  0
  -28.4310  -26.2650   20.1250 O   0  0  0  0  0  0  0  0  0  0  0  0
  -24.7650  -31.8780   23.3030 C   0  0  0  0  0  0  0  0  0  0  0  0
  -27.4020  -27.2960   20.0830 C   0  0  0  0  0  0  0  0  0  0  0  0
  -23.5950  -30.5550   21.5870 C   0  0  0  0  0  3  0  0  0  0  0  0
  -25.0710  -29.0630   20.1050 C   0  0  0  0  0  0  0  0  0  0  0  0
  -26.1540  -30.8340   21.4690 C   0  0  0  0  0  2  0  0  0  0  0  0
  -26.2450  -29.4730   20.7500 C   0  0  0  0  0  0  0  0  0  0  0  0
  -27.4110  -28.6090   20.7210 C   0  0  0  0  0  3  0  0  0  0  0  0
  -26.1980  -27.0110   19.3960 C   0  0  0  0  0  3  0  0  0  0  0  0
  -25.0630  -27.8470   19.4120 C   0  0  0  0  0  3  0  0  0  0  0  0
  -23.8400  -29.9520   20.1800 C   0  0  0  0  0  2  0  0  0  0  0  0
  -24.8580  -31.1080   22.1760 N   0  0  0  0  0  0  0  0  0  0  0  0
  -23.6700  -32.1290   23.8310 O   0  0  0  0  0  0  0  0  0  0  0  0
  -22.9130  -29.4960   22.4900 C   0  0  0  0  0  0  0  0  0  0  0  0
  -21.5850  -29.3280   22.3460 N   0  0  0  0  0  0  0  0  0  0  0  0
  -23.5790  -28.8320   23.2880 O   0  0  0  0  0  0  0  0  0  0  0  0
  -21.1040  -29.9160   21.6820 H   0  0  0  0  0  0  0  0  0  0  0  0
  -18.1970  -28.1240   22.8010 C   0  0  0  0  0  0  0  0  0  0  0  0
  -20.7610  -28.3510   23.0640 C   0  0  0  0  0  3  0  0  0  0  0  0
  -20.8480  -26.9560   22.4020 C   0  0  0  0  0  2  0  0  0  0  0  0
  -19.7360  -26.7030   21.3780 C   0  0  0  0  0  2  0  0  0  0  0  0
  -18.3590  -26.8180   22.0400 C   0  0  0  0  0  2  0  0  0  0  0  0
  -19.3250  -28.8500   23.2690 C   0  0  0  0  0  0  0  0  0  0  0  0
  -19.1190  -30.0730   23.9430 C   0  0  0  0  0  3  0  0  0  0  0  0
  -17.8180  -30.5690   24.1550 C   0  0  0  0  0  3  0  0  0  0  0  0
  -16.7050  -29.8380   23.7030 C   0  0  0  0  0  3  0  0  0  0  0  0
  -16.8960  -28.6170   23.0320 C   0  0  0  0  0  3  0  0  0  0  0  0
  -26.0280  -32.4950   23.9750 C   0  0  0  0  0  3  0  0  0  0  0  0
  -25.7160  -33.8900   24.3220 N   0  0  0  0  0  0  0  0  0  0  0  0
  -26.0360  -34.9550   23.5740 C   0  0  0  0  0  0  0  0  0  0  0  0
  -26.6920  -34.8660   22.5340 O   0  0  0  0  0  0  0  0  0  0  0  0
  -25.1360  -34.0340   25.1360 H   0  0  0  0  0  0  0  0  0  0  0  0
  -24.2930  -36.7460   23.2800 C   0  0  0  0  0  1  0  0  0  0  0  0
  -25.5540  -36.3370   24.0580 C   0  0  0  0  0  3  0  0  0  0  0  0
  -27.6980  -37.2300   24.8560 C   0  0  0  0  0  1  0  0  0  0  0  0
  -26.5790  -37.3970   23.9320 N   0  0  0  0  0  0  0  0  0  0  0  0
  -26.1700  -38.3130   24.0930 H   0  0  0  0  0  0  0  0  0  0  0  0
  -26.4960  -31.7040   25.2590 C   0  0  1  0  0  0  0  0  0  0  0  0
  -25.3680  -31.4690   26.2910 C   0  0  0  0  0  1  0  0  0  0  0  0
  -27.0740  -30.3220   24.8750 C   0  0  0  0  0  1  0  0  0  0  0  0
  -27.6370  -32.4760   25.9620 C   0  0  0  0  0  1  0  0  0  0  0  0
  1  3  1  0
  2  1  2  0
  2  5  1  0
  3  4  2  0
  4 49  1  0
  5  6  2  0
  6  4  1  0
  8 13  1  0
  9 10  1  0
  9  8  1  0
 11 10  1  0
 11 22  1  0
 11 12  1  0
 13  7  1  0
 13 12  1  0
 14  7  2  0
 16 18  1  0
 16 17  1  0
 17  3  1  0
 17 15  1  0
 18  7  1  0
 18 15  1  0
 19 20  2  0
 20 39  1  0
 21 20  1  0
 21 24  1  0
 22 19  1  0
 22 23  1  0
 23 21  2  0
 24 25  1  0
 25 26  2  0
 27 30  1  0
 27 26  1  0
 28 27  2  0
 29 28  1  0
 29 24  2  0
 30 31  1  0
 31 36  2  0
 31 32  1  0
 32 33  2  0
 33 34  1  0
 34 38  1  0
 35 34  2  0
 36 35  1  0
 37 36  1  0
 39 40  1  0
 40 43  1  0
 40 42  1  0
 41 39  2  0
 44 45  1  0
 44 19  1  0
 46 44  1  0
 48 47  1  0
 49 48  1  0
 49 47  1  0
 50  5  1  0
 50 51  1  0
 52 63  2  0
 53 51  1  0
 53 58  1  0
 54 62  1  0
 54 64  1  0
 55 61  1  0
 55 57  1  0
 56 62  1  0
 57 56  1  0
 58 57  2  0
 59 60  1  0
 59 53  2  0
 60 55  2  0
 61 54  1  0
 62 52  1  0
 64 66  2  0
 65 64  1  0
 67 65  1  0
 68 77  2  0
 68 73  1  0
 69 65  1  0
 69 73  1  0
 70 69  1  0
 71 72  1  0
 71 70  1  0
 72 68  1  0
 73 74  2  0
 74 75  1  0
 76 75  2  0
 77 76  1  0
 78 52  1  0
 78 79  1  0
 78 88  1  0
 79 82  1  0
 80 84  1  0
 80 79  1  0
 81 80  2  0
 84 83  1  0
 86 84  1  0
 86 87  1  0
 86 85  1  0
 88 91  1  1
 88 89  1  0
 90 88  1  0
M  ISO  4   7 100  18 100  50 101  51 101
M  END
>  <TORSDO>  (25) 
F 18

>  <SCORE>  (25) 
-14.314

>  <name>  (25) 
24

>  <ligand_id>  (25) 
24

>  <original_smiles>  (25) 
[H]c1c(C([H])([H])Oc2c([H])c([H])c3c(c2[H])C([H])([H])N(C(=O)C([H])(N([H])C(=O)C([H])(N([H])C([H])([H])[H])C([H])([H])[H])C(C([H])([H])[H])(C([H])([H])[H])C([H])([H])[H])C([H])(C(=O)N([H])C2([H])c4c([H])c([H])c([H])c([H])c4C([H])([H])C([H])([H])C2([H])[H])C3([H])[H])nc(C2([H])C([H])([H])C2([H])[H])c(C2([H])C([H])([H])N(C(=O)N3C([H])([H])C([H])([H])C([H])([H])C([H])(n4nc(-c5c([H])c([H])c(Oc6c([H])c([H])c(F)c([H])c6F)c([H])c5[H])c(C(=O)N([H])[H])c4N([H])[H])C3([H])[H])C2([H])[H])c1[H]

>  <smiles>  (25) 
[H]c1c(C([H])([H])Oc2c([H])c([H])c3c(c2[H])C([H])([H])N(C(=O)C([H])(N([H])C(=O)C([H])(N([H])C([H])([H])[H])C([H])([H])[H])C(C([H])([H])[H])(C([H])([H])[H])C([H])([H])[H])C([H])(C(=O)N([H])C2([H])c4c([H])c([H])c([H])c([H])c4C([H])([H])C([H])([H])C2([H])[H])C3([H])[H])nc(C2([H])C([H])([H])C2([H])[H])c(C2([H])C([H])([H])N(C(=O)N3C([H])([H])C([H])([H])C([H])([H])C([H])(n4nc(-c5c([H])c([H])c(Oc6c([H])c([H])c(F)c([H])c6F)c([H])c5[H])c(C(=O)N([H])[H])c4N([H])[H])C3([H])[H])C2([H])[H])c1[H]

$$$$
25:0:0
     RDKit          3D

 95104  0  0  1  0  0  0  0  0999 V2000
  -29.8220  -19.6110   22.0640 C   0  0  0  0  0  3  0  0  0  0  0  0
  -30.6840  -19.5410   19.4100 C   0  0  0  0  0  3  0  0  0  0  0  0
  -29.7720  -20.7830   21.2820 C   0  0  0  0  0  0  0  0  0  0  0  0
  -30.2200  -20.7720   19.9430 C   0  0  0  0  0  0  0  0  0  0  0  0
  -30.3290  -18.4030   21.5400 C   0  0  0  0  0  0  0  0  0  0  0  0
  -30.7540  -18.3530   20.1880 C   0  0  0  0  0  0  0  0  0  0  0  0
  -29.2490  -22.0670   21.8870 C   0  0  0  0  0  2  0  0  0  0  0  0
  -28.6790  -22.9900   20.8080 C   0  0  0  0  0  2  0  0  0  0  0  0
  -30.2270  -22.0670   19.0840 C   0  0  0  0  0  3  0  0  0  0  0  0
  -30.4360  -17.2090   22.4750 C   0  0  0  0  0  1  0  0  0  0  0  0
  -31.6550  -22.3330   18.5590 C   0  0  0  0  0  1  0  0  0  0  0  0
  -29.7050  -23.2980   19.7800 N   0  0  1  0  0  4  0  0  0  0  0  0
  -30.5030  -23.6440   20.2950 H   0  0  0  0  0  0  0  0  0  0  0  0
  -31.4010  -17.1100   19.5510 C   0  0  0  0  0  2  0  0  0  0  0  0
  -31.4730  -14.6470   19.4830 C   0  0  0  0  0  0  0  0  0  0  0  0
  -31.0720  -12.3420   18.7170 C   0  0  0  0  0  2  0  0  0  0  0  0
  -30.0380  -12.3670   17.5740 C   0  0  0  0  0  2  0  0  0  0  0  0
  -28.6080  -12.2980   18.1420 C   0  0  0  0  0  2  0  0  0  0  0  0
  -28.3650  -13.3170   19.2880 C   0  0  0  0  0  3  0  0  0  0  0  0
  -29.5130  -13.2900   20.3230 C   0  0  0  0  0  2  0  0  0  0  0  0
  -30.7790  -13.4820   19.6010 N   0  0  0  0  0  0  0  0  0  0  0  0
  -32.5660  -14.7090   18.9140 O   0  0  0  0  0  0  0  0  0  0  0  0
  -30.8460  -15.7790   19.8540 N   0  0  0  0  0  0  0  0  0  0  0  0
  -29.9260  -15.7180   20.2600 H   0  0  0  0  0  0  0  0  0  0  0  0
  -26.1480  -14.0500   20.3670 C   0  0  0  0  0  0  0  0  0  0  0  0
  -25.0600  -13.3400   20.7980 C   0  0  0  0  0  0  0  0  0  0  0  0
  -25.3730  -11.9640   20.5750 C   0  0  0  0  0  0  0  0  0  0  0  0
  -27.0610  -13.1100   19.9160 N   0  0  0  0  0  0  0  0  0  0  0  0
  -26.6050  -11.8440   20.0970 N   0  0  0  0  0  0  0  0  0  0  0  0
  -24.5500  -10.7580   20.7370 C   0  0  0  0  0  0  0  0  0  0  0  0
  -24.8970   -9.7430   21.6550 C   0  0  0  0  0  3  0  0  0  0  0  0
  -24.0790   -8.6030   21.8060 C   0  0  0  0  0  3  0  0  0  0  0  0
  -22.8990   -8.4690   21.0380 C   0  0  0  0  0  0  0  0  0  0  0  0
  -22.5690   -9.4720   20.1080 C   0  0  0  0  0  3  0  0  0  0  0  0
  -23.3870  -10.6040   19.9540 C   0  0  0  0  0  3  0  0  0  0  0  0
  -22.0570   -7.3850   21.0980 O   0  0  0  0  0  0  0  0  0  0  0  0
  -21.7530   -6.7750   22.2890 C   0  0  0  0  0  0  0  0  0  0  0  0
  -21.1290   -7.4720   23.3460 C   0  0  0  0  0  3  0  0  0  0  0  0
  -20.7730   -6.7890   24.5260 C   0  0  0  0  0  3  0  0  0  0  0  0
  -21.0300   -5.4120   24.6490 C   0  0  0  0  0  0  0  0  0  0  0  0
  -21.6470   -4.7140   23.5950 C   0  0  0  0  0  3  0  0  0  0  0  0
  -22.0050   -5.3940   22.4170 C   0  0  0  0  0  0  0  0  0  0  0  0
  -22.5800   -4.7130   21.3970 F   0  0  0  0  0  0  0  0  0  0  0  0
  -20.6820   -4.7530   25.7790 F   0  0  0  0  0  0  0  0  0  0  0  0
  -23.7630  -13.9070   21.2990 C   0  0  0  0  0  0  0  0  0  0  0  0
  -23.1000  -13.2070   22.2120 N   0  0  0  0  0  0  0  0  0  0  0  0
  -23.3540  -15.0030   20.9160 O   0  0  0  0  0  0  0  0  0  0  0  0
  -23.4450  -12.3180   22.5410 H   0  0  0  0  0  0  0  0  0  0  0  0
  -22.2330  -13.5660   22.5890 H   0  0  0  0  0  0  0  0  0  0  0  0
  -26.4280  -15.4120   20.3010 N   0  0  0  0  0  0  0  0  0  0  0  0
  -25.7480  -16.1150   20.5670 H   0  0  0  0  0  0  0  0  0  0  0  0
  -27.2730  -15.8070   19.9070 H   0  0  0  0  0  0  0  0  0  0  0  0
  -29.2710  -24.4050   18.8590 C   0  0  0  0  0  2  0  0  0  0  0  0
  -29.1160  -25.7850   19.5600 C   0  0  0  0  0  2  0  0  0  0  0  0
  -28.7220  -26.8370   18.6600 O   0  0  0  0  0  0  0  0  0  0  0  0
  -24.6260  -30.8820   22.8660 C   0  0  0  0  0  0  0  0  0  0  0  0
  -27.4840  -27.3880   18.8960 C   0  0  0  0  0  0  0  0  0  0  0  0
  -23.4440  -29.6050   21.1050 C   0  0  0  0  0  3  0  0  0  0  0  0
  -24.9320  -28.5210   19.3370 C   0  0  0  0  0  0  0  0  0  0  0  0
  -25.8720  -30.3390   20.7760 C   0  0  0  0  0  2  0  0  0  0  0  0
  -26.0660  -29.1090   19.9130 C   0  0  0  0  0  0  0  0  0  0  0  0
  -27.3460  -28.5520   19.6870 C   0  0  0  0  0  3  0  0  0  0  0  0
  -26.3340  -26.8090   18.3200 C   0  0  0  0  0  3  0  0  0  0  0  0
  -25.0600  -27.3710   18.5380 C   0  0  0  0  0  3  0  0  0  0  0  0
  -23.5990  -29.1800   19.6200 C   0  0  0  0  0  2  0  0  0  0  0  0
  -24.6690  -30.2820   21.6420 N   0  0  0  0  0  0  0  0  0  0  0  0
  -23.5780  -30.9140   23.5270 O   0  0  0  0  0  0  0  0  0  0  0  0
  -23.0210  -28.3670   21.9290 C   0  0  0  0  0  0  0  0  0  0  0  0
  -21.7560  -27.9450   21.7700 N   0  0  0  0  0  0  0  0  0  0  0  0
  -23.8280  -27.7920   22.6640 O   0  0  0  0  0  0  0  0  0  0  0  0
  -21.1540  -28.4750   21.1550 H   0  0  0  0  0  0  0  0  0  0  0  0
  -18.7420  -25.9630   21.9590 C   0  0  0  0  0  0  0  0  0  0  0  0
  -21.1520  -26.7780   22.4110 C   0  0  0  0  0  3  0  0  0  0  0  0
  -21.6140  -25.4680   21.7310 C   0  0  0  0  0  2  0  0  0  0  0  0
  -20.6640  -24.9940   20.6270 C   0  0  0  0  0  2  0  0  0  0  0  0
  -19.2590  -24.7590   21.1900 C   0  0  0  0  0  2  0  0  0  0  0  0
  -19.6300  -26.9190   22.5180 C   0  0  0  0  0  0  0  0  0  0  0  0
  -19.0950  -28.0400   23.1910 C   0  0  0  0  0  3  0  0  0  0  0  0
  -17.7030  -28.2100   23.3110 C   0  0  0  0  0  3  0  0  0  0  0  0
  -16.8290  -27.2520   22.7700 C   0  0  0  0  0  3  0  0  0  0  0  0
  -17.3480  -26.1300   22.1000 C   0  0  0  0  0  3  0  0  0  0  0  0
  -25.8800  -31.5770   23.4830 C   0  0  0  0  0  3  0  0  0  0  0  0
  -26.5450  -30.7450   24.6480 C   0  0  1  0  0  0  0  0  0  0  0  0
  -25.5500  -30.3090   25.7480 C   0  0  0  0  0  1  0  0  0  0  0  0
  -27.2180  -29.4680   24.0920 C   0  0  0  0  0  1  0  0  0  0  0  0
  -27.6630  -31.5780   25.3170 C   0  0  0  0  0  1  0  0  0  0  0  0
  -25.4620  -32.9000   23.9640 N   0  0  0  0  0  0  0  0  0  0  0  0
  -25.7130  -34.0540   23.3310 C   0  0  0  0  0  0  0  0  0  0  0  0
  -26.3950  -34.1200   22.3040 O   0  0  0  0  0  0  0  0  0  0  0  0
  -24.8560  -32.9190   24.7710 H   0  0  0  0  0  0  0  0  0  0  0  0
  -23.8520  -35.7350   23.1510 C   0  0  0  0  0  1  0  0  0  0  0  0
  -25.1140  -35.3390   23.9330 C   0  0  0  0  0  3  0  0  0  0  0  0
  -27.1590  -36.2920   24.9000 C   0  0  0  0  0  1  0  0  0  0  0  0
  -26.0600  -36.4760   23.9570 N   0  0  0  0  0  0  0  0  0  0  0  0
  -25.5800  -37.3400   24.1930 H   0  0  0  0  0  0  0  0  0  0  0  0
  2  4  2  0
  2  6  1  0
  3  7  1  0
  3  1  2  0
  4  3  1  0
  5  1  1  0
  5 10  1  0
  6  5  2  0
  8  7  1  0
  9 11  1  0
  9 12  1  0
  9  4  1  0
 12 13  1  1
 12  8  1  0
 14 23  1  0
 14  6  1  0
 15 21  1  0
 15 23  1  0
 16 21  1  0
 17 18  1  0
 17 16  1  0
 19 18  1  0
 19 28  1  0
 19 20  1  0
 21 20  1  0
 22 15  2  0
 23 24  1  0
 25 26  2  0
 26 45  1  0
 27 30  1  0
 27 26  1  0
 28 29  1  0
 28 25  1  0
 29 27  2  0
 30 31  1  0
 31 32  2  0
 33 36  1  0
 33 32  1  0
 34 33  2  0
 35 34  1  0
 35 30  2  0
 36 37  1  0
 37 42  2  0
 37 38  1  0
 38 39  2  0
 39 40  1  0
 40 44  1  0
 41 40  2  0
 42 41  1  0
 43 42  1  0
 45 46  1  0
 46 48  1  0
 46 49  1  0
 47 45  2  0
 50 25  1  0
 50 51  1  0
 52 50  1  0
 53 54  1  0
 53 12  1  0
 55 57  1  0
 55 54  1  0
 56 67  2  0
 57 62  1  0
 58 66  1  0
 58 68  1  0
 59 65  1  0
 59 61  1  0
 60 66  1  0
 61 60  1  0
 62 61  2  0
 63 64  1  0
 63 57  2  0
 64 59  2  0
 65 58  1  0
 66 56  1  0
 68 70  2  0
 69 68  1  0
 71 69  1  0
 72 81  2  0
 72 77  1  0
 73 69  1  0
 73 77  1  0
 74 73  1  0
 75 76  1  0
 75 74  1  0
 76 72  1  0
 77 78  2  0
 78 79  1  0
 80 79  2  0
 81 80  1  0
 82 56  1  0
 82 87  1  0
 82 83  1  0
 83 86  1  1
 83 84  1  0
 85 83  1  0
 87 90  1  0
 88 92  1  0
 88 87  1  0
 89 88  2  0
 92 91  1  0
 92 94  1  0
 94 95  1  0
 94 93  1  0
M  ISO  4  15 100  23 100  54 101  55 101
M  END
>  <TORSDO>  (26) 
F 19

>  <SCORE>  (26) 
-9.804

>  <name>  (26) 
25

>  <ligand_id>  (26) 
25

>  <original_smiles>  (26) 
[H]c1c([H])c([H])c2c(c1[H])C([H])([H])C([H])([H])C([H])([H])C2([H])N([H])C(=O)C1([H])N(C(=O)C([H])(N([H])C(=O)C([H])(N([H])C([H])([H])[H])C([H])([H])[H])C(C([H])([H])[H])(C([H])([H])[H])C([H])([H])[H])C([H])([H])c2c([H])c(OC([H])([H])C([H])([H])[N+]3([H])C([H])([H])C([H])([H])c4c([H])c(C([H])([H])[H])c(C([H])([H])N([H])C(=O)N5C([H])([H])C([H])([H])C([H])([H])C([H])(n6nc(-c7c([H])c([H])c(Oc8c([H])c([H])c(F)c([H])c8F)c([H])c7[H])c(C(=O)N([H])[H])c6N([H])[H])C5([H])[H])c([H])c4C3([H])C([H])([H])[H])c([H])c([H])c2C1([H])[H]

>  <smiles>  (26) 
[H]c1c([H])c([H])c2c(c1[H])C([H])([H])C([H])([H])C([H])([H])C2([H])N([H])C(=O)C1([H])N(C(=O)C([H])(N([H])C(=O)C([H])(N([H])C([H])([H])[H])C([H])([H])[H])C(C([H])([H])[H])(C([H])([H])[H])C([H])([H])[H])C([H])([H])c2c([H])c(OC([H])([H])C([H])([H])[N+]3([H])C([H])([H])C([H])([H])c4c([H])c(C([H])([H])[H])c(C([H])([H])N([H])C(=O)N5C([H])([H])C([H])([H])C([H])([H])C([H])(n6nc(-c7c([H])c([H])c(Oc8c([H])c([H])c(F)c([H])c8F)c([H])c7[H])c(C(=O)N([H])[H])c6N([H])[H])C5([H])[H])c([H])c4C3([H])C([H])([H])[H])c([H])c([H])c2C1([H])[H]

$$$$
26:0:0
     RDKit          3D

 97106  0  0  1  0  0  0  0  0999 V2000
  -29.5030  -22.9330   19.5750 C   0  0  0  0  0  0  0  0  0  0  0  0
  -28.4660  -22.5840   20.4790 C   0  0  0  0  0  0  0  0  0  0  0  0
  -30.6120  -21.9780   19.6000 C   0  0  0  0  0  0  0  0  0  0  0  0
  -28.8410  -21.8620   21.6400 C   0  0  0  0  0  0  0  0  0  0  0  0
  -31.0330  -21.7140   20.9230 C   0  0  0  0  0  0  0  0  0  0  0  0
  -27.0130  -22.9780   20.2500 C   0  0  0  0  0  1  0  0  0  0  0  0
  -27.8290  -21.4580   22.6990 C   0  0  0  0  0  1  0  0  0  0  0  0
  -32.4980  -21.5360   21.2830 C   0  0  0  0  0  1  0  0  0  0  0  0
  -30.1350  -21.5890   21.9260 N   0  0  0  0  0  0  0  0  0  0  0  0
  -29.2930  -24.3190   17.4230 C   0  0  0  0  0  1  0  0  0  0  0  0
  -29.5540  -24.4070   18.9320 C   0  0  0  0  0  3  0  0  0  0  0  0
  -28.6660  -25.6150   19.5980 C   0  0  0  0  0  2  0  0  0  0  0  0
  -28.7550  -27.0900   19.2420 O   0  0  0  0  0  0  0  0  0  0  0  0
  -24.6770  -31.7260   23.1160 C   0  0  0  0  0  0  0  0  0  0  0  0
  -27.5830  -27.8860   19.3590 C   0  0  0  0  0  0  0  0  0  0  0  0
  -23.5450  -30.4310   21.3490 C   0  0  0  0  0  3  0  0  0  0  0  0
  -25.0730  -29.2670   19.6500 C   0  0  0  0  0  0  0  0  0  0  0  0
  -26.0280  -31.0400   21.1130 C   0  0  0  0  0  2  0  0  0  0  0  0
  -26.2190  -29.7770   20.2740 C   0  0  0  0  0  0  0  0  0  0  0  0
  -27.4760  -29.1020   20.1200 C   0  0  0  0  0  3  0  0  0  0  0  0
  -26.4120  -27.4730   18.6860 C   0  0  0  0  0  3  0  0  0  0  0  0
  -25.1760  -28.1310   18.8380 C   0  0  0  0  0  3  0  0  0  0  0  0
  -23.7510  -29.9790   19.8780 C   0  0  0  0  0  2  0  0  0  0  0  0
  -24.7710  -31.0780   21.9170 N   0  0  0  0  0  0  0  0  0  0  0  0
  -23.5980  -31.8060   23.7250 O   0  0  0  0  0  0  0  0  0  0  0  0
  -23.0470  -29.2250   22.1830 C   0  0  0  0  0  0  0  0  0  0  0  0
  -21.7560  -28.8770   22.0420 N   0  0  0  0  0  0  0  0  0  0  0  0
  -23.8230  -28.6080   22.9190 O   0  0  0  0  0  0  0  0  0  0  0  0
  -21.1820  -29.4380   21.4270 H   0  0  0  0  0  0  0  0  0  0  0  0
  -18.6070  -27.1160   22.3540 C   0  0  0  0  0  0  0  0  0  0  0  0
  -21.0920  -27.7490   22.6990 C   0  0  0  0  0  3  0  0  0  0  0  0
  -21.4230  -26.4170   21.9860 C   0  0  0  0  0  2  0  0  0  0  0  0
  -20.3890  -26.0290   20.9230 C   0  0  0  0  0  2  0  0  0  0  0  0
  -19.0000  -25.8880   21.5480 C   0  0  0  0  0  2  0  0  0  0  0  0
  -19.5890  -27.9980   22.8810 C   0  0  0  0  0  0  0  0  0  0  0  0
  -19.1730  -29.1420   23.5950 C   0  0  0  0  0  3  0  0  0  0  0  0
  -17.8050  -29.4140   23.7840 C   0  0  0  0  0  3  0  0  0  0  0  0
  -16.8370  -28.5320   23.2730 C   0  0  0  0  0  3  0  0  0  0  0  0
  -17.2380  -27.3840   22.5680 C   0  0  0  0  0  3  0  0  0  0  0  0
  -25.9150  -32.4100   23.7680 C   0  0  0  0  0  3  0  0  0  0  0  0
  -26.5220  -31.5820   24.9680 C   0  0  1  0  0  0  0  0  0  0  0  0
  -25.4750  -31.1630   26.0280 C   0  0  0  0  0  1  0  0  0  0  0  0
  -27.2140  -30.2970   24.4560 C   0  0  0  0  0  1  0  0  0  0  0  0
  -27.6130  -32.4170   25.6770 C   0  0  0  0  0  1  0  0  0  0  0  0
  -25.4920  -33.7450   24.2220 N   0  0  0  0  0  0  0  0  0  0  0  0
  -25.7230  -34.8860   23.5580 C   0  0  0  0  0  0  0  0  0  0  0  0
  -26.3820  -34.9280   22.5160 O   0  0  0  0  0  0  0  0  0  0  0  0
  -24.8910  -33.7760   25.0330 H   0  0  0  0  0  0  0  0  0  0  0  0
  -23.8360  -36.5460   23.3950 C   0  0  0  0  0  1  0  0  0  0  0  0
  -25.1300  -36.1850   24.1400 C   0  0  0  0  0  3  0  0  0  0  0  0
  -27.2040  -37.1860   24.9950 C   0  0  0  0  0  1  0  0  0  0  0  0
  -26.0640  -37.3310   24.0920 N   0  0  0  0  0  0  0  0  0  0  0  0
  -25.5850  -38.1970   24.3210 H   0  0  0  0  0  0  0  0  0  0  0  0
  -30.6120  -20.7980   18.7440 N   0  0  0  0  0  0  0  0  0  0  0  0
  -30.0460  -20.8630   17.9020 H   0  0  0  0  0  0  0  0  0  0  0  0
  -31.4010  -19.4950   18.8930 C   0  0  0  0  0  2  0  0  0  0  0  0
  -31.8750  -15.7470   19.4990 C   0  0  0  0  0  0  0  0  0  0  0  0
  -31.7040  -13.2950   18.9550 C   0  0  0  0  0  2  0  0  0  0  0  0
  -30.7390  -13.0550   17.7730 C   0  0  0  0  0  2  0  0  0  0  0  0
  -29.2830  -12.9290   18.2570 C   0  0  0  0  0  2  0  0  0  0  0  0
  -28.8980  -14.0510   19.2510 C   0  0  0  0  0  3  0  0  0  0  0  0
  -29.9730  -14.2410   20.3440 C   0  0  0  0  0  2  0  0  0  0  0  0
  -31.2630  -14.5160   19.6870 N   0  0  0  0  0  0  0  0  0  0  0  0
  -32.9500  -15.7940   18.8930 O   0  0  0  0  0  0  0  0  0  0  0  0
  -29.8800  -18.2210   21.3830 C   0  0  0  0  0  2  0  0  0  0  0  0
  -29.3780  -18.3530   19.9450 C   0  0  0  0  0  2  0  0  0  0  0  0
  -31.1150  -17.3060   21.2890 C   0  0  0  0  0  2  0  0  0  0  0  0
  -30.6150  -18.0860   19.0820 C   0  0  0  0  0  3  0  0  0  0  0  0
  -31.2350  -16.9290   19.8770 N   0  0  0  0  0  0  0  0  0  0  0  0
  -26.5920  -14.7720   20.1260 C   0  0  0  0  0  0  0  0  0  0  0  0
  -25.5070  -14.0600   20.5480 C   0  0  0  0  0  0  0  0  0  0  0  0
  -25.8780  -12.6830   20.4600 C   0  0  0  0  0  0  0  0  0  0  0  0
  -27.5680  -13.8370   19.8150 N   0  0  0  0  0  0  0  0  0  0  0  0
  -27.1430  -12.5710   20.0750 N   0  0  0  0  0  0  0  0  0  0  0  0
  -25.0790  -11.4680   20.6620 C   0  0  0  0  0  0  0  0  0  0  0  0
  -25.3920  -10.5360   21.6770 C   0  0  0  0  0  3  0  0  0  0  0  0
  -24.5950   -9.3870   21.8630 C   0  0  0  0  0  3  0  0  0  0  0  0
  -23.4680   -9.1630   21.0340 C   0  0  0  0  0  0  0  0  0  0  0  0
  -23.1750  -10.0820   20.0120 C   0  0  0  0  0  3  0  0  0  0  0  0
  -23.9720  -11.2220   19.8260 C   0  0  0  0  0  3  0  0  0  0  0  0
  -22.6510   -8.0620   21.1240 O   0  0  0  0  0  0  0  0  0  0  0  0
  -22.3300   -7.5020   22.3350 C   0  0  0  0  0  0  0  0  0  0  0  0
  -21.7000   -8.2440   23.3560 C   0  0  0  0  0  3  0  0  0  0  0  0
  -21.3280   -7.6120   24.5590 C   0  0  0  0  0  3  0  0  0  0  0  0
  -21.5760   -6.2390   24.7400 C   0  0  0  0  0  0  0  0  0  0  0  0
  -22.2030   -5.4960   23.7220 C   0  0  0  0  0  3  0  0  0  0  0  0
  -22.5770   -6.1270   22.5220 C   0  0  0  0  0  0  0  0  0  0  0  0
  -23.1590   -5.4020   21.5360 F   0  0  0  0  0  0  0  0  0  0  0  0
  -21.2120   -5.6270   25.8910 F   0  0  0  0  0  0  0  0  0  0  0  0
  -24.1640  -14.6200   20.9210 C   0  0  0  0  0  0  0  0  0  0  0  0
  -23.4700  -13.9800   21.8540 N   0  0  0  0  0  0  0  0  0  0  0  0
  -23.7470  -15.6640   20.4190 O   0  0  0  0  0  0  0  0  0  0  0  0
  -23.8250  -13.1370   22.2810 H   0  0  0  0  0  0  0  0  0  0  0  0
  -22.5720  -14.3400   22.1440 H   0  0  0  0  0  0  0  0  0  0  0  0
  -26.8160  -16.1340   19.9560 N   0  0  0  0  0  0  0  0  0  0  0  0
  -26.0860  -16.8170   20.1200 H   0  0  0  0  0  0  0  0  0  0  0  0
  -27.6530  -16.5390   19.5590 H   0  0  0  0  0  0  0  0  0  0  0  0
  1  3  2  0
  1  2  1  0
  2  4  2  0
  3  5  1  0
  4  9  1  0
  4  7  1  0
  5  8  1  0
  5  9  2  0
  6  2  1  0
 11 10  1  0
 11  1  1  0
 11 12  1  0
 13 15  1  0
 13 12  1  0
 14 25  2  0
 15 20  1  0
 16 24  1  0
 16 26  1  0
 17 23  1  0
 17 19  1  0
 18 24  1  0
 19 18  1  0
 20 19  2  0
 21 22  1  0
 21 15  2  0
 22 17  2  0
 23 16  1  0
 24 14  1  0
 26 28  2  0
 27 26  1  0
 29 27  1  0
 30 39  2  0
 30 35  1  0
 31 27  1  0
 31 35  1  0
 32 31  1  0
 33 34  1  0
 33 32  1  0
 34 30  1  0
 35 36  2  0
 36 37  1  0
 38 37  2  0
 39 38  1  0
 40 14  1  0
 40 45  1  0
 40 41  1  0
 41 44  1  1
 41 42  1  0
 43 41  1  0
 45 48  1  0
 46 50  1  0
 46 45  1  0
 47 46  2  0
 50 49  1  0
 52 50  1  0
 52 53  1  0
 52 51  1  0
 54 56  1  0
 54  3  1  0
 55 54  1  0
 57 63  1  0
 57 69  1  0
 58 63  1  0
 59 60  1  0
 59 58  1  0
 61 60  1  0
 61 73  1  0
 61 62  1  0
 63 62  1  0
 64 57  2  0
 66 65  1  0
 67 65  1  0
 68 56  1  0
 68 69  1  0
 68 66  1  0
 69 67  1  0
 70 71  2  0
 71 90  1  0
 72 71  1  0
 72 75  1  0
 73 74  1  0
 73 70  1  0
 74 72  2  0
 75 76  1  0
 76 77  2  0
 78 81  1  0
 78 77  1  0
 79 78  2  0
 80 79  1  0
 80 75  2  0
 81 82  1  0
 82 87  2  0
 82 83  1  0
 83 84  2  0
 84 85  1  0
 85 89  1  0
 86 85  2  0
 87 86  1  0
 88 87  1  0
 90 91  1  0
 91 94  1  0
 91 93  1  0
 92 90  2  0
 95 96  1  0
 95 70  1  0
 97 95  1  0
M  ISO  4  12 101  13 101  57 100  69 100
M  END
>  <TORSDO>  (27) 
F 20

>  <SCORE>  (27) 
-7.834

>  <name>  (27) 
26

>  <ligand_id>  (27) 
26

>  <original_smiles>  (27) 
[H]c1c([H])c([H])c2c(c1[H])C([H])([H])C([H])([H])C([H])([H])C2([H])N([H])C(=O)C1([H])N(C(=O)C([H])(N([H])C(=O)C([H])(N([H])C([H])([H])[H])C([H])([H])[H])C(C([H])([H])[H])(C([H])([H])[H])C([H])([H])[H])C([H])([H])c2c([H])c(OC([H])([H])C([H])(c3c(N([H])C([H])([H])C4([H])N(C(=O)N5C([H])([H])C([H])([H])C([H])([H])C([H])(n6nc(-c7c([H])c([H])c(Oc8c([H])c([H])c(F)c([H])c8F)c([H])c7[H])c(C(=O)N([H])[H])c6N([H])[H])C5([H])[H])C([H])([H])C([H])([H])C4([H])[H])c(C([H])([H])[H])nc(C([H])([H])[H])c3C([H])([H])[H])C([H])([H])[H])c([H])c([H])c2C1([H])[H]

>  <smiles>  (27) 
[H]c1c([H])c([H])c2c(c1[H])C([H])([H])C([H])([H])C([H])([H])C2([H])N([H])C(=O)C1([H])N(C(=O)C([H])(N([H])C(=O)C([H])(N([H])C([H])([H])[H])C([H])([H])[H])C(C([H])([H])[H])(C([H])([H])[H])C([H])([H])[H])C([H])([H])c2c([H])c(OC([H])([H])C([H])(c3c(N([H])C([H])([H])C4([H])N(C(=O)N5C([H])([H])C([H])([H])C([H])([H])C([H])(n6nc(-c7c([H])c([H])c(Oc8c([H])c([H])c(F)c([H])c8F)c([H])c7[H])c(C(=O)N([H])[H])c6N([H])[H])C5([H])[H])C([H])([H])C([H])([H])C4([H])[H])c(C([H])([H])[H])nc(C([H])([H])[H])c3C([H])([H])[H])C([H])([H])[H])c([H])c([H])c2C1([H])[H]

$$$$
27:0:0
     RDKit          3D

 92101  0  0  1  0  0  0  0  0999 V2000
  -29.3490  -22.7770   21.2380 C   0  0  0  0  0  3  0  0  0  0  0  0
  -28.3280  -21.5490   19.0050 C   0  0  0  0  0  3  0  0  0  0  0  0
  -28.5390  -23.6120   20.3990 C   0  0  0  0  0  0  0  0  0  0  0  0
  -29.6630  -21.3890   20.9700 C   0  0  0  0  0  0  0  0  0  0  0  0
  -28.0400  -22.9310   19.2540 C   0  0  0  0  0  0  0  0  0  0  0  0
  -29.1630  -20.7100   19.8160 C   0  0  0  0  0  0  0  0  0  0  0  0
  -30.5610  -20.6530   21.9460 C   0  0  0  0  0  1  0  0  0  0  0  0
  -27.1480  -23.6600   18.2670 C   0  0  0  0  0  1  0  0  0  0  0  0
  -29.9920  -19.5550   17.9500 C   0  0  0  0  0  1  0  0  0  0  0  0
  -29.4950  -19.3650   19.3260 N   0  0  0  0  0  0  0  0  0  0  0  0
  -30.6080  -14.7910   20.3120 C   0  0  0  0  0  0  0  0  0  0  0  0
  -30.3900  -12.5070   19.3320 C   0  0  0  0  0  2  0  0  0  0  0  0
  -29.4490  -12.5680   18.1090 C   0  0  0  0  0  2  0  0  0  0  0  0
  -27.9810  -12.4020   18.5480 C   0  0  0  0  0  2  0  0  0  0  0  0
  -27.6090  -13.3050   19.7540 C   0  0  0  0  0  3  0  0  0  0  0  0
  -28.6730  -13.2470   20.8710 C   0  0  0  0  0  2  0  0  0  0  0  0
  -29.9620  -13.5790   20.2560 N   0  0  0  0  0  0  0  0  0  0  0  0
  -31.8230  -14.8360   20.0950 O   0  0  0  0  0  0  0  0  0  0  0  0
  -29.3980  -17.1100   20.8870 C   0  0  0  0  0  2  0  0  0  0  0  0
  -30.1660  -16.8840   18.9730 C   0  0  0  0  0  2  0  0  0  0  0  0
  -30.1360  -18.1120   19.9370 C   0  0  0  0  0  3  0  0  0  0  0  0
  -29.8440  -15.9300   20.0590 N   0  0  0  0  0  0  0  0  0  0  0  0
  -25.2270  -13.9000   20.4920 C   0  0  0  0  0  0  0  0  0  0  0  0
  -24.1600  -13.1280   20.8650 C   0  0  0  0  0  0  0  0  0  0  0  0
  -24.6220  -11.7770   20.8400 C   0  0  0  0  0  0  0  0  0  0  0  0
  -26.2690  -13.0190   20.2560 N   0  0  0  0  0  0  0  0  0  0  0  0
  -25.9140  -11.7370   20.5310 N   0  0  0  0  0  0  0  0  0  0  0  0
  -23.8950  -10.5160   21.0360 C   0  0  0  0  0  0  0  0  0  0  0  0
  -24.3350   -9.5450   21.9630 C   0  0  0  0  0  3  0  0  0  0  0  0
  -23.6070   -8.3490   22.1480 C   0  0  0  0  0  3  0  0  0  0  0  0
  -22.4250   -8.1170   21.4050 C   0  0  0  0  0  0  0  0  0  0  0  0
  -22.0040   -9.0760   20.4680 C   0  0  0  0  0  3  0  0  0  0  0  0
  -22.7320  -10.2620   20.2810 C   0  0  0  0  0  3  0  0  0  0  0  0
  -21.6670   -6.9740   21.5000 O   0  0  0  0  0  0  0  0  0  0  0  0
  -21.6390   -6.2230   22.6470 C   0  0  0  0  0  0  0  0  0  0  0  0
  -21.2460   -6.7710   23.8880 C   0  0  0  0  0  3  0  0  0  0  0  0
  -21.1640   -5.9470   25.0270 C   0  0  0  0  0  3  0  0  0  0  0  0
  -21.4630   -4.5750   24.9280 C   0  0  0  0  0  0  0  0  0  0  0  0
  -21.8470   -4.0260   23.6920 C   0  0  0  0  0  3  0  0  0  0  0  0
  -21.9310   -4.8470   22.5550 C   0  0  0  0  0  0  0  0  0  0  0  0
  -22.2820   -4.3080   21.3620 F   0  0  0  0  0  0  0  0  0  0  0  0
  -21.3760   -3.7810   26.0210 F   0  0  0  0  0  0  0  0  0  0  0  0
  -22.7630  -13.6080   21.1330 C   0  0  0  0  0  0  0  0  0  0  0  0
  -22.0350  -12.9170   22.0030 N   0  0  0  0  0  0  0  0  0  0  0  0
  -22.3270  -14.6310   20.6070 O   0  0  0  0  0  0  0  0  0  0  0  0
  -22.4020  -12.0910   22.4530 H   0  0  0  0  0  0  0  0  0  0  0  0
  -21.0980  -13.2200   22.2250 H   0  0  0  0  0  0  0  0  0  0  0  0
  -25.3950  -15.2700   20.3090 N   0  0  0  0  0  0  0  0  0  0  0  0
  -24.6350  -15.9320   20.4220 H   0  0  0  0  0  0  0  0  0  0  0  0
  -26.2550  -15.7030   19.9950 H   0  0  0  0  0  0  0  0  0  0  0  0
  -28.0200  -25.0550   20.8840 C   0  0  0  0  0  2  0  0  0  0  0  0
  -28.2860  -26.3730   20.2100 O   0  0  0  0  0  0  0  0  0  0  0  0
  -24.6140  -31.8980   23.2400 C   0  0  0  0  0  0  0  0  0  0  0  0
  -27.2160  -27.2960   20.1970 C   0  0  0  0  0  0  0  0  0  0  0  0
  -23.4130  -30.4970   21.6040 C   0  0  0  0  0  3  0  0  0  0  0  0
  -24.8640  -28.9440   20.1790 C   0  0  0  0  0  0  0  0  0  0  0  0
  -25.9560  -30.8060   21.4220 C   0  0  0  0  0  2  0  0  0  0  0  0
  -26.0370  -29.4230   20.7760 C   0  0  0  0  0  0  0  0  0  0  0  0
  -27.2210  -28.6140   20.7720 C   0  0  0  0  0  3  0  0  0  0  0  0
  -26.0190  -26.8900   19.5720 C   0  0  0  0  0  3  0  0  0  0  0  0
  -24.8590  -27.6850   19.5650 C   0  0  0  0  0  3  0  0  0  0  0  0
  -23.6280  -29.8220   20.2260 C   0  0  0  0  0  2  0  0  0  0  0  0
  -24.6800  -31.0860   22.1450 N   0  0  0  0  0  0  0  0  0  0  0  0
  -23.5290  -32.1770   23.7730 O   0  0  0  0  0  0  0  0  0  0  0  0
  -22.7480  -29.4820   22.5670 C   0  0  0  0  0  0  0  0  0  0  0  0
  -21.4210  -29.3060   22.4420 N   0  0  0  0  0  0  0  0  0  0  0  0
  -23.4270  -28.8560   23.3850 O   0  0  0  0  0  0  0  0  0  0  0  0
  -20.9330  -29.8610   21.7540 H   0  0  0  0  0  0  0  0  0  0  0  0
  -18.0440  -28.1040   22.9460 C   0  0  0  0  0  0  0  0  0  0  0  0
  -20.6030  -28.3690   23.2160 C   0  0  0  0  0  3  0  0  0  0  0  0
  -20.7070  -26.9360   22.6450 C   0  0  0  0  0  2  0  0  0  0  0  0
  -19.6060  -26.6070   21.6320 C   0  0  0  0  0  2  0  0  0  0  0  0
  -18.2240  -26.7530   22.2740 C   0  0  0  0  0  2  0  0  0  0  0  0
  -19.1620  -28.8690   23.3740 C   0  0  0  0  0  0  0  0  0  0  0  0
  -18.9400  -30.1330   23.9630 C   0  0  0  0  0  3  0  0  0  0  0  0
  -17.6330  -30.6320   24.1270 C   0  0  0  0  0  3  0  0  0  0  0  0
  -16.5320  -29.8630   23.7160 C   0  0  0  0  0  3  0  0  0  0  0  0
  -16.7370  -28.6010   23.1310 C   0  0  0  0  0  3  0  0  0  0  0  0
  -25.8950  -32.5350   23.8610 C   0  0  0  0  0  3  0  0  0  0  0  0
  -25.5820  -33.9340   24.1900 N   0  0  0  0  0  0  0  0  0  0  0  0
  -25.9120  -34.9880   23.4310 C   0  0  0  0  0  0  0  0  0  0  0  0
  -26.5810  -34.8850   22.3990 O   0  0  0  0  0  0  0  0  0  0  0  0
  -24.9880  -34.0870   24.9910 H   0  0  0  0  0  0  0  0  0  0  0  0
  -24.1820  -36.7800   23.0790 C   0  0  0  0  0  1  0  0  0  0  0  0
  -25.4250  -36.3760   23.8890 C   0  0  0  0  0  3  0  0  0  0  0  0
  -27.5610  -37.2600   24.7160 C   0  0  0  0  0  1  0  0  0  0  0  0
  -26.4560  -37.4300   23.7770 N   0  0  0  0  0  0  0  0  0  0  0  0
  -26.0490  -38.3490   23.9280 H   0  0  0  0  0  0  0  0  0  0  0  0
  -26.4110  -31.7680   25.1400 C   0  0  1  0  0  0  0  0  0  0  0  0
  -25.3190  -31.5340   26.2080 C   0  0  0  0  0  1  0  0  0  0  0  0
  -26.9930  -30.3880   24.7540 C   0  0  0  0  0  1  0  0  0  0  0  0
  -27.5620  -32.5640   25.7980 C   0  0  0  0  0  1  0  0  0  0  0  0
  2  5  2  0
  2  6  1  0
  3 51  1  0
  3  1  2  0
  4  1  1  0
  4  7  1  0
  5  3  1  0
  6  4  2  0
  8  5  1  0
  9 10  1  0
 10  6  1  0
 12 17  1  0
 13 14  1  0
 13 12  1  0
 15 14  1  0
 15 26  1  0
 15 16  1  0
 17 11  1  0
 17 16  1  0
 18 11  2  0
 20 21  1  0
 20 22  1  0
 21 10  1  0
 21 19  1  0
 22 11  1  0
 22 19  1  0
 23 24  2  0
 24 43  1  0
 25 24  1  0
 25 28  1  0
 26 23  1  0
 26 27  1  0
 27 25  2  0
 28 29  1  0
 29 30  2  0
 31 34  1  0
 31 30  1  0
 32 31  2  0
 33 32  1  0
 33 28  2  0
 34 35  1  0
 35 36  1  0
 36 37  2  0
 38 37  1  0
 38 42  1  0
 39 38  2  0
 40 35  2  0
 40 39  1  0
 41 40  1  0
 43 44  1  0
 44 47  1  0
 44 46  1  0
 45 43  2  0
 48 49  1  0
 48 23  1  0
 50 48  1  0
 52 51  1  0
 53 64  2  0
 54 52  1  0
 54 59  1  0
 55 63  1  0
 55 65  1  0
 56 62  1  0
 56 58  1  0
 57 63  1  0
 58 57  1  0
 59 58  2  0
 60 54  2  0
 61 60  1  0
 61 56  2  0
 62 55  1  0
 63 53  1  0
 65 67  2  0
 66 65  1  0
 68 66  1  0
 69 78  2  0
 69 74  1  0
 70 66  1  0
 70 74  1  0
 71 70  1  0
 72 73  1  0
 72 71  1  0
 73 69  1  0
 74 75  2  0
 75 76  1  0
 77 76  2  0
 78 77  1  0
 79 53  1  0
 79 80  1  0
 79 89  1  0
 80 83  1  0
 81 85  1  0
 81 80  1  0
 82 81  2  0
 85 84  1  0
 87 85  1  0
 87 88  1  0
 87 86  1  0
 89 92  1  1
 89 90  1  0
 91 89  1  0
M  ISO  4  11 100  22 100  51 101  52 101
M  END
>  <TORSDO>  (28) 
F 18

>  <SCORE>  (28) 
-14.925

>  <name>  (28) 
27

>  <ligand_id>  (28) 
27

>  <original_smiles>  (28) 
[H]c1c([H])c([H])c2c(c1[H])C([H])([H])C([H])([H])C([H])([H])C2([H])N([H])C(=O)C1([H])N(C(=O)C([H])(N([H])C(=O)C([H])(N([H])C([H])([H])[H])C([H])([H])[H])C(C([H])([H])[H])(C([H])([H])[H])C([H])([H])[H])C([H])([H])c2c([H])c(OC([H])([H])c3c([H])c(C([H])([H])[H])c(N(C([H])([H])[H])C4([H])C([H])([H])N(C(=O)N5C([H])([H])C([H])([H])C([H])([H])C([H])(n6nc(-c7c([H])c([H])c(Oc8c([H])c([H])c(F)c([H])c8F)c([H])c7[H])c(C(=O)N([H])[H])c6N([H])[H])C5([H])[H])C4([H])[H])c([H])c3C([H])([H])[H])c([H])c([H])c2C1([H])[H]

>  <smiles>  (28) 
[H]c1c([H])c([H])c2c(c1[H])C([H])([H])C([H])([H])C([H])([H])C2([H])N([H])C(=O)C1([H])N(C(=O)C([H])(N([H])C(=O)C([H])(N([H])C([H])([H])[H])C([H])([H])[H])C(C([H])([H])[H])(C([H])([H])[H])C([H])([H])[H])C([H])([H])c2c([H])c(OC([H])([H])c3c([H])c(C([H])([H])[H])c(N(C([H])([H])[H])C4([H])C([H])([H])N(C(=O)N5C([H])([H])C([H])([H])C([H])([H])C([H])(n6nc(-c7c([H])c([H])c(Oc8c([H])c([H])c(F)c([H])c8F)c([H])c7[H])c(C(=O)N([H])[H])c6N([H])[H])C5([H])[H])C4([H])[H])c([H])c3C([H])([H])[H])c([H])c([H])c2C1([H])[H]

$$$$
28:0:0
     RDKit          3D

 96105  0  0  1  0  0  0  0  0999 V2000
  -31.0620  -19.6280   21.4380 C   0  0  0  0  0  2  0  0  0  0  0  0
  -31.2730  -21.1610   21.3700 C   0  0  0  0  0  3  0  0  0  0  0  0
  -30.2750  -21.6910   20.2970 C   0  0  0  0  0  3  0  0  0  0  0  0
  -29.5370  -20.3920   19.8370 C   0  0  0  0  0  3  0  0  0  0  0  0
  -29.1250  -20.4350   18.3580 C   0  0  0  0  0  1  0  0  0  0  0  0
  -30.4550  -19.2470   20.1470 N   0  0  2  0  0  4  0  0  0  0  0  0
  -31.2110  -19.2890   19.4800 H   0  0  0  0  0  0  0  0  0  0  0  0
  -30.0510  -21.8850   23.5600 C   0  0  0  0  0  1  0  0  0  0  0  0
  -32.5270  -21.2750   23.5830 C   0  0  0  0  0  1  0  0  0  0  0  0
  -31.3670  -21.8620   22.7530 C   0  0  0  0  0  3  0  0  0  0  0  0
  -29.8950  -17.8440   20.0350 C   0  0  0  0  0  2  0  0  0  0  0  0
  -30.7910  -14.2130   19.7850 C   0  0  0  0  0  0  0  0  0  0  0  0
  -30.2750  -12.0340   18.7150 C   0  0  0  0  0  2  0  0  0  0  0  0
  -29.2600  -12.2250   17.5700 C   0  0  0  0  0  2  0  0  0  0  0  0
  -27.8200  -12.1460   18.1120 C   0  0  0  0  0  2  0  0  0  0  0  0
  -27.6040  -13.0260   19.3710 C   0  0  0  0  0  3  0  0  0  0  0  0
  -28.7390  -12.8330   20.4030 C   0  0  0  0  0  2  0  0  0  0  0  0
  -30.0190  -13.0820   19.7220 N   0  0  0  0  0  0  0  0  0  0  0  0
  -31.8260  -14.3140   19.1220 O   0  0  0  0  0  0  0  0  0  0  0  0
  -31.3260  -16.4990   21.8210 C   0  0  0  0  0  2  0  0  0  0  0  0
  -30.2860  -15.3910   21.9260 C   0  0  0  0  0  2  0  0  0  0  0  0
  -30.9000  -16.6920   20.3670 C   0  0  0  0  0  3  0  0  0  0  0  0
  -30.3060  -15.3080   20.4550 N   0  0  0  0  0  0  0  0  0  0  0  0
  -25.3240  -13.7330   20.3310 C   0  0  0  0  0  0  0  0  0  0  0  0
  -24.2480  -13.0070   20.7640 C   0  0  0  0  0  0  0  0  0  0  0  0
  -24.6120  -11.6340   20.6290 C   0  0  0  0  0  0  0  0  0  0  0  0
  -26.2850  -12.8040   19.9590 N   0  0  0  0  0  0  0  0  0  0  0  0
  -25.8640  -11.5340   20.1950 N   0  0  0  0  0  0  0  0  0  0  0  0
  -23.8180  -10.4140   20.8310 C   0  0  0  0  0  0  0  0  0  0  0  0
  -24.2040   -9.4310   21.7700 C   0  0  0  0  0  3  0  0  0  0  0  0
  -23.4160   -8.2750   21.9600 C   0  0  0  0  0  3  0  0  0  0  0  0
  -22.2300   -8.0960   21.2100 C   0  0  0  0  0  0  0  0  0  0  0  0
  -21.8600   -9.0650   20.2590 C   0  0  0  0  0  3  0  0  0  0  0  0
  -22.6480  -10.2130   20.0690 C   0  0  0  0  0  3  0  0  0  0  0  0
  -21.4140   -6.9940   21.3070 O   0  0  0  0  0  0  0  0  0  0  0  0
  -21.2620   -6.3130   22.4890 C   0  0  0  0  0  0  0  0  0  0  0  0
  -20.7650   -6.9400   23.6510 C   0  0  0  0  0  3  0  0  0  0  0  0
  -20.5590   -6.1870   24.8240 C   0  0  0  0  0  3  0  0  0  0  0  0
  -20.8470   -4.8090   24.8390 C   0  0  0  0  0  0  0  0  0  0  0  0
  -21.3400   -4.1830   23.6800 C   0  0  0  0  0  3  0  0  0  0  0  0
  -21.5440   -4.9330   22.5090 C   0  0  0  0  0  0  0  0  0  0  0  0
  -22.0010   -4.3170   21.3910 F   0  0  0  0  0  0  0  0  0  0  0  0
  -20.6410   -4.0890   25.9670 F   0  0  0  0  0  0  0  0  0  0  0  0
  -22.9150  -13.5570   21.1930 C   0  0  0  0  0  0  0  0  0  0  0  0
  -22.2210  -12.8630   22.0880 N   0  0  0  0  0  0  0  0  0  0  0  0
  -22.5060  -14.6380   20.7730 O   0  0  0  0  0  0  0  0  0  0  0  0
  -22.5730  -11.9910   22.4550 H   0  0  0  0  0  0  0  0  0  0  0  0
  -21.3340  -13.2170   22.4230 H   0  0  0  0  0  0  0  0  0  0  0  0
  -25.5650  -15.0970   20.2120 N   0  0  0  0  0  0  0  0  0  0  0  0
  -24.8720  -15.7910   20.4780 H   0  0  0  0  0  0  0  0  0  0  0  0
  -26.4340  -15.5050   19.8910 H   0  0  0  0  0  0  0  0  0  0  0  0
  -29.3730  -22.7630   20.6980 O   0  0  0  0  0  0  0  0  0  0  0  0
  -30.7140  -24.8240   20.8990 C   0  0  0  0  0  1  0  0  0  0  0  0
  -29.5950  -24.0920   20.1450 C   0  0  0  0  0  3  0  0  0  0  0  0
  -28.2890  -24.9580   20.1190 C   0  0  0  0  0  2  0  0  0  0  0  0
  -28.4500  -26.3930   20.3400 O   0  0  0  0  0  0  0  0  0  0  0  0
  -24.7140  -31.7210   23.3450 C   0  0  0  0  0  0  0  0  0  0  0  0
  -27.3100  -27.1920   20.3020 C   0  0  0  0  0  0  0  0  0  0  0  0
  -23.5190  -30.3640   21.6630 C   0  0  0  0  0  3  0  0  0  0  0  0
  -24.9680  -28.8060   20.2590 C   0  0  0  0  0  0  0  0  0  0  0  0
  -26.0600  -30.6520   21.5290 C   0  0  0  0  0  2  0  0  0  0  0  0
  -26.1300  -29.2810   20.8830 C   0  0  0  0  0  0  0  0  0  0  0  0
  -27.3060  -28.4860   20.8940 C   0  0  0  0  0  3  0  0  0  0  0  0
  -26.1220  -26.7520   19.6720 C   0  0  0  0  0  3  0  0  0  0  0  0
  -24.9630  -27.5470   19.6460 C   0  0  0  0  0  3  0  0  0  0  0  0
  -23.7450  -29.6950   20.2830 C   0  0  0  0  0  2  0  0  0  0  0  0
  -24.7840  -30.9270   22.2380 N   0  0  0  0  0  0  0  0  0  0  0  0
  -23.6250  -32.0160   23.8560 O   0  0  0  0  0  0  0  0  0  0  0  0
  -22.8170  -29.3500   22.5950 C   0  0  0  0  0  0  0  0  0  0  0  0
  -21.4910  -29.2090   22.4370 N   0  0  0  0  0  0  0  0  0  0  0  0
  -23.4630  -28.6940   23.4160 O   0  0  0  0  0  0  0  0  0  0  0  0
  -21.0340  -29.7910   21.7500 H   0  0  0  0  0  0  0  0  0  0  0  0
  -18.0650  -28.1390   22.8820 C   0  0  0  0  0  0  0  0  0  0  0  0
  -20.6300  -28.2860   23.1770 C   0  0  0  0  0  3  0  0  0  0  0  0
  -20.6790  -26.8670   22.5650 C   0  0  0  0  0  2  0  0  0  0  0  0
  -19.5720  -26.6150   21.5370 C   0  0  0  0  0  2  0  0  0  0  0  0
  -18.1930  -26.8000   22.1740 C   0  0  0  0  0  2  0  0  0  0  0  0
  -19.2120  -28.8430   23.3390 C   0  0  0  0  0  0  0  0  0  0  0  0
  -19.0400  -30.0990   23.9610 C   0  0  0  0  0  3  0  0  0  0  0  0
  -17.7540  -30.6510   24.1280 C   0  0  0  0  0  3  0  0  0  0  0  0
  -16.6240  -29.9420   23.6870 C   0  0  0  0  0  3  0  0  0  0  0  0
  -16.7800  -28.6860   23.0700 C   0  0  0  0  0  3  0  0  0  0  0  0
  -25.9970  -32.3160   24.0050 C   0  0  0  0  0  3  0  0  0  0  0  0
  -25.7020  -33.7070   24.3720 N   0  0  0  0  0  0  0  0  0  0  0  0
  -26.0640  -34.7770   23.6510 C   0  0  0  0  0  0  0  0  0  0  0  0
  -26.7550  -34.6950   22.6320 O   0  0  0  0  0  0  0  0  0  0  0  0
  -25.0960  -33.8500   25.1660 H   0  0  0  0  0  0  0  0  0  0  0  0
  -24.3750  -36.6080   23.3060 C   0  0  0  0  0  1  0  0  0  0  0  0
  -25.5870  -36.1590   24.1370 C   0  0  0  0  0  3  0  0  0  0  0  0
  -27.7080  -36.9870   25.0560 C   0  0  0  0  0  1  0  0  0  0  0  0
  -26.6400  -37.1970   24.0840 N   0  0  0  0  0  0  0  0  0  0  0  0
  -26.2430  -38.1200   24.2410 H   0  0  0  0  0  0  0  0  0  0  0  0
  -26.4850  -31.4970   25.2620 C   0  0  1  0  0  0  0  0  0  0  0  0
  -25.3660  -31.2230   26.2950 C   0  0  0  0  0  1  0  0  0  0  0  0
  -27.0720  -30.1330   24.8290 C   0  0  0  0  0  1  0  0  0  0  0  0
  -27.6250  -32.2610   25.9730 C   0  0  0  0  0  1  0  0  0  0  0  0
  2  1  1  0
  2 10  1  0
  3 52  1  0
  3  2  1  0
  4  5  1  0
  4  6  1  0
  4  3  1  0
  6  1  1  0
  6  7  1  6
 10  8  1  0
 10  9  1  0
 11  6  1  0
 12 23  1  0
 13 18  1  0
 14 15  1  0
 14 13  1  0
 16 15  1  0
 16 27  1  0
 16 17  1  0
 18 12  1  0
 18 17  1  0
 19 12  2  0
 20 21  1  0
 22 11  1  0
 22 23  1  0
 22 20  1  0
 23 21  1  0
 24 25  2  0
 25 44  1  0
 26 25  1  0
 26 29  1  0
 27 28  1  0
 27 24  1  0
 28 26  2  0
 29 30  1  0
 30 31  2  0
 32 35  1  0
 32 31  1  0
 33 32  2  0
 34 33  1  0
 34 29  2  0
 35 36  1  0
 36 41  2  0
 36 37  1  0
 37 38  2  0
 38 39  1  0
 39 43  1  0
 40 39  2  0
 41 40  1  0
 42 41  1  0
 44 45  1  0
 45 48  1  0
 45 47  1  0
 46 44  2  0
 49 24  1  0
 49 50  1  0
 51 49  1  0
 54 52  1  0
 54 53  1  0
 55 54  1  0
 55 56  1  0
 57 68  2  0
 58 56  1  0
 58 63  1  0
 59 67  1  0
 59 69  1  0
 60 66  1  0
 60 62  1  0
 61 67  1  0
 62 63  2  0
 62 61  1  0
 64 58  2  0
 65 64  1  0
 65 60  2  0
 66 59  1  0
 67 57  1  0
 69 71  2  0
 70 69  1  0
 72 70  1  0
 73 82  2  0
 73 78  1  0
 74 70  1  0
 74 78  1  0
 75 74  1  0
 76 77  1  0
 76 75  1  0
 77 73  1  0
 78 79  2  0
 79 80  1  0
 81 80  2  0
 82 81  1  0
 83 57  1  0
 83 84  1  0
 83 93  1  0
 84 87  1  0
 85 89  1  0
 85 84  1  0
 86 85  2  0
 89 88  1  0
 91 89  1  0
 91 92  1  0
 91 90  1  0
 93 96  1  1
 93 94  1  0
 95 93  1  0
M  ISO  4  12 100  23 100  55 101  56 101
M  END
>  <TORSDO>  (29) 
F 21

>  <SCORE>  (29) 
-12.399

>  <name>  (29) 
28

>  <ligand_id>  (29) 
28

>  <original_smiles>  (29) 
[H]c1c([H])c([H])c2c(c1[H])C([H])([H])C([H])([H])C([H])([H])C2([H])N([H])C(=O)C1([H])N(C(=O)C([H])(N([H])C(=O)C([H])(N([H])C([H])([H])[H])C([H])([H])[H])C(C([H])([H])[H])(C([H])([H])[H])C([H])([H])[H])C([H])([H])c2c([H])c(OC([H])([H])C([H])(OC3([H])C([H])(C([H])(C([H])([H])[H])C([H])([H])[H])C([H])([H])[N+]([H])(C([H])([H])C4([H])N(C(=O)N5C([H])([H])C([H])([H])C([H])([H])C([H])(n6nc(-c7c([H])c([H])c(Oc8c([H])c([H])c(F)c([H])c8F)c([H])c7[H])c(C(=O)N([H])[H])c6N([H])[H])C5([H])[H])C([H])([H])C4([H])[H])C3([H])C([H])([H])[H])C([H])([H])[H])c([H])c([H])c2C1([H])[H]

>  <smiles>  (29) 
[H]c1c([H])c([H])c2c(c1[H])C([H])([H])C([H])([H])C([H])([H])C2([H])N([H])C(=O)C1([H])N(C(=O)C([H])(N([H])C(=O)C([H])(N([H])C([H])([H])[H])C([H])([H])[H])C(C([H])([H])[H])(C([H])([H])[H])C([H])([H])[H])C([H])([H])c2c([H])c(OC([H])([H])C([H])(OC3([H])C([H])(C([H])(C([H])([H])[H])C([H])([H])[H])C([H])([H])[N+]([H])(C([H])([H])C4([H])N(C(=O)N5C([H])([H])C([H])([H])C([H])([H])C([H])(n6nc(-c7c([H])c([H])c(Oc8c([H])c([H])c(F)c([H])c8F)c([H])c7[H])c(C(=O)N([H])[H])c6N([H])[H])C5([H])[H])C([H])([H])C4([H])[H])C3([H])C([H])([H])[H])C([H])([H])[H])c([H])c([H])c2C1([H])[H]

$$$$
29:0:0
     RDKit          3D

 94105  0  0  1  0  0  0  0  0999 V2000
  -29.6500  -20.1980   21.6440 C   0  0  0  0  0  3  0  0  0  0  0  0
  -29.1720  -19.5160   20.5020 C   0  0  0  0  0  0  0  0  0  0  0  0
  -29.5320  -21.6150   21.7650 C   0  0  0  0  0  0  0  0  0  0  0  0
  -28.5940  -20.3750   19.5150 C   0  0  0  0  0  0  0  0  0  0  0  0
  -28.9040  -22.3910   20.7500 C   0  0  0  0  0  0  0  0  0  0  0  0
  -30.0780  -22.2810   23.0180 C   0  0  0  0  0  1  0  0  0  0  0  0
  -28.4490  -21.7360   19.6500 N   0  0  0  0  0  0  0  0  0  0  0  0
  -30.5990  -14.7580   20.3490 C   0  0  0  0  0  0  0  0  0  0  0  0
  -30.4040  -12.5010   19.3230 C   0  0  0  0  0  2  0  0  0  0  0  0
  -29.4600  -12.5880   18.1040 C   0  0  0  0  0  2  0  0  0  0  0  0
  -27.9900  -12.4190   18.5410 C   0  0  0  0  0  2  0  0  0  0  0  0
  -27.6210  -13.2980   19.7660 C   0  0  0  0  0  3  0  0  0  0  0  0
  -28.6830  -13.1990   20.8820 C   0  0  0  0  0  2  0  0  0  0  0  0
  -29.9760  -13.5390   20.2820 N   0  0  0  0  0  0  0  0  0  0  0  0
  -31.7900  -14.8700   20.0440 O   0  0  0  0  0  0  0  0  0  0  0  0
  -29.9110  -17.0050   19.4330 C   0  0  0  0  0  2  0  0  0  0  0  0
  -29.8080  -16.9390   21.4510 C   0  0  0  0  0  2  0  0  0  0  0  0
  -29.1750  -17.9270   20.4310 C   0  0  0  0  0  3  0  0  0  0  0  0
  -29.7820  -15.8750   20.4040 N   0  0  0  0  0  0  0  0  0  0  0  0
  -25.2330  -13.8780   20.5070 C   0  0  0  0  0  0  0  0  0  0  0  0
  -24.1720  -13.0990   20.8750 C   0  0  0  0  0  0  0  0  0  0  0  0
  -24.6380  -11.7490   20.8340 C   0  0  0  0  0  0  0  0  0  0  0  0
  -26.2790  -13.0030   20.2610 N   0  0  0  0  0  0  0  0  0  0  0  0
  -25.9280  -11.7170   20.5210 N   0  0  0  0  0  0  0  0  0  0  0  0
  -23.9170  -10.4830   21.0190 C   0  0  0  0  0  0  0  0  0  0  0  0
  -24.3410   -9.5220   21.9640 C   0  0  0  0  0  3  0  0  0  0  0  0
  -23.6200   -8.3210   22.1360 C   0  0  0  0  0  3  0  0  0  0  0  0
  -22.4610   -8.0710   21.3620 C   0  0  0  0  0  0  0  0  0  0  0  0
  -22.0570   -9.0200   20.4070 C   0  0  0  0  0  3  0  0  0  0  0  0
  -22.7780  -10.2120   20.2330 C   0  0  0  0  0  3  0  0  0  0  0  0
  -21.7120   -6.9220   21.4430 O   0  0  0  0  0  0  0  0  0  0  0  0
  -21.6220   -6.2030   22.6080 C   0  0  0  0  0  0  0  0  0  0  0  0
  -21.1030   -6.7670   23.7940 C   0  0  0  0  0  3  0  0  0  0  0  0
  -20.9620   -5.9720   24.9490 C   0  0  0  0  0  3  0  0  0  0  0  0
  -21.3300   -4.6130   24.9180 C   0  0  0  0  0  0  0  0  0  0  0  0
  -21.8400   -4.0490   23.7370 C   0  0  0  0  0  3  0  0  0  0  0  0
  -21.9840   -4.8400   22.5840 C   0  0  0  0  0  0  0  0  0  0  0  0
  -22.4560   -4.2860   21.4430 F   0  0  0  0  0  0  0  0  0  0  0  0
  -21.1870   -3.8480   26.0250 F   0  0  0  0  0  0  0  0  0  0  0  0
  -22.7730  -13.5680   21.1540 C   0  0  0  0  0  0  0  0  0  0  0  0
  -22.0530  -12.8690   22.0250 N   0  0  0  0  0  0  0  0  0  0  0  0
  -22.3270  -14.5900   20.6340 O   0  0  0  0  0  0  0  0  0  0  0  0
  -22.4270  -12.0430   22.4680 H   0  0  0  0  0  0  0  0  0  0  0  0
  -21.1160  -13.1680   22.2530 H   0  0  0  0  0  0  0  0  0  0  0  0
  -25.3950  -15.2500   20.3400 N   0  0  0  0  0  0  0  0  0  0  0  0
  -24.6340  -15.9090   20.4660 H   0  0  0  0  0  0  0  0  0  0  0  0
  -26.2550  -15.6910   20.0380 H   0  0  0  0  0  0  0  0  0  0  0  0
  -28.9630  -19.2750   17.1680 C   0  0  0  0  0  2  0  0  0  0  0  0
  -28.2530  -20.5760   16.9160 C   0  0  0  0  0  2  0  0  0  0  0  0
  -28.0400  -19.8400   18.2270 C   0  0  0  0  0  3  0  0  0  0  0  0
  -29.8010  -24.7440   20.1240 C   0  0  0  0  0  2  0  0  0  0  0  0
  -28.7530  -23.9620   20.8680 C   0  0  0  0  0  3  0  0  0  0  0  0
  -28.3680  -25.1320   19.8650 C   0  0  0  0  0  3  0  0  0  0  0  0
  -28.3620  -26.5750   20.2310 O   0  0  0  0  0  0  0  0  0  0  0  0
  -24.6470  -31.9340   23.2790 C   0  0  0  0  0  0  0  0  0  0  0  0
  -27.2160  -27.3810   20.1820 C   0  0  0  0  0  0  0  0  0  0  0  0
  -23.4240  -30.5500   21.6380 C   0  0  0  0  0  3  0  0  0  0  0  0
  -24.8550  -28.9970   20.1910 C   0  0  0  0  0  0  0  0  0  0  0  0
  -25.9600  -30.8610   21.4340 C   0  0  0  0  0  2  0  0  0  0  0  0
  -26.0280  -29.4840   20.7810 C   0  0  0  0  0  0  0  0  0  0  0  0
  -27.2090  -28.6880   20.7620 C   0  0  0  0  0  3  0  0  0  0  0  0
  -26.0200  -26.9360   19.5780 C   0  0  0  0  0  3  0  0  0  0  0  0
  -24.8550  -27.7300   19.5810 C   0  0  0  0  0  3  0  0  0  0  0  0
  -23.6230  -29.8780   20.2530 C   0  0  0  0  0  2  0  0  0  0  0  0
  -24.6970  -31.1320   22.1750 N   0  0  0  0  0  0  0  0  0  0  0  0
  -23.5690  -32.2160   23.8220 O   0  0  0  0  0  0  0  0  0  0  0  0
  -22.7630  -29.5350   22.5990 C   0  0  0  0  0  0  0  0  0  0  0  0
  -21.4370  -29.3520   22.4670 N   0  0  0  0  0  0  0  0  0  0  0  0
  -23.4400  -28.9120   23.4220 O   0  0  0  0  0  0  0  0  0  0  0  0
  -20.9510  -29.9070   21.7770 H   0  0  0  0  0  0  0  0  0  0  0  0
  -18.0620  -28.1450   22.9490 C   0  0  0  0  0  0  0  0  0  0  0  0
  -20.6170  -28.4130   23.2340 C   0  0  0  0  0  3  0  0  0  0  0  0
  -20.7280  -26.9820   22.6620 C   0  0  0  0  0  2  0  0  0  0  0  0
  -19.6330  -26.6540   21.6420 C   0  0  0  0  0  2  0  0  0  0  0  0
  -18.2470  -26.7950   22.2770 C   0  0  0  0  0  2  0  0  0  0  0  0
  -19.1750  -28.9120   23.3840 C   0  0  0  0  0  0  0  0  0  0  0  0
  -18.9490  -30.1740   23.9730 C   0  0  0  0  0  3  0  0  0  0  0  0
  -17.6410  -30.6710   24.1320 C   0  0  0  0  0  3  0  0  0  0  0  0
  -16.5410  -29.9030   23.7110 C   0  0  0  0  0  3  0  0  0  0  0  0
  -16.7530  -28.6410   23.1270 C   0  0  0  0  0  3  0  0  0  0  0  0
  -25.9380  -32.5540   23.8980 C   0  0  0  0  0  3  0  0  0  0  0  0
  -25.6390  -33.9530   24.2400 N   0  0  0  0  0  0  0  0  0  0  0  0
  -25.9380  -35.0060   23.4670 C   0  0  0  0  0  0  0  0  0  0  0  0
  -26.5650  -34.9020   22.4100 O   0  0  0  0  0  0  0  0  0  0  0  0
  -25.0760  -34.1080   25.0640 H   0  0  0  0  0  0  0  0  0  0  0  0
  -24.1840  -36.7880   23.1990 C   0  0  0  0  0  1  0  0  0  0  0  0
  -25.4700  -36.3940   23.9440 C   0  0  0  0  0  3  0  0  0  0  0  0
  -27.6380  -37.3000   24.6570 C   0  0  0  0  0  1  0  0  0  0  0  0
  -26.4890  -37.4530   23.7690 N   0  0  0  0  0  0  0  0  0  0  0  0
  -26.0860  -38.3720   23.9260 H   0  0  0  0  0  0  0  0  0  0  0  0
  -26.4560  -31.7710   25.1660 C   0  0  1  0  0  0  0  0  0  0  0  0
  -25.3660  -31.5330   26.2380 C   0  0  0  0  0  1  0  0  0  0  0  0
  -27.0290  -30.3940   24.7610 C   0  0  0  0  0  1  0  0  0  0  0  0
  -27.6140  -32.5550   25.8280 C   0  0  0  0  0  1  0  0  0  0  0  0
  1  3  1  0
  2  1  2  0
  3  6  1  0
  4  7  2  0
  4  2  1  0
  5  3  2  0
  7  5  1  0
  8 19  1  0
  9 14  1  0
 10 11  1  0
 10  9  1  0
 12 11  1  0
 12 23  1  0
 12 13  1  0
 14  8  1  0
 14 13  1  0
 15  8  2  0
 16 19  1  0
 16 18  1  0
 18  2  1  0
 18 17  1  0
 19 17  1  0
 20 21  2  0
 21 40  1  0
 22 21  1  0
 22 25  1  0
 23 20  1  0
 23 24  1  0
 24 22  2  0
 25 26  1  0
 26 27  2  0
 28 31  1  0
 28 27  1  0
 29 28  2  0
 30 29  1  0
 30 25  2  0
 31 32  1  0
 32 33  1  0
 33 34  2  0
 35 34  1  0
 35 39  1  0
 36 35  2  0
 37 32  2  0
 37 36  1  0
 38 37  1  0
 40 41  1  0
 41 44  1  0
 41 43  1  0
 42 40  2  0
 45 46  1  0
 45 20  1  0
 47 45  1  0
 48 50  1  0
 49 48  1  0
 49 50  1  0
 50  4  1  0
 51 52  1  0
 52  5  1  0
 53 51  1  0
 53 54  1  0
 53 52  1  0
 55 66  2  0
 56 54  1  0
 56 61  1  0
 57 65  1  0
 57 67  1  0
 58 64  1  0
 58 60  1  0
 59 65  1  0
 60 59  1  0
 61 60  2  0
 62 63  1  0
 62 56  2  0
 63 58  2  0
 64 57  1  0
 65 55  1  0
 67 69  2  0
 68 67  1  0
 70 68  1  0
 71 80  2  0
 71 76  1  0
 72 68  1  0
 72 76  1  0
 73 72  1  0
 74 75  1  0
 74 73  1  0
 75 71  1  0
 76 77  2  0
 77 78  1  0
 79 78  2  0
 80 79  1  0
 81 55  1  0
 81 82  1  0
 81 91  1  0
 82 85  1  0
 83 87  1  0
 83 82  1  0
 84 83  2  0
 87 86  1  0
 89 90  1  0
 89 87  1  0
 89 88  1  0
 91 94  1  1
 91 92  1  0
 93 91  1  0
M  ISO  4   8 100  19 100  53 101  54 101
M  END
>  <TORSDO>  (30) 
F 18

>  <SCORE>  (30) 
-15.087

>  <name>  (30) 
29

>  <ligand_id>  (30) 
29

>  <original_smiles>  (30) 
[H]c1c([H])c([H])c2c(c1[H])C([H])([H])C([H])([H])C([H])([H])C2([H])N([H])C(=O)C1([H])N(C(=O)C([H])(N([H])C(=O)C([H])(N([H])C([H])([H])[H])C([H])([H])[H])C(C([H])([H])[H])(C([H])([H])[H])C([H])([H])[H])C([H])([H])c2c([H])c(OC3([H])C([H])([H])C3([H])c3nc(C4([H])C([H])([H])C4([H])[H])c(C4([H])C([H])([H])N(C(=O)N5C([H])([H])C([H])([H])C([H])([H])C([H])(n6nc(-c7c([H])c([H])c(Oc8c([H])c([H])c(F)c([H])c8F)c([H])c7[H])c(C(=O)N([H])[H])c6N([H])[H])C5([H])[H])C4([H])[H])c([H])c3C([H])([H])[H])c([H])c([H])c2C1([H])[H]

>  <smiles>  (30) 
[H]c1c([H])c([H])c2c(c1[H])C([H])([H])C([H])([H])C([H])([H])C2([H])N([H])C(=O)C1([H])N(C(=O)C([H])(N([H])C(=O)C([H])(N([H])C([H])([H])[H])C([H])([H])[H])C(C([H])([H])[H])(C([H])([H])[H])C([H])([H])[H])C([H])([H])c2c([H])c(OC3([H])C([H])([H])C3([H])c3nc(C4([H])C([H])([H])C4([H])[H])c(C4([H])C([H])([H])N(C(=O)N5C([H])([H])C([H])([H])C([H])([H])C([H])(n6nc(-c7c([H])c([H])c(Oc8c([H])c([H])c(F)c([H])c8F)c([H])c7[H])c(C(=O)N([H])[H])c6N([H])[H])C5([H])[H])C4([H])[H])c([H])c3C([H])([H])[H])c([H])c([H])c2C1([H])[H]

$$$$
30:0:0
     RDKit          3D

 96106  0  0  1  0  0  0  0  0999 V2000
  -29.8480  -19.7540   21.4920 C   0  0  0  0  0  3  0  0  0  0  0  0
  -29.1520  -23.4470   22.0970 C   0  0  0  0  0  3  0  0  0  0  0  0
  -29.2120  -21.1030   19.1160 C   0  0  0  0  0  3  0  0  0  0  0  0
  -29.5340  -21.1740   21.4920 C   0  0  0  0  0  0  0  0  0  0  0  0
  -29.2140  -21.9090   20.3130 C   0  0  0  0  0  0  0  0  0  0  0  0
  -29.5120  -22.1150   22.5750 C   0  0  0  0  0  0  0  0  0  0  0  0
  -28.9700  -23.3850   20.6600 C   0  0  0  0  0  0  0  0  0  0  0  0
  -29.8650  -18.9930   20.2700 C   0  0  0  0  0  0  0  0  0  0  0  0
  -29.5370  -19.7300   19.1280 N   0  0  0  0  0  0  0  0  0  0  0  0
  -31.1710  -21.3900   24.4840 C   0  0  0  0  0  2  0  0  0  0  0  0
  -30.6080  -22.7420   24.8610 C   0  0  0  0  0  2  0  0  0  0  0  0
  -29.7960  -21.7930   24.0100 C   0  0  0  0  0  3  0  0  0  0  0  0
  -30.8440  -19.4090   17.0410 C   0  0  0  0  0  1  0  0  0  0  0  0
  -29.5610  -19.0810   17.8190 C   0  0  0  0  0  2  0  0  0  0  0  0
  -29.4220  -24.8580   18.5870 C   0  0  0  0  0  1  0  0  0  0  0  0
  -28.5330  -24.7180   19.8280 C   0  0  0  0  0  3  0  0  0  0  0  0
  -28.5190  -26.1350   20.4560 O   0  0  0  0  0  0  0  0  0  0  0  0
  -24.6130  -31.6980   23.2080 C   0  0  0  0  0  0  0  0  0  0  0  0
  -27.4460  -27.0800   20.2850 C   0  0  0  0  0  0  0  0  0  0  0  0
  -23.5280  -30.2800   21.5100 C   0  0  0  0  0  3  0  0  0  0  0  0
  -25.0800  -28.7530   20.1450 C   0  0  0  0  0  0  0  0  0  0  0  0
  -26.0750  -30.6100   21.4690 C   0  0  0  0  0  2  0  0  0  0  0  0
  -26.2130  -29.2260   20.8180 C   0  0  0  0  0  0  0  0  0  0  0  0
  -27.3930  -28.3990   20.8830 C   0  0  0  0  0  3  0  0  0  0  0  0
  -26.2970  -26.7150   19.5490 C   0  0  0  0  0  3  0  0  0  0  0  0
  -25.1330  -27.5110   19.4970 C   0  0  0  0  0  3  0  0  0  0  0  0
  -23.8300  -29.6160   20.1390 C   0  0  0  0  0  2  0  0  0  0  0  0
  -24.7570  -30.8820   22.1200 N   0  0  0  0  0  0  0  0  0  0  0  0
  -23.4950  -31.9590   23.6800 O   0  0  0  0  0  0  0  0  0  0  0  0
  -22.8270  -29.2520   22.4310 C   0  0  0  0  0  0  0  0  0  0  0  0
  -21.5010  -29.0990   22.2780 N   0  0  0  0  0  0  0  0  0  0  0  0
  -23.4790  -28.5940   23.2450 O   0  0  0  0  0  0  0  0  0  0  0  0
  -21.0330  -29.6830   21.6000 H   0  0  0  0  0  0  0  0  0  0  0  0
  -18.0860  -28.0090   22.7710 C   0  0  0  0  0  0  0  0  0  0  0  0
  -20.6560  -28.1520   23.0110 C   0  0  0  0  0  3  0  0  0  0  0  0
  -20.6930  -26.7540   22.3520 C   0  0  0  0  0  2  0  0  0  0  0  0
  -19.5630  -26.5340   21.3420 C   0  0  0  0  0  2  0  0  0  0  0  0
  -18.1970  -26.6960   22.0160 C   0  0  0  0  0  2  0  0  0  0  0  0
  -19.2410  -28.7010   23.2230 C   0  0  0  0  0  0  0  0  0  0  0  0
  -19.0800  -29.9340   23.8910 C   0  0  0  0  0  3  0  0  0  0  0  0
  -17.8010  -30.4740   24.1110 C   0  0  0  0  0  3  0  0  0  0  0  0
  -16.6600  -29.7750   23.6800 C   0  0  0  0  0  3  0  0  0  0  0  0
  -16.8030  -28.5460   23.0140 C   0  0  0  0  0  3  0  0  0  0  0  0
  -25.8420  -32.3590   23.9000 C   0  0  0  0  0  3  0  0  0  0  0  0
  -26.2930  -31.6050   25.2120 C   0  0  1  0  0  0  0  0  0  0  0  0
  -25.1390  -31.3400   26.2090 C   0  0  0  0  0  1  0  0  0  0  0  0
  -26.9350  -30.2440   24.8590 C   0  0  0  0  0  1  0  0  0  0  0  0
  -27.3800  -32.4290   25.9440 C   0  0  0  0  0  1  0  0  0  0  0  0
  -25.4900  -33.7530   24.2060 N   0  0  0  0  0  0  0  0  0  0  0  0
  -25.8240  -34.8100   23.4530 C   0  0  0  0  0  0  0  0  0  0  0  0
  -26.5270  -34.7140   22.4440 O   0  0  0  0  0  0  0  0  0  0  0  0
  -24.8620  -33.8980   24.9840 H   0  0  0  0  0  0  0  0  0  0  0  0
  -24.0530  -36.5560   23.0590 C   0  0  0  0  0  1  0  0  0  0  0  0
  -25.2940  -36.1920   23.8900 C   0  0  0  0  0  3  0  0  0  0  0  0
  -27.3880  -37.1450   24.7460 C   0  0  0  0  0  1  0  0  0  0  0  0
  -26.3010  -37.2700   23.7800 N   0  0  0  0  0  0  0  0  0  0  0  0
  -25.8700  -38.1820   23.9100 H   0  0  0  0  0  0  0  0  0  0  0  0
  -30.5600  -17.4920   20.2190 C   0  0  0  0  0  2  0  0  0  0  0  0
  -30.6210  -14.8170   20.1380 C   0  0  0  0  0  0  0  0  0  0  0  0
  -30.3420  -12.5270   19.1160 C   0  0  0  0  0  2  0  0  0  0  0  0
  -29.3510  -12.5590   17.9300 C   0  0  0  0  0  2  0  0  0  0  0  0
  -27.9120  -12.3570   18.4320 C   0  0  0  0  0  2  0  0  0  0  0  0
  -27.5810  -13.2530   19.6530 C   0  0  0  0  0  3  0  0  0  0  0  0
  -28.6900  -13.2160   20.7270 C   0  0  0  0  0  2  0  0  0  0  0  0
  -29.9450  -13.6030   20.0680 N   0  0  0  0  0  0  0  0  0  0  0  0
  -31.8080  -14.8230   19.7980 O   0  0  0  0  0  0  0  0  0  0  0  0
  -29.9620  -16.0490   20.3690 N   0  0  0  0  0  0  0  0  0  0  0  0
  -28.9850  -16.0000   20.6090 H   0  0  0  0  0  0  0  0  0  0  0  0
  -25.2390  -13.8410   20.5080 C   0  0  0  0  0  0  0  0  0  0  0  0
  -24.1810  -13.0720   20.9020 C   0  0  0  0  0  0  0  0  0  0  0  0
  -24.6260  -11.7160   20.8190 C   0  0  0  0  0  0  0  0  0  0  0  0
  -26.2610  -12.9580   20.2040 N   0  0  0  0  0  0  0  0  0  0  0  0
  -25.9040  -11.6720   20.4570 N   0  0  0  0  0  0  0  0  0  0  0  0
  -23.8910  -10.4590   21.0090 C   0  0  0  0  0  0  0  0  0  0  0  0
  -24.3260   -9.4780   21.9270 C   0  0  0  0  0  3  0  0  0  0  0  0
  -23.5910   -8.2860   22.1050 C   0  0  0  0  0  3  0  0  0  0  0  0
  -22.4050   -8.0660   21.3660 C   0  0  0  0  0  0  0  0  0  0  0  0
  -21.9870   -9.0350   20.4370 C   0  0  0  0  0  3  0  0  0  0  0  0
  -22.7230  -10.2180   20.2570 C   0  0  0  0  0  3  0  0  0  0  0  0
  -21.6400   -6.9270   21.4540 O   0  0  0  0  0  0  0  0  0  0  0  0
  -21.5650   -6.2000   22.6140 C   0  0  0  0  0  0  0  0  0  0  0  0
  -21.1070   -6.7690   23.8220 C   0  0  0  0  0  3  0  0  0  0  0  0
  -20.9780   -5.9690   24.9740 C   0  0  0  0  0  3  0  0  0  0  0  0
  -21.2990   -4.5980   24.9190 C   0  0  0  0  0  0  0  0  0  0  0  0
  -21.7480   -4.0280   23.7170 C   0  0  0  0  0  3  0  0  0  0  0  0
  -21.8780   -4.8260   22.5660 C   0  0  0  0  0  0  0  0  0  0  0  0
  -22.2920   -4.2670   21.4040 F   0  0  0  0  0  0  0  0  0  0  0  0
  -21.1680   -3.8270   26.0240 F   0  0  0  0  0  0  0  0  0  0  0  0
  -22.8030  -13.5590   21.2420 C   0  0  0  0  0  0  0  0  0  0  0  0
  -22.1050  -12.8570   22.1270 N   0  0  0  0  0  0  0  0  0  0  0  0
  -22.3570  -14.6000   20.7580 O   0  0  0  0  0  0  0  0  0  0  0  0
  -22.4800  -12.0140   22.5370 H   0  0  0  0  0  0  0  0  0  0  0  0
  -21.1830  -13.1660   22.3990 H   0  0  0  0  0  0  0  0  0  0  0  0
  -25.4180  -15.2130   20.3530 N   0  0  0  0  0  0  0  0  0  0  0  0
  -24.6680  -15.8790   20.5000 H   0  0  0  0  0  0  0  0  0  0  0  0
  -26.2560  -15.6400   19.9820 H   0  0  0  0  0  0  0  0  0  0  0  0
  2  6  1  0
  3  9  1  0
  3  5  2  0
  4  1  1  0
  4  6  2  0
  5  7  1  0
  5  4  1  0
  6 12  1  0
  7  2  2  0
  8  1  2  0
  9  8  1  0
 10 11  1  0
 12 10  1  0
 12 11  1  0
 13 14  1  0
 14  9  1  0
 16 15  1  0
 16 17  1  0
 16  7  1  0
 18 29  2  0
 19 17  1  0
 19 24  1  0
 20 28  1  0
 20 30  1  0
 21 23  1  0
 22 28  1  0
 23 24  2  0
 23 22  1  0
 25 19  2  0
 26 25  1  0
 26 21  2  0
 27 21  1  0
 27 20  1  0
 28 18  1  0
 30 32  2  0
 31 30  1  0
 33 31  1  0
 34 43  2  0
 34 39  1  0
 35 31  1  0
 35 39  1  0
 36 35  1  0
 37 38  1  0
 37 36  1  0
 38 34  1  0
 39 40  2  0
 40 41  1  0
 42 41  2  0
 43 42  1  0
 44 18  1  0
 44 49  1  0
 44 45  1  0
 45 48  1  1
 45 46  1  0
 47 45  1  0
 49 52  1  0
 50 54  1  0
 50 49  1  0
 51 50  2  0
 54 53  1  0
 56 54  1  0
 56 57  1  0
 56 55  1  0
 58  8  1  0
 58 67  1  0
 59 67  1  0
 60 65  1  0
 61 62  1  0
 61 60  1  0
 63 62  1  0
 63 72  1  0
 63 64  1  0
 65 59  1  0
 65 64  1  0
 66 59  2  0
 67 68  1  0
 69 70  2  0
 70 89  1  0
 71 70  1  0
 71 74  1  0
 72 73  1  0
 72 69  1  0
 73 71  2  0
 74 75  1  0
 75 76  2  0
 77 80  1  0
 77 76  1  0
 78 77  2  0
 79 78  1  0
 79 74  2  0
 80 81  1  0
 81 82  1  0
 82 83  2  0
 84 83  1  0
 84 88  1  0
 85 84  2  0
 86 81  2  0
 86 85  1  0
 87 86  1  0
 89 90  1  0
 90 93  1  0
 90 92  1  0
 91 89  2  0
 94 95  1  0
 94 69  1  0
 96 94  1  0
M  ISO  4  16 101  17 101  59 100  67 100
M  END
>  <TORSDO>  (31) 
F 20

>  <SCORE>  (31) 
-13.922

>  <name>  (31) 
30

>  <ligand_id>  (31) 
30

>  <original_smiles>  (31) 
[H]c1c([H])c([H])c2c(c1[H])C([H])([H])C([H])([H])C([H])([H])C2([H])N([H])C(=O)C1([H])N(C(=O)C([H])(N([H])C(=O)C([H])(N([H])C([H])([H])[H])C([H])([H])[H])C(C([H])([H])[H])(C([H])([H])[H])C([H])([H])[H])C([H])([H])c2c([H])c(OC([H])(c3c([H])c(C4([H])C([H])([H])C4([H])[H])c4c([H])c(C([H])([H])N([H])C(=O)N5C([H])([H])C([H])([H])C([H])([H])C([H])(n6nc(-c7c([H])c([H])c(Oc8c([H])c([H])c(F)c([H])c8F)c([H])c7[H])c(C(=O)N([H])[H])c6N([H])[H])C5([H])[H])n(C([H])([H])C([H])([H])[H])c([H])c3-4)C([H])([H])[H])c([H])c([H])c2C1([H])[H]

>  <smiles>  (31) 
[H]c1c([H])c([H])c2c(c1[H])C([H])([H])C([H])([H])C([H])([H])C2([H])N([H])C(=O)C1([H])N(C(=O)C([H])(N([H])C(=O)C([H])(N([H])C([H])([H])[H])C([H])([H])[H])C(C([H])([H])[H])(C([H])([H])[H])C([H])([H])[H])C([H])([H])c2c([H])c(OC([H])(c3c([H])c(C4([H])C([H])([H])C4([H])[H])c4c([H])c(C([H])([H])N([H])C(=O)N5C([H])([H])C([H])([H])C([H])([H])C([H])(n6nc(-c7c([H])c([H])c(Oc8c([H])c([H])c(F)c([H])c8F)c([H])c7[H])c(C(=O)N([H])[H])c6N([H])[H])C5([H])[H])n(C([H])([H])C([H])([H])[H])c([H])c3-4)C([H])([H])[H])c([H])c([H])c2C1([H])[H]

$$$$
31:0:0
     RDKit          3D

 96106  0  0  1  0  0  0  0  0999 V2000
  -29.8460  -21.7980   19.9870 C   0  0  0  0  0  3  0  0  0  0  0  0
  -30.5460  -14.7890   20.3550 C   0  0  0  0  0  0  0  0  0  0  0  0
  -30.3890  -12.5170   19.3250 C   0  0  0  0  0  2  0  0  0  0  0  0
  -29.4410  -12.6150   18.1070 C   0  0  0  0  0  2  0  0  0  0  0  0
  -27.9710  -12.4390   18.5380 C   0  0  0  0  0  2  0  0  0  0  0  0
  -27.6020  -13.3020   19.7740 C   0  0  0  0  0  3  0  0  0  0  0  0
  -28.6650  -13.1760   20.8880 C   0  0  0  0  0  2  0  0  0  0  0  0
  -29.9610  -13.5440   20.2970 N   0  0  0  0  0  0  0  0  0  0  0  0
  -31.7360  -14.9360   20.0540 O   0  0  0  0  0  0  0  0  0  0  0  0
  -28.7930  -19.4210   19.5190 C   0  0  0  0  0  3  0  0  0  0  0  0
  -28.8140  -17.9960   19.6230 C   0  0  0  0  0  3  0  0  0  0  0  0
  -29.7020  -20.2270   20.2480 C   0  0  0  0  0  0  0  0  0  0  0  0
  -30.5810  -19.4670   21.0850 C   0  0  0  0  0  0  0  0  0  0  0  0
  -29.7670  -17.3070   20.4190 C   0  0  0  0  0  0  0  0  0  0  0  0
  -30.6060  -18.0880   21.1530 N   0  0  0  0  0  0  0  0  0  0  0  0
  -29.6650  -15.8420   20.5070 N   0  0  0  0  0  0  0  0  0  0  0  0
  -28.7160  -15.5130   20.5510 H   0  0  0  0  0  0  0  0  0  0  0  0
  -25.2140  -13.8880   20.5080 C   0  0  0  0  0  0  0  0  0  0  0  0
  -24.1500  -13.1090   20.8790 C   0  0  0  0  0  0  0  0  0  0  0  0
  -24.6170  -11.7600   20.8390 C   0  0  0  0  0  0  0  0  0  0  0  0
  -26.2580  -13.0110   20.2630 N   0  0  0  0  0  0  0  0  0  0  0  0
  -25.9060  -11.7260   20.5230 N   0  0  0  0  0  0  0  0  0  0  0  0
  -23.8950  -10.4940   21.0220 C   0  0  0  0  0  0  0  0  0  0  0  0
  -24.3180   -9.5340   21.9680 C   0  0  0  0  0  3  0  0  0  0  0  0
  -23.5970   -8.3330   22.1380 C   0  0  0  0  0  3  0  0  0  0  0  0
  -22.4390   -8.0840   21.3620 C   0  0  0  0  0  0  0  0  0  0  0  0
  -22.0390   -9.0320   20.4050 C   0  0  0  0  0  3  0  0  0  0  0  0
  -22.7600  -10.2240   20.2330 C   0  0  0  0  0  3  0  0  0  0  0  0
  -21.6930   -6.9330   21.4410 O   0  0  0  0  0  0  0  0  0  0  0  0
  -21.6030   -6.2110   22.6030 C   0  0  0  0  0  0  0  0  0  0  0  0
  -21.0880   -6.7720   23.7930 C   0  0  0  0  0  3  0  0  0  0  0  0
  -20.9490   -5.9750   24.9450 C   0  0  0  0  0  3  0  0  0  0  0  0
  -21.3150   -4.6160   24.9110 C   0  0  0  0  0  0  0  0  0  0  0  0
  -21.8250   -4.0540   23.7280 C   0  0  0  0  0  3  0  0  0  0  0  0
  -21.9660   -4.8480   22.5770 C   0  0  0  0  0  0  0  0  0  0  0  0
  -22.4370   -4.2960   21.4330 F   0  0  0  0  0  0  0  0  0  0  0  0
  -21.1750   -3.8480   26.0160 F   0  0  0  0  0  0  0  0  0  0  0  0
  -22.7530  -13.5800   21.1580 C   0  0  0  0  0  0  0  0  0  0  0  0
  -22.0340  -12.8700   22.0190 N   0  0  0  0  0  0  0  0  0  0  0  0
  -22.3110  -14.6090   20.6490 O   0  0  0  0  0  0  0  0  0  0  0  0
  -22.4100  -12.0360   22.4470 H   0  0  0  0  0  0  0  0  0  0  0  0
  -21.0950  -13.1590   22.2550 H   0  0  0  0  0  0  0  0  0  0  0  0
  -25.3720  -15.2590   20.3320 N   0  0  0  0  0  0  0  0  0  0  0  0
  -24.5890  -15.8980   20.4270 H   0  0  0  0  0  0  0  0  0  0  0  0
  -26.1810  -15.6930   19.9120 H   0  0  0  0  0  0  0  0  0  0  0  0
  -32.7920  -20.8340   21.5750 C   0  0  0  0  0  2  0  0  0  0  0  0
  -32.9040  -19.5330   22.3190 C   0  0  0  0  0  2  0  0  0  0  0  0
  -31.5360  -20.1270   22.0420 C   0  0  0  0  0  3  0  0  0  0  0  0
  -28.1390  -23.9540   19.3740 C   0  0  0  0  0  2  0  0  0  0  0  0
  -29.2150  -24.2360   21.1030 C   0  0  0  0  0  2  0  0  0  0  0  0
  -28.7580  -22.9110   20.3930 C   0  0  0  0  0  3  0  0  0  0  0  0
  -28.0410  -25.0500   20.4850 C   0  0  0  0  0  3  0  0  0  0  0  0
  -28.2760  -26.5010   20.2080 O   0  0  0  0  0  0  0  0  0  0  0  0
  -24.5430  -31.9080   23.2650 C   0  0  0  0  0  0  0  0  0  0  0  0
  -27.1630  -27.3620   20.1770 C   0  0  0  0  0  0  0  0  0  0  0  0
  -23.3430  -30.5230   21.6120 C   0  0  0  0  0  3  0  0  0  0  0  0
  -24.7960  -28.9760   20.1800 C   0  0  0  0  0  0  0  0  0  0  0  0
  -25.8840  -30.8410   21.4350 C   0  0  0  0  0  2  0  0  0  0  0  0
  -25.9680  -29.4660   20.7740 C   0  0  0  0  0  0  0  0  0  0  0  0
  -27.1550  -28.6720   20.7560 C   0  0  0  0  0  3  0  0  0  0  0  0
  -25.9680  -26.9250   19.5660 C   0  0  0  0  0  3  0  0  0  0  0  0
  -24.7980  -27.7110   19.5700 C   0  0  0  0  0  3  0  0  0  0  0  0
  -23.5610  -29.8540   20.2300 C   0  0  0  0  0  2  0  0  0  0  0  0
  -24.6100  -31.1070   22.1610 N   0  0  0  0  0  0  0  0  0  0  0  0
  -23.4570  -32.1850   23.7980 O   0  0  0  0  0  0  0  0  0  0  0  0
  -22.6780  -29.5010   22.5630 C   0  0  0  0  0  0  0  0  0  0  0  0
  -21.3540  -29.3180   22.4230 N   0  0  0  0  0  0  0  0  0  0  0  0
  -23.3510  -28.8760   23.3860 O   0  0  0  0  0  0  0  0  0  0  0  0
  -20.8700  -29.8820   21.7400 H   0  0  0  0  0  0  0  0  0  0  0  0
  -17.9770  -28.1100   22.8940 C   0  0  0  0  0  0  0  0  0  0  0  0
  -20.5320  -28.3730   23.1790 C   0  0  0  0  0  3  0  0  0  0  0  0
  -20.6390  -26.9450   22.5930 C   0  0  0  0  0  2  0  0  0  0  0  0
  -19.5430  -26.6280   21.5700 C   0  0  0  0  0  2  0  0  0  0  0  0
  -18.1580  -26.7670   22.2060 C   0  0  0  0  0  2  0  0  0  0  0  0
  -19.0910  -28.8710   23.3360 C   0  0  0  0  0  0  0  0  0  0  0  0
  -18.8670  -30.1290   23.9370 C   0  0  0  0  0  3  0  0  0  0  0  0
  -17.5610  -30.6260   24.1030 C   0  0  0  0  0  3  0  0  0  0  0  0
  -16.4610  -29.8640   23.6760 C   0  0  0  0  0  3  0  0  0  0  0  0
  -16.6680  -28.6070   23.0800 C   0  0  0  0  0  3  0  0  0  0  0  0
  -25.8230  -32.5340   23.8990 C   0  0  0  0  0  3  0  0  0  0  0  0
  -26.3160  -31.7700   25.1880 C   0  0  1  0  0  0  0  0  0  0  0  0
  -25.2060  -31.5470   26.2430 C   0  0  0  0  0  1  0  0  0  0  0  0
  -26.8960  -30.3850   24.8180 C   0  0  0  0  0  1  0  0  0  0  0  0
  -27.4660  -32.5580   25.8580 C   0  0  0  0  0  1  0  0  0  0  0  0
  -25.5220  -33.9390   24.2150 N   0  0  0  0  0  0  0  0  0  0  0  0
  -25.8700  -34.9830   23.4510 C   0  0  0  0  0  0  0  0  0  0  0  0
  -26.5480  -34.8660   22.4260 O   0  0  0  0  0  0  0  0  0  0  0  0
  -24.9160  -34.1030   25.0070 H   0  0  0  0  0  0  0  0  0  0  0  0
  -24.1650  -36.7940   23.0630 C   0  0  0  0  0  1  0  0  0  0  0  0
  -25.3910  -36.3790   23.8940 C   0  0  0  0  0  3  0  0  0  0  0  0
  -27.5220  -37.2490   24.7530 C   0  0  0  0  0  1  0  0  0  0  0  0
  -26.4360  -37.4220   23.7910 N   0  0  0  0  0  0  0  0  0  0  0  0
  -26.0360  -38.3470   23.9230 H   0  0  0  0  0  0  0  0  0  0  0  0
  -30.1160  -22.0290   18.6080 O   0  0  0  0  0  0  0  0  0  0  0  0
  -32.0060  -20.8730   17.7790 C   0  0  0  0  0  1  0  0  0  0  0  0
  -31.6030  -22.0790   18.4020 O   0  0  0  0  0  0  0  0  0  0  0  0
  1 94  1  0
  1 12  1  0
  2 16  1  0
  3  8  1  0
  4  5  1  0
  4  3  1  0
  6  5  1  0
  6 21  1  0
  6  7  1  0
  8  2  1  0
  8  7  1  0
  9  2  2  0
 10 11  2  0
 10 12  1  0
 11 14  1  0
 12 13  2  0
 13 15  1  0
 13 48  1  0
 14 16  1  0
 14 15  2  0
 16 17  1  0
 18 19  2  0
 19 38  1  0
 20 19  1  0
 20 23  1  0
 21 18  1  0
 21 22  1  0
 22 20  2  0
 23 24  1  0
 24 25  2  0
 26 29  1  0
 26 25  1  0
 27 26  2  0
 28 27  1  0
 28 23  2  0
 29 30  1  0
 30 31  1  0
 31 32  2  0
 33 32  1  0
 33 37  1  0
 34 33  2  0
 35 30  2  0
 35 34  1  0
 36 35  1  0
 38 39  1  0
 39 42  1  0
 39 41  1  0
 40 38  2  0
 43 44  1  0
 43 18  1  0
 45 43  1  0
 46 48  1  0
 46 47  1  0
 48 47  1  0
 49 51  1  0
 49 52  1  0
 51  1  1  0
 51 50  1  0
 52 53  1  0
 52 50  1  0
 54 65  2  0
 55 53  1  0
 55 60  1  0
 56 64  1  0
 56 66  1  0
 57 63  1  0
 57 59  1  0
 58 64  1  0
 59 58  1  0
 60 59  2  0
 61 62  1  0
 61 55  2  0
 62 57  2  0
 63 56  1  0
 64 54  1  0
 66 68  2  0
 67 66  1  0
 69 67  1  0
 70 79  2  0
 70 75  1  0
 71 67  1  0
 71 75  1  0
 72 71  1  0
 73 74  1  0
 73 72  1  0
 74 70  1  0
 75 76  2  0
 76 77  1  0
 78 77  2  0
 79 78  1  0
 80 54  1  0
 80 85  1  0
 80 81  1  0
 81 84  1  1
 81 82  1  0
 83 81  1  0
 85 88  1  0
 86 90  1  0
 86 85  1  0
 87 86  2  0
 90 89  1  0
 92 90  1  0
 92 93  1  0
 92 91  1  0
 95 96  1  0
 96 94  1  0
M  ISO  4   2 100  16 100  52 101  53 101
M  END
>  <TORSDO>  (32) 
F 20

>  <SCORE>  (32) 
-14.228

>  <name>  (32) 
31

>  <ligand_id>  (32) 
31

>  <original_smiles>  (32) 
[H]c1c(N([H])C(=O)N2C([H])([H])C([H])([H])C([H])([H])C([H])(n3nc(-c4c([H])c([H])c(Oc5c([H])c([H])c(F)c([H])c5F)c([H])c4[H])c(C(=O)N([H])[H])c3N([H])[H])C2([H])[H])nc(C2([H])C([H])([H])C2([H])[H])c(C([H])(OOC([H])([H])[H])C2([H])C([H])([H])C([H])(Oc3c([H])c([H])c4c(c3[H])C([H])([H])N(C(=O)C([H])(N([H])C(=O)C([H])(N([H])C([H])([H])[H])C([H])([H])[H])C(C([H])([H])[H])(C([H])([H])[H])C([H])([H])[H])C([H])(C(=O)N([H])C3([H])c5c([H])c([H])c([H])c([H])c5C([H])([H])C([H])([H])C3([H])[H])C4([H])[H])C2([H])[H])c1[H]

>  <smiles>  (32) 
[H]c1c(N([H])C(=O)N2C([H])([H])C([H])([H])C([H])([H])C([H])(n3nc(-c4c([H])c([H])c(Oc5c([H])c([H])c(F)c([H])c5F)c([H])c4[H])c(C(=O)N([H])[H])c3N([H])[H])C2([H])[H])nc(C2([H])C([H])([H])C2([H])[H])c(C([H])(OOC([H])([H])[H])C2([H])C([H])([H])C([H])(Oc3c([H])c([H])c4c(c3[H])C([H])([H])N(C(=O)C([H])(N([H])C(=O)C([H])(N([H])C([H])([H])[H])C([H])([H])[H])C(C([H])([H])[H])(C([H])([H])[H])C([H])([H])[H])C([H])(C(=O)N([H])C3([H])c5c([H])c([H])c([H])c([H])c5C([H])([H])C([H])([H])C3([H])[H])C4([H])[H])C2([H])[H])c1[H]

$$$$
32:0:0
     RDKit          3D

 99108  0  0  1  0  0  0  0  0999 V2000
  -28.1860  -21.9040   18.5950 C   0  0  0  0  0  2  0  0  0  0  0  0
  -29.6800  -19.9020   18.0820 C   0  0  0  0  0  3  0  0  0  0  0  0
  -28.1940  -20.4060   18.2240 C   0  0  0  0  0  3  0  0  0  0  0  0
  -30.4310  -21.2600   18.5270 C   0  0  0  0  0  3  0  0  0  0  0  0
  -27.2880  -20.1430   16.9950 C   0  0  0  0  0  1  0  0  0  0  0  0
  -31.7760  -21.4210   17.7990 C   0  0  0  0  0  1  0  0  0  0  0  0
  -29.4970  -22.4440   18.2290 N   0  0  2  0  0  4  0  0  0  0  0  0
  -29.4580  -22.5030   17.2220 H   0  0  0  0  0  0  0  0  0  0  0  0
  -29.9700  -18.4120   18.6910 C   0  0  0  0  0  3  0  0  0  0  0  0
  -29.6580  -18.2740   20.0610 C   0  0  0  0  0  0  0  0  0  0  0  0
  -30.7900  -18.3930   20.9140 C   0  0  0  0  0  0  0  0  0  0  0  0
  -32.0880  -18.3480   20.3190 C   0  0  0  0  0  0  0  0  0  0  0  0
  -32.2000  -17.8820   18.9710 C   0  0  0  0  0  0  0  0  0  0  0  0
  -31.0160  -17.4550   18.3370 C   0  0  0  0  0  3  0  0  0  0  0  0
  -28.2090  -18.0920   20.5330 C   0  0  0  0  0  1  0  0  0  0  0  0
  -30.6350  -18.6350   22.4060 C   0  0  0  0  0  1  0  0  0  0  0  0
  -33.3210  -18.6880   21.1410 C   0  0  0  0  0  1  0  0  0  0  0  0
  -33.5340  -17.6280   18.2950 C   0  0  0  0  0  1  0  0  0  0  0  0
  -31.6560  -14.9350   19.0110 C   0  0  0  0  0  0  0  0  0  0  0  0
  -31.4980  -12.4570   18.7520 C   0  0  0  0  0  2  0  0  0  0  0  0
  -30.5050  -12.1430   17.6220 C   0  0  0  0  0  2  0  0  0  0  0  0
  -29.0560  -12.0730   18.1560 C   0  0  0  0  0  2  0  0  0  0  0  0
  -28.6980  -13.2640   19.0880 C   0  0  0  0  0  3  0  0  0  0  0  0
  -29.8160  -13.5510   20.1140 C   0  0  0  0  0  2  0  0  0  0  0  0
  -31.0700  -13.7360   19.3630 N   0  0  0  0  0  0  0  0  0  0  0  0
  -32.8580  -14.9490   18.7260 O   0  0  0  0  0  0  0  0  0  0  0  0
  -30.8170  -16.0030   18.6900 N   0  0  0  0  0  0  0  0  0  0  0  0
  -29.8440  -15.7640   18.7850 H   0  0  0  0  0  0  0  0  0  0  0  0
  -26.4650  -14.0780   20.0710 C   0  0  0  0  0  0  0  0  0  0  0  0
  -25.3560  -13.4180   20.5130 C   0  0  0  0  0  0  0  0  0  0  0  0
  -25.6670  -12.0280   20.4210 C   0  0  0  0  0  0  0  0  0  0  0  0
  -27.3850  -13.1050   19.7150 N   0  0  0  0  0  0  0  0  0  0  0  0
  -26.9120  -11.8640   19.9890 N   0  0  0  0  0  0  0  0  0  0  0  0
  -24.8310  -10.8500   20.6650 C   0  0  0  0  0  0  0  0  0  0  0  0
  -25.1500   -9.9150   21.6770 C   0  0  0  0  0  3  0  0  0  0  0  0
  -24.3150   -8.8010   21.9110 C   0  0  0  0  0  3  0  0  0  0  0  0
  -23.1460   -8.6130   21.1340 C   0  0  0  0  0  0  0  0  0  0  0  0
  -22.8500   -9.5310   20.1110 C   0  0  0  0  0  3  0  0  0  0  0  0
  -23.6840  -10.6350   19.8740 C   0  0  0  0  0  3  0  0  0  0  0  0
  -22.2870   -7.5520   21.2700 O   0  0  0  0  0  0  0  0  0  0  0  0
  -22.0170   -7.0020   22.4980 C   0  0  0  0  0  0  0  0  0  0  0  0
  -21.5050   -7.7760   23.5620 C   0  0  0  0  0  3  0  0  0  0  0  0
  -21.1690   -7.1570   24.7820 C   0  0  0  0  0  3  0  0  0  0  0  0
  -21.3390   -5.7690   24.9390 C   0  0  0  0  0  0  0  0  0  0  0  0
  -21.8470   -4.9960   23.8790 C   0  0  0  0  0  3  0  0  0  0  0  0
  -22.1830   -5.6120   22.6600 C   0  0  0  0  0  0  0  0  0  0  0  0
  -22.6490   -4.8590   21.6340 F   0  0  0  0  0  0  0  0  0  0  0  0
  -21.0100   -5.1730   26.1090 F   0  0  0  0  0  0  0  0  0  0  0  0
  -24.0470  -14.0340   20.9130 C   0  0  0  0  0  0  0  0  0  0  0  0
  -23.3600  -13.4470   21.8850 N   0  0  0  0  0  0  0  0  0  0  0  0
  -23.6430  -15.0720   20.3810 O   0  0  0  0  0  0  0  0  0  0  0  0
  -23.6840  -12.5880   22.3060 H   0  0  0  0  0  0  0  0  0  0  0  0
  -22.4810  -13.8440   22.1930 H   0  0  0  0  0  0  0  0  0  0  0  0
  -26.7500  -15.4300   19.9250 N   0  0  0  0  0  0  0  0  0  0  0  0
  -26.0860  -16.1480   20.1900 H   0  0  0  0  0  0  0  0  0  0  0  0
  -27.6660  -15.8090   19.7330 H   0  0  0  0  0  0  0  0  0  0  0  0
  -29.7530  -23.9030   18.6930 C   0  0  0  0  0  3  0  0  0  0  0  0
  -28.4920  -24.9360   18.7520 C   0  0  0  0  0  3  0  0  0  0  0  0
  -28.5720  -26.3630   19.2340 O   0  0  0  0  0  0  0  0  0  0  0  0
  -24.7430  -31.2720   22.9940 C   0  0  0  0  0  0  0  0  0  0  0  0
  -27.4010  -27.1630   19.3420 C   0  0  0  0  0  0  0  0  0  0  0  0
  -23.5080  -29.9630   21.3040 C   0  0  0  0  0  3  0  0  0  0  0  0
  -24.9470  -28.6420   19.6450 C   0  0  0  0  0  0  0  0  0  0  0  0
  -26.0150  -30.4460   20.9940 C   0  0  0  0  0  2  0  0  0  0  0  0
  -26.1300  -29.1400   20.2050 C   0  0  0  0  0  0  0  0  0  0  0  0
  -27.3540  -28.4170   20.0380 C   0  0  0  0  0  3  0  0  0  0  0  0
  -26.1790  -26.7330   18.7680 C   0  0  0  0  0  3  0  0  0  0  0  0
  -24.9740  -27.4440   18.9180 C   0  0  0  0  0  3  0  0  0  0  0  0
  -23.6650  -29.4140   19.8630 C   0  0  0  0  0  2  0  0  0  0  0  0
  -24.7780  -30.5760   21.8200 N   0  0  0  0  0  0  0  0  0  0  0  0
  -23.6850  -31.4290   23.6220 O   0  0  0  0  0  0  0  0  0  0  0  0
  -22.9620  -28.8300   22.2090 C   0  0  0  0  0  0  0  0  0  0  0  0
  -21.6750  -28.4790   22.0310 N   0  0  0  0  0  0  0  0  0  0  0  0
  -23.6970  -28.2760   23.0310 O   0  0  0  0  0  0  0  0  0  0  0  0
  -21.1260  -28.9780   21.3430 H   0  0  0  0  0  0  0  0  0  0  0  0
  -18.5070  -26.7330   22.2820 C   0  0  0  0  0  0  0  0  0  0  0  0
  -20.9650  -27.4150   22.7440 C   0  0  0  0  0  3  0  0  0  0  0  0
  -21.3500  -26.0200   22.1960 C   0  0  0  0  0  2  0  0  0  0  0  0
  -20.3890  -25.5160   21.1090 C   0  0  0  0  0  2  0  0  0  0  0  0
  -18.9550  -25.4260   21.6490 C   0  0  0  0  0  2  0  0  0  0  0  0
  -19.4530  -27.6640   22.7920 C   0  0  0  0  0  0  0  0  0  0  0  0
  -18.9800  -28.8590   23.3720 C   0  0  0  0  0  3  0  0  0  0  0  0
  -17.5990  -29.1300   23.4530 C   0  0  0  0  0  3  0  0  0  0  0  0
  -16.6740  -28.2020   22.9580 C   0  0  0  0  0  3  0  0  0  0  0  0
  -17.1240  -27.0050   22.3760 C   0  0  0  0  0  3  0  0  0  0  0  0
  -26.0300  -31.9180   23.5970 C   0  0  0  0  0  3  0  0  0  0  0  0
  -26.6470  -31.0810   24.7830 C   0  0  1  0  0  0  0  0  0  0  0  0
  -25.6290  -30.7280   25.8870 C   0  0  0  0  0  1  0  0  0  0  0  0
  -27.2680  -29.7570   24.2730 C   0  0  0  0  0  1  0  0  0  0  0  0
  -27.8020  -31.8820   25.4370 C   0  0  0  0  0  1  0  0  0  0  0  0
  -25.6860  -33.2780   24.0410 N   0  0  0  0  0  0  0  0  0  0  0  0
  -25.9520  -34.3950   23.3550 C   0  0  0  0  0  0  0  0  0  0  0  0
  -26.5820  -34.3940   22.2940 O   0  0  0  0  0  0  0  0  0  0  0  0
  -25.1150  -33.3620   24.8680 H   0  0  0  0  0  0  0  0  0  0  0  0
  -24.1610  -36.1460   23.1920 C   0  0  0  0  0  1  0  0  0  0  0  0
  -25.4380  -35.7230   23.9350 C   0  0  0  0  0  3  0  0  0  0  0  0
  -27.5590  -36.6070   24.7890 C   0  0  0  0  0  1  0  0  0  0  0  0
  -26.4330  -36.8140   23.8810 N   0  0  0  0  0  0  0  0  0  0  0  0
  -26.0030  -37.7070   24.1030 H   0  0  0  0  0  0  0  0  0  0  0  0
  2  3  1  0
  2  4  1  0
  2  9  1  0
  3  5  1  0
  3  1  1  0
  4  6  1  0
  7  4  1  0
  7  1  1  0
  7 57  1  0
  7  8  1  6
  9 10  1  0
 10 15  1  0
 10 11  2  0
 11 16  1  0
 12 11  1  0
 12 17  1  0
 13 12  2  0
 14 27  1  0
 14  9  1  0
 14 13  1  0
 18 13  1  0
 19 25  1  0
 20 25  1  0
 21 22  1  0
 21 20  1  0
 23 22  1  0
 23 32  1  0
 23 24  1  0
 25 24  1  0
 26 19  2  0
 27 28  1  0
 27 19  1  0
 29 30  2  0
 30 49  1  0
 31 30  1  0
 31 34  1  0
 32 33  1  0
 32 29  1  0
 33 31  2  0
 34 35  1  0
 35 36  2  0
 37 40  1  0
 37 36  1  0
 38 37  2  0
 39 38  1  0
 39 34  2  0
 40 41  1  0
 41 46  2  0
 41 42  1  0
 42 43  2  0
 43 44  1  0
 44 48  1  0
 45 44  2  0
 46 45  1  0
 47 46  1  0
 49 50  1  0
 50 53  1  0
 50 52  1  0
 51 49  2  0
 54 29  1  0
 54 55  1  0
 56 54  1  0
 57 58  2  0
 58 59  1  0
 59 61  1  0
 60 71  2  0
 61 66  1  0
 62 70  1  0
 62 72  1  0
 63 69  1  0
 63 65  1  0
 64 70  1  0
 65 64  1  0
 66 65  2  0
 67 68  1  0
 67 61  2  0
 68 63  2  0
 69 62  1  0
 70 60  1  0
 72 74  2  0
 73 72  1  0
 75 73  1  0
 76 85  2  0
 76 81  1  0
 77 73  1  0
 77 81  1  0
 78 77  1  0
 79 80  1  0
 79 78  1  0
 80 76  1  0
 81 82  2  0
 82 83  1  0
 84 83  2  0
 85 84  1  0
 86 60  1  0
 86 91  1  0
 86 87  1  0
 87 90  1  1
 87 88  1  0
 89 87  1  0
 91 94  1  0
 92 96  1  0
 92 91  1  0
 93 92  2  0
 96 95  1  0
 98 96  1  0
 98 99  1  0
 98 97  1  0
M  ISO  4  19 100  27 100  58 101  59 101
M  END
>  <TORSDO>  (33) 
F 19

>  <SCORE>  (33) 
-11.089

>  <name>  (33) 
32

>  <ligand_id>  (33) 
32

>  <original_smiles>  (33) 
[H]c1c([H])c([H])c2c(c1[H])C([H])([H])C([H])([H])C([H])([H])C2([H])N([H])C(=O)C1([H])N(C(=O)C([H])(N([H])C(=O)C([H])(N([H])C([H])([H])[H])C([H])([H])[H])C(C([H])([H])[H])(C([H])([H])[H])C([H])([H])[H])C([H])([H])c2c([H])c(OC([H])([H])C([H])([H])[N+]3([H])C([H])([H])C([H])(C([H])([H])[H])C([H])(c4c(N([H])C(=O)N5C([H])([H])C([H])([H])C([H])([H])C([H])(n6nc(-c7c([H])c([H])c(Oc8c([H])c([H])c(F)c([H])c8F)c([H])c7[H])c(C(=O)N([H])[H])c6N([H])[H])C5([H])[H])c(C([H])([H])[H])c(C([H])([H])[H])c(C([H])([H])[H])c4C([H])([H])[H])C3([H])C([H])([H])[H])c([H])c([H])c2C1([H])[H]

>  <smiles>  (33) 
[H]c1c([H])c([H])c2c(c1[H])C([H])([H])C([H])([H])C([H])([H])C2([H])N([H])C(=O)C1([H])N(C(=O)C([H])(N([H])C(=O)C([H])(N([H])C([H])([H])[H])C([H])([H])[H])C(C([H])([H])[H])(C([H])([H])[H])C([H])([H])[H])C([H])([H])c2c([H])c(OC([H])([H])C([H])([H])[N+]3([H])C([H])([H])C([H])(C([H])([H])[H])C([H])(c4c(N([H])C(=O)N5C([H])([H])C([H])([H])C([H])([H])C([H])(n6nc(-c7c([H])c([H])c(Oc8c([H])c([H])c(F)c([H])c8F)c([H])c7[H])c(C(=O)N([H])[H])c6N([H])[H])C5([H])[H])c(C([H])([H])[H])c(C([H])([H])[H])c(C([H])([H])[H])c4C([H])([H])[H])C3([H])C([H])([H])[H])c([H])c([H])c2C1([H])[H]

$$$$
33:0:0
     RDKit          3D

 96108  0  0  1  0  0  0  0  0999 V2000
  -29.5320  -20.0040   20.5700 C   0  0  0  0  0  0  0  0  0  0  0  0
  -30.8140  -20.4040   21.0130 C   0  0  0  0  0  0  0  0  0  0  0  0
  -29.7000  -18.5230   19.9730 C   0  0  0  0  0  0  0  0  0  0  0  0
  -31.9030  -20.0960   20.1620 C   0  0  0  0  0  0  0  0  0  0  0  0
  -30.6590  -18.5710   18.9400 C   0  0  0  0  0  0  0  0  0  0  0  0
  -30.6460  -17.6280   17.7510 C   0  0  0  0  0  1  0  0  0  0  0  0
  -31.7620  -19.3340   19.0550 N   0  0  0  0  0  0  0  0  0  0  0  0
  -30.3590  -15.6300   20.4390 C   0  0  0  0  0  0  0  0  0  0  0  0
  -30.4980  -13.0910   19.7670 C   0  0  0  0  0  2  0  0  0  0  0  0
  -29.6630  -12.7130   18.5150 C   0  0  0  0  0  2  0  0  0  0  0  0
  -28.2140  -12.3830   18.9050 C   0  0  0  0  0  2  0  0  0  0  0  0
  -27.6570  -13.4030   19.9270 C   0  0  0  0  0  3  0  0  0  0  0  0
  -28.6320  -13.7210   21.0830 C   0  0  0  0  0  2  0  0  0  0  0  0
  -29.8550  -14.2780   20.4710 N   0  0  0  0  0  0  0  0  0  0  0  0
  -31.5870  -15.6130   20.2550 O   0  0  0  0  0  0  0  0  0  0  0  0
  -29.5730  -16.9380   20.4890 N   0  0  0  0  0  0  0  0  0  0  0  0
  -28.6570  -16.7510   20.8690 H   0  0  0  0  0  0  0  0  0  0  0  0
  -25.2610  -13.9190   20.6060 C   0  0  0  0  0  0  0  0  0  0  0  0
  -24.1980  -13.1270   20.9390 C   0  0  0  0  0  0  0  0  0  0  0  0
  -24.6830  -11.7820   20.9230 C   0  0  0  0  0  0  0  0  0  0  0  0
  -26.3210  -13.0580   20.3950 N   0  0  0  0  0  0  0  0  0  0  0  0
  -25.9870  -11.7660   20.6550 N   0  0  0  0  0  0  0  0  0  0  0  0
  -23.9650  -10.5120   21.0870 C   0  0  0  0  0  0  0  0  0  0  0  0
  -24.3590   -9.5570   22.0520 C   0  0  0  0  0  3  0  0  0  0  0  0
  -23.6370   -8.3540   22.2060 C   0  0  0  0  0  3  0  0  0  0  0  0
  -22.5060   -8.0950   21.3950 C   0  0  0  0  0  0  0  0  0  0  0  0
  -22.1310   -9.0380   20.4220 C   0  0  0  0  0  3  0  0  0  0  0  0
  -22.8540  -10.2330   20.2670 C   0  0  0  0  0  3  0  0  0  0  0  0
  -21.7590   -6.9430   21.4570 O   0  0  0  0  0  0  0  0  0  0  0  0
  -21.6420   -6.2220   22.6190 C   0  0  0  0  0  0  0  0  0  0  0  0
  -21.0660   -6.7740   23.7830 C   0  0  0  0  0  3  0  0  0  0  0  0
  -20.9030   -5.9770   24.9330 C   0  0  0  0  0  3  0  0  0  0  0  0
  -21.3040   -4.6270   24.9190 C   0  0  0  0  0  0  0  0  0  0  0  0
  -21.8730   -4.0740   23.7580 C   0  0  0  0  0  3  0  0  0  0  0  0
  -22.0390   -4.8690   22.6100 C   0  0  0  0  0  0  0  0  0  0  0  0
  -22.5680   -4.3260   21.4880 F   0  0  0  0  0  0  0  0  0  0  0  0
  -21.1400   -3.8590   26.0210 F   0  0  0  0  0  0  0  0  0  0  0  0
  -22.7860  -13.5870   21.1550 C   0  0  0  0  0  0  0  0  0  0  0  0
  -22.0390  -12.8890   22.0020 N   0  0  0  0  0  0  0  0  0  0  0  0
  -22.3560  -14.6010   20.6090 O   0  0  0  0  0  0  0  0  0  0  0  0
  -22.4010  -12.0700   22.4670 H   0  0  0  0  0  0  0  0  0  0  0  0
  -21.0890  -13.1800   22.1890 H   0  0  0  0  0  0  0  0  0  0  0  0
  -25.4120  -15.2920   20.4330 N   0  0  0  0  0  0  0  0  0  0  0  0
  -24.6330  -15.9360   20.5120 H   0  0  0  0  0  0  0  0  0  0  0  0
  -26.2590  -15.7350   20.1020 H   0  0  0  0  0  0  0  0  0  0  0  0
  -28.0360  -22.8170   21.0930 C   0  0  0  0  0  3  0  0  0  0  0  0
  -29.2830  -23.0730   19.6140 C   0  0  0  0  0  3  0  0  0  0  0  0
  -28.7310  -21.5830   20.1690 C   0  0  0  0  0  3  0  0  0  0  0  0
  -28.1060  -24.1620   20.1020 C   0  0  0  0  0  3  0  0  0  0  0  0
  -28.2040  -25.8460   20.3940 O   0  0  0  0  0  0  0  0  0  0  0  0
  -24.6400  -31.9560   23.3220 C   0  0  0  0  0  0  0  0  0  0  0  0
  -27.2050  -26.9920   20.3190 C   0  0  0  0  0  0  0  0  0  0  0  0
  -23.4650  -30.5710   21.6630 C   0  0  0  0  0  3  0  0  0  0  0  0
  -24.9240  -28.9500   20.2500 C   0  0  0  0  0  0  0  0  0  0  0  0
  -26.0390  -30.7450   21.5590 C   0  0  0  0  0  2  0  0  0  0  0  0
  -26.1090  -29.3270   20.8940 C   0  0  0  0  0  0  0  0  0  0  0  0
  -27.2390  -28.3720   20.8980 C   0  0  0  0  0  3  0  0  0  0  0  0
  -25.9890  -26.7960   19.6210 C   0  0  0  0  0  3  0  0  0  0  0  0
  -24.8970  -27.7090   19.5920 C   0  0  0  0  0  3  0  0  0  0  0  0
  -23.7130  -29.8870   20.2880 C   0  0  0  0  0  2  0  0  0  0  0  0
  -24.7370  -31.1210   22.2340 N   0  0  0  0  0  0  0  0  0  0  0  0
  -23.5440  -32.2500   23.8280 O   0  0  0  0  0  0  0  0  0  0  0  0
  -22.7470  -29.5810   22.6180 C   0  0  0  0  0  0  0  0  0  0  0  0
  -21.4220  -29.4020   22.4560 N   0  0  0  0  0  0  0  0  0  0  0  0
  -23.3920  -28.9710   23.4740 O   0  0  0  0  0  0  0  0  0  0  0  0
  -20.9530  -29.9440   21.7440 H   0  0  0  0  0  0  0  0  0  0  0  0
  -18.0410  -28.1440   22.8780 C   0  0  0  0  0  0  0  0  0  0  0  0
  -20.5880  -28.4580   23.2100 C   0  0  0  0  0  3  0  0  0  0  0  0
  -20.7290  -27.0230   22.6530 C   0  0  0  0  0  2  0  0  0  0  0  0
  -19.6640  -26.6740   21.6090 C   0  0  0  0  0  2  0  0  0  0  0  0
  -18.2620  -26.7970   22.2120 C   0  0  0  0  0  2  0  0  0  0  0  0
  -19.1340  -28.9310   23.3320 C   0  0  0  0  0  0  0  0  0  0  0  0
  -18.8710  -30.1890   23.9170 C   0  0  0  0  0  3  0  0  0  0  0  0
  -17.5520  -30.6620   24.0480 C   0  0  0  0  0  3  0  0  0  0  0  0
  -16.4760  -29.8740   23.6080 C   0  0  0  0  0  3  0  0  0  0  0  0
  -16.7200  -28.6170   23.0290 C   0  0  0  0  0  3  0  0  0  0  0  0
  -25.9000  -32.5950   23.9780 C   0  0  0  0  0  3  0  0  0  0  0  0
  -26.3680  -31.8410   25.2850 C   0  0  1  0  0  0  0  0  0  0  0  0
  -25.2370  -31.6240   26.3180 C   0  0  0  0  0  1  0  0  0  0  0  0
  -26.9580  -30.4550   24.9450 C   0  0  0  0  0  1  0  0  0  0  0  0
  -27.4990  -32.6410   25.9740 C   0  0  0  0  0  1  0  0  0  0  0  0
  -25.5880  -34.0010   24.2950 N   0  0  0  0  0  0  0  0  0  0  0  0
  -25.9130  -35.0540   23.5320 C   0  0  0  0  0  0  0  0  0  0  0  0
  -26.5680  -34.9430   22.4930 O   0  0  0  0  0  0  0  0  0  0  0  0
  -25.0030  -34.1610   25.1020 H   0  0  0  0  0  0  0  0  0  0  0  0
  -24.1750  -36.8510   23.2170 C   0  0  0  0  0  1  0  0  0  0  0  0
  -25.4410  -36.4500   23.9910 C   0  0  0  0  0  3  0  0  0  0  0  0
  -27.5910  -37.3590   24.7580 C   0  0  0  0  0  1  0  0  0  0  0  0
  -26.4690  -37.5030   23.8350 N   0  0  0  0  0  0  0  0  0  0  0  0
  -26.0630  -38.4250   23.9700 H   0  0  0  0  0  0  0  0  0  0  0  0
  -31.7960  -20.9020   23.3860 C   0  0  0  0  0  2  0  0  0  0  0  0
  -30.3000  -21.0660   23.5010 C   0  0  0  0  0  2  0  0  0  0  0  0
  -30.9890  -21.3300   22.1830 C   0  0  0  0  0  3  0  0  0  0  0  0
  -33.6040  -22.0950   20.2450 C   0  0  0  0  0  2  0  0  0  0  0  0
  -34.1410  -21.1230   19.2310 C   0  0  0  0  0  2  0  0  0  0  0  0
  -33.2940  -20.6180   20.3850 C   0  0  0  0  0  3  0  0  0  0  0  0
  1  2  1  0
  2 93  1  0
  3 16  1  0
  3  1  2  0
  4 96  1  0
  4  2  2  0
  5  7  2  0
  5  3  1  0
  6  5  1  0
  7  4  1  0
  8 14  1  0
  8 16  1  0
  9 14  1  0
 10 11  1  0
 10  9  1  0
 12 11  1  0
 12 21  1  0
 12 13  1  0
 14 13  1  0
 15  8  2  0
 16 17  1  0
 18 19  2  0
 19 38  1  0
 20 19  1  0
 20 23  1  0
 21 18  1  0
 21 22  1  0
 22 20  2  0
 23 24  1  0
 24 25  2  0
 26 29  1  0
 26 25  1  0
 27 26  2  0
 28 27  1  0
 28 23  2  0
 29 30  1  0
 30 31  1  0
 31 32  2  0
 33 32  1  0
 33 37  1  0
 34 33  2  0
 35 30  2  0
 35 34  1  0
 36 35  1  0
 38 39  1  0
 39 42  1  0
 39 41  1  0
 40 38  2  0
 43 44  1  0
 43 18  1  0
 45 43  1  0
 47 49  1  0
 47 48  1  0
 47 46  1  0
 48  1  1  0
 48 46  1  0
 49 50  1  0
 49 46  1  0
 51 62  2  0
 51 77  1  0
 52 50  1  0
 52 57  1  0
 53 61  1  0
 53 63  1  0
 54 60  1  0
 54 56  1  0
 55 61  1  0
 56 57  2  0
 56 55  1  0
 58 52  2  0
 59 58  1  0
 59 54  2  0
 60 53  1  0
 61 51  1  0
 63 65  2  0
 64 63  1  0
 64 68  1  0
 66 64  1  0
 67 76  2  0
 67 72  1  0
 68 72  1  0
 69 68  1  0
 70 71  1  0
 70 69  1  0
 71 67  1  0
 72 73  2  0
 73 74  1  0
 75 74  2  0
 76 75  1  0
 77 82  1  0
 77 78  1  0
 78 81  1  1
 78 79  1  0
 80 78  1  0
 82 85  1  0
 83 87  1  0
 83 82  1  0
 84 83  2  0
 86 87  1  0
 89 90  1  0
 89 87  1  0
 89 88  1  0
 91 92  1  0
 93 91  1  0
 93 92  1  0
 94 96  1  0
 95 94  1  0
 95 96  1  0
M  ISO  4   8 100  16 100  49 101  50 101
M  END
>  <TORSDO>  (34) 
F 19

>  <SCORE>  (34) 
-15.683

>  <name>  (34) 
33

>  <ligand_id>  (34) 
33

>  <original_smiles>  (34) 
[H]c1c([H])c([H])c2c(c1[H])C([H])([H])C([H])([H])C([H])([H])C2([H])N([H])C(=O)C1([H])N(C(=O)C([H])(N([H])C(=O)C([H])(N([H])C([H])([H])[H])C([H])([H])[H])C(C([H])([H])[H])(C([H])([H])[H])C([H])([H])[H])C([H])([H])c2c([H])c(OC3([H])C([H])([H])C([H])(c4c(N([H])C(=O)N5C([H])([H])C([H])([H])C([H])([H])C([H])(n6nc(-c7c([H])c([H])c(Oc8c([H])c([H])c(F)c([H])c8F)c([H])c7[H])c(C(=O)N([H])[H])c6N([H])[H])C5([H])[H])c(C([H])([H])[H])nc(C5([H])C([H])([H])C5([H])[H])c4C4([H])C([H])([H])C4([H])[H])C3([H])[H])c([H])c([H])c2C1([H])[H]

>  <smiles>  (34) 
[H]c1c([H])c([H])c2c(c1[H])C([H])([H])C([H])([H])C([H])([H])C2([H])N([H])C(=O)C1([H])N(C(=O)C([H])(N([H])C(=O)C([H])(N([H])C([H])([H])[H])C([H])([H])[H])C(C([H])([H])[H])(C([H])([H])[H])C([H])([H])[H])C([H])([H])c2c([H])c(OC3([H])C([H])([H])C([H])(c4c(N([H])C(=O)N5C([H])([H])C([H])([H])C([H])([H])C([H])(n6nc(-c7c([H])c([H])c(Oc8c([H])c([H])c(F)c([H])c8F)c([H])c7[H])c(C(=O)N([H])[H])c6N([H])[H])C5([H])[H])c(C([H])([H])[H])nc(C5([H])C([H])([H])C5([H])[H])c4C4([H])C([H])([H])C4([H])[H])C3([H])[H])c([H])c([H])c2C1([H])[H]

$$$$
34:0:0
     RDKit          3D

100110  0  0  1  0  0  0  0  0999 V2000
  -30.6810  -14.7150   20.1960 C   0  0  0  0  0  0  0  0  0  0  0  0
  -30.5560  -12.3590   19.3560 C   0  0  0  0  0  2  0  0  0  0  0  0
  -29.6050  -12.2820   18.1380 C   0  0  0  0  0  2  0  0  0  0  0  0
  -28.1390  -12.0780   18.5730 C   0  0  0  0  0  2  0  0  0  0  0  0
  -27.7390  -13.0470   19.7110 C   0  0  0  0  0  3  0  0  0  0  0  0
  -28.8120  -12.9790   20.8310 C   0  0  0  0  0  2  0  0  0  0  0  0
  -30.0780  -13.4560   20.2390 N   0  0  0  0  0  0  0  0  0  0  0  0
  -31.8230  -14.7670   19.7360 O   0  0  0  0  0  0  0  0  0  0  0  0
  -29.6040  -19.4080   18.9430 C   0  0  0  0  0  3  0  0  0  0  0  0
  -29.3540  -18.0960   19.3970 C   0  0  0  0  0  0  0  0  0  0  0  0
  -30.8490  -20.0280   19.0880 C   0  0  0  0  0  0  0  0  0  0  0  0
  -31.8910  -19.2480   19.6810 C   0  0  0  0  0  0  0  0  0  0  0  0
  -31.6480  -17.9030   20.1500 C   0  0  0  0  0  0  0  0  0  0  0  0
  -30.3780  -17.2620   19.9580 C   0  0  0  0  0  0  0  0  0  0  0  0
  -27.7870  -17.1350   20.9040 C   0  0  0  0  0  2  0  0  0  0  0  0
  -28.7250  -15.9680   21.2410 C   0  0  0  0  0  2  0  0  0  0  0  0
  -27.9110  -17.6310   19.4500 C   0  0  1  0  0  0  0  0  0  0  0  0
  -33.2630  -19.8870   19.8980 C   0  0  0  0  0  1  0  0  0  0  0  0
  -32.7230  -17.2230   20.9930 C   0  0  0  0  0  1  0  0  0  0  0  0
  -26.8320  -18.7310   19.2650 C   0  0  0  0  0  1  0  0  0  0  0  0
  -27.7140  -16.6170   18.3050 C   0  0  0  0  0  1  0  0  0  0  0  0
  -29.9910  -15.9140   20.4660 N   0  0  0  0  0  0  0  0  0  0  0  0
  -25.3400  -13.7170   20.4000 C   0  0  0  0  0  0  0  0  0  0  0  0
  -24.2630  -12.9730   20.7820 C   0  0  0  0  0  0  0  0  0  0  0  0
  -24.7130  -11.6190   20.7760 C   0  0  0  0  0  0  0  0  0  0  0  0
  -26.3810  -12.8180   20.1910 N   0  0  0  0  0  0  0  0  0  0  0  0
  -26.0010  -11.5510   20.4680 N   0  0  0  0  0  0  0  0  0  0  0  0
  -23.9740  -10.3750   20.9860 C   0  0  0  0  0  0  0  0  0  0  0  0
  -24.4140   -9.4120   21.9190 C   0  0  0  0  0  3  0  0  0  0  0  0
  -23.6760   -8.2240   22.1190 C   0  0  0  0  0  3  0  0  0  0  0  0
  -22.4860   -8.0000   21.3830 C   0  0  0  0  0  0  0  0  0  0  0  0
  -22.0670   -8.9550   20.4390 C   0  0  0  0  0  3  0  0  0  0  0  0
  -22.8050  -10.1300   20.2370 C   0  0  0  0  0  3  0  0  0  0  0  0
  -21.7160   -6.8710   21.4950 O   0  0  0  0  0  0  0  0  0  0  0  0
  -21.6970   -6.1260   22.6470 C   0  0  0  0  0  0  0  0  0  0  0  0
  -21.3240   -6.6830   23.8900 C   0  0  0  0  0  3  0  0  0  0  0  0
  -21.2530   -5.8640   25.0330 C   0  0  0  0  0  3  0  0  0  0  0  0
  -21.5420   -4.4900   24.9370 C   0  0  0  0  0  0  0  0  0  0  0  0
  -21.9130   -3.9340   23.7000 C   0  0  0  0  0  3  0  0  0  0  0  0
  -21.9880   -4.7500   22.5580 C   0  0  0  0  0  0  0  0  0  0  0  0
  -22.3270   -4.2080   21.3630 F   0  0  0  0  0  0  0  0  0  0  0  0
  -21.4630   -3.7010   26.0340 F   0  0  0  0  0  0  0  0  0  0  0  0
  -22.8740  -13.4800   21.0410 C   0  0  0  0  0  0  0  0  0  0  0  0
  -22.1390  -12.8200   21.9270 N   0  0  0  0  0  0  0  0  0  0  0  0
  -22.4470  -14.4960   20.4920 O   0  0  0  0  0  0  0  0  0  0  0  0
  -22.4940  -12.0010   22.3980 H   0  0  0  0  0  0  0  0  0  0  0  0
  -21.2030  -13.1360   22.1400 H   0  0  0  0  0  0  0  0  0  0  0  0
  -25.4960  -15.0760   20.2070 N   0  0  0  0  0  0  0  0  0  0  0  0
  -24.7260  -15.7250   20.3210 H   0  0  0  0  0  0  0  0  0  0  0  0
  -26.3520  -15.5200   19.9000 H   0  0  0  0  0  0  0  0  0  0  0  0
  -30.9580  -21.5540   18.7500 C   0  0  0  0  0  2  0  0  0  0  0  0
  -30.5250  -23.0860   16.2200 C   0  0  0  0  0  2  0  0  0  0  0  0
  -29.8160  -21.7740   16.5410 C   0  0  0  0  0  2  0  0  0  0  0  0
  -29.9420  -23.6070   17.5470 C   0  0  0  0  0  3  0  0  0  0  0  0
  -29.8330  -22.1670   17.9520 N   0  0  2  0  0  4  0  0  0  0  0  0
  -28.9560  -21.9810   18.4120 H   0  0  0  0  0  0  0  0  0  0  0  0
  -28.6030  -25.5790   16.4930 C   0  0  0  0  0  1  0  0  0  0  0  0
  -28.5870  -24.4250   17.5240 C   0  0  0  0  0  3  0  0  0  0  0  0
  -28.0990  -24.9680   18.9140 C   0  0  0  0  0  2  0  0  0  0  0  0
  -28.1190  -26.4100   19.0790 O   0  0  0  0  0  0  0  0  0  0  0  0
  -24.6840  -31.3420   22.9380 C   0  0  0  0  0  0  0  0  0  0  0  0
  -26.9480  -27.1450   19.2300 C   0  0  0  0  0  0  0  0  0  0  0  0
  -23.3230  -30.1960   21.2200 C   0  0  0  0  0  3  0  0  0  0  0  0
  -24.6220  -28.7530   19.5560 C   0  0  0  0  0  0  0  0  0  0  0  0
  -25.8520  -30.4520   20.9190 C   0  0  0  0  0  2  0  0  0  0  0  0
  -25.8330  -29.1570   20.1260 C   0  0  0  0  0  0  0  0  0  0  0  0
  -26.9950  -28.3640   19.9530 C   0  0  0  0  0  3  0  0  0  0  0  0
  -25.7100  -26.7560   18.6660 C   0  0  0  0  0  3  0  0  0  0  0  0
  -24.5560  -27.5520   18.8250 C   0  0  0  0  0  3  0  0  0  0  0  0
  -23.4260  -29.6590   19.7650 C   0  0  0  0  0  2  0  0  0  0  0  0
  -24.6430  -30.6730   21.7500 N   0  0  0  0  0  0  0  0  0  0  0  0
  -23.6470  -31.6030   23.5630 O   0  0  0  0  0  0  0  0  0  0  0  0
  -22.6630  -29.1110   22.0980 C   0  0  0  0  0  0  0  0  0  0  0  0
  -21.3220  -29.0260   22.0370 N   0  0  0  0  0  0  0  0  0  0  0  0
  -23.3490  -28.3510   22.7840 O   0  0  0  0  0  0  0  0  0  0  0  0
  -20.8310  -29.6890   21.4530 H   0  0  0  0  0  0  0  0  0  0  0  0
  -17.9100  -27.9940   22.6230 C   0  0  0  0  0  0  0  0  0  0  0  0
  -20.4920  -28.0510   22.7430 C   0  0  0  0  0  3  0  0  0  0  0  0
  -20.4560  -26.7020   21.9870 C   0  0  0  0  0  2  0  0  0  0  0  0
  -19.2730  -26.5830   21.0230 C   0  0  0  0  0  2  0  0  0  0  0  0
  -17.9470  -26.7340   21.7760 C   0  0  0  0  0  2  0  0  0  0  0  0
  -19.1050  -28.6210   23.0640 C   0  0  0  0  0  0  0  0  0  0  0  0
  -19.0150  -29.8120   23.8190 C   0  0  0  0  0  3  0  0  0  0  0  0
  -17.7630  -30.3670   24.1400 C   0  0  0  0  0  3  0  0  0  0  0  0
  -16.5830  -29.7330   23.7150 C   0  0  0  0  0  3  0  0  0  0  0  0
  -16.6580  -28.5490   22.9600 C   0  0  0  0  0  3  0  0  0  0  0  0
  -26.0320  -31.8310   23.5560 C   0  0  0  0  0  3  0  0  0  0  0  0
  -26.5630  -30.8980   24.7130 C   0  0  1  0  0  0  0  0  0  0  0  0
  -25.5150  -30.6140   25.8130 C   0  0  0  0  0  1  0  0  0  0  0  0
  -27.0290  -29.5380   24.1430 C   0  0  0  0  0  1  0  0  0  0  0  0
  -27.7960  -31.5470   25.3850 C   0  0  0  0  0  1  0  0  0  0  0  0
  -25.8210  -33.2000   24.0470 N   0  0  0  0  0  0  0  0  0  0  0  0
  -26.2030  -34.3090   23.4020 C   0  0  0  0  0  0  0  0  0  0  0  0
  -26.8410  -34.2820   22.3450 O   0  0  0  0  0  0  0  0  0  0  0  0
  -25.2550  -33.3020   24.8770 H   0  0  0  0  0  0  0  0  0  0  0  0
  -24.5860  -36.2310   23.3050 C   0  0  0  0  0  1  0  0  0  0  0  0
  -25.8150  -35.6610   24.0260 C   0  0  0  0  0  3  0  0  0  0  0  0
  -28.0180  -36.3180   24.8910 C   0  0  0  0  0  1  0  0  0  0  0  0
  -26.9090  -36.6560   24.0030 N   0  0  0  0  0  0  0  0  0  0  0  0
  -26.5630  -37.5760   24.2630 H   0  0  0  0  0  0  0  0  0  0  0  0
  1  7  1  0
  1 22  1  0
  2  7  1  0
  3  4  1  0
  3  2  1  0
  5  4  1  0
  5 26  1  0
  5  6  1  0
  7  6  1  0
  8  1  2  0
  9 11  2  0
  9 10  1  0
 10 17  1  0
 10 14  2  0
 11 12  1  0
 12 18  1  0
 12 13  2  0
 13 19  1  0
 14 13  1  0
 14 22  1  0
 15 16  1  0
 17 15  1  0
 17 20  1  6
 21 17  1  0
 22 16  1  0
 23 24  2  0
 24 43  1  0
 25 24  1  0
 25 28  1  0
 26 23  1  0
 26 27  1  0
 27 25  2  0
 28 29  1  0
 29 30  2  0
 31 34  1  0
 31 30  1  0
 32 31  2  0
 33 32  1  0
 33 28  2  0
 34 35  1  0
 35 36  1  0
 36 37  2  0
 38 37  1  0
 38 42  1  0
 39 38  2  0
 40 35  2  0
 40 39  1  0
 41 40  1  0
 43 44  1  0
 44 47  1  0
 44 46  1  0
 45 43  2  0
 48 49  1  0
 48 23  1  0
 50 48  1  0
 51 11  1  0
 52 53  1  0
 52 54  1  0
 53 55  1  0
 54 58  1  0
 54 55  1  0
 55 56  1  1
 55 51  1  0
 58 57  1  0
 58 59  1  0
 59 60  1  0
 60 62  1  0
 61 72  2  0
 62 67  1  0
 63 71  1  0
 63 73  1  0
 64 70  1  0
 64 66  1  0
 65 71  1  0
 66 65  1  0
 67 66  2  0
 68 69  1  0
 68 62  2  0
 69 64  2  0
 70 63  1  0
 71 61  1  0
 73 75  2  0
 74 73  1  0
 76 74  1  0
 77 86  2  0
 77 82  1  0
 78 74  1  0
 78 82  1  0
 79 78  1  0
 80 81  1  0
 80 79  1  0
 81 77  1  0
 82 83  2  0
 83 84  1  0
 85 84  2  0
 86 85  1  0
 87 61  1  0
 87 92  1  0
 87 88  1  0
 88 91  1  1
 88 89  1  0
 90 88  1  0
 92 95  1  0
 93 97  1  0
 93 92  1  0
 94 93  2  0
 97 96  1  0
 99 97  1  0
 99100  1  0
 99 98  1  0
M  ISO  4   1 100  22 100  59 101  60 101
M  END
>  <TORSDO>  (35) 
F 19

>  <SCORE>  (35) 
-11.279

>  <name>  (35) 
34

>  <ligand_id>  (35) 
34

>  <original_smiles>  (35) 
[H]c1c([H])c([H])c2c(c1[H])C([H])([H])C([H])([H])C([H])([H])C2([H])N([H])C(=O)C1([H])N(C(=O)C([H])(N([H])C(=O)C([H])(N([H])C([H])([H])[H])C([H])([H])[H])C(C([H])([H])[H])(C([H])([H])[H])C([H])([H])[H])C([H])([H])c2c([H])c(OC([H])([H])C([H])(C([H])([H])[H])C3([H])C([H])([H])C([H])([H])[N+]3([H])C([H])([H])c3c([H])c4c(c(C([H])([H])[H])c3C([H])([H])[H])N(C(=O)N3C([H])([H])C([H])([H])C([H])([H])C([H])(n5nc(-c6c([H])c([H])c(Oc7c([H])c([H])c(F)c([H])c7F)c([H])c6[H])c(C(=O)N([H])[H])c5N([H])[H])C3([H])[H])C([H])([H])C([H])([H])C4(C([H])([H])[H])C([H])([H])[H])c([H])c([H])c2C1([H])[H]

>  <smiles>  (35) 
[H]c1c([H])c([H])c2c(c1[H])C([H])([H])C([H])([H])C([H])([H])C2([H])N([H])C(=O)C1([H])N(C(=O)C([H])(N([H])C(=O)C([H])(N([H])C([H])([H])[H])C([H])([H])[H])C(C([H])([H])[H])(C([H])([H])[H])C([H])([H])[H])C([H])([H])c2c([H])c(OC([H])([H])C([H])(C([H])([H])[H])C3([H])C([H])([H])C([H])([H])[N+]3([H])C([H])([H])c3c([H])c4c(c(C([H])([H])[H])c3C([H])([H])[H])N(C(=O)N3C([H])([H])C([H])([H])C([H])([H])C([H])(n5nc(-c6c([H])c([H])c(Oc7c([H])c([H])c(F)c([H])c7F)c([H])c6[H])c(C(=O)N([H])[H])c5N([H])[H])C3([H])[H])C([H])([H])C([H])([H])C4(C([H])([H])[H])C([H])([H])[H])c([H])c([H])c2C1([H])[H]

$$$$
35:0:0
     RDKit          3D

 93 98  0  0  1  0  0  0  0  0999 V2000
  -24.3240  -24.6360   20.5610 C   0  0  0  0  0  3  0  0  0  0  0  0
  -24.2960  -23.2940   18.6630 C   0  0  0  0  0  3  0  0  0  0  0  0
  -23.2240  -25.9600   20.1260 C   0  0  0  0  0  3  0  0  0  0  0  0
  -25.0100  -23.1500   19.8950 C   0  0  0  0  0  0  0  0  0  0  0  0
  -22.9820  -25.4510   18.8060 C   0  0  0  0  0  0  0  0  0  0  0  0
  -22.1570  -26.2750   17.8470 C   0  0  0  0  0  1  0  0  0  0  0  0
  -23.4460  -24.2910   18.2000 N   0  0  0  0  0  0  0  0  0  0  0  0
  -29.5920  -16.4500   19.6440 C   0  0  0  0  0  0  0  0  0  0  0  0
  -30.3310  -13.8100   18.8740 C   0  0  0  0  0  2  0  0  0  0  0  0
  -29.5370  -13.0030   17.7830 C   0  0  0  0  0  2  0  0  0  0  0  0
  -28.2180  -12.4700   18.3600 C   0  0  0  0  0  2  0  0  0  0  0  0
  -27.6450  -13.5090   19.3380 C   0  0  0  0  0  3  0  0  0  0  0  0
  -28.6260  -14.0270   20.3910 C   0  0  0  0  0  2  0  0  0  0  0  0
  -29.4700  -14.9290   19.6040 N   0  0  0  0  0  0  0  0  0  0  0  0
  -30.8570  -16.4680   19.4550 O   0  0  0  0  0  0  0  0  0  0  0  0
  -27.5140  -20.9940   20.4670 C   0  0  0  0  0  3  0  0  0  0  0  0
  -26.1150  -20.1330   19.3090 C   0  0  0  0  0  3  0  0  0  0  0  0
  -28.6240  -19.5570   19.8250 C   0  0  0  0  0  3  0  0  0  0  0  0
  -26.9650  -18.4700   19.7600 C   0  0  0  0  0  3  0  0  0  0  0  0
  -26.0640  -21.6650   19.9740 N   0  0  0  0  0  0  0  0  0  0  0  0
  -28.5480  -17.8530   19.7550 N   0  0  0  0  0  0  0  0  0  0  0  0
  -25.4440  -14.0510   20.3610 C   0  0  0  0  0  0  0  0  0  0  0  0
  -24.4160  -13.2790   20.7990 C   0  0  0  0  0  0  0  0  0  0  0  0
  -24.8500  -11.9240   20.6580 C   0  0  0  0  0  0  0  0  0  0  0  0
  -26.4100  -13.1590   19.9560 N   0  0  0  0  0  0  0  0  0  0  0  0
  -26.0970  -11.8710   20.2120 N   0  0  0  0  0  0  0  0  0  0  0  0
  -24.1220  -10.6720   20.8480 C   0  0  0  0  0  0  0  0  0  0  0  0
  -24.5660   -9.6910   21.7600 C   0  0  0  0  0  3  0  0  0  0  0  0
  -23.8250   -8.5040   21.9430 C   0  0  0  0  0  3  0  0  0  0  0  0
  -22.6310   -8.2960   21.2120 C   0  0  0  0  0  0  0  0  0  0  0  0
  -22.2110   -9.2650   20.2850 C   0  0  0  0  0  3  0  0  0  0  0  0
  -22.9520  -10.4440   20.1000 C   0  0  0  0  0  3  0  0  0  0  0  0
  -21.8610   -7.1630   21.3050 O   0  0  0  0  0  0  0  0  0  0  0  0
  -21.7440   -6.4730   22.4840 C   0  0  0  0  0  0  0  0  0  0  0  0
  -21.2590   -7.0830   23.6610 C   0  0  0  0  0  3  0  0  0  0  0  0
  -21.0870   -6.3160   24.8300 C   0  0  0  0  0  3  0  0  0  0  0  0
  -21.3920   -4.9420   24.8240 C   0  0  0  0  0  0  0  0  0  0  0  0
  -21.8700   -4.3320   23.6510 C   0  0  0  0  0  3  0  0  0  0  0  0
  -22.0430   -5.0950   22.4830 C   0  0  0  0  0  0  0  0  0  0  0  0
  -22.4830   -4.4990   21.3490 F   0  0  0  0  0  0  0  0  0  0  0  0
  -21.2190   -4.2050   25.9450 F   0  0  0  0  0  0  0  0  0  0  0  0
  -23.0710  -13.7770   21.2200 C   0  0  0  0  0  0  0  0  0  0  0  0
  -22.4210  -13.0690   22.1330 N   0  0  0  0  0  0  0  0  0  0  0  0
  -22.6140  -14.8290   20.7740 O   0  0  0  0  0  0  0  0  0  0  0  0
  -22.8150  -12.2170   22.5070 H   0  0  0  0  0  0  0  0  0  0  0  0
  -21.5200  -13.3780   22.4670 H   0  0  0  0  0  0  0  0  0  0  0  0
  -25.6290  -15.4240   20.2370 N   0  0  0  0  0  0  0  0  0  0  0  0
  -24.8890  -16.0810   20.4580 H   0  0  0  0  0  0  0  0  0  0  0  0
  -26.4310  -15.8550   19.8010 H   0  0  0  0  0  0  0  0  0  0  0  0
  -21.0660  -28.6020   19.8950 C   0  0  0  0  0  1  0  0  0  0  0  0
  -22.2630  -27.9000   20.6090 C   0  0  0  0  0  1  0  0  0  0  0  0
  -22.8440  -29.4500   22.5970 C   0  0  0  0  0 15  0  0  0  0  0  0
  -25.2340  -28.8920   22.8570 O   0  0  0  0  0  1  0  0  0  0  0  0
  -24.4760  -31.5300   22.8850 C   0  0  0  0  0  0  0  0  0  0  0  0
  -26.4020  -28.1380   21.9820 C   0  0  0  0  0  3  0  0  0  0  0  0
  -24.1490  -28.9480   21.0070 C   0  0  0  0  0  2  0  0  0  0  0  0
  -25.6660  -28.9060   19.6110 C   0  0  0  0  0  3  0  0  0  0  0  0
  -25.8710  -31.0310   20.9690 C   0  0  0  0  0  2  0  0  0  0  0  0
  -26.4560  -29.7390   20.4780 C   0  0  0  0  0  3  0  0  0  0  0  0
  -27.2520  -29.0840   21.4230 C   0  0  0  0  0  2  0  0  0  0  0  0
  -26.3550  -27.0980   20.9090 C   0  0  0  0  0  2  0  0  0  0  0  0
  -25.9340  -27.5190   19.6150 C   0  0  0  0  0  2  0  0  0  0  0  0
  -24.2210  -29.1880   19.5350 C   0  0  0  0  0  2  0  0  0  0  0  0
  -24.6340  -30.6880   21.6270 N   0  0  0  0  0  0  0  0  0  0  0  0
  -23.3700  -31.8090   23.4040 O   0  0  0  0  0  0  0  0  0  0  0  0
  -23.6630  -27.2380   22.7010 C   0  0  0  0  0  2  0  0  0  0  0  0
  -22.2350  -27.1550   23.2920 N   0  0  0  0  0  0  0  0  0  0  0  0
  -24.0940  -27.2000   23.8410 O   0  0  0  0  0  1  0  0  0  0  0  0
  -22.4010  -26.8100   24.2230 H   0  0  0  0  0  0  0  0  0  0  0  0
  -18.0700  -27.6460   22.4960 C   0  0  0  0  0  0  0  0  0  0  0  0
  -20.6430  -27.2720   23.1100 C   0  0  0  0  0  3  0  0  0  0  0  0
  -20.3840  -25.8980   22.5730 C   0  0  0  0  0  2  0  0  0  0  0  0
  -19.4190  -25.7370   21.4260 C   0  0  0  0  0  2  0  0  0  0  0  0
  -18.0710  -26.2890   21.8230 C   0  0  0  0  0  2  0  0  0  0  0  0
  -19.2820  -28.2450   23.0290 C   0  0  0  0  0  0  0  0  0  0  0  0
  -19.0320  -29.5400   23.5970 C   0  0  0  0  0  3  0  0  0  0  0  0
  -17.7280  -30.1410   23.6460 C   0  0  0  0  0  3  0  0  0  0  0  0
  -16.5840  -29.4910   23.1510 C   0  0  0  0  0  3  0  0  0  0  0  0
  -16.7790  -28.2370   22.5730 C   0  0  0  0  0  3  0  0  0  0  0  0
  -25.5840  -32.3070   23.8070 C   0  0  0  0  0  3  0  0  0  0  0  0
  -25.1580  -33.7200   24.0730 N   0  0  0  0  0  0  0  0  0  0  0  0
  -25.5950  -34.8230   23.4430 C   0  0  0  0  0  0  0  0  0  0  0  0
  -26.3920  -34.7540   22.5080 O   0  0  0  0  0  0  0  0  0  0  0  0
  -24.4490  -33.8250   24.7830 H   0  0  0  0  0  0  0  0  0  0  0  0
  -23.8360  -36.5950   23.0310 C   0  0  0  0  0  1  0  0  0  0  0  0
  -25.0600  -36.2150   23.8840 C   0  0  0  0  0  3  0  0  0  0  0  0
  -27.1280  -37.2160   24.7750 C   0  0  0  0  0  1  0  0  0  0  0  0
  -26.0620  -37.3050   23.7830 N   0  0  0  0  0  0  0  0  0  0  0  0
  -25.6150  -38.2120   23.8920 H   0  0  0  0  0  0  0  0  0  0  0  0
  -25.9220  -31.7070   25.2670 C   0  0  1  0  0  0  0  0  0  0  0  0
  -24.6940  -31.4980   26.1920 C   0  0  0  0  0  1  0  0  0  0  0  0
  -26.6500  -30.3550   25.1700 C   0  0  0  0  0  1  0  0  0  0  0  0
  -26.9130  -32.6410   26.0310 C   0  0  0  0  0  1  0  0  0  0  0  0
  2  4  1  0
  3  1  1  0
  4 20  1  0
  4  1  2  0
  5  3  2  0
  6  5  1  0
  7  2  2  0
  7  5  1  0
  8 21  1  0
  9 14  1  0
 10 11  1  0
 10  9  1  0
 12 11  1  0
 12 25  1  0
 12 13  1  0
 14  8  1  0
 14 13  1  0
 15  8  2  0
 17 19  2  0
 17 20  1  0
 18 16  2  0
 20 16  1  0
 21 19  1  0
 21 18  1  0
 22 23  2  0
 23 42  1  0
 24 23  1  0
 24 27  1  0
 25 26  1  0
 25 22  1  0
 26 24  2  0
 27 28  1  0
 28 29  2  0
 30 33  1  0
 30 29  1  0
 31 30  2  0
 32 31  1  0
 32 27  2  0
 33 34  1  0
 34 35  1  0
 35 36  2  0
 37 36  1  0
 37 41  1  0
 38 37  2  0
 39 34  2  0
 39 38  1  0
 40 39  1  0
 42 43  1  0
 43 46  1  0
 43 45  1  0
 44 42  2  0
 47 22  1  0
 47 48  1  0
 49 47  1  0
 50 51  1  0
 54 65  2  0
 55 53  1  0
 56 64  1  0
 57 63  1  0
 57 62  1  0
 57 59  1  0
 58 64  1  0
 59 58  1  0
 59 60  1  0
 60 55  1  0
 61 55  1  0
 62 61  1  0
 63 56  1  0
 64 54  1  0
 66 67  1  0
 66 68  1  0
 67 69  1  0
 70 79  2  0
 70 75  1  0
 71 67  1  0
 72 71  1  0
 73 74  1  0
 73 72  1  0
 74 70  1  0
 75 71  1  0
 75 76  2  0
 76 77  1  0
 78 77  2  0
 79 78  1  0
 80 54  1  0
 80 81  1  0
 80 90  1  0
 81 84  1  0
 82 86  1  0
 82 81  1  0
 83 82  2  0
 86 85  1  0
 88 86  1  0
 88 89  1  0
 88 87  1  0
 90 93  1  1
 90 91  1  0
 92 90  1  0
M  ISO  4   8 100  21 100  52 101  53 101
M  END
>  <TORSDO>  (36) 
F 18

>  <SCORE>  (36) 
-13.862

>  <name>  (36) 
35

>  <ligand_id>  (36) 
35

>  <original_smiles>  (36) 
[H]c1nc(C([H])([H])[H])c(C([H])(C([H])([H])[H])C([H])([H])Oc2c([H])c([H])c3c(c2[H])C([H])([H])N(C(=O)C([H])(N([H])C(=O)C([H])(N([H])C([H])([H])[H])C([H])([H])[H])C(C([H])([H])[H])(C([H])([H])[H])C([H])([H])[H])C([H])(C(=O)N([H])C2([H])c4c([H])c([H])c([H])c([H])c4C([H])([H])C([H])([H])C2([H])[H])C3([H])[H])c([H])c1N1C([H])([H])C([H])([H])N(C(=O)N2C([H])([H])C([H])([H])C([H])([H])C([H])(n3nc(-c4c([H])c([H])c(Oc5c([H])c([H])c(F)c([H])c5F)c([H])c4[H])c(C(=O)N([H])[H])c3N([H])[H])C2([H])[H])C([H])([H])C1([H])[H]

>  <smiles>  (36) 
[H]c1nc(C([H])([H])[H])c(C([H])(C([H])([H])[H])C([H])([H])Oc2c([H])c([H])c3c(c2[H])C([H])([H])N(C(=O)C([H])(N([H])C(=O)C([H])(N([H])C([H])([H])[H])C([H])([H])[H])C(C([H])([H])[H])(C([H])([H])[H])C([H])([H])[H])C([H])(C(=O)N([H])C2([H])c4c([H])c([H])c([H])c([H])c4C([H])([H])C([H])([H])C2([H])[H])C3([H])[H])c([H])c1N1C([H])([H])C([H])([H])N(C(=O)N2C([H])([H])C([H])([H])C([H])([H])C([H])(n3nc(-c4c([H])c([H])c(Oc5c([H])c([H])c(F)c([H])c5F)c([H])c4[H])c(C(=O)N([H])[H])c3N([H])[H])C2([H])[H])C([H])([H])C1([H])[H]

$$$$
36:0:0
     RDKit          3D

 98107  0  0  1  0  0  0  0  0999 V2000
  -30.0550  -21.7590   18.8340 C   0  0  0  0  0  3  0  0  0  0  0  0
  -29.5560  -21.0180   19.9380 C   0  0  0  0  0  0  0  0  0  0  0  0
  -28.7390  -21.8140   20.8120 C   0  0  0  0  0  0  0  0  0  0  0  0
  -28.5220  -23.2260   20.5730 C   0  0  0  0  0  0  0  0  0  0  0  0
  -29.1010  -23.8780   19.4430 C   0  0  0  0  0  0  0  0  0  0  0  0
  -28.0780  -21.1490   22.0160 C   0  0  0  0  0  1  0  0  0  0  0  0
  -27.6390  -24.0320   21.5190 C   0  0  0  0  0  1  0  0  0  0  0  0
  -29.8500  -23.0960   18.6090 N   0  0  0  0  0  0  0  0  0  0  0  0
  -31.0340  -15.0290   19.5380 C   0  0  0  0  0  0  0  0  0  0  0  0
  -30.5960  -12.7680   18.5310 C   0  0  0  0  0  2  0  0  0  0  0  0
  -29.5410  -12.8010   17.4070 C   0  0  0  0  0  2  0  0  0  0  0  0
  -28.1340  -12.6020   17.9960 C   0  0  0  0  0  2  0  0  0  0  0  0
  -27.8840  -13.5130   19.2220 C   0  0  0  0  0  3  0  0  0  0  0  0
  -29.0600  -13.4830   20.2240 C   0  0  0  0  0  2  0  0  0  0  0  0
  -30.2750  -13.8640   19.4930 N   0  0  0  0  0  0  0  0  0  0  0  0
  -32.1710  -14.9470   19.0650 O   0  0  0  0  0  0  0  0  0  0  0  0
  -28.9200  -18.3520   19.7330 C   0  0  0  0  0  2  0  0  0  0  0  0
  -29.9110  -19.4630   20.2230 C   0  0  0  0  0  3  0  0  0  0  0  0
  -31.2810  -18.8970   19.7400 C   0  0  0  0  0  3  0  0  0  0  0  0
  -29.2190  -16.8600   20.2260 C   0  0  0  0  0  3  0  0  0  0  0  0
  -31.6180  -17.4090   20.2250 C   0  0  0  0  0  3  0  0  0  0  0  0
  -28.8120  -16.7150   21.7110 C   0  0  0  0  0  1  0  0  0  0  0  0
  -32.0780  -17.3420   21.7020 C   0  0  0  0  0  1  0  0  0  0  0  0
  -30.5980  -16.3110   19.9780 N   0  0  0  0  0  0  0  0  0  0  0  0
  -25.6360  -14.1300   20.2810 C   0  0  0  0  0  0  0  0  0  0  0  0
  -24.5960  -13.3680   20.7360 C   0  0  0  0  0  0  0  0  0  0  0  0
  -25.0040  -12.0090   20.5720 C   0  0  0  0  0  0  0  0  0  0  0  0
  -26.6080  -13.2360   19.8670 N   0  0  0  0  0  0  0  0  0  0  0  0
  -26.2460  -11.9500   20.1060 N   0  0  0  0  0  0  0  0  0  0  0  0
  -24.2600  -10.7590   20.7720 C   0  0  0  0  0  0  0  0  0  0  0  0
  -24.6920   -9.7810   21.6950 C   0  0  0  0  0  3  0  0  0  0  0  0
  -23.9490   -8.5970   21.8840 C   0  0  0  0  0  3  0  0  0  0  0  0
  -22.7600   -8.3810   21.1470 C   0  0  0  0  0  0  0  0  0  0  0  0
  -22.3480   -9.3450   20.2100 C   0  0  0  0  0  3  0  0  0  0  0  0
  -23.0920  -10.5220   20.0210 C   0  0  0  0  0  3  0  0  0  0  0  0
  -21.9870   -7.2490   21.2460 O   0  0  0  0  0  0  0  0  0  0  0  0
  -21.8470   -6.5760   22.4330 C   0  0  0  0  0  0  0  0  0  0  0  0
  -21.3110   -7.1970   23.5820 C   0  0  0  0  0  3  0  0  0  0  0  0
  -21.1190   -6.4480   24.7600 C   0  0  0  0  0  3  0  0  0  0  0  0
  -21.4520   -5.0800   24.7900 C   0  0  0  0  0  0  0  0  0  0  0  0
  -21.9800   -4.4600   23.6440 C   0  0  0  0  0  3  0  0  0  0  0  0
  -22.1740   -5.2050   22.4680 C   0  0  0  0  0  0  0  0  0  0  0  0
  -22.6630   -4.5970   21.3610 F   0  0  0  0  0  0  0  0  0  0  0  0
  -21.2600   -4.3600   25.9190 F   0  0  0  0  0  0  0  0  0  0  0  0
  -23.2600  -13.8680   21.2000 C   0  0  0  0  0  0  0  0  0  0  0  0
  -22.6330  -13.1620   22.1340 N   0  0  0  0  0  0  0  0  0  0  0  0
  -22.7850  -14.9170   20.7690 O   0  0  0  0  0  0  0  0  0  0  0  0
  -23.0310  -12.3100   22.5010 H   0  0  0  0  0  0  0  0  0  0  0  0
  -21.7420  -13.4770   22.4880 H   0  0  0  0  0  0  0  0  0  0  0  0
  -25.8210  -15.5030   20.1570 N   0  0  0  0  0  0  0  0  0  0  0  0
  -25.0910  -16.1670   20.3910 H   0  0  0  0  0  0  0  0  0  0  0  0
  -26.6330  -15.9390   19.7400 H   0  0  0  0  0  0  0  0  0  0  0  0
  -32.3690  -19.8260   20.1070 N   0  0  0  0  0  4  0  0  0  0  0  0
  -32.4980  -19.8490   21.1030 H   0  0  0  0  0  0  0  0  0  0  0  0
  -32.1470  -20.7570   19.8060 H   0  0  0  0  0  0  0  0  0  0  0  0
  -33.2340  -19.5520   19.6760 H   0  0  0  0  0  0  0  0  0  0  0  0
  -28.7790  -25.3590   18.8970 C   0  0  0  0  0  2  0  0  0  0  0  0
  -28.6450  -26.6100   19.7250 O   0  0  0  0  0  0  0  0  0  0  0  0
  -24.7150  -31.7380   23.0430 C   0  0  0  0  0  0  0  0  0  0  0  0
  -27.4910  -27.4360   19.7010 C   0  0  0  0  0  0  0  0  0  0  0  0
  -23.5530  -30.3610   21.3590 C   0  0  0  0  0  3  0  0  0  0  0  0
  -25.0510  -28.9650   19.8240 C   0  0  0  0  0  0  0  0  0  0  0  0
  -26.0750  -30.8100   21.1470 C   0  0  0  0  0  2  0  0  0  0  0  0
  -26.2110  -29.4690   20.4240 C   0  0  0  0  0  0  0  0  0  0  0  0
  -27.4290  -28.7160   20.3540 C   0  0  0  0  0  3  0  0  0  0  0  0
  -26.2880  -26.9940   19.0980 C   0  0  0  0  0  3  0  0  0  0  0  0
  -25.0950  -27.7360   19.1540 C   0  0  0  0  0  3  0  0  0  0  0  0
  -23.7740  -29.7730   19.9420 C   0  0  0  0  0  2  0  0  0  0  0  0
  -24.8010  -30.9860   21.9050 N   0  0  0  0  0  0  0  0  0  0  0  0
  -23.6280  -31.9310   23.6090 O   0  0  0  0  0  0  0  0  0  0  0  0
  -22.9620  -29.2630   22.2760 C   0  0  0  0  0  0  0  0  0  0  0  0
  -21.6490  -29.0090   22.1520 N   0  0  0  0  0  0  0  0  0  0  0  0
  -23.6870  -28.6460   23.0620 O   0  0  0  0  0  0  0  0  0  0  0  0
  -21.1190  -29.5640   21.4940 H   0  0  0  0  0  0  0  0  0  0  0  0
  -18.3590  -27.5760   22.6230 C   0  0  0  0  0  0  0  0  0  0  0  0
  -20.8980  -27.9890   22.8870 C   0  0  0  0  0  3  0  0  0  0  0  0
  -21.0860  -26.5920   22.2510 C   0  0  0  0  0  2  0  0  0  0  0  0
  -19.9970  -26.2430   21.2310 C   0  0  0  0  0  2  0  0  0  0  0  0
  -18.6150  -26.2710   21.8890 C   0  0  0  0  0  2  0  0  0  0  0  0
  -19.4310  -28.3910   23.0790 C   0  0  0  0  0  0  0  0  0  0  0  0
  -19.1350  -29.6090   23.7260 C   0  0  0  0  0  3  0  0  0  0  0  0
  -17.8020  -30.0180   23.9230 C   0  0  0  0  0  3  0  0  0  0  0  0
  -16.7460  -29.2000   23.4840 C   0  0  0  0  0  3  0  0  0  0  0  0
  -17.0250  -27.9820   22.8410 C   0  0  0  0  0  3  0  0  0  0  0  0
  -25.9730  -32.4090   23.6740 C   0  0  0  0  0  3  0  0  0  0  0  0
  -26.5390  -31.6200   24.9170 C   0  0  1  0  0  0  0  0  0  0  0  0
  -25.4700  -31.2890   25.9850 C   0  0  0  0  0  1  0  0  0  0  0  0
  -27.1870  -30.2870   24.4730 C   0  0  0  0  0  1  0  0  0  0  0  0
  -27.6560  -32.4460   25.5970 C   0  0  0  0  0  1  0  0  0  0  0  0
  -25.6000  -33.7780   24.0590 N   0  0  0  0  0  0  0  0  0  0  0  0
  -25.8650  -34.8730   23.3350 C   0  0  0  0  0  0  0  0  0  0  0  0
  -26.5180  -34.8400   22.2890 O   0  0  0  0  0  0  0  0  0  0  0  0
  -25.0130  -33.8730   24.8750 H   0  0  0  0  0  0  0  0  0  0  0  0
  -24.0380  -36.5860   23.0900 C   0  0  0  0  0  1  0  0  0  0  0  0
  -25.3200  -36.2180   23.8530 C   0  0  0  0  0  3  0  0  0  0  0  0
  -27.4230  -37.1920   24.6680 C   0  0  0  0  0  1  0  0  0  0  0  0
  -26.2950  -37.3280   23.7510 N   0  0  0  0  0  0  0  0  0  0  0  0
  -25.8440  -38.2200   23.9360 H   0  0  0  0  0  0  0  0  0  0  0  0
  1  2  1  0
  2  3  2  0
  3  6  1  0
  4  3  1  0
  4  7  1  0
  5  4  2  0
  8  1  2  0
  8  5  1  0
  9 24  1  0
 10 15  1  0
 11 12  1  0
 11 10  1  0
 13 12  1  0
 13 28  1  0
 13 14  1  0
 15  9  1  0
 15 14  1  0
 16  9  2  0
 17 18  1  0
 17 20  1  0
 18  2  1  0
 19 53  1  0
 19 18  1  0
 19 21  1  0
 20 22  1  0
 21 23  1  0
 24 21  1  0
 24 20  1  0
 25 26  2  0
 26 45  1  0
 27 26  1  0
 27 30  1  0
 28 29  1  0
 28 25  1  0
 29 27  2  0
 30 31  1  0
 31 32  2  0
 33 36  1  0
 33 32  1  0
 34 33  2  0
 35 34  1  0
 35 30  2  0
 36 37  1  0
 37 42  2  0
 37 38  1  0
 38 39  2  0
 39 40  1  0
 40 44  1  0
 41 40  2  0
 42 41  1  0
 43 42  1  0
 45 46  1  0
 46 49  1  0
 46 48  1  0
 47 45  2  0
 50 25  1  0
 50 51  1  0
 52 50  1  0
 53 54  1  0
 55 53  1  0
 56 53  1  0
 57  5  1  0
 57 58  1  0
 59 70  2  0
 60 58  1  0
 60 65  1  0
 61 69  1  0
 61 71  1  0
 62 68  1  0
 62 64  1  0
 63 69  1  0
 64 63  1  0
 65 64  2  0
 66 67  1  0
 66 60  2  0
 67 62  2  0
 68 61  1  0
 69 59  1  0
 71 73  2  0
 72 71  1  0
 74 72  1  0
 75 84  2  0
 75 80  1  0
 76 72  1  0
 76 80  1  0
 77 76  1  0
 78 79  1  0
 78 77  1  0
 79 75  1  0
 80 81  2  0
 81 82  1  0
 83 82  2  0
 84 83  1  0
 85 59  1  0
 85 90  1  0
 85 86  1  0
 86 89  1  1
 86 87  1  0
 88 86  1  0
 90 93  1  0
 91 95  1  0
 91 90  1  0
 92 91  2  0
 95 94  1  0
 97 95  1  0
 97 98  1  0
 97 96  1  0
M  ISO  4   9 100  24 100  57 101  58 101
M  END
>  <TORSDO>  (37) 
F 18

>  <SCORE>  (37) 
-10.972

>  <name>  (37) 
36

>  <ligand_id>  (37) 
36

>  <original_smiles>  (37) 
[H]c1nc(C([H])([H])Oc2c([H])c([H])c3c(c2[H])C([H])([H])N(C(=O)C([H])(N([H])C(=O)C([H])(N([H])C([H])([H])[H])C([H])([H])[H])C(C([H])([H])[H])(C([H])([H])[H])C([H])([H])[H])C([H])(C(=O)N([H])C2([H])c4c([H])c([H])c([H])c([H])c4C([H])([H])C([H])([H])C2([H])[H])C3([H])[H])c(C([H])([H])[H])c(C([H])([H])[H])c1C1([H])C([H])([H])C([H])(C([H])([H])[H])N(C(=O)N2C([H])([H])C([H])([H])C([H])([H])C([H])(n3nc(-c4c([H])c([H])c(Oc5c([H])c([H])c(F)c([H])c5F)c([H])c4[H])c(C(=O)N([H])[H])c3N([H])[H])C2([H])[H])C([H])(C([H])([H])[H])C1([H])[N+]([H])([H])[H]

>  <smiles>  (37) 
[H]c1nc(C([H])([H])Oc2c([H])c([H])c3c(c2[H])C([H])([H])N(C(=O)C([H])(N([H])C(=O)C([H])(N([H])C([H])([H])[H])C([H])([H])[H])C(C([H])([H])[H])(C([H])([H])[H])C([H])([H])[H])C([H])(C(=O)N([H])C2([H])c4c([H])c([H])c([H])c([H])c4C([H])([H])C([H])([H])C2([H])[H])C3([H])[H])c(C([H])([H])[H])c(C([H])([H])[H])c1C1([H])C([H])([H])C([H])(C([H])([H])[H])N(C(=O)N2C([H])([H])C([H])([H])C([H])([H])C([H])(n3nc(-c4c([H])c([H])c(Oc5c([H])c([H])c(F)c([H])c5F)c([H])c4[H])c(C(=O)N([H])[H])c3N([H])[H])C2([H])[H])C([H])(C([H])([H])[H])C1([H])[N+]([H])([H])[H]

$$$$
37:0:0
     RDKit          3D

 99110  0  0  1  0  0  0  0  0999 V2000
  -27.3650  -21.7020   17.8510 C   0  0  0  0  0  2  0  0  0  0  0  0
  -28.7670  -22.2480   18.1520 C   0  0  0  0  0  2  0  0  0  0  0  0
  -27.7090  -21.5960   20.1520 C   0  0  0  0  0  2  0  0  0  0  0  0
  -26.6150  -21.9290   19.1790 C   0  0  0  0  0  3  0  0  0  0  0  0
  -27.8230  -23.9920   19.7690 C   0  0  0  0  0  3  0  0  0  0  0  0
  -28.6830  -22.6650   19.6400 C   0  0  2  0  0  0  0  0  0  0  0  0
  -26.3450  -23.4290   19.4530 C   0  0  2  0  0  0  0  0  0  0  0  0
  -25.4220  -23.5750   20.6880 C   0  0  0  0  0  1  0  0  0  0  0  0
  -25.4950  -23.9280   18.2440 C   0  0  0  0  0  1  0  0  0  0  0  0
  -28.4090  -25.2660   19.0020 C   0  0  0  0  0  2  0  0  0  0  0  0
  -28.5090  -26.6040   19.6320 O   0  0  0  0  0  0  0  0  0  0  0  0
  -24.7450  -31.7360   23.0490 C   0  0  0  0  0  0  0  0  0  0  0  0
  -27.3960  -27.4320   19.7000 C   0  0  0  0  0  0  0  0  0  0  0  0
  -23.5350  -30.3660   21.3940 C   0  0  0  0  0  3  0  0  0  0  0  0
  -24.9910  -28.9400   19.8670 C   0  0  0  0  0  0  0  0  0  0  0  0
  -26.0640  -30.7790   21.1570 C   0  0  0  0  0  2  0  0  0  0  0  0
  -26.1660  -29.4390   20.4480 C   0  0  0  0  0  0  0  0  0  0  0  0
  -27.3810  -28.6970   20.3560 C   0  0  0  0  0  3  0  0  0  0  0  0
  -26.2000  -27.0110   19.1120 C   0  0  0  0  0  3  0  0  0  0  0  0
  -25.0090  -27.7270   19.1870 C   0  0  0  0  0  3  0  0  0  0  0  0
  -23.7320  -29.7550   19.9870 C   0  0  0  0  0  2  0  0  0  0  0  0
  -24.8000  -30.9730   21.9200 N   0  0  0  0  0  0  0  0  0  0  0  0
  -23.6720  -31.9620   23.6250 O   0  0  0  0  0  0  0  0  0  0  0  0
  -22.9450  -29.2860   22.3280 C   0  0  0  0  0  0  0  0  0  0  0  0
  -21.6250  -29.0500   22.2260 N   0  0  0  0  0  0  0  0  0  0  0  0
  -23.6660  -28.6640   23.1100 O   0  0  0  0  0  0  0  0  0  0  0  0
  -21.0880  -29.6040   21.5740 H   0  0  0  0  0  0  0  0  0  0  0  0
  -18.3300  -27.6660   22.7100 C   0  0  0  0  0  0  0  0  0  0  0  0
  -20.8730  -28.0440   22.9810 C   0  0  0  0  0  3  0  0  0  0  0  0
  -21.0440  -26.6390   22.3590 C   0  0  0  0  0  2  0  0  0  0  0  0
  -19.9520  -26.2790   21.3480 C   0  0  0  0  0  2  0  0  0  0  0  0
  -18.5730  -26.3440   22.0090 C   0  0  0  0  0  2  0  0  0  0  0  0
  -19.4120  -28.4660   23.1640 C   0  0  0  0  0  0  0  0  0  0  0  0
  -19.1360  -29.7050   23.7780 C   0  0  0  0  0  3  0  0  0  0  0  0
  -17.8050  -30.1320   23.9560 C   0  0  0  0  0  3  0  0  0  0  0  0
  -16.7390  -29.3290   23.5220 C   0  0  0  0  0  3  0  0  0  0  0  0
  -17.0040  -28.0980   22.8970 C   0  0  0  0  0  3  0  0  0  0  0  0
  -26.0290  -32.3860   23.6480 C   0  0  0  0  0  3  0  0  0  0  0  0
  -26.6270  -31.5680   24.8550 C   0  0  1  0  0  0  0  0  0  0  0  0
  -25.5870  -31.2290   25.9440 C   0  0  0  0  0  1  0  0  0  0  0  0
  -27.2440  -30.2350   24.3770 C   0  0  0  0  0  1  0  0  0  0  0  0
  -27.7720  -32.3690   25.5170 C   0  0  0  0  0  1  0  0  0  0  0  0
  -25.6680  -33.7460   24.0680 N   0  0  0  0  0  0  0  0  0  0  0  0
  -25.9230  -34.8520   23.3580 C   0  0  0  0  0  0  0  0  0  0  0  0
  -26.5620  -34.8410   22.3020 O   0  0  0  0  0  0  0  0  0  0  0  0
  -25.0700  -33.8240   24.8800 H   0  0  0  0  0  0  0  0  0  0  0  0
  -24.0950  -36.5720   23.1910 C   0  0  0  0  0  1  0  0  0  0  0  0
  -25.3910  -36.1850   23.9190 C   0  0  0  0  0  3  0  0  0  0  0  0
  -27.5210  -37.1280   24.7010 C   0  0  0  0  0  1  0  0  0  0  0  0
  -26.3680  -37.2930   23.8160 N   0  0  0  0  0  0  0  0  0  0  0  0
  -25.9270  -38.1810   24.0360 H   0  0  0  0  0  0  0  0  0  0  0  0
  -30.0940  -22.6420   20.3170 C   0  0  0  0  0  2  0  0  0  0  0  0
  -29.6910  -21.9340   22.7770 C   0  0  0  0  0  1  0  0  0  0  0  0
  -30.4110  -21.6020   21.4440 C   0  0  0  0  0  3  0  0  0  0  0  0
  -31.6150  -19.5220   20.5950 C   0  0  0  0  0  2  0  0  0  0  0  0
  -29.5940  -19.1820   21.8470 C   0  0  0  0  0  2  0  0  0  0  0  0
  -31.5690  -18.0460   21.0070 C   0  0  0  0  0  3  0  0  0  0  0  0
  -30.2770  -17.8310   21.7140 C   0  0  0  0  0  3  0  0  0  0  0  0
  -30.5670  -17.0320   20.4440 C   0  0  0  0  0  3  0  0  0  0  0  0
  -30.3280  -20.1620   20.9940 N   0  0  1  0  0  4  0  0  0  0  0  0
  -29.7730  -20.1950   20.1540 H   0  0  0  0  0  0  0  0  0  0  0  0
  -31.2040  -14.6040   20.0340 C   0  0  0  0  0  0  0  0  0  0  0  0
  -30.8420  -12.4070   18.9530 C   0  0  0  0  0  2  0  0  0  0  0  0
  -29.8720  -12.6040   17.7660 C   0  0  0  0  0  2  0  0  0  0  0  0
  -28.4060  -12.5180   18.2290 C   0  0  0  0  0  2  0  0  0  0  0  0
  -28.1280  -13.4000   19.4740 C   0  0  0  0  0  3  0  0  0  0  0  0
  -29.2000  -13.1610   20.5630 C   0  0  0  0  0  2  0  0  0  0  0  0
  -30.5250  -13.4220   19.9710 N   0  0  0  0  0  0  0  0  0  0  0  0
  -32.2680  -14.7930   19.4360 O   0  0  0  0  0  0  0  0  0  0  0  0
  -30.5770  -15.6010   20.6950 N   0  0  0  0  0  0  0  0  0  0  0  0
  -29.7730  -15.2840   21.2170 H   0  0  0  0  0  0  0  0  0  0  0  0
  -25.7860  -14.1310   20.2480 C   0  0  0  0  0  0  0  0  0  0  0  0
  -24.6860  -13.4220   20.6350 C   0  0  0  0  0  0  0  0  0  0  0  0
  -25.0660  -12.0460   20.5820 C   0  0  0  0  0  0  0  0  0  0  0  0
  -26.7750  -13.1950   19.9870 N   0  0  0  0  0  0  0  0  0  0  0  0
  -26.3450  -11.9330   20.2430 N   0  0  0  0  0  0  0  0  0  0  0  0
  -24.2730  -10.8260   20.7810 C   0  0  0  0  0  0  0  0  0  0  0  0
  -24.6710   -9.8330   21.7020 C   0  0  0  0  0  3  0  0  0  0  0  0
  -23.8840   -8.6770   21.8870 C   0  0  0  0  0  3  0  0  0  0  0  0
  -22.6850   -8.5070   21.1560 C   0  0  0  0  0  0  0  0  0  0  0  0
  -22.3080   -9.4870   20.2220 C   0  0  0  0  0  3  0  0  0  0  0  0
  -23.0950  -10.6350   20.0310 C   0  0  0  0  0  3  0  0  0  0  0  0
  -21.8660   -7.4090   21.2590 O   0  0  0  0  0  0  0  0  0  0  0  0
  -21.7810   -6.6760   22.4170 C   0  0  0  0  0  0  0  0  0  0  0  0
  -21.4210   -7.2690   23.6480 C   0  0  0  0  0  3  0  0  0  0  0  0
  -21.2800   -6.4690   24.7990 C   0  0  0  0  0  3  0  0  0  0  0  0
  -21.4830   -5.0780   24.7230 C   0  0  0  0  0  0  0  0  0  0  0  0
  -21.8390   -4.4880   23.4970 C   0  0  0  0  0  3  0  0  0  0  0  0
  -21.9850   -5.2830   22.3490 C   0  0  0  0  0  0  0  0  0  0  0  0
  -22.3050   -4.7020   21.1660 F   0  0  0  0  0  0  0  0  0  0  0  0
  -21.3400   -4.3100   25.8280 F   0  0  0  0  0  0  0  0  0  0  0  0
  -23.3230  -13.9740   20.9550 C   0  0  0  0  0  0  0  0  0  0  0  0
  -22.5930  -13.3170   21.8480 N   0  0  0  0  0  0  0  0  0  0  0  0
  -22.9240  -15.0210   20.4460 O   0  0  0  0  0  0  0  0  0  0  0  0
  -22.9350  -12.4730   22.2810 H   0  0  0  0  0  0  0  0  0  0  0  0
  -21.6770  -13.6630   22.1040 H   0  0  0  0  0  0  0  0  0  0  0  0
  -26.0250  -15.4960   20.0870 N   0  0  0  0  0  0  0  0  0  0  0  0
  -25.3040  -16.1950   20.2270 H   0  0  0  0  0  0  0  0  0  0  0  0
  -26.9040  -15.8900   19.7880 H   0  0  0  0  0  0  0  0  0  0  0  0
  1  2  1  0
  2  6  1  0
  4  1  1  0
  4  7  1  0
  4  3  1  0
  5 10  1  0
  6  5  1  0
  6  3  1  0
  6 52  1  1
  7  5  1  0
  7  8  1  1
  9  7  1  0
 10 11  1  0
 11 13  1  0
 12 23  2  0
 13 18  1  0
 14 22  1  0
 14 24  1  0
 15 21  1  0
 15 17  1  0
 16 22  1  0
 17 16  1  0
 18 17  2  0
 19 20  1  0
 19 13  2  0
 20 15  2  0
 21 14  1  0
 22 12  1  0
 24 26  2  0
 25 24  1  0
 27 25  1  0
 28 37  2  0
 28 33  1  0
 29 25  1  0
 29 33  1  0
 30 29  1  0
 31 32  1  0
 31 30  1  0
 32 28  1  0
 33 34  2  0
 34 35  1  0
 36 35  2  0
 37 36  1  0
 38 12  1  0
 38 43  1  0
 38 39  1  0
 39 42  1  1
 39 40  1  0
 41 39  1  0
 43 46  1  0
 44 48  1  0
 44 43  1  0
 45 44  2  0
 48 47  1  0
 50 48  1  0
 50 51  1  0
 50 49  1  0
 52 54  1  0
 54 53  1  0
 55 60  1  0
 57 55  1  0
 57 58  1  0
 58 56  1  0
 59 70  1  0
 59 57  1  0
 59 58  1  0
 60 54  1  0
 60 56  1  0
 60 61  1  6
 62 70  1  0
 63 68  1  0
 64 65  1  0
 64 63  1  0
 66 65  1  0
 66 75  1  0
 66 67  1  0
 68 62  1  0
 68 67  1  0
 69 62  2  0
 70 71  1  0
 72 73  2  0
 73 92  1  0
 74 73  1  0
 74 77  1  0
 75 76  1  0
 75 72  1  0
 76 74  2  0
 77 78  1  0
 78 79  2  0
 80 83  1  0
 80 79  1  0
 81 80  2  0
 82 81  1  0
 82 77  2  0
 83 84  1  0
 84 85  1  0
 85 86  2  0
 87 86  1  0
 87 91  1  0
 88 87  2  0
 89 84  2  0
 89 88  1  0
 90 89  1  0
 92 93  1  0
 93 96  1  0
 93 95  1  0
 94 92  2  0
 97 98  1  0
 97 72  1  0
 99 97  1  0
M  ISO  4  10 101  11 101  62 100  70 100
M  END
>  <TORSDO>  (38) 
F 20

>  <SCORE>  (38) 
-12.655

>  <name>  (38) 
37

>  <ligand_id>  (38) 
37

>  <original_smiles>  (38) 
[H]c1c([H])c([H])c2c(c1[H])C([H])([H])C([H])([H])C([H])([H])C2([H])N([H])C(=O)C1([H])N(C(=O)C([H])(N([H])C(=O)C([H])(N([H])C([H])([H])[H])C([H])([H])[H])C(C([H])([H])[H])(C([H])([H])[H])C([H])([H])[H])C([H])([H])c2c([H])c(OC([H])([H])C3([H])C4(C([H])([H])C([H])(C([H])([H])[H])[N+]5([H])C([H])([H])C6([H])C([H])(N([H])C(=O)N7C([H])([H])C([H])([H])C([H])([H])C([H])(n8nc(-c9c([H])c([H])c(Oc%10c([H])c([H])c(F)c([H])c%10F)c([H])c9[H])c(C(=O)N([H])[H])c8N([H])[H])C7([H])[H])C6([H])C5([H])[H])C([H])([H])C([H])([H])C([H])(C4([H])[H])C3(C([H])([H])[H])C([H])([H])[H])c([H])c([H])c2C1([H])[H]

>  <smiles>  (38) 
[H]c1c([H])c([H])c2c(c1[H])C([H])([H])C([H])([H])C([H])([H])C2([H])N([H])C(=O)C1([H])N(C(=O)C([H])(N([H])C(=O)C([H])(N([H])C([H])([H])[H])C([H])([H])[H])C(C([H])([H])[H])(C([H])([H])[H])C([H])([H])[H])C([H])([H])c2c([H])c(OC([H])([H])C3([H])C4(C([H])([H])C([H])(C([H])([H])[H])[N+]5([H])C([H])([H])C6([H])C([H])(N([H])C(=O)N7C([H])([H])C([H])([H])C([H])([H])C([H])(n8nc(-c9c([H])c([H])c(Oc%10c([H])c([H])c(F)c([H])c%10F)c([H])c9[H])c(C(=O)N([H])[H])c8N([H])[H])C7([H])[H])C6([H])C5([H])[H])C([H])([H])C([H])([H])C([H])(C4([H])[H])C3(C([H])([H])[H])C([H])([H])[H])c([H])c([H])c2C1([H])[H]

$$$$
38:0:0
     RDKit          3D

 89 98  0  0  1  0  0  0  0  0999 V2000
  -28.0890  -22.6040   21.2380 C   0  0  0  0  0  3  0  0  0  0  0  0
  -28.3220  -21.1840   21.3400 C   0  0  0  0  0  3  0  0  0  0  0  0
  -29.3240  -22.5680   19.2460 C   0  0  0  0  0  3  0  0  0  0  0  0
  -28.5600  -23.3910   20.1440 C   0  0  0  0  0  0  0  0  0  0  0  0
  -29.0450  -20.4290   20.3630 C   0  0  0  0  0  0  0  0  0  0  0  0
  -29.5490  -21.1920   19.3370 N   0  0  0  0  0  0  0  0  0  0  0  0
  -28.0280  -18.4020   19.1290 C   0  0  0  0  0  1  0  0  0  0  0  0
  -28.9490  -18.7850   20.2970 C   0  0  0  0  0  3  0  0  0  0  0  0
  -30.6680  -15.0220   20.3340 C   0  0  0  0  0  0  0  0  0  0  0  0
  -30.5040  -12.6930   19.3720 C   0  0  0  0  0  2  0  0  0  0  0  0
  -29.5790  -12.6700   18.1360 C   0  0  0  0  0  2  0  0  0  0  0  0
  -28.1110  -12.4750   18.5570 C   0  0  0  0  0  2  0  0  0  0  0  0
  -27.7050  -13.3940   19.7400 C   0  0  0  0  0  3  0  0  0  0  0  0
  -28.7550  -13.3950   20.8710 C   0  0  0  0  0  2  0  0  0  0  0  0
  -30.0370  -13.7850   20.2690 N   0  0  0  0  0  0  0  0  0  0  0  0
  -31.8490  -15.0810   19.9750 O   0  0  0  0  0  0  0  0  0  0  0  0
  -30.5640  -17.0970   21.6480 C   0  0  0  0  0  2  0  0  0  0  0  0
  -30.1720  -17.6990   20.3510 C   0  0  0  0  0  3  0  0  0  0  0  0
  -29.9660  -16.2010   20.6850 N   0  0  0  0  0  0  0  0  0  0  0  0
  -25.3130  -13.9630   20.4570 C   0  0  0  0  0  0  0  0  0  0  0  0
  -24.2480  -13.1840   20.8180 C   0  0  0  0  0  0  0  0  0  0  0  0
  -24.7190  -11.8340   20.7920 C   0  0  0  0  0  0  0  0  0  0  0  0
  -26.3630  -13.0900   20.2280 N   0  0  0  0  0  0  0  0  0  0  0  0
  -26.0130  -11.8040   20.4940 N   0  0  0  0  0  0  0  0  0  0  0  0
  -23.9950  -10.5700   20.9790 C   0  0  0  0  0  0  0  0  0  0  0  0
  -24.4060   -9.6160   21.9380 C   0  0  0  0  0  3  0  0  0  0  0  0
  -23.6810   -8.4180   22.1130 C   0  0  0  0  0  3  0  0  0  0  0  0
  -22.5290   -8.1630   21.3300 C   0  0  0  0  0  0  0  0  0  0  0  0
  -22.1370   -9.1040   20.3620 C   0  0  0  0  0  3  0  0  0  0  0  0
  -22.8630  -10.2940   20.1860 C   0  0  0  0  0  3  0  0  0  0  0  0
  -21.7790   -7.0150   21.4130 O   0  0  0  0  0  0  0  0  0  0  0  0
  -21.6700   -6.3090   22.5840 C   0  0  0  0  0  0  0  0  0  0  0  0
  -21.1290   -6.8840   23.7540 C   0  0  0  0  0  3  0  0  0  0  0  0
  -20.9720   -6.1010   24.9150 C   0  0  0  0  0  3  0  0  0  0  0  0
  -21.3460   -4.7450   24.9070 C   0  0  0  0  0  0  0  0  0  0  0  0
  -21.8800   -4.1680   23.7410 C   0  0  0  0  0  3  0  0  0  0  0  0
  -22.0380   -4.9480   22.5830 C   0  0  0  0  0  0  0  0  0  0  0  0
  -22.5340   -4.3830   21.4560 F   0  0  0  0  0  0  0  0  0  0  0  0
  -21.1890   -3.9910   26.0210 F   0  0  0  0  0  0  0  0  0  0  0  0
  -22.8480  -13.6560   21.0800 C   0  0  0  0  0  0  0  0  0  0  0  0
  -22.1170  -12.9550   21.9410 N   0  0  0  0  0  0  0  0  0  0  0  0
  -22.4100  -14.6820   20.5600 O   0  0  0  0  0  0  0  0  0  0  0  0
  -22.4850  -12.1280   22.3850 H   0  0  0  0  0  0  0  0  0  0  0  0
  -21.1770  -13.2530   22.1640 H   0  0  0  0  0  0  0  0  0  0  0  0
  -25.4730  -15.3340   20.2830 N   0  0  0  0  0  0  0  0  0  0  0  0
  -24.7080  -15.9880   20.4010 H   0  0  0  0  0  0  0  0  0  0  0  0
  -26.3370  -15.7770   19.9970 H   0  0  0  0  0  0  0  0  0  0  0  0
  -27.9110  -24.8460   19.7500 C   0  0  0  0  0  2  0  0  0  0  0  0
  -28.2160  -26.2790   20.2390 O   0  0  0  0  0  0  0  0  0  0  0  0
  -24.6030  -31.9440   23.2330 C   0  0  0  0  0  0  0  0  0  0  0  0
  -27.1810  -27.2800   20.1450 C   0  0  0  0  0  0  0  0  0  0  0  0
  -23.3960  -30.5420   21.6060 C   0  0  0  0  0  3  0  0  0  0  0  0
  -24.8420  -29.0020   20.1510 C   0  0  0  0  0  0  0  0  0  0  0  0
  -25.9450  -30.8320   21.4150 C   0  0  0  0  0  2  0  0  0  0  0  0
  -26.0210  -29.4460   20.7600 C   0  0  0  0  0  0  0  0  0  0  0  0
  -27.1890  -28.5950   20.7570 C   0  0  0  0  0  3  0  0  0  0  0  0
  -25.9840  -26.9630   19.4580 C   0  0  0  0  0  3  0  0  0  0  0  0
  -24.8350  -27.7710   19.4860 C   0  0  0  0  0  3  0  0  0  0  0  0
  -23.6050  -29.8790   20.2200 C   0  0  0  0  0  2  0  0  0  0  0  0
  -24.6690  -31.1280   22.1390 N   0  0  0  0  0  0  0  0  0  0  0  0
  -23.5220  -32.2170   23.7740 O   0  0  0  0  0  0  0  0  0  0  0  0
  -22.7420  -29.5210   22.5700 C   0  0  0  0  0  0  0  0  0  0  0  0
  -21.4180  -29.3220   22.4440 N   0  0  0  0  0  0  0  0  0  0  0  0
  -23.4280  -28.9110   23.3940 O   0  0  0  0  0  0  0  0  0  0  0  0
  -20.9240  -29.8660   21.7520 H   0  0  0  0  0  0  0  0  0  0  0  0
  -18.0610  -28.0630   22.9540 C   0  0  0  0  0  0  0  0  0  0  0  0
  -20.6150  -28.3720   23.2190 C   0  0  0  0  0  3  0  0  0  0  0  0
  -20.7440  -26.9400   22.6480 C   0  0  0  0  0  2  0  0  0  0  0  0
  -19.6450  -26.5920   21.6370 C   0  0  0  0  0  2  0  0  0  0  0  0
  -18.2620  -26.7140   22.2810 C   0  0  0  0  0  2  0  0  0  0  0  0
  -19.1660  -28.8470   23.3780 C   0  0  0  0  0  0  0  0  0  0  0  0
  -18.9260  -30.1060   23.9690 C   0  0  0  0  0  3  0  0  0  0  0  0
  -17.6120  -30.5830   24.1380 C   0  0  0  0  0  3  0  0  0  0  0  0
  -16.5220  -29.7960   23.7300 C   0  0  0  0  0  3  0  0  0  0  0  0
  -16.7470  -28.5380   23.1450 C   0  0  0  0  0  3  0  0  0  0  0  0
  -25.8850  -32.5880   23.8450 C   0  0  0  0  0  3  0  0  0  0  0  0
  -25.5710  -33.9890   24.1640 N   0  0  0  0  0  0  0  0  0  0  0  0
  -25.8760  -35.0370   23.3880 C   0  0  0  0  0  0  0  0  0  0  0  0
  -26.5220  -34.9280   22.3430 O   0  0  0  0  0  0  0  0  0  0  0  0
  -24.9990  -34.1480   24.9820 H   0  0  0  0  0  0  0  0  0  0  0  0
  -24.1290  -36.8190   23.0580 C   0  0  0  0  0  1  0  0  0  0  0  0
  -25.3900  -36.4280   23.8450 C   0  0  0  0  0  3  0  0  0  0  0  0
  -27.5310  -37.3410   24.6260 C   0  0  0  0  0  1  0  0  0  0  0  0
  -26.4110  -37.4870   23.7000 N   0  0  0  0  0  0  0  0  0  0  0  0
  -26.0010  -38.4050   23.8440 H   0  0  0  0  0  0  0  0  0  0  0  0
  -26.4030  -31.8350   25.1320 C   0  0  1  0  0  0  0  0  0  0  0  0
  -25.3100  -31.6040   26.2020 C   0  0  0  0  0  1  0  0  0  0  0  0
  -26.9960  -30.4560   24.7600 C   0  0  0  0  0  1  0  0  0  0  0  0
  -27.5480  -32.6430   25.7870 C   0  0  0  0  0  1  0  0  0  0  0  0
  1  2  1  0
  3  6  2  0
  3  4  1  0
  4  1  2  0
  5  2  2  0
  6  5  1  0
  8  7  1  0
  8  5  1  0
  9 19  1  0
 10 15  1  0
 11 12  1  0
 11 10  1  0
 13 12  1  0
 13 23  1  0
 13 14  1  0
 15  9  1  0
 15 14  1  0
 16  9  2  0
 18  8  1  0
 18 19  1  0
 18 17  1  0
 19 17  1  0
 20 21  2  0
 21 40  1  0
 22 21  1  0
 22 25  1  0
 23 20  1  0
 23 24  1  0
 24 22  2  0
 25 26  1  0
 26 27  2  0
 28 31  1  0
 28 27  1  0
 29 28  2  0
 30 29  1  0
 30 25  2  0
 31 32  1  0
 32 33  1  0
 33 34  2  0
 35 34  1  0
 35 39  1  0
 36 35  2  0
 37 32  2  0
 37 36  1  0
 38 37  1  0
 40 41  1  0
 41 44  1  0
 41 43  1  0
 42 40  2  0
 45 46  1  0
 45 20  1  0
 47 45  1  0
 48  4  1  0
 48 49  1  0
 50 61  2  0
 51 49  1  0
 51 56  1  0
 52 60  1  0
 52 62  1  0
 53 59  1  0
 53 55  1  0
 54 60  1  0
 55 54  1  0
 56 55  2  0
 57 58  1  0
 57 51  2  0
 58 53  2  0
 59 52  1  0
 60 50  1  0
 62 64  2  0
 63 62  1  0
 65 63  1  0
 66 75  2  0
 66 71  1  0
 67 63  1  0
 67 71  1  0
 68 67  1  0
 69 70  1  0
 69 68  1  0
 70 66  1  0
 71 72  2  0
 72 73  1  0
 74 73  2  0
 75 74  1  0
 76 50  1  0
 76 77  1  0
 76 86  1  0
 77 80  1  0
 78 82  1  0
 78 77  1  0
 79 78  2  0
 82 81  1  0
 84 85  1  0
 84 82  1  0
 84 83  1  0
 86 89  1  1
 86 87  1  0
 88 86  1  0
M  ISO  4   9 100  19 100  48 101  49 101
M  END
>  <TORSDO>  (39) 
F 18

>  <SCORE>  (39) 
-14.842

>  <name>  (39) 
38

>  <ligand_id>  (39) 
38

>  <original_smiles>  (39) 
[H]c1nc(C([H])(C([H])([H])[H])C2([H])N(C(=O)N3C([H])([H])C([H])([H])C([H])([H])C([H])(n4nc(-c5c([H])c([H])c(Oc6c([H])c([H])c(F)c([H])c6F)c([H])c5[H])c(C(=O)N([H])[H])c4N([H])[H])C3([H])[H])C2([H])[H])c([H])c([H])c1C([H])([H])Oc1c([H])c([H])c2c(c1[H])C([H])([H])N(C(=O)C([H])(N([H])C(=O)C([H])(N([H])C([H])([H])[H])C([H])([H])[H])C(C([H])([H])[H])(C([H])([H])[H])C([H])([H])[H])C([H])(C(=O)N([H])C1([H])c3c([H])c([H])c([H])c([H])c3C([H])([H])C([H])([H])C1([H])[H])C2([H])[H]

>  <smiles>  (39) 
[H]c1nc(C([H])(C([H])([H])[H])C2([H])N(C(=O)N3C([H])([H])C([H])([H])C([H])([H])C([H])(n4nc(-c5c([H])c([H])c(Oc6c([H])c([H])c(F)c([H])c6F)c([H])c5[H])c(C(=O)N([H])[H])c4N([H])[H])C3([H])[H])C2([H])[H])c([H])c([H])c1C([H])([H])Oc1c([H])c([H])c2c(c1[H])C([H])([H])N(C(=O)C([H])(N([H])C(=O)C([H])(N([H])C([H])([H])[H])C([H])([H])[H])C(C([H])([H])[H])(C([H])([H])[H])C([H])([H])[H])C([H])(C(=O)N([H])C1([H])c3c([H])c([H])c([H])c([H])c3C([H])([H])C([H])([H])C1([H])[H])C2([H])[H]

$$$$
39:0:0
     RDKit          3D

 90 99  0  0  1  0  0  0  0  0999 V2000
  -31.4270  -15.0320   20.4910 C   0  0  0  0  0  0  0  0  0  0  0  0
  -31.4740  -12.4320   20.7640 C   0  0  0  0  0  2  0  0  0  0  0  0
  -30.8230  -11.6440   19.5960 C   0  0  0  0  0  2  0  0  0  0  0  0
  -29.3070  -11.4970   19.8090 C   0  0  0  0  0  2  0  0  0  0  0  0
  -28.6680  -12.8220   20.2830 C   0  0  0  0  0  3  0  0  0  0  0  0
  -29.4640  -13.4960   21.4190 C   0  0  0  0  0  2  0  0  0  0  0  0
  -30.8160  -13.7930   20.8950 N   0  0  0  0  0  0  0  0  0  0  0  0
  -32.6590  -14.9200   20.4020 O   0  0  0  0  0  0  0  0  0  0  0  0
  -29.8110  -18.8360   18.6070 C   0  0  0  0  0  0  0  0  0  0  0  0
  -28.6250  -18.4470   19.3030 C   0  0  0  0  0  0  0  0  0  0  0  0
  -29.5720  -20.1890   17.7840 C   0  0  0  0  0  0  0  0  0  0  0  0
  -27.3150  -20.0570   18.3740 C   0  0  0  0  0  0  0  0  0  0  0  0
  -30.9750  -17.5930   18.9870 C   0  0  0  0  0  2  0  0  0  0  0  0
  -28.5430  -17.2930   20.3040 C   0  0  0  0  0  2  0  0  0  0  0  0
  -29.8580  -16.9200   20.9860 C   0  0  0  0  0  2  0  0  0  0  0  0
  -25.9320  -20.6400   18.1780 C   0  0  0  0  0  1  0  0  0  0  0  0
  -27.4290  -19.0290   19.1700 N   0  0  0  0  0  0  0  0  0  0  0  0
  -28.3030  -20.6370   17.7400 N   0  0  0  0  0  0  0  0  0  0  0  0
  -30.7320  -16.2810   20.0130 N   0  0  0  0  0  0  0  0  0  0  0  0
  -26.2830  -13.6690   20.6260 C   0  0  0  0  0  0  0  0  0  0  0  0
  -25.1030  -13.0400   20.8930 C   0  0  0  0  0  0  0  0  0  0  0  0
  -25.4170  -11.6510   21.0110 C   0  0  0  0  0  0  0  0  0  0  0  0
  -27.2510  -12.6810   20.6010 N   0  0  0  0  0  0  0  0  0  0  0  0
  -26.7290  -11.4620   20.8980 N   0  0  0  0  0  0  0  0  0  0  0  0
  -24.5320  -10.4910   21.1600 C   0  0  0  0  0  0  0  0  0  0  0  0
  -24.7760   -9.4920   22.1280 C   0  0  0  0  0  3  0  0  0  0  0  0
  -23.8950   -8.3980   22.2640 C   0  0  0  0  0  3  0  0  0  0  0  0
  -22.7550   -8.2960   21.4320 C   0  0  0  0  0  0  0  0  0  0  0  0
  -22.5280   -9.2810   20.4540 C   0  0  0  0  0  3  0  0  0  0  0  0
  -23.4090  -10.3650   20.3160 C   0  0  0  0  0  3  0  0  0  0  0  0
  -21.8590   -7.2560   21.4770 O   0  0  0  0  0  0  0  0  0  0  0  0
  -21.6910   -6.5000   22.6090 C   0  0  0  0  0  0  0  0  0  0  0  0
  -21.4400   -7.0890   23.8670 C   0  0  0  0  0  3  0  0  0  0  0  0
  -21.2050   -6.2720   24.9910 C   0  0  0  0  0  3  0  0  0  0  0  0
  -21.2100   -4.8700   24.8590 C   0  0  0  0  0  0  0  0  0  0  0  0
  -21.4540   -4.2830   23.6060 C   0  0  0  0  0  3  0  0  0  0  0  0
  -21.6910   -5.0960   22.4830 C   0  0  0  0  0  0  0  0  0  0  0  0
  -21.9050   -4.5250   21.2730 F   0  0  0  0  0  0  0  0  0  0  0  0
  -20.9760   -4.0870   25.9370 F   0  0  0  0  0  0  0  0  0  0  0  0
  -23.7470  -13.6790   20.9210 C   0  0  0  0  0  0  0  0  0  0  0  0
  -22.8000  -13.0780   21.6310 N   0  0  0  0  0  0  0  0  0  0  0  0
  -23.5340  -14.7510   20.3530 O   0  0  0  0  0  0  0  0  0  0  0  0
  -22.9810  -12.2110   22.1140 H   0  0  0  0  0  0  0  0  0  0  0  0
  -21.8800  -13.4910   21.6910 H   0  0  0  0  0  0  0  0  0  0  0  0
  -26.6020  -14.9930   20.3600 N   0  0  0  0  0  0  0  0  0  0  0  0
  -25.8810  -15.7020   20.2720 H   0  0  0  0  0  0  0  0  0  0  0  0
  -27.4990  -15.2940   20.0070 H   0  0  0  0  0  0  0  0  0  0  0  0
  -30.2740  -21.5000   16.8890 C   0  0  0  0  0  2  0  0  0  0  0  0
  -29.5000  -23.1040   16.4780 C   0  0  0  0  0  2  0  0  0  0  0  0
  -29.2310  -24.0650   15.1500 O   0  0  0  0  0  0  0  0  0  0  0  0
  -33.4590  -28.9980   11.2590 C   0  0  0  0  0  0  0  0  0  0  0  0
  -29.7650  -25.4370   14.8810 C   0  0  0  0  0  0  0  0  0  0  0  0
  -32.9520  -29.4850   13.6190 C   0  0  0  0  0  3  0  0  0  0  0  0
  -31.0270  -28.1240   14.6870 C   0  0  0  0  0  0  0  0  0  0  0  0
  -31.2690  -28.1230   12.2150 C   0  0  0  0  0  2  0  0  0  0  0  0
  -30.7770  -27.4100   13.5090 C   0  0  0  0  0  0  0  0  0  0  0  0
  -30.1280  -26.0960   13.6030 C   0  0  0  0  0  3  0  0  0  0  0  0
  -29.9930  -26.2920   15.9840 C   0  0  0  0  0  3  0  0  0  0  0  0
  -30.6010  -27.5730   15.9060 C   0  0  0  0  0  3  0  0  0  0  0  0
  -31.7550  -29.4670   14.6100 C   0  0  0  0  0  2  0  0  0  0  0  0
  -32.5890  -28.8510   12.3090 N   0  0  0  0  0  0  0  0  0  0  0  0
  -34.5190  -29.6350   11.3740 O   0  0  0  0  0  0  0  0  0  0  0  0
  -34.1900  -28.8320   14.2870 C   0  0  0  0  0  0  0  0  0  0  0  0
  -34.7400  -29.4720   15.3370 N   0  0  0  0  0  0  0  0  0  0  0  0
  -34.6230  -27.7550   13.8720 O   0  0  0  0  0  0  0  0  0  0  0  0
  -34.3410  -30.3570   15.6160 H   0  0  0  0  0  0  0  0  0  0  0  0
  -36.8590  -30.2210   18.1860 C   0  0  0  0  0  0  0  0  0  0  0  0
  -35.8680  -28.9860   16.1400 C   0  0  0  0  0  3  0  0  0  0  0  0
  -35.4090  -27.9060   17.1470 C   0  0  0  0  0  2  0  0  0  0  0  0
  -35.0560  -28.4780   18.5240 C   0  0  0  0  0  2  0  0  0  0  0  0
  -36.2640  -29.1930   19.1350 C   0  0  0  0  0  2  0  0  0  0  0  0
  -36.6600  -30.1320   16.7810 C   0  0  0  0  0  0  0  0  0  0  0  0
  -37.2110  -31.1300   15.9500 C   0  0  0  0  0  3  0  0  0  0  0  0
  -37.9450  -32.2000   16.4960 C   0  0  0  0  0  3  0  0  0  0  0  0
  -38.1480  -32.2770   17.8850 C   0  0  0  0  0  3  0  0  0  0  0  0
  -37.6100  -31.2850   18.7260 C   0  0  0  0  0  3  0  0  0  0  0  0
  -33.1600  -28.3850    9.8570 C   0  0  0  0  0  3  0  0  0  0  0  0
  -33.6800  -29.3140    8.8370 N   0  0  0  0  0  0  0  0  0  0  0  0
  -32.9250  -30.0050    7.9730 C   0  0  0  0  0  0  0  0  0  0  0  0
  -31.6990  -29.8820    7.9130 O   0  0  0  0  0  0  0  0  0  0  0  0
  -34.6700  -29.5060    8.8670 H   0  0  0  0  0  0  0  0  0  0  0  0
  -33.3050  -32.4340    7.4190 C   0  0  0  0  0  1  0  0  0  0  0  0
  -33.6400  -30.9870    7.0220 C   0  0  0  0  0  3  0  0  0  0  0  0
  -33.8510  -29.5390    5.0480 C   0  0  0  0  0  1  0  0  0  0  0  0
  -33.3050  -30.7780    5.5950 N   0  0  0  0  0  0  0  0  0  0  0  0
  -33.6440  -31.5510    5.0280 H   0  0  0  0  0  0  0  0  0  0  0  0
  -33.7950  -26.9530    9.6600 C   0  0  1  0  0  0  0  0  0  0  0  0
  -35.3190  -26.9050    9.9230 C   0  0  0  0  0  1  0  0  0  0  0  0
  -33.1270  -25.9190   10.5950 C   0  0  0  0  0  1  0  0  0  0  0  0
  -33.5440  -26.4640    8.2130 C   0  0  0  0  0  1  0  0  0  0  0  0
  1  7  1  0
  2  7  1  0
  3  4  1  0
  3  2  1  0
  5  4  1  0
  5 23  1  0
  5  6  1  0
  7  6  1  0
  8  1  2  0
  9 13  1  0
  9 10  2  0
 10 14  1  0
 11  9  1  0
 12 17  2  0
 13 19  1  0
 14 15  1  0
 16 12  1  0
 17 10  1  0
 18 11  2  0
 18 12  1  0
 19  1  1  0
 19 15  1  0
 20 21  2  0
 21 40  1  0
 21 22  1  0
 22 25  1  0
 23 20  1  0
 23 24  1  0
 24 22  2  0
 25 26  1  0
 26 27  2  0
 28 31  1  0
 28 27  1  0
 29 28  2  0
 30 29  1  0
 30 25  2  0
 31 32  1  0
 32 33  1  0
 33 34  2  0
 35 34  1  0
 35 39  1  0
 36 35  2  0
 37 32  2  0
 37 36  1  0
 38 37  1  0
 40 41  1  0
 41 44  1  0
 41 43  1  0
 42 40  2  0
 45 20  1  0
 46 45  1  0
 47 45  1  0
 48 11  1  0
 49 48  1  0
 50 49  1  0
 51 62  2  0
 51 61  1  0
 52 50  1  0
 52 58  1  0
 53 63  1  0
 53 60  1  0
 54 59  1  0
 55 61  1  0
 55 56  1  0
 56 57  1  0
 56 54  2  0
 57 52  2  0
 59 58  2  0
 60 54  1  0
 61 53  1  0
 63 64  1  0
 64 66  1  0
 65 63  2  0
 67 76  1  0
 67 71  1  0
 68 64  1  0
 68 72  1  0
 68 69  1  0
 69 70  1  0
 70 71  1  0
 72 67  2  0
 73 74  2  0
 73 72  1  0
 74 75  1  0
 75 76  2  0
 77 51  1  0
 78 81  1  0
 78 77  1  0
 79 78  1  0
 80 79  2  0
 83 82  1  0
 83 79  1  0
 84 85  1  0
 85 83  1  0
 86 85  1  0
 87 77  1  0
 87 88  1  1
 87 89  1  0
 90 87  1  0
M  ISO  4   1 100  19 100  49 101  50 101
M  END
>  <TORSDO>  (40) 
F 17

>  <SCORE>  (40) 
-9.501

>  <name>  (40) 
39

>  <ligand_id>  (40) 
39

>  <original_smiles>  (40) 
[H]c1c([H])c([H])c2c(c1[H])C([H])([H])C([H])([H])C([H])([H])C2([H])N([H])C(=O)C1([H])N(C(=O)C([H])(N([H])C(=O)C([H])(N([H])C([H])([H])[H])C([H])([H])[H])C(C([H])([H])[H])(C([H])([H])[H])C([H])([H])[H])C([H])([H])c2c([H])c(OC([H])([H])C([H])([H])c3nc(C([H])([H])[H])nc4c3C([H])([H])N(C(=O)N3C([H])([H])C([H])([H])C([H])([H])C([H])(n5nc(-c6c([H])c([H])c(Oc7c([H])c([H])c(F)c([H])c7F)c([H])c6[H])c(C(=O)N([H])[H])c5N([H])[H])C3([H])[H])C([H])([H])C4([H])[H])c([H])c([H])c2C1([H])[H]

>  <smiles>  (40) 
[H]c1c([H])c([H])c2c(c1[H])C([H])([H])C([H])([H])C([H])([H])C2([H])N([H])C(=O)C1([H])N(C(=O)C([H])(N([H])C(=O)C([H])(N([H])C([H])([H])[H])C([H])([H])[H])C(C([H])([H])[H])(C([H])([H])[H])C([H])([H])[H])C([H])([H])c2c([H])c(OC([H])([H])C([H])([H])c3nc(C([H])([H])[H])nc4c3C([H])([H])N(C(=O)N3C([H])([H])C([H])([H])C([H])([H])C([H])(n5nc(-c6c([H])c([H])c(Oc7c([H])c([H])c(F)c([H])c7F)c([H])c6[H])c(C(=O)N([H])[H])c5N([H])[H])C3([H])[H])C([H])([H])C4([H])[H])c([H])c([H])c2C1([H])[H]

$$$$
40:0:0
     RDKit          3D

 91100  0  0  1  0  0  0  0  0999 V2000
  -30.5340  -15.4560   20.3250 C   0  0  0  0  0  0  0  0  0  0  0  0
  -30.4750  -12.9810   19.4850 C   0  0  0  0  0  2  0  0  0  0  0  0
  -29.6060  -12.6420   18.2520 C   0  0  0  0  0  2  0  0  0  0  0  0
  -28.1620  -12.3480   18.6870 C   0  0  0  0  0  2  0  0  0  0  0  0
  -27.6530  -13.3670   19.7380 C   0  0  0  0  0  3  0  0  0  0  0  0
  -28.6720  -13.6580   20.8630 C   0  0  0  0  0  2  0  0  0  0  0  0
  -29.8750  -14.1880   20.1890 N   0  0  0  0  0  0  0  0  0  0  0  0
  -31.7630  -15.2580   20.3020 O   0  0  0  0  0  0  0  0  0  0  0  0
  -30.6830  -20.1510   19.7750 C   0  0  0  0  0  3  0  0  0  0  0  0
  -29.3520  -19.8640   20.1150 C   0  0  0  0  0  0  0  0  0  0  0  0
  -31.1400  -21.5060   19.6020 C   0  0  0  0  0  0  0  0  0  0  0  0
  -28.4930  -21.1550   20.1860 C   0  0  0  0  0  0  0  0  0  0  0  0
  -30.2830  -22.6770   19.6160 C   0  0  0  0  0  0  0  0  0  0  0  0
  -28.8920  -22.6390   19.9400 C   0  0  0  0  0  0  0  0  0  0  0  0
  -31.6180  -18.9240   19.6200 C   0  0  0  0  0  3  0  0  0  0  0  0
  -29.0920  -18.1510   20.4070 C   0  0  0  0  0  3  0  0  0  0  0  0
  -30.9550  -17.6170   19.0490 C   0  0  0  0  0  3  0  0  0  0  0  0
  -32.6480  -21.7010   19.4170 C   0  0  0  0  0  1  0  0  0  0  0  0
  -27.0350  -20.9340   20.5330 C   0  0  0  0  0  1  0  0  0  0  0  0
  -30.8720  -24.0340   19.2350 C   0  0  0  0  0  1  0  0  0  0  0  0
  -30.0610  -16.8650   19.9750 N   0  0  0  0  0  0  0  0  0  0  0  0
  -25.2770  -13.9190   20.4560 C   0  0  0  0  0  0  0  0  0  0  0  0
  -24.2060  -13.1430   20.7980 C   0  0  0  0  0  0  0  0  0  0  0  0
  -24.6730  -11.7920   20.7790 C   0  0  0  0  0  0  0  0  0  0  0  0
  -26.3240  -13.0440   20.2340 N   0  0  0  0  0  0  0  0  0  0  0  0
  -25.9730  -11.7570   20.4990 N   0  0  0  0  0  0  0  0  0  0  0  0
  -23.9390  -10.5300   20.9490 C   0  0  0  0  0  0  0  0  0  0  0  0
  -24.3510   -9.5540   21.8820 C   0  0  0  0  0  3  0  0  0  0  0  0
  -23.6130   -8.3620   22.0460 C   0  0  0  0  0  3  0  0  0  0  0  0
  -22.4490   -8.1360   21.2730 C   0  0  0  0  0  0  0  0  0  0  0  0
  -22.0580   -9.1000   20.3270 C   0  0  0  0  0  3  0  0  0  0  0  0
  -22.7950  -10.2830   20.1630 C   0  0  0  0  0  3  0  0  0  0  0  0
  -21.6860   -6.9960   21.3420 O   0  0  0  0  0  0  0  0  0  0  0  0
  -21.6240   -6.2410   22.4860 C   0  0  0  0  0  0  0  0  0  0  0  0
  -21.1780   -6.7810   23.7120 C   0  0  0  0  0  3  0  0  0  0  0  0
  -21.0650   -5.9530   24.8460 C   0  0  0  0  0  3  0  0  0  0  0  0
  -21.3860   -4.5850   24.7560 C   0  0  0  0  0  0  0  0  0  0  0  0
  -21.8240   -4.0440   23.5340 C   0  0  0  0  0  3  0  0  0  0  0  0
  -21.9390   -4.8700   22.4020 C   0  0  0  0  0  0  0  0  0  0  0  0
  -22.3430   -4.3390   21.2230 F   0  0  0  0  0  0  0  0  0  0  0  0
  -21.2690   -3.7870   25.8440 F   0  0  0  0  0  0  0  0  0  0  0  0
  -22.8020  -13.6230   21.0240 C   0  0  0  0  0  0  0  0  0  0  0  0
  -22.0520  -12.9410   21.8810 N   0  0  0  0  0  0  0  0  0  0  0  0
  -22.3810  -14.6410   20.4750 O   0  0  0  0  0  0  0  0  0  0  0  0
  -22.4090  -12.1210   22.3500 H   0  0  0  0  0  0  0  0  0  0  0  0
  -21.1080  -13.2450   22.0740 H   0  0  0  0  0  0  0  0  0  0  0  0
  -25.4410  -15.2910   20.2820 N   0  0  0  0  0  0  0  0  0  0  0  0
  -24.6720  -15.9430   20.3910 H   0  0  0  0  0  0  0  0  0  0  0  0
  -26.2940  -15.7320   19.9650 H   0  0  0  0  0  0  0  0  0  0  0  0
  -27.9300  -24.1460   19.8950 C   0  0  0  0  0  2  0  0  0  0  0  0
  -28.2480  -25.7940   19.9990 O   0  0  0  0  0  0  0  0  0  0  0  0
  -24.7080  -31.7910   23.1160 C   0  0  0  0  0  0  0  0  0  0  0  0
  -27.2610  -26.9380   19.9780 C   0  0  0  0  0  0  0  0  0  0  0  0
  -23.5240  -30.4460   21.4320 C   0  0  0  0  0  3  0  0  0  0  0  0
  -24.9770  -28.8690   19.9760 C   0  0  0  0  0  0  0  0  0  0  0  0
  -26.0960  -30.6370   21.3130 C   0  0  0  0  0  2  0  0  0  0  0  0
  -26.1660  -29.2390   20.6160 C   0  0  0  0  0  0  0  0  0  0  0  0
  -27.3010  -28.2970   20.5920 C   0  0  0  0  0  3  0  0  0  0  0  0
  -26.0400  -26.7400   19.2940 C   0  0  0  0  0  3  0  0  0  0  0  0
  -24.9430  -27.6430   19.2930 C   0  0  0  0  0  3  0  0  0  0  0  0
  -23.7640  -29.7990   20.0400 C   0  0  0  0  0  2  0  0  0  0  0  0
  -24.7990  -30.9860   22.0070 N   0  0  0  0  0  0  0  0  0  0  0  0
  -23.6150  -32.0710   23.6370 O   0  0  0  0  0  0  0  0  0  0  0  0
  -22.8160  -29.4280   22.3660 C   0  0  0  0  0  0  0  0  0  0  0  0
  -21.4830  -29.2850   22.2410 N   0  0  0  0  0  0  0  0  0  0  0  0
  -23.4750  -28.7680   23.1720 O   0  0  0  0  0  0  0  0  0  0  0  0
  -21.0030  -29.8660   21.5670 H   0  0  0  0  0  0  0  0  0  0  0  0
  -18.0820  -28.1170   22.7480 C   0  0  0  0  0  0  0  0  0  0  0  0
  -20.6520  -28.3290   22.9820 C   0  0  0  0  0  3  0  0  0  0  0  0
  -20.7180  -26.9220   22.3450 C   0  0  0  0  0  2  0  0  0  0  0  0
  -19.5970  -26.6620   21.3340 C   0  0  0  0  0  2  0  0  0  0  0  0
  -18.2270  -26.7980   22.0060 C   0  0  0  0  0  2  0  0  0  0  0  0
  -19.2200  -28.8420   23.1920 C   0  0  0  0  0  0  0  0  0  0  0  0
  -19.0290  -30.0760   23.8520 C   0  0  0  0  0  3  0  0  0  0  0  0
  -17.7330  -30.5850   24.0660 C   0  0  0  0  0  3  0  0  0  0  0  0
  -16.6110  -29.8570   23.6360 C   0  0  0  0  0  3  0  0  0  0  0  0
  -16.7860  -28.6240   22.9810 C   0  0  0  0  0  3  0  0  0  0  0  0
  -25.9740  -32.4160   23.7770 C   0  0  0  0  0  3  0  0  0  0  0  0
  -25.6450  -33.7980   24.1730 N   0  0  0  0  0  0  0  0  0  0  0  0
  -25.9400  -34.8930   23.4610 C   0  0  0  0  0  0  0  0  0  0  0  0
  -26.5780  -34.8480   22.4060 O   0  0  0  0  0  0  0  0  0  0  0  0
  -25.0720  -33.9050   24.9960 H   0  0  0  0  0  0  0  0  0  0  0  0
  -24.1650  -36.6710   23.2740 C   0  0  0  0  0  1  0  0  0  0  0  0
  -25.4540  -36.2560   24.0010 C   0  0  0  0  0  3  0  0  0  0  0  0
  -27.6120  -37.1560   24.7560 C   0  0  0  0  0  1  0  0  0  0  0  0
  -26.4600  -37.3340   23.8760 N   0  0  0  0  0  0  0  0  0  0  0  0
  -26.0440  -38.2400   24.0770 H   0  0  0  0  0  0  0  0  0  0  0  0
  -26.4820  -31.6010   25.0320 C   0  0  1  0  0  0  0  0  0  0  0  0
  -25.3800  -31.3260   26.0840 C   0  0  0  0  0  1  0  0  0  0  0  0
  -27.0680  -30.2370   24.6040 C   0  0  0  0  0  1  0  0  0  0  0  0
  -27.6270  -32.3720   25.7280 C   0  0  0  0  0  1  0  0  0  0  0  0
  2  7  1  0
  3  4  1  0
  3  2  1  0
  5  4  1  0
  5 25  1  0
  5  6  1  0
  7  1  1  0
  7  6  1  0
  8  1  2  0
  9 15  1  0
  9 10  1  0
 10 12  1  0
 10 16  2  0
 11 13  2  0
 11  9  1  0
 12 19  1  0
 13 14  1  0
 14 12  2  0
 17 15  2  0
 17 21  1  0
 18 11  1  0
 20 13  1  0
 21  1  1  0
 21 16  1  0
 22 23  2  0
 23 42  1  0
 24 23  1  0
 24 27  1  0
 25 22  1  0
 25 26  1  0
 26 24  2  0
 27 28  1  0
 28 29  2  0
 30 33  1  0
 30 29  1  0
 31 30  2  0
 32 31  1  0
 32 27  2  0
 33 34  1  0
 34 35  1  0
 35 36  2  0
 37 36  1  0
 37 41  1  0
 38 37  2  0
 39 34  2  0
 39 38  1  0
 40 39  1  0
 42 43  1  0
 43 46  1  0
 43 45  1  0
 44 42  2  0
 47 48  1  0
 47 22  1  0
 49 47  1  0
 50 14  1  0
 50 51  1  0
 52 63  2  0
 53 51  1  0
 53 58  1  0
 54 62  1  0
 54 64  1  0
 55 61  1  0
 55 57  1  0
 56 62  1  0
 57 56  1  0
 58 57  2  0
 59 53  2  0
 60 59  1  0
 60 55  2  0
 61 54  1  0
 62 52  1  0
 64 66  2  0
 65 64  1  0
 67 65  1  0
 68 77  2  0
 68 73  1  0
 69 65  1  0
 69 73  1  0
 70 69  1  0
 71 72  1  0
 71 70  1  0
 72 68  1  0
 73 74  2  0
 74 75  1  0
 76 75  2  0
 77 76  1  0
 78 52  1  0
 78 79  1  0
 78 88  1  0
 79 82  1  0
 80 84  1  0
 80 79  1  0
 81 80  2  0
 84 83  1  0
 86 84  1  0
 86 87  1  0
 86 85  1  0
 88 91  1  1
 88 89  1  0
 90 88  1  0
M  ISO  4   1 100  21 100  50 101  51 101
M  END
>  <TORSDO>  (41) 
F 16

>  <SCORE>  (41) 
-15.789

>  <name>  (41) 
40

>  <ligand_id>  (41) 
40

>  <original_smiles>  (41) 
[H]c1c([H])c([H])c2c(c1[H])C([H])([H])C([H])([H])C([H])([H])C2([H])N([H])C(=O)C1([H])N(C(=O)C([H])(N([H])C(=O)C([H])(N([H])C([H])([H])[H])C([H])([H])[H])C(C([H])([H])[H])(C([H])([H])[H])C([H])([H])[H])C([H])([H])c2c([H])c(OC([H])([H])c3c(C([H])([H])[H])c(C([H])([H])[H])c4c(c3C([H])([H])[H])C([H])([H])N(C(=O)N3C([H])([H])C([H])([H])C([H])([H])C([H])(n5nc(-c6c([H])c([H])c(Oc7c([H])c([H])c(F)c([H])c7F)c([H])c6[H])c(C(=O)N([H])[H])c5N([H])[H])C3([H])[H])C([H])([H])C4([H])[H])c([H])c([H])c2C1([H])[H]

>  <smiles>  (41) 
[H]c1c([H])c([H])c2c(c1[H])C([H])([H])C([H])([H])C([H])([H])C2([H])N([H])C(=O)C1([H])N(C(=O)C([H])(N([H])C(=O)C([H])(N([H])C([H])([H])[H])C([H])([H])[H])C(C([H])([H])[H])(C([H])([H])[H])C([H])([H])[H])C([H])([H])c2c([H])c(OC([H])([H])c3c(C([H])([H])[H])c(C([H])([H])[H])c4c(c3C([H])([H])[H])C([H])([H])N(C(=O)N3C([H])([H])C([H])([H])C([H])([H])C([H])(n5nc(-c6c([H])c([H])c(Oc7c([H])c([H])c(F)c([H])c7F)c([H])c6[H])c(C(=O)N([H])[H])c5N([H])[H])C3([H])[H])C([H])([H])C4([H])[H])c([H])c([H])c2C1([H])[H]

$$$$
41:0:0
     RDKit          3D

 98109  0  0  1  0  0  0  0  0999 V2000
  -31.7710  -19.6220   19.1720 C   0  0  0  0  0  3  0  0  0  0  0  0
  -31.6060  -18.3760   19.8130 C   0  0  0  0  0  0  0  0  0  0  0  0
  -30.7000  -20.4550   18.7870 C   0  0  0  0  0  0  0  0  0  0  0  0
  -29.3730  -20.1780   19.2190 C   0  0  0  0  0  0  0  0  0  0  0  0
  -29.2160  -18.8100   19.7680 C   0  0  0  0  0  0  0  0  0  0  0  0
  -30.2950  -17.8130   19.8940 C   0  0  0  0  0  0  0  0  0  0  0  0
  -31.0690  -21.6370   17.9120 C   0  0  0  0  0  1  0  0  0  0  0  0
  -27.8760  -18.3800   20.3400 C   0  0  0  0  0  1  0  0  0  0  0  0
  -30.7760  -15.1800   19.8200 C   0  0  0  0  0  0  0  0  0  0  0  0
  -30.6100  -12.8120   18.9900 C   0  0  0  0  0  2  0  0  0  0  0  0
  -29.6230  -12.7650   17.8030 C   0  0  0  0  0  2  0  0  0  0  0  0
  -28.1780  -12.5740   18.3070 C   0  0  0  0  0  2  0  0  0  0  0  0
  -27.8330  -13.5040   19.5020 C   0  0  0  0  0  3  0  0  0  0  0  0
  -28.9480  -13.5450   20.5690 C   0  0  0  0  0  2  0  0  0  0  0  0
  -30.1910  -13.9260   19.8890 N   0  0  0  0  0  0  0  0  0  0  0  0
  -31.8970  -15.2410   19.3080 O   0  0  0  0  0  0  0  0  0  0  0  0
  -30.0690  -16.3420   20.1830 N   0  0  0  0  0  0  0  0  0  0  0  0
  -29.1610  -16.1340   20.5680 H   0  0  0  0  0  0  0  0  0  0  0  0
  -25.5160  -14.0350   20.4600 C   0  0  0  0  0  0  0  0  0  0  0  0
  -24.4910  -13.2370   20.8890 C   0  0  0  0  0  0  0  0  0  0  0  0
  -24.9470  -11.8910   20.7380 C   0  0  0  0  0  0  0  0  0  0  0  0
  -26.5340  -13.1770   20.0860 N   0  0  0  0  0  0  0  0  0  0  0  0
  -26.2060  -11.8780   20.3140 N   0  0  0  0  0  0  0  0  0  0  0  0
  -24.2380  -10.6180   20.9190 C   0  0  0  0  0  0  0  0  0  0  0  0
  -24.6470   -9.6730   21.8860 C   0  0  0  0  0  3  0  0  0  0  0  0
  -23.9350   -8.4650   22.0550 C   0  0  0  0  0  3  0  0  0  0  0  0
  -22.7970   -8.1930   21.2570 C   0  0  0  0  0  0  0  0  0  0  0  0
  -22.4070   -9.1280   20.2810 C   0  0  0  0  0  3  0  0  0  0  0  0
  -23.1200  -10.3270   20.1100 C   0  0  0  0  0  3  0  0  0  0  0  0
  -22.0560   -7.0380   21.3340 O   0  0  0  0  0  0  0  0  0  0  0  0
  -21.8650   -6.3820   22.5240 C   0  0  0  0  0  0  0  0  0  0  0  0
  -21.2040   -6.9900   23.6140 C   0  0  0  0  0  3  0  0  0  0  0  0
  -20.9690   -6.2540   24.7930 C   0  0  0  0  0  3  0  0  0  0  0  0
  -21.3890   -4.9130   24.8810 C   0  0  0  0  0  0  0  0  0  0  0  0
  -22.0430   -4.3060   23.7950 C   0  0  0  0  0  3  0  0  0  0  0  0
  -22.2790   -5.0380   22.6200 C   0  0  0  0  0  0  0  0  0  0  0  0
  -22.8910   -4.4420   21.5680 F   0  0  0  0  0  0  0  0  0  0  0  0
  -21.1600   -4.2060   26.0120 F   0  0  0  0  0  0  0  0  0  0  0  0
  -23.1220  -13.6920   21.3070 C   0  0  0  0  0  0  0  0  0  0  0  0
  -22.4800  -12.9610   22.2120 N   0  0  0  0  0  0  0  0  0  0  0  0
  -22.6340  -14.7320   20.8650 O   0  0  0  0  0  0  0  0  0  0  0  0
  -22.8870  -12.1170   22.5900 H   0  0  0  0  0  0  0  0  0  0  0  0
  -21.5650  -13.2460   22.5300 H   0  0  0  0  0  0  0  0  0  0  0  0
  -25.6660  -15.4110   20.3330 N   0  0  0  0  0  0  0  0  0  0  0  0
  -24.9080  -16.0560   20.5260 H   0  0  0  0  0  0  0  0  0  0  0  0
  -26.4440  -15.8410   19.8520 H   0  0  0  0  0  0  0  0  0  0  0  0
  -34.1310  -18.4890   20.6720 C   0  0  0  0  0  2  0  0  0  0  0  0
  -34.0580  -17.3750   19.6500 C   0  0  0  0  0  2  0  0  0  0  0  0
  -32.8290  -17.7430   20.4530 C   0  0  0  0  0  3  0  0  0  0  0  0
  -28.1700  -21.2780   19.0300 C   0  0  0  0  0  3  0  0  0  0  0  0
  -29.0400  -24.0370   19.7890 C   0  0  0  0  0  2  0  0  0  0  0  0
  -27.1390  -23.9670   19.1030 C   0  0  0  0  0  2  0  0  0  0  0  0
  -28.3350  -22.9340   18.8900 C   0  0  0  0  0  3  0  0  0  0  0  0
  -28.1320  -25.1750   19.1530 C   0  0  0  0  0  3  0  0  0  0  0  0
  -27.9810  -26.5020   19.8680 O   0  0  0  0  0  0  0  0  0  0  0  0
  -24.4730  -31.9060   23.1550 C   0  0  0  0  0  0  0  0  0  0  0  0
  -26.8880  -27.4010   19.8030 C   0  0  0  0  0  0  0  0  0  0  0  0
  -23.1860  -30.5970   21.5050 C   0  0  0  0  0  3  0  0  0  0  0  0
  -24.5560  -29.0860   19.9440 C   0  0  0  0  0  0  0  0  0  0  0  0
  -25.7260  -30.8730   21.2410 C   0  0  0  0  0  2  0  0  0  0  0  0
  -25.7550  -29.5220   20.5220 C   0  0  0  0  0  0  0  0  0  0  0  0
  -26.9160  -28.6880   20.4460 C   0  0  0  0  0  3  0  0  0  0  0  0
  -25.6720  -27.0410   19.1840 C   0  0  0  0  0  3  0  0  0  0  0  0
  -24.5230  -27.8560   19.2640 C   0  0  0  0  0  3  0  0  0  0  0  0
  -23.3350  -29.9760   20.0890 C   0  0  0  0  0  2  0  0  0  0  0  0
  -24.4830  -31.1430   22.0210 N   0  0  0  0  0  0  0  0  0  0  0  0
  -23.4160  -32.1700   23.7470 O   0  0  0  0  0  0  0  0  0  0  0  0
  -22.5490  -29.5480   22.4480 C   0  0  0  0  0  0  0  0  0  0  0  0
  -21.2260  -29.3510   22.3300 N   0  0  0  0  0  0  0  0  0  0  0  0
  -23.2460  -28.9160   23.2460 O   0  0  0  0  0  0  0  0  0  0  0  0
  -20.7190  -29.9130   21.6600 H   0  0  0  0  0  0  0  0  0  0  0  0
  -17.8870  -28.0310   22.7850 C   0  0  0  0  0  0  0  0  0  0  0  0
  -20.4320  -28.3780   23.0860 C   0  0  0  0  0  3  0  0  0  0  0  0
  -20.5920  -26.9550   22.5020 C   0  0  0  0  0  2  0  0  0  0  0  0
  -19.5120  -26.6020   21.4730 C   0  0  0  0  0  2  0  0  0  0  0  0
  -18.1190  -26.6950   22.1000 C   0  0  0  0  0  2  0  0  0  0  0  0
  -18.9730  -28.8280   23.2350 C   0  0  0  0  0  0  0  0  0  0  0  0
  -18.7020  -30.0760   23.8340 C   0  0  0  0  0  3  0  0  0  0  0  0
  -17.3780  -30.5290   23.9910 C   0  0  0  0  0  3  0  0  0  0  0  0
  -16.3060  -29.7270   23.5610 C   0  0  0  0  0  3  0  0  0  0  0  0
  -16.5630  -28.4810   22.9640 C   0  0  0  0  0  3  0  0  0  0  0  0
  -25.7870  -32.4990   23.7530 C   0  0  0  0  0  3  0  0  0  0  0  0
  -26.3200  -31.6940   25.0030 C   0  0  1  0  0  0  0  0  0  0  0  0
  -25.2460  -31.4460   26.0880 C   0  0  0  0  0  1  0  0  0  0  0  0
  -26.8760  -30.3180   24.5720 C   0  0  0  0  0  1  0  0  0  0  0  0
  -27.4950  -32.4590   25.6570 C   0  0  0  0  0  1  0  0  0  0  0  0
  -25.5180  -33.8950   24.1230 N   0  0  0  0  0  0  0  0  0  0  0  0
  -25.8780  -34.9620   23.3970 C   0  0  0  0  0  0  0  0  0  0  0  0
  -26.5400  -34.8700   22.3600 O   0  0  0  0  0  0  0  0  0  0  0  0
  -24.9330  -34.0400   24.9340 H   0  0  0  0  0  0  0  0  0  0  0  0
  -24.2020  -36.8150   23.1080 C   0  0  0  0  0  1  0  0  0  0  0  0
  -25.4340  -36.3500   23.9020 C   0  0  0  0  0  3  0  0  0  0  0  0
  -27.5880  -37.1560   24.7590 C   0  0  0  0  0  1  0  0  0  0  0  0
  -26.4950  -37.3760   23.8160 N   0  0  0  0  0  0  0  0  0  0  0  0
  -26.1140  -38.3040   23.9830 H   0  0  0  0  0  0  0  0  0  0  0  0
  -26.2260  -19.9570   17.5730 C   0  0  0  0  0  2  0  0  0  0  0  0
  -26.0330  -21.4370   17.4990 C   0  0  0  0  0  2  0  0  0  0  0  0
  -27.4270  -20.8900   17.7400 C   0  0  0  0  0  3  0  0  0  0  0  0
  1  2  1  0
  2  6  2  0
  2 49  1  0
  3  1  2  0
  3  4  1  0
  4  5  2  0
  5  6  1  0
  5  8  1  0
  6 17  1  0
  7  3  1  0
  9 15  1  0
  9 17  1  0
 10 15  1  0
 11 12  1  0
 11 10  1  0
 13 12  1  0
 13 22  1  0
 13 14  1  0
 15 14  1  0
 16  9  2  0
 17 18  1  0
 19 20  2  0
 20 39  1  0
 21 20  1  0
 21 24  1  0
 22 23  1  0
 22 19  1  0
 23 21  2  0
 24 25  1  0
 25 26  2  0
 27 30  1  0
 27 26  1  0
 28 27  2  0
 29 28  1  0
 29 24  2  0
 30 31  1  0
 31 36  2  0
 31 32  1  0
 32 33  2  0
 33 34  1  0
 34 38  1  0
 35 34  2  0
 36 35  1  0
 37 36  1  0
 39 40  1  0
 40 43  1  0
 40 42  1  0
 41 39  2  0
 44 19  1  0
 44 45  1  0
 46 44  1  0
 48 49  1  0
 48 47  1  0
 49 47  1  0
 50 98  1  0
 50  4  1  0
 52 54  1  0
 53 50  1  0
 53 52  1  0
 53 51  1  0
 54 51  1  0
 54 55  1  0
 56 67  2  0
 57 55  1  0
 57 62  1  0
 58 66  1  0
 58 68  1  0
 59 65  1  0
 59 61  1  0
 60 66  1  0
 61 60  1  0
 62 61  2  0
 63 64  1  0
 63 57  2  0
 64 59  2  0
 65 58  1  0
 66 56  1  0
 68 70  2  0
 69 68  1  0
 71 69  1  0
 72 81  2  0
 72 77  1  0
 73 69  1  0
 73 77  1  0
 74 73  1  0
 75 76  1  0
 75 74  1  0
 76 72  1  0
 77 78  2  0
 78 79  1  0
 80 79  2  0
 81 80  1  0
 82 56  1  0
 82 87  1  0
 82 83  1  0
 83 86  1  1
 83 84  1  0
 85 83  1  0
 87 90  1  0
 88 92  1  0
 88 87  1  0
 89 88  2  0
 92 91  1  0
 94 92  1  0
 94 95  1  0
 94 93  1  0
 96 98  1  0
 97 96  1  0
 97 98  1  0
M  ISO  4   9 100  17 100  54 101  55 101
M  END
>  <TORSDO>  (42) 
F 20

>  <SCORE>  (42) 
-13.026

>  <name>  (42) 
41

>  <ligand_id>  (42) 
41

>  <original_smiles>  (42) 
[H]c1c([H])c([H])c2c(c1[H])C([H])([H])C([H])([H])C([H])([H])C2([H])N([H])C(=O)C1([H])N(C(=O)C([H])(N([H])C(=O)C([H])(N([H])C([H])([H])[H])C([H])([H])[H])C(C([H])([H])[H])(C([H])([H])[H])C([H])([H])[H])C([H])([H])c2c([H])c(OC3([H])C([H])([H])C([H])(C([H])(c4c(C([H])([H])[H])c([H])c(C5([H])C([H])([H])C5([H])[H])c(N([H])C(=O)N5C([H])([H])C([H])([H])C([H])([H])C([H])(n6nc(-c7c([H])c([H])c(Oc8c([H])c([H])c(F)c([H])c8F)c([H])c7[H])c(C(=O)N([H])[H])c6N([H])[H])C5([H])[H])c4C([H])([H])[H])C4([H])C([H])([H])C4([H])[H])C3([H])[H])c([H])c([H])c2C1([H])[H]

>  <smiles>  (42) 
[H]c1c([H])c([H])c2c(c1[H])C([H])([H])C([H])([H])C([H])([H])C2([H])N([H])C(=O)C1([H])N(C(=O)C([H])(N([H])C(=O)C([H])(N([H])C([H])([H])[H])C([H])([H])[H])C(C([H])([H])[H])(C([H])([H])[H])C([H])([H])[H])C([H])([H])c2c([H])c(OC3([H])C([H])([H])C([H])(C([H])(c4c(C([H])([H])[H])c([H])c(C5([H])C([H])([H])C5([H])[H])c(N([H])C(=O)N5C([H])([H])C([H])([H])C([H])([H])C([H])(n6nc(-c7c([H])c([H])c(Oc8c([H])c([H])c(F)c([H])c8F)c([H])c7[H])c(C(=O)N([H])[H])c6N([H])[H])C5([H])[H])c4C([H])([H])[H])C4([H])C([H])([H])C4([H])[H])C3([H])[H])c([H])c([H])c2C1([H])[H]

$$$$
42:0:0
     RDKit          3D

100110  0  0  1  0  0  0  0  0999 V2000
  -28.9390  -20.2520   21.2350 C   0  0  0  0  0  2  0  0  0  0  0  0
  -28.6240  -20.8710   19.2820 C   0  0  0  0  0  2  0  0  0  0  0  0
  -28.6800  -19.4360   19.9300 C   0  0  0  0  0  3  0  0  0  0  0  0
  -28.2060  -21.4950   20.6270 C   0  0  0  0  0  3  0  0  0  0  0  0
  -31.5940  -18.6600   17.9790 C   0  0  0  0  0  3  0  0  0  0  0  0
  -30.1890  -18.6540   18.0890 C   0  0  0  0  0  0  0  0  0  0  0  0
  -29.6280  -18.3270   19.3450 C   0  0  0  0  0  0  0  0  0  0  0  0
  -32.3930  -18.2770   19.0760 C   0  0  0  0  0  0  0  0  0  0  0  0
  -31.7830  -17.6340   20.1820 C   0  0  0  0  0  0  0  0  0  0  0  0
  -30.3830  -17.3880   20.1310 C   0  0  0  0  0  0  0  0  0  0  0  0
  -33.9020  -18.4230   18.9790 C   0  0  0  0  0  1  0  0  0  0  0  0
  -32.6330  -17.0730   21.3100 C   0  0  0  0  0  1  0  0  0  0  0  0
  -30.5640  -14.8600   19.8800 C   0  0  0  0  0  0  0  0  0  0  0  0
  -30.1830  -12.6750   18.7760 C   0  0  0  0  0  2  0  0  0  0  0  0
  -29.1530  -12.8600   17.6440 C   0  0  0  0  0  2  0  0  0  0  0  0
  -27.7230  -12.6850   18.1850 C   0  0  0  0  0  2  0  0  0  0  0  0
  -27.4710  -13.4980   19.4830 C   0  0  0  0  0  3  0  0  0  0  0  0
  -28.6180  -13.3420   20.5040 C   0  0  0  0  0  2  0  0  0  0  0  0
  -29.8730  -13.6800   19.8190 N   0  0  0  0  0  0  0  0  0  0  0  0
  -31.6920  -14.9140   19.3840 O   0  0  0  0  0  0  0  0  0  0  0  0
  -29.9250  -16.0020   20.3220 N   0  0  0  0  0  0  0  0  0  0  0  0
  -28.9630  -15.8780   20.5980 H   0  0  0  0  0  0  0  0  0  0  0  0
  -25.1430  -14.0380   20.4150 C   0  0  0  0  0  0  0  0  0  0  0  0
  -24.1200  -13.2390   20.8440 C   0  0  0  0  0  0  0  0  0  0  0  0
  -24.5900  -11.8950   20.7310 C   0  0  0  0  0  0  0  0  0  0  0  0
  -26.1730  -13.1780   20.0700 N   0  0  0  0  0  0  0  0  0  0  0  0
  -25.8510  -11.8820   20.3180 N   0  0  0  0  0  0  0  0  0  0  0  0
  -23.8920  -10.6190   20.9360 C   0  0  0  0  0  0  0  0  0  0  0  0
  -24.3640   -9.6560   21.8560 C   0  0  0  0  0  3  0  0  0  0  0  0
  -23.6640   -8.4470   22.0500 C   0  0  0  0  0  3  0  0  0  0  0  0
  -22.4760   -8.1890   21.3270 C   0  0  0  0  0  0  0  0  0  0  0  0
  -22.0220   -9.1390   20.3960 C   0  0  0  0  0  3  0  0  0  0  0  0
  -22.7230  -10.3410   20.1990 C   0  0  0  0  0  3  0  0  0  0  0  0
  -21.7480   -7.0280   21.4320 O   0  0  0  0  0  0  0  0  0  0  0  0
  -21.7040   -6.3070   22.5980 C   0  0  0  0  0  0  0  0  0  0  0  0
  -21.2590   -6.8790   23.8090 C   0  0  0  0  0  3  0  0  0  0  0  0
  -21.1610   -6.0860   24.9690 C   0  0  0  0  0  3  0  0  0  0  0  0
  -21.4980   -4.7200   24.9210 C   0  0  0  0  0  0  0  0  0  0  0  0
  -21.9380   -4.1470   23.7150 C   0  0  0  0  0  3  0  0  0  0  0  0
  -22.0370   -4.9390   22.5560 C   0  0  0  0  0  0  0  0  0  0  0  0
  -22.4390   -4.3760   21.3910 F   0  0  0  0  0  0  0  0  0  0  0  0
  -21.3960   -3.9560   26.0320 F   0  0  0  0  0  0  0  0  0  0  0  0
  -22.7440  -13.6900   21.2410 C   0  0  0  0  0  0  0  0  0  0  0  0
  -22.0970  -12.9620   22.1430 N   0  0  0  0  0  0  0  0  0  0  0  0
  -22.2540  -14.7230   20.7860 O   0  0  0  0  0  0  0  0  0  0  0  0
  -22.5080  -12.1250   22.5280 H   0  0  0  0  0  0  0  0  0  0  0  0
  -21.1770  -13.2440   22.4520 H   0  0  0  0  0  0  0  0  0  0  0  0
  -25.2810  -15.4160   20.2700 N   0  0  0  0  0  0  0  0  0  0  0  0
  -24.5230  -16.0600   20.4600 H   0  0  0  0  0  0  0  0  0  0  0  0
  -26.0910  -15.8680   19.8650 H   0  0  0  0  0  0  0  0  0  0  0  0
  -27.9620  -18.5170   16.6760 C   0  0  0  0  0  2  0  0  0  0  0  0
  -29.1070  -18.1070   15.7830 C   0  0  0  0  0  2  0  0  0  0  0  0
  -29.3500  -19.0790   16.9160 C   0  0  0  0  0  3  0  0  0  0  0  0
  -28.7480  -22.8700   21.0010 N   0  0  0  0  0  4  0  0  0  0  0  0
  -29.7540  -22.8360   20.9910 H   0  0  0  0  0  0  0  0  0  0  0  0
  -28.4810  -23.0140   21.9630 H   0  0  0  0  0  0  0  0  0  0  0  0
  -28.3080  -24.1190   20.2460 C   0  0  0  0  0  2  0  0  0  0  0  0
  -29.8450  -25.6130   21.7180 C   0  0  0  0  0  1  0  0  0  0  0  0
  -28.4730  -25.5040   21.0310 C   0  0  0  0  0  3  0  0  0  0  0  0
  -28.4100  -26.7650   20.2750 O   0  0  0  0  0  0  0  0  0  0  0  0
  -24.4790  -32.0100   23.3040 C   0  0  0  0  0  0  0  0  0  0  0  0
  -27.2490  -27.5300   20.3150 C   0  0  0  0  0  0  0  0  0  0  0  0
  -23.3320  -30.5690   21.6570 C   0  0  0  0  0  3  0  0  0  0  0  0
  -24.8380  -29.0460   20.2670 C   0  0  0  0  0  0  0  0  0  0  0  0
  -25.8590  -30.9650   21.4960 C   0  0  0  0  0  2  0  0  0  0  0  0
  -25.9840  -29.5840   20.8670 C   0  0  0  0  0  0  0  0  0  0  0  0
  -27.1970  -28.8400   20.8760 C   0  0  0  0  0  3  0  0  0  0  0  0
  -26.0840  -27.0230   19.7100 C   0  0  0  0  0  3  0  0  0  0  0  0
  -24.8870  -27.7670   19.6820 C   0  0  0  0  0  3  0  0  0  0  0  0
  -23.5780  -29.8850   20.2860 C   0  0  0  0  0  2  0  0  0  0  0  0
  -24.5740  -31.1990   22.2080 N   0  0  0  0  0  0  0  0  0  0  0  0
  -23.3830  -32.2590   23.8260 O   0  0  0  0  0  0  0  0  0  0  0  0
  -22.6870  -29.5420   22.6170 C   0  0  0  0  0  0  0  0  0  0  0  0
  -21.3700  -29.3220   22.4690 N   0  0  0  0  0  0  0  0  0  0  0  0
  -23.3710  -28.9450   23.4520 O   0  0  0  0  0  0  0  0  0  0  0  0
  -20.8760  -29.8570   21.7700 H   0  0  0  0  0  0  0  0  0  0  0  0
  -18.0200  -28.0380   22.9330 C   0  0  0  0  0  0  0  0  0  0  0  0
  -20.5670  -28.3670   23.2340 C   0  0  0  0  0  3  0  0  0  0  0  0
  -20.7150  -26.9360   22.6680 C   0  0  0  0  0  2  0  0  0  0  0  0
  -19.6350  -26.5770   21.6420 C   0  0  0  0  0  2  0  0  0  0  0  0
  -18.2410  -26.6890   22.2660 C   0  0  0  0  0  2  0  0  0  0  0  0
  -19.1130  -28.8320   23.3710 C   0  0  0  0  0  0  0  0  0  0  0  0
  -18.8530  -30.0920   23.9540 C   0  0  0  0  0  3  0  0  0  0  0  0
  -17.5340  -30.5600   24.1000 C   0  0  0  0  0  3  0  0  0  0  0  0
  -16.4550  -29.7640   23.6770 C   0  0  0  0  0  3  0  0  0  0  0  0
  -16.7010  -28.5040   23.1000 C   0  0  0  0  0  3  0  0  0  0  0  0
  -25.7390  -32.6780   23.9370 C   0  0  0  0  0  3  0  0  0  0  0  0
  -25.4000  -34.0790   24.2260 N   0  0  0  0  0  0  0  0  0  0  0  0
  -25.7190  -35.1170   23.4400 C   0  0  0  0  0  0  0  0  0  0  0  0
  -26.3990  -34.9970   22.4160 O   0  0  0  0  0  0  0  0  0  0  0  0
  -24.8000  -34.2450   25.0200 H   0  0  0  0  0  0  0  0  0  0  0  0
  -23.9500  -36.8580   23.0370 C   0  0  0  0  0  1  0  0  0  0  0  0
  -25.2020  -36.5080   23.8560 C   0  0  0  0  0  3  0  0  0  0  0  0
  -27.3180  -37.4680   24.6520 C   0  0  0  0  0  1  0  0  0  0  0  0
  -26.2110  -37.5790   23.7050 N   0  0  0  0  0  0  0  0  0  0  0  0
  -25.7850  -38.4950   23.8230 H   0  0  0  0  0  0  0  0  0  0  0  0
  -26.2420  -31.9470   25.2420 C   0  0  1  0  0  0  0  0  0  0  0  0
  -25.1240  -31.6860   26.2800 C   0  0  0  0  0  1  0  0  0  0  0  0
  -26.8890  -30.5860   24.8940 C   0  0  0  0  0  1  0  0  0  0  0  0
  -27.3440  -32.7930   25.9250 C   0  0  0  0  0  1  0  0  0  0  0  0
  2  3  1  0
  2  4  1  0
  3  7  1  0
  3  1  1  0
  4 54  1  0
  4  1  1  0
  5  6  2  0
  5  8  1  0
  6  7  1  0
  7 10  2  3
  8  9  2  0
  9 12  1  0
 10  9  1  0
 10 21  1  0
 11  8  1  0
 13 21  1  0
 14 19  1  0
 15 16  1  0
 15 14  1  0
 17 16  1  0
 17 26  1  0
 17 18  1  0
 19 13  1  0
 19 18  1  0
 20 13  2  0
 21 22  1  0
 23 24  2  0
 24 43  1  0
 25 24  1  0
 25 28  1  0
 26 27  1  0
 26 23  1  0
 27 25  2  0
 28 29  1  0
 29 30  2  0
 31 34  1  0
 31 30  1  0
 32 31  2  0
 33 32  1  0
 33 28  2  0
 34 35  1  0
 35 36  1  0
 36 37  2  0
 38 37  1  0
 38 42  1  0
 39 38  2  0
 40 35  2  0
 40 39  1  0
 41 40  1  0
 43 44  1  0
 44 47  1  0
 44 46  1  0
 45 43  2  0
 48 23  1  0
 48 49  1  0
 50 48  1  0
 51 53  1  0
 52 51  1  0
 52 53  1  0
 53  6  1  0
 54 56  1  0
 55 54  1  0
 57 54  1  0
 57 59  1  0
 59 58  1  0
 60 62  1  0
 60 59  1  0
 61 72  2  0
 62 67  1  0
 63 71  1  0
 63 73  1  0
 64 70  1  0
 64 66  1  0
 65 71  1  0
 66 67  2  0
 66 65  1  0
 68 62  2  0
 69 68  1  0
 69 64  2  0
 70 63  1  0
 71 61  1  0
 73 75  2  0
 74 73  1  0
 76 74  1  0
 77 86  2  0
 77 82  1  0
 78 74  1  0
 78 82  1  0
 79 78  1  0
 80 81  1  0
 80 79  1  0
 81 77  1  0
 82 83  2  0
 83 84  1  0
 85 84  2  0
 86 85  1  0
 87 61  1  0
 87 88  1  0
 87 97  1  0
 88 91  1  0
 89 93  1  0
 89 88  1  0
 90 89  2  0
 93 92  1  0
 95 96  1  0
 95 93  1  0
 95 94  1  0
 97100  1  1
 97 98  1  0
 99 97  1  0
M  ISO  4  13 100  21 100  59 101  60 101
M  END
>  <TORSDO>  (43) 
F 21

>  <SCORE>  (43) 
-11.728

>  <name>  (43) 
42

>  <ligand_id>  (43) 
42

>  <original_smiles>  (43) 
[H]c1c([H])c([H])c2c(c1[H])C([H])([H])C([H])([H])C([H])([H])C2([H])N([H])C(=O)C1([H])N(C(=O)C([H])(N([H])C(=O)C([H])(N([H])C([H])([H])[H])C([H])([H])[H])C(C([H])([H])[H])(C([H])([H])[H])C([H])([H])[H])C([H])([H])c2c([H])c(OC([H])(C([H])([H])[H])C([H])([H])[N+]([H])([H])C3([H])C([H])([H])C([H])(c4c(N([H])C(=O)N5C([H])([H])C([H])([H])C([H])([H])C([H])(n6nc(-c7c([H])c([H])c(Oc8c([H])c([H])c(F)c([H])c8F)c([H])c7[H])c(C(=O)N([H])[H])c6N([H])[H])C5([H])[H])c(C([H])([H])[H])c(C([H])([H])[H])c([H])c4C4([H])C([H])([H])C4([H])[H])C3([H])[H])c([H])c([H])c2C1([H])[H]

>  <smiles>  (43) 
[H]c1c([H])c([H])c2c(c1[H])C([H])([H])C([H])([H])C([H])([H])C2([H])N([H])C(=O)C1([H])N(C(=O)C([H])(N([H])C(=O)C([H])(N([H])C([H])([H])[H])C([H])([H])[H])C(C([H])([H])[H])(C([H])([H])[H])C([H])([H])[H])C([H])([H])c2c([H])c(OC([H])(C([H])([H])[H])C([H])([H])[N+]([H])([H])C3([H])C([H])([H])C([H])(c4c(N([H])C(=O)N5C([H])([H])C([H])([H])C([H])([H])C([H])(n6nc(-c7c([H])c([H])c(Oc8c([H])c([H])c(F)c([H])c8F)c([H])c7[H])c(C(=O)N([H])[H])c6N([H])[H])C5([H])[H])c(C([H])([H])[H])c(C([H])([H])[H])c([H])c4C4([H])C([H])([H])C4([H])[H])C3([H])[H])c([H])c([H])c2C1([H])[H]

$$$$
43:0:0
     RDKit          3D

 98107  0  0  1  0  0  0  0  0999 V2000
  -29.6210  -20.0990   20.0640 C   0  0  0  0  0  3  0  0  0  0  0  0
  -32.3460  -20.2020   20.5620 C   0  0  0  0  0  3  0  0  0  0  0  0
  -30.2400  -21.4120   20.1640 C   0  0  0  0  0  0  0  0  0  0  0  0
  -30.3500  -18.8290   20.1580 C   0  0  0  0  0  0  0  0  0  0  0  0
  -31.7450  -18.9400   20.4080 C   0  0  0  0  0  0  0  0  0  0  0  0
  -31.6420  -21.4110   20.3790 C   0  0  0  0  0  0  0  0  0  0  0  0
  -32.6820  -17.7350   20.3760 C   0  0  0  0  0  1  0  0  0  0  0  0
  -28.2610  -22.8110   18.9920 C   0  0  0  0  0  2  0  0  0  0  0  0
  -27.9020  -24.3110   18.8390 C   0  0  0  0  0  2  0  0  0  0  0  0
  -29.5670  -22.8220   19.7890 C   0  0  0  0  0  3  0  0  0  0  0  0
  -29.2940  -24.0280   20.8150 C   0  0  0  0  0  3  0  0  0  0  0  0
  -28.1530  -24.9770   20.2140 C   0  0  0  0  0  3  0  0  0  0  0  0
  -30.5330  -24.8470   21.2280 C   0  0  0  0  0  1  0  0  0  0  0  0
  -28.3170  -26.4690   20.2030 O   0  0  0  0  0  0  0  0  0  0  0  0
  -24.5910  -31.8960   23.2210 C   0  0  0  0  0  0  0  0  0  0  0  0
  -27.1870  -27.3140   20.1690 C   0  0  0  0  0  0  0  0  0  0  0  0
  -23.3740  -30.4900   21.5950 C   0  0  0  0  0  3  0  0  0  0  0  0
  -24.8150  -28.9320   20.1690 C   0  0  0  0  0  0  0  0  0  0  0  0
  -25.9130  -30.8120   21.3880 C   0  0  0  0  0  2  0  0  0  0  0  0
  -25.9920  -29.4270   20.7460 C   0  0  0  0  0  0  0  0  0  0  0  0
  -27.1810  -28.6340   20.7270 C   0  0  0  0  0  3  0  0  0  0  0  0
  -25.9770  -26.8780   19.5800 C   0  0  0  0  0  3  0  0  0  0  0  0
  -24.8100  -27.6630   19.5770 C   0  0  0  0  0  3  0  0  0  0  0  0
  -23.5790  -29.8070   20.2170 C   0  0  0  0  0  2  0  0  0  0  0  0
  -24.6460  -31.0830   22.1240 N   0  0  0  0  0  0  0  0  0  0  0  0
  -23.5120  -32.1770   23.7610 O   0  0  0  0  0  0  0  0  0  0  0  0
  -22.7180  -29.4790   22.5660 C   0  0  0  0  0  0  0  0  0  0  0  0
  -21.3920  -29.2970   22.4450 N   0  0  0  0  0  0  0  0  0  0  0  0
  -23.4000  -28.8650   23.3900 O   0  0  0  0  0  0  0  0  0  0  0  0
  -20.9010  -29.8470   21.7530 H   0  0  0  0  0  0  0  0  0  0  0  0
  -18.0210  -28.0810   22.9480 C   0  0  0  0  0  0  0  0  0  0  0  0
  -20.5770  -28.3640   23.2250 C   0  0  0  0  0  3  0  0  0  0  0  0
  -20.6910  -26.9260   22.6660 C   0  0  0  0  0  2  0  0  0  0  0  0
  -19.5940  -26.5830   21.6530 C   0  0  0  0  0  2  0  0  0  0  0  0
  -18.2090  -26.7260   22.2890 C   0  0  0  0  0  2  0  0  0  0  0  0
  -19.1320  -28.8570   23.3750 C   0  0  0  0  0  0  0  0  0  0  0  0
  -18.9010  -30.1250   23.9510 C   0  0  0  0  0  3  0  0  0  0  0  0
  -17.5910  -30.6190   24.1060 C   0  0  0  0  0  3  0  0  0  0  0  0
  -16.4950  -29.8410   23.6980 C   0  0  0  0  0  3  0  0  0  0  0  0
  -16.7100  -28.5740   23.1280 C   0  0  0  0  0  3  0  0  0  0  0  0
  -25.8780  -32.5310   23.8340 C   0  0  0  0  0  3  0  0  0  0  0  0
  -25.5680  -33.9280   24.1730 N   0  0  0  0  0  0  0  0  0  0  0  0
  -25.8910  -34.9830   23.4140 C   0  0  0  0  0  0  0  0  0  0  0  0
  -26.5510  -34.8830   22.3760 O   0  0  0  0  0  0  0  0  0  0  0  0
  -24.9920  -34.0810   24.9870 H   0  0  0  0  0  0  0  0  0  0  0  0
  -24.1630  -36.7770   23.0700 C   0  0  0  0  0  1  0  0  0  0  0  0
  -25.4050  -36.3700   23.8800 C   0  0  0  0  0  3  0  0  0  0  0  0
  -27.5360  -37.2500   24.7240 C   0  0  0  0  0  1  0  0  0  0  0  0
  -26.4410  -37.4220   23.7740 N   0  0  0  0  0  0  0  0  0  0  0  0
  -26.0330  -38.3410   23.9240 H   0  0  0  0  0  0  0  0  0  0  0  0
  -26.4070  -31.7590   25.1030 C   0  0  1  0  0  0  0  0  0  0  0  0
  -25.3230  -31.5140   26.1790 C   0  0  0  0  0  1  0  0  0  0  0  0
  -26.9890  -30.3860   24.6980 C   0  0  0  0  0  1  0  0  0  0  0  0
  -27.5580  -32.5560   25.7600 C   0  0  0  0  0  1  0  0  0  0  0  0
  -33.5540  -22.6260   19.6250 C   0  0  0  0  0  1  0  0  0  0  0  0
  -32.3180  -22.6040   20.3310 O   0  0  0  0  0  0  0  0  0  0  0  0
  -29.7670  -17.3850   19.7760 C   0  0  0  0  0  3  0  0  0  0  0  0
  -28.3950  -17.5180   19.2420 N   0  0  0  0  0  4  0  0  0  0  0  0
  -28.3730  -18.2890   18.6010 H   0  0  0  0  0  0  0  0  0  0  0  0
  -27.7420  -17.7030   19.9830 H   0  0  0  0  0  0  0  0  0  0  0  0
  -28.1020  -16.7020   18.7350 H   0  0  0  0  0  0  0  0  0  0  0  0
  -29.9000  -16.0990   20.7650 C   0  0  0  0  0  2  0  0  0  0  0  0
  -30.5800  -14.7490   20.2390 C   0  0  0  0  0  0  0  0  0  0  0  0
  -30.3140  -12.5070   19.1730 C   0  0  0  0  0  2  0  0  0  0  0  0
  -29.3290  -12.6390   17.9900 C   0  0  0  0  0  2  0  0  0  0  0  0
  -27.8770  -12.4590   18.4680 C   0  0  0  0  0  2  0  0  0  0  0  0
  -27.5560  -13.3130   19.7240 C   0  0  0  0  0  3  0  0  0  0  0  0
  -28.6560  -13.1840   20.8010 C   0  0  0  0  0  2  0  0  0  0  0  0
  -29.9420  -13.5300   20.1780 N   0  0  0  0  0  0  0  0  0  0  0  0
  -31.7230  -14.8410   19.7870 O   0  0  0  0  0  0  0  0  0  0  0  0
  -25.1880  -13.8850   20.5330 C   0  0  0  0  0  0  0  0  0  0  0  0
  -24.1330  -13.1010   20.9090 C   0  0  0  0  0  0  0  0  0  0  0  0
  -24.6030  -11.7540   20.8490 C   0  0  0  0  0  0  0  0  0  0  0  0
  -26.2290  -13.0150   20.2550 N   0  0  0  0  0  0  0  0  0  0  0  0
  -25.8850  -11.7250   20.5040 N   0  0  0  0  0  0  0  0  0  0  0  0
  -23.8880  -10.4880   21.0460 C   0  0  0  0  0  0  0  0  0  0  0  0
  -24.3420   -9.5120   21.9630 C   0  0  0  0  0  3  0  0  0  0  0  0
  -23.6220   -8.3120   22.1460 C   0  0  0  0  0  3  0  0  0  0  0  0
  -22.4370   -8.0780   21.4110 C   0  0  0  0  0  0  0  0  0  0  0  0
  -22.0030   -9.0390   20.4810 C   0  0  0  0  0  3  0  0  0  0  0  0
  -22.7230  -10.2300   20.2970 C   0  0  0  0  0  3  0  0  0  0  0  0
  -21.6910   -6.9270   21.5030 O   0  0  0  0  0  0  0  0  0  0  0  0
  -21.6670   -6.1750   22.6520 C   0  0  0  0  0  0  0  0  0  0  0  0
  -21.2410   -6.7120   23.8870 C   0  0  0  0  0  3  0  0  0  0  0  0
  -21.1650   -5.8830   25.0240 C   0  0  0  0  0  3  0  0  0  0  0  0
  -21.5060   -4.5200   24.9260 C   0  0  0  0  0  0  0  0  0  0  0  0
  -21.9240   -3.9830   23.6970 C   0  0  0  0  0  3  0  0  0  0  0  0
  -21.9970   -4.8080   22.5610 C   0  0  0  0  0  0  0  0  0  0  0  0
  -22.3740   -4.2770   21.3710 F   0  0  0  0  0  0  0  0  0  0  0  0
  -21.4310   -3.7250   26.0180 F   0  0  0  0  0  0  0  0  0  0  0  0
  -22.7420  -13.5710   21.2270 C   0  0  0  0  0  0  0  0  0  0  0  0
  -22.0450  -12.8570   22.1050 N   0  0  0  0  0  0  0  0  0  0  0  0
  -22.2910  -14.6080   20.7430 O   0  0  0  0  0  0  0  0  0  0  0  0
  -22.4270  -12.0130   22.5070 H   0  0  0  0  0  0  0  0  0  0  0  0
  -21.1170  -13.1490   22.3750 H   0  0  0  0  0  0  0  0  0  0  0  0
  -25.3490  -15.2590   20.4000 N   0  0  0  0  0  0  0  0  0  0  0  0
  -24.6260  -15.8860   20.7370 H   0  0  0  0  0  0  0  0  0  0  0  0
  -26.2660  -15.6830   20.3800 H   0  0  0  0  0  0  0  0  0  0  0  0
  1  4  2  0
  1  3  1  0
  3  6  2  0
  4  5  1  0
  5  2  2  0
  6  2  1  0
  7  5  1  0
  8 10  1  0
  9  8  1  0
  9 12  1  0
 10  3  1  0
 10 11  1  0
 11 13  1  0
 12 14  1  0
 12 11  1  0
 15 26  2  0
 16 14  1  0
 16 21  1  0
 17 25  1  0
 17 27  1  0
 18 24  1  0
 18 20  1  0
 19 25  1  0
 20 19  1  0
 21 20  2  0
 22 16  2  0
 23 22  1  0
 23 18  2  0
 24 17  1  0
 25 15  1  0
 27 29  2  0
 28 27  1  0
 30 28  1  0
 31 40  2  0
 31 36  1  0
 32 28  1  0
 32 36  1  0
 33 32  1  0
 34 35  1  0
 34 33  1  0
 35 31  1  0
 36 37  2  0
 37 38  1  0
 39 38  2  0
 40 39  1  0
 41 15  1  0
 41 42  1  0
 41 51  1  0
 42 45  1  0
 43 47  1  0
 43 42  1  0
 44 43  2  0
 47 46  1  0
 49 47  1  0
 49 50  1  0
 49 48  1  0
 51 54  1  1
 51 52  1  0
 53 51  1  0
 55 56  1  0
 56  6  1  0
 57  4  1  0
 57 62  1  0
 58 57  1  0
 58 60  1  0
 59 58  1  0
 61 58  1  0
 63 62  1  0
 64 69  1  0
 65 66  1  0
 65 64  1  0
 67 66  1  0
 67 74  1  0
 67 68  1  0
 69 63  1  0
 69 68  1  0
 70 63  2  0
 71 72  2  0
 72 91  1  0
 73 72  1  0
 73 76  1  0
 74 75  1  0
 74 71  1  0
 75 73  2  0
 76 77  1  0
 77 78  2  0
 79 82  1  0
 79 78  1  0
 80 79  2  0
 81 80  1  0
 81 76  2  0
 82 83  1  0
 83 84  1  0
 84 85  2  0
 86 85  1  0
 86 90  1  0
 87 86  2  0
 88 83  2  0
 88 87  1  0
 89 88  1  0
 91 92  1  0
 92 95  1  0
 92 94  1  0
 93 91  2  0
 96 71  1  0
 96 97  1  0
 98 96  1  0
M  ISO  4  12 101  14 101  62 100  63 100
M  END
>  <TORSDO>  (44) 
F 21

>  <SCORE>  (44) 
-14.067

>  <name>  (44) 
43

>  <ligand_id>  (44) 
43

>  <original_smiles>  (44) 
[H]c1c([H])c([H])c2c(c1[H])C([H])([H])C([H])([H])C([H])([H])C2([H])N([H])C(=O)C1([H])N(C(=O)C([H])(N([H])C(=O)C([H])(N([H])C([H])([H])[H])C([H])([H])[H])C(C([H])([H])[H])(C([H])([H])[H])C([H])([H])[H])C([H])([H])c2c([H])c(OC3([H])C([H])([H])C([H])([H])C([H])(c4c([H])c(C([H])(C([H])([H])C(=O)N5C([H])([H])C([H])([H])C([H])([H])C([H])(n6nc(-c7c([H])c([H])c(Oc8c([H])c([H])c(F)c([H])c8F)c([H])c7[H])c(C(=O)N([H])[H])c6N([H])[H])C5([H])[H])[N+]([H])([H])[H])c(C([H])([H])[H])c([H])c4OC([H])([H])[H])C3([H])C([H])([H])[H])c([H])c([H])c2C1([H])[H]

>  <smiles>  (44) 
[H]c1c([H])c([H])c2c(c1[H])C([H])([H])C([H])([H])C([H])([H])C2([H])N([H])C(=O)C1([H])N(C(=O)C([H])(N([H])C(=O)C([H])(N([H])C([H])([H])[H])C([H])([H])[H])C(C([H])([H])[H])(C([H])([H])[H])C([H])([H])[H])C([H])([H])c2c([H])c(OC3([H])C([H])([H])C([H])([H])C([H])(c4c([H])c(C([H])(C([H])([H])C(=O)N5C([H])([H])C([H])([H])C([H])([H])C([H])(n6nc(-c7c([H])c([H])c(Oc8c([H])c([H])c(F)c([H])c8F)c([H])c7[H])c(C(=O)N([H])[H])c6N([H])[H])C5([H])[H])[N+]([H])([H])[H])c(C([H])([H])[H])c([H])c4OC([H])([H])[H])C3([H])C([H])([H])[H])c([H])c([H])c2C1([H])[H]

$$$$
44:0:0
     RDKit          3D

 98106  0  0  1  0  0  0  0  0999 V2000
  -28.9970  -19.9970   19.1550 C   0  0  0  0  0  2  0  0  0  0  0  0
  -29.4120  -20.0890   20.6410 C   0  0  0  0  0  3  0  0  0  0  0  0
  -28.4030  -18.6450   18.7090 C   0  0  0  0  0  3  0  0  0  0  0  0
  -29.5820  -17.3850   20.5610 C   0  0  0  0  0  3  0  0  0  0  0  0
  -30.2770  -18.7540   21.0330 C   0  0  0  0  0  3  0  0  0  0  0  0
  -29.3600  -17.4360   19.0030 C   0  0  2  0  0  0  0  0  0  0  0  0
  -27.9710  -18.7500   17.2350 C   0  0  0  0  0  1  0  0  0  0  0  0
  -30.7120  -17.5800   18.2520 C   0  0  0  0  0  1  0  0  0  0  0  0
  -28.6970  -16.1590   18.4580 C   0  0  0  0  0  1  0  0  0  0  0  0
  -30.6960  -14.9660   21.0720 C   0  0  0  0  0  0  0  0  0  0  0  0
  -30.7490  -12.6120   20.2300 C   0  0  0  0  0  2  0  0  0  0  0  0
  -29.9500  -12.5240   18.9070 C   0  0  0  0  0  2  0  0  0  0  0  0
  -28.4330  -12.3880   19.1690 C   0  0  0  0  0  2  0  0  0  0  0  0
  -27.8950  -13.3140   20.2960 C   0  0  0  0  0  3  0  0  0  0  0  0
  -28.8290  -13.2920   21.5240 C   0  0  0  0  0  2  0  0  0  0  0  0
  -30.1690  -13.6910   21.0700 N   0  0  0  0  0  0  0  0  0  0  0  0
  -31.8740  -15.1580   20.7710 O   0  0  0  0  0  0  0  0  0  0  0  0
  -29.7980  -16.0050   21.2100 N   0  0  0  0  0  0  0  0  0  0  0  0
  -28.9280  -15.6540   21.5760 H   0  0  0  0  0  0  0  0  0  0  0  0
  -25.4230  -13.8790   20.7250 C   0  0  0  0  0  0  0  0  0  0  0  0
  -24.3370  -13.0920   20.9940 C   0  0  0  0  0  0  0  0  0  0  0  0
  -24.8270  -11.7500   21.0460 C   0  0  0  0  0  0  0  0  0  0  0  0
  -26.5070  -13.0150   20.6310 N   0  0  0  0  0  0  0  0  0  0  0  0
  -26.1440  -11.7330   20.8780 N   0  0  0  0  0  0  0  0  0  0  0  0
  -24.1100  -10.4750   21.1810 C   0  0  0  0  0  0  0  0  0  0  0  0
  -24.4660   -9.5250   22.1640 C   0  0  0  0  0  3  0  0  0  0  0  0
  -23.7500   -8.3140   22.2820 C   0  0  0  0  0  3  0  0  0  0  0  0
  -22.6640   -8.0420   21.4190 C   0  0  0  0  0  0  0  0  0  0  0  0
  -22.3250   -8.9820   20.4300 C   0  0  0  0  0  3  0  0  0  0  0  0
  -23.0410  -10.1850   20.3070 C   0  0  0  0  0  3  0  0  0  0  0  0
  -21.9360   -6.8760   21.4480 O   0  0  0  0  0  0  0  0  0  0  0  0
  -21.7960   -6.1380   22.6000 C   0  0  0  0  0  0  0  0  0  0  0  0
  -21.2270   -6.6880   23.7690 C   0  0  0  0  0  3  0  0  0  0  0  0
  -21.0460   -5.8850   24.9110 C   0  0  0  0  0  3  0  0  0  0  0  0
  -21.4170   -4.5260   24.8830 C   0  0  0  0  0  0  0  0  0  0  0  0
  -21.9700   -3.9710   23.7150 C   0  0  0  0  0  3  0  0  0  0  0  0
  -22.1590   -4.7760   22.5770 C   0  0  0  0  0  0  0  0  0  0  0  0
  -22.6770   -4.2330   21.4470 F   0  0  0  0  0  0  0  0  0  0  0  0
  -21.2330   -3.7480   25.9740 F   0  0  0  0  0  0  0  0  0  0  0  0
  -22.9080  -13.5440   21.1070 C   0  0  0  0  0  0  0  0  0  0  0  0
  -22.0970  -12.8470   21.8950 N   0  0  0  0  0  0  0  0  0  0  0  0
  -22.5070  -14.5600   20.5350 O   0  0  0  0  0  0  0  0  0  0  0  0
  -22.4030  -12.0120   22.3740 H   0  0  0  0  0  0  0  0  0  0  0  0
  -21.1510  -13.1710   22.0370 H   0  0  0  0  0  0  0  0  0  0  0  0
  -25.5890  -15.2510   20.5470 N   0  0  0  0  0  0  0  0  0  0  0  0
  -24.7970  -15.8840   20.5700 H   0  0  0  0  0  0  0  0  0  0  0  0
  -26.4550  -15.7160   20.3160 H   0  0  0  0  0  0  0  0  0  0  0  0
  -30.6570  -18.6650   22.4520 N   0  0  0  0  0  4  0  0  0  0  0  0
  -29.8650  -18.5050   23.0500 H   0  0  0  0  0  0  0  0  0  0  0  0
  -31.1480  -19.4850   22.7480 H   0  0  0  0  0  0  0  0  0  0  0  0
  -31.2880  -17.8850   22.5590 H   0  0  0  0  0  0  0  0  0  0  0  0
  -29.9990  -21.5820   20.8380 C   0  0  0  0  0  2  0  0  0  0  0  0
  -29.3130  -24.1170   20.4800 C   0  0  0  0  0  0  0  0  0  0  0  0
  -29.0810  -22.7510   20.5060 N   0  0  0  0  0  0  0  0  0  0  0  0
  -30.4360  -24.5650   20.7110 O   0  0  0  0  0  0  0  0  0  0  0  0
  -28.1320  -22.4890   20.2780 H   0  0  0  0  0  0  0  0  0  0  0  0
  -28.1160  -25.1230   20.1480 C   0  0  0  0  0  2  0  0  0  0  0  0
  -28.3610  -26.6040   20.1990 O   0  0  0  0  0  0  0  0  0  0  0  0
  -24.5740  -31.9750   23.2660 C   0  0  0  0  0  0  0  0  0  0  0  0
  -27.2360  -27.4660   20.1450 C   0  0  0  0  0  0  0  0  0  0  0  0
  -23.3760  -30.5780   21.6140 C   0  0  0  0  0  3  0  0  0  0  0  0
  -24.8450  -29.0680   20.1610 C   0  0  0  0  0  0  0  0  0  0  0  0
  -25.9110  -30.9310   21.4190 C   0  0  0  0  0  2  0  0  0  0  0  0
  -26.0160  -29.5630   20.7510 C   0  0  0  0  0  0  0  0  0  0  0  0
  -27.2110  -28.7770   20.7290 C   0  0  0  0  0  3  0  0  0  0  0  0
  -26.0440  -27.0410   19.5200 C   0  0  0  0  0  3  0  0  0  0  0  0
  -24.8650  -27.8170   19.5280 C   0  0  0  0  0  3  0  0  0  0  0  0
  -23.5950  -29.9260   20.2250 C   0  0  0  0  0  2  0  0  0  0  0  0
  -24.6390  -31.1790   22.1580 N   0  0  0  0  0  0  0  0  0  0  0  0
  -23.4910  -32.2310   23.8150 O   0  0  0  0  0  0  0  0  0  0  0  0
  -22.7270  -29.5430   22.5680 C   0  0  0  0  0  0  0  0  0  0  0  0
  -21.4070  -29.3340   22.4320 N   0  0  0  0  0  0  0  0  0  0  0  0
  -23.4160  -28.9310   23.3880 O   0  0  0  0  0  0  0  0  0  0  0  0
  -20.9060  -29.9100   21.7660 H   0  0  0  0  0  0  0  0  0  0  0  0
  -18.0740  -27.9720   22.8190 C   0  0  0  0  0  0  0  0  0  0  0  0
  -20.6060  -28.3560   23.1680 C   0  0  0  0  0  3  0  0  0  0  0  0
  -20.7980  -26.9310   22.5950 C   0  0  0  0  0  2  0  0  0  0  0  0
  -19.7330  -26.5300   21.5650 C   0  0  0  0  0  2  0  0  0  0  0  0
  -18.3280  -26.6300   22.1570 C   0  0  0  0  0  2  0  0  0  0  0  0
  -19.1390  -28.7920   23.2760 C   0  0  0  0  0  0  0  0  0  0  0  0
  -18.8360  -30.0520   23.8430 C   0  0  0  0  0  3  0  0  0  0  0  0
  -17.4990  -30.4870   23.9630 C   0  0  0  0  0  3  0  0  0  0  0  0
  -16.4510  -29.6610   23.5230 C   0  0  0  0  0  3  0  0  0  0  0  0
  -16.7400  -28.4090   22.9540 C   0  0  0  0  0  3  0  0  0  0  0  0
  -25.8570  -32.6110   23.8890 C   0  0  0  0  0  3  0  0  0  0  0  0
  -26.3760  -31.8460   25.1670 C   0  0  1  0  0  0  0  0  0  0  0  0
  -25.2800  -31.6070   26.2300 C   0  0  0  0  0  1  0  0  0  0  0  0
  -26.9700  -30.4700   24.7830 C   0  0  0  0  0  1  0  0  0  0  0  0
  -27.5200  -32.6490   25.8290 C   0  0  0  0  0  1  0  0  0  0  0  0
  -25.5470  -34.0120   24.2150 N   0  0  0  0  0  0  0  0  0  0  0  0
  -25.8780  -35.0620   23.4540 C   0  0  0  0  0  0  0  0  0  0  0  0
  -26.5450  -34.9570   22.4220 O   0  0  0  0  0  0  0  0  0  0  0  0
  -24.9640  -34.1680   25.0240 H   0  0  0  0  0  0  0  0  0  0  0  0
  -24.1490  -36.8510   23.0910 C   0  0  0  0  0  1  0  0  0  0  0  0
  -25.3870  -36.4510   23.9100 C   0  0  0  0  0  3  0  0  0  0  0  0
  -27.5150  -37.3400   24.7520 C   0  0  0  0  0  1  0  0  0  0  0  0
  -26.4170  -37.5050   23.8030 N   0  0  0  0  0  0  0  0  0  0  0  0
  -26.0100  -38.4240   23.9480 H   0  0  0  0  0  0  0  0  0  0  0  0
  1  2  1  0
  2 52  1  0
  2  5  1  0
  3  7  1  0
  3  6  1  0
  3  1  1  0
  4  5  1  0
  4 18  1  0
  5 48  1  0
  6  4  1  0
  6  8  1  6
  9  6  1  0
 10 18  1  0
 11 16  1  0
 12 13  1  0
 12 11  1  0
 14 13  1  0
 14 23  1  0
 14 15  1  0
 16 10  1  0
 16 15  1  0
 17 10  2  0
 18 19  1  0
 20 21  2  0
 21 22  1  0
 21 40  1  0
 22 25  1  0
 23 20  1  0
 23 24  1  0
 24 22  2  0
 25 26  1  0
 26 27  2  0
 28 31  1  0
 28 27  1  0
 29 28  2  0
 30 29  1  0
 30 25  2  0
 31 32  1  0
 32 33  1  0
 33 34  2  0
 35 34  1  0
 35 39  1  0
 36 35  2  0
 37 32  2  0
 37 36  1  0
 38 37  1  0
 40 41  1  0
 41 44  1  0
 41 43  1  0
 42 40  2  0
 45 46  1  0
 45 20  1  0
 47 45  1  0
 48 51  1  0
 48 50  1  0
 48 49  1  0
 53 54  1  0
 53 55  2  0
 54 52  1  0
 56 54  1  0
 57 58  1  0
 57 53  1  0
 59 70  2  0
 60 58  1  0
 60 65  1  0
 61 69  1  0
 61 71  1  0
 62 68  1  0
 62 64  1  0
 63 69  1  0
 64 63  1  0
 65 64  2  0
 66 67  1  0
 66 60  2  0
 67 62  2  0
 68 61  1  0
 69 59  1  0
 71 73  2  0
 72 71  1  0
 74 72  1  0
 75 84  2  0
 75 80  1  0
 76 72  1  0
 76 80  1  0
 77 76  1  0
 78 79  1  0
 78 77  1  0
 79 75  1  0
 80 81  2  0
 81 82  1  0
 83 82  2  0
 84 83  1  0
 85 59  1  0
 85 90  1  0
 85 86  1  0
 86 89  1  1
 86 87  1  0
 88 86  1  0
 90 93  1  0
 91 95  1  0
 91 90  1  0
 92 91  2  0
 95 94  1  0
 97 95  1  0
 97 98  1  0
 97 96  1  0
M  ISO  4  10 100  18 100  57 101  58 101
M  END
>  <TORSDO>  (45) 
F 20

>  <SCORE>  (45) 
-13.725

>  <name>  (45) 
44

>  <ligand_id>  (45) 
44

>  <original_smiles>  (45) 
[H]c1c([H])c([H])c2c(c1[H])C([H])([H])C([H])([H])C([H])([H])C2([H])N([H])C(=O)C1([H])N(C(=O)C([H])(N([H])C(=O)C([H])(N([H])C([H])([H])[H])C([H])([H])[H])C(C([H])([H])[H])(C([H])([H])[H])C([H])([H])[H])C([H])([H])c2c([H])c(OC([H])([H])C(=O)N([H])C([H])([H])C3([H])C([H])([H])C([H])(C([H])([H])[H])C(C([H])([H])[H])(C([H])([H])[H])C([H])(N([H])C(=O)N4C([H])([H])C([H])([H])C([H])([H])C([H])(n5nc(-c6c([H])c([H])c(Oc7c([H])c([H])c(F)c([H])c7F)c([H])c6[H])c(C(=O)N([H])[H])c5N([H])[H])C4([H])[H])C3([H])[N+]([H])([H])[H])c([H])c([H])c2C1([H])[H]

>  <smiles>  (45) 
[H]c1c([H])c([H])c2c(c1[H])C([H])([H])C([H])([H])C([H])([H])C2([H])N([H])C(=O)C1([H])N(C(=O)C([H])(N([H])C(=O)C([H])(N([H])C([H])([H])[H])C([H])([H])[H])C(C([H])([H])[H])(C([H])([H])[H])C([H])([H])[H])C([H])([H])c2c([H])c(OC([H])([H])C(=O)N([H])C([H])([H])C3([H])C([H])([H])C([H])(C([H])([H])[H])C(C([H])([H])[H])(C([H])([H])[H])C([H])(N([H])C(=O)N4C([H])([H])C([H])([H])C([H])([H])C([H])(n5nc(-c6c([H])c([H])c(Oc7c([H])c([H])c(F)c([H])c7F)c([H])c6[H])c(C(=O)N([H])[H])c5N([H])[H])C4([H])[H])C3([H])[N+]([H])([H])[H])c([H])c([H])c2C1([H])[H]

$$$$
45:0:0
     RDKit          3D

 98107  0  0  1  0  0  0  0  0999 V2000
  -29.2460  -18.2880   18.8800 C   0  0  0  0  0  3  0  0  0  0  0  0
  -30.2530  -17.8810   19.9370 C   0  0  0  0  0  3  0  0  0  0  0  0
  -29.3280  -19.3020   20.0550 C   0  0  2  0  0  0  0  0  0  0  0  0
  -28.1740  -19.2980   21.0610 C   0  0  0  0  0  1  0  0  0  0  0  0
  -30.7880  -15.2070   20.3330 C   0  0  0  0  0  0  0  0  0  0  0  0
  -30.6310  -12.8730   19.3880 C   0  0  0  0  0  2  0  0  0  0  0  0
  -29.7060  -12.8810   18.1510 C   0  0  0  0  0  2  0  0  0  0  0  0
  -28.2320  -12.7160   18.5600 C   0  0  0  0  0  2  0  0  0  0  0  0
  -27.8390  -13.6010   19.7730 C   0  0  0  0  0  3  0  0  0  0  0  0
  -28.8910  -13.5570   20.9020 C   0  0  0  0  0  2  0  0  0  0  0  0
  -30.1710  -13.9550   20.3060 N   0  0  0  0  0  0  0  0  0  0  0  0
  -31.9910  -15.2380   20.0720 O   0  0  0  0  0  0  0  0  0  0  0  0
  -30.0080  -16.4060   20.4120 N   0  0  0  0  0  0  0  0  0  0  0  0
  -29.0680  -16.2420   20.7340 H   0  0  0  0  0  0  0  0  0  0  0  0
  -25.4670  -14.1980   20.5050 C   0  0  0  0  0  0  0  0  0  0  0  0
  -24.3820  -13.4320   20.8240 C   0  0  0  0  0  0  0  0  0  0  0  0
  -24.8170  -12.0720   20.7510 C   0  0  0  0  0  0  0  0  0  0  0  0
  -26.4950  -13.3070   20.2510 N   0  0  0  0  0  0  0  0  0  0  0  0
  -26.1150  -12.0190   20.4740 N   0  0  0  0  0  0  0  0  0  0  0  0
  -24.0590  -10.8200   20.8860 C   0  0  0  0  0  0  0  0  0  0  0  0
  -24.4200   -9.8410   21.8360 C   0  0  0  0  0  3  0  0  0  0  0  0
  -23.6650   -8.6560   21.9640 C   0  0  0  0  0  3  0  0  0  0  0  0
  -22.5300   -8.4400   21.1460 C   0  0  0  0  0  0  0  0  0  0  0  0
  -22.1850   -9.4100   20.1900 C   0  0  0  0  0  3  0  0  0  0  0  0
  -22.9410  -10.5910   20.0580 C   0  0  0  0  0  3  0  0  0  0  0  0
  -21.7450   -7.3120   21.1820 O   0  0  0  0  0  0  0  0  0  0  0  0
  -21.5950   -6.5820   22.3340 C   0  0  0  0  0  0  0  0  0  0  0  0
  -21.0860   -7.1550   23.5220 C   0  0  0  0  0  3  0  0  0  0  0  0
  -20.8850   -6.3490   24.6580 C   0  0  0  0  0  3  0  0  0  0  0  0
  -21.1750   -4.9690   24.6120 C   0  0  0  0  0  0  0  0  0  0  0  0
  -21.6800   -4.4020   23.4280 C   0  0  0  0  0  3  0  0  0  0  0  0
  -21.8860   -5.2030   22.2930 C   0  0  0  0  0  0  0  0  0  0  0  0
  -22.3500   -4.6490   21.1490 F   0  0  0  0  0  0  0  0  0  0  0  0
  -20.9700   -4.1930   25.7020 F   0  0  0  0  0  0  0  0  0  0  0  0
  -22.9890  -13.9240   21.0860 C   0  0  0  0  0  0  0  0  0  0  0  0
  -22.2510  -13.2460   21.9540 N   0  0  0  0  0  0  0  0  0  0  0  0
  -22.5650  -14.9500   20.5520 O   0  0  0  0  0  0  0  0  0  0  0  0
  -22.6090  -12.4250   22.4160 H   0  0  0  0  0  0  0  0  0  0  0  0
  -21.3070  -13.5510   22.1580 H   0  0  0  0  0  0  0  0  0  0  0  0
  -25.6550  -15.5760   20.3790 N   0  0  0  0  0  0  0  0  0  0  0  0
  -24.8980  -16.2300   20.5500 H   0  0  0  0  0  0  0  0  0  0  0  0
  -26.5230  -16.0330   20.1400 H   0  0  0  0  0  0  0  0  0  0  0  0
  -30.8880  -18.0210   16.8920 C   0  0  0  0  0  3  0  0  0  0  0  0
  -28.9900  -18.8010   15.0060 C   0  0  0  0  0  3  0  0  0  0  0  0
  -29.6070  -18.3930   17.3750 C   0  0  0  0  0  0  0  0  0  0  0  0
  -31.2550  -18.1330   15.5270 C   0  0  0  0  0  0  0  0  0  0  0  0
  -28.6470  -18.7750   16.3810 C   0  0  0  0  0  0  0  0  0  0  0  0
  -30.2990  -18.5350   14.5690 C   0  0  0  0  0  0  0  0  0  0  0  0
  -32.7010  -17.8900   15.1180 C   0  0  0  0  0  1  0  0  0  0  0  0
  -27.2110  -19.1610   16.7140 C   0  0  0  0  0  1  0  0  0  0  0  0
  -30.6530  -18.7160   13.0900 C   0  0  0  0  0  1  0  0  0  0  0  0
  -29.7650  -20.8730   19.7820 C   0  0  0  0  0  0  0  0  0  0  0  0
  -29.0390  -22.0170   20.2500 N   0  0  0  0  0  0  0  0  0  0  0  0
  -30.7950  -21.0890   19.1420 O   0  0  0  0  0  0  0  0  0  0  0  0
  -28.2510  -21.7570   20.8370 H   0  0  0  0  0  0  0  0  0  0  0  0
  -29.3090  -23.5810   20.2390 C   0  0  0  0  0  3  0  0  0  0  0  0
  -28.1630  -24.8120   20.3520 C   0  0  0  0  0  3  0  0  0  0  0  0
  -28.4240  -26.3510   20.2320 O   0  0  0  0  0  0  0  0  0  0  0  0
  -24.7520  -32.0010   23.2550 C   0  0  0  0  0  0  0  0  0  0  0  0
  -27.3540  -27.3170   20.2050 C   0  0  0  0  0  0  0  0  0  0  0  0
  -23.5540  -30.5870   21.6330 C   0  0  0  0  0  3  0  0  0  0  0  0
  -25.0090  -29.0330   20.2000 C   0  0  0  0  0  0  0  0  0  0  0  0
  -26.1030  -30.8940   21.4310 C   0  0  0  0  0  2  0  0  0  0  0  0
  -26.1910  -29.4990   20.7870 C   0  0  0  0  0  0  0  0  0  0  0  0
  -27.3650  -28.6570   20.7750 C   0  0  0  0  0  3  0  0  0  0  0  0
  -26.1420  -26.9580   19.5750 C   0  0  0  0  0  3  0  0  0  0  0  0
  -24.9960  -27.7740   19.5820 C   0  0  0  0  0  3  0  0  0  0  0  0
  -23.7690  -29.9100   20.2550 C   0  0  0  0  0  2  0  0  0  0  0  0
  -24.8230  -31.1790   22.1630 N   0  0  0  0  0  0  0  0  0  0  0  0
  -23.6670  -32.2660   23.7920 O   0  0  0  0  0  0  0  0  0  0  0  0
  -22.9030  -29.5660   22.5980 C   0  0  0  0  0  0  0  0  0  0  0  0
  -21.5840  -29.3420   22.4550 N   0  0  0  0  0  0  0  0  0  0  0  0
  -23.5870  -28.9760   23.4400 O   0  0  0  0  0  0  0  0  0  0  0  0
  -21.0890  -29.8590   21.7420 H   0  0  0  0  0  0  0  0  0  0  0  0
  -18.2370  -28.0510   22.9510 C   0  0  0  0  0  0  0  0  0  0  0  0
  -20.7870  -28.3920   23.2340 C   0  0  0  0  0  3  0  0  0  0  0  0
  -20.9340  -26.9560   22.6750 C   0  0  0  0  0  2  0  0  0  0  0  0
  -19.8460  -26.5920   21.6580 C   0  0  0  0  0  2  0  0  0  0  0  0
  -18.4570  -26.7030   22.2890 C   0  0  0  0  0  2  0  0  0  0  0  0
  -19.3310  -28.8500   23.3830 C   0  0  0  0  0  0  0  0  0  0  0  0
  -19.0670  -30.1130   23.9600 C   0  0  0  0  0  3  0  0  0  0  0  0
  -17.7460  -30.5730   24.1150 C   0  0  0  0  0  3  0  0  0  0  0  0
  -16.6690  -29.7700   23.7050 C   0  0  0  0  0  3  0  0  0  0  0  0
  -16.9160  -28.5100   23.1280 C   0  0  0  0  0  3  0  0  0  0  0  0
  -26.0250  -32.6560   23.8700 C   0  0  0  0  0  3  0  0  0  0  0  0
  -26.5760  -31.8790   25.1270 C   0  0  1  0  0  0  0  0  0  0  0  0
  -25.4920  -31.5250   26.1720 C   0  0  0  0  0  1  0  0  0  0  0  0
  -27.2550  -30.5600   24.6970 C   0  0  0  0  0  1  0  0  0  0  0  0
  -27.6740  -32.7230   25.8190 C   0  0  0  0  0  1  0  0  0  0  0  0
  -25.6850  -34.0430   24.2310 N   0  0  0  0  0  0  0  0  0  0  0  0
  -25.9750  -35.1150   23.4840 C   0  0  0  0  0  0  0  0  0  0  0  0
  -26.6230  -35.0460   22.4360 O   0  0  0  0  0  0  0  0  0  0  0  0
  -25.1090  -34.1740   25.0490 H   0  0  0  0  0  0  0  0  0  0  0  0
  -24.1970  -36.8720   23.1920 C   0  0  0  0  0  1  0  0  0  0  0  0
  -25.4660  -36.4860   23.9700 C   0  0  0  0  0  3  0  0  0  0  0  0
  -27.5980  -37.4040   24.7690 C   0  0  0  0  0  1  0  0  0  0  0  0
  -26.4710  -37.5680   23.8540 N   0  0  0  0  0  0  0  0  0  0  0  0
  -26.0460  -38.4730   24.0350 H   0  0  0  0  0  0  0  0  0  0  0  0
  1 45  1  0
  1  2  1  0
  1  3  1  0
  2  3  1  0
  2 13  1  0
  3  4  1  1
  5 13  1  0
  6 11  1  0
  7  8  1  0
  7  6  1  0
  9  8  1  0
  9 18  1  0
  9 10  1  0
 11  5  1  0
 11 10  1  0
 12  5  2  0
 13 14  1  0
 15 16  2  0
 16 35  1  0
 17 16  1  0
 17 20  1  0
 18 19  1  0
 18 15  1  0
 19 17  2  0
 20 21  1  0
 21 22  2  0
 23 26  1  0
 23 22  1  0
 24 23  2  0
 25 24  1  0
 25 20  2  0
 26 27  1  0
 27 28  1  0
 28 29  2  0
 30 29  1  0
 30 34  1  0
 31 30  2  0
 32 27  2  0
 32 31  1  0
 33 32  1  0
 35 36  1  0
 36 39  1  0
 36 38  1  0
 37 35  2  0
 40 15  1  0
 40 41  1  0
 42 40  1  0
 43 45  1  0
 44 47  1  0
 46 43  2  0
 47 50  1  0
 47 45  2  0
 48 44  2  0
 48 46  1  0
 49 46  1  0
 51 48  1  0
 52  3  1  0
 52 53  1  0
 53 55  1  0
 54 52  2  0
 56 53  1  0
 56 57  2  0
 58 57  1  0
 59 70  2  0
 60 58  1  0
 60 65  1  0
 61 69  1  0
 61 71  1  0
 62 68  1  0
 62 64  1  0
 63 69  1  0
 64 63  1  0
 65 64  2  0
 66 67  1  0
 66 60  2  0
 67 62  2  0
 68 61  1  0
 69 59  1  0
 71 73  2  0
 72 71  1  0
 74 72  1  0
 75 84  2  0
 75 80  1  0
 76 72  1  0
 76 80  1  0
 77 76  1  0
 78 79  1  0
 78 77  1  0
 79 75  1  0
 80 81  2  0
 81 82  1  0
 83 82  2  0
 84 83  1  0
 85 59  1  0
 85 90  1  0
 85 86  1  0
 86 89  1  1
 86 87  1  0
 88 86  1  0
 90 93  1  0
 91 95  1  0
 91 90  1  0
 92 91  2  0
 95 94  1  0
 97 95  1  0
 97 98  1  0
 97 96  1  0
M  ISO  4   5 100  13 100  57 101  58 101
M  END
>  <TORSDO>  (46) 
F 20

>  <SCORE>  (46) 
-13.237

>  <name>  (46) 
45

>  <ligand_id>  (46) 
45

>  <original_smiles>  (46) 
[H]c1c([H])c([H])c2c(c1[H])C([H])([H])C([H])([H])C([H])([H])C2([H])N([H])C(=O)C1([H])N(C(=O)C([H])(N([H])C(=O)C([H])(N([H])C([H])([H])[H])C([H])([H])[H])C(C([H])([H])[H])(C([H])([H])[H])C([H])([H])[H])C([H])([H])c2c([H])c(OC([H])([H])C([H])([H])N([H])C(=O)C3(C([H])([H])[H])C([H])(c4c([H])c(C([H])([H])[H])c(C([H])([H])[H])c([H])c4C([H])([H])[H])C3([H])N([H])C(=O)N3C([H])([H])C([H])([H])C([H])([H])C([H])(n4nc(-c5c([H])c([H])c(Oc6c([H])c([H])c(F)c([H])c6F)c([H])c5[H])c(C(=O)N([H])[H])c4N([H])[H])C3([H])[H])c([H])c([H])c2C1([H])[H]

>  <smiles>  (46) 
[H]c1c([H])c([H])c2c(c1[H])C([H])([H])C([H])([H])C([H])([H])C2([H])N([H])C(=O)C1([H])N(C(=O)C([H])(N([H])C(=O)C([H])(N([H])C([H])([H])[H])C([H])([H])[H])C(C([H])([H])[H])(C([H])([H])[H])C([H])([H])[H])C([H])([H])c2c([H])c(OC([H])([H])C([H])([H])N([H])C(=O)C3(C([H])([H])[H])C([H])(c4c([H])c(C([H])([H])[H])c(C([H])([H])[H])c([H])c4C([H])([H])[H])C3([H])N([H])C(=O)N3C([H])([H])C([H])([H])C([H])([H])C([H])(n4nc(-c5c([H])c([H])c(Oc6c([H])c([H])c(F)c([H])c6F)c([H])c5[H])c(C(=O)N([H])[H])c4N([H])[H])C3([H])[H])c([H])c([H])c2C1([H])[H]

$$$$
46:0:0
     RDKit          3D

 91100  0  0  1  0  0  0  0  0999 V2000
  -30.9390  -22.3270   21.2290 C   0  0  0  0  0  3  0  0  0  0  0  0
  -30.1280  -23.4520   20.9100 C   0  0  0  0  0  3  0  0  0  0  0  0
  -30.5970  -20.9840   20.9040 C   0  0  0  0  0  0  0  0  0  0  0  0
  -29.3880  -20.7100   20.2290 C   0  0  0  0  0  0  0  0  0  0  0  0
  -28.8920  -23.3250   20.2410 C   0  0  0  0  0  0  0  0  0  0  0  0
  -28.5530  -21.9100   19.9130 C   0  0  0  0  0  0  0  0  0  0  0  0
  -31.5710  -19.8430   21.2520 C   0  0  0  0  0  2  0  0  0  0  0  0
  -29.0750  -19.1270   19.9330 C   0  0  0  0  0  2  0  0  0  0  0  0
  -30.9750  -18.4140   21.4550 C   0  0  0  0  0  2  0  0  0  0  0  0
  -30.1650  -17.8800   20.2510 C   0  0  0  0  0  3  0  0  0  0  0  0
  -27.2330  -21.6820   19.1980 C   0  0  0  0  0  1  0  0  0  0  0  0
  -30.4940  -15.0970   20.1740 C   0  0  0  0  0  0  0  0  0  0  0  0
  -30.3920  -12.7920   19.0670 C   0  0  0  0  0  2  0  0  0  0  0  0
  -29.3790  -12.7320   17.8940 C   0  0  0  0  0  2  0  0  0  0  0  0
  -27.9370  -12.4930   18.3890 C   0  0  0  0  0  2  0  0  0  0  0  0
  -27.5940  -13.3460   19.6380 C   0  0  0  0  0  3  0  0  0  0  0  0
  -28.7200  -13.2120   20.6850 C   0  0  0  0  0  2  0  0  0  0  0  0
  -29.9140  -13.8120   20.0590 N   0  0  0  0  0  0  0  0  0  0  0  0
  -31.6790  -15.1540   19.8130 O   0  0  0  0  0  0  0  0  0  0  0  0
  -28.4640  -16.3810   21.1100 C   0  0  0  0  0  1  0  0  0  0  0  0
  -29.7610  -16.3340   20.4270 N   0  0  0  0  0  0  0  0  0  0  0  0
  -25.2270  -13.9090   20.4410 C   0  0  0  0  0  0  0  0  0  0  0  0
  -24.1810  -13.1250   20.8390 C   0  0  0  0  0  0  0  0  0  0  0  0
  -24.6540  -11.7790   20.7780 C   0  0  0  0  0  0  0  0  0  0  0  0
  -26.2730  -13.0400   20.1710 N   0  0  0  0  0  0  0  0  0  0  0  0
  -25.9350  -11.7530   20.4310 N   0  0  0  0  0  0  0  0  0  0  0  0
  -23.9420  -10.5110   20.9750 C   0  0  0  0  0  0  0  0  0  0  0  0
  -24.3920   -9.5470   21.9030 C   0  0  0  0  0  3  0  0  0  0  0  0
  -23.6770   -8.3450   22.0870 C   0  0  0  0  0  3  0  0  0  0  0  0
  -22.4980   -8.1000   21.3440 C   0  0  0  0  0  0  0  0  0  0  0  0
  -22.0670   -9.0530   20.4060 C   0  0  0  0  0  3  0  0  0  0  0  0
  -22.7840  -10.2470   20.2180 C   0  0  0  0  0  3  0  0  0  0  0  0
  -21.7540   -6.9490   21.4390 O   0  0  0  0  0  0  0  0  0  0  0  0
  -21.7010   -6.2220   22.6020 C   0  0  0  0  0  0  0  0  0  0  0  0
  -21.2510   -6.7860   23.8150 C   0  0  0  0  0  3  0  0  0  0  0  0
  -21.1450   -5.9840   24.9680 C   0  0  0  0  0  3  0  0  0  0  0  0
  -21.4810   -4.6180   24.9110 C   0  0  0  0  0  0  0  0  0  0  0  0
  -21.9250   -4.0530   23.7030 C   0  0  0  0  0  3  0  0  0  0  0  0
  -22.0310   -4.8510   22.5500 C   0  0  0  0  0  0  0  0  0  0  0  0
  -22.4390   -4.2970   21.3830 F   0  0  0  0  0  0  0  0  0  0  0  0
  -21.3730   -3.8460   26.0170 F   0  0  0  0  0  0  0  0  0  0  0  0
  -22.7910  -13.5930   21.1600 C   0  0  0  0  0  0  0  0  0  0  0  0
  -22.1010  -12.8880   22.0480 N   0  0  0  0  0  0  0  0  0  0  0  0
  -22.3320  -14.6220   20.6650 O   0  0  0  0  0  0  0  0  0  0  0  0
  -22.4850  -12.0550   22.4700 H   0  0  0  0  0  0  0  0  0  0  0  0
  -21.1720  -13.1850   22.3120 H   0  0  0  0  0  0  0  0  0  0  0  0
  -25.3610  -15.2810   20.2620 N   0  0  0  0  0  0  0  0  0  0  0  0
  -24.5860  -15.9230   20.3870 H   0  0  0  0  0  0  0  0  0  0  0  0
  -26.1920  -15.7270   19.9000 H   0  0  0  0  0  0  0  0  0  0  0  0
  -27.9740  -24.6740   19.9140 C   0  0  0  0  0  2  0  0  0  0  0  0
  -28.2660  -26.1790   20.2380 O   0  0  0  0  0  0  0  0  0  0  0  0
  -24.6310  -31.8680   23.2640 C   0  0  0  0  0  0  0  0  0  0  0  0
  -27.2180  -27.1800   20.1730 C   0  0  0  0  0  0  0  0  0  0  0  0
  -23.4320  -30.4850   21.6130 C   0  0  0  0  0  3  0  0  0  0  0  0
  -24.8800  -28.9290   20.1710 C   0  0  0  0  0  0  0  0  0  0  0  0
  -25.9860  -30.7530   21.4460 C   0  0  0  0  0  2  0  0  0  0  0  0
  -26.0620  -29.3680   20.7800 C   0  0  0  0  0  0  0  0  0  0  0  0
  -27.2290  -28.5090   20.7660 C   0  0  0  0  0  3  0  0  0  0  0  0
  -26.0070  -26.8510   19.5220 C   0  0  0  0  0  3  0  0  0  0  0  0
  -24.8660  -27.6830   19.5280 C   0  0  0  0  0  3  0  0  0  0  0  0
  -23.6510  -29.8200   20.2300 C   0  0  0  0  0  2  0  0  0  0  0  0
  -24.7040  -31.0570   22.1630 N   0  0  0  0  0  0  0  0  0  0  0  0
  -23.5450  -32.1460   23.7950 O   0  0  0  0  0  0  0  0  0  0  0  0
  -22.7560  -29.4690   22.5690 C   0  0  0  0  0  0  0  0  0  0  0  0
  -21.4280  -29.2970   22.4420 N   0  0  0  0  0  0  0  0  0  0  0  0
  -23.4290  -28.8370   23.3870 O   0  0  0  0  0  0  0  0  0  0  0  0
  -20.9410  -29.8630   21.7620 H   0  0  0  0  0  0  0  0  0  0  0  0
  -18.0490  -28.0790   22.9330 C   0  0  0  0  0  0  0  0  0  0  0  0
  -20.6080  -28.3500   23.2040 C   0  0  0  0  0  3  0  0  0  0  0  0
  -20.7160  -26.9220   22.6200 C   0  0  0  0  0  2  0  0  0  0  0  0
  -19.6160  -26.6010   21.6030 C   0  0  0  0  0  2  0  0  0  0  0  0
  -18.2330  -26.7340   22.2470 C   0  0  0  0  0  2  0  0  0  0  0  0
  -19.1640  -28.8440   23.3680 C   0  0  0  0  0  0  0  0  0  0  0  0
  -18.9390  -30.0990   23.9720 C   0  0  0  0  0  3  0  0  0  0  0  0
  -17.6320  -30.5910   24.1460 C   0  0  0  0  0  3  0  0  0  0  0  0
  -16.5310  -29.8230   23.7260 C   0  0  0  0  0  3  0  0  0  0  0  0
  -16.7420  -28.5700   23.1250 C   0  0  0  0  0  3  0  0  0  0  0  0
  -25.9090  -32.5020   23.8940 C   0  0  0  0  0  3  0  0  0  0  0  0
  -25.5970  -33.9010   24.2290 N   0  0  0  0  0  0  0  0  0  0  0  0
  -25.9050  -34.9580   23.4670 C   0  0  0  0  0  0  0  0  0  0  0  0
  -26.5470  -34.8600   22.4160 O   0  0  0  0  0  0  0  0  0  0  0  0
  -25.0270  -34.0550   25.0480 H   0  0  0  0  0  0  0  0  0  0  0  0
  -24.1450  -36.7360   23.1850 C   0  0  0  0  0  1  0  0  0  0  0  0
  -25.4250  -36.3450   23.9410 C   0  0  0  0  0  3  0  0  0  0  0  0
  -27.5840  -37.2570   24.6710 C   0  0  0  0  0  1  0  0  0  0  0  0
  -26.4410  -37.4070   23.7750 N   0  0  0  0  0  0  0  0  0  0  0  0
  -26.0330  -38.3240   23.9350 H   0  0  0  0  0  0  0  0  0  0  0  0
  -26.4160  -31.7300   25.1760 C   0  0  1  0  0  0  0  0  0  0  0  0
  -25.3160  -31.4980   26.2370 C   0  0  0  0  0  1  0  0  0  0  0  0
  -26.9980  -30.3510   24.7910 C   0  0  0  0  0  1  0  0  0  0  0  0
  -27.5640  -32.5230   25.8430 C   0  0  0  0  0  1  0  0  0  0  0  0
  2  1  1  0
  3  1  2  0
  3  7  1  0
  4  3  1  0
  5  2  2  0
  6  4  2  0
  6  5  1  0
  7  9  1  0
  8  4  1  0
  8 10  1  0
 10 21  1  0
 10  9  1  0
 11  6  1  0
 12 21  1  0
 13 18  1  0
 14 15  1  0
 14 13  1  0
 16 15  1  0
 16 25  1  0
 16 17  1  0
 18 12  1  0
 18 17  1  0
 19 12  2  0
 21 20  1  0
 22 23  2  0
 23 42  1  0
 24 23  1  0
 24 27  1  0
 25 26  1  0
 25 22  1  0
 26 24  2  0
 27 28  1  0
 28 29  2  0
 30 33  1  0
 30 29  1  0
 31 30  2  0
 32 31  1  0
 32 27  2  0
 33 34  1  0
 34 35  1  0
 35 36  2  0
 37 36  1  0
 37 41  1  0
 38 37  2  0
 39 34  2  0
 39 38  1  0
 40 39  1  0
 42 43  1  0
 43 46  1  0
 43 45  1  0
 44 42  2  0
 47 48  1  0
 47 22  1  0
 49 47  1  0
 50 51  1  0
 50  5  1  0
 52 63  2  0
 53 51  1  0
 53 58  1  0
 54 62  1  0
 54 64  1  0
 55 61  1  0
 55 57  1  0
 56 62  1  0
 57 56  1  0
 58 57  2  0
 59 60  1  0
 59 53  2  0
 60 55  2  0
 61 54  1  0
 62 52  1  0
 64 66  2  0
 65 64  1  0
 67 65  1  0
 68 77  2  0
 68 73  1  0
 69 65  1  0
 69 73  1  0
 70 69  1  0
 71 72  1  0
 71 70  1  0
 72 68  1  0
 73 74  2  0
 74 75  1  0
 76 75  2  0
 77 76  1  0
 78 52  1  0
 78 79  1  0
 78 88  1  0
 79 82  1  0
 80 84  1  0
 80 79  1  0
 81 80  2  0
 84 83  1  0
 86 87  1  0
 86 84  1  0
 86 85  1  0
 88 91  1  1
 88 89  1  0
 90 88  1  0
M  ISO  4  12 100  21 100  50 101  51 101
M  END
>  <TORSDO>  (47) 
F 17

>  <SCORE>  (47) 
-15.060

>  <name>  (47) 
46

>  <ligand_id>  (47) 
46

>  <original_smiles>  (47) 
[H]c1c([H])c([H])c2c(c1[H])C([H])([H])C([H])([H])C([H])([H])C2([H])N([H])C(=O)C1([H])N(C(=O)C([H])(N([H])C(=O)C([H])(N([H])C([H])([H])[H])C([H])([H])[H])C(C([H])([H])[H])(C([H])([H])[H])C([H])([H])[H])C([H])([H])c2c([H])c(OC([H])([H])c3c([H])c([H])c4c(c3C([H])([H])[H])C([H])([H])C([H])(N(C(=O)N3C([H])([H])C([H])([H])C([H])([H])C([H])(n5nc(-c6c([H])c([H])c(Oc7c([H])c([H])c(F)c([H])c7F)c([H])c6[H])c(C(=O)N([H])[H])c5N([H])[H])C3([H])[H])C([H])([H])[H])C([H])([H])C4([H])[H])c([H])c([H])c2C1([H])[H]

>  <smiles>  (47) 
[H]c1c([H])c([H])c2c(c1[H])C([H])([H])C([H])([H])C([H])([H])C2([H])N([H])C(=O)C1([H])N(C(=O)C([H])(N([H])C(=O)C([H])(N([H])C([H])([H])[H])C([H])([H])[H])C(C([H])([H])[H])(C([H])([H])[H])C([H])([H])[H])C([H])([H])c2c([H])c(OC([H])([H])c3c([H])c([H])c4c(c3C([H])([H])[H])C([H])([H])C([H])(N(C(=O)N3C([H])([H])C([H])([H])C([H])([H])C([H])(n5nc(-c6c([H])c([H])c(Oc7c([H])c([H])c(F)c([H])c7F)c([H])c6[H])c(C(=O)N([H])[H])c5N([H])[H])C3([H])[H])C([H])([H])[H])C([H])([H])C4([H])[H])c([H])c([H])c2C1([H])[H]

$$$$
47:0:0
     RDKit          3D

101111  0  0  1  0  0  0  0  0999 V2000
  -30.0430  -23.0640   21.6400 C   0  0  0  0  0  0  0  0  0  0  0  0
  -29.7730  -24.2390   20.8940 C   0  0  0  0  0  0  0  0  0  0  0  0
  -29.5090  -25.4420   21.5930 C   0  0  0  0  0  0  0  0  0  0  0  0
  -30.0980  -23.1420   23.0500 C   0  0  0  0  0  0  0  0  0  0  0  0
  -29.5080  -25.3990   23.0090 C   0  0  0  0  0  0  0  0  0  0  0  0
  -30.2830  -21.7460   20.9160 C   0  0  0  0  0  2  0  0  0  0  0  0
  -30.9720  -20.7290   23.0970 C   0  0  0  0  0  2  0  0  0  0  0  0
  -30.1720  -20.4900   21.7990 C   0  0  0  0  0  3  0  0  0  0  0  0
  -30.4500  -21.9290   23.9360 C   0  0  2  0  0  0  0  0  0  0  0  0
  -29.7660  -24.1820   19.3660 C   0  0  0  0  0  1  0  0  0  0  0  0
  -29.1640  -26.6090   23.8620 C   0  0  0  0  0  1  0  0  0  0  0  0
  -29.1970  -21.4930   24.7280 C   0  0  0  0  0  1  0  0  0  0  0  0
  -31.5720  -22.3000   24.9330 C   0  0  0  0  0  1  0  0  0  0  0  0
  -29.8030  -24.2840   23.7070 N   0  0  0  0  0  0  0  0  0  0  0  0
  -29.9420  -19.1530   19.6900 C   0  0  0  0  0  2  0  0  0  0  0  0
  -30.5550  -17.9720   21.6550 C   0  0  0  0  0  2  0  0  0  0  0  0
  -29.7800  -17.6430   19.4370 C   0  0  0  0  0  3  0  0  0  0  0  0
  -30.7230  -17.0160   20.4710 C   0  0  0  0  0  3  0  0  0  0  0  0
  -30.0210  -17.2160   17.9800 C   0  0  0  0  0  1  0  0  0  0  0  0
  -30.6110  -19.3020   21.0110 N   0  0  2  0  0  4  0  0  0  0  0  0
  -31.5890  -19.4420   20.8020 H   0  0  0  0  0  0  0  0  0  0  0  0
  -31.1160  -14.5840   20.2750 C   0  0  0  0  0  0  0  0  0  0  0  0
  -30.7790  -12.4110   19.1810 C   0  0  0  0  0  2  0  0  0  0  0  0
  -29.8430  -12.6180   17.9720 C   0  0  0  0  0  2  0  0  0  0  0  0
  -28.3640  -12.5300   18.4010 C   0  0  0  0  0  2  0  0  0  0  0  0
  -28.0460  -13.3940   19.6510 C   0  0  0  0  0  3  0  0  0  0  0  0
  -29.0960  -13.1650   20.7630 C   0  0  0  0  0  2  0  0  0  0  0  0
  -30.4280  -13.4180   20.1920 N   0  0  0  0  0  0  0  0  0  0  0  0
  -32.2310  -14.7530   19.7760 O   0  0  0  0  0  0  0  0  0  0  0  0
  -30.4110  -15.6160   20.7610 N   0  0  0  0  0  0  0  0  0  0  0  0
  -29.5050  -15.4020   21.1480 H   0  0  0  0  0  0  0  0  0  0  0  0
  -25.6750  -14.0620   20.3960 C   0  0  0  0  0  0  0  0  0  0  0  0
  -24.5870  -13.3140   20.7600 C   0  0  0  0  0  0  0  0  0  0  0  0
  -25.0050  -11.9510   20.6890 C   0  0  0  0  0  0  0  0  0  0  0  0
  -26.6890  -13.1540   20.1330 N   0  0  0  0  0  0  0  0  0  0  0  0
  -26.2880  -11.8790   20.3640 N   0  0  0  0  0  0  0  0  0  0  0  0
  -24.2420  -10.7070   20.8590 C   0  0  0  0  0  0  0  0  0  0  0  0
  -24.6280   -9.7250   21.7970 C   0  0  0  0  0  3  0  0  0  0  0  0
  -23.8680   -8.5460   21.9550 C   0  0  0  0  0  3  0  0  0  0  0  0
  -22.7070   -8.3400   21.1710 C   0  0  0  0  0  0  0  0  0  0  0  0
  -22.3400   -9.3100   20.2220 C   0  0  0  0  0  3  0  0  0  0  0  0
  -23.1000  -10.4810   20.0640 C   0  0  0  0  0  3  0  0  0  0  0  0
  -21.9230   -7.2140   21.2350 O   0  0  0  0  0  0  0  0  0  0  0  0
  -21.7750   -6.5040   22.4000 C   0  0  0  0  0  0  0  0  0  0  0  0
  -21.2740   -7.1020   23.5760 C   0  0  0  0  0  3  0  0  0  0  0  0
  -21.0730   -6.3210   24.7310 C   0  0  0  0  0  3  0  0  0  0  0  0
  -21.3630   -4.9430   24.7110 C   0  0  0  0  0  0  0  0  0  0  0  0
  -21.8580   -4.3460   23.5380 C   0  0  0  0  0  3  0  0  0  0  0  0
  -22.0610   -5.1250   22.3850 C   0  0  0  0  0  0  0  0  0  0  0  0
  -22.5180   -4.5400   21.2510 F   0  0  0  0  0  0  0  0  0  0  0  0
  -21.1620   -4.1910   25.8180 F   0  0  0  0  0  0  0  0  0  0  0  0
  -23.2090  -13.8280   21.0640 C   0  0  0  0  0  0  0  0  0  0  0  0
  -22.4770  -13.1390   21.9330 N   0  0  0  0  0  0  0  0  0  0  0  0
  -22.7910  -14.8720   20.5670 O   0  0  0  0  0  0  0  0  0  0  0  0
  -22.8290  -12.2910   22.3520 H   0  0  0  0  0  0  0  0  0  0  0  0
  -21.5540  -13.4640   22.1810 H   0  0  0  0  0  0  0  0  0  0  0  0
  -25.8820  -15.4300   20.2490 N   0  0  0  0  0  0  0  0  0  0  0  0
  -25.1370  -16.1060   20.3760 H   0  0  0  0  0  0  0  0  0  0  0  0
  -26.7320  -15.8420   19.8860 H   0  0  0  0  0  0  0  0  0  0  0  0
  -29.2580  -26.7470   20.8360 C   0  0  0  0  0  2  0  0  0  0  0  0
  -28.2680  -26.5890   19.8180 O   0  0  0  0  0  0  0  0  0  0  0  0
  -24.6630  -31.7390   23.1650 C   0  0  0  0  0  0  0  0  0  0  0  0
  -27.1240  -27.3440   19.9300 C   0  0  0  0  0  0  0  0  0  0  0  0
  -23.3620  -30.3690   21.5640 C   0  0  0  0  0  3  0  0  0  0  0  0
  -24.7330  -28.8370   20.0550 C   0  0  0  0  0  0  0  0  0  0  0  0
  -25.8690  -30.7230   21.2430 C   0  0  0  0  0  2  0  0  0  0  0  0
  -25.9140  -29.3580   20.5940 C   0  0  0  0  0  0  0  0  0  0  0  0
  -27.1120  -28.6240   20.5280 C   0  0  0  0  0  3  0  0  0  0  0  0
  -25.9320  -26.8330   19.3770 C   0  0  0  0  0  3  0  0  0  0  0  0
  -24.7340  -27.5720   19.4410 C   0  0  0  0  0  3  0  0  0  0  0  0
  -23.4960  -29.6990   20.1680 C   0  0  0  0  0  2  0  0  0  0  0  0
  -24.6520  -30.9560   22.0490 N   0  0  0  0  0  0  0  0  0  0  0  0
  -23.6130  -32.0150   23.7610 O   0  0  0  0  0  0  0  0  0  0  0  0
  -22.7510  -29.3420   22.5430 C   0  0  0  0  0  0  0  0  0  0  0  0
  -21.4360  -29.1070   22.4120 N   0  0  0  0  0  0  0  0  0  0  0  0
  -23.4550  -28.7600   23.3720 O   0  0  0  0  0  0  0  0  0  0  0  0
  -20.9300  -29.6350   21.7160 H   0  0  0  0  0  0  0  0  0  0  0  0
  -18.1260  -27.7240   22.8330 C   0  0  0  0  0  0  0  0  0  0  0  0
  -20.6490  -28.1540   23.1930 C   0  0  0  0  0  3  0  0  0  0  0  0
  -20.8640  -26.7090   22.6870 C   0  0  0  0  0  2  0  0  0  0  0  0
  -19.8260  -26.2720   21.6470 C   0  0  0  0  0  2  0  0  0  0  0  0
  -18.4130  -26.3570   22.2310 C   0  0  0  0  0  2  0  0  0  0  0  0
  -19.1780  -28.5730   23.2690 C   0  0  0  0  0  0  0  0  0  0  0  0
  -18.8590  -29.8460   23.7870 C   0  0  0  0  0  3  0  0  0  0  0  0
  -17.5210  -30.2740   23.8760 C   0  0  0  0  0  3  0  0  0  0  0  0
  -16.4830  -29.4230   23.4570 C   0  0  0  0  0  3  0  0  0  0  0  0
  -16.7860  -28.1500   22.9430 C   0  0  0  0  0  3  0  0  0  0  0  0
  -25.9860  -32.3430   23.7300 C   0  0  0  0  0  3  0  0  0  0  0  0
  -25.6960  -33.7200   24.1500 N   0  0  0  0  0  0  0  0  0  0  0  0
  -26.0180  -34.8140   23.4450 C   0  0  0  0  0  0  0  0  0  0  0  0
  -26.6620  -34.7680   22.3940 O   0  0  0  0  0  0  0  0  0  0  0  0
  -25.1170  -33.8290   24.9690 H   0  0  0  0  0  0  0  0  0  0  0  0
  -24.2960  -36.6340   23.2330 C   0  0  0  0  0  1  0  0  0  0  0  0
  -25.5490  -36.1740   23.9950 C   0  0  0  0  0  3  0  0  0  0  0  0
  -27.7050  -36.9950   24.8380 C   0  0  0  0  0  1  0  0  0  0  0  0
  -26.5880  -37.2250   23.9250 N   0  0  0  0  0  0  0  0  0  0  0  0
  -26.1920  -38.1370   24.1330 H   0  0  0  0  0  0  0  0  0  0  0  0
  -26.5910  -31.5070   24.9230 C   0  0  1  0  0  0  0  0  0  0  0  0
  -25.5700  -31.1920   26.0410 C   0  0  0  0  0  1  0  0  0  0  0  0
  -27.1630  -30.1630   24.4130 C   0  0  0  0  0  1  0  0  0  0  0  0
  -27.7710  -32.2780   25.5610 C   0  0  0  0  0  1  0  0  0  0  0  0
  1  4  1  0
  2  3  1  0
  2  1  2  0
  3  5  2  0
  4 14  2  0
  4  9  1  0
  5 14  1  0
  5 11  1  0
  6  1  1  0
  7  9  1  0
  8  6  1  0
  8  7  1  0
  9 12  1  1
  9 13  1  0
 10  2  1  0
 15 20  1  0
 17 19  1  0
 17 15  1  0
 17 18  1  0
 18 30  1  0
 18 16  1  0
 20 21  1  6
 20 16  1  0
 20  8  1  0
 22 30  1  0
 23 28  1  0
 24 25  1  0
 24 23  1  0
 26 25  1  0
 26 35  1  0
 26 27  1  0
 28 22  1  0
 28 27  1  0
 29 22  2  0
 30 31  1  0
 32 33  2  0
 33 52  1  0
 34 33  1  0
 34 37  1  0
 35 36  1  0
 35 32  1  0
 36 34  2  0
 37 38  1  0
 38 39  2  0
 40 43  1  0
 40 39  1  0
 41 40  2  0
 42 41  1  0
 42 37  2  0
 43 44  1  0
 44 45  1  0
 45 46  2  0
 47 46  1  0
 47 51  1  0
 48 47  2  0
 49 44  2  0
 49 48  1  0
 50 49  1  0
 52 53  1  0
 53 56  1  0
 53 55  1  0
 54 52  2  0
 57 58  1  0
 57 32  1  0
 59 57  1  0
 60  3  1  0
 61 63  1  0
 61 60  1  0
 62 73  2  0
 63 68  1  0
 64 72  1  0
 64 74  1  0
 65 71  1  0
 65 67  1  0
 66 72  1  0
 67 66  1  0
 68 67  2  0
 69 70  1  0
 69 63  2  0
 70 65  2  0
 71 64  1  0
 72 62  1  0
 74 76  2  0
 75 74  1  0
 77 75  1  0
 78 87  2  0
 78 83  1  0
 79 75  1  0
 79 83  1  0
 80 79  1  0
 81 82  1  0
 81 80  1  0
 82 78  1  0
 83 84  2  0
 84 85  1  0
 86 85  2  0
 87 86  1  0
 88 62  1  0
 88 89  1  0
 88 98  1  0
 89 92  1  0
 90 94  1  0
 90 89  1  0
 91 90  2  0
 94 93  1  0
 96 94  1  0
 96 97  1  0
 96 95  1  0
 98101  1  1
 98 99  1  0
100 98  1  0
M  ISO  4  22 100  30 100  60 101  61 101
M  END
>  <TORSDO>  (48) 
F 18

>  <SCORE>  (48) 
-12.671

>  <name>  (48) 
47

>  <ligand_id>  (48) 
47

>  <original_smiles>  (48) 
[H]c1c([H])c([H])c2c(c1[H])C([H])([H])C([H])([H])C([H])([H])C2([H])N([H])C(=O)C1([H])N(C(=O)C([H])(N([H])C(=O)C([H])(N([H])C([H])([H])[H])C([H])([H])[H])C(C([H])([H])[H])(C([H])([H])[H])C([H])([H])[H])C([H])([H])c2c([H])c(OC([H])([H])c3c(C([H])([H])[H])nc4c(c3C([H])([H])[H])C([H])([H])C([H])([N+]3([H])C([H])([H])C([H])(N([H])C(=O)N5C([H])([H])C([H])([H])C([H])([H])C([H])(n6nc(-c7c([H])c([H])c(Oc8c([H])c([H])c(F)c([H])c8F)c([H])c7[H])c(C(=O)N([H])[H])c6N([H])[H])C5([H])[H])C([H])(C([H])([H])[H])C3([H])[H])C([H])([H])C4(C([H])([H])[H])C([H])([H])[H])c([H])c([H])c2C1([H])[H]

>  <smiles>  (48) 
[H]c1c([H])c([H])c2c(c1[H])C([H])([H])C([H])([H])C([H])([H])C2([H])N([H])C(=O)C1([H])N(C(=O)C([H])(N([H])C(=O)C([H])(N([H])C([H])([H])[H])C([H])([H])[H])C(C([H])([H])[H])(C([H])([H])[H])C([H])([H])[H])C([H])([H])c2c([H])c(OC([H])([H])c3c(C([H])([H])[H])nc4c(c3C([H])([H])[H])C([H])([H])C([H])([N+]3([H])C([H])([H])C([H])(N([H])C(=O)N5C([H])([H])C([H])([H])C([H])([H])C([H])(n6nc(-c7c([H])c([H])c(Oc8c([H])c([H])c(F)c([H])c8F)c([H])c7[H])c(C(=O)N([H])[H])c6N([H])[H])C5([H])[H])C([H])(C([H])([H])[H])C3([H])[H])C([H])([H])C4(C([H])([H])[H])C([H])([H])[H])c([H])c([H])c2C1([H])[H]

$$$$
48:0:0
     RDKit          3D

 99109  0  0  1  0  0  0  0  0999 V2000
  -29.3350  -23.0090   20.5810 C   0  0  0  0  0  3  0  0  0  0  0  0
  -28.4930  -21.9010   20.7180 C   0  0  0  0  0  3  0  0  0  0  0  0
  -30.6610  -22.8680   20.1410 C   0  0  0  0  0  0  0  0  0  0  0  0
  -30.3220  -20.3910   20.0890 C   0  0  0  0  0  0  0  0  0  0  0  0
  -31.1510  -21.5500   19.8740 C   0  0  0  0  0  0  0  0  0  0  0  0
  -28.9600  -20.5950   20.4600 C   0  0  0  0  0  0  0  0  0  0  0  0
  -32.5710  -21.3910   19.3320 C   0  0  0  0  0  1  0  0  0  0  0  0
  -32.1310  -14.9050   19.4240 C   0  0  0  0  0  0  0  0  0  0  0  0
  -31.7380  -12.5980   18.6550 C   0  0  0  0  0  2  0  0  0  0  0  0
  -30.6350  -12.5780   17.5760 C   0  0  0  0  0  2  0  0  0  0  0  0
  -29.2380  -12.4830   18.2190 C   0  0  0  0  0  2  0  0  0  0  0  0
  -29.0380  -13.4930   19.3820 C   0  0  0  0  0  3  0  0  0  0  0  0
  -30.2430  -13.5010   20.3480 C   0  0  0  0  0  2  0  0  0  0  0  0
  -31.4590  -13.7270   19.5530 N   0  0  0  0  0  0  0  0  0  0  0  0
  -33.2040  -14.9950   18.8190 O   0  0  0  0  0  0  0  0  0  0  0  0
  -31.5280  -18.2340   21.1170 C   0  0  0  0  0  2  0  0  0  0  0  0
  -29.9880  -17.9640   19.1860 C   0  0  0  0  0  2  0  0  0  0  0  0
  -32.2680  -16.9380   20.6950 C   0  0  0  0  0  2  0  0  0  0  0  0
  -30.8150  -16.7500   18.7130 C   0  0  0  0  0  2  0  0  0  0  0  0
  -30.9180  -18.9590   19.8930 C   0  0  0  0  0  3  0  0  0  0  0  0
  -31.4880  -16.0320   19.8200 N   0  0  0  0  0  0  0  0  0  0  0  0
  -26.9250  -14.1780   20.6680 C   0  0  0  0  0  0  0  0  0  0  0  0
  -25.8520  -13.4570   21.1120 C   0  0  0  0  0  0  0  0  0  0  0  0
  -26.1110  -12.0990   20.7500 C   0  0  0  0  0  0  0  0  0  0  0  0
  -27.7810  -13.2610   20.0810 N   0  0  0  0  0  0  0  0  0  0  0  0
  -27.3070  -11.9940   20.1860 N   0  0  0  0  0  0  0  0  0  0  0  0
  -25.2720  -10.9020   20.8620 C   0  0  0  0  0  0  0  0  0  0  0  0
  -25.5300   -9.9080   21.8300 C   0  0  0  0  0  3  0  0  0  0  0  0
  -24.6970   -8.7740   21.9310 C   0  0  0  0  0  3  0  0  0  0  0  0
  -23.5910   -8.6270   21.0620 C   0  0  0  0  0  0  0  0  0  0  0  0
  -23.3540   -9.6090   20.0810 C   0  0  0  0  0  3  0  0  0  0  0  0
  -24.1860  -10.7350   19.9800 C   0  0  0  0  0  3  0  0  0  0  0  0
  -22.7390   -7.5490   21.0710 O   0  0  0  0  0  0  0  0  0  0  0  0
  -22.2110   -7.0600   22.2390 C   0  0  0  0  0  0  0  0  0  0  0  0
  -21.4230   -7.8610   23.0930 C   0  0  0  0  0  3  0  0  0  0  0  0
  -20.8420   -7.2970   24.2480 C   0  0  0  0  0  3  0  0  0  0  0  0
  -21.0400   -5.9350   24.5450 C   0  0  0  0  0  0  0  0  0  0  0  0
  -21.8180   -5.1360   23.6880 C   0  0  0  0  0  3  0  0  0  0  0  0
  -22.3990   -5.6950   22.5370 C   0  0  0  0  0  0  0  0  0  0  0  0
  -23.1310   -4.9150   21.7040 F   0  0  0  0  0  0  0  0  0  0  0  0
  -20.4760   -5.3890   25.6480 F   0  0  0  0  0  0  0  0  0  0  0  0
  -24.6040  -14.0010   21.7490 C   0  0  0  0  0  0  0  0  0  0  0  0
  -24.0070  -13.2510   22.6670 N   0  0  0  0  0  0  0  0  0  0  0  0
  -24.1800  -15.1200   21.4660 O   0  0  0  0  0  0  0  0  0  0  0  0
  -24.3680  -12.3430   22.9190 H   0  0  0  0  0  0  0  0  0  0  0  0
  -23.1790  -13.5930   23.1340 H   0  0  0  0  0  0  0  0  0  0  0  0
  -27.2400  -15.5340   20.6940 N   0  0  0  0  0  0  0  0  0  0  0  0
  -26.6060  -16.2380   21.0580 H   0  0  0  0  0  0  0  0  0  0  0  0
  -28.0850  -15.9230   20.2950 H   0  0  0  0  0  0  0  0  0  0  0  0
  -32.8890  -24.2190   20.5190 C   0  0  0  0  0  2  0  0  0  0  0  0
  -31.7880  -24.8670   21.3120 C   0  0  0  0  0  2  0  0  0  0  0  0
  -31.4540  -24.1680   20.0060 C   0  0  2  0  0  0  0  0  0  0  0  0
  -31.3400  -24.3660   17.4580 C   0  0  0  0  0  1  0  0  0  0  0  0
  -30.9470  -25.0130   18.8000 C   0  0  0  0  0  3  0  0  0  0  0  0
  -31.3570  -26.5200   18.7610 C   0  0  0  0  0  2  0  0  0  0  0  0
  -30.8300  -27.3430   19.8130 O   0  0  0  0  0  0  0  0  0  0  0  0
  -25.7020  -30.5170   23.5780 C   0  0  0  0  0  0  0  0  0  0  0  0
  -29.4940  -27.7050   19.8330 C   0  0  0  0  0  0  0  0  0  0  0  0
  -24.9440  -29.3090   21.5560 C   0  0  0  0  0  3  0  0  0  0  0  0
  -26.7890  -28.5400   19.9650 C   0  0  0  0  0  0  0  0  0  0  0  0
  -27.3020  -30.2890   21.6780 C   0  0  0  0  0  2  0  0  0  0  0  0
  -27.7520  -29.1690   20.7630 C   0  0  0  0  0  0  0  0  0  0  0  0
  -29.1010  -28.7540   20.7000 C   0  0  0  0  0  3  0  0  0  0  0  0
  -28.5030  -27.0770   19.0430 C   0  0  0  0  0  3  0  0  0  0  0  0
  -27.1590  -27.4910   19.1070 C   0  0  0  0  0  3  0  0  0  0  0  0
  -25.3690  -29.0450   20.0840 C   0  0  0  0  0  2  0  0  0  0  0  0
  -25.9950  -30.0440   22.3340 N   0  0  0  0  0  0  0  0  0  0  0  0
  -24.5700  -30.3890   24.0630 O   0  0  0  0  0  0  0  0  0  0  0  0
  -24.5330  -27.9660   22.1980 C   0  0  0  0  0  0  0  0  0  0  0  0
  -23.3910  -27.4150   21.7520 N   0  0  0  0  0  0  0  0  0  0  0  0
  -25.2440  -27.4290   23.0530 O   0  0  0  0  0  0  0  0  0  0  0  0
  -22.8630  -27.9230   21.0570 H   0  0  0  0  0  0  0  0  0  0  0  0
  -20.6890  -25.0820   21.1840 C   0  0  0  0  0  0  0  0  0  0  0  0
  -22.8300  -26.1350   22.1810 C   0  0  0  0  0  3  0  0  0  0  0  0
  -23.5880  -24.9520   21.5380 C   0  0  0  0  0  2  0  0  0  0  0  0
  -22.9510  -24.4650   20.2320 C   0  0  0  0  0  2  0  0  0  0  0  0
  -21.5060  -24.0170   20.4720 C   0  0  0  0  0  2  0  0  0  0  0  0
  -21.3120  -26.0860   21.9730 C   0  0  0  0  0  0  0  0  0  0  0  0
  -20.5090  -27.0730   22.5840 C   0  0  0  0  0  3  0  0  0  0  0  0
  -19.1110  -27.0680   22.4200 C   0  0  0  0  0  3  0  0  0  0  0  0
  -18.4980  -26.0640   21.6500 C   0  0  0  0  0  3  0  0  0  0  0  0
  -19.2860  -25.0720   21.0400 C   0  0  0  0  0  3  0  0  0  0  0  0
  -26.7670  -31.2590   24.4440 C   0  0  0  0  0  3  0  0  0  0  0  0
  -27.1680  -30.4730   25.7520 C   0  0  1  0  0  0  0  0  0  0  0  0
  -25.9550  -30.0000   26.5880 C   0  0  0  0  0  1  0  0  0  0  0  0
  -28.0160  -29.2270   25.4010 C   0  0  0  0  0  1  0  0  0  0  0  0
  -28.0490  -31.3690   26.6540 C   0  0  0  0  0  1  0  0  0  0  0  0
  -26.2220  -32.5830   24.7800 N   0  0  0  0  0  0  0  0  0  0  0  0
  -26.5410  -33.7190   24.1450 C   0  0  0  0  0  0  0  0  0  0  0  0
  -27.3900  -33.7720   23.2520 O   0  0  0  0  0  0  0  0  0  0  0  0
  -25.4810  -32.6060   25.4650 H   0  0  0  0  0  0  0  0  0  0  0  0
  -24.6690  -35.2980   23.5700 C   0  0  0  0  0  1  0  0  0  0  0  0
  -25.7990  -35.0020   24.5690 C   0  0  0  0  0  3  0  0  0  0  0  0
  -27.6120  -36.0990   25.8090 C   0  0  0  0  0  1  0  0  0  0  0  0
  -26.6830  -36.1820   24.6850 N   0  0  0  0  0  0  0  0  0  0  0  0
  -26.1380  -37.0330   24.7870 H   0  0  0  0  0  0  0  0  0  0  0  0
  -26.6240  -19.6910   20.4540 C   0  0  0  0  0  1  0  0  0  0  0  0
  -28.0680  -19.5160   20.5650 N   0  0  0  0  0  0  0  0  0  0  0  0
  -28.4450  -18.5780   20.4770 H   0  0  0  0  0  0  0  0  0  0  0  0
  1  2  1  0
  3  1  2  0
  4  6  1  0
  5  4  2  0
  5  3  1  0
  6 98  1  0
  6  2  2  0
  7  5  1  0
  8 14  1  0
  8 21  1  0
  9 14  1  0
 10 11  1  0
 10  9  1  0
 12 11  1  0
 12 25  1  0
 12 13  1  0
 14 13  1  0
 15  8  2  0
 17 20  1  0
 18 16  1  0
 19 17  1  0
 19 21  1  0
 20  4  1  0
 20 16  1  0
 21 18  1  0
 22 47  1  0
 22 23  2  0
 23 42  1  0
 24 27  1  0
 24 23  1  0
 25 26  1  0
 25 22  1  0
 26 24  2  0
 27 28  1  0
 28 29  2  0
 30 33  1  0
 30 29  1  0
 31 30  2  0
 32 31  1  0
 32 27  2  0
 33 34  1  0
 34 39  2  0
 34 35  1  0
 35 36  2  0
 36 37  1  0
 37 41  1  0
 38 37  2  0
 39 38  1  0
 40 39  1  0
 42 43  1  0
 43 45  1  0
 43 46  1  0
 44 42  2  0
 47 48  1  0
 49 47  1  0
 50 51  1  0
 52  3  1  0
 52 50  1  0
 52 51  1  0
 54 53  1  0
 52 54  1  6
 55 54  1  0
 55 56  1  0
 56 58  1  0
 57 68  2  0
 58 63  1  0
 59 69  1  0
 59 67  1  0
 60 66  1  0
 60 62  1  0
 61 67  1  0
 62 61  1  0
 63 62  2  0
 64 65  1  0
 64 58  2  0
 65 60  2  0
 66 59  1  0
 67 57  1  0
 69 71  2  0
 70 69  1  0
 72 70  1  0
 73 78  1  0
 74 70  1  0
 75 74  1  0
 76 77  1  0
 76 75  1  0
 77 73  1  0
 78 74  1  0
 78 79  2  0
 80 79  1  0
 81 80  2  0
 82 73  2  0
 82 81  1  0
 83 57  1  0
 83 88  1  0
 83 84  1  0
 84 85  1  1
 84 87  1  0
 86 84  1  0
 88 91  1  0
 89 93  1  0
 89 88  1  0
 90 89  2  0
 93 92  1  0
 93 95  1  0
 95 96  1  0
 95 94  1  0
 97 98  1  0
 99 98  1  0
M  ISO  4   8 100  21 100  55 101  56 101
M  END
>  <TORSDO>  (49) 
F 20

>  <SCORE>  (49) 
-4.886

>  <name>  (49) 
48

>  <ligand_id>  (49) 
48

>  <original_smiles>  (49) 
[H]c1c([H])c([H])c2c(c1[H])C([H])([H])C([H])([H])C([H])([H])C2([H])N([H])C(=O)C1([H])N(C(=O)C([H])(N([H])C(=O)C([H])(N([H])C([H])([H])[H])C([H])([H])[H])C(C([H])([H])[H])(C([H])([H])[H])C([H])([H])[H])C([H])([H])c2c([H])c(OC([H])([H])C([H])(C([H])([H])[H])C3(c4c([H])c([H])c(N([H])C([H])([H])[H])c(C5([H])C([H])([H])C([H])([H])N(C(=O)N6C([H])([H])C([H])([H])C([H])([H])C([H])(n7nc(-c8c([H])c([H])c(Oc9c([H])c([H])c(F)c([H])c9F)c([H])c8[H])c(C(=O)N([H])[H])c7N([H])[H])C6([H])[H])C([H])([H])C5([H])[H])c4C([H])([H])[H])C([H])([H])C3([H])[H])c([H])c([H])c2C1([H])[H]

>  <smiles>  (49) 
[H]c1c([H])c([H])c2c(c1[H])C([H])([H])C([H])([H])C([H])([H])C2([H])N([H])C(=O)C1([H])N(C(=O)C([H])(N([H])C(=O)C([H])(N([H])C([H])([H])[H])C([H])([H])[H])C(C([H])([H])[H])(C([H])([H])[H])C([H])([H])[H])C([H])([H])c2c([H])c(OC([H])([H])C([H])(C([H])([H])[H])C3(c4c([H])c([H])c(N([H])C([H])([H])[H])c(C5([H])C([H])([H])C([H])([H])N(C(=O)N6C([H])([H])C([H])([H])C([H])([H])C([H])(n7nc(-c8c([H])c([H])c(Oc9c([H])c([H])c(F)c([H])c9F)c([H])c8[H])c(C(=O)N([H])[H])c7N([H])[H])C6([H])[H])C([H])([H])C5([H])[H])c4C([H])([H])[H])C([H])([H])C3([H])[H])c([H])c([H])c2C1([H])[H]

$$$$
49:0:0
     RDKit          3D

 91100  0  0  1  0  0  0  0  0999 V2000
  -27.8410  -22.1390   20.3350 C   0  0  0  0  0  3  0  0  0  0  0  0
  -29.5240  -20.2210   20.1610 C   0  0  0  0  0  0  0  0  0  0  0  0
  -28.1950  -20.7290   20.3750 C   0  0  0  0  0  0  0  0  0  0  0  0
  -28.7260  -23.2490   20.1010 C   0  0  0  0  0  0  0  0  0  0  0  0
  -30.4430  -21.3280   19.9480 C   0  0  0  0  0  0  0  0  0  0  0  0
  -30.0690  -22.7590   19.9120 C   0  0  0  0  0  0  0  0  0  0  0  0
  -27.0720  -19.7450   20.6520 C   0  0  0  0  0  1  0  0  0  0  0  0
  -31.9000  -20.9240   19.7450 C   0  0  0  0  0  1  0  0  0  0  0  0
  -31.1390  -23.8060   19.6330 C   0  0  0  0  0  1  0  0  0  0  0  0
  -30.8660  -15.1190   19.9050 C   0  0  0  0  0  0  0  0  0  0  0  0
  -30.6280  -12.7850   18.9400 C   0  0  0  0  0  2  0  0  0  0  0  0
  -29.6230  -12.7370   17.7680 C   0  0  0  0  0  2  0  0  0  0  0  0
  -28.1950  -12.5180   18.3010 C   0  0  0  0  0  2  0  0  0  0  0  0
  -27.8630  -13.4370   19.5050 C   0  0  0  0  0  3  0  0  0  0  0  0
  -28.9910  -13.4750   20.5570 C   0  0  0  0  0  2  0  0  0  0  0  0
  -30.2070  -13.8910   19.8510 N   0  0  0  0  0  0  0  0  0  0  0  0
  -32.0530  -15.1040   19.5580 O   0  0  0  0  0  0  0  0  0  0  0  0
  -29.2700  -17.2410   20.6970 C   0  0  0  0  0  2  0  0  0  0  0  0
  -30.5810  -17.6560   19.1350 C   0  0  0  0  0  2  0  0  0  0  0  0
  -29.9820  -18.6050   20.2470 C   0  0  0  0  0  3  0  0  0  0  0  0
  -30.1890  -16.3830   19.8540 N   0  0  0  0  0  0  0  0  0  0  0  0
  -25.5600  -13.9930   20.4630 C   0  0  0  0  0  0  0  0  0  0  0  0
  -24.5170  -13.2090   20.8700 C   0  0  0  0  0  0  0  0  0  0  0  0
  -24.9600  -11.8580   20.7320 C   0  0  0  0  0  0  0  0  0  0  0  0
  -26.5680  -13.1200   20.0950 N   0  0  0  0  0  0  0  0  0  0  0  0
  -26.2230  -11.8260   20.3230 N   0  0  0  0  0  0  0  0  0  0  0  0
  -24.2310  -10.5940   20.9080 C   0  0  0  0  0  0  0  0  0  0  0  0
  -24.6210   -9.6430   21.8770 C   0  0  0  0  0  3  0  0  0  0  0  0
  -23.8910   -8.4470   22.0410 C   0  0  0  0  0  3  0  0  0  0  0  0
  -22.7560   -8.1910   21.2350 C   0  0  0  0  0  0  0  0  0  0  0  0
  -22.3850   -9.1300   20.2570 C   0  0  0  0  0  3  0  0  0  0  0  0
  -23.1160  -10.3180   20.0910 C   0  0  0  0  0  3  0  0  0  0  0  0
  -22.0000   -7.0450   21.3070 O   0  0  0  0  0  0  0  0  0  0  0  0
  -21.7550   -6.4190   22.5030 C   0  0  0  0  0  0  0  0  0  0  0  0
  -21.0870   -7.0710   23.5620 C   0  0  0  0  0  3  0  0  0  0  0  0
  -20.7930   -6.3680   24.7480 C   0  0  0  0  0  3  0  0  0  0  0  0
  -21.1570   -5.0150   24.8730 C   0  0  0  0  0  0  0  0  0  0  0  0
  -21.8170   -4.3620   23.8170 C   0  0  0  0  0  3  0  0  0  0  0  0
  -22.1120   -5.0620   22.6340 C   0  0  0  0  0  0  0  0  0  0  0  0
  -22.7300   -4.4220   21.6120 F   0  0  0  0  0  0  0  0  0  0  0  0
  -20.8680   -4.3370   26.0080 F   0  0  0  0  0  0  0  0  0  0  0  0
  -23.1510  -13.6860   21.2700 C   0  0  0  0  0  0  0  0  0  0  0  0
  -22.4840  -12.9580   22.1570 N   0  0  0  0  0  0  0  0  0  0  0  0
  -22.6890  -14.7370   20.8310 O   0  0  0  0  0  0  0  0  0  0  0  0
  -22.8730  -12.1050   22.5330 H   0  0  0  0  0  0  0  0  0  0  0  0
  -21.5700  -13.2570   22.4670 H   0  0  0  0  0  0  0  0  0  0  0  0
  -25.7300  -15.3700   20.3450 N   0  0  0  0  0  0  0  0  0  0  0  0
  -24.9800  -16.0240   20.5410 H   0  0  0  0  0  0  0  0  0  0  0  0
  -26.5520  -15.8100   19.9540 H   0  0  0  0  0  0  0  0  0  0  0  0
  -28.0860  -24.7620   19.7970 C   0  0  0  0  0  2  0  0  0  0  0  0
  -28.4210  -26.2120   20.2830 O   0  0  0  0  0  0  0  0  0  0  0  0
  -24.6590  -31.8310   23.2780 C   0  0  0  0  0  0  0  0  0  0  0  0
  -27.3980  -27.2400   20.1800 C   0  0  0  0  0  0  0  0  0  0  0  0
  -23.5380  -30.4750   21.5570 C   0  0  0  0  0  3  0  0  0  0  0  0
  -25.0570  -28.9810   20.1220 C   0  0  0  0  0  0  0  0  0  0  0  0
  -26.0940  -30.7760   21.4900 C   0  0  0  0  0  2  0  0  0  0  0  0
  -26.2110  -29.4080   20.7930 C   0  0  0  0  0  0  0  0  0  0  0  0
  -27.3810  -28.5540   20.8110 C   0  0  0  0  0  3  0  0  0  0  0  0
  -26.2240  -26.9440   19.4460 C   0  0  0  0  0  3  0  0  0  0  0  0
  -25.0800  -27.7650   19.4310 C   0  0  0  0  0  3  0  0  0  0  0  0
  -23.8150  -29.8560   20.1620 C   0  0  0  0  0  2  0  0  0  0  0  0
  -24.7820  -31.0480   22.1640 N   0  0  0  0  0  0  0  0  0  0  0  0
  -23.5500  -32.0820   23.7780 O   0  0  0  0  0  0  0  0  0  0  0  0
  -22.8450  -29.4220   22.4590 C   0  0  0  0  0  0  0  0  0  0  0  0
  -21.5240  -29.2360   22.2830 N   0  0  0  0  0  0  0  0  0  0  0  0
  -23.4980  -28.7780   23.2830 O   0  0  0  0  0  0  0  0  0  0  0  0
  -21.0530  -29.8070   21.5970 H   0  0  0  0  0  0  0  0  0  0  0  0
  -18.1380  -28.0040   22.6720 C   0  0  0  0  0  0  0  0  0  0  0  0
  -20.6920  -28.2630   22.9960 C   0  0  0  0  0  3  0  0  0  0  0  0
  -20.8080  -26.8580   22.3590 C   0  0  0  0  0  2  0  0  0  0  0  0
  -19.7250  -26.5780   21.3110 C   0  0  0  0  0  2  0  0  0  0  0  0
  -18.3310  -26.6890   21.9370 C   0  0  0  0  0  2  0  0  0  0  0  0
  -19.2460  -28.7520   23.1550 C   0  0  0  0  0  0  0  0  0  0  0  0
  -19.0090  -29.9830   23.8040 C   0  0  0  0  0  3  0  0  0  0  0  0
  -17.6990  -30.4690   23.9730 C   0  0  0  0  0  3  0  0  0  0  0  0
  -16.6060  -29.7190   23.5040 C   0  0  0  0  0  3  0  0  0  0  0  0
  -16.8260  -28.4890   22.8600 C   0  0  0  0  0  3  0  0  0  0  0  0
  -25.9040  -32.4670   23.9680 C   0  0  0  0  0  3  0  0  0  0  0  0
  -25.5820  -33.8730   24.2650 N   0  0  0  0  0  0  0  0  0  0  0  0
  -25.9330  -34.9150   23.5010 C   0  0  0  0  0  0  0  0  0  0  0  0
  -26.6280  -34.7960   22.4880 O   0  0  0  0  0  0  0  0  0  0  0  0
  -24.9680  -34.0380   25.0490 H   0  0  0  0  0  0  0  0  0  0  0  0
  -24.1990  -36.6950   23.0990 C   0  0  0  0  0  1  0  0  0  0  0  0
  -25.4370  -36.3110   23.9260 C   0  0  0  0  0  3  0  0  0  0  0  0
  -27.5540  -37.2340   24.7630 C   0  0  0  0  0  1  0  0  0  0  0  0
  -26.4660  -37.3670   23.7980 N   0  0  0  0  0  0  0  0  0  0  0  0
  -26.0520  -38.2880   23.9130 H   0  0  0  0  0  0  0  0  0  0  0  0
  -26.3340  -31.7120   25.2860 C   0  0  1  0  0  0  0  0  0  0  0  0
  -25.1730  -31.4890   26.2830 C   0  0  0  0  0  1  0  0  0  0  0  0
  -26.9370  -30.3280   24.9530 C   0  0  0  0  0  1  0  0  0  0  0  0
  -27.4420  -32.5120   26.0090 C   0  0  0  0  0  1  0  0  0  0  0  0
  1  3  1  0
  2  3  2  0
  3  7  1  0
  4  1  2  0
  5  2  1  0
  6  5  2  0
  6  4  1  0
  8  5  1  0
  9  6  1  0
 11 16  1  0
 12 13  1  0
 12 11  1  0
 14 13  1  0
 14 25  1  0
 14 15  1  0
 16 10  1  0
 16 15  1  0
 17 10  2  0
 19 21  1  0
 19 20  1  0
 20  2  1  0
 20 18  1  0
 21 10  1  0
 21 18  1  0
 22 23  2  0
 23 42  1  0
 24 23  1  0
 24 27  1  0
 25 26  1  0
 25 22  1  0
 26 24  2  0
 27 28  1  0
 28 29  2  0
 30 33  1  0
 30 29  1  0
 31 30  2  0
 32 31  1  0
 32 27  2  0
 33 34  1  0
 34 39  2  0
 34 35  1  0
 35 36  2  0
 36 37  1  0
 37 41  1  0
 38 37  2  0
 39 38  1  0
 40 39  1  0
 42 43  1  0
 43 46  1  0
 43 45  1  0
 44 42  2  0
 47 22  1  0
 47 48  1  0
 49 47  1  0
 50  4  1  0
 50 51  1  0
 52 63  2  0
 53 51  1  0
 53 58  1  0
 54 62  1  0
 54 64  1  0
 55 61  1  0
 55 57  1  0
 56 62  1  0
 57 58  2  0
 57 56  1  0
 59 53  2  0
 60 59  1  0
 60 55  2  0
 61 54  1  0
 62 52  1  0
 64 66  2  0
 65 64  1  0
 67 65  1  0
 68 77  2  0
 68 73  1  0
 69 65  1  0
 69 73  1  0
 70 69  1  0
 71 72  1  0
 71 70  1  0
 72 68  1  0
 73 74  2  0
 74 75  1  0
 76 75  2  0
 77 76  1  0
 78 52  1  0
 78 79  1  0
 78 88  1  0
 79 82  1  0
 80 84  1  0
 80 79  1  0
 81 80  2  0
 84 83  1  0
 86 87  1  0
 86 84  1  0
 86 85  1  0
 88 91  1  1
 88 89  1  0
 90 88  1  0
M  ISO  4  10 100  21 100  50 101  51 101
M  END
>  <TORSDO>  (50) 
F 17

>  <SCORE>  (50) 
-13.480

>  <name>  (50) 
49

>  <ligand_id>  (50) 
49

>  <original_smiles>  (50) 
[H]c1c([H])c([H])c2c(c1[H])C([H])([H])C([H])([H])C([H])([H])C2([H])N([H])C(=O)C1([H])N(C(=O)C([H])(N([H])C(=O)C([H])(N([H])C([H])([H])[H])C([H])([H])[H])C(C([H])([H])[H])(C([H])([H])[H])C([H])([H])[H])C([H])([H])c2c([H])c(OC([H])([H])c3c([H])c(C([H])([H])[H])c(C4([H])C([H])([H])N(C(=O)N5C([H])([H])C([H])([H])C([H])([H])C([H])(n6nc(-c7c([H])c([H])c(Oc8c([H])c([H])c(F)c([H])c8F)c([H])c7[H])c(C(=O)N([H])[H])c6N([H])[H])C5([H])[H])C4([H])[H])c(C([H])([H])[H])c3C([H])([H])[H])c([H])c([H])c2C1([H])[H]

>  <smiles>  (50) 
[H]c1c([H])c([H])c2c(c1[H])C([H])([H])C([H])([H])C([H])([H])C2([H])N([H])C(=O)C1([H])N(C(=O)C([H])(N([H])C(=O)C([H])(N([H])C([H])([H])[H])C([H])([H])[H])C(C([H])([H])[H])(C([H])([H])[H])C([H])([H])[H])C([H])([H])c2c([H])c(OC([H])([H])c3c([H])c(C([H])([H])[H])c(C4([H])C([H])([H])N(C(=O)N5C([H])([H])C([H])([H])C([H])([H])C([H])(n6nc(-c7c([H])c([H])c(Oc8c([H])c([H])c(F)c([H])c8F)c([H])c7[H])c(C(=O)N([H])[H])c6N([H])[H])C5([H])[H])C4([H])[H])c(C([H])([H])[H])c3C([H])([H])[H])c([H])c([H])c2C1([H])[H]

$$$$
50:0:0
     RDKit          3D

102109  0  0  1  0  0  0  0  0999 V2000
  -21.4500  -21.9990   18.7240 C   0  0  0  0  0  3  0  0  0  0  0  0
  -22.6920  -21.2910   18.6570 C   0  0  0  0  0  3  0  0  0  0  0  0
  -22.8280  -22.1700   16.4820 C   0  0  0  0  0  3  0  0  0  0  0  0
  -21.3880  -22.9940   16.4220 C   0  0  0  0  0  3  0  0  0  0  0  0
  -20.8320  -22.8040   17.7150 C   0  0  0  0  0  0  0  0  0  0  0  0
  -23.6030  -21.2520   17.5680 C   0  0  0  0  0  0  0  0  0  0  0  0
  -19.5270  -23.4900   18.0860 C   0  0  0  0  0  1  0  0  0  0  0  0
  -21.5670  -25.1950   12.5850 C   0  0  0  0  0  1  0  0  0  0  0  0
  -22.8470  -26.3800   13.2870 C   0  0  0  0  0  2  0  0  0  0  0  0
  -21.9630  -26.3760   16.1970 C   0  0  0  0  0  2  0  0  0  0  0  0
  -20.3810  -24.1390   15.1470 C   0  0  0  0  0  1  0  0  0  0  0  0
  -20.7080  -25.2750   16.3780 C   0  0  0  0  0  3  0  0  0  0  0  0
  -19.4240  -25.8090   17.0950 C   0  0  0  0  0  1  0  0  0  0  0  0
  -23.0020  -26.7060   14.9870 N   0  0  1  0  0  4  0  0  0  0  0  0
  -22.9590  -27.7180   14.9680 H   0  0  0  0  0  0  0  0  0  0  0  0
  -24.3770  -26.4670   15.7150 C   0  0  0  0  0  3  0  0  0  0  0  0
  -24.5350  -26.6940   17.3780 C   0  0  0  0  0  3  0  0  0  0  0  0
  -25.7900  -26.8950   18.2210 O   0  0  0  0  0  0  0  0  0  0  0  0
  -25.4550  -30.3750   24.0590 C   0  0  0  0  0  0  0  0  0  0  0  0
  -25.8350  -28.2030   18.4770 C   0  0  0  0  0  0  0  0  0  0  0  0
  -23.6790  -30.5230   22.3950 C   0  0  0  0  0  3  0  0  0  0  0  0
  -24.3680  -30.0160   19.9470 C   0  0  0  0  0  0  0  0  0  0  0  0
  -26.1280  -30.2590   21.6730 C   0  0  0  0  0  2  0  0  0  0  0  0
  -25.6260  -29.6180   20.4020 C   0  0  0  0  0  0  0  0  0  0  0  0
  -26.3790  -28.6690   19.6860 C   0  0  0  0  0  3  0  0  0  0  0  0
  -24.7690  -28.8480   17.8600 C   0  0  0  0  0  3  0  0  0  0  0  0
  -23.9600  -29.6860   18.6450 C   0  0  0  0  0  3  0  0  0  0  0  0
  -23.6150  -30.9380   20.8780 C   0  0  0  0  0  2  0  0  0  0  0  0
  -25.1140  -30.3980   22.7500 N   0  0  0  0  0  0  0  0  0  0  0  0
  -24.6040  -30.4990   24.9520 O   0  0  0  0  0  0  0  0  0  0  0  0
  -22.9910  -29.1990   22.8550 C   0  0  0  0  0  0  0  0  0  0  0  0
  -21.6800  -29.1050   22.9860 N   0  0  0  0  0  0  0  0  0  0  0  0
  -23.6580  -28.1920   23.0220 O   0  0  0  0  0  0  0  0  0  0  0  0
  -21.1440  -29.9620   23.0160 H   0  0  0  0  0  0  0  0  0  0  0  0
  -18.1180  -28.4280   22.3670 C   0  0  0  0  0  0  0  0  0  0  0  0
  -20.8740  -27.8290   22.8300 C   0  0  0  0  0  2  0  0  0  0  0  0
  -20.8930  -26.3540   20.4790 C   0  0  0  0  0  1  0  0  0  0  0  0
  -19.0880  -26.4680   20.1090 C   0  0  0  0  0  3  0  0  0  0  0  0
  -17.9430  -27.3720   21.1090 C   0  0  0  0  0  3  0  0  0  0  0  0
  -19.3350  -28.5890   23.2000 C   0  0  0  0  0  0  0  0  0  0  0  0
  -19.2220  -29.6700   24.1810 C   0  0  0  0  0  3  0  0  0  0  0  0
  -18.0800  -30.5070   24.3820 C   0  0  0  0  0  3  0  0  0  0  0  0
  -16.9400  -30.3180   23.5920 C   0  0  0  0  0  3  0  0  0  0  0  0
  -16.9810  -29.2980   22.6110 C   0  0  0  0  0  3  0  0  0  0  0  0
  -26.9360  -30.2190   24.4770 C   0  0  0  0  0  3  0  0  0  0  0  0
  -27.2100  -28.9120   25.3120 C   0  0  1  0  0  0  0  0  0  0  0  0
  -26.2550  -28.7260   26.5130 C   0  0  0  0  0  1  0  0  0  0  0  0
  -27.1010  -27.6420   24.4350 C   0  0  0  0  0  1  0  0  0  0  0  0
  -28.6590  -28.9540   25.8440 C   0  0  0  0  0  1  0  0  0  0  0  0
  -27.2620  -31.4250   25.2380 N   0  0  0  0  0  0  0  0  0  0  0  0
  -28.1000  -32.3740   24.8070 C   0  0  0  0  0  0  0  0  0  0  0  0
  -28.7570  -32.2700   23.7670 O   0  0  0  0  0  0  0  0  0  0  0  0
  -26.7200  -31.5990   26.0730 H   0  0  0  0  0  0  0  0  0  0  0  0
  -27.6700  -34.8480   24.9250 C   0  0  0  0  0  1  0  0  0  0  0  0
  -28.2360  -33.6340   25.6790 C   0  0  0  0  0  3  0  0  0  0  0  0
  -30.1440  -32.9210   27.0480 C   0  0  0  0  0  1  0  0  0  0  0  0
  -29.6270  -33.9040   26.0970 N   0  0  0  0  0  0  0  0  0  0  0  0
  -29.7030  -34.8250   26.5200 H   0  0  0  0  0  0  0  0  0  0  0  0
  -24.8870  -20.2890   17.9910 N   0  0  0  0  0  0  0  0  0  0  0  0
  -24.4030  -19.5160   18.4400 H   0  0  0  0  0  0  0  0  0  0  0  0
  -30.8130  -16.3870   19.9490 C   0  0  0  0  0  0  0  0  0  0  0  0
  -31.9400  -13.9720   20.3910 C   0  0  0  0  0  2  0  0  0  0  0  0
  -31.4960  -12.8910   19.3540 C   0  0  0  0  0  2  0  0  0  0  0  0
  -30.0430  -12.4440   19.6030 C   0  0  0  0  0  2  0  0  0  0  0  0
  -29.1700  -13.6620   19.9830 C   0  0  0  0  0  3  0  0  0  0  0  0
  -29.7550  -14.4590   21.1400 C   0  0  0  0  0  2  0  0  0  0  0  0
  -30.8790  -15.0760   20.5180 N   0  0  0  0  0  0  0  0  0  0  0  0
  -32.0210  -16.7080   19.7280 O   0  0  0  0  0  0  0  0  0  0  0  0
  -27.2690  -18.3190   17.7510 C   0  0  0  0  0  2  0  0  0  0  0  0
  -27.2090  -19.2210   19.7390 C   0  0  0  0  0  2  0  0  0  0  0  0
  -28.8320  -17.5800   18.1450 C   0  0  0  0  0  2  0  0  0  0  0  0
  -28.7840  -18.5040   20.1060 C   0  0  0  0  0  2  0  0  0  0  0  0
  -26.5480  -19.7760   18.2670 C   0  0  0  0  0  3  0  0  0  0  0  0
  -29.4810  -17.1730   19.5540 N   0  0  0  0  0  0  0  0  0  0  0  0
  -26.7500  -14.2320   20.3230 C   0  0  0  0  0  0  0  0  0  0  0  0
  -25.6770  -13.4680   20.6620 C   0  0  0  0  0  0  0  0  0  0  0  0
  -26.1830  -12.1500   20.8710 C   0  0  0  0  0  0  0  0  0  0  0  0
  -27.8150  -13.3600   20.3020 N   0  0  0  0  0  0  0  0  0  0  0  0
  -27.4950  -12.1170   20.7130 N   0  0  0  0  0  0  0  0  0  0  0  0
  -25.4880  -10.8970   21.1390 C   0  0  0  0  0  0  0  0  0  0  0  0
  -25.3740  -10.3830   22.4480 C   0  0  0  0  0  3  0  0  0  0  0  0
  -24.6820   -9.1760   22.6760 C   0  0  0  0  0  3  0  0  0  0  0  0
  -24.0980   -8.4810   21.5900 C   0  0  0  0  0  0  0  0  0  0  0  0
  -24.2410   -8.9870   20.2870 C   0  0  0  0  0  3  0  0  0  0  0  0
  -24.9350  -10.1840   20.0600 C   0  0  0  0  0  3  0  0  0  0  0  0
  -23.4260   -7.2900   21.7100 O   0  0  0  0  0  0  0  0  0  0  0  0
  -22.4220   -7.1260   22.6280 C   0  0  0  0  0  0  0  0  0  0  0  0
  -21.2340   -7.8890   22.5810 C   0  0  0  0  0  3  0  0  0  0  0  0
  -20.1990   -7.6350   23.5020 C   0  0  0  0  0  3  0  0  0  0  0  0
  -20.3440   -6.6160   24.4630 C   0  0  0  0  0  0  0  0  0  0  0  0
  -21.5250   -5.8530   24.5080 C   0  0  0  0  0  3  0  0  0  0  0  0
  -22.5590   -6.1060   23.5900 C   0  0  0  0  0  0  0  0  0  0  0  0
  -23.6860   -5.3550   23.6240 F   0  0  0  0  0  0  0  0  0  0  0  0
  -19.3470   -6.3650   25.3420 F   0  0  0  0  0  0  0  0  0  0  0  0
  -24.2520  -13.9230   20.6950 C   0  0  0  0  0  0  0  0  0  0  0  0
  -23.4440  -13.3270   21.5620 N   0  0  0  0  0  0  0  0  0  0  0  0
  -23.8620  -14.8460   19.9800 O   0  0  0  0  0  0  0  0  0  0  0  0
  -23.7750  -12.5810   22.1550 H   0  0  0  0  0  0  0  0  0  0  0  0
  -22.4780  -13.6190   21.6320 H   0  0  0  0  0  0  0  0  0  0  0  0
  -26.9020  -15.5780   20.0150 N   0  0  0  0  0  0  0  0  0  0  0  0
  -26.1110  -16.2110   20.0060 H   0  0  0  0  0  0  0  0  0  0  0  0
  -27.7880  -16.0470   19.8780 H   0  0  0  0  0  0  0  0  0  0  0  0
  2  1  1  0
  3  6  1  0
  4  3  2  0
  4  5  1  0
  5  7  1  0
  5  1  2  0
  6 59  1  0
  6  2  2  0
  8  9  1  0
  9 14  1  0
 10 12  1  0
 11 12  1  0
 12 13  1  0
 14 16  1  0
 14 10  1  0
 14 15  1  6
 16 17  2  0
 17 18  1  0
 18 20  1  0
 19 30  2  0
 20 25  1  0
 21 29  1  0
 21 31  1  0
 22 24  1  0
 22 28  1  0
 23 29  1  0
 24 23  1  0
 25 24  2  0
 26 20  2  0
 26 27  1  0
 27 22  2  0
 28 21  1  0
 29 19  1  0
 31 32  1  0
 31 33  2  0
 32 34  1  0
 35 44  2  0
 35 40  1  0
 36 32  1  0
 36 40  1  0
 38 37  1  0
 38 39  2  0
 39 35  1  0
 40 41  2  0
 41 42  1  0
 43 42  2  0
 44 43  1  0
 45 19  1  0
 45 50  1  0
 45 46  1  0
 46 49  1  1
 46 47  1  0
 48 46  1  0
 50 53  1  0
 51 50  1  0
 51 55  1  0
 52 51  2  0
 55 54  1  0
 55 57  1  0
 57 58  1  0
 57 56  1  0
 59 60  1  0
 61 67  1  0
 62 67  1  0
 63 64  1  0
 63 62  1  0
 65 64  1  0
 65 78  1  0
 65 66  1  0
 67 66  1  0
 68 61  2  0
 69 71  1  0
 69 73  1  0
 70 72  1  0
 71 74  1  0
 73 59  1  0
 73 70  1  0
 74 61  1  0
 74 72  1  0
 75 76  2  0
 76 95  1  0
 76 77  1  0
 77 80  1  0
 78 75  1  0
 78 79  1  0
 79 77  2  0
 80 81  1  0
 81 82  2  0
 83 86  1  0
 83 82  1  0
 84 83  2  0
 85 84  1  0
 85 80  2  0
 86 87  1  0
 87 92  1  0
 88 87  2  0
 88 89  1  0
 89 90  2  0
 90 91  1  0
 90 94  1  0
 92 93  1  0
 92 91  2  0
 95 96  1  0
 96 99  1  0
 96 98  1  0
 97 95  2  0
100 75  1  0
101100  1  0
102100  1  0
M  ISO  4  17 101  18 101  61 100  74 100
M  END
>  <TORSDO>  (51) 
F 20

>  <SCORE>  (51) 
-2.151

>  <name>  (51) 
50

>  <ligand_id>  (51) 
50

>  <original_smiles>  (51) 
[H]c1c([H])c([H])c2c(c1[H])C([H])([H])C([H])([H])C([H])([H])C2([H])N([H])C(=O)C1([H])N(C(=O)C([H])(N([H])C(=O)C([H])(N([H])C([H])([H])[H])C([H])([H])[H])C(C([H])([H])[H])(C([H])([H])[H])C([H])([H])[H])C([H])([H])c2c([H])c(OC([H])([H])C([H])([H])[N+]3([H])C([H])([H])C([H])([H])C([H])(c4c([H])c(N([H])C5([H])C([H])([H])C([H])([H])N(C(=O)N6C([H])([H])C([H])([H])C([H])([H])C([H])(n7nc(-c8c([H])c([H])c(Oc9c([H])c([H])c(F)c([H])c9F)c([H])c8[H])c(C(=O)N([H])[H])c7N([H])[H])C6([H])[H])C([H])([H])C5([H])[H])c([H])c([H])c4C([H])([H])[H])C([H])(C([H])([H])[H])C3([H])[H])c([H])c([H])c2C1([H])[H]

>  <smiles>  (51) 
[H]c1c([H])c([H])c2c(c1[H])C([H])([H])C([H])([H])C([H])([H])C2([H])N([H])C(=O)C1([H])N(C(=O)C([H])(N([H])C(=O)C([H])(N([H])C([H])([H])[H])C([H])([H])[H])C(C([H])([H])[H])(C([H])([H])[H])C([H])([H])[H])C([H])([H])c2c([H])c(OC([H])([H])C([H])([H])[N+]3([H])C([H])([H])C([H])([H])C([H])(c4c([H])c(N([H])C5([H])C([H])([H])C([H])([H])N(C(=O)N6C([H])([H])C([H])([H])C([H])([H])C([H])(n7nc(-c8c([H])c([H])c(Oc9c([H])c([H])c(F)c([H])c9F)c([H])c8[H])c(C(=O)N([H])[H])c7N([H])[H])C6([H])[H])C([H])([H])C5([H])[H])c([H])c([H])c4C([H])([H])[H])C([H])(C([H])([H])[H])C3([H])[H])c([H])c([H])c2C1([H])[H]

$$$$
51:0:0
     RDKit          3D

 96106  0  0  1  0  0  0  0  0999 V2000
  -29.1630  -22.9760   19.3530 C   0  0  0  0  0  0  0  0  0  0  0  0
  -28.0660  -22.4000   19.9990 C   0  0  0  0  0  0  0  0  0  0  0  0
  -30.2570  -22.0530   19.0670 C   0  0  0  0  0  0  0  0  0  0  0  0
  -28.0650  -21.0630   20.4370 C   0  0  0  0  0  0  0  0  0  0  0  0
  -30.1440  -20.6440   19.4490 C   0  0  0  0  0  0  0  0  0  0  0  0
  -26.8660  -23.2970   19.9720 C   0  0  0  0  0  2  0  0  0  0  0  0
  -27.2100  -24.2880   18.8520 C   0  0  0  0  0  2  0  0  0  0  0  0
  -28.7610  -24.4430   18.8160 C   0  0  2  0  0  0  0  0  0  0  0  0
  -26.8770  -20.4490   21.1480 C   0  0  0  0  0  1  0  0  0  0  0  0
  -29.2750  -24.6630   17.3820 C   0  0  0  0  0  1  0  0  0  0  0  0
  -29.0760  -20.2190   20.1600 N   0  0  0  0  0  0  0  0  0  0  0  0
  -32.8570  -22.2050   18.8410 C   0  0  0  0  0  2  0  0  0  0  0  0
  -32.3460  -23.6230   18.8630 C   0  0  0  0  0  2  0  0  0  0  0  0
  -31.4720  -22.5140   18.3190 C   0  0  0  0  0  3  0  0  0  0  0  0
  -30.9730  -19.4100   18.8670 C   0  0  0  0  0  2  0  0  0  0  0  0
  -31.7950  -18.3960   19.8240 C   0  0  0  0  0  2  0  0  0  0  0  0
  -32.3220  -15.7820   19.6630 C   0  0  0  0  0  0  0  0  0  0  0  0
  -32.1400  -13.3790   18.9950 C   0  0  0  0  0  2  0  0  0  0  0  0
  -31.1630  -13.2570   17.8030 C   0  0  0  0  0  2  0  0  0  0  0  0
  -29.7060  -13.1490   18.2950 C   0  0  0  0  0  2  0  0  0  0  0  0
  -29.3580  -14.2140   19.3680 C   0  0  0  0  0  3  0  0  0  0  0  0
  -30.4440  -14.2840   20.4640 C   0  0  0  0  0  2  0  0  0  0  0  0
  -31.7210  -14.5530   19.7900 N   0  0  0  0  0  0  0  0  0  0  0  0
  -33.4950  -15.8740   19.2910 O   0  0  0  0  0  0  0  0  0  0  0  0
  -31.5110  -16.8940   19.7860 N   0  0  0  0  0  0  0  0  0  0  0  0
  -30.5580  -16.6540   20.0190 H   0  0  0  0  0  0  0  0  0  0  0  0
  -27.0840  -14.9530   20.3040 C   0  0  0  0  0  0  0  0  0  0  0  0
  -25.9790  -14.2460   20.6930 C   0  0  0  0  0  0  0  0  0  0  0  0
  -26.3160  -12.8670   20.5320 C   0  0  0  0  0  0  0  0  0  0  0  0
  -28.0270  -14.0080   19.9310 N   0  0  0  0  0  0  0  0  0  0  0  0
  -27.5750  -12.7430   20.1290 N   0  0  0  0  0  0  0  0  0  0  0  0
  -25.4930  -11.6600   20.6810 C   0  0  0  0  0  0  0  0  0  0  0  0
  -25.7860  -10.6820   21.6560 C   0  0  0  0  0  3  0  0  0  0  0  0
  -24.9670   -9.5390   21.7910 C   0  0  0  0  0  3  0  0  0  0  0  0
  -23.8410   -9.3680   20.9520 C   0  0  0  0  0  0  0  0  0  0  0  0
  -23.5680  -10.3350   19.9670 C   0  0  0  0  0  3  0  0  0  0  0  0
  -24.3860  -11.4680   19.8290 C   0  0  0  0  0  3  0  0  0  0  0  0
  -23.0060   -8.2790   20.9940 O   0  0  0  0  0  0  0  0  0  0  0  0
  -22.6290   -7.7070   22.1830 C   0  0  0  0  0  0  0  0  0  0  0  0
  -21.9050   -8.4250   23.1600 C   0  0  0  0  0  3  0  0  0  0  0  0
  -21.4790   -7.7780   24.3370 C   0  0  0  0  0  3  0  0  0  0  0  0
  -21.7660   -6.4150   24.5350 C   0  0  0  0  0  0  0  0  0  0  0  0
  -22.4810   -5.6970   23.5610 C   0  0  0  0  0  3  0  0  0  0  0  0
  -22.9090   -6.3410   22.3880 C   0  0  0  0  0  0  0  0  0  0  0  0
  -23.5800   -5.6380   21.4420 F   0  0  0  0  0  0  0  0  0  0  0  0
  -21.3490   -5.7910   25.6620 F   0  0  0  0  0  0  0  0  0  0  0  0
  -24.6510  -14.8180   21.0960 C   0  0  0  0  0  0  0  0  0  0  0  0
  -23.9300  -14.1330   21.9760 N   0  0  0  0  0  0  0  0  0  0  0  0
  -24.2670  -15.9060   20.6670 O   0  0  0  0  0  0  0  0  0  0  0  0
  -24.2560  -13.2500   22.3430 H   0  0  0  0  0  0  0  0  0  0  0  0
  -23.0410  -14.4950   22.2890 H   0  0  0  0  0  0  0  0  0  0  0  0
  -27.3570  -16.3150   20.2120 N   0  0  0  0  0  0  0  0  0  0  0  0
  -26.6550  -17.0150   20.4200 H   0  0  0  0  0  0  0  0  0  0  0  0
  -28.2050  -16.7100   19.8290 H   0  0  0  0  0  0  0  0  0  0  0  0
  -29.0540  -25.7770   19.6940 C   0  0  0  0  0  2  0  0  0  0  0  0
  -28.7930  -27.2030   19.2680 O   0  0  0  0  0  0  0  0  0  0  0  0
  -24.5670  -31.7100   23.1170 C   0  0  0  0  0  0  0  0  0  0  0  0
  -27.5780  -27.8920   19.4450 C   0  0  0  0  0  0  0  0  0  0  0  0
  -23.4830  -30.4170   21.3170 C   0  0  0  0  0  3  0  0  0  0  0  0
  -25.0550  -29.2420   19.6770 C   0  0  0  0  0  0  0  0  0  0  0  0
  -25.9680  -31.0340   21.1500 C   0  0  0  0  0  2  0  0  0  0  0  0
  -26.1810  -29.7650   20.3260 C   0  0  0  0  0  0  0  0  0  0  0  0
  -27.4430  -29.1030   20.2030 C   0  0  0  0  0  3  0  0  0  0  0  0
  -26.4310  -27.4570   18.7510 C   0  0  0  0  0  3  0  0  0  0  0  0
  -25.1820  -28.0940   18.8810 C   0  0  0  0  0  3  0  0  0  0  0  0
  -23.7320  -29.9620   19.8560 C   0  0  0  0  0  2  0  0  0  0  0  0
  -24.6910  -31.0660   21.9180 N   0  0  0  0  0  0  0  0  0  0  0  0
  -23.4750  -31.7860   23.6980 O   0  0  0  0  0  0  0  0  0  0  0  0
  -22.9630  -29.2100   22.1360 C   0  0  0  0  0  0  0  0  0  0  0  0
  -21.6680  -28.8860   21.9820 N   0  0  0  0  0  0  0  0  0  0  0  0
  -23.7240  -28.5750   22.8700 O   0  0  0  0  0  0  0  0  0  0  0  0
  -21.1060  -29.4600   21.3690 H   0  0  0  0  0  0  0  0  0  0  0  0
  -18.4630  -27.2440   22.3430 C   0  0  0  0  0  0  0  0  0  0  0  0
  -20.9820  -27.7640   22.6230 C   0  0  0  0  0  3  0  0  0  0  0  0
  -21.2330  -26.4440   21.8550 C   0  0  0  0  0  2  0  0  0  0  0  0
  -20.1490  -26.1360   20.8170 C   0  0  0  0  0  2  0  0  0  0  0  0
  -18.7770  -26.0290   21.4860 C   0  0  0  0  0  2  0  0  0  0  0  0
  -19.4970  -28.0670   22.8620 C   0  0  0  0  0  0  0  0  0  0  0  0
  -19.1490  -29.2040   23.6240 C   0  0  0  0  0  3  0  0  0  0  0  0
  -17.8000  -29.5210   23.8700 C   0  0  0  0  0  3  0  0  0  0  0  0
  -16.7810  -28.6940   23.3660 C   0  0  0  0  0  3  0  0  0  0  0  0
  -17.1140  -27.5590   22.6070 C   0  0  0  0  0  3  0  0  0  0  0  0
  -25.7890  -32.3960   23.8020 C   0  0  0  0  0  3  0  0  0  0  0  0
  -26.2890  -31.6290   25.0870 C   0  0  1  0  0  0  0  0  0  0  0  0
  -25.1600  -31.2920   26.0910 C   0  0  0  0  0  1  0  0  0  0  0  0
  -26.9830  -30.3040   24.6980 C   0  0  0  0  0  1  0  0  0  0  0  0
  -27.3480  -32.4810   25.8240 C   0  0  0  0  0  1  0  0  0  0  0  0
  -25.3910  -33.7690   24.1440 N   0  0  0  0  0  0  0  0  0  0  0  0
  -25.7170  -34.8560   23.4320 C   0  0  0  0  0  0  0  0  0  0  0  0
  -26.4510  -34.8110   22.4420 O   0  0  0  0  0  0  0  0  0  0  0  0
  -24.7420  -33.8730   24.9100 H   0  0  0  0  0  0  0  0  0  0  0  0
  -23.9350  -36.5820   23.0100 C   0  0  0  0  0  1  0  0  0  0  0  0
  -25.1370  -36.2080   23.8920 C   0  0  0  0  0  3  0  0  0  0  0  0
  -27.1610  -37.1690   24.8980 C   0  0  0  0  0  1  0  0  0  0  0  0
  -26.1260  -37.3100   23.8780 N   0  0  0  0  0  0  0  0  0  0  0  0
  -25.6670  -38.2070   24.0140 H   0  0  0  0  0  0  0  0  0  0  0  0
  1  2  1  0
  2  4  2  0
  3  1  2  0
  3  5  1  0
  4  9  1  0
  5 11  2  0
  6  2  1  0
  7  6  1  0
  8 10  1  6
  8  7  1  0
  8  1  1  0
  8 55  1  0
 11  4  1  0
 12 13  1  0
 14 12  1  0
 14 13  1  0
 14  3  1  0
 15  5  1  0
 15 16  1  0
 17 25  1  0
 17 23  1  0
 18 23  1  0
 19 20  1  0
 19 18  1  0
 21 20  1  0
 21 30  1  0
 21 22  1  0
 23 22  1  0
 24 17  2  0
 25 16  1  0
 25 26  1  0
 27 28  2  0
 28 47  1  0
 29 32  1  0
 29 28  1  0
 30 31  1  0
 30 27  1  0
 31 29  2  0
 32 33  1  0
 33 34  2  0
 35 38  1  0
 35 34  1  0
 36 35  2  0
 37 36  1  0
 37 32  2  0
 38 39  1  0
 39 44  2  0
 39 40  1  0
 40 41  2  0
 41 42  1  0
 42 46  1  0
 43 42  2  0
 44 43  1  0
 45 44  1  0
 47 48  1  0
 48 51  1  0
 48 50  1  0
 49 47  2  0
 52 27  1  0
 52 53  1  0
 54 52  1  0
 56 58  1  0
 56 55  1  0
 57 68  2  0
 58 63  1  0
 59 67  1  0
 59 69  1  0
 60 66  1  0
 60 62  1  0
 61 67  1  0
 62 61  1  0
 63 62  2  0
 64 65  1  0
 64 58  2  0
 65 60  2  0
 66 59  1  0
 67 57  1  0
 69 71  2  0
 70 69  1  0
 72 70  1  0
 73 82  2  0
 73 78  1  0
 74 70  1  0
 74 78  1  0
 75 74  1  0
 76 77  1  0
 76 75  1  0
 77 73  1  0
 78 79  2  0
 79 80  1  0
 81 80  2  0
 82 81  1  0
 83 57  1  0
 83 88  1  0
 83 84  1  0
 84 87  1  1
 84 85  1  0
 86 84  1  0
 88 91  1  0
 89 93  1  0
 89 88  1  0
 90 89  2  0
 93 92  1  0
 95 93  1  0
 95 96  1  0
 95 94  1  0
M  ISO  4  17 100  25 100  55 101  56 101
M  END
>  <TORSDO>  (52) 
F 20

>  <SCORE>  (52) 
-7.088

>  <name>  (52) 
51

>  <ligand_id>  (52) 
51

>  <original_smiles>  (52) 
[H]c1c([H])c([H])c2c(c1[H])C([H])([H])C([H])([H])C([H])([H])C2([H])N([H])C(=O)C1([H])N(C(=O)C([H])(N([H])C(=O)C([H])(N([H])C([H])([H])[H])C([H])([H])[H])C(C([H])([H])[H])(C([H])([H])[H])C([H])([H])[H])C([H])([H])c2c([H])c(OC([H])([H])C3(C([H])([H])[H])c4c(c(C([H])([H])[H])nc(C([H])([H])C([H])([H])N([H])C(=O)N5C([H])([H])C([H])([H])C([H])([H])C([H])(n6nc(-c7c([H])c([H])c(Oc8c([H])c([H])c(F)c([H])c8F)c([H])c7[H])c(C(=O)N([H])[H])c6N([H])[H])C5([H])[H])c4C4([H])C([H])([H])C4([H])[H])C([H])([H])C3([H])[H])c([H])c([H])c2C1([H])[H]

>  <smiles>  (52) 
[H]c1c([H])c([H])c2c(c1[H])C([H])([H])C([H])([H])C([H])([H])C2([H])N([H])C(=O)C1([H])N(C(=O)C([H])(N([H])C(=O)C([H])(N([H])C([H])([H])[H])C([H])([H])[H])C(C([H])([H])[H])(C([H])([H])[H])C([H])([H])[H])C([H])([H])c2c([H])c(OC([H])([H])C3(C([H])([H])[H])c4c(c(C([H])([H])[H])nc(C([H])([H])C([H])([H])N([H])C(=O)N5C([H])([H])C([H])([H])C([H])([H])C([H])(n6nc(-c7c([H])c([H])c(Oc8c([H])c([H])c(F)c([H])c8F)c([H])c7[H])c(C(=O)N([H])[H])c6N([H])[H])C5([H])[H])c4C4([H])C([H])([H])C4([H])[H])C([H])([H])C3([H])[H])c([H])c([H])c2C1([H])[H]

$$$$
52:0:0
     RDKit          3D

 99104  0  0  1  0  0  0  0  0999 V2000
  -26.0280  -13.9590   18.1540 C   0  0  0  0  0  3  0  0  0  0  0  0
  -27.7410  -13.4800   18.7320 C   0  0  0  0  0  2  0  0  0  0  0  0
  -24.9180  -14.9240   19.3170 C   0  0  0  0  0  2  0  0  0  0  0  0
  -28.2290  -13.8930   20.5900 C   0  0  0  0  0  2  0  0  0  0  0  0
  -25.5140  -15.4020   21.0440 C   0  0  0  0  0  1  0  0  0  0  0  0
  -25.6390  -13.7570   16.7080 C   0  0  0  0  0  1  0  0  0  0  0  0
  -28.8130  -13.3200   17.6610 C   0  0  0  0  0  1  0  0  0  0  0  0
  -23.8120  -15.7470   18.6600 C   0  0  0  0  0  1  0  0  0  0  0  0
  -27.0540  -14.7540   21.6250 N   0  0  0  0  0  2  0  0  0  0  0  0
  -25.8980  -17.3520   22.7480 C   0  0  0  0  0  1  0  0  0  0  0  0
  -25.7320  -17.1360   21.2360 C   0  0  0  0  0  3  0  0  0  0  0  0
  -26.8150  -18.1350   20.4390 N   0  0  0  0  0  4  0  0  0  0  0  0
  -27.6890  -17.9050   20.8810 H   0  0  0  0  0  0  0  0  0  0  0  0
  -26.8740  -17.7050   19.5280 H   0  0  0  0  0  0  0  0  0  0  0  0
  -26.8390  -19.7950   20.2050 C   0  0  0  0  0  3  0  0  0  0  0  0
  -28.0600  -20.8940   19.4090 C   0  0  0  0  0  3  0  0  0  0  0  0
  -28.3370  -22.6950   19.3840 C   0  0  0  0  0  2  0  0  0  0  0  0
  -29.2800  -23.8510   18.6070 O   0  0  0  0  0  0  0  0  0  0  0  0
  -28.1610  -29.4430   23.2920 C   0  0  0  0  0  0  0  0  0  0  0  0
  -29.0300  -25.2830   18.8120 C   0  0  0  0  0  0  0  0  0  0  0  0
  -26.6250  -28.9800   21.4380 C   0  0  0  0  0  3  0  0  0  0  0  0
  -27.5730  -27.6940   19.4290 C   0  0  0  0  0  0  0  0  0  0  0  0
  -29.1530  -28.5820   21.1180 C   0  0  0  0  0  2  0  0  0  0  0  0
  -28.8050  -27.4970   20.0670 C   0  0  0  0  0  0  0  0  0  0  0  0
  -29.5660  -26.2940   19.7430 C   0  0  0  0  0  3  0  0  0  0  0  0
  -27.9470  -25.7230   18.0530 C   0  0  0  0  0  3  0  0  0  0  0  0
  -27.1930  -26.8550   18.3820 C   0  0  0  0  0  3  0  0  0  0  0  0
  -26.6540  -28.8090   19.8980 C   0  0  0  0  0  2  0  0  0  0  0  0
  -28.0110  -29.0070   22.0020 N   0  0  0  0  0  0  0  0  0  0  0  0
  -27.1880  -29.8020   23.9770 O   0  0  0  0  0  0  0  0  0  0  0  0
  -25.7290  -27.8890   22.0850 C   0  0  0  0  0  0  0  0  0  0  0  0
  -24.4020  -27.9780   21.8870 N   0  0  0  0  0  0  0  0  0  0  0  0
  -26.2350  -26.9840   22.7550 O   0  0  0  0  0  0  0  0  0  0  0  0
  -24.0590  -28.7550   21.3390 H   0  0  0  0  0  0  0  0  0  0  0  0
  -20.8500  -27.2410   21.9220 C   0  0  0  0  0  0  0  0  0  0  0  0
  -23.3900  -27.0400   22.3810 C   0  0  0  0  0  3  0  0  0  0  0  0
  -23.3410  -25.7650   21.5070 C   0  0  0  0  0  2  0  0  0  0  0  0
  -22.2980  -25.8420   20.3870 C   0  0  0  0  0  2  0  0  0  0  0  0
  -20.8980  -26.0570   20.9680 C   0  0  0  0  0  2  0  0  0  0  0  0
  -22.0230  -27.7110   22.5720 C   0  0  0  0  0  0  0  0  0  0  0  0
  -21.9280  -28.8330   23.4240 C   0  0  0  0  0  3  0  0  0  0  0  0
  -20.6940  -29.4810   23.6280 C   0  0  0  0  0  3  0  0  0  0  0  0
  -19.5350  -29.0030   22.9920 C   0  0  0  0  0  3  0  0  0  0  0  0
  -19.6130  -27.8830   22.1460 C   0  0  0  0  0  3  0  0  0  0  0  0
  -29.5650  -29.5360   23.9590 C   0  0  0  0  0  3  0  0  0  0  0  0
  -29.5760  -30.7440   24.8060 N   0  0  0  0  0  0  0  0  0  0  0  0
  -30.0740  -31.9320   24.4420 C   0  0  0  0  0  0  0  0  0  0  0  0
  -30.6420  -32.1140   23.3620 O   0  0  0  0  0  0  0  0  0  0  0  0
  -29.0750  -30.6860   25.6810 H   0  0  0  0  0  0  0  0  0  0  0  0
  -28.7370  -33.9860   25.0280 C   0  0  0  0  0  1  0  0  0  0  0  0
  -29.9280  -33.1040   25.4360 C   0  0  0  0  0  3  0  0  0  0  0  0
  -32.2580  -33.2610   26.1990 C   0  0  0  0  0  1  0  0  0  0  0  0
  -31.1420  -33.9410   25.5450 N   0  0  0  0  0  0  0  0  0  0  0  0
  -30.9450  -34.7950   26.0590 H   0  0  0  0  0  0  0  0  0  0  0  0
  -29.9250  -28.2620   24.8230 C   0  0  1  0  0  0  0  0  0  0  0  0
  -28.8430  -27.8780   25.8600 C   0  0  0  0  0  1  0  0  0  0  0  0
  -30.1560  -27.0290   23.9200 C   0  0  0  0  0  1  0  0  0  0  0  0
  -31.2470  -28.5120   25.5860 C   0  0  0  0  0  1  0  0  0  0  0  0
  -29.5440  -13.7630   21.3810 C   0  0  0  0  0  3  0  0  0  0  0  0
  -31.3690  -12.0400   20.9550 C   0  0  0  0  0  0  0  0  0  0  0  0
  -31.0120   -9.6250   20.9940 C   0  0  0  0  0  2  0  0  0  0  0  0
  -29.8650   -9.1910   20.0290 C   0  0  0  0  0  2  0  0  0  0  0  0
  -28.4320   -9.4100   20.6000 C   0  0  0  0  0  2  0  0  0  0  0  0
  -28.3460  -10.7340   21.3810 C   0  0  0  0  0  3  0  0  0  0  0  0
  -29.5050  -10.9110   22.3700 C   0  0  0  0  0  2  0  0  0  0  0  0
  -30.7470  -10.9690   21.5400 N   0  0  0  0  0  0  0  0  0  0  0  0
  -32.4480  -11.9500   20.3620 O   0  0  0  0  0  0  0  0  0  0  0  0
  -30.6440  -13.1300   20.6800 N   0  0  0  0  0  0  0  0  0  0  0  0
  -31.1220  -13.7720   20.0660 H   0  0  0  0  0  0  0  0  0  0  0  0
  -26.3030  -12.6990   21.8690 C   0  0  0  0  0  3  0  0  0  0  0  0
  -25.0040  -11.9570   22.0880 C   0  0  0  0  0  0  0  0  0  0  0  0
  -25.0410  -10.4800   21.9420 C   0  0  0  0  0  0  0  0  0  0  0  0
  -26.9590  -11.2770   21.7160 N   0  0  0  0  0  0  0  0  0  0  0  0
  -26.2540  -10.1330   21.7950 N   0  0  0  0  0  0  0  0  0  0  0  0
  -24.0350   -9.3080   21.9070 C   0  0  0  0  0  0  0  0  0  0  0  0
  -23.9750   -8.2850   22.9040 C   0  0  0  0  0  3  0  0  0  0  0  0
  -23.0240   -7.2240   22.8640 C   0  0  0  0  0  3  0  0  0  0  0  0
  -22.0790   -7.1400   21.8130 C   0  0  0  0  0  0  0  0  0  0  0  0
  -22.1580   -8.1150   20.7960 C   0  0  0  0  0  3  0  0  0  0  0  0
  -23.1110   -9.1620   20.8400 C   0  0  0  0  0  3  0  0  0  0  0  0
  -21.1250   -6.1450   21.6710 O   0  0  0  0  0  0  0  0  0  0  0  0
  -20.4210   -5.6100   22.7320 C   0  0  0  0  0  0  0  0  0  0  0  0
  -19.5320   -6.3860   23.5080 C   0  0  0  0  0  3  0  0  0  0  0  0
  -18.7810   -5.7870   24.5440 C   0  0  0  0  0  3  0  0  0  0  0  0
  -18.9110   -4.4100   24.8080 C   0  0  0  0  0  0  0  0  0  0  0  0
  -19.7790   -3.6300   24.0280 C   0  0  0  0  0  3  0  0  0  0  0  0
  -20.5230   -4.2230   22.9890 C   0  0  0  0  0  0  0  0  0  0  0  0
  -21.3290   -3.4490   22.2240 F   0  0  0  0  0  0  0  0  0  0  0  0
  -18.1930   -3.8330   25.8040 F   0  0  0  0  0  0  0  0  0  0  0  0
  -23.5850  -12.4540   22.3610 C   0  0  0  0  0  0  0  0  0  0  0  0
  -22.8010  -11.7710   23.1940 N   0  0  0  0  0  0  0  0  0  0  0  0
  -23.0830  -13.4240   21.8330 O   0  0  0  0  0  0  0  0  0  0  0  0
  -23.1150  -10.9290   23.6570 H   0  0  0  0  0  0  0  0  0  0  0  0
  -21.8430  -12.0580   23.3360 H   0  0  0  0  0  0  0  0  0  0  0  0
  -27.4680  -15.0850   21.5510 N   0  0  0  0  0  0  0  0  0  0  0  0
  -26.5420  -15.3830   21.2300 H   0  0  0  0  0  0  0  0  0  0  0  0
  -27.5090  -14.8670   22.5710 H   0  0  0  0  0  0  0  0  0  0  0  0
  -30.7260  -16.0760   21.0120 C   0  0  0  0  0  1  0  0  0  0  0  0
  -30.0550  -15.0970   21.9840 C   0  0  0  0  0  2  0  0  0  0  0  0
  1  2  1  0
  1  3  1  0
  4 95  1  0
  5 11  1  0
  6  1  1  0
  7  2  1  0
  8  3  1  0
 11 10  1  0
 12 13  1  0
 12 11  1  0
 14 12  1  0
 15 12  1  0
 16 15  2  0
 17 16  1  0
 18 20  1  0
 18 17  1  0
 19 30  2  0
 20 25  1  0
 21 29  1  0
 21 31  1  0
 22 28  1  0
 22 24  1  0
 23 29  1  0
 24 23  1  0
 25 24  2  0
 26 27  1  0
 26 20  2  0
 27 22  2  0
 28 21  1  0
 29 19  1  0
 31 33  2  0
 32 31  1  0
 34 32  1  0
 35 44  2  0
 35 40  1  0
 36 32  1  0
 36 40  1  0
 37 36  1  0
 38 39  1  0
 38 37  1  0
 39 35  1  0
 40 41  2  0
 41 42  1  0
 43 42  2  0
 44 43  1  0
 45 19  1  0
 45 46  1  0
 45 55  1  0
 46 49  1  0
 47 46  1  0
 47 51  1  0
 48 47  2  0
 51 50  1  0
 51 53  1  0
 53 54  1  0
 53 52  1  0
 55 58  1  1
 55 56  1  0
 57 55  1  0
 59  4  1  0
 59 99  1  0
 60 66  1  0
 61 66  1  0
 62 63  1  0
 62 61  1  0
 64 63  1  0
 64 73  1  0
 64 65  1  0
 66 65  1  0
 67 60  2  0
 68 60  1  0
 68 59  1  0
 69 68  1  0
 70 71  2  0
 71 90  1  0
 72 71  1  0
 73 74  1  0
 73 70  1  0
 74 72  2  0
 75 72  1  0
 75 76  1  0
 77 76  2  0
 78 77  1  0
 79 80  1  0
 79 78  2  0
 80 75  2  0
 81 78  1  0
 81 82  1  0
 82 87  2  0
 82 83  1  0
 83 84  2  0
 84 85  1  0
 85 89  1  0
 86 85  2  0
 87 86  1  0
 88 87  1  0
 90 91  1  0
 91 94  1  0
 91 93  1  0
 92 90  2  0
 95  9  1  0
 95 97  1  0
 96  9  1  0
 98 99  1  0
M  ISO  4  17 101  18 101  60 100  68 100
M  END
>  <TORSDO>  (53) 
F 23

>  <SCORE>  (53) 
22.187

>  <name>  (53) 
52

>  <ligand_id>  (53) 
52

>  <original_smiles>  (53) 
[H]c1c([H])c([H])c2c(c1[H])C([H])([H])C([H])([H])C([H])([H])C2([H])N([H])C(=O)C1([H])N(C(=O)C([H])(N([H])C(=O)C([H])(N([H])C([H])([H])[H])C([H])([H])[H])C(C([H])([H])[H])(C([H])([H])[H])C([H])([H])[H])C([H])([H])c2c([H])c(OC([H])([H])C([H])([H])C([H])([H])[N+]([H])([H])C([H])(c3nc(C([H])(N([H])C(=O)N4C([H])([H])C([H])([H])C([H])([H])C([H])(n5nc(-c6c([H])c([H])c(Oc7c([H])c([H])c(F)c([H])c7F)c([H])c6[H])c(C(=O)N([H])[H])c5N([H])[H])C4([H])[H])C([H])([H])C([H])([H])[H])c(C([H])([H])[H])c(C([H])([H])[H])c3C([H])([H])[H])C([H])([H])[H])c([H])c([H])c2C1([H])[H]

>  <smiles>  (53) 
[H]c1c([H])c([H])c2c(c1[H])C([H])([H])C([H])([H])C([H])([H])C2([H])N([H])C(=O)C1([H])N(C(=O)C([H])(N([H])C(=O)C([H])(N([H])C([H])([H])[H])C([H])([H])[H])C(C([H])([H])[H])(C([H])([H])[H])C([H])([H])[H])C([H])([H])c2c([H])c(OC([H])([H])C([H])([H])C([H])([H])[N+]([H])([H])C([H])(c3nc(C([H])(N([H])C(=O)N4C([H])([H])C([H])([H])C([H])([H])C([H])(n5nc(-c6c([H])c([H])c(Oc7c([H])c([H])c(F)c([H])c7F)c([H])c6[H])c(C(=O)N([H])[H])c5N([H])[H])C4([H])[H])C([H])([H])C([H])([H])[H])c(C([H])([H])[H])c(C([H])([H])[H])c3C([H])([H])[H])C([H])([H])[H])c([H])c([H])c2C1([H])[H]

$$$$
53:0:0
     RDKit          3D

 93102  0  0  1  0  0  0  0  0999 V2000
  -30.1870  -23.8140   21.3690 C   0  0  0  0  0  3  0  0  0  0  0  0
  -30.7150  -22.5000   21.3500 C   0  0  0  0  0  3  0  0  0  0  0  0
  -28.9030  -24.0660   20.8410 C   0  0  0  0  0  0  0  0  0  0  0  0
  -28.2440  -22.9400   20.2650 C   0  0  0  0  0  0  0  0  0  0  0  0
  -29.9650  -21.4340   20.8160 C   0  0  0  0  0  0  0  0  0  0  0  0
  -26.8660  -23.0720   19.6450 C   0  0  0  0  0  1  0  0  0  0  0  0
  -28.7560  -21.6700   20.2580 N   0  0  0  0  0  0  0  0  0  0  0  0
  -30.4970  -20.1180   20.8880 N   0  0  0  0  0  0  0  0  0  0  0  0
  -31.4060  -20.0450   21.3320 H   0  0  0  0  0  0  0  0  0  0  0  0
  -30.7000  -14.6470   20.1370 C   0  0  0  0  0  0  0  0  0  0  0  0
  -30.3770  -12.4630   19.0250 C   0  0  0  0  0  2  0  0  0  0  0  0
  -29.3830  -12.6470   17.8590 C   0  0  0  0  0  2  0  0  0  0  0  0
  -27.9310  -12.4860   18.3520 C   0  0  0  0  0  2  0  0  0  0  0  0
  -27.6380  -13.3060   19.6380 C   0  0  0  0  0  3  0  0  0  0  0  0
  -28.7490  -13.1250   20.6950 C   0  0  0  0  0  2  0  0  0  0  0  0
  -30.0280  -13.4580   20.0540 N   0  0  0  0  0  0  0  0  0  0  0  0
  -31.8530  -14.7600   19.7090 O   0  0  0  0  0  0  0  0  0  0  0  0
  -30.0550  -17.8010   21.7730 C   0  0  0  0  0  2  0  0  0  0  0  0
  -30.3630  -18.1380   19.3470 C   0  0  0  0  0  2  0  0  0  0  0  0
  -29.4680  -16.3760   21.5080 C   0  0  0  0  0  2  0  0  0  0  0  0
  -29.7780  -16.7140   19.1020 C   0  0  0  0  0  2  0  0  0  0  0  0
  -29.8220  -18.8230   20.6250 C   0  0  0  0  0  3  0  0  0  0  0  0
  -29.9240  -15.7750   20.2400 N   0  0  0  0  0  0  0  0  0  0  0  0
  -25.2810  -13.8750   20.4890 C   0  0  0  0  0  0  0  0  0  0  0  0
  -24.2340  -13.0880   20.8870 C   0  0  0  0  0  0  0  0  0  0  0  0
  -24.6980  -11.7390   20.7930 C   0  0  0  0  0  0  0  0  0  0  0  0
  -26.3140  -13.0060   20.1800 N   0  0  0  0  0  0  0  0  0  0  0  0
  -25.9710  -11.7140   20.4210 N   0  0  0  0  0  0  0  0  0  0  0  0
  -23.9830  -10.4700   20.9800 C   0  0  0  0  0  0  0  0  0  0  0  0
  -24.4240   -9.5030   21.9110 C   0  0  0  0  0  3  0  0  0  0  0  0
  -23.7100   -8.2990   22.0860 C   0  0  0  0  0  3  0  0  0  0  0  0
  -22.5400   -8.0510   21.3300 C   0  0  0  0  0  0  0  0  0  0  0  0
  -22.1180   -9.0060   20.3870 C   0  0  0  0  0  3  0  0  0  0  0  0
  -22.8330  -10.2030   20.2110 C   0  0  0  0  0  3  0  0  0  0  0  0
  -21.7980   -6.8970   21.4130 O   0  0  0  0  0  0  0  0  0  0  0  0
  -21.6980   -6.1900   22.5840 C   0  0  0  0  0  0  0  0  0  0  0  0
  -21.1810   -6.7710   23.7620 C   0  0  0  0  0  3  0  0  0  0  0  0
  -21.0250   -5.9880   24.9250 C   0  0  0  0  0  3  0  0  0  0  0  0
  -21.3810   -4.6270   24.9080 C   0  0  0  0  0  0  0  0  0  0  0  0
  -21.8930   -4.0440   23.7360 C   0  0  0  0  0  3  0  0  0  0  0  0
  -22.0470   -4.8240   22.5760 C   0  0  0  0  0  0  0  0  0  0  0  0
  -22.5190   -4.2540   21.4410 F   0  0  0  0  0  0  0  0  0  0  0  0
  -21.2270   -3.8730   26.0230 F   0  0  0  0  0  0  0  0  0  0  0  0
  -22.8500  -13.5520   21.2410 C   0  0  0  0  0  0  0  0  0  0  0  0
  -22.1680  -12.8280   22.1230 N   0  0  0  0  0  0  0  0  0  0  0  0
  -22.3840  -14.5890   20.7730 O   0  0  0  0  0  0  0  0  0  0  0  0
  -22.5590  -11.9910   22.5260 H   0  0  0  0  0  0  0  0  0  0  0  0
  -21.2410  -13.1190   22.3990 H   0  0  0  0  0  0  0  0  0  0  0  0
  -25.4330  -15.2500   20.3410 N   0  0  0  0  0  0  0  0  0  0  0  0
  -24.6690  -15.9010   20.4900 H   0  0  0  0  0  0  0  0  0  0  0  0
  -26.2660  -15.6930   19.9740 H   0  0  0  0  0  0  0  0  0  0  0  0
  -28.1910  -25.4270   21.1250 C   0  0  0  0  0  2  0  0  0  0  0  0
  -28.4220  -26.5900   20.2680 O   0  0  0  0  0  0  0  0  0  0  0  0
  -24.6250  -31.9090   23.2410 C   0  0  0  0  0  0  0  0  0  0  0  0
  -27.3160  -27.4320   20.2080 C   0  0  0  0  0  0  0  0  0  0  0  0
  -23.4410  -30.4890   21.6010 C   0  0  0  0  0  3  0  0  0  0  0  0
  -24.9200  -28.9610   20.1810 C   0  0  0  0  0  0  0  0  0  0  0  0
  -25.9680  -30.8600   21.4160 C   0  0  0  0  0  2  0  0  0  0  0  0
  -26.0740  -29.4850   20.7790 C   0  0  0  0  0  0  0  0  0  0  0  0
  -27.2800  -28.7290   20.7880 C   0  0  0  0  0  3  0  0  0  0  0  0
  -26.1460  -26.9490   19.5830 C   0  0  0  0  0  3  0  0  0  0  0  0
  -24.9530  -27.6940   19.5760 C   0  0  0  0  0  3  0  0  0  0  0  0
  -23.6670  -29.8120   20.2230 C   0  0  0  0  0  2  0  0  0  0  0  0
  -24.6950  -31.1030   22.1430 N   0  0  0  0  0  0  0  0  0  0  0  0
  -23.5390  -32.1730   23.7760 O   0  0  0  0  0  0  0  0  0  0  0  0
  -22.7940  -29.4660   22.5630 C   0  0  0  0  0  0  0  0  0  0  0  0
  -21.4690  -29.2730   22.4380 N   0  0  0  0  0  0  0  0  0  0  0  0
  -23.4810  -28.8450   23.3790 O   0  0  0  0  0  0  0  0  0  0  0  0
  -20.9720  -29.8280   21.7560 H   0  0  0  0  0  0  0  0  0  0  0  0
  -18.1040  -28.0580   22.9530 C   0  0  0  0  0  0  0  0  0  0  0  0
  -20.6610  -28.3310   23.2130 C   0  0  0  0  0  3  0  0  0  0  0  0
  -20.7690  -26.8990   22.6360 C   0  0  0  0  0  2  0  0  0  0  0  0
  -19.6660  -26.5720   21.6260 C   0  0  0  0  0  2  0  0  0  0  0  0
  -18.2860  -26.7080   22.2760 C   0  0  0  0  0  2  0  0  0  0  0  0
  -19.2200  -28.8260   23.3780 C   0  0  0  0  0  0  0  0  0  0  0  0
  -18.9980  -30.0860   23.9720 C   0  0  0  0  0  3  0  0  0  0  0  0
  -17.6910  -30.5810   24.1430 C   0  0  0  0  0  3  0  0  0  0  0  0
  -16.5880  -29.8100   23.7330 C   0  0  0  0  0  3  0  0  0  0  0  0
  -16.7960  -28.5500   23.1450 C   0  0  0  0  0  3  0  0  0  0  0  0
  -25.9010  -32.5580   23.8630 C   0  0  0  0  0  3  0  0  0  0  0  0
  -25.5770  -33.9540   24.1830 N   0  0  0  0  0  0  0  0  0  0  0  0
  -25.9060  -35.0060   23.4210 C   0  0  0  0  0  0  0  0  0  0  0  0
  -26.5840  -34.9030   22.3950 O   0  0  0  0  0  0  0  0  0  0  0  0
  -24.9780  -34.1080   24.9820 H   0  0  0  0  0  0  0  0  0  0  0  0
  -24.1730  -36.7860   23.0320 C   0  0  0  0  0  1  0  0  0  0  0  0
  -25.4010  -36.3910   23.8670 C   0  0  0  0  0  3  0  0  0  0  0  0
  -27.5140  -37.2920   24.7360 C   0  0  0  0  0  1  0  0  0  0  0  0
  -26.4280  -37.4520   23.7720 N   0  0  0  0  0  0  0  0  0  0  0  0
  -26.0120  -38.3680   23.9140 H   0  0  0  0  0  0  0  0  0  0  0  0
  -26.4240  -31.7970   25.1420 C   0  0  1  0  0  0  0  0  0  0  0  0
  -25.3340  -31.5560   26.2120 C   0  0  0  0  0  1  0  0  0  0  0  0
  -27.0210  -30.4220   24.7590 C   0  0  0  0  0  1  0  0  0  0  0  0
  -27.5660  -32.6040   25.8020 C   0  0  0  0  0  1  0  0  0  0  0  0
  2  1  1  0
  3 52  1  0
  3  1  2  0
  4  3  1  0
  5  8  1  0
  5  2  2  0
  6  4  1  0
  7  4  2  0
  7  5  1  0
  8  9  1  0
 10 23  1  0
 11 16  1  0
 12 13  1  0
 12 11  1  0
 14 13  1  0
 14 27  1  0
 14 15  1  0
 16 10  1  0
 16 15  1  0
 17 10  2  0
 19 22  1  0
 20 18  1  0
 21 19  1  0
 21 23  1  0
 22  8  1  0
 22 18  1  0
 23 20  1  0
 24 25  2  0
 25 44  1  0
 26 25  1  0
 26 29  1  0
 27 28  1  0
 27 24  1  0
 28 26  2  0
 29 30  1  0
 30 31  2  0
 32 35  1  0
 32 31  1  0
 33 32  2  0
 34 33  1  0
 34 29  2  0
 35 36  1  0
 36 37  1  0
 37 38  2  0
 39 38  1  0
 39 43  1  0
 40 39  2  0
 41 36  2  0
 41 40  1  0
 42 41  1  0
 44 45  1  0
 45 48  1  0
 45 47  1  0
 46 44  2  0
 49 24  1  0
 49 50  1  0
 51 49  1  0
 53 52  1  0
 54 65  2  0
 55 53  1  0
 55 60  1  0
 56 64  1  0
 56 66  1  0
 57 63  1  0
 57 59  1  0
 58 64  1  0
 59 60  2  0
 59 58  1  0
 61 55  2  0
 62 61  1  0
 62 57  2  0
 63 56  1  0
 64 54  1  0
 66 68  2  0
 67 66  1  0
 69 67  1  0
 70 79  2  0
 70 75  1  0
 71 67  1  0
 71 75  1  0
 72 71  1  0
 73 74  1  0
 73 72  1  0
 74 70  1  0
 75 76  2  0
 76 77  1  0
 78 77  2  0
 79 78  1  0
 80 54  1  0
 80 81  1  0
 80 90  1  0
 81 84  1  0
 82 86  1  0
 82 81  1  0
 83 82  2  0
 86 85  1  0
 88 86  1  0
 88 89  1  0
 88 87  1  0
 90 93  1  1
 90 91  1  0
 92 90  1  0
M  ISO  4  10 100  23 100  52 101  53 101
M  END
>  <TORSDO>  (54) 
F 17

>  <SCORE>  (54) 
-15.050

>  <name>  (54) 
53

>  <ligand_id>  (54) 
53

>  <original_smiles>  (54) 
[H]c1c(N([H])C2([H])C([H])([H])C([H])([H])N(C(=O)N3C([H])([H])C([H])([H])C([H])([H])C([H])(n4nc(-c5c([H])c([H])c(Oc6c([H])c([H])c(F)c([H])c6F)c([H])c5[H])c(C(=O)N([H])[H])c4N([H])[H])C3([H])[H])C([H])([H])C2([H])[H])nc(C([H])([H])[H])c(C([H])([H])Oc2c([H])c([H])c3c(c2[H])C([H])([H])N(C(=O)C([H])(N([H])C(=O)C([H])(N([H])C([H])([H])[H])C([H])([H])[H])C(C([H])([H])[H])(C([H])([H])[H])C([H])([H])[H])C([H])(C(=O)N([H])C2([H])c4c([H])c([H])c([H])c([H])c4C([H])([H])C([H])([H])C2([H])[H])C3([H])[H])c1[H]

>  <smiles>  (54) 
[H]c1c(N([H])C2([H])C([H])([H])C([H])([H])N(C(=O)N3C([H])([H])C([H])([H])C([H])([H])C([H])(n4nc(-c5c([H])c([H])c(Oc6c([H])c([H])c(F)c([H])c6F)c([H])c5[H])c(C(=O)N([H])[H])c4N([H])[H])C3([H])[H])C([H])([H])C2([H])[H])nc(C([H])([H])[H])c(C([H])([H])Oc2c([H])c([H])c3c(c2[H])C([H])([H])N(C(=O)C([H])(N([H])C(=O)C([H])(N([H])C([H])([H])[H])C([H])([H])[H])C(C([H])([H])[H])(C([H])([H])[H])C([H])([H])[H])C([H])(C(=O)N([H])C2([H])c4c([H])c([H])c([H])c([H])c4C([H])([H])C([H])([H])C2([H])[H])C3([H])[H])c1[H]

$$$$
54:0:0
     RDKit          3D

103112  0  0  1  0  0  0  0  0999 V2000
  -30.6150  -23.6120   19.7420 C   0  0  0  0  0  2  0  0  0  0  0  0
  -28.8080  -22.1350   19.7220 C   0  0  0  0  0  2  0  0  0  0  0  0
  -31.0950  -22.2550   20.3320 C   0  0  0  0  0  3  0  0  0  0  0  0
  -29.8220  -21.3840   20.6370 C   0  0  2  0  0  0  0  0  0  0  0  0
  -32.1000  -22.4460   21.4930 C   0  0  0  0  0  1  0  0  0  0  0  0
  -29.1410  -23.5830   19.7640 N   0  0  2  0  0  4  0  0  0  0  0  0
  -28.8710  -23.9410   20.6690 H   0  0  0  0  0  0  0  0  0  0  0  0
  -31.2130  -19.1890   20.6340 C   0  0  0  0  0  3  0  0  0  0  0  0
  -31.3880  -17.7880   20.5300 C   0  0  0  0  0  3  0  0  0  0  0  0
  -29.1120  -17.6000   19.7590 C   0  0  0  0  0  3  0  0  0  0  0  0
  -29.9830  -19.8440   20.3250 C   0  0  0  0  0  0  0  0  0  0  0  0
  -28.9300  -19.0040   19.8370 C   0  0  0  0  0  0  0  0  0  0  0  0
  -30.3200  -16.9730   20.1150 C   0  0  0  0  0  0  0  0  0  0  0  0
  -27.5640  -19.5120   19.3990 C   0  0  0  0  0  1  0  0  0  0  0  0
  -30.9760  -14.6420   19.4180 C   0  0  0  0  0  0  0  0  0  0  0  0
  -30.5120  -12.5420   18.1920 C   0  0  0  0  0  2  0  0  0  0  0  0
  -29.4040  -12.8210   17.1520 C   0  0  0  0  0  2  0  0  0  0  0  0
  -27.9980  -12.7040   17.7800 C   0  0  0  0  0  2  0  0  0  0  0  0
  -27.8740  -13.4770   19.1210 C   0  0  0  0  0  3  0  0  0  0  0  0
  -29.0630  -13.1270   20.0450 C   0  0  0  0  0  2  0  0  0  0  0  0
  -30.3090  -13.4580   19.3230 N   0  0  0  0  0  0  0  0  0  0  0  0
  -32.0110  -14.8870   18.7880 O   0  0  0  0  0  0  0  0  0  0  0  0
  -30.3380  -15.5480   20.1850 N   0  0  0  0  0  0  0  0  0  0  0  0
  -29.5150  -15.1470   20.6080 H   0  0  0  0  0  0  0  0  0  0  0  0
  -25.6160  -14.1300   20.1770 C   0  0  0  0  0  0  0  0  0  0  0  0
  -24.5810  -13.3780   20.6630 C   0  0  0  0  0  0  0  0  0  0  0  0
  -24.9830  -12.0150   20.5130 C   0  0  0  0  0  0  0  0  0  0  0  0
  -26.5870  -13.2280   19.7690 N   0  0  0  0  0  0  0  0  0  0  0  0
  -26.2150  -11.9490   20.0260 N   0  0  0  0  0  0  0  0  0  0  0  0
  -24.2430  -10.7700   20.7530 C   0  0  0  0  0  0  0  0  0  0  0  0
  -24.7210   -9.7880   21.6460 C   0  0  0  0  0  3  0  0  0  0  0  0
  -23.9830   -8.6050   21.8720 C   0  0  0  0  0  3  0  0  0  0  0  0
  -22.7520   -8.3990   21.2060 C   0  0  0  0  0  0  0  0  0  0  0  0
  -22.2920   -9.3720   20.3000 C   0  0  0  0  0  3  0  0  0  0  0  0
  -23.0290  -10.5450   20.0720 C   0  0  0  0  0  3  0  0  0  0  0  0
  -21.9790   -7.2720   21.3470 O   0  0  0  0  0  0  0  0  0  0  0  0
  -21.9240   -6.5820   22.5320 C   0  0  0  0  0  0  0  0  0  0  0  0
  -21.5090   -7.1970   23.7330 C   0  0  0  0  0  3  0  0  0  0  0  0
  -21.3990   -6.4320   24.9120 C   0  0  0  0  0  3  0  0  0  0  0  0
  -21.6920   -5.0550   24.8910 C   0  0  0  0  0  0  0  0  0  0  0  0
  -22.0990   -4.4400   23.6920 C   0  0  0  0  0  3  0  0  0  0  0  0
  -22.2120   -5.2010   22.5160 C   0  0  0  0  0  0  0  0  0  0  0  0
  -22.5840   -4.6000   21.3610 F   0  0  0  0  0  0  0  0  0  0  0  0
  -21.5770   -4.3190   26.0200 F   0  0  0  0  0  0  0  0  0  0  0  0
  -23.2540  -13.8880   21.1460 C   0  0  0  0  0  0  0  0  0  0  0  0
  -22.6290  -13.1880   22.0870 N   0  0  0  0  0  0  0  0  0  0  0  0
  -22.7830  -14.9430   20.7230 O   0  0  0  0  0  0  0  0  0  0  0  0
  -23.0200  -12.3310   22.4500 H   0  0  0  0  0  0  0  0  0  0  0  0
  -21.7470  -13.5180   22.4520 H   0  0  0  0  0  0  0  0  0  0  0  0
  -25.7980  -15.5010   20.0310 N   0  0  0  0  0  0  0  0  0  0  0  0
  -25.0680  -16.1590   20.2800 H   0  0  0  0  0  0  0  0  0  0  0  0
  -26.5660  -15.9270   19.5310 H   0  0  0  0  0  0  0  0  0  0  0  0
  -29.2890  -21.5510   22.1010 C   0  0  0  0  0  2  0  0  0  0  0  0
  -30.3040  -21.3770   23.1670 N   0  0  0  0  0  4  0  0  0  0  0  0
  -31.0790  -22.0020   23.0120 H   0  0  0  0  0  0  0  0  0  0  0  0
  -30.6510  -20.4300   23.1190 H   0  0  0  0  0  0  0  0  0  0  0  0
  -29.7550  -21.5950   24.5250 C   0  0  0  0  0  2  0  0  0  0  0  0
  -31.3120  -19.9180   25.6840 C   0  0  0  0  0  1  0  0  0  0  0  0
  -31.9430  -22.3850   25.5940 C   0  0  0  0  0  1  0  0  0  0  0  0
  -30.7940  -21.3680   25.6390 C   0  0  0  0  0  3  0  0  0  0  0  0
  -28.3980  -24.4090   18.7570 C   0  0  0  0  0  2  0  0  0  0  0  0
  -28.8130  -25.9070   18.5820 C   0  0  0  0  0  2  0  0  0  0  0  0
  -28.5300  -26.8430   19.6400 O   0  0  0  0  0  0  0  0  0  0  0  0
  -24.8030  -31.8190   23.1190 C   0  0  0  0  0  0  0  0  0  0  0  0
  -27.3440  -27.5600   19.6700 C   0  0  0  0  0  0  0  0  0  0  0  0
  -23.5330  -30.4830   21.4700 C   0  0  0  0  0  3  0  0  0  0  0  0
  -24.9310  -29.0390   19.8910 C   0  0  0  0  0  0  0  0  0  0  0  0
  -26.0420  -30.8790   21.1680 C   0  0  0  0  0  2  0  0  0  0  0  0
  -26.1070  -29.5400   20.4570 C   0  0  0  0  0  0  0  0  0  0  0  0
  -27.3090  -28.7990   20.3580 C   0  0  0  0  0  3  0  0  0  0  0  0
  -26.1450  -27.0860   19.0870 C   0  0  0  0  0  3  0  0  0  0  0  0
  -24.9430  -27.8100   19.2080 C   0  0  0  0  0  3  0  0  0  0  0  0
  -23.6810  -29.8780   20.0480 C   0  0  0  0  0  2  0  0  0  0  0  0
  -24.8130  -31.0750   21.9770 N   0  0  0  0  0  0  0  0  0  0  0  0
  -23.7480  -32.0480   23.7250 O   0  0  0  0  0  0  0  0  0  0  0  0
  -22.9420  -29.4070   22.4090 C   0  0  0  0  0  0  0  0  0  0  0  0
  -21.6390  -29.1240   22.2560 N   0  0  0  0  0  0  0  0  0  0  0  0
  -23.6570  -28.8300   23.2340 O   0  0  0  0  0  0  0  0  0  0  0  0
  -21.1210  -29.6460   21.5620 H   0  0  0  0  0  0  0  0  0  0  0  0
  -18.3880  -27.5790   22.5760 C   0  0  0  0  0  0  0  0  0  0  0  0
  -20.8800  -28.1180   22.9990 C   0  0  0  0  0  3  0  0  0  0  0  0
  -21.1730  -26.6960   22.4670 C   0  0  0  0  0  2  0  0  0  0  0  0
  -20.1790  -26.2350   21.3970 C   0  0  0  0  0  2  0  0  0  0  0  0
  -18.7520  -26.2430   21.9510 C   0  0  0  0  0  2  0  0  0  0  0  0
  -19.3880  -28.4670   23.0550 C   0  0  0  0  0  0  0  0  0  0  0  0
  -18.9980  -29.7110   23.5940 C   0  0  0  0  0  3  0  0  0  0  0  0
  -17.6370  -30.0690   23.6680 C   0  0  0  0  0  3  0  0  0  0  0  0
  -16.6510  -29.1780   23.2100 C   0  0  0  0  0  3  0  0  0  0  0  0
  -17.0280  -27.9360   22.6690 C   0  0  0  0  0  3  0  0  0  0  0  0
  -26.1110  -32.4390   23.7030 C   0  0  0  0  0  3  0  0  0  0  0  0
  -25.7970  -33.8080   24.1310 N   0  0  0  0  0  0  0  0  0  0  0  0
  -26.0700  -34.9100   23.4190 C   0  0  0  0  0  0  0  0  0  0  0  0
  -26.6830  -34.8790   22.3480 O   0  0  0  0  0  0  0  0  0  0  0  0
  -25.2470  -33.9050   24.9720 H   0  0  0  0  0  0  0  0  0  0  0  0
  -24.2880  -36.6780   23.2780 C   0  0  0  0  0  1  0  0  0  0  0  0
  -25.5870  -36.2590   23.9830 C   0  0  0  0  0  3  0  0  0  0  0  0
  -27.7530  -37.1520   24.7210 C   0  0  0  0  0  1  0  0  0  0  0  0
  -26.5880  -37.3420   23.8610 N   0  0  0  0  0  0  0  0  0  0  0  0
  -26.1730  -38.2430   24.0830 H   0  0  0  0  0  0  0  0  0  0  0  0
  -26.7110  -31.6050   24.9010 C   0  0  1  0  0  0  0  0  0  0  0  0
  -25.6760  -31.2480   25.9930 C   0  0  0  0  0  1  0  0  0  0  0  0
  -27.3290  -30.2840   24.3870 C   0  0  0  0  0  1  0  0  0  0  0  0
  -27.8550  -32.4000   25.5720 C   0  0  0  0  0  1  0  0  0  0  0  0
  1  6  1  0
  1  3  1  0
  2  6  1  0
  2  4  1  0
  3  4  1  0
  3  5  1  0
  4 53  1  1
  6  7  1  1
  9  8  1  0
 10 12  2  0
 10 13  1  0
 11  8  2  0
 11  4  1  0
 12 11  1  0
 13 23  1  0
 13  9  2  0
 14 12  1  0
 15 23  1  0
 16 21  1  0
 17 18  1  0
 17 16  1  0
 19 18  1  0
 19 28  1  0
 19 20  1  0
 21 15  1  0
 21 20  1  0
 22 15  2  0
 23 24  1  0
 25 26  2  0
 26 45  1  0
 27 26  1  0
 27 30  1  0
 28 29  1  0
 28 25  1  0
 29 27  2  0
 30 31  1  0
 31 32  2  0
 33 36  1  0
 33 32  1  0
 34 33  2  0
 35 34  1  0
 35 30  2  0
 36 37  1  0
 37 38  1  0
 38 39  2  0
 40 39  1  0
 40 44  1  0
 41 40  2  0
 42 37  2  0
 42 41  1  0
 43 42  1  0
 45 46  1  0
 46 48  1  0
 46 49  1  0
 47 45  2  0
 50 25  1  0
 50 51  1  0
 52 50  1  0
 53 54  1  0
 54 57  1  0
 55 54  1  0
 56 54  1  0
 57 60  1  0
 59 60  1  0
 60 58  1  0
 61  6  1  0
 62 61  1  0
 62 63  1  0
 63 65  1  0
 64 75  2  0
 65 70  1  0
 66 74  1  0
 66 76  1  0
 67 73  1  0
 67 69  1  0
 68 74  1  0
 69 68  1  0
 70 69  2  0
 71 72  1  0
 71 65  2  0
 72 67  2  0
 73 66  1  0
 74 64  1  0
 76 78  2  0
 77 76  1  0
 79 77  1  0
 80 89  2  0
 80 85  1  0
 81 77  1  0
 81 85  1  0
 82 81  1  0
 83 84  1  0
 83 82  1  0
 84 80  1  0
 85 86  2  0
 86 87  1  0
 88 87  2  0
 89 88  1  0
 90 64  1  0
 90 91  1  0
 90100  1  0
 91 94  1  0
 92 96  1  0
 92 91  1  0
 93 92  2  0
 96 95  1  0
 98 96  1  0
 98 99  1  0
 98 97  1  0
100103  1  1
100101  1  0
102100  1  0
M  ISO  4  15 100  23 100  62 101  63 101
M  END
>  <TORSDO>  (55) 
F 23

>  <SCORE>  (55) 
-5.550

>  <name>  (55) 
54

>  <ligand_id>  (55) 
54

>  <original_smiles>  (55) 
[H]c1c([H])c([H])c2c(c1[H])C([H])([H])C([H])([H])C([H])([H])C2([H])N([H])C(=O)C1([H])N(C(=O)C([H])(N([H])C(=O)C([H])(N([H])C([H])([H])[H])C([H])([H])[H])C(C([H])([H])[H])(C([H])([H])[H])C([H])([H])[H])C([H])([H])c2c([H])c(OC([H])([H])C([H])([H])[N+]3([H])C([H])([H])C([H])(C([H])([H])[H])C(c4c([H])c([H])c(N([H])C(=O)N5C([H])([H])C([H])([H])C([H])([H])C([H])(n6nc(-c7c([H])c([H])c(Oc8c([H])c([H])c(F)c([H])c8F)c([H])c7[H])c(C(=O)N([H])[H])c6N([H])[H])C5([H])[H])c([H])c4C([H])([H])[H])(C([H])([H])[N+]([H])([H])C([H])([H])C([H])(C([H])([H])[H])C([H])([H])[H])C3([H])[H])c([H])c([H])c2C1([H])[H]

>  <smiles>  (55) 
[H]c1c([H])c([H])c2c(c1[H])C([H])([H])C([H])([H])C([H])([H])C2([H])N([H])C(=O)C1([H])N(C(=O)C([H])(N([H])C(=O)C([H])(N([H])C([H])([H])[H])C([H])([H])[H])C(C([H])([H])[H])(C([H])([H])[H])C([H])([H])[H])C([H])([H])c2c([H])c(OC([H])([H])C([H])([H])[N+]3([H])C([H])([H])C([H])(C([H])([H])[H])C(c4c([H])c([H])c(N([H])C(=O)N5C([H])([H])C([H])([H])C([H])([H])C([H])(n6nc(-c7c([H])c([H])c(Oc8c([H])c([H])c(F)c([H])c8F)c([H])c7[H])c(C(=O)N([H])[H])c6N([H])[H])C5([H])[H])c([H])c4C([H])([H])[H])(C([H])([H])[N+]([H])([H])C([H])([H])C([H])(C([H])([H])[H])C([H])([H])[H])C3([H])[H])c([H])c([H])c2C1([H])[H]

$$$$
55:0:0
     RDKit          3D

 95104  0  0  1  0  0  0  0  0999 V2000
  -29.5650  -21.0360   20.1080 C   0  0  0  0  0  0  0  0  0  0  0  0
  -29.9920  -21.9000   19.0400 C   0  0  0  0  0  0  0  0  0  0  0  0
  -29.6250  -23.2990   19.0060 C   0  0  0  0  0  0  0  0  0  0  0  0
  -28.8110  -23.8650   20.0290 C   0  0  0  0  0  0  0  0  0  0  0  0
  -28.8450  -21.7370   21.1170 C   0  0  0  0  0  0  0  0  0  0  0  0
  -30.8050  -21.3020   17.8920 C   0  0  0  0  0  1  0  0  0  0  0  0
  -30.0360  -24.1870   17.8350 C   0  0  0  0  0  1  0  0  0  0  0  0
  -28.4800  -23.0510   21.0740 N   0  0  0  0  0  0  0  0  0  0  0  0
  -28.4070  -21.0910   22.2580 N   0  0  0  0  0  0  0  0  0  0  0  0
  -28.8400  -20.2140   22.5120 H   0  0  0  0  0  0  0  0  0  0  0  0
  -28.1110  -21.6580   23.0410 H   0  0  0  0  0  0  0  0  0  0  0  0
  -30.8720  -15.0880   20.2880 C   0  0  0  0  0  0  0  0  0  0  0  0
  -30.5910  -12.7990   19.3290 C   0  0  0  0  0  2  0  0  0  0  0  0
  -29.6730  -12.8290   18.0920 C   0  0  0  0  0  2  0  0  0  0  0  0
  -28.2060  -12.6390   18.5170 C   0  0  0  0  0  2  0  0  0  0  0  0
  -27.8120  -13.5590   19.7020 C   0  0  0  0  0  3  0  0  0  0  0  0
  -28.8690  -13.5710   20.8320 C   0  0  0  0  0  2  0  0  0  0  0  0
  -30.1620  -13.9040   20.2240 N   0  0  0  0  0  0  0  0  0  0  0  0
  -32.0660  -15.0570   19.9730 O   0  0  0  0  0  0  0  0  0  0  0  0
  -30.7200  -18.8840   21.2920 C   0  0  0  0  0  2  0  0  0  0  0  0
  -28.7040  -18.4300   20.0750 C   0  0  0  0  0  2  0  0  0  0  0  0
  -31.2380  -17.4100   21.0770 C   0  0  0  0  0  2  0  0  0  0  0  0
  -29.0770  -16.8850   19.9470 C   0  0  0  0  0  2  0  0  0  0  0  0
  -29.8800  -19.4470   20.1240 C   0  0  0  0  0  3  0  0  0  0  0  0
  -30.3010  -16.3320   20.6110 N   0  0  0  0  0  0  0  0  0  0  0  0
  -25.4340  -14.1460   20.4540 C   0  0  0  0  0  0  0  0  0  0  0  0
  -24.3720  -13.3710   20.8270 C   0  0  0  0  0  0  0  0  0  0  0  0
  -24.8350  -12.0200   20.7850 C   0  0  0  0  0  0  0  0  0  0  0  0
  -26.4750  -13.2690   20.2030 N   0  0  0  0  0  0  0  0  0  0  0  0
  -26.1240  -11.9840   20.4670 N   0  0  0  0  0  0  0  0  0  0  0  0
  -24.1100  -10.7580   20.9670 C   0  0  0  0  0  0  0  0  0  0  0  0
  -24.5070   -9.8090   21.9340 C   0  0  0  0  0  3  0  0  0  0  0  0
  -23.7790   -8.6130   22.1040 C   0  0  0  0  0  3  0  0  0  0  0  0
  -22.6400   -8.3560   21.3040 C   0  0  0  0  0  0  0  0  0  0  0  0
  -22.2620   -9.2930   20.3270 C   0  0  0  0  0  3  0  0  0  0  0  0
  -22.9910  -10.4820   20.1560 C   0  0  0  0  0  3  0  0  0  0  0  0
  -21.8860   -7.2100   21.3830 O   0  0  0  0  0  0  0  0  0  0  0  0
  -21.7460   -6.5180   22.5590 C   0  0  0  0  0  0  0  0  0  0  0  0
  -21.1390   -7.0940   23.6960 C   0  0  0  0  0  3  0  0  0  0  0  0
  -20.9560   -6.3230   24.8620 C   0  0  0  0  0  3  0  0  0  0  0  0
  -21.3680   -4.9780   24.8890 C   0  0  0  0  0  0  0  0  0  0  0  0
  -21.9660   -4.4010   23.7550 C   0  0  0  0  0  3  0  0  0  0  0  0
  -22.1510   -5.1690   22.5930 C   0  0  0  0  0  0  0  0  0  0  0  0
  -22.7110   -4.6010   21.4970 F   0  0  0  0  0  0  0  0  0  0  0  0
  -21.1840   -4.2350   26.0050 F   0  0  0  0  0  0  0  0  0  0  0  0
  -22.9770  -13.8490   21.1050 C   0  0  0  0  0  0  0  0  0  0  0  0
  -22.2530  -13.1540   21.9750 N   0  0  0  0  0  0  0  0  0  0  0  0
  -22.5360  -14.8730   20.5840 O   0  0  0  0  0  0  0  0  0  0  0  0
  -22.6230  -12.3260   22.4180 H   0  0  0  0  0  0  0  0  0  0  0  0
  -21.3140  -13.4540   22.1990 H   0  0  0  0  0  0  0  0  0  0  0  0
  -25.5890  -15.5190   20.2810 N   0  0  0  0  0  0  0  0  0  0  0  0
  -24.8110  -16.1590   20.3960 H   0  0  0  0  0  0  0  0  0  0  0  0
  -26.4270  -15.9680   19.9370 H   0  0  0  0  0  0  0  0  0  0  0  0
  -27.9070  -25.1760   19.8380 C   0  0  0  0  0  2  0  0  0  0  0  0
  -28.3080  -26.6290   19.9560 O   0  0  0  0  0  0  0  0  0  0  0  0
  -24.5990  -31.9640   23.2430 C   0  0  0  0  0  0  0  0  0  0  0  0
  -27.2280  -27.5600   19.9260 C   0  0  0  0  0  0  0  0  0  0  0  0
  -23.3990  -30.6340   21.5500 C   0  0  0  0  0  3  0  0  0  0  0  0
  -24.8560  -29.1920   20.0210 C   0  0  0  0  0  0  0  0  0  0  0  0
  -25.9400  -30.9860   21.3590 C   0  0  0  0  0  2  0  0  0  0  0  0
  -26.0310  -29.6450   20.6350 C   0  0  0  0  0  0  0  0  0  0  0  0
  -27.2220  -28.8440   20.5770 C   0  0  0  0  0  3  0  0  0  0  0  0
  -26.0230  -27.2020   19.2710 C   0  0  0  0  0  3  0  0  0  0  0  0
  -24.8590  -27.9810   19.3260 C   0  0  0  0  0  3  0  0  0  0  0  0
  -23.6070  -30.0450   20.1330 C   0  0  0  0  0  2  0  0  0  0  0  0
  -24.6660  -31.2100   22.1070 N   0  0  0  0  0  0  0  0  0  0  0  0
  -23.5170  -32.1960   23.8020 O   0  0  0  0  0  0  0  0  0  0  0  0
  -22.7640  -29.5550   22.4620 C   0  0  0  0  0  0  0  0  0  0  0  0
  -21.4410  -29.3500   22.3310 N   0  0  0  0  0  0  0  0  0  0  0  0
  -23.4600  -28.9090   23.2480 O   0  0  0  0  0  0  0  0  0  0  0  0
  -20.9390  -29.9240   21.6700 H   0  0  0  0  0  0  0  0  0  0  0  0
  -18.0900  -28.0700   22.8150 C   0  0  0  0  0  0  0  0  0  0  0  0
  -20.6490  -28.3590   23.0610 C   0  0  0  0  0  3  0  0  0  0  0  0
  -20.7630  -26.9620   22.4060 C   0  0  0  0  0  2  0  0  0  0  0  0
  -19.6510  -26.6760   21.3920 C   0  0  0  0  0  2  0  0  0  0  0  0
  -18.2770  -26.7640   22.0630 C   0  0  0  0  0  2  0  0  0  0  0  0
  -19.2030  -28.8270   23.2690 C   0  0  0  0  0  0  0  0  0  0  0  0
  -18.9720  -30.0520   23.9330 C   0  0  0  0  0  3  0  0  0  0  0  0
  -17.6610  -30.5190   24.1480 C   0  0  0  0  0  3  0  0  0  0  0  0
  -16.5630  -29.7580   23.7100 C   0  0  0  0  0  3  0  0  0  0  0  0
  -16.7790  -28.5350   23.0500 C   0  0  0  0  0  3  0  0  0  0  0  0
  -25.8780  -32.5880   23.8800 C   0  0  0  0  0  3  0  0  0  0  0  0
  -25.5740  -33.9880   24.2080 N   0  0  0  0  0  0  0  0  0  0  0  0
  -25.8780  -35.0370   23.4310 C   0  0  0  0  0  0  0  0  0  0  0  0
  -26.5150  -34.9250   22.3800 O   0  0  0  0  0  0  0  0  0  0  0  0
  -25.0050  -34.1480   25.0260 H   0  0  0  0  0  0  0  0  0  0  0  0
  -24.1210  -36.8130   23.1330 C   0  0  0  0  0  1  0  0  0  0  0  0
  -25.4010  -36.4270   23.8930 C   0  0  0  0  0  3  0  0  0  0  0  0
  -27.5540  -37.3510   24.6280 C   0  0  0  0  0  1  0  0  0  0  0  0
  -26.4190  -37.4870   23.7190 N   0  0  0  0  0  0  0  0  0  0  0  0
  -26.0100  -38.4070   23.8570 H   0  0  0  0  0  0  0  0  0  0  0  0
  -26.3700  -31.8150   25.1650 C   0  0  1  0  0  0  0  0  0  0  0  0
  -25.2570  -31.5770   26.2140 C   0  0  0  0  0  1  0  0  0  0  0  0
  -26.9580  -30.4360   24.7860 C   0  0  0  0  0  1  0  0  0  0  0  0
  -27.5110  -32.6060   25.8470 C   0  0  0  0  0  1  0  0  0  0  0  0
  1  5  1  0
  2  1  2  0
  3  2  1  0
  3  4  2  0
  4  8  1  0
  5  9  1  0
  6  2  1  0
  7  3  1  0
  8  5  2  0
  9 10  1  0
  9 11  1  0
 12 25  1  0
 13 18  1  0
 14 15  1  0
 14 13  1  0
 16 15  1  0
 16 29  1  0
 16 17  1  0
 18 12  1  0
 18 17  1  0
 19 12  2  0
 21 24  1  0
 22 20  1  0
 23 21  1  0
 23 25  1  0
 24  1  1  0
 24 20  1  0
 25 22  1  0
 26 27  2  0
 27 46  1  0
 28 27  1  0
 28 31  1  0
 29 26  1  0
 29 30  1  0
 30 28  2  0
 31 32  1  0
 32 33  2  0
 34 37  1  0
 34 33  1  0
 35 34  2  0
 36 35  1  0
 36 31  2  0
 37 38  1  0
 38 43  2  0
 38 39  1  0
 39 40  2  0
 40 41  1  0
 41 45  1  0
 42 41  2  0
 43 42  1  0
 44 43  1  0
 46 47  1  0
 47 50  1  0
 47 49  1  0
 48 46  2  0
 51 52  1  0
 51 26  1  0
 53 51  1  0
 54 55  1  0
 54  4  1  0
 56 67  2  0
 57 55  1  0
 57 62  1  0
 58 66  1  0
 58 68  1  0
 59 65  1  0
 59 61  1  0
 60 66  1  0
 61 60  1  0
 62 61  2  0
 63 64  1  0
 63 57  2  0
 64 59  2  0
 65 58  1  0
 66 56  1  0
 68 70  2  0
 69 68  1  0
 71 69  1  0
 72 81  2  0
 72 77  1  0
 73 69  1  0
 73 77  1  0
 74 73  1  0
 75 76  1  0
 75 74  1  0
 76 72  1  0
 77 78  2  0
 78 79  1  0
 80 79  2  0
 81 80  1  0
 82 56  1  0
 82 83  1  0
 82 92  1  0
 83 86  1  0
 84 88  1  0
 84 83  1  0
 85 84  2  0
 88 87  1  0
 90 91  1  0
 90 88  1  0
 90 89  1  0
 92 95  1  1
 92 93  1  0
 94 92  1  0
M  ISO  4  12 100  25 100  54 101  55 101
M  END
>  <TORSDO>  (56) 
F 17

>  <SCORE>  (56) 
-14.802

>  <name>  (56) 
55

>  <ligand_id>  (56) 
55

>  <original_smiles>  (56) 
[H]c1c([H])c([H])c2c(c1[H])C([H])([H])C([H])([H])C([H])([H])C2([H])N([H])C(=O)C1([H])N(C(=O)C([H])(N([H])C(=O)C([H])(N([H])C([H])([H])[H])C([H])([H])[H])C(C([H])([H])[H])(C([H])([H])[H])C([H])([H])[H])C([H])([H])c2c([H])c(OC([H])([H])c3nc(N([H])[H])c(C4([H])C([H])([H])C([H])([H])N(C(=O)N5C([H])([H])C([H])([H])C([H])([H])C([H])(n6nc(-c7c([H])c([H])c(Oc8c([H])c([H])c(F)c([H])c8F)c([H])c7[H])c(C(=O)N([H])[H])c6N([H])[H])C5([H])[H])C([H])([H])C4([H])[H])c(C([H])([H])[H])c3C([H])([H])[H])c([H])c([H])c2C1([H])[H]

>  <smiles>  (56) 
[H]c1c([H])c([H])c2c(c1[H])C([H])([H])C([H])([H])C([H])([H])C2([H])N([H])C(=O)C1([H])N(C(=O)C([H])(N([H])C(=O)C([H])(N([H])C([H])([H])[H])C([H])([H])[H])C(C([H])([H])[H])(C([H])([H])[H])C([H])([H])[H])C([H])([H])c2c([H])c(OC([H])([H])c3nc(N([H])[H])c(C4([H])C([H])([H])C([H])([H])N(C(=O)N5C([H])([H])C([H])([H])C([H])([H])C([H])(n6nc(-c7c([H])c([H])c(Oc8c([H])c([H])c(F)c([H])c8F)c([H])c7[H])c(C(=O)N([H])[H])c6N([H])[H])C5([H])[H])C([H])([H])C4([H])[H])c(C([H])([H])[H])c3C([H])([H])[H])c([H])c([H])c2C1([H])[H]

$$$$
56:0:0
     RDKit          3D

 98107  0  0  1  0  0  0  0  0999 V2000
  -31.4380  -20.9390   20.2370 C   0  0  0  0  0  0  0  0  0  0  0  0
  -29.9080  -19.0850   19.8140 C   0  0  0  0  0  0  0  0  0  0  0  0
  -30.0790  -20.5050   20.3510 C   0  0  0  0  0  0  0  0  0  0  0  0
  -32.1050  -20.5990   19.0250 C   0  0  0  0  0  3  0  0  0  0  0  0
  -30.5450  -18.8770   18.5630 C   0  0  0  0  0  0  0  0  0  0  0  0
  -33.3960  -21.2460   18.5470 C   0  0  0  0  0  1  0  0  0  0  0  0
  -30.2680  -17.6860   17.6650 C   0  0  0  0  0  1  0  0  0  0  0  0
  -31.5770  -19.6660   18.2080 N   0  0  0  0  0  0  0  0  0  0  0  0
  -32.0740  -19.4470   17.3420 H   0  0  0  0  0  0  0  0  0  0  0  0
  -33.5560  -21.4150   21.7660 C   0  0  0  0  0  2  0  0  0  0  0  0
  -32.3990  -21.3910   22.7150 C   0  0  0  0  0  2  0  0  0  0  0  0
  -32.1670  -21.7960   21.2630 C   0  0  0  0  0  3  0  0  0  0  0  0
  -30.7010  -17.7580   21.9090 C   0  0  0  0  0  1  0  0  0  0  0  0
  -29.8100  -17.6520   20.6640 C   0  0  0  0  0  0  0  0  0  0  0  0
  -30.4820  -14.9100   20.0160 C   0  0  0  0  0  0  0  0  0  0  0  0
  -30.2670  -12.6050   18.9450 C   0  0  0  0  0  2  0  0  0  0  0  0
  -29.2610  -12.6080   17.7750 C   0  0  0  0  0  2  0  0  0  0  0  0
  -27.8080  -12.4190   18.2710 C   0  0  0  0  0  2  0  0  0  0  0  0
  -27.4860  -13.2630   19.5390 C   0  0  0  0  0  3  0  0  0  0  0  0
  -28.6210  -13.2090   20.5820 C   0  0  0  0  0  2  0  0  0  0  0  0
  -29.8460  -13.6670   19.9020 N   0  0  0  0  0  0  0  0  0  0  0  0
  -31.6930  -14.9360   19.7670 O   0  0  0  0  0  0  0  0  0  0  0  0
  -29.7110  -16.1080   20.1720 N   0  0  0  0  0  4  0  0  0  0  0  0
  -28.7430  -15.8530   20.0540 H   0  0  0  0  0  0  0  0  0  0  0  0
  -25.1450  -13.8140   20.4160 C   0  0  0  0  0  0  0  0  0  0  0  0
  -24.1010  -13.0290   20.8410 C   0  0  0  0  0  0  0  0  0  0  0  0
  -24.5660  -11.6820   20.7640 C   0  0  0  0  0  0  0  0  0  0  0  0
  -26.1760  -12.9420   20.1070 N   0  0  0  0  0  0  0  0  0  0  0  0
  -25.8400  -11.6540   20.3780 N   0  0  0  0  0  0  0  0  0  0  0  0
  -23.8460  -10.4170   20.9750 C   0  0  0  0  0  0  0  0  0  0  0  0
  -24.3100   -9.4510   21.8950 C   0  0  0  0  0  3  0  0  0  0  0  0
  -23.5950   -8.2480   22.0960 C   0  0  0  0  0  3  0  0  0  0  0  0
  -22.3990   -8.0070   21.3770 C   0  0  0  0  0  0  0  0  0  0  0  0
  -21.9550   -8.9600   20.4430 C   0  0  0  0  0  3  0  0  0  0  0  0
  -22.6700  -10.1550   20.2410 C   0  0  0  0  0  3  0  0  0  0  0  0
  -21.6540   -6.8600   21.4890 O   0  0  0  0  0  0  0  0  0  0  0  0
  -21.6300   -6.1210   22.6450 C   0  0  0  0  0  0  0  0  0  0  0  0
  -21.2160   -6.6750   23.8750 C   0  0  0  0  0  3  0  0  0  0  0  0
  -21.1430   -5.8630   25.0260 C   0  0  0  0  0  3  0  0  0  0  0  0
  -21.4710   -4.4960   24.9460 C   0  0  0  0  0  0  0  0  0  0  0  0
  -21.8700   -3.9390   23.7170 C   0  0  0  0  0  3  0  0  0  0  0  0
  -21.9460   -4.7490   22.5700 C   0  0  0  0  0  0  0  0  0  0  0  0
  -22.3160   -4.2030   21.3870 F   0  0  0  0  0  0  0  0  0  0  0  0
  -21.3930   -3.7130   26.0450 F   0  0  0  0  0  0  0  0  0  0  0  0
  -22.7210  -13.5040   21.1860 C   0  0  0  0  0  0  0  0  0  0  0  0
  -22.0280  -12.7990   22.0780 N   0  0  0  0  0  0  0  0  0  0  0  0
  -22.2560  -14.5340   20.7000 O   0  0  0  0  0  0  0  0  0  0  0  0
  -22.4030  -11.9670   22.5080 H   0  0  0  0  0  0  0  0  0  0  0  0
  -21.0990  -13.1080   22.3330 H   0  0  0  0  0  0  0  0  0  0  0  0
  -25.2860  -15.1860   20.2430 N   0  0  0  0  0  0  0  0  0  0  0  0
  -24.5120  -15.8260   20.3890 H   0  0  0  0  0  0  0  0  0  0  0  0
  -26.0740  -15.6340   19.7920 H   0  0  0  0  0  0  0  0  0  0  0  0
  -29.0770  -21.6370   20.4460 N   0  0  0  0  0  0  0  0  0  0  0  0
  -28.1070  -21.3540   20.3530 H   0  0  0  0  0  0  0  0  0  0  0  0
  -29.3420  -23.3020   22.2980 C   0  0  0  0  0  1  0  0  0  0  0  0
  -29.2260  -23.1880   20.7650 C   0  0  0  0  0  3  0  0  0  0  0  0
  -28.1670  -24.4430   20.2370 C   0  0  0  0  0  2  0  0  0  0  0  0
  -28.3120  -26.0090   20.4090 O   0  0  0  0  0  0  0  0  0  0  0  0
  -24.6210  -31.7710   23.1970 C   0  0  0  0  0  0  0  0  0  0  0  0
  -27.2430  -26.9890   20.2760 C   0  0  0  0  0  0  0  0  0  0  0  0
  -23.4430  -30.3650   21.5450 C   0  0  0  0  0  3  0  0  0  0  0  0
  -24.9110  -28.7580   20.1610 C   0  0  0  0  0  0  0  0  0  0  0  0
  -26.0010  -30.6090   21.4290 C   0  0  0  0  0  2  0  0  0  0  0  0
  -26.0800  -29.2070   20.7900 C   0  0  0  0  0  0  0  0  0  0  0  0
  -27.2430  -28.3430   20.8190 C   0  0  0  0  0  3  0  0  0  0  0  0
  -26.0490  -26.6460   19.6010 C   0  0  0  0  0  3  0  0  0  0  0  0
  -24.9150  -27.4950   19.5440 C   0  0  0  0  0  3  0  0  0  0  0  0
  -23.6860  -29.6610   20.1790 C   0  0  0  0  0  2  0  0  0  0  0  0
  -24.7080  -30.9390   22.1130 N   0  0  0  0  0  0  0  0  0  0  0  0
  -23.5260  -32.0680   23.7000 O   0  0  0  0  0  0  0  0  0  0  0  0
  -22.7330  -29.3830   22.5110 C   0  0  0  0  0  0  0  0  0  0  0  0
  -21.4010  -29.2400   22.3770 N   0  0  0  0  0  0  0  0  0  0  0  0
  -23.3840  -28.7490   23.3440 O   0  0  0  0  0  0  0  0  0  0  0  0
  -20.9370  -29.8050   21.6800 H   0  0  0  0  0  0  0  0  0  0  0  0
  -17.9930  -28.1040   22.8730 C   0  0  0  0  0  0  0  0  0  0  0  0
  -20.5560  -28.3190   23.1440 C   0  0  0  0  0  3  0  0  0  0  0  0
  -20.6300  -26.8860   22.5660 C   0  0  0  0  0  2  0  0  0  0  0  0
  -19.5230  -26.5860   21.5510 C   0  0  0  0  0  2  0  0  0  0  0  0
  -18.1430  -26.7540   22.1910 C   0  0  0  0  0  2  0  0  0  0  0  0
  -19.1230  -28.8440   23.3050 C   0  0  0  0  0  0  0  0  0  0  0  0
  -18.9250  -30.1070   23.9050 C   0  0  0  0  0  3  0  0  0  0  0  0
  -17.6270  -30.6260   24.0790 C   0  0  0  0  0  3  0  0  0  0  0  0
  -16.5110  -29.8830   23.6580 C   0  0  0  0  0  3  0  0  0  0  0  0
  -16.6950  -28.6210   23.0630 C   0  0  0  0  0  3  0  0  0  0  0  0
  -25.8900  -32.4050   23.8450 C   0  0  0  0  0  3  0  0  0  0  0  0
  -25.5730  -33.8040   24.1850 N   0  0  0  0  0  0  0  0  0  0  0  0
  -25.8960  -34.8650   23.4360 C   0  0  0  0  0  0  0  0  0  0  0  0
  -26.5550  -34.7750   22.3980 O   0  0  0  0  0  0  0  0  0  0  0  0
  -24.9890  -33.9480   24.9950 H   0  0  0  0  0  0  0  0  0  0  0  0
  -24.1490  -36.6550   23.1360 C   0  0  0  0  0  1  0  0  0  0  0  0
  -25.4130  -36.2520   23.9120 C   0  0  0  0  0  3  0  0  0  0  0  0
  -27.5620  -37.1470   24.6960 C   0  0  0  0  0  1  0  0  0  0  0  0
  -26.4370  -37.3110   23.7790 N   0  0  0  0  0  0  0  0  0  0  0  0
  -26.0300  -38.2290   23.9450 H   0  0  0  0  0  0  0  0  0  0  0  0
  -26.3850  -31.6300   25.1270 C   0  0  1  0  0  0  0  0  0  0  0  0
  -25.2770  -31.3920   26.1800 C   0  0  0  0  0  1  0  0  0  0  0  0
  -26.9710  -30.2520   24.7470 C   0  0  0  0  0  1  0  0  0  0  0  0
  -27.5300  -32.4200   25.8040 C   0  0  0  0  0  1  0  0  0  0  0  0
  1  3  2  0
  1 12  1  0
  2  3  1  0
  2 14  1  0
  3 53  1  0
  4  6  1  0
  4  1  1  0
  5  2  2  0
  7  5  1  0
  8  5  1  0
  8  4  1  0
  9  8  1  0
 10 11  1  0
 12 10  1  0
 12 11  1  0
 14 13  1  0
 15 23  1  0
 16 21  1  0
 17 18  1  0
 17 16  1  0
 19 18  1  0
 19 28  1  0
 19 20  1  0
 21 15  1  0
 21 20  1  0
 22 15  2  0
 23 14  2  0
 24 23  1  0
 25 26  2  0
 26 45  1  0
 27 26  1  0
 27 30  1  0
 28 29  1  0
 28 25  1  0
 29 27  2  0
 30 31  1  0
 31 32  2  0
 33 36  1  0
 33 32  1  0
 34 33  2  0
 35 34  1  0
 35 30  2  0
 36 37  1  0
 37 38  1  0
 38 39  2  0
 40 39  1  0
 40 44  1  0
 41 40  2  0
 42 37  2  0
 42 41  1  0
 43 42  1  0
 45 46  1  0
 46 49  1  0
 46 48  1  0
 47 45  2  0
 50 51  1  0
 50 25  1  0
 52 50  1  0
 53 56  1  0
 54 53  1  0
 56 55  1  0
 57 58  1  0
 57 56  1  0
 59 70  2  0
 60 58  1  0
 60 65  1  0
 61 69  1  0
 61 71  1  0
 62 68  1  0
 62 64  1  0
 63 69  1  0
 64 65  2  0
 64 63  1  0
 66 60  2  0
 67 66  1  0
 67 62  2  0
 68 61  1  0
 69 59  1  0
 71 73  2  0
 72 71  1  0
 74 72  1  0
 75 84  2  0
 75 80  1  0
 76 72  1  0
 76 80  1  0
 77 76  1  0
 78 79  1  0
 78 77  1  0
 79 75  1  0
 80 81  2  0
 81 82  1  0
 83 82  2  0
 84 83  1  0
 85 59  1  0
 85 86  1  0
 85 95  1  0
 86 89  1  0
 87 91  1  0
 87 86  1  0
 88 87  2  0
 91 90  1  0
 93 91  1  0
 93 94  1  0
 93 92  1  0
 95 98  1  1
 95 96  1  0
 97 95  1  0
M  ISO  4  15 100  23 100  57 101  58 101
M  END
>  <TORSDO>  (57) 
F 21

>  <SCORE>  (57) 
-13.480

>  <name>  (57) 
56

>  <ligand_id>  (57) 
56

>  <original_smiles>  (57) 
[H]c1c([H])c([H])c2c(c1[H])C([H])([H])C([H])([H])C([H])([H])C2([H])N([H])C(=O)C1([H])N(C(=O)C([H])(N([H])C(=O)C([H])(N([H])C([H])([H])[H])C([H])([H])[H])C(C([H])([H])[H])(C([H])([H])[H])C([H])([H])[H])C([H])([H])c2c([H])c(OC([H])([H])C([H])(N([H])c3c(C([H])(N([H])C(=O)N4C([H])([H])C([H])([H])C([H])([H])C([H])(n5nc(-c6c([H])c([H])c(Oc7c([H])c([H])c(F)c([H])c7F)c([H])c6[H])c(C(=O)N([H])[H])c5N([H])[H])C4([H])[H])C([H])([H])[H])c(C([H])([H])[H])[n+]([H])c(C([H])([H])[H])c3C3([H])C([H])([H])C3([H])[H])C([H])([H])[H])c([H])c([H])c2C1([H])[H]

>  <smiles>  (57) 
[H]c1c([H])c([H])c2c(c1[H])C([H])([H])C([H])([H])C([H])([H])C2([H])N([H])C(=O)C1([H])N(C(=O)C([H])(N([H])C(=O)C([H])(N([H])C([H])([H])[H])C([H])([H])[H])C(C([H])([H])[H])(C([H])([H])[H])C([H])([H])[H])C([H])([H])c2c([H])c(OC([H])([H])C([H])(N([H])c3c(C([H])(N([H])C(=O)N4C([H])([H])C([H])([H])C([H])([H])C([H])(n5nc(-c6c([H])c([H])c(Oc7c([H])c([H])c(F)c([H])c7F)c([H])c6[H])c(C(=O)N([H])[H])c5N([H])[H])C4([H])[H])C([H])([H])[H])c(C([H])([H])[H])[n+]([H])c(C([H])([H])[H])c3C3([H])C([H])([H])C3([H])[H])C([H])([H])[H])c([H])c([H])c2C1([H])[H]

$$$$
57:0:0
     RDKit          3D

 93102  0  0  1  0  0  0  0  0999 V2000
  -31.1380  -20.2000   19.3840 C   0  0  0  0  0  3  0  0  0  0  0  0
  -30.8020  -21.5970   19.2900 C   0  0  0  0  0  0  0  0  0  0  0  0
  -29.5370  -22.1230   19.7320 C   0  0  0  0  0  0  0  0  0  0  0  0
  -30.2750  -19.1900   19.8920 C   0  0  0  0  0  0  0  0  0  0  0  0
  -28.7170  -21.0490   20.2500 C   0  0  0  0  0  0  0  0  0  0  0  0
  -31.8510  -22.5100   18.6680 C   0  0  0  0  0  1  0  0  0  0  0  0
  -27.3200  -21.3690   20.7510 C   0  0  0  0  0  1  0  0  0  0  0  0
  -29.0660  -19.6870   20.3380 N   0  0  0  0  0  0  0  0  0  0  0  0
  -30.8990  -15.0390   19.8270 C   0  0  0  0  0  0  0  0  0  0  0  0
  -30.6060  -12.7400   18.7770 C   0  0  0  0  0  2  0  0  0  0  0  0
  -29.5830  -12.7520   17.6170 C   0  0  0  0  0  2  0  0  0  0  0  0
  -28.1560  -12.5420   18.1560 C   0  0  0  0  0  2  0  0  0  0  0  0
  -27.8580  -13.4340   19.3880 C   0  0  0  0  0  3  0  0  0  0  0  0
  -28.9950  -13.3640   20.4260 C   0  0  0  0  0  2  0  0  0  0  0  0
  -30.2300  -13.8090   19.7530 N   0  0  0  0  0  0  0  0  0  0  0  0
  -32.0130  -15.0770   19.2930 O   0  0  0  0  0  0  0  0  0  0  0  0
  -30.5010  -17.3500   22.5060 C   0  0  0  0  0  2  0  0  0  0  0  0
  -31.5930  -17.8410   21.5750 C   0  0  0  0  0  2  0  0  0  0  0  0
  -29.8750  -16.1760   21.7420 C   0  0  0  0  0  2  0  0  0  0  0  0
  -30.9240  -17.6960   20.2060 C   0  0  0  0  0  3  0  0  0  0  0  0
  -30.3060  -16.2460   20.3270 N   0  0  0  0  0  0  0  0  0  0  0  0
  -25.5690  -14.0240   20.3690 C   0  0  0  0  0  0  0  0  0  0  0  0
  -24.5130  -13.2550   20.7760 C   0  0  0  0  0  0  0  0  0  0  0  0
  -24.9290  -11.8970   20.6110 C   0  0  0  0  0  0  0  0  0  0  0  0
  -26.5560  -13.1370   19.9770 N   0  0  0  0  0  0  0  0  0  0  0  0
  -26.1870  -11.8470   20.1870 N   0  0  0  0  0  0  0  0  0  0  0  0
  -24.1790  -10.6430   20.7760 C   0  0  0  0  0  0  0  0  0  0  0  0
  -24.6350   -9.6200   21.6340 C   0  0  0  0  0  3  0  0  0  0  0  0
  -23.8880   -8.4320   21.7930 C   0  0  0  0  0  3  0  0  0  0  0  0
  -22.6710   -8.2630   21.0950 C   0  0  0  0  0  0  0  0  0  0  0  0
  -22.2300   -9.2760   20.2260 C   0  0  0  0  0  3  0  0  0  0  0  0
  -22.9770  -10.4540   20.0650 C   0  0  0  0  0  3  0  0  0  0  0  0
  -21.8920   -7.1340   21.1660 O   0  0  0  0  0  0  0  0  0  0  0  0
  -21.8490   -6.3580   22.2980 C   0  0  0  0  0  0  0  0  0  0  0  0
  -21.4240   -6.8760   23.5410 C   0  0  0  0  0  3  0  0  0  0  0  0
  -21.3320   -6.0280   24.6620 C   0  0  0  0  0  3  0  0  0  0  0  0
  -21.6500   -4.6620   24.5400 C   0  0  0  0  0  0  0  0  0  0  0  0
  -22.0650   -4.1420   23.3010 C   0  0  0  0  0  3  0  0  0  0  0  0
  -22.1610   -4.9880   22.1830 C   0  0  0  0  0  0  0  0  0  0  0  0
  -22.5420   -4.4780   20.9870 F   0  0  0  0  0  0  0  0  0  0  0  0
  -21.5540   -3.8450   25.6160 F   0  0  0  0  0  0  0  0  0  0  0  0
  -23.1610  -13.7480   21.1990 C   0  0  0  0  0  0  0  0  0  0  0  0
  -22.4940  -13.0230   22.0890 N   0  0  0  0  0  0  0  0  0  0  0  0
  -22.7090  -14.8120   20.7770 O   0  0  0  0  0  0  0  0  0  0  0  0
  -22.8710  -12.1610   22.4510 H   0  0  0  0  0  0  0  0  0  0  0  0
  -21.5880  -13.3340   22.4120 H   0  0  0  0  0  0  0  0  0  0  0  0
  -25.7610  -15.3990   20.2750 N   0  0  0  0  0  0  0  0  0  0  0  0
  -25.0340  -16.0650   20.5120 H   0  0  0  0  0  0  0  0  0  0  0  0
  -26.5990  -15.8400   19.9150 H   0  0  0  0  0  0  0  0  0  0  0  0
  -28.2500  -23.7170   18.1480 C   0  0  0  0  0  1  0  0  0  0  0  0
  -29.1080  -23.7000   19.4240 C   0  0  0  0  0  3  0  0  0  0  0  0
  -28.5170  -24.8590   20.4590 C   0  0  0  0  0  2  0  0  0  0  0  0
  -28.6190  -26.3790   20.2120 O   0  0  0  0  0  0  0  0  0  0  0  0
  -24.6890  -31.8460   23.1560 C   0  0  0  0  0  0  0  0  0  0  0  0
  -27.4900  -27.2570   20.1960 C   0  0  0  0  0  0  0  0  0  0  0  0
  -23.5730  -30.4190   21.4840 C   0  0  0  0  0  3  0  0  0  0  0  0
  -25.1010  -28.8880   20.1010 C   0  0  0  0  0  0  0  0  0  0  0  0
  -26.1130  -30.7760   21.3760 C   0  0  0  0  0  2  0  0  0  0  0  0
  -26.2450  -29.3860   20.7370 C   0  0  0  0  0  0  0  0  0  0  0  0
  -27.4430  -28.5860   20.7650 C   0  0  0  0  0  3  0  0  0  0  0  0
  -26.3190  -26.8370   19.5340 C   0  0  0  0  0  3  0  0  0  0  0  0
  -25.1490  -27.6270   19.4830 C   0  0  0  0  0  3  0  0  0  0  0  0
  -23.8450  -29.7460   20.1100 C   0  0  0  0  0  2  0  0  0  0  0  0
  -24.8100  -31.0350   22.0620 N   0  0  0  0  0  0  0  0  0  0  0  0
  -23.5820  -32.0930   23.6600 O   0  0  0  0  0  0  0  0  0  0  0  0
  -22.9010  -29.3900   22.4290 C   0  0  0  0  0  0  0  0  0  0  0  0
  -21.5780  -29.1990   22.2840 N   0  0  0  0  0  0  0  0  0  0  0  0
  -23.5760  -28.7660   23.2530 O   0  0  0  0  0  0  0  0  0  0  0  0
  -21.0900  -29.7530   21.5930 H   0  0  0  0  0  0  0  0  0  0  0  0
  -18.2070  -27.9710   22.7560 C   0  0  0  0  0  0  0  0  0  0  0  0
  -20.7620  -28.2420   23.0370 C   0  0  0  0  0  3  0  0  0  0  0  0
  -20.8790  -26.8230   22.4350 C   0  0  0  0  0  2  0  0  0  0  0  0
  -19.7800  -26.5120   21.4130 C   0  0  0  0  0  2  0  0  0  0  0  0
  -18.3950  -26.6380   22.0520 C   0  0  0  0  0  2  0  0  0  0  0  0
  -19.3200  -28.7310   23.2050 C   0  0  0  0  0  0  0  0  0  0  0  0
  -19.0900  -29.9790   23.8210 C   0  0  0  0  0  3  0  0  0  0  0  0
  -17.7810  -30.4700   23.9920 C   0  0  0  0  0  3  0  0  0  0  0  0
  -16.6820  -29.7050   23.5590 C   0  0  0  0  0  3  0  0  0  0  0  0
  -16.8970  -28.4580   22.9480 C   0  0  0  0  0  3  0  0  0  0  0  0
  -25.9320  -32.5180   23.8170 C   0  0  0  0  0  3  0  0  0  0  0  0
  -25.5740  -33.9050   24.1480 N   0  0  0  0  0  0  0  0  0  0  0  0
  -25.8900  -34.9730   23.4050 C   0  0  0  0  0  0  0  0  0  0  0  0
  -26.5830  -34.8970   22.3860 O   0  0  0  0  0  0  0  0  0  0  0  0
  -24.9660  -34.0340   24.9430 H   0  0  0  0  0  0  0  0  0  0  0  0
  -24.1180  -36.7180   23.0290 C   0  0  0  0  0  1  0  0  0  0  0  0
  -25.3540  -36.3440   23.8630 C   0  0  0  0  0  3  0  0  0  0  0  0
  -27.4420  -37.2880   24.7460 C   0  0  0  0  0  1  0  0  0  0  0  0
  -26.3580  -37.4280   23.7780 N   0  0  0  0  0  0  0  0  0  0  0  0
  -25.9200  -38.3330   23.9180 H   0  0  0  0  0  0  0  0  0  0  0  0
  -26.4350  -31.7560   25.1060 C   0  0  1  0  0  0  0  0  0  0  0  0
  -25.3170  -31.4750   26.1350 C   0  0  0  0  0  1  0  0  0  0  0  0
  -27.0770  -30.4020   24.7260 C   0  0  0  0  0  1  0  0  0  0  0  0
  -27.5360  -32.5840   25.8090 C   0  0  0  0  0  1  0  0  0  0  0  0
  1  4  1  0
  2  1  2  0
  2  3  1  0
  3  5  2  0
  4  8  2  0
  5  8  1  0
  5  7  1  0
  6  2  1  0
  9 21  1  0
 10 15  1  0
 11 12  1  0
 11 10  1  0
 13 12  1  0
 13 25  1  0
 13 14  1  0
 15  9  1  0
 15 14  1  0
 16  9  2  0
 18 17  1  0
 19 17  1  0
 20  4  1  0
 20 21  1  0
 20 18  1  0
 21 19  1  0
 22 23  2  0
 23 42  1  0
 24 27  1  0
 24 23  1  0
 25 26  1  0
 25 22  1  0
 26 24  2  0
 27 28  1  0
 28 29  2  0
 30 33  1  0
 30 29  1  0
 31 30  2  0
 32 31  1  0
 32 27  2  0
 33 34  1  0
 34 35  1  0
 35 36  2  0
 37 36  1  0
 37 41  1  0
 38 37  2  0
 39 34  2  0
 39 38  1  0
 40 39  1  0
 42 43  1  0
 43 46  1  0
 43 45  1  0
 44 42  2  0
 47 22  1  0
 47 48  1  0
 49 47  1  0
 51 50  1  0
 51  3  1  0
 51 52  1  0
 53 52  1  0
 54 65  2  0
 55 53  1  0
 55 60  1  0
 56 64  1  0
 56 66  1  0
 57 63  1  0
 57 59  1  0
 58 64  1  0
 59 60  2  0
 59 58  1  0
 61 55  2  0
 62 61  1  0
 62 57  2  0
 63 56  1  0
 64 54  1  0
 66 68  2  0
 67 66  1  0
 69 67  1  0
 70 79  2  0
 70 75  1  0
 71 67  1  0
 71 75  1  0
 72 71  1  0
 73 74  1  0
 73 72  1  0
 74 70  1  0
 75 76  2  0
 76 77  1  0
 78 77  2  0
 79 78  1  0
 80 54  1  0
 80 81  1  0
 80 90  1  0
 81 84  1  0
 82 86  1  0
 82 81  1  0
 83 82  2  0
 86 85  1  0
 88 86  1  0
 88 89  1  0
 88 87  1  0
 90 93  1  1
 90 91  1  0
 92 90  1  0
M  ISO  4   9 100  21 100  52 101  53 101
M  END
>  <TORSDO>  (58) 
F 18

>  <SCORE>  (58) 
-13.636

>  <name>  (58) 
57

>  <ligand_id>  (58) 
57

>  <original_smiles>  (58) 
[H]c1c([H])c([H])c2c(c1[H])C([H])([H])C([H])([H])C([H])([H])C2([H])N([H])C(=O)C1([H])N(C(=O)C([H])(N([H])C(=O)C([H])(N([H])C([H])([H])[H])C([H])([H])[H])C(C([H])([H])[H])(C([H])([H])[H])C([H])([H])[H])C([H])([H])c2c([H])c(OC([H])([H])C([H])(c3c(C([H])([H])[H])nc(C4([H])N(C(=O)N5C([H])([H])C([H])([H])C([H])([H])C([H])(n6nc(-c7c([H])c([H])c(Oc8c([H])c([H])c(F)c([H])c8F)c([H])c7[H])c(C(=O)N([H])[H])c6N([H])[H])C5([H])[H])C([H])([H])C([H])([H])C4([H])[H])c([H])c3C([H])([H])[H])C([H])([H])[H])c([H])c([H])c2C1([H])[H]

>  <smiles>  (58) 
[H]c1c([H])c([H])c2c(c1[H])C([H])([H])C([H])([H])C([H])([H])C2([H])N([H])C(=O)C1([H])N(C(=O)C([H])(N([H])C(=O)C([H])(N([H])C([H])([H])[H])C([H])([H])[H])C(C([H])([H])[H])(C([H])([H])[H])C([H])([H])[H])C([H])([H])c2c([H])c(OC([H])([H])C([H])(c3c(C([H])([H])[H])nc(C4([H])N(C(=O)N5C([H])([H])C([H])([H])C([H])([H])C([H])(n6nc(-c7c([H])c([H])c(Oc8c([H])c([H])c(F)c([H])c8F)c([H])c7[H])c(C(=O)N([H])[H])c6N([H])[H])C5([H])[H])C([H])([H])C([H])([H])C4([H])[H])c([H])c3C([H])([H])[H])C([H])([H])[H])c([H])c([H])c2C1([H])[H]

$$$$
58:0:0
     RDKit          3D

 93102  0  0  1  0  0  0  0  0999 V2000
  -30.5370  -15.1600   20.3190 C   0  0  0  0  0  0  0  0  0  0  0  0
  -30.4620  -12.7180   19.5520 C   0  0  0  0  0  2  0  0  0  0  0  0
  -29.5720  -12.5580   18.2950 C   0  0  0  0  0  2  0  0  0  0  0  0
  -28.0970  -12.3670   18.6930 C   0  0  0  0  0  2  0  0  0  0  0  0
  -27.6490  -13.3720   19.7840 C   0  0  0  0  0  3  0  0  0  0  0  0
  -28.6650  -13.4840   20.9400 C   0  0  0  0  0  2  0  0  0  0  0  0
  -29.9480  -13.8830   20.3440 N   0  0  0  0  0  0  0  0  0  0  0  0
  -31.7520  -15.1670   20.0760 O   0  0  0  0  0  0  0  0  0  0  0  0
  -28.8680  -18.9350   20.3770 C   0  0  0  0  0  3  0  0  0  0  0  0
  -29.0290  -20.3850   20.0940 C   0  0  0  0  0  0  0  0  0  0  0  0
  -30.2250  -20.8340   19.5700 C   0  0  0  0  0  0  0  0  0  0  0  0
  -31.2220  -19.8190   19.3670 C   0  0  0  0  0  0  0  0  0  0  0  0
  -29.9130  -17.9080   20.1470 C   0  0  0  0  0  0  0  0  0  0  0  0
  -28.0930  -21.6750   20.2290 C   0  0  0  0  0  3  0  0  0  0  0  0
  -28.9250  -23.0840   19.9940 C   0  0  0  0  0  3  0  0  0  0  0  0
  -30.2030  -22.4070   19.2710 C   0  0  2  0  0  0  0  0  0  0  0  0
  -32.5910  -20.1570   18.8120 C   0  0  0  0  0  1  0  0  0  0  0  0
  -27.3190  -21.6640   21.5530 C   0  0  0  0  0  1  0  0  0  0  0  0
  -30.0640  -22.6130   17.7510 C   0  0  0  0  0  1  0  0  0  0  0  0
  -31.4790  -23.1080   19.7690 C   0  0  0  0  0  1  0  0  0  0  0  0
  -31.0610  -18.4690   19.6460 N   0  0  0  0  0  0  0  0  0  0  0  0
  -29.7460  -16.3710   20.4030 N   0  0  0  0  0  0  0  0  0  0  0  0
  -28.7980  -16.1410   20.6520 H   0  0  0  0  0  0  0  0  0  0  0  0
  -25.2740  -14.0150   20.4740 C   0  0  0  0  0  0  0  0  0  0  0  0
  -24.1820  -13.2720   20.8260 C   0  0  0  0  0  0  0  0  0  0  0  0
  -24.6090  -11.9080   20.8100 C   0  0  0  0  0  0  0  0  0  0  0  0
  -26.2960  -13.1080   20.2580 N   0  0  0  0  0  0  0  0  0  0  0  0
  -25.9040  -11.8350   20.5280 N   0  0  0  0  0  0  0  0  0  0  0  0
  -23.8410  -10.6680   20.9880 C   0  0  0  0  0  0  0  0  0  0  0  0
  -24.2430   -9.6750   21.9090 C   0  0  0  0  0  3  0  0  0  0  0  0
  -23.4760   -8.5020   22.0770 C   0  0  0  0  0  3  0  0  0  0  0  0
  -22.2920   -8.3140   21.3240 C   0  0  0  0  0  0  0  0  0  0  0  0
  -21.9090   -9.2940   20.3920 C   0  0  0  0  0  3  0  0  0  0  0  0
  -22.6760  -10.4590   20.2230 C   0  0  0  0  0  3  0  0  0  0  0  0
  -21.4970   -7.1950   21.4030 O   0  0  0  0  0  0  0  0  0  0  0  0
  -21.4520   -6.4240   22.5360 C   0  0  0  0  0  0  0  0  0  0  0  0
  -21.0870   -6.9610   23.7900 C   0  0  0  0  0  3  0  0  0  0  0  0
  -20.9860   -6.1170   24.9150 C   0  0  0  0  0  3  0  0  0  0  0  0
  -21.2390   -4.7390   24.7870 C   0  0  0  0  0  0  0  0  0  0  0  0
  -21.5950   -4.2010   23.5380 C   0  0  0  0  0  3  0  0  0  0  0  0
  -21.6990   -5.0410   22.4160 C   0  0  0  0  0  0  0  0  0  0  0  0
  -22.0230   -4.5140   21.2090 F   0  0  0  0  0  0  0  0  0  0  0  0
  -21.1330   -3.9270   25.8650 F   0  0  0  0  0  0  0  0  0  0  0  0
  -22.7930  -13.7900   21.0590 C   0  0  0  0  0  0  0  0  0  0  0  0
  -22.0280  -13.1260   21.9180 N   0  0  0  0  0  0  0  0  0  0  0  0
  -22.3950  -14.8200   20.5160 O   0  0  0  0  0  0  0  0  0  0  0  0
  -22.3630  -12.2930   22.3800 H   0  0  0  0  0  0  0  0  0  0  0  0
  -21.0940  -13.4550   22.1190 H   0  0  0  0  0  0  0  0  0  0  0  0
  -25.4780  -15.3800   20.2910 N   0  0  0  0  0  0  0  0  0  0  0  0
  -24.7170  -16.0460   20.3670 H   0  0  0  0  0  0  0  0  0  0  0  0
  -26.3200  -15.7880   19.9080 H   0  0  0  0  0  0  0  0  0  0  0  0
  -28.1610  -24.5630   19.4650 C   0  0  0  0  0  2  0  0  0  0  0  0
  -28.4050  -26.1190   19.7190 O   0  0  0  0  0  0  0  0  0  0  0  0
  -24.6270  -31.6390   22.9830 C   0  0  0  0  0  0  0  0  0  0  0  0
  -27.3410  -27.1240   19.6970 C   0  0  0  0  0  0  0  0  0  0  0  0
  -23.4710  -30.2970   21.2710 C   0  0  0  0  0  3  0  0  0  0  0  0
  -24.9660  -28.8440   19.7580 C   0  0  0  0  0  0  0  0  0  0  0  0
  -26.0200  -30.6340   21.1240 C   0  0  0  0  0  2  0  0  0  0  0  0
  -26.1360  -29.2780   20.3940 C   0  0  0  0  0  0  0  0  0  0  0  0
  -27.3210  -28.4370   20.3440 C   0  0  0  0  0  3  0  0  0  0  0  0
  -26.1400  -26.8150   19.0190 C   0  0  0  0  0  3  0  0  0  0  0  0
  -24.9850  -27.6300   19.0530 C   0  0  0  0  0  3  0  0  0  0  0  0
  -23.7130  -29.7040   19.8570 C   0  0  0  0  0  2  0  0  0  0  0  0
  -24.7250  -30.8780   21.8480 N   0  0  0  0  0  0  0  0  0  0  0  0
  -23.5320  -31.8600   23.5240 O   0  0  0  0  0  0  0  0  0  0  0  0
  -22.8230  -29.2200   22.1780 C   0  0  0  0  0  0  0  0  0  0  0  0
  -21.4930  -29.0420   22.0710 N   0  0  0  0  0  0  0  0  0  0  0  0
  -23.5200  -28.5500   22.9450 O   0  0  0  0  0  0  0  0  0  0  0  0
  -20.9850  -29.6350   21.4300 H   0  0  0  0  0  0  0  0  0  0  0  0
  -18.1340  -27.7880   22.6050 C   0  0  0  0  0  0  0  0  0  0  0  0
  -20.7010  -28.0430   22.7960 C   0  0  0  0  0  3  0  0  0  0  0  0
  -20.7830  -26.6610   22.1060 C   0  0  0  0  0  2  0  0  0  0  0  0
  -19.6460  -26.4140   21.1100 C   0  0  0  0  0  2  0  0  0  0  0  0
  -18.2890  -26.4990   21.8150 C   0  0  0  0  0  2  0  0  0  0  0  0
  -19.2660  -28.5210   23.0500 C   0  0  0  0  0  0  0  0  0  0  0  0
  -19.0640  -29.7290   23.7530 C   0  0  0  0  0  3  0  0  0  0  0  0
  -17.7650  -30.2050   24.0110 C   0  0  0  0  0  3  0  0  0  0  0  0
  -16.6480  -29.4690   23.5780 C   0  0  0  0  0  3  0  0  0  0  0  0
  -16.8350  -28.2620   22.8810 C   0  0  0  0  0  3  0  0  0  0  0  0
  -25.8820  -32.2840   23.6440 C   0  0  0  0  0  3  0  0  0  0  0  0
  -25.5190  -33.6470   24.0680 N   0  0  0  0  0  0  0  0  0  0  0  0
  -25.7920  -34.7620   23.3770 C   0  0  0  0  0  0  0  0  0  0  0  0
  -26.4410  -34.7530   22.3270 O   0  0  0  0  0  0  0  0  0  0  0  0
  -24.9370  -33.7230   24.8880 H   0  0  0  0  0  0  0  0  0  0  0  0
  -23.9740  -36.4950   23.1970 C   0  0  0  0  0  1  0  0  0  0  0  0
  -25.2620  -36.0980   23.9370 C   0  0  0  0  0  3  0  0  0  0  0  0
  -27.3860  -37.0310   24.7450 C   0  0  0  0  0  1  0  0  0  0  0  0
  -26.2420  -37.2030   23.8540 N   0  0  0  0  0  0  0  0  0  0  0  0
  -25.8010  -38.0930   24.0730 H   0  0  0  0  0  0  0  0  0  0  0  0
  -26.4270  -31.4580   24.8740 C   0  0  1  0  0  0  0  0  0  0  0  0
  -25.3490  -31.1280   25.9310 C   0  0  0  0  0  1  0  0  0  0  0  0
  -27.0500  -30.1220   24.4080 C   0  0  0  0  0  1  0  0  0  0  0  0
  -27.5590  -32.2470   25.5750 C   0  0  0  0  0  1  0  0  0  0  0  0
  1  7  1  0
  1 22  1  0
  2  7  1  0
  3  4  1  0
  3  2  1  0
  5  4  1  0
  5 27  1  0
  5  6  1  0
  7  6  1  0
  8  1  2  0
 10 14  1  0
 10  9  2  0
 11 10  1  0
 12 11  2  0
 12 21  1  0
 13  9  1  0
 13 22  1  0
 14 18  1  0
 15 52  1  0
 15 14  1  0
 16 11  1  0
 16 20  1  1
 16 15  1  0
 17 12  1  0
 19 16  1  0
 21 13  2  0
 22 23  1  0
 24 25  2  0
 25 44  1  0
 26 25  1  0
 26 29  1  0
 27 24  1  0
 27 28  1  0
 28 26  2  0
 29 30  1  0
 30 31  2  0
 32 35  1  0
 32 31  1  0
 33 32  2  0
 34 33  1  0
 34 29  2  0
 35 36  1  0
 36 37  1  0
 37 38  2  0
 39 38  1  0
 39 43  1  0
 40 39  2  0
 41 36  2  0
 41 40  1  0
 42 41  1  0
 44 45  1  0
 45 48  1  0
 45 47  1  0
 46 44  2  0
 49 50  1  0
 49 24  1  0
 51 49  1  0
 52 53  1  0
 54 65  2  0
 55 53  1  0
 55 60  1  0
 56 64  1  0
 56 66  1  0
 57 63  1  0
 57 59  1  0
 58 64  1  0
 59 58  1  0
 60 59  2  0
 61 62  1  0
 61 55  2  0
 62 57  2  0
 63 56  1  0
 64 54  1  0
 66 68  2  0
 67 66  1  0
 69 67  1  0
 70 79  2  0
 70 75  1  0
 71 67  1  0
 71 75  1  0
 72 71  1  0
 73 74  1  0
 73 72  1  0
 74 70  1  0
 75 76  2  0
 76 77  1  0
 78 77  2  0
 79 78  1  0
 80 54  1  0
 80 81  1  0
 80 90  1  0
 81 84  1  0
 82 86  1  0
 82 81  1  0
 83 82  2  0
 86 85  1  0
 88 86  1  0
 88 89  1  0
 88 87  1  0
 90 93  1  1
 90 91  1  0
 92 90  1  0
M  ISO  4   1 100  22 100  52 101  53 101
M  END
>  <TORSDO>  (59) 
F 16

>  <SCORE>  (59) 
-15.001

>  <name>  (59) 
58

>  <ligand_id>  (59) 
58

>  <original_smiles>  (59) 
[H]c1c([H])c([H])c2c(c1[H])C([H])([H])C([H])([H])C([H])([H])C2([H])N([H])C(=O)C1([H])N(C(=O)C([H])(N([H])C(=O)C([H])(N([H])C([H])([H])[H])C([H])([H])[H])C(C([H])([H])[H])(C([H])([H])[H])C([H])([H])[H])C([H])([H])c2c([H])c(OC([H])([H])C3([H])C([H])(C([H])([H])[H])c4c([H])c(N([H])C(=O)N5C([H])([H])C([H])([H])C([H])([H])C([H])(n6nc(-c7c([H])c([H])c(Oc8c([H])c([H])c(F)c([H])c8F)c([H])c7[H])c(C(=O)N([H])[H])c6N([H])[H])C5([H])[H])nc(C([H])([H])[H])c4C3(C([H])([H])[H])C([H])([H])[H])c([H])c([H])c2C1([H])[H]

>  <smiles>  (59) 
[H]c1c([H])c([H])c2c(c1[H])C([H])([H])C([H])([H])C([H])([H])C2([H])N([H])C(=O)C1([H])N(C(=O)C([H])(N([H])C(=O)C([H])(N([H])C([H])([H])[H])C([H])([H])[H])C(C([H])([H])[H])(C([H])([H])[H])C([H])([H])[H])C([H])([H])c2c([H])c(OC([H])([H])C3([H])C([H])(C([H])([H])[H])c4c([H])c(N([H])C(=O)N5C([H])([H])C([H])([H])C([H])([H])C([H])(n6nc(-c7c([H])c([H])c(Oc8c([H])c([H])c(F)c([H])c8F)c([H])c7[H])c(C(=O)N([H])[H])c6N([H])[H])C5([H])[H])nc(C([H])([H])[H])c4C3(C([H])([H])[H])C([H])([H])[H])c([H])c([H])c2C1([H])[H]

$$$$
59:0:0
     RDKit          3D

 97106  0  0  1  0  0  0  0  0999 V2000
  -29.6170  -20.5300   20.0390 C   0  0  0  0  0  0  0  0  0  0  0  0
  -29.5320  -19.2410   20.7460 C   0  0  0  0  0  0  0  0  0  0  0  0
  -30.0430  -20.3890   18.6840 C   0  0  0  0  0  0  0  0  0  0  0  0
  -29.8370  -17.9590   20.0910 C   0  0  0  0  0  0  0  0  0  0  0  0
  -30.1880  -19.1020   18.1040 C   0  0  0  0  0  0  0  0  0  0  0  0
  -29.1470  -19.2240   22.2290 C   0  0  0  0  0  1  0  0  0  0  0  0
  -30.4920  -21.5810   17.8370 C   0  0  0  0  0  1  0  0  0  0  0  0
  -30.4630  -18.9610   16.6160 C   0  0  0  0  0  1  0  0  0  0  0  0
  -30.1170  -17.9400   18.7780 N   0  0  0  0  0  0  0  0  0  0  0  0
  -30.4200  -14.4000   19.1270 C   0  0  0  0  0  0  0  0  0  0  0  0
  -29.7060  -12.3650   17.8260 C   0  0  0  0  0  2  0  0  0  0  0  0
  -28.5370  -12.7120   16.8840 C   0  0  0  0  0  2  0  0  0  0  0  0
  -27.1860  -12.5870   17.6100 C   0  0  0  0  0  2  0  0  0  0  0  0
  -27.2000  -13.2410   19.0190 C   0  0  0  0  0  3  0  0  0  0  0  0
  -28.4780  -12.9000   19.8240 C   0  0  0  0  0  2  0  0  0  0  0  0
  -29.6420  -13.2670   19.0020 N   0  0  0  0  0  0  0  0  0  0  0  0
  -31.3330  -14.5980   18.3200 O   0  0  0  0  0  0  0  0  0  0  0  0
  -30.5780  -16.2180   22.0070 C   0  0  0  0  0  2  0  0  0  0  0  0
  -29.7390  -16.5020   20.7610 C   0  0  0  0  0  3  0  0  0  0  0  0
  -31.5010  -15.3620   21.1500 C   0  0  0  0  0  3  0  0  0  0  0  0
  -30.3260  -15.1470   20.2840 N   0  0  0  0  0  0  0  0  0  0  0  0
  -25.0310  -13.8330   20.2500 C   0  0  0  0  0  0  0  0  0  0  0  0
  -24.0500  -13.0560   20.8120 C   0  0  0  0  0  0  0  0  0  0  0  0
  -24.4650  -11.7030   20.6330 C   0  0  0  0  0  0  0  0  0  0  0  0
  -25.9800  -12.9490   19.7680 N   0  0  0  0  0  0  0  0  0  0  0  0
  -25.6560  -11.6590   20.0510 N   0  0  0  0  0  0  0  0  0  0  0  0
  -23.7660  -10.4440   20.9340 C   0  0  0  0  0  0  0  0  0  0  0  0
  -24.2960   -9.5010   21.8430 C   0  0  0  0  0  3  0  0  0  0  0  0
  -23.5930   -8.3080   22.1290 C   0  0  0  0  0  3  0  0  0  0  0  0
  -22.3490   -8.0480   21.5020 C   0  0  0  0  0  0  0  0  0  0  0  0
  -21.8370   -8.9830   20.5850 C   0  0  0  0  0  3  0  0  0  0  0  0
  -22.5400  -10.1670   20.2980 C   0  0  0  0  0  3  0  0  0  0  0  0
  -21.6090   -6.9060   21.6970 O   0  0  0  0  0  0  0  0  0  0  0  0
  -21.6220   -6.2360   22.8960 C   0  0  0  0  0  0  0  0  0  0  0  0
  -21.2270   -6.8600   24.0990 C   0  0  0  0  0  3  0  0  0  0  0  0
  -21.1840   -6.1180   25.2960 C   0  0  0  0  0  3  0  0  0  0  0  0
  -21.5250   -4.7510   25.2920 C   0  0  0  0  0  0  0  0  0  0  0  0
  -21.9110   -4.1250   24.0930 C   0  0  0  0  0  3  0  0  0  0  0  0
  -21.9530   -4.8660   22.8980 C   0  0  0  0  0  0  0  0  0  0  0  0
  -22.3050   -4.2540   21.7430 F   0  0  0  0  0  0  0  0  0  0  0  0
  -21.4770   -4.0370   26.4390 F   0  0  0  0  0  0  0  0  0  0  0  0
  -22.7590  -13.5460   21.4020 C   0  0  0  0  0  0  0  0  0  0  0  0
  -22.2650  -12.8720   22.4360 N   0  0  0  0  0  0  0  0  0  0  0  0
  -22.2020  -14.5580   20.9790 O   0  0  0  0  0  0  0  0  0  0  0  0
  -22.7290  -12.0510   22.7920 H   0  0  0  0  0  0  0  0  0  0  0  0
  -21.4100  -13.1830   22.8780 H   0  0  0  0  0  0  0  0  0  0  0  0
  -25.1830  -15.2070   20.0930 N   0  0  0  0  0  0  0  0  0  0  0  0
  -24.4770  -15.8750   20.3860 H   0  0  0  0  0  0  0  0  0  0  0  0
  -25.9570  -15.6430   19.6060 H   0  0  0  0  0  0  0  0  0  0  0  0
  -31.2200  -12.9160   22.1490 C   0  0  0  0  0  1  0  0  0  0  0  0
  -33.4000  -13.6200   21.0080 C   0  0  0  0  0  1  0  0  0  0  0  0
  -32.1550  -14.0940   21.7790 C   0  0  0  0  0  3  0  0  0  0  0  0
  -29.4770  -22.0110   20.7060 C   0  0  0  0  0  2  0  0  0  0  0  0
  -28.0950  -23.4130   18.8070 C   0  0  0  0  0  1  0  0  0  0  0  0
  -28.4190  -23.2130   20.2890 C   0  0  0  0  0  3  0  0  0  0  0  0
  -28.4600  -24.6780   21.0230 C   0  0  0  0  0  2  0  0  0  0  0  0
  -28.6310  -26.0350   20.3660 O   0  0  0  0  0  0  0  0  0  0  0  0
  -24.7580  -31.5740   23.0650 C   0  0  0  0  0  0  0  0  0  0  0  0
  -27.5270  -26.9170   20.2680 C   0  0  0  0  0  0  0  0  0  0  0  0
  -23.6250  -30.0900   21.4530 C   0  0  0  0  0  3  0  0  0  0  0  0
  -25.1430  -28.5190   20.1100 C   0  0  0  0  0  0  0  0  0  0  0  0
  -26.1640  -30.4500   21.3170 C   0  0  0  0  0  2  0  0  0  0  0  0
  -26.2900  -29.0480   20.7140 C   0  0  0  0  0  0  0  0  0  0  0  0
  -27.4910  -28.2650   20.7660 C   0  0  0  0  0  3  0  0  0  0  0  0
  -26.3650  -26.4590   19.6190 C   0  0  0  0  0  3  0  0  0  0  0  0
  -25.1880  -27.2360   19.5390 C   0  0  0  0  0  3  0  0  0  0  0  0
  -23.8840  -29.3680   20.1040 C   0  0  0  0  0  2  0  0  0  0  0  0
  -24.8660  -30.7270   21.9990 N   0  0  0  0  0  0  0  0  0  0  0  0
  -23.6560  -31.8410   23.5700 O   0  0  0  0  0  0  0  0  0  0  0  0
  -22.9640  -29.0940   22.4360 C   0  0  0  0  0  0  0  0  0  0  0  0
  -21.6400  -28.8980   22.3120 N   0  0  0  0  0  0  0  0  0  0  0  0
  -23.6480  -28.4930   23.2700 O   0  0  0  0  0  0  0  0  0  0  0  0
  -21.1490  -29.4260   21.6050 H   0  0  0  0  0  0  0  0  0  0  0  0
  -18.2680  -27.7310   22.9070 C   0  0  0  0  0  0  0  0  0  0  0  0
  -20.8320  -27.9740   23.1090 C   0  0  0  0  0  3  0  0  0  0  0  0
  -20.9110  -26.5360   22.5430 C   0  0  0  0  0  2  0  0  0  0  0  0
  -19.7820  -26.2170   21.5590 C   0  0  0  0  0  2  0  0  0  0  0  0
  -18.4150  -26.3780   22.2310 C   0  0  0  0  0  2  0  0  0  0  0  0
  -19.4020  -28.4880   23.3040 C   0  0  0  0  0  0  0  0  0  0  0  0
  -19.2040  -29.7530   23.8960 C   0  0  0  0  0  3  0  0  0  0  0  0
  -17.9080  -30.2650   24.0900 C   0  0  0  0  0  3  0  0  0  0  0  0
  -16.7880  -29.5050   23.7070 C   0  0  0  0  0  3  0  0  0  0  0  0
  -16.9700  -28.2410   23.1200 C   0  0  0  0  0  3  0  0  0  0  0  0
  -26.0080  -32.2630   23.6880 C   0  0  0  0  0  3  0  0  0  0  0  0
  -26.5890  -31.4920   24.9380 C   0  0  1  0  0  0  0  0  0  0  0  0
  -25.5190  -31.1320   25.9960 C   0  0  0  0  0  1  0  0  0  0  0  0
  -27.2870  -30.1830   24.5090 C   0  0  0  0  0  1  0  0  0  0  0  0
  -27.6800  -32.3510   25.6230 C   0  0  0  0  0  1  0  0  0  0  0  0
  -25.6220  -33.6310   24.0670 N   0  0  0  0  0  0  0  0  0  0  0  0
  -25.8670  -34.7230   23.3330 C   0  0  0  0  0  0  0  0  0  0  0  0
  -26.5050  -34.6900   22.2790 O   0  0  0  0  0  0  0  0  0  0  0  0
  -25.0530  -33.7250   24.8960 H   0  0  0  0  0  0  0  0  0  0  0  0
  -24.0190  -36.4100   23.0780 C   0  0  0  0  0  1  0  0  0  0  0  0
  -25.3060  -36.0640   23.8450 C   0  0  0  0  0  3  0  0  0  0  0  0
  -27.4060  -37.0540   24.6460 C   0  0  0  0  0  1  0  0  0  0  0  0
  -26.2680  -37.1820   23.7390 N   0  0  0  0  0  0  0  0  0  0  0  0
  -25.8130  -38.0730   23.9250 H   0  0  0  0  0  0  0  0  0  0  0  0
  1 53  1  0
  1  2  1  0
  2  6  1  0
  3  1  2  0
  4  2  2  0
  5  3  1  0
  5  9  2  0
  7  3  1  0
  8  5  1  0
  9  4  1  0
 10 21  1  0
 11 16  1  0
 12 13  1  0
 12 11  1  0
 14 13  1  0
 14 25  1  0
 14 15  1  0
 16 10  1  0
 16 15  1  0
 17 10  2  0
 19  4  1  0
 19 18  1  0
 20 52  1  0
 20 18  1  0
 21 19  1  0
 21 20  1  0
 22 23  2  0
 23 42  1  0
 24 23  1  0
 24 27  1  0
 25 26  1  0
 25 22  1  0
 26 24  2  0
 27 28  1  0
 28 29  2  0
 30 33  1  0
 30 29  1  0
 31 30  2  0
 32 31  1  0
 32 27  2  0
 33 34  1  0
 34 39  2  0
 34 35  1  0
 35 36  2  0
 37 36  1  0
 37 41  1  0
 38 37  2  0
 39 38  1  0
 40 39  1  0
 42 43  1  0
 43 45  1  0
 43 46  1  0
 44 42  2  0
 47 22  1  0
 47 48  1  0
 49 47  1  0
 51 52  1  0
 52 50  1  0
 55 54  1  0
 55 53  1  0
 55 56  1  0
 57 56  1  0
 58 69  2  0
 59 57  1  0
 59 64  1  0
 60 68  1  0
 60 70  1  0
 61 63  1  0
 62 68  1  0
 63 64  2  0
 63 62  1  0
 65 59  2  0
 66 65  1  0
 66 61  2  0
 67 61  1  0
 67 60  1  0
 68 58  1  0
 70 72  2  0
 71 70  1  0
 73 71  1  0
 74 83  2  0
 74 79  1  0
 75 71  1  0
 75 79  1  0
 76 75  1  0
 77 78  1  0
 77 76  1  0
 78 74  1  0
 79 80  2  0
 80 81  1  0
 82 81  2  0
 83 82  1  0
 84 58  1  0
 84 89  1  0
 84 85  1  0
 85 88  1  1
 85 86  1  0
 87 85  1  0
 89 92  1  0
 90 94  1  0
 90 89  1  0
 91 90  2  0
 94 93  1  0
 96 94  1  0
 96 97  1  0
 96 95  1  0
M  ISO  4  10 100  21 100  56 101  57 101
M  END
>  <TORSDO>  (60) 
F 20

>  <SCORE>  (60) 
-7.813

>  <name>  (60) 
59

>  <ligand_id>  (60) 
59

>  <original_smiles>  (60) 
[H]c1c([H])c([H])c2c(c1[H])C([H])([H])C([H])([H])C([H])([H])C2([H])N([H])C(=O)C1([H])N(C(=O)C([H])(N([H])C(=O)C([H])(N([H])C([H])([H])[H])C([H])([H])[H])C(C([H])([H])[H])(C([H])([H])[H])C([H])([H])[H])C([H])([H])c2c([H])c(OC([H])([H])C([H])(C([H])([H])[H])C([H])([H])c3c(C([H])([H])[H])c(C([H])([H])[H])nc(C4([H])N(C(=O)N5C([H])([H])C([H])([H])C([H])([H])C([H])(n6nc(-c7c([H])c([H])c(Oc8c([H])c([H])c(F)c([H])c8F)c([H])c7[H])c(C(=O)N([H])[H])c6N([H])[H])C5([H])[H])C([H])(C([H])(C([H])([H])[H])C([H])([H])[H])C4([H])[H])c3C([H])([H])[H])c([H])c([H])c2C1([H])[H]

>  <smiles>  (60) 
[H]c1c([H])c([H])c2c(c1[H])C([H])([H])C([H])([H])C([H])([H])C2([H])N([H])C(=O)C1([H])N(C(=O)C([H])(N([H])C(=O)C([H])(N([H])C([H])([H])[H])C([H])([H])[H])C(C([H])([H])[H])(C([H])([H])[H])C([H])([H])[H])C([H])([H])c2c([H])c(OC([H])([H])C([H])(C([H])([H])[H])C([H])([H])c3c(C([H])([H])[H])c(C([H])([H])[H])nc(C4([H])N(C(=O)N5C([H])([H])C([H])([H])C([H])([H])C([H])(n6nc(-c7c([H])c([H])c(Oc8c([H])c([H])c(F)c([H])c8F)c([H])c7[H])c(C(=O)N([H])[H])c6N([H])[H])C5([H])[H])C([H])(C([H])(C([H])([H])[H])C([H])([H])[H])C4([H])[H])c3C([H])([H])[H])c([H])c([H])c2C1([H])[H]

$$$$
60:0:0
     RDKit          3D

100110  0  0  1  0  0  0  0  0999 V2000
  -28.1970  -22.8370   20.7930 C   0  0  0  0  0  0  0  0  0  0  0  0
  -28.5690  -21.4900   20.8230 C   0  0  0  0  0  0  0  0  0  0  0  0
  -29.1900  -23.8450   20.9490 C   0  0  0  0  0  0  0  0  0  0  0  0
  -30.4960  -23.3900   21.2550 C   0  0  0  0  0  0  0  0  0  0  0  0
  -29.9090  -21.1320   21.0840 C   0  0  0  0  0  0  0  0  0  0  0  0
  -27.3750  -20.5860   20.6380 C   0  0  0  0  0  2  0  0  0  0  0  0
  -26.1950  -21.5380   20.4040 C   0  0  0  0  0  2  0  0  0  0  0  0
  -26.6740  -22.9760   20.7160 C   0  0  2  0  0  0  0  0  0  0  0  0
  -31.6250  -24.3310   21.6390 C   0  0  0  0  0  1  0  0  0  0  0  0
  -26.1480  -23.9220   19.6290 C   0  0  0  0  0  1  0  0  0  0  0  0
  -26.1280  -23.3940   22.0910 C   0  0  0  0  0  1  0  0  0  0  0  0
  -30.8310  -22.0800   21.3110 N   0  0  0  0  0  0  0  0  0  0  0  0
  -30.4460  -19.8410   21.1980 N   0  0  0  0  0  0  0  0  0  0  0  0
  -31.4270  -19.8170   21.4500 H   0  0  0  0  0  0  0  0  0  0  0  0
  -30.4810  -17.7420   18.4200 C   0  0  0  0  0  2  0  0  0  0  0  0
  -29.5400  -18.6710   19.1790 C   0  0  0  0  0  2  0  0  0  0  0  0
  -31.6890  -17.6170   19.3330 C   0  0  0  0  0  2  0  0  0  0  0  0
  -29.9230  -18.5770   20.6780 C   0  0  0  0  0  3  0  0  0  0  0  0
  -31.0710  -17.5290   20.7430 C   0  0  0  0  0  3  0  0  0  0  0  0
  -31.4040  -15.0710   20.7850 C   0  0  0  0  0  0  0  0  0  0  0  0
  -31.1200  -12.9880   19.5170 C   0  0  0  0  0  2  0  0  0  0  0  0
  -30.2500  -13.3040   18.2830 C   0  0  0  0  0  2  0  0  0  0  0  0
  -28.7480  -13.2010   18.6290 C   0  0  0  0  0  2  0  0  0  0  0  0
  -28.3710  -13.9620   19.9290 C   0  0  0  0  0  3  0  0  0  0  0  0
  -29.3590  -13.6350   21.0680 C   0  0  0  0  0  2  0  0  0  0  0  0
  -30.7170  -13.9190   20.5840 N   0  0  0  0  0  0  0  0  0  0  0  0
  -32.5910  -15.2040   20.4780 O   0  0  0  0  0  0  0  0  0  0  0  0
  -30.6440  -16.1500   21.0510 N   0  0  0  0  0  0  0  0  0  0  0  0
  -29.6760  -15.9950   21.2950 H   0  0  0  0  0  0  0  0  0  0  0  0
  -25.9420  -14.5990   20.4980 C   0  0  0  0  0  0  0  0  0  0  0  0
  -24.8410  -13.8340   20.7870 C   0  0  0  0  0  0  0  0  0  0  0  0
  -25.2860  -12.4780   20.7630 C   0  0  0  0  0  0  0  0  0  0  0  0
  -26.9870  -13.7010   20.3180 N   0  0  0  0  0  0  0  0  0  0  0  0
  -26.5910  -12.4220   20.5320 N   0  0  0  0  0  0  0  0  0  0  0  0
  -24.5320  -11.2230   20.8780 C   0  0  0  0  0  0  0  0  0  0  0  0
  -24.8810  -10.2410   21.8310 C   0  0  0  0  0  3  0  0  0  0  0  0
  -24.1330   -9.0500   21.9400 C   0  0  0  0  0  3  0  0  0  0  0  0
  -23.0210   -8.8330   21.0930 C   0  0  0  0  0  0  0  0  0  0  0  0
  -22.6920   -9.8020   20.1270 C   0  0  0  0  0  3  0  0  0  0  0  0
  -23.4410  -10.9850   20.0170 C   0  0  0  0  0  3  0  0  0  0  0  0
  -22.2530   -7.6940   21.1090 O   0  0  0  0  0  0  0  0  0  0  0  0
  -22.0140   -7.0000   22.2690 C   0  0  0  0  0  0  0  0  0  0  0  0
  -21.4080   -7.6100   23.3890 C   0  0  0  0  0  3  0  0  0  0  0  0
  -21.1110   -6.8430   24.5330 C   0  0  0  0  0  3  0  0  0  0  0  0
  -21.4100   -5.4700   24.5580 C   0  0  0  0  0  0  0  0  0  0  0  0
  -22.0070   -4.8580   23.4420 C   0  0  0  0  0  3  0  0  0  0  0  0
  -22.3060   -5.6210   22.2990 C   0  0  0  0  0  0  0  0  0  0  0  0
  -22.8600   -5.0220   21.2180 F   0  0  0  0  0  0  0  0  0  0  0  0
  -21.1220   -4.7310   25.6560 F   0  0  0  0  0  0  0  0  0  0  0  0
  -23.4350  -14.3300   20.9820 C   0  0  0  0  0  0  0  0  0  0  0  0
  -22.6520  -13.6410   21.8050 N   0  0  0  0  0  0  0  0  0  0  0  0
  -23.0340  -15.3560   20.4370 O   0  0  0  0  0  0  0  0  0  0  0  0
  -22.9910  -12.8060   22.2590 H   0  0  0  0  0  0  0  0  0  0  0  0
  -21.7050  -13.9480   21.9760 H   0  0  0  0  0  0  0  0  0  0  0  0
  -26.1370  -15.9680   20.3580 N   0  0  0  0  0  0  0  0  0  0  0  0
  -25.3840  -16.6390   20.4510 H   0  0  0  0  0  0  0  0  0  0  0  0
  -27.0170  -16.4060   20.1100 H   0  0  0  0  0  0  0  0  0  0  0  0
  -28.9070  -25.3440   20.8150 C   0  0  0  0  0  2  0  0  0  0  0  0
  -28.9350  -25.8230   19.3500 C   0  0  0  0  0  2  0  0  0  0  0  0
  -28.7540  -27.2370   19.2650 O   0  0  0  0  0  0  0  0  0  0  0  0
  -24.7470  -31.5390   23.2150 C   0  0  0  0  0  0  0  0  0  0  0  0
  -27.5050  -27.8040   19.4110 C   0  0  0  0  0  0  0  0  0  0  0  0
  -23.5510  -30.3610   21.3950 C   0  0  0  0  0  3  0  0  0  0  0  0
  -25.0290  -29.1350   19.7200 C   0  0  0  0  0  0  0  0  0  0  0  0
  -26.0460  -30.8840   21.1940 C   0  0  0  0  0  2  0  0  0  0  0  0
  -26.1760  -29.6400   20.3440 C   0  0  0  0  0  0  0  0  0  0  0  0
  -27.4140  -28.9830   20.1810 C   0  0  0  0  0  3  0  0  0  0  0  0
  -26.3360  -27.3010   18.7970 C   0  0  0  0  0  3  0  0  0  0  0  0
  -25.1020  -27.9620   18.9470 C   0  0  0  0  0  3  0  0  0  0  0  0
  -23.7460  -29.9030   19.9230 C   0  0  0  0  0  2  0  0  0  0  0  0
  -24.8010  -30.9310   21.9960 N   0  0  0  0  0  0  0  0  0  0  0  0
  -23.6730  -31.6680   23.8180 O   0  0  0  0  0  0  0  0  0  0  0  0
  -22.9680  -29.1750   22.1970 C   0  0  0  0  0  0  0  0  0  0  0  0
  -21.6530  -28.9410   22.0650 N   0  0  0  0  0  0  0  0  0  0  0  0
  -23.7020  -28.4680   22.8890 O   0  0  0  0  0  0  0  0  0  0  0  0
  -21.1250  -29.5290   21.4360 H   0  0  0  0  0  0  0  0  0  0  0  0
  -18.3690  -27.4960   22.4310 C   0  0  0  0  0  0  0  0  0  0  0  0
  -20.9110  -27.8570   22.7030 C   0  0  0  0  0  3  0  0  0  0  0  0
  -21.0740  -26.5270   21.9270 C   0  0  0  0  0  2  0  0  0  0  0  0
  -19.9760  -26.2910   20.8860 C   0  0  0  0  0  2  0  0  0  0  0  0
  -18.5950  -26.2790   21.5490 C   0  0  0  0  0  2  0  0  0  0  0  0
  -19.4520  -28.2430   22.9590 C   0  0  0  0  0  0  0  0  0  0  0  0
  -19.1780  -29.3900   23.7350 C   0  0  0  0  0  3  0  0  0  0  0  0
  -17.8500  -29.7840   23.9950 C   0  0  0  0  0  3  0  0  0  0  0  0
  -16.7840  -29.0280   23.4800 C   0  0  0  0  0  3  0  0  0  0  0  0
  -17.0430  -27.8880   22.7010 C   0  0  0  0  0  3  0  0  0  0  0  0
  -26.0220  -32.1250   23.8950 C   0  0  0  0  0  3  0  0  0  0  0  0
  -26.5410  -31.2580   25.1060 C   0  0  1  0  0  0  0  0  0  0  0  0
  -25.4450  -30.9220   26.1410 C   0  0  0  0  0  1  0  0  0  0  0  0
  -27.1450  -29.9250   24.6050 C   0  0  0  0  0  1  0  0  0  0  0  0
  -27.6780  -32.0060   25.8430 C   0  0  0  0  0  1  0  0  0  0  0  0
  -25.7030  -33.4910   24.3290 N   0  0  0  0  0  0  0  0  0  0  0  0
  -26.0800  -34.6040   23.6850 C   0  0  0  0  0  0  0  0  0  0  0  0
  -26.7970  -34.5860   22.6810 O   0  0  0  0  0  0  0  0  0  0  0  0
  -25.0750  -33.5820   25.1140 H   0  0  0  0  0  0  0  0  0  0  0  0
  -24.3800  -36.4350   23.3930 C   0  0  0  0  0  1  0  0  0  0  0  0
  -25.5720  -35.9480   24.2340 C   0  0  0  0  0  3  0  0  0  0  0  0
  -27.6630  -36.7400   25.2520 C   0  0  0  0  0  1  0  0  0  0  0  0
  -26.6140  -36.9970   24.2710 N   0  0  0  0  0  0  0  0  0  0  0  0
  -26.2040  -37.9050   24.4730 H   0  0  0  0  0  0  0  0  0  0  0  0
  1  2  2  0
  1  3  1  0
  2  5  1  0
  3  4  2  0
  4 12  1  0
  4  9  1  0
  5 13  1  0
  5 12  2  0
  6  2  1  0
  7  6  1  0
  7  8  1  0
  8  1  1  0
  8 11  1  1
 10  8  1  0
 13 14  1  0
 15 16  1  0
 15 17  1  0
 16 18  1  0
 17 19  1  0
 18 19  1  0
 18 13  1  0
 19 28  1  0
 20 28  1  0
 21 26  1  0
 22 23  1  0
 22 21  1  0
 24 23  1  0
 24 33  1  0
 24 25  1  0
 26 20  1  0
 26 25  1  0
 27 20  2  0
 28 29  1  0
 30 31  2  0
 31 50  1  0
 32 31  1  0
 32 35  1  0
 33 30  1  0
 33 34  1  0
 34 32  2  0
 35 36  1  0
 36 37  2  0
 38 41  1  0
 38 37  1  0
 39 38  2  0
 40 39  1  0
 40 35  2  0
 41 42  1  0
 42 47  2  0
 42 43  1  0
 43 44  2  0
 44 45  1  0
 45 49  1  0
 46 45  2  0
 47 46  1  0
 48 47  1  0
 50 51  1  0
 51 54  1  0
 51 53  1  0
 52 50  2  0
 55 56  1  0
 55 30  1  0
 57 55  1  0
 58  3  1  0
 59 58  1  0
 60 59  1  0
 60 62  1  0
 61 72  2  0
 62 67  1  0
 63 71  1  0
 63 73  1  0
 64 70  1  0
 64 66  1  0
 65 71  1  0
 66 65  1  0
 67 66  2  0
 68 69  1  0
 68 62  2  0
 69 64  2  0
 70 63  1  0
 71 61  1  0
 73 75  2  0
 74 73  1  0
 76 74  1  0
 77 86  2  0
 77 82  1  0
 78 74  1  0
 78 82  1  0
 79 78  1  0
 80 81  1  0
 80 79  1  0
 81 77  1  0
 82 83  2  0
 83 84  1  0
 85 84  2  0
 86 85  1  0
 87 61  1  0
 87 92  1  0
 87 88  1  0
 88 91  1  1
 88 89  1  0
 90 88  1  0
 92 95  1  0
 93 97  1  0
 93 92  1  0
 94 93  2  0
 97 96  1  0
 97 99  1  0
 99100  1  0
 99 98  1  0
M  ISO  4  20 100  28 100  59 101  60 101
M  END
>  <TORSDO>  (61) 
F 19

>  <SCORE>  (61) 
-9.230

>  <name>  (61) 
60

>  <ligand_id>  (61) 
60

>  <original_smiles>  (61) 
[H]c1c([H])c([H])c2c(c1[H])C([H])([H])C([H])([H])C([H])([H])C2([H])N([H])C(=O)C1([H])N(C(=O)C([H])(N([H])C(=O)C([H])(N([H])C([H])([H])[H])C([H])([H])[H])C(C([H])([H])[H])(C([H])([H])[H])C([H])([H])[H])C([H])([H])c2c([H])c(OC([H])([H])C([H])([H])c3c(C([H])([H])[H])nc(N([H])C4([H])C([H])([H])C([H])([H])C([H])([H])C4([H])N([H])C(=O)N4C([H])([H])C([H])([H])C([H])([H])C([H])(n5nc(-c6c([H])c([H])c(Oc7c([H])c([H])c(F)c([H])c7F)c([H])c6[H])c(C(=O)N([H])[H])c5N([H])[H])C4([H])[H])c4c3C(C([H])([H])[H])(C([H])([H])[H])C([H])([H])C4([H])[H])c([H])c([H])c2C1([H])[H]

>  <smiles>  (61) 
[H]c1c([H])c([H])c2c(c1[H])C([H])([H])C([H])([H])C([H])([H])C2([H])N([H])C(=O)C1([H])N(C(=O)C([H])(N([H])C(=O)C([H])(N([H])C([H])([H])[H])C([H])([H])[H])C(C([H])([H])[H])(C([H])([H])[H])C([H])([H])[H])C([H])([H])c2c([H])c(OC([H])([H])C([H])([H])c3c(C([H])([H])[H])nc(N([H])C4([H])C([H])([H])C([H])([H])C([H])([H])C4([H])N([H])C(=O)N4C([H])([H])C([H])([H])C([H])([H])C([H])(n5nc(-c6c([H])c([H])c(Oc7c([H])c([H])c(F)c([H])c7F)c([H])c6[H])c(C(=O)N([H])[H])c5N([H])[H])C4([H])[H])c4c3C(C([H])([H])[H])(C([H])([H])[H])C([H])([H])C4([H])[H])c([H])c([H])c2C1([H])[H]

$$$$
61:0:0
     RDKit          3D

 94103  0  0  1  0  0  0  0  0999 V2000
  -29.7230  -20.8500   20.3760 C   0  0  0  0  0  0  0  0  0  0  0  0
  -28.7010  -21.9410   20.2650 C   0  0  0  0  0  0  0  0  0  0  0  0
  -28.9830  -23.4150   20.3080 C   0  0  0  0  0  0  0  0  0  0  0  0
  -31.0300  -21.4190   20.5250 C   0  0  0  0  0  0  0  0  0  0  0  0
  -30.3490  -23.6970   20.4820 C   0  0  0  0  0  0  0  0  0  0  0  0
  -27.2580  -21.5070   20.0890 C   0  0  0  0  0  1  0  0  0  0  0  0
  -32.3390  -20.6620   20.6230 C   0  0  0  0  0  1  0  0  0  0  0  0
  -30.8890  -25.1130   20.5500 C   0  0  0  0  0  1  0  0  0  0  0  0
  -31.2920  -22.7440   20.5870 N   0  0  0  0  0  0  0  0  0  0  0  0
  -29.2960  -18.6910   18.8310 C   0  0  0  0  0  2  0  0  0  0  0  0
  -30.6370  -17.9520   18.9600 C   0  0  0  0  0  2  0  0  0  0  0  0
  -29.4470  -19.1850   20.2730 C   0  0  0  0  0  3  0  0  0  0  0  0
  -30.3610  -17.7420   20.4710 C   0  0  2  0  0  0  0  0  0  0  0  0
  -31.4710  -17.8070   21.5260 C   0  0  0  0  0  1  0  0  0  0  0  0
  -30.5310  -15.0080   20.3560 C   0  0  0  0  0  0  0  0  0  0  0  0
  -30.3650  -12.6760   19.3830 C   0  0  0  0  0  2  0  0  0  0  0  0
  -29.4380  -12.6560   18.1480 C   0  0  0  0  0  2  0  0  0  0  0  0
  -27.9750  -12.4430   18.5770 C   0  0  0  0  0  2  0  0  0  0  0  0
  -27.5690  -13.3500   19.7700 C   0  0  0  0  0  3  0  0  0  0  0  0
  -28.6250  -13.3630   20.8940 C   0  0  0  0  0  2  0  0  0  0  0  0
  -29.8950  -13.7690   20.2840 N   0  0  0  0  0  0  0  0  0  0  0  0
  -31.7340  -15.0190   20.0750 O   0  0  0  0  0  0  0  0  0  0  0  0
  -29.8270  -16.2420   20.5350 N   0  0  0  0  0  0  0  0  0  0  0  0
  -28.8380  -16.1420   20.7130 H   0  0  0  0  0  0  0  0  0  0  0  0
  -25.1830  -13.9050   20.5080 C   0  0  0  0  0  0  0  0  0  0  0  0
  -24.1250  -13.1210   20.8730 C   0  0  0  0  0  0  0  0  0  0  0  0
  -24.6000  -11.7740   20.8420 C   0  0  0  0  0  0  0  0  0  0  0  0
  -26.2340  -13.0370   20.2680 N   0  0  0  0  0  0  0  0  0  0  0  0
  -25.8940  -11.7490   20.5370 N   0  0  0  0  0  0  0  0  0  0  0  0
  -23.8820  -10.5060   21.0270 C   0  0  0  0  0  0  0  0  0  0  0  0
  -24.3060   -9.5470   21.9750 C   0  0  0  0  0  3  0  0  0  0  0  0
  -23.5850   -8.3460   22.1500 C   0  0  0  0  0  3  0  0  0  0  0  0
  -22.4280   -8.0940   21.3750 C   0  0  0  0  0  0  0  0  0  0  0  0
  -22.0240   -9.0410   20.4170 C   0  0  0  0  0  3  0  0  0  0  0  0
  -22.7450  -10.2330   20.2410 C   0  0  0  0  0  3  0  0  0  0  0  0
  -21.6800   -6.9430   21.4570 O   0  0  0  0  0  0  0  0  0  0  0  0
  -21.6050   -6.2150   22.6160 C   0  0  0  0  0  0  0  0  0  0  0  0
  -21.1210   -6.7750   23.8180 C   0  0  0  0  0  3  0  0  0  0  0  0
  -20.9960   -5.9720   24.9690 C   0  0  0  0  0  3  0  0  0  0  0  0
  -21.3430   -4.6090   24.9190 C   0  0  0  0  0  0  0  0  0  0  0  0
  -21.8190   -4.0460   23.7210 C   0  0  0  0  0  3  0  0  0  0  0  0
  -21.9470   -4.8470   22.5720 C   0  0  0  0  0  0  0  0  0  0  0  0
  -22.3850   -4.2970   21.4150 F   0  0  0  0  0  0  0  0  0  0  0  0
  -21.2160   -3.8340   26.0220 F   0  0  0  0  0  0  0  0  0  0  0  0
  -22.7230  -13.5860   21.1350 C   0  0  0  0  0  0  0  0  0  0  0  0
  -21.9970  -12.8870   22.0000 N   0  0  0  0  0  0  0  0  0  0  0  0
  -22.2810  -14.6070   20.6100 O   0  0  0  0  0  0  0  0  0  0  0  0
  -22.3690  -12.0620   22.4470 H   0  0  0  0  0  0  0  0  0  0  0  0
  -21.0560  -13.1810   22.2180 H   0  0  0  0  0  0  0  0  0  0  0  0
  -25.3340  -15.2780   20.3310 N   0  0  0  0  0  0  0  0  0  0  0  0
  -24.5560  -15.9200   20.4330 H   0  0  0  0  0  0  0  0  0  0  0  0
  -26.1680  -15.7250   19.9730 H   0  0  0  0  0  0  0  0  0  0  0  0
  -27.9190  -24.6780   20.1480 C   0  0  0  0  0  2  0  0  0  0  0  0
  -28.2290  -26.2060   20.2680 O   0  0  0  0  0  0  0  0  0  0  0  0
  -24.6420  -31.9170   23.2680 C   0  0  0  0  0  0  0  0  0  0  0  0
  -27.1820  -27.2000   20.2120 C   0  0  0  0  0  0  0  0  0  0  0  0
  -23.4290  -30.5340   21.6280 C   0  0  0  0  0  3  0  0  0  0  0  0
  -24.8650  -28.9610   20.1920 C   0  0  0  0  0  0  0  0  0  0  0  0
  -25.9840  -30.7890   21.4550 C   0  0  0  0  0  2  0  0  0  0  0  0
  -26.0500  -29.3990   20.7960 C   0  0  0  0  0  0  0  0  0  0  0  0
  -27.2100  -28.5360   20.7870 C   0  0  0  0  0  3  0  0  0  0  0  0
  -25.9670  -26.8680   19.5690 C   0  0  0  0  0  3  0  0  0  0  0  0
  -24.8380  -27.7100   19.5610 C   0  0  0  0  0  3  0  0  0  0  0  0
  -23.6420  -29.8640   20.2460 C   0  0  0  0  0  2  0  0  0  0  0  0
  -24.7050  -31.1010   22.1720 N   0  0  0  0  0  0  0  0  0  0  0  0
  -23.5590  -32.2050   23.8000 O   0  0  0  0  0  0  0  0  0  0  0  0
  -22.7490  -29.5260   22.5870 C   0  0  0  0  0  0  0  0  0  0  0  0
  -21.4210  -29.3550   22.4580 N   0  0  0  0  0  0  0  0  0  0  0  0
  -23.4190  -28.8980   23.4130 O   0  0  0  0  0  0  0  0  0  0  0  0
  -20.9370  -29.9120   21.7680 H   0  0  0  0  0  0  0  0  0  0  0  0
  -18.0380  -28.1580   22.9540 C   0  0  0  0  0  0  0  0  0  0  0  0
  -20.5970  -28.4190   23.2270 C   0  0  0  0  0  3  0  0  0  0  0  0
  -20.6990  -26.9870   22.6550 C   0  0  0  0  0  2  0  0  0  0  0  0
  -19.6000  -26.6630   21.6380 C   0  0  0  0  0  2  0  0  0  0  0  0
  -18.2160  -26.8090   22.2780 C   0  0  0  0  0  2  0  0  0  0  0  0
  -19.1560  -28.9210   23.3860 C   0  0  0  0  0  0  0  0  0  0  0  0
  -18.9340  -30.1830   23.9790 C   0  0  0  0  0  3  0  0  0  0  0  0
  -17.6290  -30.6820   24.1450 C   0  0  0  0  0  3  0  0  0  0  0  0
  -16.5260  -29.9160   23.7280 C   0  0  0  0  0  3  0  0  0  0  0  0
  -16.7310  -28.6560   23.1390 C   0  0  0  0  0  3  0  0  0  0  0  0
  -25.9240  -32.5440   23.8940 C   0  0  0  0  0  3  0  0  0  0  0  0
  -25.6210  -33.9440   24.2300 N   0  0  0  0  0  0  0  0  0  0  0  0
  -25.9270  -34.9990   23.4640 C   0  0  0  0  0  0  0  0  0  0  0  0
  -26.5630  -34.8970   22.4120 O   0  0  0  0  0  0  0  0  0  0  0  0
  -25.0500  -34.0970   25.0490 H   0  0  0  0  0  0  0  0  0  0  0  0
  -24.1720  -36.7820   23.1920 C   0  0  0  0  0  1  0  0  0  0  0  0
  -25.4560  -36.3880   23.9390 C   0  0  0  0  0  3  0  0  0  0  0  0
  -27.6220  -37.2960   24.6580 C   0  0  0  0  0  1  0  0  0  0  0  0
  -26.4750  -37.4460   23.7660 N   0  0  0  0  0  0  0  0  0  0  0  0
  -26.0700  -38.3660   23.9240 H   0  0  0  0  0  0  0  0  0  0  0  0
  -26.4330  -31.7690   25.1720 C   0  0  1  0  0  0  0  0  0  0  0  0
  -25.3350  -31.5390   26.2370 C   0  0  0  0  0  1  0  0  0  0  0  0
  -27.0090  -30.3880   24.7860 C   0  0  0  0  0  1  0  0  0  0  0  0
  -27.5860  -32.5570   25.8360 C   0  0  0  0  0  1  0  0  0  0  0  0
  1  4  1  0
  2  3  1  0
  2  1  2  0
  3  5  2  0
  4  9  2  0
  4  7  1  0
  5  8  1  0
  5  9  1  0
  6  2  1  0
 10 11  1  0
 10 12  1  0
 11 13  1  0
 12  1  1  0
 12 13  1  0
 13 23  1  0
 13 14  1  1
 15 23  1  0
 16 21  1  0
 17 18  1  0
 17 16  1  0
 19 18  1  0
 19 28  1  0
 19 20  1  0
 21 15  1  0
 21 20  1  0
 22 15  2  0
 23 24  1  0
 25 26  2  0
 26 45  1  0
 27 26  1  0
 27 30  1  0
 28 25  1  0
 28 29  1  0
 29 27  2  0
 30 31  1  0
 31 32  2  0
 33 36  1  0
 33 32  1  0
 34 33  2  0
 35 34  1  0
 35 30  2  0
 36 37  1  0
 37 38  1  0
 38 39  2  0
 40 39  1  0
 40 44  1  0
 41 40  2  0
 42 37  2  0
 42 41  1  0
 43 42  1  0
 45 46  1  0
 46 49  1  0
 46 48  1  0
 47 45  2  0
 50 51  1  0
 50 25  1  0
 52 50  1  0
 53 54  1  0
 53  3  1  0
 55 66  2  0
 56 54  1  0
 56 61  1  0
 57 65  1  0
 57 67  1  0
 58 64  1  0
 58 60  1  0
 59 65  1  0
 60 59  1  0
 61 60  2  0
 62 56  2  0
 63 62  1  0
 63 58  2  0
 64 57  1  0
 65 55  1  0
 67 69  2  0
 68 67  1  0
 70 68  1  0
 71 80  2  0
 71 76  1  0
 72 68  1  0
 72 76  1  0
 73 72  1  0
 74 75  1  0
 74 73  1  0
 75 71  1  0
 76 77  2  0
 77 78  1  0
 79 78  2  0
 80 79  1  0
 81 55  1  0
 81 82  1  0
 81 91  1  0
 82 85  1  0
 83 87  1  0
 83 82  1  0
 84 83  2  0
 87 86  1  0
 89 90  1  0
 89 87  1  0
 89 88  1  0
 91 94  1  1
 91 92  1  0
 93 91  1  0
M  ISO  4  15 100  23 100  53 101  54 101
M  END
>  <TORSDO>  (62) 
F 18

>  <SCORE>  (62) 
-14.768

>  <name>  (62) 
61

>  <ligand_id>  (62) 
61

>  <original_smiles>  (62) 
[H]c1c([H])c([H])c2c(c1[H])C([H])([H])C([H])([H])C([H])([H])C2([H])N([H])C(=O)C1([H])N(C(=O)C([H])(N([H])C(=O)C([H])(N([H])C([H])([H])[H])C([H])([H])[H])C(C([H])([H])[H])(C([H])([H])[H])C([H])([H])[H])C([H])([H])c2c([H])c(OC([H])([H])c3c(C([H])([H])[H])nc(C([H])([H])[H])c(C4([H])C([H])([H])C([H])([H])C4(N([H])C(=O)N4C([H])([H])C([H])([H])C([H])([H])C([H])(n5nc(-c6c([H])c([H])c(Oc7c([H])c([H])c(F)c([H])c7F)c([H])c6[H])c(C(=O)N([H])[H])c5N([H])[H])C4([H])[H])C([H])([H])[H])c3C([H])([H])[H])c([H])c([H])c2C1([H])[H]

>  <smiles>  (62) 
[H]c1c([H])c([H])c2c(c1[H])C([H])([H])C([H])([H])C([H])([H])C2([H])N([H])C(=O)C1([H])N(C(=O)C([H])(N([H])C(=O)C([H])(N([H])C([H])([H])[H])C([H])([H])[H])C(C([H])([H])[H])(C([H])([H])[H])C([H])([H])[H])C([H])([H])c2c([H])c(OC([H])([H])c3c(C([H])([H])[H])nc(C([H])([H])[H])c(C4([H])C([H])([H])C([H])([H])C4(N([H])C(=O)N4C([H])([H])C([H])([H])C([H])([H])C([H])(n5nc(-c6c([H])c([H])c(Oc7c([H])c([H])c(F)c([H])c7F)c([H])c6[H])c(C(=O)N([H])[H])c5N([H])[H])C4([H])[H])C([H])([H])[H])c3C([H])([H])[H])c([H])c([H])c2C1([H])[H]

$$$$
62:0:0
     RDKit          3D

 95104  0  0  1  0  0  0  0  0999 V2000
  -29.8620  -21.7230   18.2180 C   0  0  0  0  0  2  0  0  0  0  0  0
  -31.1370  -21.5160   18.6970 C   0  0  0  0  0  0  0  0  0  0  0  0
  -30.9530  -21.2220   20.0880 C   0  0  0  0  0  0  0  0  0  0  0  0
  -29.6130  -20.9790   20.1330 C   0  0  0  0  0  3  0  0  0  0  0  0
  -32.0010  -20.9070   21.1240 C   0  0  0  0  0  1  0  0  0  0  0  0
  -29.1430  -22.1190   19.3370 N   0  0  0  0  0  0  0  0  0  0  0  0
  -30.6640  -14.8670   19.9900 C   0  0  0  0  0  0  0  0  0  0  0  0
  -30.3910  -12.5770   18.9780 C   0  0  0  0  0  2  0  0  0  0  0  0
  -29.3890  -12.6010   17.8050 C   0  0  0  0  0  2  0  0  0  0  0  0
  -27.9560  -12.3940   18.3280 C   0  0  0  0  0  2  0  0  0  0  0  0
  -27.6360  -13.2900   19.5560 C   0  0  0  0  0  3  0  0  0  0  0  0
  -28.7600  -13.2600   20.6110 C   0  0  0  0  0  2  0  0  0  0  0  0
  -29.9930  -13.6550   19.9230 N   0  0  0  0  0  0  0  0  0  0  0  0
  -31.8530  -14.8560   19.6490 O   0  0  0  0  0  0  0  0  0  0  0  0
  -29.5250  -18.4160   21.2780 C   0  0  0  0  0  2  0  0  0  0  0  0
  -29.4910  -18.5120   18.8430 C   0  0  0  0  0  2  0  0  0  0  0  0
  -29.2720  -16.8230   21.0880 C   0  0  0  0  0  2  0  0  0  0  0  0
  -30.4010  -17.1970   19.0070 C   0  0  0  0  0  2  0  0  0  0  0  0
  -29.1300  -19.4130   20.1020 C   0  0  0  0  0  3  0  0  0  0  0  0
  -29.9750  -16.1150   19.9610 N   0  0  0  0  0  0  0  0  0  0  0  0
  -25.3120  -13.8510   20.4670 C   0  0  0  0  0  0  0  0  0  0  0  0
  -24.2700  -13.0650   20.8760 C   0  0  0  0  0  0  0  0  0  0  0  0
  -24.7280  -11.7150   20.7750 C   0  0  0  0  0  0  0  0  0  0  0  0
  -26.3330  -12.9790   20.1320 N   0  0  0  0  0  0  0  0  0  0  0  0
  -25.9980  -11.6880   20.3860 N   0  0  0  0  0  0  0  0  0  0  0  0
  -24.0090  -10.4490   20.9690 C   0  0  0  0  0  0  0  0  0  0  0  0
  -24.4550   -9.4820   21.8970 C   0  0  0  0  0  3  0  0  0  0  0  0
  -23.7370   -8.2800   22.0810 C   0  0  0  0  0  3  0  0  0  0  0  0
  -22.5580   -8.0370   21.3370 C   0  0  0  0  0  0  0  0  0  0  0  0
  -22.1300   -8.9930   20.3970 C   0  0  0  0  0  3  0  0  0  0  0  0
  -22.8500  -10.1860   20.2120 C   0  0  0  0  0  3  0  0  0  0  0  0
  -21.8100   -6.8880   21.4290 O   0  0  0  0  0  0  0  0  0  0  0  0
  -21.7280   -6.1750   22.5990 C   0  0  0  0  0  0  0  0  0  0  0  0
  -21.2370   -6.7510   23.7900 C   0  0  0  0  0  3  0  0  0  0  0  0
  -21.1050   -5.9640   24.9520 C   0  0  0  0  0  3  0  0  0  0  0  0
  -21.4550   -4.6010   24.9200 C   0  0  0  0  0  0  0  0  0  0  0  0
  -21.9390   -4.0230   23.7330 C   0  0  0  0  0  3  0  0  0  0  0  0
  -22.0720   -4.8080   22.5750 C   0  0  0  0  0  0  0  0  0  0  0  0
  -22.5190   -4.2430   21.4270 F   0  0  0  0  0  0  0  0  0  0  0  0
  -21.3210   -3.8410   26.0320 F   0  0  0  0  0  0  0  0  0  0  0  0
  -22.8930  -13.5350   21.2450 C   0  0  0  0  0  0  0  0  0  0  0  0
  -22.2180  -12.8170   22.1360 N   0  0  0  0  0  0  0  0  0  0  0  0
  -22.4250  -14.5710   20.7750 O   0  0  0  0  0  0  0  0  0  0  0  0
  -22.6120  -11.9810   22.5400 H   0  0  0  0  0  0  0  0  0  0  0  0
  -21.2950  -13.1110   22.4210 H   0  0  0  0  0  0  0  0  0  0  0  0
  -25.4680  -15.2260   20.3220 N   0  0  0  0  0  0  0  0  0  0  0  0
  -24.7150  -15.8770   20.5130 H   0  0  0  0  0  0  0  0  0  0  0  0
  -26.2990  -15.6740   19.9580 H   0  0  0  0  0  0  0  0  0  0  0  0
  -32.2340  -21.9560   16.4350 C   0  0  0  0  0  1  0  0  0  0  0  0
  -33.2680  -20.3020   18.0170 C   0  0  0  0  0  1  0  0  0  0  0  0
  -32.4430  -21.5930   17.9170 C   0  0  0  0  0  3  0  0  0  0  0  0
  -28.8290  -24.3010   18.0070 C   0  0  0  0  0  1  0  0  0  0  0  0
  -29.1080  -23.7230   19.4240 C   0  0  0  0  0  3  0  0  0  0  0  0
  -28.2070  -24.7230   20.3710 C   0  0  0  0  0  2  0  0  0  0  0  0
  -28.3900  -26.2580   20.2670 O   0  0  0  0  0  0  0  0  0  0  0  0
  -24.6400  -31.8460   23.1860 C   0  0  0  0  0  0  0  0  0  0  0  0
  -27.3000  -27.1810   20.2150 C   0  0  0  0  0  0  0  0  0  0  0  0
  -23.4740  -30.4340   21.5350 C   0  0  0  0  0  3  0  0  0  0  0  0
  -24.9560  -28.8710   20.1380 C   0  0  0  0  0  0  0  0  0  0  0  0
  -26.0240  -30.7320   21.4030 C   0  0  0  0  0  2  0  0  0  0  0  0
  -26.1180  -29.3410   20.7620 C   0  0  0  0  0  0  0  0  0  0  0  0
  -27.2930  -28.5100   20.7860 C   0  0  0  0  0  3  0  0  0  0  0  0
  -26.1160  -26.8000   19.5480 C   0  0  0  0  0  3  0  0  0  0  0  0
  -24.9660  -27.6140   19.5150 C   0  0  0  0  0  3  0  0  0  0  0  0
  -23.7210  -29.7560   20.1610 C   0  0  0  0  0  2  0  0  0  0  0  0
  -24.7320  -31.0250   22.0970 N   0  0  0  0  0  0  0  0  0  0  0  0
  -23.5450  -32.1220   23.6980 O   0  0  0  0  0  0  0  0  0  0  0  0
  -22.7960  -29.4220   22.4900 C   0  0  0  0  0  0  0  0  0  0  0  0
  -21.4660  -29.2640   22.3680 N   0  0  0  0  0  0  0  0  0  0  0  0
  -23.4650  -28.7810   23.3030 O   0  0  0  0  0  0  0  0  0  0  0  0
  -20.9850  -29.8310   21.6840 H   0  0  0  0  0  0  0  0  0  0  0  0
  -18.0690  -28.1280   22.9030 C   0  0  0  0  0  0  0  0  0  0  0  0
  -20.6370  -28.3310   23.1350 C   0  0  0  0  0  3  0  0  0  0  0  0
  -20.7010  -26.9090   22.5330 C   0  0  0  0  0  2  0  0  0  0  0  0
  -19.5750  -26.6280   21.5310 C   0  0  0  0  0  2  0  0  0  0  0  0
  -18.2070  -26.7880   22.1980 C   0  0  0  0  0  2  0  0  0  0  0  0
  -19.2100  -28.8580   23.3270 C   0  0  0  0  0  0  0  0  0  0  0  0
  -19.0260  -30.1140   23.9480 C   0  0  0  0  0  3  0  0  0  0  0  0
  -17.7350  -30.6370   24.1470 C   0  0  0  0  0  3  0  0  0  0  0  0
  -16.6080  -29.9040   23.7340 C   0  0  0  0  0  3  0  0  0  0  0  0
  -16.7760  -28.6510   23.1180 C   0  0  0  0  0  3  0  0  0  0  0  0
  -25.9050  -32.4920   23.8280 C   0  0  0  0  0  3  0  0  0  0  0  0
  -26.4160  -31.7200   25.1070 C   0  0  1  0  0  0  0  0  0  0  0  0
  -25.3120  -31.4640   26.1600 C   0  0  0  0  0  1  0  0  0  0  0  0
  -27.0210  -30.3510   24.7170 C   0  0  0  0  0  1  0  0  0  0  0  0
  -27.5450  -32.5260   25.7880 C   0  0  0  0  0  1  0  0  0  0  0  0
  -25.5710  -33.8840   24.1670 N   0  0  0  0  0  0  0  0  0  0  0  0
  -25.8850  -34.9500   23.4180 C   0  0  0  0  0  0  0  0  0  0  0  0
  -26.5550  -34.8650   22.3850 O   0  0  0  0  0  0  0  0  0  0  0  0
  -24.9750  -34.0200   24.9700 H   0  0  0  0  0  0  0  0  0  0  0  0
  -24.1270  -36.7220   23.0820 C   0  0  0  0  0  1  0  0  0  0  0  0
  -25.3770  -36.3280   23.8880 C   0  0  0  0  0  3  0  0  0  0  0  0
  -27.4950  -37.2450   24.7270 C   0  0  0  0  0  1  0  0  0  0  0  0
  -26.3920  -37.3990   23.7820 N   0  0  0  0  0  0  0  0  0  0  0  0
  -25.9700  -38.3120   23.9330 H   0  0  0  0  0  0  0  0  0  0  0  0
  1  2  1  0
  1  6  1  0
  2  3  2  0
  3  5  1  0
  4  3  1  0
  6 53  1  0
  6  4  1  0
  8 13  1  0
  9 10  1  0
  9  8  1  0
 11 10  1  0
 11 24  1  0
 11 12  1  0
 13  7  1  0
 13 12  1  0
 14  7  2  0
 16 18  1  0
 17 15  1  0
 18 20  1  0
 19 16  1  0
 19  4  1  0
 19 15  1  0
 20  7  1  0
 20 17  1  0
 21 22  2  0
 22 41  1  0
 23 22  1  0
 23 26  1  0
 24 25  1  0
 24 21  1  0
 25 23  2  0
 26 27  1  0
 27 28  2  0
 29 32  1  0
 29 28  1  0
 30 29  2  0
 31 30  1  0
 31 26  2  0
 32 33  1  0
 33 34  1  0
 34 35  2  0
 36 35  1  0
 36 40  1  0
 37 36  2  0
 38 33  2  0
 38 37  1  0
 39 38  1  0
 41 42  1  0
 42 45  1  0
 42 44  1  0
 43 41  2  0
 46 21  1  0
 46 47  1  0
 48 46  1  0
 49 51  1  0
 51 50  1  0
 51  2  1  0
 53 52  1  0
 53 54  1  0
 55 54  1  0
 56 67  2  0
 57 55  1  0
 57 62  1  0
 58 66  1  0
 58 68  1  0
 59 65  1  0
 59 61  1  0
 60 66  1  0
 61 62  2  0
 61 60  1  0
 63 57  2  0
 64 63  1  0
 64 59  2  0
 65 58  1  0
 66 56  1  0
 68 70  2  0
 69 68  1  0
 71 69  1  0
 72 81  2  0
 72 77  1  0
 73 69  1  0
 73 77  1  0
 74 73  1  0
 75 76  1  0
 75 74  1  0
 76 72  1  0
 77 78  2  0
 78 79  1  0
 80 79  2  0
 81 80  1  0
 82 56  1  0
 82 87  1  0
 82 83  1  0
 83 86  1  1
 83 84  1  0
 85 83  1  0
 87 90  1  0
 88 92  1  0
 88 87  1  0
 89 88  2  0
 92 91  1  0
 94 92  1  0
 94 95  1  0
 94 93  1  0
M  ISO  4   7 100  20 100  54 101  55 101
M  END
>  <TORSDO>  (63) 
F 19

>  <SCORE>  (63) 
-14.191

>  <name>  (63) 
62

>  <ligand_id>  (63) 
62

>  <original_smiles>  (63) 
[H]c1c([H])c([H])c2c(c1[H])C([H])([H])C([H])([H])C([H])([H])C2([H])N([H])C(=O)C1([H])N(C(=O)C([H])(N([H])C(=O)C([H])(N([H])C([H])([H])[H])C([H])([H])[H])C(C([H])([H])[H])(C([H])([H])[H])C([H])([H])[H])C([H])([H])c2c([H])c(OC([H])([H])C([H])(n3c([H])c(C([H])(C([H])([H])[H])C([H])([H])[H])c(C([H])([H])[H])c3C3([H])C([H])([H])C([H])([H])N(C(=O)N4C([H])([H])C([H])([H])C([H])([H])C([H])(n5nc(-c6c([H])c([H])c(Oc7c([H])c([H])c(F)c([H])c7F)c([H])c6[H])c(C(=O)N([H])[H])c5N([H])[H])C4([H])[H])C([H])([H])C3([H])[H])C([H])([H])[H])c([H])c([H])c2C1([H])[H]

>  <smiles>  (63) 
[H]c1c([H])c([H])c2c(c1[H])C([H])([H])C([H])([H])C([H])([H])C2([H])N([H])C(=O)C1([H])N(C(=O)C([H])(N([H])C(=O)C([H])(N([H])C([H])([H])[H])C([H])([H])[H])C(C([H])([H])[H])(C([H])([H])[H])C([H])([H])[H])C([H])([H])c2c([H])c(OC([H])([H])C([H])(n3c([H])c(C([H])(C([H])([H])[H])C([H])([H])[H])c(C([H])([H])[H])c3C3([H])C([H])([H])C([H])([H])N(C(=O)N4C([H])([H])C([H])([H])C([H])([H])C([H])(n5nc(-c6c([H])c([H])c(Oc7c([H])c([H])c(F)c([H])c7F)c([H])c6[H])c(C(=O)N([H])[H])c5N([H])[H])C4([H])[H])C([H])([H])C3([H])[H])C([H])([H])[H])c([H])c([H])c2C1([H])[H]

$$$$
63:0:0
     RDKit          3D

 95104  0  0  1  0  0  0  0  0999 V2000
  -31.1450  -21.3310   19.1240 C   0  0  0  0  0  3  0  0  0  0  0  0
  -30.7560  -22.6700   18.9310 C   0  0  0  0  0  0  0  0  0  0  0  0
  -29.4760  -23.0910   19.3910 C   0  0  0  0  0  0  0  0  0  0  0  0
  -28.6610  -22.0940   20.0050 C   0  0  0  0  0  0  0  0  0  0  0  0
  -30.2760  -20.4290   19.7490 C   0  0  0  0  0  0  0  0  0  0  0  0
  -31.7290  -23.6000   18.2190 C   0  0  0  0  0  1  0  0  0  0  0  0
  -27.2550  -22.3530   20.5170 C   0  0  0  0  0  1  0  0  0  0  0  0
  -29.0600  -20.8090   20.1790 N   0  0  0  0  0  0  0  0  0  0  0  0
  -30.6980  -19.1030   19.9160 N   0  0  0  0  0  0  0  0  0  0  0  0
  -31.6210  -18.8640   19.5740 H   0  0  0  0  0  0  0  0  0  0  0  0
  -30.7810  -14.4640   20.1260 C   0  0  0  0  0  0  0  0  0  0  0  0
  -30.3990  -12.3570   18.9190 C   0  0  0  0  0  2  0  0  0  0  0  0
  -29.4000  -12.6400   17.7790 C   0  0  0  0  0  2  0  0  0  0  0  0
  -27.9470  -12.5020   18.2770 C   0  0  0  0  0  2  0  0  0  0  0  0
  -27.6900  -13.2660   19.6060 C   0  0  0  0  0  3  0  0  0  0  0  0
  -28.8030  -12.9770   20.6390 C   0  0  0  0  0  2  0  0  0  0  0  0
  -30.0920  -13.2980   20.0050 N   0  0  0  0  0  0  0  0  0  0  0  0
  -31.9200  -14.6030   19.6690 O   0  0  0  0  0  0  0  0  0  0  0  0
  -30.1340  -17.5160   21.7510 C   0  0  0  0  0  2  0  0  0  0  0  0
  -29.7700  -16.0270   21.7410 C   0  0  0  0  0  2  0  0  0  0  0  0
  -30.0730  -16.7310   19.4860 C   0  0  0  0  0  2  0  0  0  0  0  0
  -29.8370  -17.9930   20.3330 C   0  0  0  0  0  3  0  0  0  0  0  0
  -30.0180  -15.5560   20.3770 N   0  0  0  0  0  0  0  0  0  0  0  0
  -25.3250  -13.8500   20.4310 C   0  0  0  0  0  0  0  0  0  0  0  0
  -24.2780  -13.0660   20.8330 C   0  0  0  0  0  0  0  0  0  0  0  0
  -24.7430  -11.7170   20.7610 C   0  0  0  0  0  0  0  0  0  0  0  0
  -26.3620  -12.9780   20.1400 N   0  0  0  0  0  0  0  0  0  0  0  0
  -26.0190  -11.6900   20.3970 N   0  0  0  0  0  0  0  0  0  0  0  0
  -24.0320  -10.4480   20.9640 C   0  0  0  0  0  0  0  0  0  0  0  0
  -24.4800   -9.4930   21.9020 C   0  0  0  0  0  3  0  0  0  0  0  0
  -23.7690   -8.2880   22.0920 C   0  0  0  0  0  3  0  0  0  0  0  0
  -22.5960   -8.0300   21.3430 C   0  0  0  0  0  0  0  0  0  0  0  0
  -22.1670   -8.9760   20.3950 C   0  0  0  0  0  3  0  0  0  0  0  0
  -22.8770  -10.1720   20.2040 C   0  0  0  0  0  3  0  0  0  0  0  0
  -21.8570   -6.8760   21.4410 O   0  0  0  0  0  0  0  0  0  0  0  0
  -21.7800   -6.1690   22.6140 C   0  0  0  0  0  0  0  0  0  0  0  0
  -21.2940   -6.7530   23.8060 C   0  0  0  0  0  3  0  0  0  0  0  0
  -21.1660   -5.9720   24.9710 C   0  0  0  0  0  3  0  0  0  0  0  0
  -21.5120   -4.6060   24.9460 C   0  0  0  0  0  0  0  0  0  0  0  0
  -21.9900   -4.0230   23.7590 C   0  0  0  0  0  3  0  0  0  0  0  0
  -22.1210   -4.8020   22.5970 C   0  0  0  0  0  0  0  0  0  0  0  0
  -22.5620   -4.2300   21.4500 F   0  0  0  0  0  0  0  0  0  0  0  0
  -21.3810   -3.8530   26.0630 F   0  0  0  0  0  0  0  0  0  0  0  0
  -22.8920  -13.5320   21.1750 C   0  0  0  0  0  0  0  0  0  0  0  0
  -22.2080  -12.8190   22.0620 N   0  0  0  0  0  0  0  0  0  0  0  0
  -22.4270  -14.5640   20.6920 O   0  0  0  0  0  0  0  0  0  0  0  0
  -22.6000  -11.9870   22.4760 H   0  0  0  0  0  0  0  0  0  0  0  0
  -21.2810  -13.1130   22.3350 H   0  0  0  0  0  0  0  0  0  0  0  0
  -25.4750  -15.2230   20.2670 N   0  0  0  0  0  0  0  0  0  0  0  0
  -24.7110  -15.8710   20.4230 H   0  0  0  0  0  0  0  0  0  0  0  0
  -26.3150  -15.6730   19.9260 H   0  0  0  0  0  0  0  0  0  0  0  0
  -28.1360  -24.6750   17.9130 C   0  0  0  0  0  1  0  0  0  0  0  0
  -29.0220  -24.5580   19.1610 C   0  0  0  0  0  3  0  0  0  0  0  0
  -28.4520  -25.3050   20.3980 C   0  0  0  0  0  2  0  0  0  0  0  0
  -28.4880  -26.7320   20.2230 O   0  0  0  0  0  0  0  0  0  0  0  0
  -24.6260  -31.8930   23.2390 C   0  0  0  0  0  0  0  0  0  0  0  0
  -27.2950  -27.4260   20.2210 C   0  0  0  0  0  0  0  0  0  0  0  0
  -23.4290  -30.4690   21.6110 C   0  0  0  0  0  3  0  0  0  0  0  0
  -24.8880  -28.9170   20.2120 C   0  0  0  0  0  0  0  0  0  0  0  0
  -25.9520  -30.8350   21.4140 C   0  0  0  0  0  2  0  0  0  0  0  0
  -26.0440  -29.4570   20.7910 C   0  0  0  0  0  0  0  0  0  0  0  0
  -27.2500  -28.7210   20.7860 C   0  0  0  0  0  3  0  0  0  0  0  0
  -26.1200  -26.8970   19.6400 C   0  0  0  0  0  3  0  0  0  0  0  0
  -24.9200  -27.6360   19.6350 C   0  0  0  0  0  3  0  0  0  0  0  0
  -23.6430  -29.7720   20.2410 C   0  0  0  0  0  2  0  0  0  0  0  0
  -24.6880  -31.0820   22.1470 N   0  0  0  0  0  0  0  0  0  0  0  0
  -23.5430  -32.1700   23.7710 O   0  0  0  0  0  0  0  0  0  0  0  0
  -22.7770  -29.4580   22.5820 C   0  0  0  0  0  0  0  0  0  0  0  0
  -21.4540  -29.2680   22.4470 N   0  0  0  0  0  0  0  0  0  0  0  0
  -23.4580  -28.8470   23.4090 O   0  0  0  0  0  0  0  0  0  0  0  0
  -20.9670  -29.8110   21.7470 H   0  0  0  0  0  0  0  0  0  0  0  0
  -18.0840  -28.0610   22.9330 C   0  0  0  0  0  0  0  0  0  0  0  0
  -20.6370  -28.3390   23.2250 C   0  0  0  0  0  3  0  0  0  0  0  0
  -20.7540  -26.9000   22.6720 C   0  0  0  0  0  2  0  0  0  0  0  0
  -19.6630  -26.5540   21.6540 C   0  0  0  0  0  2  0  0  0  0  0  0
  -18.2730  -26.7020   22.2810 C   0  0  0  0  0  2  0  0  0  0  0  0
  -19.1930  -28.8360   23.3620 C   0  0  0  0  0  0  0  0  0  0  0  0
  -18.9620  -30.1070   23.9310 C   0  0  0  0  0  3  0  0  0  0  0  0
  -17.6530  -30.6050   24.0700 C   0  0  0  0  0  3  0  0  0  0  0  0
  -16.5570  -29.8270   23.6590 C   0  0  0  0  0  3  0  0  0  0  0  0
  -16.7720  -28.5560   23.0980 C   0  0  0  0  0  3  0  0  0  0  0  0
  -25.9100  -32.5310   23.8570 C   0  0  0  0  0  3  0  0  0  0  0  0
  -25.5940  -33.9270   24.1870 N   0  0  0  0  0  0  0  0  0  0  0  0
  -25.9160  -34.9800   23.4220 C   0  0  0  0  0  0  0  0  0  0  0  0
  -26.5840  -34.8780   22.3890 O   0  0  0  0  0  0  0  0  0  0  0  0
  -24.9990  -34.0810   24.9870 H   0  0  0  0  0  0  0  0  0  0  0  0
  -24.1760  -36.7590   23.0660 C   0  0  0  0  0  1  0  0  0  0  0  0
  -25.4200  -36.3650   23.8790 C   0  0  0  0  0  3  0  0  0  0  0  0
  -27.5460  -37.2640   24.7120 C   0  0  0  0  0  1  0  0  0  0  0  0
  -26.4450  -37.4250   23.7660 N   0  0  0  0  0  0  0  0  0  0  0  0
  -26.0330  -38.3420   23.9110 H   0  0  0  0  0  0  0  0  0  0  0  0
  -26.4390  -31.7640   25.1310 C   0  0  1  0  0  0  0  0  0  0  0  0
  -25.3500  -31.5120   26.2000 C   0  0  0  0  0  1  0  0  0  0  0  0
  -27.0360  -30.3950   24.7320 C   0  0  0  0  0  1  0  0  0  0  0  0
  -27.5850  -32.5690   25.7870 C   0  0  0  0  0  1  0  0  0  0  0  0
  1  5  1  0
  2  1  2  0
  2  3  1  0
  3  4  2  0
  4  8  1  0
  4  7  1  0
  5  9  1  0
  5  8  2  0
  6  2  1  0
 10  9  1  0
 11 23  1  0
 12 17  1  0
 13 14  1  0
 13 12  1  0
 15 14  1  0
 15 27  1  0
 15 16  1  0
 17 11  1  0
 17 16  1  0
 18 11  2  0
 20 19  1  0
 21 22  1  0
 21 23  1  0
 22  9  1  0
 22 19  1  0
 23 20  1  0
 24 25  2  0
 25 44  1  0
 26 25  1  0
 26 29  1  0
 27 28  1  0
 27 24  1  0
 28 26  2  0
 29 30  1  0
 30 31  2  0
 32 35  1  0
 32 31  1  0
 33 32  2  0
 34 33  1  0
 34 29  2  0
 35 36  1  0
 36 37  1  0
 37 38  2  0
 39 38  1  0
 39 43  1  0
 40 39  2  0
 41 36  2  0
 41 40  1  0
 42 41  1  0
 44 45  1  0
 45 48  1  0
 45 47  1  0
 46 44  2  0
 49 50  1  0
 49 24  1  0
 51 49  1  0
 53 52  1  0
 53  3  1  0
 53 54  1  0
 55 54  1  0
 56 67  2  0
 57 55  1  0
 57 62  1  0
 58 66  1  0
 58 68  1  0
 59 65  1  0
 59 61  1  0
 60 66  1  0
 61 60  1  0
 62 61  2  0
 63 57  2  0
 64 63  1  0
 64 59  2  0
 65 58  1  0
 66 56  1  0
 68 70  2  0
 69 68  1  0
 71 69  1  0
 72 81  2  0
 72 77  1  0
 73 69  1  0
 73 77  1  0
 74 73  1  0
 75 76  1  0
 75 74  1  0
 76 72  1  0
 77 78  2  0
 78 79  1  0
 80 79  2  0
 81 80  1  0
 82 56  1  0
 82 83  1  0
 82 92  1  0
 83 86  1  0
 84 88  1  0
 84 83  1  0
 85 84  2  0
 88 87  1  0
 90 88  1  0
 90 91  1  0
 90 89  1  0
 92 95  1  1
 92 93  1  0
 94 92  1  0
M  ISO  4  11 100  23 100  54 101  55 101
M  END
>  <TORSDO>  (64) 
F 18

>  <SCORE>  (64) 
-14.429

>  <name>  (64) 
63

>  <ligand_id>  (64) 
63

>  <original_smiles>  (64) 
[H]c1c([H])c([H])c2c(c1[H])C([H])([H])C([H])([H])C([H])([H])C2([H])N([H])C(=O)C1([H])N(C(=O)C([H])(N([H])C(=O)C([H])(N([H])C([H])([H])[H])C([H])([H])[H])C(C([H])([H])[H])(C([H])([H])[H])C([H])([H])[H])C([H])([H])c2c([H])c(OC([H])([H])C([H])(c3c(C([H])([H])[H])nc(N([H])C4([H])C([H])([H])N(C(=O)N5C([H])([H])C([H])([H])C([H])([H])C([H])(n6nc(-c7c([H])c([H])c(Oc8c([H])c([H])c(F)c([H])c8F)c([H])c7[H])c(C(=O)N([H])[H])c6N([H])[H])C5([H])[H])C([H])([H])C4([H])[H])c([H])c3C([H])([H])[H])C([H])([H])[H])c([H])c([H])c2C1([H])[H]

>  <smiles>  (64) 
[H]c1c([H])c([H])c2c(c1[H])C([H])([H])C([H])([H])C([H])([H])C2([H])N([H])C(=O)C1([H])N(C(=O)C([H])(N([H])C(=O)C([H])(N([H])C([H])([H])[H])C([H])([H])[H])C(C([H])([H])[H])(C([H])([H])[H])C([H])([H])[H])C([H])([H])c2c([H])c(OC([H])([H])C([H])(c3c(C([H])([H])[H])nc(N([H])C4([H])C([H])([H])N(C(=O)N5C([H])([H])C([H])([H])C([H])([H])C([H])(n6nc(-c7c([H])c([H])c(Oc8c([H])c([H])c(F)c([H])c8F)c([H])c7[H])c(C(=O)N([H])[H])c6N([H])[H])C5([H])[H])C([H])([H])C4([H])[H])c([H])c3C([H])([H])[H])C([H])([H])[H])c([H])c([H])c2C1([H])[H]

$$$$
64:0:0
     RDKit          3D

100110  0  0  1  0  0  0  0  0999 V2000
  -28.7800  -24.4520   21.7660 C   0  0  0  0  0  0  0  0  0  0  0  0
  -29.6130  -23.9180   22.7440 C   0  0  0  0  0  0  0  0  0  0  0  0
  -28.6170  -23.9000   20.4700 C   0  0  0  0  0  0  0  0  0  0  0  0
  -30.4660  -22.8450   22.4220 C   0  0  0  0  0  0  0  0  0  0  0  0
  -30.2960  -22.1960   21.1700 C   0  0  0  0  0  0  0  0  0  0  0  0
  -29.2080  -22.5360   20.2850 C   0  0  0  0  0  0  0  0  0  0  0  0
  -28.0390  -25.6520   22.3050 C   0  0  0  0  0  2  0  0  0  0  0  0
  -28.2890  -25.6360   23.8130 C   0  0  0  0  0  2  0  0  0  0  0  0
  -29.4710  -24.6700   24.0710 C   0  0  1  0  0  0  0  0  0  0  0  0
  -31.5510  -22.3450   23.3790 C   0  0  0  0  0  1  0  0  0  0  0  0
  -31.3480  -21.1340   20.8150 C   0  0  0  0  0  1  0  0  0  0  0  0
  -29.0840  -23.7310   25.2340 C   0  0  0  0  0  1  0  0  0  0  0  0
  -30.7290  -25.5050   24.3880 C   0  0  0  0  0  1  0  0  0  0  0  0
  -28.7290  -21.3750   19.2740 C   0  0  0  0  0  2  0  0  0  0  0  0
  -30.0120  -17.8400   18.1070 C   0  0  0  0  0  2  0  0  0  0  0  0
  -29.7330  -19.3770   17.9470 C   0  0  0  0  0  2  0  0  0  0  0  0
  -28.8550  -18.7110   20.0110 C   0  0  0  0  0  2  0  0  0  0  0  0
  -29.7930  -17.4640   19.5890 C   0  0  0  0  0  3  0  0  0  0  0  0
  -29.3740  -19.9420   19.2780 N   0  0  2  0  0  4  0  0  0  0  0  0
  -30.2680  -20.1180   19.7130 H   0  0  0  0  0  0  0  0  0  0  0  0
  -30.2120  -14.8270   19.7560 C   0  0  0  0  0  0  0  0  0  0  0  0
  -30.0020  -12.5010   18.8650 C   0  0  0  0  0  2  0  0  0  0  0  0
  -28.9580  -12.4880   17.7280 C   0  0  0  0  0  2  0  0  0  0  0  0
  -27.5450  -12.2670   18.2990 C   0  0  0  0  0  2  0  0  0  0  0  0
  -27.2420  -13.1790   19.5190 C   0  0  0  0  0  3  0  0  0  0  0  0
  -28.4070  -13.1940   20.5340 C   0  0  0  0  0  2  0  0  0  0  0  0
  -29.6180  -13.5820   19.8000 N   0  0  0  0  0  0  0  0  0  0  0  0
  -31.3880  -14.9190   19.3950 O   0  0  0  0  0  0  0  0  0  0  0  0
  -29.4280  -15.9800   19.8620 N   0  0  0  0  0  0  0  0  0  0  0  0
  -28.4580  -15.8120   20.0940 H   0  0  0  0  0  0  0  0  0  0  0  0
  -24.9310  -13.6960   20.4960 C   0  0  0  0  0  0  0  0  0  0  0  0
  -23.9260  -12.8920   20.9580 C   0  0  0  0  0  0  0  0  0  0  0  0
  -24.4170  -11.5530   20.8630 C   0  0  0  0  0  0  0  0  0  0  0  0
  -25.9670  -12.8460   20.1460 N   0  0  0  0  0  0  0  0  0  0  0  0
  -25.6720  -11.5510   20.4300 N   0  0  0  0  0  0  0  0  0  0  0  0
  -23.7390  -10.2710   21.1030 C   0  0  0  0  0  0  0  0  0  0  0  0
  -24.2480   -9.3270   22.0200 C   0  0  0  0  0  3  0  0  0  0  0  0
  -23.5690   -8.1100   22.2460 C   0  0  0  0  0  3  0  0  0  0  0  0
  -22.3640   -7.8320   21.5580 C   0  0  0  0  0  0  0  0  0  0  0  0
  -21.8750   -8.7640   20.6260 C   0  0  0  0  0  3  0  0  0  0  0  0
  -22.5550   -9.9720   20.3990 C   0  0  0  0  0  3  0  0  0  0  0  0
  -21.6480   -6.6680   21.6960 O   0  0  0  0  0  0  0  0  0  0  0  0
  -21.6540   -5.9550   22.8670 C   0  0  0  0  0  0  0  0  0  0  0  0
  -21.2000   -6.5120   24.0830 C   0  0  0  0  0  3  0  0  0  0  0  0
  -21.1590   -5.7230   25.2490 C   0  0  0  0  0  3  0  0  0  0  0  0
  -21.5610   -4.3740   25.2010 C   0  0  0  0  0  0  0  0  0  0  0  0
  -22.0080   -3.8150   23.9910 C   0  0  0  0  0  3  0  0  0  0  0  0
  -22.0520   -4.6030   22.8270 C   0  0  0  0  0  0  0  0  0  0  0  0
  -22.4640   -4.0530   21.6600 F   0  0  0  0  0  0  0  0  0  0  0  0
  -21.5160   -3.6110   26.3190 F   0  0  0  0  0  0  0  0  0  0  0  0
  -22.5510  -13.3330   21.3670 C   0  0  0  0  0  0  0  0  0  0  0  0
  -21.9260  -12.6100   22.2900 N   0  0  0  0  0  0  0  0  0  0  0  0
  -22.0430  -14.3530   20.9020 O   0  0  0  0  0  0  0  0  0  0  0  0
  -22.3500  -11.7830   22.6840 H   0  0  0  0  0  0  0  0  0  0  0  0
  -21.0050  -12.8840   22.6040 H   0  0  0  0  0  0  0  0  0  0  0  0
  -25.0430  -15.0720   20.3160 N   0  0  0  0  0  0  0  0  0  0  0  0
  -24.2610  -15.6950   20.4760 H   0  0  0  0  0  0  0  0  0  0  0  0
  -25.8160  -15.5220   19.8440 H   0  0  0  0  0  0  0  0  0  0  0  0
  -27.7500  -24.8460   19.5080 C   0  0  0  0  0  2  0  0  0  0  0  0
  -27.9290  -26.3670   19.6010 O   0  0  0  0  0  0  0  0  0  0  0  0
  -24.4810  -31.7850   23.0770 C   0  0  0  0  0  0  0  0  0  0  0  0
  -26.8370  -27.2810   19.6500 C   0  0  0  0  0  0  0  0  0  0  0  0
  -23.1670  -30.4910   21.4360 C   0  0  0  0  0  3  0  0  0  0  0  0
  -24.5110  -28.9830   19.8540 C   0  0  0  0  0  0  0  0  0  0  0  0
  -25.7050  -30.7570   21.1360 C   0  0  0  0  0  2  0  0  0  0  0  0
  -25.7220  -29.4060   20.4170 C   0  0  0  0  0  0  0  0  0  0  0  0
  -26.8800  -28.5640   20.3120 C   0  0  0  0  0  3  0  0  0  0  0  0
  -25.6020  -26.9480   19.0490 C   0  0  0  0  0  3  0  0  0  0  0  0
  -24.4610  -27.7650   19.1610 C   0  0  0  0  0  3  0  0  0  0  0  0
  -23.3000  -29.8830   20.0130 C   0  0  0  0  0  2  0  0  0  0  0  0
  -24.4750  -31.0270   21.9380 N   0  0  0  0  0  0  0  0  0  0  0  0
  -23.4310  -32.0510   23.6810 O   0  0  0  0  0  0  0  0  0  0  0  0
  -22.5380  -29.4410   22.3800 C   0  0  0  0  0  0  0  0  0  0  0  0
  -21.2120  -29.2490   22.2790 N   0  0  0  0  0  0  0  0  0  0  0  0
  -23.2420  -28.8050   23.1680 O   0  0  0  0  0  0  0  0  0  0  0  0
  -20.6980  -29.8200   21.6250 H   0  0  0  0  0  0  0  0  0  0  0  0
  -17.8750  -27.9340   22.7670 C   0  0  0  0  0  0  0  0  0  0  0  0
  -20.4280  -28.2730   23.0420 C   0  0  0  0  0  3  0  0  0  0  0  0
  -20.5750  -26.8530   22.4510 C   0  0  0  0  0  2  0  0  0  0  0  0
  -19.4830  -26.5070   21.4350 C   0  0  0  0  0  2  0  0  0  0  0  0
  -18.0960  -26.6000   22.0780 C   0  0  0  0  0  2  0  0  0  0  0  0
  -18.9710  -28.7270   23.2080 C   0  0  0  0  0  0  0  0  0  0  0  0
  -18.7100  -29.9750   23.8130 C   0  0  0  0  0  3  0  0  0  0  0  0
  -17.3910  -30.4300   23.9890 C   0  0  0  0  0  3  0  0  0  0  0  0
  -16.3100  -29.6320   23.5690 C   0  0  0  0  0  3  0  0  0  0  0  0
  -16.5540  -28.3890   22.9600 C   0  0  0  0  0  3  0  0  0  0  0  0
  -25.8030  -32.3740   23.6570 C   0  0  0  0  0  3  0  0  0  0  0  0
  -26.3630  -31.5430   24.8770 C   0  0  1  0  0  0  0  0  0  0  0  0
  -25.3200  -31.2820   25.9900 C   0  0  0  0  0  1  0  0  0  0  0  0
  -26.9020  -30.1710   24.4040 C   0  0  0  0  0  1  0  0  0  0  0  0
  -27.5600  -32.2870   25.5120 C   0  0  0  0  0  1  0  0  0  0  0  0
  -25.5310  -33.7630   24.0630 N   0  0  0  0  0  0  0  0  0  0  0  0
  -25.8580  -34.8460   23.3470 C   0  0  0  0  0  0  0  0  0  0  0  0
  -26.4870  -34.7800   22.2870 O   0  0  0  0  0  0  0  0  0  0  0  0
  -24.9710  -33.8880   24.8930 H   0  0  0  0  0  0  0  0  0  0  0  0
  -24.1540  -36.6890   23.1530 C   0  0  0  0  0  1  0  0  0  0  0  0
  -25.4180  -36.2220   23.8880 C   0  0  0  0  0  3  0  0  0  0  0  0
  -27.5980  -37.0320   24.6770 C   0  0  0  0  0  1  0  0  0  0  0  0
  -26.4660  -37.2590   23.7820 N   0  0  0  0  0  0  0  0  0  0  0  0
  -26.0850  -38.1790   23.9830 H   0  0  0  0  0  0  0  0  0  0  0  0
  1  7  1  0
  1  2  1  0
  2  9  1  0
  3  1  2  0
  4  2  2  0
  4 10  1  0
  5  4  1  0
  6  3  1  0
  6  5  2  0
  7  8  1  0
  8  9  1  0
  9 13  1  1
  9 12  1  0
 11  5  1  0
 14 19  1  0
 14  6  1  0
 15 18  1  0
 16 15  1  0
 16 19  1  0
 18 29  1  0
 18 17  1  0
 19 20  1  1
 19 17  1  0
 21 27  1  0
 21 29  1  0
 22 27  1  0
 23 24  1  0
 23 22  1  0
 25 24  1  0
 25 34  1  0
 25 26  1  0
 27 26  1  0
 28 21  2  0
 29 30  1  0
 31 32  2  0
 32 51  1  0
 33 32  1  0
 33 36  1  0
 34 35  1  0
 34 31  1  0
 35 33  2  0
 36 37  1  0
 37 38  2  0
 39 42  1  0
 39 38  1  0
 40 39  2  0
 41 40  1  0
 41 36  2  0
 42 43  1  0
 43 44  1  0
 44 45  2  0
 46 45  1  0
 46 50  1  0
 47 46  2  0
 48 43  2  0
 48 47  1  0
 49 48  1  0
 51 52  1  0
 52 55  1  0
 52 54  1  0
 53 51  2  0
 56 57  1  0
 56 31  1  0
 58 56  1  0
 59 60  1  0
 59  3  1  0
 60 62  1  0
 61 72  2  0
 62 67  1  0
 63 71  1  0
 63 73  1  0
 64 70  1  0
 64 66  1  0
 65 71  1  0
 66 65  1  0
 67 66  2  0
 68 69  1  0
 68 62  2  0
 69 64  2  0
 70 63  1  0
 71 61  1  0
 73 75  2  0
 74 73  1  0
 76 74  1  0
 77 86  2  0
 77 82  1  0
 78 74  1  0
 78 82  1  0
 79 78  1  0
 80 81  1  0
 80 79  1  0
 81 77  1  0
 82 83  2  0
 83 84  1  0
 85 84  2  0
 86 85  1  0
 87 61  1  0
 87 92  1  0
 87 88  1  0
 88 91  1  1
 88 89  1  0
 90 88  1  0
 92 95  1  0
 93 97  1  0
 93 92  1  0
 94 93  2  0
 97 96  1  0
 99 97  1  0
 99100  1  0
 99 98  1  0
M  ISO  4  21 100  29 100  59 101  60 101
M  END
>  <TORSDO>  (65) 
F 19

>  <SCORE>  (65) 
-8.586

>  <name>  (65) 
64

>  <ligand_id>  (65) 
64

>  <original_smiles>  (65) 
[H]c1c([H])c([H])c2c(c1[H])C([H])([H])C([H])([H])C([H])([H])C2([H])N([H])C(=O)C1([H])N(C(=O)C([H])(N([H])C(=O)C([H])(N([H])C([H])([H])[H])C([H])([H])[H])C(C([H])([H])[H])(C([H])([H])[H])C([H])([H])[H])C([H])([H])c2c([H])c(OC([H])([H])c3c4c(c(C([H])([H])[H])c(C([H])([H])[H])c3C([H])([H])[N+]3([H])C([H])([H])C([H])([H])C([H])(N([H])C(=O)N5C([H])([H])C([H])([H])C([H])([H])C([H])(n6nc(-c7c([H])c([H])c(Oc8c([H])c([H])c(F)c([H])c8F)c([H])c7[H])c(C(=O)N([H])[H])c6N([H])[H])C5([H])[H])C3([H])[H])C(C([H])([H])[H])(C([H])([H])[H])C([H])([H])C4([H])[H])c([H])c([H])c2C1([H])[H]

>  <smiles>  (65) 
[H]c1c([H])c([H])c2c(c1[H])C([H])([H])C([H])([H])C([H])([H])C2([H])N([H])C(=O)C1([H])N(C(=O)C([H])(N([H])C(=O)C([H])(N([H])C([H])([H])[H])C([H])([H])[H])C(C([H])([H])[H])(C([H])([H])[H])C([H])([H])[H])C([H])([H])c2c([H])c(OC([H])([H])c3c4c(c(C([H])([H])[H])c(C([H])([H])[H])c3C([H])([H])[N+]3([H])C([H])([H])C([H])([H])C([H])(N([H])C(=O)N5C([H])([H])C([H])([H])C([H])([H])C([H])(n6nc(-c7c([H])c([H])c(Oc8c([H])c([H])c(F)c([H])c8F)c([H])c7[H])c(C(=O)N([H])[H])c6N([H])[H])C5([H])[H])C3([H])[H])C(C([H])([H])[H])(C([H])([H])[H])C([H])([H])C4([H])[H])c([H])c([H])c2C1([H])[H]

$$$$
65:0:0
     RDKit          3D

 96105  0  0  1  0  0  0  0  0999 V2000
  -29.3310  -19.8970   20.3670 C   0  0  0  0  0  0  0  0  0  0  0  0
  -29.2550  -21.2600   20.0850 N   0  0  0  0  0  0  0  0  0  0  0  0
  -28.8590  -19.4470   21.4110 O   0  0  0  0  0  0  0  0  0  0  0  0
  -29.6900  -21.4860   19.1990 H   0  0  0  0  0  0  0  0  0  0  0  0
  -31.1350  -19.2540   16.9580 C   0  0  0  0  0  2  0  0  0  0  0  0
  -29.4380  -17.4690   17.2330 C   0  0  0  0  0  2  0  0  0  0  0  0
  -30.7240  -19.8660   18.2920 C   0  0  0  0  0  2  0  0  0  0  0  0
  -28.8330  -18.2620   18.4270 C   0  0  0  0  0  2  0  0  0  0  0  0
  -30.9600  -17.7570   17.0850 C   0  0  0  0  0  3  0  0  0  0  0  0
  -30.9220  -17.5390   19.6560 C   0  0  0  0  0  3  0  0  0  0  0  0
  -29.9670  -18.8780   19.2810 C   0  0  2  0  0  0  0  0  0  0  0  0
  -31.7700  -17.2260   18.3150 C   0  0  1  0  0  0  0  0  0  0  0  0
  -32.0670  -15.7650   17.9130 C   0  0  0  0  0  1  0  0  0  0  0  0
  -33.1920  -17.8410   18.4220 C   0  0  0  0  0  1  0  0  0  0  0  0
  -30.9610  -15.0220   20.5420 C   0  0  0  0  0  0  0  0  0  0  0  0
  -30.7470  -12.7520   19.5410 C   0  0  0  0  0  2  0  0  0  0  0  0
  -29.8270  -12.7010   18.3000 C   0  0  0  0  0  2  0  0  0  0  0  0
  -28.3410  -12.6320   18.6830 C   0  0  0  0  0  2  0  0  0  0  0  0
  -27.9410  -13.5500   19.8700 C   0  0  0  0  0  3  0  0  0  0  0  0
  -28.9720  -13.4930   21.0140 C   0  0  0  0  0  2  0  0  0  0  0  0
  -30.2720  -13.8360   20.4270 N   0  0  0  0  0  0  0  0  0  0  0  0
  -32.1880  -15.0000   20.6140 O   0  0  0  0  0  0  0  0  0  0  0  0
  -30.3150  -16.2090   20.1900 N   0  0  0  0  0  0  0  0  0  0  0  0
  -29.3170  -16.1290   20.0920 H   0  0  0  0  0  0  0  0  0  0  0  0
  -25.5210  -14.1410   20.4910 C   0  0  0  0  0  0  0  0  0  0  0  0
  -24.4410  -13.3660   20.8160 C   0  0  0  0  0  0  0  0  0  0  0  0
  -24.9150  -12.0180   20.8380 C   0  0  0  0  0  0  0  0  0  0  0  0
  -26.5820  -13.2670   20.3240 N   0  0  0  0  0  0  0  0  0  0  0  0
  -26.2210  -11.9880   20.6040 N   0  0  0  0  0  0  0  0  0  0  0  0
  -24.1880  -10.7520   21.0070 C   0  0  0  0  0  0  0  0  0  0  0  0
  -24.5550   -9.8160   21.9980 C   0  0  0  0  0  3  0  0  0  0  0  0
  -23.8270   -8.6160   22.1540 C   0  0  0  0  0  3  0  0  0  0  0  0
  -22.7210   -8.3430   21.3160 C   0  0  0  0  0  0  0  0  0  0  0  0
  -22.3760   -9.2670   20.3150 C   0  0  0  0  0  3  0  0  0  0  0  0
  -23.1030  -10.4580   20.1570 C   0  0  0  0  0  3  0  0  0  0  0  0
  -21.9720   -7.1920   21.3780 O   0  0  0  0  0  0  0  0  0  0  0  0
  -21.8020   -6.5070   22.5550 C   0  0  0  0  0  0  0  0  0  0  0  0
  -21.2260   -7.1120   23.6930 C   0  0  0  0  0  3  0  0  0  0  0  0
  -21.0050   -6.3530   24.8600 C   0  0  0  0  0  3  0  0  0  0  0  0
  -21.3510   -4.9890   24.8880 C   0  0  0  0  0  0  0  0  0  0  0  0
  -21.9190   -4.3830   23.7540 C   0  0  0  0  0  3  0  0  0  0  0  0
  -22.1420   -5.1400   22.5910 C   0  0  0  0  0  0  0  0  0  0  0  0
  -22.6730   -4.5450   21.4940 F   0  0  0  0  0  0  0  0  0  0  0  0
  -21.1330   -4.2580   26.0050 F   0  0  0  0  0  0  0  0  0  0  0  0
  -23.0280  -13.8350   20.9960 C   0  0  0  0  0  0  0  0  0  0  0  0
  -22.2660  -13.1720   21.8570 N   0  0  0  0  0  0  0  0  0  0  0  0
  -22.6050  -14.8300   20.4070 O   0  0  0  0  0  0  0  0  0  0  0  0
  -22.6170  -12.3650   22.3530 H   0  0  0  0  0  0  0  0  0  0  0  0
  -21.3150  -13.4700   22.0200 H   0  0  0  0  0  0  0  0  0  0  0  0
  -25.6860  -15.5090   20.2930 N   0  0  0  0  0  0  0  0  0  0  0  0
  -24.9100  -16.1620   20.3420 H   0  0  0  0  0  0  0  0  0  0  0  0
  -26.5510  -15.9480   20.0090 H   0  0  0  0  0  0  0  0  0  0  0  0
  -28.5940  -22.4580   20.7420 C   0  0  0  0  0  2  0  0  0  0  0  0
  -28.7710  -23.9100   20.0330 C   0  0  0  0  0  3  0  0  0  0  0  0
  -28.1290  -25.2220   20.7200 C   0  0  0  0  0  3  0  0  0  0  0  0
  -28.3100  -26.6040   20.1630 O   0  0  0  0  0  0  0  0  0  0  0  0
  -24.6010  -31.9990   23.2830 C   0  0  0  0  0  0  0  0  0  0  0  0
  -27.2050  -27.4740   20.1610 C   0  0  0  0  0  0  0  0  0  0  0  0
  -23.3920  -30.6100   21.6420 C   0  0  0  0  0  3  0  0  0  0  0  0
  -24.8350  -29.0820   20.1830 C   0  0  0  0  0  0  0  0  0  0  0  0
  -25.9270  -30.9480   21.4290 C   0  0  0  0  0  2  0  0  0  0  0  0
  -26.0120  -29.5740   20.7670 C   0  0  0  0  0  0  0  0  0  0  0  0
  -27.2030  -28.7830   20.7420 C   0  0  0  0  0  3  0  0  0  0  0  0
  -26.0100  -27.0400   19.5520 C   0  0  0  0  0  3  0  0  0  0  0  0
  -24.8360  -27.8210   19.5660 C   0  0  0  0  0  3  0  0  0  0  0  0
  -23.5960  -29.9530   20.2520 C   0  0  0  0  0  2  0  0  0  0  0  0
  -24.6600  -31.2020   22.1760 N   0  0  0  0  0  0  0  0  0  0  0  0
  -23.5220  -32.2620   23.8330 O   0  0  0  0  0  0  0  0  0  0  0  0
  -22.7450  -29.5800   22.5970 C   0  0  0  0  0  0  0  0  0  0  0  0
  -21.4220  -29.3720   22.4630 N   0  0  0  0  0  0  0  0  0  0  0  0
  -23.4310  -28.9680   23.4190 O   0  0  0  0  0  0  0  0  0  0  0  0
  -20.9280  -29.9210   21.7730 H   0  0  0  0  0  0  0  0  0  0  0  0
  -18.0690  -28.0970   22.9470 C   0  0  0  0  0  0  0  0  0  0  0  0
  -20.6200  -28.4160   23.2270 C   0  0  0  0  0  3  0  0  0  0  0  0
  -20.7570  -26.9870   22.6530 C   0  0  0  0  0  2  0  0  0  0  0  0
  -19.6690  -26.6400   21.6330 C   0  0  0  0  0  2  0  0  0  0  0  0
  -18.2790  -26.7530   22.2690 C   0  0  0  0  0  2  0  0  0  0  0  0
  -19.1680  -28.8840   23.3810 C   0  0  0  0  0  0  0  0  0  0  0  0
  -18.9190  -30.1410   23.9750 C   0  0  0  0  0  3  0  0  0  0  0  0
  -17.6030  -30.6130   24.1340 C   0  0  0  0  0  3  0  0  0  0  0  0
  -16.5180  -29.8250   23.7150 C   0  0  0  0  0  3  0  0  0  0  0  0
  -16.7510  -28.5680   23.1270 C   0  0  0  0  0  3  0  0  0  0  0  0
  -25.8840  -32.6360   23.9000 C   0  0  0  0  0  3  0  0  0  0  0  0
  -26.4030  -31.8730   25.1810 C   0  0  1  0  0  0  0  0  0  0  0  0
  -25.3040  -31.6120   26.2400 C   0  0  0  0  0  1  0  0  0  0  0  0
  -27.0130  -30.5060   24.7950 C   0  0  0  0  0  1  0  0  0  0  0  0
  -27.5330  -32.6860   25.8530 C   0  0  0  0  0  1  0  0  0  0  0  0
  -25.5770  -34.0370   24.2220 N   0  0  0  0  0  0  0  0  0  0  0  0
  -25.9040  -35.0850   23.4540 C   0  0  0  0  0  0  0  0  0  0  0  0
  -26.5670  -34.9740   22.4200 O   0  0  0  0  0  0  0  0  0  0  0  0
  -24.9880  -34.1970   25.0270 H   0  0  0  0  0  0  0  0  0  0  0  0
  -24.1750  -36.8790   23.1020 C   0  0  0  0  0  1  0  0  0  0  0  0
  -25.4210  -36.4780   23.9060 C   0  0  0  0  0  3  0  0  0  0  0  0
  -27.5630  -37.3700   24.7130 C   0  0  0  0  0  1  0  0  0  0  0  0
  -26.4550  -37.5290   23.7740 N   0  0  0  0  0  0  0  0  0  0  0  0
  -26.0510  -38.4510   23.9160 H   0  0  0  0  0  0  0  0  0  0  0  0
  1  3  2  0
  2  1  1  0
  2 53  1  0
  4  2  1  0
  5  7  1  0
  6  8  1  0
  7 11  1  0
  8 11  1  0
  9  5  1  0
  9  6  1  0
  9 12  1  0
 10 23  1  0
 11 10  1  0
 11  1  1  1
 12 14  1  1
 12 10  1  0
 13 12  1  0
 15 22  2  0
 16 21  1  0
 17 18  1  0
 17 16  1  0
 19 18  1  0
 19 28  1  0
 19 20  1  0
 21 15  1  0
 21 20  1  0
 23 15  1  0
 24 23  1  0
 25 26  2  0
 26 27  1  0
 26 45  1  0
 27 30  1  0
 28 25  1  0
 28 29  1  0
 29 27  2  0
 30 31  1  0
 31 32  2  0
 33 36  1  0
 33 32  1  0
 34 33  2  0
 35 34  1  0
 35 30  2  0
 36 37  1  0
 37 42  2  0
 37 38  1  0
 38 39  2  0
 39 40  1  0
 40 44  1  0
 41 40  2  0
 42 41  1  0
 43 42  1  0
 45 46  1  0
 46 49  1  0
 46 48  1  0
 47 45  2  0
 50 51  1  0
 50 25  1  0
 52 50  1  0
 54 55  2  0
 54 53  1  0
 56 55  1  0
 57 68  2  0
 58 56  1  0
 58 63  1  0
 59 67  1  0
 59 69  1  0
 60 66  1  0
 60 62  1  0
 61 67  1  0
 62 61  1  0
 63 62  2  0
 64 65  1  0
 64 58  2  0
 65 60  2  0
 66 59  1  0
 67 57  1  0
 69 71  2  0
 70 69  1  0
 72 70  1  0
 73 82  2  0
 73 78  1  0
 74 70  1  0
 74 78  1  0
 75 74  1  0
 76 77  1  0
 76 75  1  0
 77 73  1  0
 78 79  2  0
 79 80  1  0
 81 80  2  0
 82 81  1  0
 83 57  1  0
 83 88  1  0
 83 84  1  0
 84 87  1  1
 84 85  1  0
 86 84  1  0
 88 91  1  0
 89 93  1  0
 89 88  1  0
 90 89  2  0
 93 92  1  0
 95 93  1  0
 95 96  1  0
 95 94  1  0
M  ISO  4  15 100  23 100  55 101  56 101
M  END
>  <TORSDO>  (66) 
F 20

>  <SCORE>  (66) 
-12.689

>  <name>  (66) 
65

>  <ligand_id>  (66) 
65

>  <original_smiles>  (66) 
[H]c1c([H])c([H])c2c(c1[H])C([H])([H])C([H])([H])C([H])([H])C2([H])N([H])C(=O)C1([H])N(C(=O)C([H])(N([H])C(=O)C([H])(N([H])C([H])([H])[H])C([H])([H])[H])C(C([H])([H])[H])(C([H])([H])[H])C([H])([H])[H])C([H])([H])c2c([H])c(OC([H])([H])C([H])([H])C([H])([H])N([H])C(=O)C34C([H])([H])C([H])([H])C([H])(C([H])([H])C3([H])[H])C(C([H])([H])[H])(C([H])([H])[H])C4([H])N([H])C(=O)N3C([H])([H])C([H])([H])C([H])([H])C([H])(n4nc(-c5c([H])c([H])c(Oc6c([H])c([H])c(F)c([H])c6F)c([H])c5[H])c(C(=O)N([H])[H])c4N([H])[H])C3([H])[H])c([H])c([H])c2C1([H])[H]

>  <smiles>  (66) 
[H]c1c([H])c([H])c2c(c1[H])C([H])([H])C([H])([H])C([H])([H])C2([H])N([H])C(=O)C1([H])N(C(=O)C([H])(N([H])C(=O)C([H])(N([H])C([H])([H])[H])C([H])([H])[H])C(C([H])([H])[H])(C([H])([H])[H])C([H])([H])[H])C([H])([H])c2c([H])c(OC([H])([H])C([H])([H])C([H])([H])N([H])C(=O)C34C([H])([H])C([H])([H])C([H])(C([H])([H])C3([H])[H])C(C([H])([H])[H])(C([H])([H])[H])C4([H])N([H])C(=O)N3C([H])([H])C([H])([H])C([H])([H])C([H])(n4nc(-c5c([H])c([H])c(Oc6c([H])c([H])c(F)c([H])c6F)c([H])c5[H])c(C(=O)N([H])[H])c4N([H])[H])C3([H])[H])c([H])c([H])c2C1([H])[H]

$$$$
66:0:0
     RDKit          3D

101110  0  0  1  0  0  0  0  0999 V2000
  -30.2680  -19.0620   20.3490 C   0  0  0  0  0  2  0  0  0  0  0  0
  -28.4810  -18.1990   20.9990 C   0  0  0  0  0  3  0  0  0  0  0  0
  -29.8230  -17.5980   20.5160 C   0  0  0  0  0  3  0  0  0  0  0  0
  -28.7980  -19.4760   20.1670 C   0  0  0  0  0  3  0  0  0  0  0  0
  -26.0230  -17.8880   20.2970 C   0  0  0  0  0  3  0  0  0  0  0  0
  -27.2000  -16.0700   21.4020 C   0  0  0  0  0  3  0  0  0  0  0  0
  -27.2040  -17.3770   20.8740 C   0  0  0  0  0  0  0  0  0  0  0  0
  -24.8490  -17.1020   20.2500 C   0  0  0  0  0  0  0  0  0  0  0  0
  -24.8540  -15.7890   20.7870 C   0  0  0  0  0  0  0  0  0  0  0  0
  -26.0380  -15.2810   21.3630 C   0  0  0  0  0  0  0  0  0  0  0  0
  -23.6060  -17.6880   19.6080 C   0  0  0  0  0  1  0  0  0  0  0  0
  -23.6080  -14.9150   20.7490 C   0  0  0  0  0  1  0  0  0  0  0  0
  -26.0620  -14.0320   21.8870 F   0  0  0  0  0  0  0  0  0  0  0  0
  -26.8440  -21.1040   20.3630 C   0  0  0  0  0  1  0  0  0  0  0  0
  -28.3390  -20.8620   20.6680 C   0  0  0  0  0  3  0  0  0  0  0  0
  -29.1850  -21.9680   20.1290 N   0  0  0  0  0  4  0  0  0  0  0  0
  -30.1010  -21.6030   19.9220 H   0  0  0  0  0  0  0  0  0  0  0  0
  -28.7850  -22.2760   19.2550 H   0  0  0  0  0  0  0  0  0  0  0  0
  -29.3590  -23.1080   21.0760 C   0  0  0  0  0  2  0  0  0  0  0  0
  -29.8670  -24.4350   20.4450 C   0  0  0  0  0  2  0  0  0  0  0  0
  -28.8410  -25.1800   19.5640 C   0  0  0  0  0  2  0  0  0  0  0  0
  -29.0740  -26.5950   19.5780 O   0  0  0  0  0  0  0  0  0  0  0  0
  -25.4920  -31.2820   23.5170 C   0  0  0  0  0  0  0  0  0  0  0  0
  -27.9430  -27.3740   19.6730 C   0  0  0  0  0  0  0  0  0  0  0  0
  -24.2270  -30.2660   21.6470 C   0  0  0  0  0  3  0  0  0  0  0  0
  -25.6180  -28.9530   19.9610 C   0  0  0  0  0  0  0  0  0  0  0  0
  -26.7710  -30.5400   21.5130 C   0  0  0  0  0  2  0  0  0  0  0  0
  -26.7970  -29.3140   20.6240 C   0  0  0  0  0  0  0  0  0  0  0  0
  -27.9640  -28.5370   20.4720 C   0  0  0  0  0  3  0  0  0  0  0  0
  -26.7470  -27.0260   19.0070 C   0  0  0  0  0  3  0  0  0  0  0  0
  -25.5850  -27.8050   19.1490 C   0  0  0  0  0  3  0  0  0  0  0  0
  -24.4140  -29.8380   20.1670 C   0  0  0  0  0  2  0  0  0  0  0  0
  -25.5140  -30.7030   22.2840 N   0  0  0  0  0  0  0  0  0  0  0  0
  -24.4260  -31.4930   24.1100 O   0  0  0  0  0  0  0  0  0  0  0  0
  -23.5260  -29.1160   22.4060 C   0  0  0  0  0  0  0  0  0  0  0  0
  -22.1980  -29.0010   22.2290 N   0  0  0  0  0  0  0  0  0  0  0  0
  -24.1750  -28.3350   23.1060 O   0  0  0  0  0  0  0  0  0  0  0  0
  -21.7390  -29.6880   21.6480 H   0  0  0  0  0  0  0  0  0  0  0  0
  -18.7840  -27.8280   22.4060 C   0  0  0  0  0  0  0  0  0  0  0  0
  -21.3340  -27.9740   22.8090 C   0  0  0  0  0  3  0  0  0  0  0  0
  -21.4300  -26.6490   22.0160 C   0  0  0  0  0  2  0  0  0  0  0  0
  -20.3650  -26.5270   20.9210 C   0  0  0  0  0  2  0  0  0  0  0  0
  -18.9620  -26.5970   21.5320 C   0  0  0  0  0  2  0  0  0  0  0  0
  -19.9000  -28.4840   22.9900 C   0  0  0  0  0  0  0  0  0  0  0  0
  -19.6880  -29.6430   23.7640 C   0  0  0  0  0  3  0  0  0  0  0  0
  -18.3880  -30.1400   23.9720 C   0  0  0  0  0  3  0  0  0  0  0  0
  -17.2830  -29.4780   23.4050 C   0  0  0  0  0  3  0  0  0  0  0  0
  -17.4820  -28.3240   22.6250 C   0  0  0  0  0  3  0  0  0  0  0  0
  -26.8080  -31.7230   24.2350 C   0  0  0  0  0  3  0  0  0  0  0  0
  -26.5720  -33.0510   24.8110 N   0  0  0  0  0  0  0  0  0  0  0  0
  -26.9680  -34.2040   24.2540 C   0  0  0  0  0  0  0  0  0  0  0  0
  -27.6440  -34.2520   23.2230 O   0  0  0  0  0  0  0  0  0  0  0  0
  -25.9840  -33.0870   25.6310 H   0  0  0  0  0  0  0  0  0  0  0  0
  -25.3420  -36.1250   24.2210 C   0  0  0  0  0  1  0  0  0  0  0  0
  -26.5460  -35.5100   24.9530 C   0  0  0  0  0  3  0  0  0  0  0  0
  -28.7080  -36.1150   25.9470 C   0  0  0  0  0  1  0  0  0  0  0  0
  -27.6330  -36.5100   25.0400 N   0  0  0  0  0  0  0  0  0  0  0  0
  -27.2710  -37.4060   25.3570 H   0  0  0  0  0  0  0  0  0  0  0  0
  -27.2770  -30.7100   25.3490 C   0  0  1  0  0  0  0  0  0  0  0  0
  -26.1670  -30.3550   26.3640 C   0  0  0  0  0  1  0  0  0  0  0  0
  -27.7920  -29.3930   24.7210 C   0  0  0  0  0  1  0  0  0  0  0  0
  -28.4620  -31.3130   26.1390 C   0  0  0  0  0  1  0  0  0  0  0  0
  -30.6670  -16.6700   21.4160 C   0  0  0  0  0  2  0  0  0  0  0  0
  -31.1620  -14.2780   20.7640 C   0  0  0  0  0  0  0  0  0  0  0  0
  -31.2490  -12.0200   19.7620 C   0  0  0  0  0  2  0  0  0  0  0  0
  -30.6120  -12.0530   18.3570 C   0  0  0  0  0  2  0  0  0  0  0  0
  -29.0870  -11.8450   18.4420 C   0  0  0  0  0  2  0  0  0  0  0  0
  -28.4240  -12.7660   19.4990 C   0  0  0  0  0  3  0  0  0  0  0  0
  -29.1860  -12.7120   20.8390 C   0  0  0  0  0  2  0  0  0  0  0  0
  -30.5950  -13.0560   20.5770 N   0  0  0  0  0  0  0  0  0  0  0  0
  -32.3390  -14.5160   20.4630 O   0  0  0  0  0  0  0  0  0  0  0  0
  -30.3400  -15.2460   21.2260 N   0  0  0  0  0  0  0  0  0  0  0  0
  -29.3890  -14.9730   21.4310 H   0  0  0  0  0  0  0  0  0  0  0  0
  -25.8970  -13.2150   19.3660 C   0  0  0  0  0  0  0  0  0  0  0  0
  -24.8080  -12.4420   19.6760 C   0  0  0  0  0  0  0  0  0  0  0  0
  -25.3320  -11.2070   20.1650 C   0  0  0  0  0  0  0  0  0  0  0  0
  -27.0090  -12.4500   19.6780 N   0  0  0  0  0  0  0  0  0  0  0  0
  -26.6580  -11.2510   20.2100 N   0  0  0  0  0  0  0  0  0  0  0  0
  -24.6480   -9.9630   20.5380 C   0  0  0  0  0  0  0  0  0  0  0  0
  -24.9630   -9.2780   21.7320 C   0  0  0  0  0  3  0  0  0  0  0  0
  -24.2790   -8.0910   22.0760 C   0  0  0  0  0  3  0  0  0  0  0  0
  -23.2680   -7.5840   21.2260 C   0  0  0  0  0  0  0  0  0  0  0  0
  -22.9770   -8.2560   20.0260 C   0  0  0  0  0  3  0  0  0  0  0  0
  -23.6620   -9.4340   19.6830 C   0  0  0  0  0  3  0  0  0  0  0  0
  -22.5670   -6.4270   21.4690 O   0  0  0  0  0  0  0  0  0  0  0  0
  -22.3520   -5.9680   22.7430 C   0  0  0  0  0  0  0  0  0  0  0  0
  -21.7230   -6.7620   23.7260 C   0  0  0  0  0  3  0  0  0  0  0  0
  -21.4590   -6.2260   25.0020 C   0  0  0  0  0  3  0  0  0  0  0  0
  -21.8130   -4.8960   25.2960 C   0  0  0  0  0  0  0  0  0  0  0  0
  -22.4330   -4.1010   24.3160 C   0  0  0  0  0  3  0  0  0  0  0  0
  -22.7000   -4.6340   23.0440 C   0  0  0  0  0  0  0  0  0  0  0  0
  -23.2810   -3.8570   22.0970 F   0  0  0  0  0  0  0  0  0  0  0  0
  -21.5500   -4.3780   26.5180 F   0  0  0  0  0  0  0  0  0  0  0  0
  -23.3690  -12.7890   19.4350 C   0  0  0  0  0  0  0  0  0  0  0  0
  -22.4740  -12.3350   20.3090 N   0  0  0  0  0  0  0  0  0  0  0  0
  -23.0300  -13.5100   18.4990 O   0  0  0  0  0  0  0  0  0  0  0  0
  -22.7530  -11.7780   21.1030 H   0  0  0  0  0  0  0  0  0  0  0  0
  -21.4970  -12.5580   20.1850 H   0  0  0  0  0  0  0  0  0  0  0  0
  -26.0370  -14.4890   18.8300 N   0  0  0  0  0  0  0  0  0  0  0  0
  -25.2350  -15.0890   18.6680 H   0  0  0  0  0  0  0  0  0  0  0  0
  -26.9170  -14.9740   18.7200 H   0  0  0  0  0  0  0  0  0  0  0  0
  1  3  1  0
  2  7  1  0
  3  2  1  0
  3 63  1  0
  4  1  1  0
  4 15  1  0
  4  2  1  0
  5  7  1  0
  7  6  2  0
  8  5  2  0
  8  9  1  0
  9 10  2  0
 10  6  1  0
 10 13  1  0
 11  8  1  0
 12  9  1  0
 15 14  1  0
 16 15  1  0
 16 19  1  0
 17 16  1  0
 18 16  1  0
 20 19  1  0
 21 22  1  0
 21 20  1  0
 22 24  1  0
 23 34  2  0
 24 29  1  0
 25 33  1  0
 25 35  1  0
 26 32  1  0
 26 28  1  0
 27 33  1  0
 28 27  1  0
 29 28  2  0
 30 31  1  0
 30 24  2  0
 31 26  2  0
 32 25  1  0
 33 23  1  0
 35 37  2  0
 36 35  1  0
 38 36  1  0
 39 48  2  0
 39 44  1  0
 40 36  1  0
 40 44  1  0
 41 40  1  0
 42 43  1  0
 42 41  1  0
 43 39  1  0
 44 45  2  0
 45 46  1  0
 47 46  2  0
 48 47  1  0
 49 23  1  0
 49 50  1  0
 49 59  1  0
 50 53  1  0
 51 50  1  0
 51 55  1  0
 52 51  2  0
 55 54  1  0
 55 57  1  0
 57 58  1  0
 57 56  1  0
 59 62  1  1
 59 60  1  0
 61 59  1  0
 64 72  1  0
 65 70  1  0
 66 67  1  0
 66 65  1  0
 68 67  1  0
 68 77  1  0
 68 69  1  0
 70 64  1  0
 70 69  1  0
 71 64  2  0
 72 63  1  0
 72 73  1  0
 74 75  2  0
 74 77  1  0
 75 76  1  0
 76 78  2  0
 76 79  1  0
 77 78  1  0
 79 80  1  0
 80 81  2  0
 82 85  1  0
 82 81  1  0
 83 82  2  0
 84 83  1  0
 84 79  2  0
 85 86  1  0
 86 91  2  0
 86 87  1  0
 87 88  2  0
 88 89  1  0
 89 93  1  0
 90 89  2  0
 91 90  1  0
 92 91  1  0
 94 75  1  0
 94 95  1  0
 95 97  1  0
 96 94  2  0
 98 95  1  0
 99 74  1  0
100 99  1  0
101 99  1  0
M  ISO  4  21 101  22 101  64 100  72 100
M  END
>  <TORSDO>  (67) 
F 23

>  <SCORE>  (67) 
0.857

>  <name>  (67) 
66

>  <ligand_id>  (67) 
66

>  <original_smiles>  (67) 
[H]c1c([H])c([H])c2c(c1[H])C([H])([H])C([H])([H])C([H])([H])C2([H])N([H])C(=O)C1([H])N(C(=O)C([H])(N([H])C(=O)C([H])(N([H])C([H])([H])[H])C([H])([H])[H])C(C([H])([H])[H])(C([H])([H])[H])C([H])([H])[H])C([H])([H])c2c([H])c(OC([H])([H])C([H])([H])C([H])([H])[N+]([H])([H])C([H])(C([H])([H])[H])C3([H])C([H])([H])C([H])(C([H])([H])N([H])C(=O)N4C([H])([H])C([H])([H])C([H])([H])C([H])(n5nc(-c6c([H])c([H])c(Oc7c([H])c([H])c(F)c([H])c7F)c([H])c6[H])c(C(=O)N([H])[H])c5N([H])[H])C4([H])[H])C3([H])c3c([H])c(F)c(C([H])([H])[H])c(C([H])([H])[H])c3[H])c([H])c([H])c2C1([H])[H]

>  <smiles>  (67) 
[H]c1c([H])c([H])c2c(c1[H])C([H])([H])C([H])([H])C([H])([H])C2([H])N([H])C(=O)C1([H])N(C(=O)C([H])(N([H])C(=O)C([H])(N([H])C([H])([H])[H])C([H])([H])[H])C(C([H])([H])[H])(C([H])([H])[H])C([H])([H])[H])C([H])([H])c2c([H])c(OC([H])([H])C([H])([H])C([H])([H])[N+]([H])([H])C([H])(C([H])([H])[H])C3([H])C([H])([H])C([H])(C([H])([H])N([H])C(=O)N4C([H])([H])C([H])([H])C([H])([H])C([H])(n5nc(-c6c([H])c([H])c(Oc7c([H])c([H])c(F)c([H])c7F)c([H])c6[H])c(C(=O)N([H])[H])c5N([H])[H])C4([H])[H])C3([H])c3c([H])c(F)c(C([H])([H])[H])c(C([H])([H])[H])c3[H])c([H])c([H])c2C1([H])[H]

$$$$
67:0:0
     RDKit          3D

 95104  0  0  1  0  0  0  0  0999 V2000
  -29.4950  -20.2970   20.4010 C   0  0  0  0  0  3  0  0  0  0  0  0
  -28.8280  -19.0570   20.2570 C   0  0  0  0  0  0  0  0  0  0  0  0
  -28.9720  -21.4620   19.7770 C   0  0  0  0  0  0  0  0  0  0  0  0
  -27.6500  -19.0660   19.4720 C   0  0  0  0  0  0  0  0  0  0  0  0
  -27.8390  -21.3120   18.9460 C   0  0  0  0  0  0  0  0  0  0  0  0
  -26.7050  -17.9040   19.3630 C   0  0  0  0  0  1  0  0  0  0  0  0
  -27.1810  -22.4660   18.2130 C   0  0  0  0  0  1  0  0  0  0  0  0
  -27.2050  -20.1410   18.8020 N   0  0  0  0  0  0  0  0  0  0  0  0
  -28.3170  -24.6150   21.2180 C   0  0  0  0  0  2  0  0  0  0  0  0
  -29.4120  -24.9460   18.9330 C   0  0  0  0  0  2  0  0  0  0  0  0
  -29.0700  -23.2820   21.3870 C   0  0  0  0  0  2  0  0  0  0  0  0
  -30.1200  -23.5780   19.0810 C   0  0  0  0  0  2  0  0  0  0  0  0
  -29.1460  -25.5470   20.3260 C   0  0  0  0  0  3  0  0  0  0  0  0
  -29.4850  -22.7280   20.0940 N   0  0  0  0  0  0  0  0  0  0  0  0
  -28.8030  -26.9270   20.3960 O   0  0  0  0  0  0  0  0  0  0  0  0
  -24.6650  -31.8770   23.2930 C   0  0  0  0  0  0  0  0  0  0  0  0
  -27.5300  -27.4490   20.4080 C   0  0  0  0  0  0  0  0  0  0  0  0
  -23.5410  -30.4120   21.6400 C   0  0  0  0  0  3  0  0  0  0  0  0
  -25.0750  -28.8540   20.3210 C   0  0  0  0  0  0  0  0  0  0  0  0
  -26.0580  -30.8230   21.5180 C   0  0  0  0  0  2  0  0  0  0  0  0
  -26.1910  -29.4350   20.9280 C   0  0  0  0  0  0  0  0  0  0  0  0
  -27.4130  -28.7390   20.9670 C   0  0  0  0  0  3  0  0  0  0  0  0
  -26.3930  -26.8530   19.8190 C   0  0  0  0  0  3  0  0  0  0  0  0
  -25.1660  -27.5580   19.7700 C   0  0  0  0  0  3  0  0  0  0  0  0
  -23.8120  -29.6890   20.2910 C   0  0  0  0  0  2  0  0  0  0  0  0
  -24.7700  -31.0560   22.2120 N   0  0  0  0  0  0  0  0  0  0  0  0
  -23.5600  -32.1440   23.7890 O   0  0  0  0  0  0  0  0  0  0  0  0
  -22.8680  -29.4110   22.6040 C   0  0  0  0  0  0  0  0  0  0  0  0
  -21.5470  -29.2360   22.4570 N   0  0  0  0  0  0  0  0  0  0  0  0
  -23.5350  -28.7910   23.4370 O   0  0  0  0  0  0  0  0  0  0  0  0
  -21.0720  -29.7900   21.7590 H   0  0  0  0  0  0  0  0  0  0  0  0
  -18.1490  -28.1100   22.9450 C   0  0  0  0  0  0  0  0  0  0  0  0
  -20.7100  -28.3080   23.2170 C   0  0  0  0  0  3  0  0  0  0  0  0
  -20.7820  -26.8810   22.6260 C   0  0  0  0  0  2  0  0  0  0  0  0
  -19.6730  -26.5940   21.6090 C   0  0  0  0  0  2  0  0  0  0  0  0
  -18.2950  -26.7630   22.2560 C   0  0  0  0  0  2  0  0  0  0  0  0
  -19.2840  -28.8430   23.3800 C   0  0  0  0  0  0  0  0  0  0  0  0
  -19.0930  -30.1060   23.9820 C   0  0  0  0  0  3  0  0  0  0  0  0
  -17.8000  -30.6360   24.1510 C   0  0  0  0  0  3  0  0  0  0  0  0
  -16.6790  -29.8990   23.7320 C   0  0  0  0  0  3  0  0  0  0  0  0
  -16.8540  -28.6380   23.1340 C   0  0  0  0  0  3  0  0  0  0  0  0
  -25.9190  -32.5390   23.9460 C   0  0  0  0  0  3  0  0  0  0  0  0
  -26.4060  -31.8000   25.2530 C   0  0  1  0  0  0  0  0  0  0  0  0
  -25.2810  -31.5640   26.2870 C   0  0  0  0  0  1  0  0  0  0  0  0
  -27.0190  -30.4250   24.8980 C   0  0  0  0  0  1  0  0  0  0  0  0
  -27.5220  -32.6240   25.9390 C   0  0  0  0  0  1  0  0  0  0  0  0
  -25.5810  -33.9400   24.2370 N   0  0  0  0  0  0  0  0  0  0  0  0
  -25.9250  -34.9800   23.4670 C   0  0  0  0  0  0  0  0  0  0  0  0
  -26.6320  -34.8650   22.4630 O   0  0  0  0  0  0  0  0  0  0  0  0
  -24.9580  -34.1010   25.0160 H   0  0  0  0  0  0  0  0  0  0  0  0
  -24.1780  -36.7330   23.0220 C   0  0  0  0  0  1  0  0  0  0  0  0
  -25.4010  -36.3700   23.8790 C   0  0  0  0  0  3  0  0  0  0  0  0
  -27.4950  -37.3110   24.7490 C   0  0  0  0  0  1  0  0  0  0  0  0
  -26.4190  -37.4380   23.7680 N   0  0  0  0  0  0  0  0  0  0  0  0
  -25.9940  -38.3550   23.8830 H   0  0  0  0  0  0  0  0  0  0  0  0
  -29.3220  -17.7980   21.0000 C   0  0  0  0  0  2  0  0  0  0  0  0
  -30.1240  -16.7970   20.1170 C   0  0  0  0  0  2  0  0  0  0  0  0
  -30.7440  -14.3660   20.0390 C   0  0  0  0  0  0  0  0  0  0  0  0
  -30.3860  -12.1740   18.9500 C   0  0  0  0  0  2  0  0  0  0  0  0
  -29.3850  -12.3770   17.7950 C   0  0  0  0  0  2  0  0  0  0  0  0
  -27.9340  -12.2660   18.3060 C   0  0  0  0  0  2  0  0  0  0  0  0
  -27.6750  -13.1210   19.5740 C   0  0  0  0  0  3  0  0  0  0  0  0
  -28.7870  -12.8930   20.6250 C   0  0  0  0  0  2  0  0  0  0  0  0
  -30.0830  -13.1770   19.9870 N   0  0  0  0  0  0  0  0  0  0  0  0
  -31.8300  -14.5540   19.4840 O   0  0  0  0  0  0  0  0  0  0  0  0
  -30.0320  -15.3900   20.5540 N   0  0  0  0  0  0  0  0  0  0  0  0
  -29.1870  -15.1250   21.0350 H   0  0  0  0  0  0  0  0  0  0  0  0
  -25.3350  -13.7650   20.4290 C   0  0  0  0  0  0  0  0  0  0  0  0
  -24.2750  -13.0350   20.8740 C   0  0  0  0  0  0  0  0  0  0  0  0
  -24.6910  -11.6730   20.7820 C   0  0  0  0  0  0  0  0  0  0  0  0
  -26.3440  -12.8720   20.1270 N   0  0  0  0  0  0  0  0  0  0  0  0
  -25.9580  -11.5990   20.3880 N   0  0  0  0  0  0  0  0  0  0  0  0
  -23.9310  -10.4390   20.9910 C   0  0  0  0  0  0  0  0  0  0  0  0
  -24.3790   -9.4450   21.8880 C   0  0  0  0  0  3  0  0  0  0  0  0
  -23.6260   -8.2670   22.0840 C   0  0  0  0  0  3  0  0  0  0  0  0
  -22.4110   -8.0780   21.3860 C   0  0  0  0  0  0  0  0  0  0  0  0
  -21.9790   -9.0610   20.4810 C   0  0  0  0  0  3  0  0  0  0  0  0
  -22.7300  -10.2300   20.2810 C   0  0  0  0  0  3  0  0  0  0  0  0
  -21.6290   -6.9530   21.4940 O   0  0  0  0  0  0  0  0  0  0  0  0
  -21.6110   -6.2010   22.6400 C   0  0  0  0  0  0  0  0  0  0  0  0
  -21.2460   -6.7520   23.8870 C   0  0  0  0  0  3  0  0  0  0  0  0
  -21.1750   -5.9280   25.0280 C   0  0  0  0  0  3  0  0  0  0  0  0
  -21.4540   -4.5520   24.9220 C   0  0  0  0  0  0  0  0  0  0  0  0
  -21.8120   -4.0000   23.6790 C   0  0  0  0  0  3  0  0  0  0  0  0
  -21.8870   -4.8220   22.5420 C   0  0  0  0  0  0  0  0  0  0  0  0
  -22.2130   -4.2830   21.3410 F   0  0  0  0  0  0  0  0  0  0  0  0
  -21.3730   -3.7570   26.0140 F   0  0  0  0  0  0  0  0  0  0  0  0
  -22.9210  -13.5610   21.2490 C   0  0  0  0  0  0  0  0  0  0  0  0
  -22.2310  -12.8820   22.1560 N   0  0  0  0  0  0  0  0  0  0  0  0
  -22.4850  -14.6100   20.7740 O   0  0  0  0  0  0  0  0  0  0  0  0
  -22.5990  -12.0370   22.5660 H   0  0  0  0  0  0  0  0  0  0  0  0
  -21.3240  -13.2180   22.4500 H   0  0  0  0  0  0  0  0  0  0  0  0
  -25.5030  -15.1170   20.2290 N   0  0  0  0  0  0  0  0  0  0  0  0
  -24.7150  -15.7490   20.3240 H   0  0  0  0  0  0  0  0  0  0  0  0
  -26.2910  -15.5200   19.7420 H   0  0  0  0  0  0  0  0  0  0  0  0
  2  1  1  0
  2 56  1  0
  3 14  1  0
  3  1  2  0
  4  2  2  0
  5  3  1  0
  6  4  1  0
  7  5  1  0
  8  5  2  0
  8  4  1  0
  9 11  1  0
 10 12  1  0
 10 13  1  0
 12 14  1  0
 13 15  1  0
 13  9  1  0
 14 11  1  0
 15 17  1  0
 16 27  2  0
 17 22  1  0
 18 26  1  0
 18 28  1  0
 19 21  1  0
 20 26  1  0
 21 22  2  0
 21 20  1  0
 23 17  2  0
 24 23  1  0
 24 19  2  0
 25 19  1  0
 25 18  1  0
 26 16  1  0
 28 30  2  0
 29 28  1  0
 31 29  1  0
 32 41  2  0
 32 37  1  0
 33 29  1  0
 33 37  1  0
 34 33  1  0
 35 36  1  0
 35 34  1  0
 36 32  1  0
 37 38  2  0
 38 39  1  0
 40 39  2  0
 41 40  1  0
 42 16  1  0
 42 47  1  0
 42 43  1  0
 43 46  1  1
 43 44  1  0
 45 43  1  0
 47 50  1  0
 48 52  1  0
 48 47  1  0
 49 48  2  0
 52 51  1  0
 54 52  1  0
 54 55  1  0
 54 53  1  0
 57 66  1  0
 57 56  1  0
 58 66  1  0
 59 64  1  0
 60 61  1  0
 60 59  1  0
 62 61  1  0
 62 71  1  0
 62 63  1  0
 64 58  1  0
 64 63  1  0
 65 58  2  0
 66 67  1  0
 68 69  2  0
 69 88  1  0
 70 69  1  0
 70 73  1  0
 71 72  1  0
 71 68  1  0
 72 70  2  0
 73 74  1  0
 74 75  2  0
 76 79  1  0
 76 75  1  0
 77 76  2  0
 78 77  1  0
 78 73  2  0
 79 80  1  0
 80 81  1  0
 81 82  2  0
 83 82  1  0
 83 87  1  0
 84 83  2  0
 85 80  2  0
 85 84  1  0
 86 85  1  0
 88 89  1  0
 89 92  1  0
 89 91  1  0
 90 88  2  0
 93 94  1  0
 93 68  1  0
 95 93  1  0
M  ISO  4  13 101  15 101  58 100  66 100
M  END
>  <TORSDO>  (68) 
F 19

>  <SCORE>  (68) 
-14.260

>  <name>  (68) 
67

>  <ligand_id>  (68) 
67

>  <original_smiles>  (68) 
[H]c1c([H])c([H])c2c(c1[H])C([H])([H])C([H])([H])C([H])([H])C2([H])N([H])C(=O)C1([H])N(C(=O)C([H])(N([H])C(=O)C([H])(N([H])C([H])([H])[H])C([H])([H])[H])C(C([H])([H])[H])(C([H])([H])[H])C([H])([H])[H])C([H])([H])c2c([H])c(OC3([H])C([H])([H])C([H])([H])N(c4c(C([H])([H])[H])nc(C([H])([H])[H])c(C([H])([H])C([H])([H])N([H])C(=O)N5C([H])([H])C([H])([H])C([H])([H])C([H])(n6nc(-c7c([H])c([H])c(Oc8c([H])c([H])c(F)c([H])c8F)c([H])c7[H])c(C(=O)N([H])[H])c6N([H])[H])C5([H])[H])c4[H])C([H])([H])C3([H])[H])c([H])c([H])c2C1([H])[H]

>  <smiles>  (68) 
[H]c1c([H])c([H])c2c(c1[H])C([H])([H])C([H])([H])C([H])([H])C2([H])N([H])C(=O)C1([H])N(C(=O)C([H])(N([H])C(=O)C([H])(N([H])C([H])([H])[H])C([H])([H])[H])C(C([H])([H])[H])(C([H])([H])[H])C([H])([H])[H])C([H])([H])c2c([H])c(OC3([H])C([H])([H])C([H])([H])N(c4c(C([H])([H])[H])nc(C([H])([H])[H])c(C([H])([H])C([H])([H])N([H])C(=O)N5C([H])([H])C([H])([H])C([H])([H])C([H])(n6nc(-c7c([H])c([H])c(Oc8c([H])c([H])c(F)c([H])c8F)c([H])c7[H])c(C(=O)N([H])[H])c6N([H])[H])C5([H])[H])c4[H])C([H])([H])C3([H])[H])c([H])c([H])c2C1([H])[H]

$$$$
68:0:0
     RDKit          3D

 96106  0  0  1  0  0  0  0  0999 V2000
  -28.8280  -21.8900   20.8830 C   0  0  0  0  0  3  0  0  0  0  0  0
  -28.9220  -21.0280   18.6370 C   0  0  0  0  0  3  0  0  0  0  0  0
  -29.1830  -23.1640   20.3710 C   0  0  0  0  0  0  0  0  0  0  0  0
  -28.7130  -20.7820   20.0110 C   0  0  0  0  0  0  0  0  0  0  0  0
  -29.4730  -23.2490   18.9860 C   0  0  0  0  0  0  0  0  0  0  0  0
  -29.9260  -24.5390   18.3220 C   0  0  0  0  0  1  0  0  0  0  0  0
  -29.3230  -22.2130   18.1400 N   0  0  0  0  0  0  0  0  0  0  0  0
  -30.4770  -24.9390   21.7860 C   0  0  0  0  0  2  0  0  0  0  0  0
  -29.4710  -24.3290   22.7290 C   0  0  0  0  0  2  0  0  0  0  0  0
  -29.1670  -24.4080   21.2420 C   0  0  2  0  0  0  0  0  0  0  0  0
  -28.0360  -25.3470   20.8060 C   0  0  0  0  0  2  0  0  0  0  0  0
  -28.4170  -26.6410   20.2880 O   0  0  0  0  0  0  0  0  0  0  0  0
  -24.5890  -31.8450   23.1960 C   0  0  0  0  0  0  0  0  0  0  0  0
  -27.3110  -27.4490   20.1440 C   0  0  0  0  0  0  0  0  0  0  0  0
  -23.4250  -30.4440   21.5260 C   0  0  0  0  0  3  0  0  0  0  0  0
  -24.9190  -28.9450   20.1050 C   0  0  0  0  0  0  0  0  0  0  0  0
  -25.9530  -30.8310   21.3760 C   0  0  0  0  0  2  0  0  0  0  0  0
  -26.0630  -29.4710   20.7190 C   0  0  0  0  0  0  0  0  0  0  0  0
  -27.2680  -28.7280   20.7370 C   0  0  0  0  0  3  0  0  0  0  0  0
  -26.1620  -26.9620   19.4770 C   0  0  0  0  0  3  0  0  0  0  0  0
  -24.9640  -27.6910   19.4780 C   0  0  0  0  0  3  0  0  0  0  0  0
  -23.6650  -29.7870   20.1420 C   0  0  0  0  0  2  0  0  0  0  0  0
  -24.6720  -31.0540   22.0890 N   0  0  0  0  0  0  0  0  0  0  0  0
  -23.4960  -32.1010   23.7200 O   0  0  0  0  0  0  0  0  0  0  0  0
  -22.7720  -29.4030   22.4650 C   0  0  0  0  0  0  0  0  0  0  0  0
  -21.4560  -29.1940   22.3020 N   0  0  0  0  0  0  0  0  0  0  0  0
  -23.4490  -28.7900   23.2950 O   0  0  0  0  0  0  0  0  0  0  0  0
  -20.9720  -29.7440   21.6050 H   0  0  0  0  0  0  0  0  0  0  0  0
  -18.0890  -27.9550   22.7310 C   0  0  0  0  0  0  0  0  0  0  0  0
  -20.6380  -28.2420   23.0520 C   0  0  0  0  0  3  0  0  0  0  0  0
  -20.7680  -26.8160   22.4680 C   0  0  0  0  0  2  0  0  0  0  0  0
  -19.6900  -26.4880   21.4320 C   0  0  0  0  0  2  0  0  0  0  0  0
  -18.2950  -26.6130   22.0500 C   0  0  0  0  0  2  0  0  0  0  0  0
  -19.1910  -28.7270   23.1870 C   0  0  0  0  0  0  0  0  0  0  0  0
  -18.9470  -29.9850   23.7820 C   0  0  0  0  0  3  0  0  0  0  0  0
  -17.6330  -30.4700   23.9250 C   0  0  0  0  0  3  0  0  0  0  0  0
  -16.5460  -29.6960   23.4850 C   0  0  0  0  0  3  0  0  0  0  0  0
  -16.7740  -28.4400   22.8930 C   0  0  0  0  0  3  0  0  0  0  0  0
  -25.8590  -32.4850   23.8390 C   0  0  0  0  0  3  0  0  0  0  0  0
  -26.3500  -31.7280   25.1340 C   0  0  1  0  0  0  0  0  0  0  0  0
  -25.2300  -31.4880   26.1740 C   0  0  0  0  0  1  0  0  0  0  0  0
  -26.9540  -30.3530   24.7680 C   0  0  0  0  0  1  0  0  0  0  0  0
  -27.4740  -32.5390   25.8190 C   0  0  0  0  0  1  0  0  0  0  0  0
  -25.5370  -33.8850   24.1440 N   0  0  0  0  0  0  0  0  0  0  0  0
  -25.9080  -34.9310   23.3940 C   0  0  0  0  0  0  0  0  0  0  0  0
  -26.6250  -34.8180   22.3940 O   0  0  0  0  0  0  0  0  0  0  0  0
  -24.9010  -34.0470   24.9110 H   0  0  0  0  0  0  0  0  0  0  0  0
  -24.2230  -36.7380   22.9230 C   0  0  0  0  0  1  0  0  0  0  0  0
  -25.4030  -36.3230   23.8160 C   0  0  0  0  0  3  0  0  0  0  0  0
  -27.4810  -37.1920   24.7930 C   0  0  0  0  0  1  0  0  0  0  0  0
  -26.4500  -37.3670   23.7720 N   0  0  0  0  0  0  0  0  0  0  0  0
  -26.0430  -38.2910   23.8900 H   0  0  0  0  0  0  0  0  0  0  0  0
  -28.3520  -19.5010   20.4820 N   0  0  0  0  0  0  0  0  0  0  0  0
  -27.5000  -19.1600   20.0420 H   0  0  0  0  0  0  0  0  0  0  0  0
  -30.9840  -14.4750   19.9750 C   0  0  0  0  0  0  0  0  0  0  0  0
  -30.5680  -12.2820   18.9520 C   0  0  0  0  0  2  0  0  0  0  0  0
  -29.5810  -12.4480   17.7810 C   0  0  0  0  0  2  0  0  0  0  0  0
  -28.1300  -12.3280   18.2870 C   0  0  0  0  0  2  0  0  0  0  0  0
  -27.8500  -13.2220   19.5300 C   0  0  0  0  0  3  0  0  0  0  0  0
  -28.9640  -13.0820   20.5930 C   0  0  0  0  0  2  0  0  0  0  0  0
  -30.2540  -13.3280   19.9330 N   0  0  0  0  0  0  0  0  0  0  0  0
  -32.1300  -14.5360   19.5150 O   0  0  0  0  0  0  0  0  0  0  0  0
  -29.4610  -17.7430   19.0860 C   0  0  0  0  0  2  0  0  0  0  0  0
  -29.2260  -17.4240   21.5530 C   0  0  0  0  0  2  0  0  0  0  0  0
  -30.5350  -16.6510   19.1030 C   0  0  0  0  0  2  0  0  0  0  0  0
  -30.2570  -16.2640   21.4710 C   0  0  0  0  0  2  0  0  0  0  0  0
  -29.4050  -18.4800   20.4370 C   0  0  0  0  0  3  0  0  0  0  0  0
  -30.2890  -15.6290   20.1400 N   0  0  0  0  0  0  0  0  0  0  0  0
  -25.5260  -13.8510   20.4340 C   0  0  0  0  0  0  0  0  0  0  0  0
  -24.4650  -13.0900   20.8430 C   0  0  0  0  0  0  0  0  0  0  0  0
  -24.8860  -11.7290   20.7260 C   0  0  0  0  0  0  0  0  0  0  0  0
  -26.5280  -12.9550   20.0960 N   0  0  0  0  0  0  0  0  0  0  0  0
  -26.1520  -11.6710   20.3290 N   0  0  0  0  0  0  0  0  0  0  0  0
  -24.1390  -10.4790   20.9120 C   0  0  0  0  0  0  0  0  0  0  0  0
  -24.5310   -9.5220   21.8760 C   0  0  0  0  0  3  0  0  0  0  0  0
  -23.7860   -8.3350   22.0500 C   0  0  0  0  0  3  0  0  0  0  0  0
  -22.6340   -8.0970   21.2610 C   0  0  0  0  0  0  0  0  0  0  0  0
  -22.2640   -9.0410   20.2880 C   0  0  0  0  0  3  0  0  0  0  0  0
  -23.0100  -10.2190   20.1110 C   0  0  0  0  0  3  0  0  0  0  0  0
  -21.8660   -6.9610   21.3450 O   0  0  0  0  0  0  0  0  0  0  0  0
  -21.6780   -6.3020   22.5320 C   0  0  0  0  0  0  0  0  0  0  0  0
  -21.0940   -6.9330   23.6520 C   0  0  0  0  0  3  0  0  0  0  0  0
  -20.8570   -6.1990   24.8310 C   0  0  0  0  0  3  0  0  0  0  0  0
  -21.1930   -4.8340   24.8900 C   0  0  0  0  0  0  0  0  0  0  0  0
  -21.7700   -4.2010   23.7760 C   0  0  0  0  0  3  0  0  0  0  0  0
  -22.0080   -4.9340   22.5980 C   0  0  0  0  0  0  0  0  0  0  0  0
  -22.5440   -4.3130   21.5200 F   0  0  0  0  0  0  0  0  0  0  0  0
  -20.9580   -4.1260   26.0200 F   0  0  0  0  0  0  0  0  0  0  0  0
  -23.1030  -13.5900   21.2300 C   0  0  0  0  0  0  0  0  0  0  0  0
  -22.4290  -12.8940   22.1390 N   0  0  0  0  0  0  0  0  0  0  0  0
  -22.6460  -14.6300   20.7580 O   0  0  0  0  0  0  0  0  0  0  0  0
  -22.8140  -12.0520   22.5460 H   0  0  0  0  0  0  0  0  0  0  0  0
  -21.5130  -13.2050   22.4290 H   0  0  0  0  0  0  0  0  0  0  0  0
  -25.7180  -15.2230   20.3020 N   0  0  0  0  0  0  0  0  0  0  0  0
  -24.9870  -15.8940   20.5070 H   0  0  0  0  0  0  0  0  0  0  0  0
  -26.5740  -15.6520   19.9730 H   0  0  0  0  0  0  0  0  0  0  0  0
  2  4  1  0
  3  1  1  0
  3 10  1  0
  4 53  1  0
  4  1  2  0
  5  3  2  0
  6  5  1  0
  7  2  2  0
  7  5  1  0
  8  9  1  0
 10  8  1  0
 10  9  1  0
 10 11  1  1
 12 11  1  0
 13 24  2  0
 14 12  1  0
 14 19  1  0
 15 23  1  0
 15 25  1  0
 16 22  1  0
 16 18  1  0
 17 23  1  0
 18 19  2  0
 18 17  1  0
 20 21  1  0
 20 14  2  0
 21 16  2  0
 22 15  1  0
 23 13  1  0
 25 27  2  0
 26 25  1  0
 28 26  1  0
 29 38  2  0
 29 34  1  0
 30 26  1  0
 30 34  1  0
 31 30  1  0
 32 33  1  0
 32 31  1  0
 33 29  1  0
 34 35  2  0
 35 36  1  0
 37 36  2  0
 38 37  1  0
 39 13  1  0
 39 44  1  0
 39 40  1  0
 40 43  1  1
 40 41  1  0
 42 40  1  0
 44 47  1  0
 45 49  1  0
 45 44  1  0
 46 45  2  0
 49 48  1  0
 51 49  1  0
 51 52  1  0
 51 50  1  0
 54 53  1  0
 55 68  1  0
 56 61  1  0
 57 58  1  0
 57 56  1  0
 59 58  1  0
 59 72  1  0
 59 60  1  0
 61 55  1  0
 61 60  1  0
 62 55  2  0
 63 65  1  0
 63 67  1  0
 65 68  1  0
 66 64  1  0
 67 53  1  0
 67 64  1  0
 68 66  1  0
 69 70  2  0
 70 89  1  0
 71 70  1  0
 71 74  1  0
 72 73  1  0
 72 69  1  0
 73 71  2  0
 74 75  1  0
 75 76  2  0
 77 80  1  0
 77 76  1  0
 78 77  2  0
 79 78  1  0
 79 74  2  0
 80 81  1  0
 81 86  2  0
 81 82  1  0
 82 83  2  0
 83 84  1  0
 84 88  1  0
 85 84  2  0
 86 85  1  0
 87 86  1  0
 89 90  1  0
 90 93  1  0
 90 92  1  0
 91 89  2  0
 94 69  1  0
 94 95  1  0
 96 94  1  0
M  ISO  4  11 101  12 101  55 100  68 100
M  END
>  <TORSDO>  (69) 
F 19

>  <SCORE>  (69) 
-14.034

>  <name>  (69) 
68

>  <ligand_id>  (69) 
68

>  <original_smiles>  (69) 
[H]c1nc(C([H])([H])[H])c(C2(C([H])([H])Oc3c([H])c([H])c4c(c3[H])C([H])([H])N(C(=O)C([H])(N([H])C(=O)C([H])(N([H])C([H])([H])[H])C([H])([H])[H])C(C([H])([H])[H])(C([H])([H])[H])C([H])([H])[H])C([H])(C(=O)N([H])C3([H])c5c([H])c([H])c([H])c([H])c5C([H])([H])C([H])([H])C3([H])[H])C4([H])[H])C([H])([H])C2([H])[H])c([H])c1N([H])C1([H])C([H])([H])C([H])([H])N(C(=O)N2C([H])([H])C([H])([H])C([H])([H])C([H])(n3nc(-c4c([H])c([H])c(Oc5c([H])c([H])c(F)c([H])c5F)c([H])c4[H])c(C(=O)N([H])[H])c3N([H])[H])C2([H])[H])C([H])([H])C1([H])[H]

>  <smiles>  (69) 
[H]c1nc(C([H])([H])[H])c(C2(C([H])([H])Oc3c([H])c([H])c4c(c3[H])C([H])([H])N(C(=O)C([H])(N([H])C(=O)C([H])(N([H])C([H])([H])[H])C([H])([H])[H])C(C([H])([H])[H])(C([H])([H])[H])C([H])([H])[H])C([H])(C(=O)N([H])C3([H])c5c([H])c([H])c([H])c([H])c5C([H])([H])C([H])([H])C3([H])[H])C4([H])[H])C([H])([H])C2([H])[H])c([H])c1N([H])C1([H])C([H])([H])C([H])([H])N(C(=O)N2C([H])([H])C([H])([H])C([H])([H])C([H])(n3nc(-c4c([H])c([H])c(Oc5c([H])c([H])c(F)c([H])c5F)c([H])c4[H])c(C(=O)N([H])[H])c3N([H])[H])C2([H])[H])C([H])([H])C1([H])[H]

$$$$
69:0:0
     RDKit          3D

 97107  0  0  1  0  0  0  0  0999 V2000
  -29.3330  -21.6510   19.6060 C   0  0  0  0  0  3  0  0  0  0  0  0
  -26.6440  -21.4070   18.9470 C   0  0  0  0  0  3  0  0  0  0  0  0
  -28.7440  -20.3300   19.6170 C   0  0  0  0  0  0  0  0  0  0  0  0
  -27.3320  -20.2590   19.3920 C   0  0  0  0  0  0  0  0  0  0  0  0
  -28.5910  -22.8490   19.2730 C   0  0  0  0  0  0  0  0  0  0  0  0
  -27.2560  -22.6630   18.8400 C   0  0  0  0  0  0  0  0  0  0  0  0
  -26.3190  -23.9330   18.1280 Cl  0  0  0  0  0  0  0  0  0  0  0  0
  -31.2910  -14.7960   19.8840 C   0  0  0  0  0  0  0  0  0  0  0  0
  -31.0900  -12.3640   19.3760 C   0  0  0  0  0  2  0  0  0  0  0  0
  -30.1580  -12.1220   18.1700 C   0  0  0  0  0  2  0  0  0  0  0  0
  -28.6940  -11.9920   18.6310 C   0  0  0  0  0  2  0  0  0  0  0  0
  -28.2850  -13.1230   19.6040 C   0  0  0  0  0  3  0  0  0  0  0  0
  -29.3470  -13.3170   20.7210 C   0  0  0  0  0  2  0  0  0  0  0  0
  -30.6220  -13.5990   20.0510 N   0  0  0  0  0  0  0  0  0  0  0  0
  -32.4950  -14.7490   19.6120 O   0  0  0  0  0  0  0  0  0  0  0  0
  -28.6310  -17.7120   19.9720 C   0  0  0  0  0  2  0  0  0  0  0  0
  -30.7340  -18.5630   19.0320 C   0  0  0  0  0  2  0  0  0  0  0  0
  -29.2170  -16.3130   19.5960 C   0  0  0  0  0  2  0  0  0  0  0  0
  -31.4640  -17.2900   19.6200 C   0  0  0  0  0  2  0  0  0  0  0  0
  -29.5320  -18.9790   19.8980 C   0  0  0  0  0  3  0  0  0  0  0  0
  -30.6510  -16.0450   19.8430 N   0  0  0  0  0  0  0  0  0  0  0  0
  -25.9810  -13.8990   20.4350 C   0  0  0  0  0  0  0  0  0  0  0  0
  -24.8710  -13.2010   20.8220 C   0  0  0  0  0  0  0  0  0  0  0  0
  -25.2260  -11.8200   20.7360 C   0  0  0  0  0  0  0  0  0  0  0  0
  -26.9440  -12.9450   20.1380 N   0  0  0  0  0  0  0  0  0  0  0  0
  -26.4970  -11.6890   20.3820 N   0  0  0  0  0  0  0  0  0  0  0  0
  -24.4110  -10.6130   20.9080 C   0  0  0  0  0  0  0  0  0  0  0  0
  -24.7570   -9.6210   21.8500 C   0  0  0  0  0  3  0  0  0  0  0  0
  -23.9500   -8.4750   22.0120 C   0  0  0  0  0  3  0  0  0  0  0  0
  -22.7800   -8.3170   21.2300 C   0  0  0  0  0  0  0  0  0  0  0  0
  -22.4530   -9.2970   20.2760 C   0  0  0  0  0  3  0  0  0  0  0  0
  -23.2620  -10.4340   20.1130 C   0  0  0  0  0  3  0  0  0  0  0  0
  -21.9500   -7.2240   21.3000 O   0  0  0  0  0  0  0  0  0  0  0  0
  -21.7700   -6.5330   22.4700 C   0  0  0  0  0  0  0  0  0  0  0  0
  -21.2810   -7.1570   23.6390 C   0  0  0  0  0  3  0  0  0  0  0  0
  -21.0460   -6.3940   24.7990 C   0  0  0  0  0  3  0  0  0  0  0  0
  -21.2900   -5.0070   24.7920 C   0  0  0  0  0  0  0  0  0  0  0  0
  -21.7720   -4.3830   23.6290 C   0  0  0  0  0  3  0  0  0  0  0  0
  -22.0080   -5.1440   22.4700 C   0  0  0  0  0  0  0  0  0  0  0  0
  -22.4540   -4.5340   21.3450 F   0  0  0  0  0  0  0  0  0  0  0  0
  -21.0560   -4.2720   25.9040 F   0  0  0  0  0  0  0  0  0  0  0  0
  -23.5240  -13.7770   21.1530 C   0  0  0  0  0  0  0  0  0  0  0  0
  -22.7860  -13.1300   22.0490 N   0  0  0  0  0  0  0  0  0  0  0  0
  -23.1380  -14.8340   20.6550 O   0  0  0  0  0  0  0  0  0  0  0  0
  -23.1150  -12.2770   22.4760 H   0  0  0  0  0  0  0  0  0  0  0  0
  -21.8840  -13.4970   22.3150 H   0  0  0  0  0  0  0  0  0  0  0  0
  -26.2330  -15.2590   20.2900 N   0  0  0  0  0  0  0  0  0  0  0  0
  -25.5190  -15.9540   20.4760 H   0  0  0  0  0  0  0  0  0  0  0  0
  -27.0970  -15.6570   19.9510 H   0  0  0  0  0  0  0  0  0  0  0  0
  -26.1730  -18.0780   18.4660 C   0  0  0  0  0  2  0  0  0  0  0  0
  -25.0790  -18.7820   19.2330 C   0  0  0  0  0  2  0  0  0  0  0  0
  -26.5320  -18.9900   19.6200 C   0  0  0  0  0  3  0  0  0  0  0  0
  -29.1870  -24.3080   19.2660 C   0  0  0  0  0  3  0  0  0  0  0  0
  -30.6000  -24.2940   19.4020 O   0  0  0  0  0  0  0  0  0  0  0  0
  -30.9570  -23.8680   18.6290 H   0  0  0  0  0  0  0  0  0  0  0  0
  -28.6510  -25.3240   20.3750 C   0  0  0  0  0  2  0  0  0  0  0  0
  -28.7230  -26.7720   20.1280 O   0  0  0  0  0  0  0  0  0  0  0  0
  -24.5730  -31.7530   23.2510 C   0  0  0  0  0  0  0  0  0  0  0  0
  -27.5450  -27.5130   20.1230 C   0  0  0  0  0  0  0  0  0  0  0  0
  -23.5180  -30.3990   21.4710 C   0  0  0  0  0  3  0  0  0  0  0  0
  -25.1080  -28.9830   20.0560 C   0  0  0  0  0  0  0  0  0  0  0  0
  -26.0400  -30.8430   21.4420 C   0  0  0  0  0  2  0  0  0  0  0  0
  -26.2170  -29.5050   20.7380 C   0  0  0  0  0  0  0  0  0  0  0  0
  -27.4410  -28.7830   20.7570 C   0  0  0  0  0  3  0  0  0  0  0  0
  -26.4190  -27.0240   19.4300 C   0  0  0  0  0  3  0  0  0  0  0  0
  -25.2100  -27.7470   19.3940 C   0  0  0  0  0  3  0  0  0  0  0  0
  -23.8340  -29.8000   20.0730 C   0  0  0  0  0  2  0  0  0  0  0  0
  -24.7250  -31.0130   22.1140 N   0  0  0  0  0  0  0  0  0  0  0  0
  -23.4530  -31.9600   23.7380 O   0  0  0  0  0  0  0  0  0  0  0  0
  -22.8490  -29.3090   22.3400 C   0  0  0  0  0  0  0  0  0  0  0  0
  -21.5320  -29.1150   22.1570 N   0  0  0  0  0  0  0  0  0  0  0  0
  -23.5140  -28.6410   23.1360 O   0  0  0  0  0  0  0  0  0  0  0  0
  -21.0560  -29.7110   21.4940 H   0  0  0  0  0  0  0  0  0  0  0  0
  -18.1460  -27.9140   22.5530 C   0  0  0  0  0  0  0  0  0  0  0  0
  -20.7080  -28.1140   22.8350 C   0  0  0  0  0  3  0  0  0  0  0  0
  -20.7890  -26.7480   22.1170 C   0  0  0  0  0  2  0  0  0  0  0  0
  -19.6810  -26.5430   21.0810 C   0  0  0  0  0  2  0  0  0  0  0  0
  -18.3040  -26.6380   21.7430 C   0  0  0  0  0  2  0  0  0  0  0  0
  -19.2770  -28.6150   23.0520 C   0  0  0  0  0  0  0  0  0  0  0  0
  -19.0760  -29.8120   23.7720 C   0  0  0  0  0  3  0  0  0  0  0  0
  -17.7780  -30.3100   23.9950 C   0  0  0  0  0  3  0  0  0  0  0  0
  -16.6630  -29.6050   23.5120 C   0  0  0  0  0  3  0  0  0  0  0  0
  -16.8480  -28.4070   22.7980 C   0  0  0  0  0  3  0  0  0  0  0  0
  -25.7960  -32.3960   23.9770 C   0  0  0  0  0  3  0  0  0  0  0  0
  -26.1830  -31.6550   25.3150 C   0  0  1  0  0  0  0  0  0  0  0  0
  -24.9880  -31.4300   26.2690 C   0  0  0  0  0  1  0  0  0  0  0  0
  -26.8130  -30.2740   25.0130 C   0  0  0  0  0  1  0  0  0  0  0  0
  -27.2550  -32.4710   26.0750 C   0  0  0  0  0  1  0  0  0  0  0  0
  -25.4650  -33.8030   24.2430 N   0  0  0  0  0  0  0  0  0  0  0  0
  -25.8730  -34.8360   23.4950 C   0  0  0  0  0  0  0  0  0  0  0  0
  -26.6400  -34.7040   22.5350 O   0  0  0  0  0  0  0  0  0  0  0  0
  -24.7970  -33.9780   24.9810 H   0  0  0  0  0  0  0  0  0  0  0  0
  -24.1940  -36.6230   22.9360 C   0  0  0  0  0  1  0  0  0  0  0  0
  -25.3530  -36.2380   23.8700 C   0  0  0  0  0  3  0  0  0  0  0  0
  -27.4010  -37.1440   24.8760 C   0  0  0  0  0  1  0  0  0  0  0  0
  -26.3960  -37.2850   23.8270 N   0  0  0  0  0  0  0  0  0  0  0  0
  -25.9830  -38.2100   23.9040 H   0  0  0  0  0  0  0  0  0  0  0  0
  1  3  1  0
  2  4  1  0
  4  3  2  0
  4 52  1  0
  5  1  2  0
  6  2  2  0
  6  5  1  0
  7  6  1  0
  8 14  1  0
  9 14  1  0
 10 11  1  0
 10  9  1  0
 12 11  1  0
 12 25  1  0
 12 13  1  0
 14 13  1  0
 15  8  2  0
 17 19  1  0
 17 20  1  0
 18 21  1  0
 18 16  1  0
 19 21  1  0
 20  3  1  0
 20 16  1  0
 21  8  1  0
 22 23  2  0
 23 42  1  0
 24 23  1  0
 24 27  1  0
 25 26  1  0
 25 22  1  0
 26 24  2  0
 27 28  1  0
 28 29  2  0
 30 33  1  0
 30 29  1  0
 31 30  2  0
 32 31  1  0
 32 27  2  0
 33 34  1  0
 34 35  1  0
 35 36  2  0
 37 36  1  0
 37 41  1  0
 38 37  2  0
 39 34  2  0
 39 38  1  0
 40 39  1  0
 42 43  1  0
 43 46  1  0
 43 45  1  0
 44 42  2  0
 47 22  1  0
 47 48  1  0
 49 47  1  0
 50 51  1  0
 50 52  1  0
 51 52  1  0
 53  5  1  0
 53 54  1  0
 53 56  1  0
 55 54  1  0
 57 56  1  0
 58 69  2  0
 59 57  1  0
 59 64  1  0
 60 68  1  0
 60 70  1  0
 61 67  1  0
 61 63  1  0
 62 68  1  0
 63 64  2  0
 63 62  1  0
 65 59  2  0
 66 65  1  0
 66 61  2  0
 67 60  1  0
 68 58  1  0
 70 72  2  0
 71 70  1  0
 73 71  1  0
 74 83  2  0
 74 79  1  0
 75 71  1  0
 75 79  1  0
 76 75  1  0
 77 78  1  0
 77 76  1  0
 78 74  1  0
 79 80  2  0
 80 81  1  0
 82 81  2  0
 83 82  1  0
 84 58  1  0
 84 89  1  0
 84 85  1  0
 85 88  1  1
 85 86  1  0
 87 85  1  0
 89 92  1  0
 90 94  1  0
 90 89  1  0
 91 90  2  0
 94 93  1  0
 96 94  1  0
 96 97  1  0
 96 95  1  0
M  ISO  4   8 100  21 100  56 101  57 101
M  END
>  <TORSDO>  (70) 
F 20

>  <SCORE>  (70) 
-11.461

>  <name>  (70) 
69

>  <ligand_id>  (70) 
69

>  <original_smiles>  (70) 
[H]OC([H])(c1c([H])c(C2([H])C([H])([H])C([H])([H])N(C(=O)N3C([H])([H])C([H])([H])C([H])([H])C([H])(n4nc(-c5c([H])c([H])c(Oc6c([H])c([H])c(F)c([H])c6F)c([H])c5[H])c(C(=O)N([H])[H])c4N([H])[H])C3([H])[H])C([H])([H])C2([H])[H])c(C2([H])C([H])([H])C2([H])[H])c([H])c1Cl)C([H])([H])Oc1c([H])c([H])c2c(c1[H])C([H])([H])N(C(=O)C([H])(N([H])C(=O)C([H])(N([H])C([H])([H])[H])C([H])([H])[H])C(C([H])([H])[H])(C([H])([H])[H])C([H])([H])[H])C([H])(C(=O)N([H])C1([H])c3c([H])c([H])c([H])c([H])c3C([H])([H])C([H])([H])C1([H])[H])C2([H])[H]

>  <smiles>  (70) 
[H]OC([H])(c1c([H])c(C2([H])C([H])([H])C([H])([H])N(C(=O)N3C([H])([H])C([H])([H])C([H])([H])C([H])(n4nc(-c5c([H])c([H])c(Oc6c([H])c([H])c(F)c([H])c6F)c([H])c5[H])c(C(=O)N([H])[H])c4N([H])[H])C3([H])[H])C([H])([H])C2([H])[H])c(C2([H])C([H])([H])C2([H])[H])c([H])c1Cl)C([H])([H])Oc1c([H])c([H])c2c(c1[H])C([H])([H])N(C(=O)C([H])(N([H])C(=O)C([H])(N([H])C([H])([H])[H])C([H])([H])[H])C(C([H])([H])[H])(C([H])([H])[H])C([H])([H])[H])C([H])(C(=O)N([H])C1([H])c3c([H])c([H])c([H])c([H])c3C([H])([H])C([H])([H])C1([H])[H])C2([H])[H]

$$$$
70:0:0
     RDKit          3D

 95104  0  0  1  0  0  0  0  0999 V2000
  -30.2040  -20.2400   22.3660 C   0  0  0  0  0  3  0  0  0  0  0  0
  -30.0070  -20.9990   21.1910 C   0  0  0  0  0  0  0  0  0  0  0  0
  -30.6610  -18.9090   22.2750 C   0  0  0  0  0  0  0  0  0  0  0  0
  -30.2370  -20.3490   19.9630 C   0  0  0  0  0  0  0  0  0  0  0  0
  -30.9080  -18.3600   20.9980 C   0  0  0  0  0  0  0  0  0  0  0  0
  -30.0620  -21.1240   18.6730 C   0  0  0  0  0  2  0  0  0  0  0  0
  -30.3540  -22.6190   18.8860 C   0  0  0  0  0  2  0  0  0  0  0  0
  -29.6440  -22.5010   21.2770 C   0  0  0  0  0  3  0  0  0  0  0  0
  -30.9470  -18.1290   23.5500 C   0  0  0  0  0  1  0  0  0  0  0  0
  -28.3850  -22.7300   22.1360 C   0  0  0  0  0  1  0  0  0  0  0  0
  -30.6610  -19.0630   19.8660 N   0  0  0  0  0  0  0  0  0  0  0  0
  -29.5090  -23.2100   19.9580 N   0  0  1  0  0  4  0  0  0  0  0  0
  -28.5590  -23.0420   19.6600 H   0  0  0  0  0  0  0  0  0  0  0  0
  -31.6510  -17.0320   20.8180 C   0  0  0  0  0  2  0  0  0  0  0  0
  -31.3120  -14.7530   19.9500 C   0  0  0  0  0  0  0  0  0  0  0  0
  -30.8630  -12.5420   18.9570 C   0  0  0  0  0  2  0  0  0  0  0  0
  -29.8870  -12.6760   17.7720 C   0  0  0  0  0  2  0  0  0  0  0  0
  -28.4330  -12.5850   18.2690 C   0  0  0  0  0  2  0  0  0  0  0  0
  -28.1540  -13.5190   19.4780 C   0  0  0  0  0  3  0  0  0  0  0  0
  -29.2530  -13.4010   20.5600 C   0  0  0  0  0  2  0  0  0  0  0  0
  -30.5580  -13.6190   19.9160 N   0  0  0  0  0  0  0  0  0  0  0  0
  -32.3860  -14.8350   19.3490 O   0  0  0  0  0  0  0  0  0  0  0  0
  -30.8400  -15.8160   20.6250 N   0  0  0  0  0  0  0  0  0  0  0  0
  -29.9440  -15.7610   21.0820 H   0  0  0  0  0  0  0  0  0  0  0  0
  -25.8360  -14.2030   20.3570 C   0  0  0  0  0  0  0  0  0  0  0  0
  -24.7560  -13.4660   20.7650 C   0  0  0  0  0  0  0  0  0  0  0  0
  -25.1500  -12.0970   20.6600 C   0  0  0  0  0  0  0  0  0  0  0  0
  -26.8220  -13.2850   20.0330 N   0  0  0  0  0  0  0  0  0  0  0  0
  -26.4170  -12.0110   20.2740 N   0  0  0  0  0  0  0  0  0  0  0  0
  -24.3770  -10.8630   20.8530 C   0  0  0  0  0  0  0  0  0  0  0  0
  -24.7610   -9.8880   21.8000 C   0  0  0  0  0  3  0  0  0  0  0  0
  -23.9890   -8.7210   21.9810 C   0  0  0  0  0  3  0  0  0  0  0  0
  -22.8190   -8.5190   21.2110 C   0  0  0  0  0  0  0  0  0  0  0  0
  -22.4540   -9.4800   20.2520 C   0  0  0  0  0  3  0  0  0  0  0  0
  -23.2260  -10.6390   20.0710 C   0  0  0  0  0  3  0  0  0  0  0  0
  -22.0210   -7.4020   21.2990 O   0  0  0  0  0  0  0  0  0  0  0  0
  -21.8310   -6.7450   22.4880 C   0  0  0  0  0  0  0  0  0  0  0  0
  -21.2620   -7.3850   23.6110 C   0  0  0  0  0  3  0  0  0  0  0  0
  -21.0210   -6.6530   24.7900 C   0  0  0  0  0  3  0  0  0  0  0  0
  -21.3390   -5.2830   24.8480 C   0  0  0  0  0  0  0  0  0  0  0  0
  -21.9010   -4.6430   23.7300 C   0  0  0  0  0  3  0  0  0  0  0  0
  -22.1440   -5.3720   22.5520 C   0  0  0  0  0  0  0  0  0  0  0  0
  -22.6660   -4.7450   21.4700 F   0  0  0  0  0  0  0  0  0  0  0  0
  -21.1000   -4.5780   25.9780 F   0  0  0  0  0  0  0  0  0  0  0  0
  -23.4020  -13.9970   21.1380 C   0  0  0  0  0  0  0  0  0  0  0  0
  -22.6970  -13.3060   22.0280 N   0  0  0  0  0  0  0  0  0  0  0  0
  -22.9800  -15.0550   20.6740 O   0  0  0  0  0  0  0  0  0  0  0  0
  -23.0510  -12.4470   22.4210 H   0  0  0  0  0  0  0  0  0  0  0  0
  -21.7900  -13.6420   22.3190 H   0  0  0  0  0  0  0  0  0  0  0  0
  -26.0560  -15.5700   20.2140 N   0  0  0  0  0  0  0  0  0  0  0  0
  -25.3350  -16.2590   20.3960 H   0  0  0  0  0  0  0  0  0  0  0  0
  -26.9120  -15.9790   19.8590 H   0  0  0  0  0  0  0  0  0  0  0  0
  -29.6650  -24.7040   20.0500 C   0  0  0  0  0  2  0  0  0  0  0  0
  -28.4120  -25.4780   19.5750 C   0  0  0  0  0  2  0  0  0  0  0  0
  -28.5180  -26.9060   19.7770 O   0  0  0  0  0  0  0  0  0  0  0  0
  -24.6150  -31.7870   23.2040 C   0  0  0  0  0  0  0  0  0  0  0  0
  -27.3330  -27.6240   19.8000 C   0  0  0  0  0  0  0  0  0  0  0  0
  -23.4250  -30.4550   21.4980 C   0  0  0  0  0  3  0  0  0  0  0  0
  -24.8980  -29.0710   19.9440 C   0  0  0  0  0  0  0  0  0  0  0  0
  -25.9350  -30.9080   21.2770 C   0  0  0  0  0  2  0  0  0  0  0  0
  -26.0510  -29.5840   20.5470 C   0  0  0  0  0  0  0  0  0  0  0  0
  -27.2710  -28.8680   20.4750 C   0  0  0  0  0  3  0  0  0  0  0  0
  -26.1590  -27.1430   19.1720 C   0  0  0  0  0  3  0  0  0  0  0  0
  -24.9470  -27.8500   19.2510 C   0  0  0  0  0  3  0  0  0  0  0  0
  -23.6280  -29.8810   20.0720 C   0  0  0  0  0  2  0  0  0  0  0  0
  -24.6780  -31.0620   22.0510 N   0  0  0  0  0  0  0  0  0  0  0  0
  -23.5370  -31.9850   23.7800 O   0  0  0  0  0  0  0  0  0  0  0  0
  -22.8300  -29.3480   22.4000 C   0  0  0  0  0  0  0  0  0  0  0  0
  -21.5190  -29.0960   22.2530 N   0  0  0  0  0  0  0  0  0  0  0  0
  -23.5430  -28.7230   23.1880 O   0  0  0  0  0  0  0  0  0  0  0  0
  -21.0030  -29.6600   21.5940 H   0  0  0  0  0  0  0  0  0  0  0  0
  -18.2210  -27.6720   22.6450 C   0  0  0  0  0  0  0  0  0  0  0  0
  -20.7540  -28.0760   22.9700 C   0  0  0  0  0  3  0  0  0  0  0  0
  -20.9550  -26.6820   22.3340 C   0  0  0  0  0  2  0  0  0  0  0  0
  -19.8890  -26.3370   21.2890 C   0  0  0  0  0  2  0  0  0  0  0  0
  -18.4910  -26.3680   21.9150 C   0  0  0  0  0  2  0  0  0  0  0  0
  -19.2840  -28.4820   23.1260 C   0  0  0  0  0  0  0  0  0  0  0  0
  -18.9790  -29.7010   23.7680 C   0  0  0  0  0  3  0  0  0  0  0  0
  -17.6440  -30.1140   23.9340 C   0  0  0  0  0  3  0  0  0  0  0  0
  -16.5950  -29.3010   23.4720 C   0  0  0  0  0  3  0  0  0  0  0  0
  -16.8840  -28.0820   22.8330 C   0  0  0  0  0  3  0  0  0  0  0  0
  -25.8910  -32.4240   23.8380 C   0  0  0  0  0  3  0  0  0  0  0  0
  -26.4100  -31.6410   25.1060 C   0  0  1  0  0  0  0  0  0  0  0  0
  -25.3140  -31.3740   26.1640 C   0  0  0  0  0  1  0  0  0  0  0  0
  -27.0120  -30.2780   24.6950 C   0  0  0  0  0  1  0  0  0  0  0  0
  -27.5460  -32.4380   25.7880 C   0  0  0  0  0  1  0  0  0  0  0  0
  -25.5670  -33.8140   24.1820 N   0  0  0  0  0  0  0  0  0  0  0  0
  -25.8840  -34.8780   23.4300 C   0  0  0  0  0  0  0  0  0  0  0  0
  -26.5500  -34.7900   22.3950 O   0  0  0  0  0  0  0  0  0  0  0  0
  -24.9770  -33.9550   24.9900 H   0  0  0  0  0  0  0  0  0  0  0  0
  -24.1230  -36.6440   23.1020 C   0  0  0  0  0  1  0  0  0  0  0  0
  -25.3790  -36.2570   23.9000 C   0  0  0  0  0  3  0  0  0  0  0  0
  -27.5010  -37.1760   24.7200 C   0  0  0  0  0  1  0  0  0  0  0  0
  -26.3930  -37.3260   23.7820 N   0  0  0  0  0  0  0  0  0  0  0  0
  -25.9730  -38.2400   23.9330 H   0  0  0  0  0  0  0  0  0  0  0  0
  2  8  1  0
  2  1  2  0
  3  1  1  0
  3  9  1  0
  4  2  1  0
  5  3  2  0
  6  7  1  0
  6  4  1  0
  7 12  1  0
  8 10  1  0
 11  4  2  0
 11  5  1  0
 12 53  1  0
 12  8  1  0
 12 13  1  6
 14  5  1  0
 15 23  1  0
 16 21  1  0
 17 18  1  0
 17 16  1  0
 19 18  1  0
 19 28  1  0
 19 20  1  0
 21 15  1  0
 21 20  1  0
 22 15  2  0
 23 14  1  0
 23 24  1  0
 25 26  2  0
 26 45  1  0
 27 26  1  0
 27 30  1  0
 28 29  1  0
 28 25  1  0
 29 27  2  0
 30 31  1  0
 31 32  2  0
 33 36  1  0
 33 32  1  0
 34 33  2  0
 35 34  1  0
 35 30  2  0
 36 37  1  0
 37 42  2  0
 37 38  1  0
 38 39  2  0
 39 40  1  0
 40 44  1  0
 41 40  2  0
 42 41  1  0
 43 42  1  0
 45 46  1  0
 46 49  1  0
 46 48  1  0
 47 45  2  0
 50 25  1  0
 50 51  1  0
 52 50  1  0
 54 55  1  0
 54 53  1  0
 55 57  1  0
 56 67  2  0
 57 62  1  0
 58 66  1  0
 58 68  1  0
 59 65  1  0
 59 61  1  0
 60 66  1  0
 61 60  1  0
 62 61  2  0
 63 64  1  0
 63 57  2  0
 64 59  2  0
 65 58  1  0
 66 56  1  0
 68 70  2  0
 69 68  1  0
 71 69  1  0
 72 81  2  0
 72 77  1  0
 73 69  1  0
 73 77  1  0
 74 73  1  0
 75 76  1  0
 75 74  1  0
 76 72  1  0
 77 78  2  0
 78 79  1  0
 80 79  2  0
 81 80  1  0
 82 56  1  0
 82 87  1  0
 82 83  1  0
 83 86  1  1
 83 84  1  0
 85 83  1  0
 87 90  1  0
 88 92  1  0
 88 87  1  0
 89 88  2  0
 92 91  1  0
 94 92  1  0
 94 95  1  0
 94 93  1  0
M  ISO  4  15 100  23 100  54 101  55 101
M  END
>  <TORSDO>  (71) 
F 19

>  <SCORE>  (71) 
-12.589

>  <name>  (71) 
70

>  <ligand_id>  (71) 
70

>  <original_smiles>  (71) 
[H]c1c([H])c([H])c2c(c1[H])C([H])([H])C([H])([H])C([H])([H])C2([H])N([H])C(=O)C1([H])N(C(=O)C([H])(N([H])C(=O)C([H])(N([H])C([H])([H])[H])C([H])([H])[H])C(C([H])([H])[H])(C([H])([H])[H])C([H])([H])[H])C([H])([H])c2c([H])c(OC([H])([H])C([H])([H])[N+]3([H])C([H])([H])C([H])([H])c4nc(C([H])([H])N([H])C(=O)N5C([H])([H])C([H])([H])C([H])([H])C([H])(n6nc(-c7c([H])c([H])c(Oc8c([H])c([H])c(F)c([H])c8F)c([H])c7[H])c(C(=O)N([H])[H])c6N([H])[H])C5([H])[H])c(C([H])([H])[H])c([H])c4C3([H])C([H])([H])[H])c([H])c([H])c2C1([H])[H]

>  <smiles>  (71) 
[H]c1c([H])c([H])c2c(c1[H])C([H])([H])C([H])([H])C([H])([H])C2([H])N([H])C(=O)C1([H])N(C(=O)C([H])(N([H])C(=O)C([H])(N([H])C([H])([H])[H])C([H])([H])[H])C(C([H])([H])[H])(C([H])([H])[H])C([H])([H])[H])C([H])([H])c2c([H])c(OC([H])([H])C([H])([H])[N+]3([H])C([H])([H])C([H])([H])c4nc(C([H])([H])N([H])C(=O)N5C([H])([H])C([H])([H])C([H])([H])C([H])(n6nc(-c7c([H])c([H])c(Oc8c([H])c([H])c(F)c([H])c8F)c([H])c7[H])c(C(=O)N([H])[H])c6N([H])[H])C5([H])[H])c(C([H])([H])[H])c([H])c4C3([H])C([H])([H])[H])c([H])c([H])c2C1([H])[H]

$$$$
71:0:0
     RDKit          3D

 91100  0  0  1  0  0  0  0  0999 V2000
  -31.7360  -14.9050   20.1430 C   0  0  0  0  0  0  0  0  0  0  0  0
  -31.7480  -12.2830   20.2670 C   0  0  0  0  0  2  0  0  0  0  0  0
  -31.0040  -11.5760   19.1040 C   0  0  0  0  0  2  0  0  0  0  0  0
  -29.4980  -11.4510   19.3980 C   0  0  0  0  0  2  0  0  0  0  0  0
  -28.9340  -12.7640   19.9950 C   0  0  0  0  0  3  0  0  0  0  0  0
  -29.8220  -13.3640   21.1120 C   0  0  0  0  0  2  0  0  0  0  0  0
  -31.1310  -13.6500   20.5060 N   0  0  0  0  0  0  0  0  0  0  0  0
  -32.9580  -14.7520   19.9660 O   0  0  0  0  0  0  0  0  0  0  0  0
  -29.6440  -19.4920   21.1970 C   0  0  0  0  0  3  0  0  0  0  0  0
  -30.1320  -18.5410   20.2770 C   0  0  0  0  0  0  0  0  0  0  0  0
  -30.6350  -18.9400   19.0080 C   0  0  0  0  0  0  0  0  0  0  0  0
  -29.7630  -20.8650   20.9210 C   0  0  0  0  0  0  0  0  0  0  0  0
  -30.4900  -20.4610   18.5150 C   0  0  0  0  0  0  0  0  0  0  0  0
  -30.2420  -21.3210   19.6570 C   0  0  0  0  0  0  0  0  0  0  0  0
  -30.1840  -17.0060   20.6460 C   0  0  0  0  0  2  0  0  0  0  0  0
  -31.2960  -17.4260   18.6730 C   0  0  0  0  0  2  0  0  0  0  0  0
  -29.4190  -21.8480   22.0590 C   0  0  0  0  0  1  0  0  0  0  0  0
  -30.6040  -22.8110   19.6360 C   0  0  0  0  0  1  0  0  0  0  0  0
  -31.0530  -16.1950   19.7390 N   0  0  0  0  0  0  0  0  0  0  0  0
  -26.6340  -13.6720   20.6160 C   0  0  0  0  0  0  0  0  0  0  0  0
  -25.4370  -13.0680   20.8890 C   0  0  0  0  0  0  0  0  0  0  0  0
  -25.6790  -11.6610   20.8320 C   0  0  0  0  0  0  0  0  0  0  0  0
  -27.5380  -12.6460   20.4000 N   0  0  0  0  0  0  0  0  0  0  0  0
  -26.9700  -11.4270   20.5950 N   0  0  0  0  0  0  0  0  0  0  0  0
  -24.7480  -10.5320   20.9280 C   0  0  0  0  0  0  0  0  0  0  0  0
  -24.9410   -9.4950   21.8670 C   0  0  0  0  0  3  0  0  0  0  0  0
  -24.0180   -8.4300   21.9560 C   0  0  0  0  0  3  0  0  0  0  0  0
  -22.8870   -8.3960   21.1080 C   0  0  0  0  0  0  0  0  0  0  0  0
  -22.7130   -9.4180   20.1580 C   0  0  0  0  0  3  0  0  0  0  0  0
  -23.6330  -10.4750   20.0650 C   0  0  0  0  0  3  0  0  0  0  0  0
  -21.9490   -7.3860   21.1050 O   0  0  0  0  0  0  0  0  0  0  0  0
  -21.5760   -6.7430   22.2590 C   0  0  0  0  0  0  0  0  0  0  0  0
  -21.6610   -7.3690   23.5230 C   0  0  0  0  0  3  0  0  0  0  0  0
  -21.2090   -6.6950   24.6750 C   0  0  0  0  0  3  0  0  0  0  0  0
  -20.6640   -5.4020   24.5610 C   0  0  0  0  0  0  0  0  0  0  0  0
  -20.5700   -4.7790   23.3040 C   0  0  0  0  0  3  0  0  0  0  0  0
  -21.0280   -5.4500   22.1570 C   0  0  0  0  0  0  0  0  0  0  0  0
  -20.9180   -4.8550   20.9450 F   0  0  0  0  0  0  0  0  0  0  0  0
  -20.2210   -4.7560   25.6650 F   0  0  0  0  0  0  0  0  0  0  0  0
  -24.1210  -13.7670   21.0850 C   0  0  0  0  0  0  0  0  0  0  0  0
  -23.2070  -13.1670   21.8360 N   0  0  0  0  0  0  0  0  0  0  0  0
  -23.9120  -14.8810   20.6010 O   0  0  0  0  0  0  0  0  0  0  0  0
  -23.3810  -12.2690   22.2650 H   0  0  0  0  0  0  0  0  0  0  0  0
  -22.3160  -13.6170   21.9820 H   0  0  0  0  0  0  0  0  0  0  0  0
  -27.0310  -15.0000   20.5010 N   0  0  0  0  0  0  0  0  0  0  0  0
  -26.3890  -15.7780   20.5930 H   0  0  0  0  0  0  0  0  0  0  0  0
  -27.9680  -15.2860   20.2380 H   0  0  0  0  0  0  0  0  0  0  0  0
  -29.5810  -20.9270   16.0140 C   0  0  0  0  0  1  0  0  0  0  0  0
  -30.6300  -21.4400   17.0450 C   0  0  0  0  0  3  0  0  0  0  0  0
  -30.7160  -23.2790   16.8060 C   0  0  0  0  0  2  0  0  0  0  0  0
  -31.6470  -24.4260   16.0170 O   0  0  0  0  0  0  0  0  0  0  0  0
  -35.7750  -29.9850   19.1620 C   0  0  0  0  0  0  0  0  0  0  0  0
  -31.9100  -25.8670   16.3830 C   0  0  0  0  0  0  0  0  0  0  0  0
  -33.3420  -30.2940   18.9560 C   0  0  0  0  0  3  0  0  0  0  0  0
  -32.1050  -28.6890   17.3390 C   0  0  0  0  0  0  0  0  0  0  0  0
  -34.5840  -28.8390   17.2240 C   0  0  0  0  0  2  0  0  0  0  0  0
  -33.2820  -28.0120   16.9940 C   0  0  0  0  0  0  0  0  0  0  0  0
  -33.1780  -26.6310   16.4910 C   0  0  0  0  0  3  0  0  0  0  0  0
  -30.8000  -26.6930   16.6720 C   0  0  0  0  0  3  0  0  0  0  0  0
  -30.8760  -28.0380   17.1460 C   0  0  0  0  0  3  0  0  0  0  0  0
  -32.2010  -30.1020   17.9190 C   0  0  0  0  0  2  0  0  0  0  0  0
  -34.6270  -29.6980   18.4680 N   0  0  0  0  0  0  0  0  0  0  0  0
  -35.7700  -30.7240   20.1610 O   0  0  0  0  0  0  0  0  0  0  0  0
  -32.8970  -29.7360   20.3340 C   0  0  0  0  0  0  0  0  0  0  0  0
  -31.8510  -30.3280   20.9390 N   0  0  0  0  0  0  0  0  0  0  0  0
  -33.4910  -28.7760   20.8310 O   0  0  0  0  0  0  0  0  0  0  0  0
  -31.4300  -31.1270   20.4840 H   0  0  0  0  0  0  0  0  0  0  0  0
  -28.9450  -30.7130   23.0830 C   0  0  0  0  0  0  0  0  0  0  0  0
  -31.2390  -29.9000   22.2020 C   0  0  0  0  0  3  0  0  0  0  0  0
  -30.5690  -28.5140   22.0530 C   0  0  0  0  0  2  0  0  0  0  0  0
  -29.0790  -28.5960   21.7060 C   0  0  0  0  0  2  0  0  0  0  0  0
  -28.3150  -29.3630   22.7880 C   0  0  0  0  0  2  0  0  0  0  0  0
  -30.3140  -30.9720   22.7920 C   0  0  0  0  0  0  0  0  0  0  0  0
  -30.8390  -32.2560   23.0550 C   0  0  0  0  0  3  0  0  0  0  0  0
  -30.0260  -33.2640   23.6080 C   0  0  0  0  0  3  0  0  0  0  0  0
  -28.6780  -32.9990   23.9040 C   0  0  0  0  0  3  0  0  0  0  0  0
  -28.1390  -31.7280   23.6410 C   0  0  0  0  0  3  0  0  0  0  0  0
  -37.1600  -29.4210   18.7210 C   0  0  0  0  0  3  0  0  0  0  0  0
  -38.1830  -30.4420   19.0120 N   0  0  0  0  0  0  0  0  0  0  0  0
  -38.6850  -31.3110   18.1230 C   0  0  0  0  0  0  0  0  0  0  0  0
  -38.3680  -31.2940   16.9310 O   0  0  0  0  0  0  0  0  0  0  0  0
  -38.4380  -30.5520   19.9830 H   0  0  0  0  0  0  0  0  0  0  0  0
  -38.9870  -33.7060   18.8610 C   0  0  0  0  0  1  0  0  0  0  0  0
  -39.6950  -32.3610   18.6330 C   0  0  0  0  0  3  0  0  0  0  0  0
  -41.7530  -31.4180   17.6750 C   0  0  0  0  0  1  0  0  0  0  0  0
  -40.8470  -32.5630   17.7270 N   0  0  0  0  0  0  0  0  0  0  0  0
  -41.3830  -33.3780   18.0070 H   0  0  0  0  0  0  0  0  0  0  0  0
  -37.5310  -28.0620   19.4350 C   0  0  1  0  0  0  0  0  0  0  0  0
  -37.4140  -28.1100   20.9770 C   0  0  0  0  0  1  0  0  0  0  0  0
  -36.6330  -26.9040   18.9360 C   0  0  0  0  0  1  0  0  0  0  0  0
  -38.9860  -27.6680   19.0860 C   0  0  0  0  0  1  0  0  0  0  0  0
  1  7  1  0
  2  7  1  0
  3  4  1  0
  3  2  1  0
  5  4  1  0
  5 23  1  0
  5  6  1  0
  7  6  1  0
  8  1  2  0
 10 15  1  0
 10  9  2  0
 11 10  1  0
 12  9  1  0
 12 17  1  0
 13 11  2  0
 13 14  1  0
 14 12  2  0
 16 11  1  0
 16 19  1  0
 18 14  1  0
 19  1  1  0
 19 15  1  0
 20 21  2  0
 21 40  1  0
 22 21  1  0
 22 25  1  0
 23 24  1  0
 23 20  1  0
 24 22  2  0
 25 26  1  0
 26 27  2  0
 28 27  1  0
 29 28  2  0
 30 29  1  0
 30 25  2  0
 31 28  1  0
 31 32  1  0
 32 33  1  0
 33 34  2  0
 35 34  1  0
 35 39  1  0
 36 35  2  0
 37 32  2  0
 37 36  1  0
 38 37  1  0
 40 41  1  0
 41 44  1  0
 41 43  1  0
 42 40  2  0
 45 46  1  0
 45 20  1  0
 47 45  1  0
 49 48  1  0
 49 13  1  0
 50 49  1  0
 51 53  1  0
 51 50  1  0
 52 63  2  0
 53 58  2  0
 53 59  1  0
 54 64  1  0
 55 61  1  0
 56 62  1  0
 57 56  1  0
 57 55  2  0
 58 57  1  0
 59 60  2  0
 60 55  1  0
 61 54  1  0
 62 54  1  0
 62 52  1  0
 64 66  2  0
 64 65  1  0
 67 65  1  0
 68 77  1  0
 69 65  1  0
 69 73  1  0
 70 69  1  0
 71 70  1  0
 71 72  1  0
 72 68  1  0
 73 74  1  0
 73 68  2  0
 74 75  2  0
 75 76  1  0
 77 76  2  0
 78 79  1  0
 78 52  1  0
 78 88  1  0
 79 82  1  0
 80 84  1  0
 80 79  1  0
 81 80  2  0
 84 83  1  0
 85 86  1  0
 86 87  1  0
 86 84  1  0
 88 89  1  1
 90 88  1  0
 91 88  1  0
M  ISO  4   1 100  19 100  50 101  51 101
M  END
>  <TORSDO>  (72) 
F 17

>  <SCORE>  (72) 
-9.230

>  <name>  (72) 
71

>  <ligand_id>  (72) 
71

>  <original_smiles>  (72) 
[H]c1c([H])c([H])c2c(c1[H])C([H])([H])C([H])([H])C([H])([H])C2([H])N([H])C(=O)C1([H])N(C(=O)C([H])(N([H])C(=O)C([H])(N([H])C([H])([H])[H])C([H])([H])[H])C(C([H])([H])[H])(C([H])([H])[H])C([H])([H])[H])C([H])([H])c2c([H])c(OC([H])([H])C([H])(c3c(C([H])([H])[H])c(C([H])([H])[H])c([H])c4c3C([H])([H])N(C(=O)N3C([H])([H])C([H])([H])C([H])([H])C([H])(n5nc(-c6c([H])c([H])c(Oc7c([H])c([H])c(F)c([H])c7F)c([H])c6[H])c(C(=O)N([H])[H])c5N([H])[H])C3([H])[H])C4([H])[H])C([H])([H])[H])c([H])c([H])c2C1([H])[H]

>  <smiles>  (72) 
[H]c1c([H])c([H])c2c(c1[H])C([H])([H])C([H])([H])C([H])([H])C2([H])N([H])C(=O)C1([H])N(C(=O)C([H])(N([H])C(=O)C([H])(N([H])C([H])([H])[H])C([H])([H])[H])C(C([H])([H])[H])(C([H])([H])[H])C([H])([H])[H])C([H])([H])c2c([H])c(OC([H])([H])C([H])(c3c(C([H])([H])[H])c(C([H])([H])[H])c([H])c4c3C([H])([H])N(C(=O)N3C([H])([H])C([H])([H])C([H])([H])C([H])(n5nc(-c6c([H])c([H])c(Oc7c([H])c([H])c(F)c([H])c7F)c([H])c6[H])c(C(=O)N([H])[H])c5N([H])[H])C3([H])[H])C4([H])[H])C([H])([H])[H])c([H])c([H])c2C1([H])[H]

$$$$
72:0:0
     RDKit          3D

 91100  0  0  1  0  0  0  0  0999 V2000
  -30.5610  -15.2760   20.4160 C   0  0  0  0  0  0  0  0  0  0  0  0
  -30.4370  -12.9170   19.4160 C   0  0  0  0  0  2  0  0  0  0  0  0
  -29.5170  -12.7920   18.1740 C   0  0  0  0  0  2  0  0  0  0  0  0
  -28.0160  -12.7430   18.5560 C   0  0  0  0  0  2  0  0  0  0  0  0
  -27.6170  -13.6210   19.7770 C   0  0  0  0  0  3  0  0  0  0  0  0
  -28.6690  -13.5850   20.9010 C   0  0  0  0  0  2  0  0  0  0  0  0
  -29.9420  -14.0150   20.3010 N   0  0  0  0  0  0  0  0  0  0  0  0
  -31.8010  -15.2580   20.3910 O   0  0  0  0  0  0  0  0  0  0  0  0
  -29.9010  -19.2210   20.9910 C   0  0  0  0  0  3  0  0  0  0  0  0
  -28.3910  -19.7270   18.7860 C   0  0  0  0  0  3  0  0  0  0  0  0
  -28.8330  -18.4130   19.0290 C   0  0  0  0  0  0  0  0  0  0  0  0
  -29.6170  -18.0200   20.1310 C   0  0  0  0  0  0  0  0  0  0  0  0
  -29.4190  -20.6250   20.6720 C   0  0  0  0  0  0  0  0  0  0  0  0
  -29.5140  -16.2460   18.5420 C   0  0  0  0  0  2  0  0  0  0  0  0
  -28.4950  -17.2790   18.1200 C   0  0  0  0  0  3  0  0  0  0  0  0
  -28.5320  -17.5670   16.6130 C   0  0  0  0  0  1  0  0  0  0  0  0
  -28.6840  -20.7850   19.5620 N   0  0  0  0  0  0  0  0  0  0  0  0
  -29.8400  -16.4590   19.9640 N   0  0  0  0  0  0  0  0  0  0  0  0
  -29.5420  -21.9390   21.3780 N   0  0  0  0  0  0  0  0  0  0  0  0
  -30.0730  -21.8900   22.2430 H   0  0  0  0  0  0  0  0  0  0  0  0
  -25.2270  -14.2490   20.4170 C   0  0  0  0  0  0  0  0  0  0  0  0
  -24.1400  -13.4950   20.7620 C   0  0  0  0  0  0  0  0  0  0  0  0
  -24.5940  -12.1410   20.7920 C   0  0  0  0  0  0  0  0  0  0  0  0
  -26.2680  -13.3500   20.2480 N   0  0  0  0  0  0  0  0  0  0  0  0
  -25.8960  -12.0800   20.5440 N   0  0  0  0  0  0  0  0  0  0  0  0
  -23.8500  -10.8900   20.9790 C   0  0  0  0  0  0  0  0  0  0  0  0
  -24.2490   -9.9300   21.9320 C   0  0  0  0  0  3  0  0  0  0  0  0
  -23.5050   -8.7450   22.1080 C   0  0  0  0  0  3  0  0  0  0  0  0
  -22.3450   -8.5150   21.3310 C   0  0  0  0  0  0  0  0  0  0  0  0
  -21.9660   -9.4630   20.3650 C   0  0  0  0  0  3  0  0  0  0  0  0
  -22.7120  -10.6400   20.1870 C   0  0  0  0  0  3  0  0  0  0  0  0
  -21.5710   -7.3840   21.4220 O   0  0  0  0  0  0  0  0  0  0  0  0
  -21.5190   -6.6380   22.5730 C   0  0  0  0  0  0  0  0  0  0  0  0
  -21.1350   -7.2020   23.8100 C   0  0  0  0  0  3  0  0  0  0  0  0
  -21.0330   -6.3860   24.9540 C   0  0  0  0  0  3  0  0  0  0  0  0
  -21.2950   -5.0060   24.8620 C   0  0  0  0  0  0  0  0  0  0  0  0
  -21.6680   -4.4410   23.6300 C   0  0  0  0  0  3  0  0  0  0  0  0
  -21.7770   -5.2560   22.4880 C   0  0  0  0  0  0  0  0  0  0  0  0
  -22.1170   -4.7020   21.3000 F   0  0  0  0  0  0  0  0  0  0  0  0
  -21.1870   -4.2210   25.9580 F   0  0  0  0  0  0  0  0  0  0  0  0
  -22.7380  -13.9920   20.9630 C   0  0  0  0  0  0  0  0  0  0  0  0
  -21.9690  -13.3280   21.8200 N   0  0  0  0  0  0  0  0  0  0  0  0
  -22.3320  -15.0080   20.3990 O   0  0  0  0  0  0  0  0  0  0  0  0
  -22.3140  -12.5120   22.3030 H   0  0  0  0  0  0  0  0  0  0  0  0
  -21.0260  -13.6420   22.0010 H   0  0  0  0  0  0  0  0  0  0  0  0
  -25.4100  -15.6130   20.2070 N   0  0  0  0  0  0  0  0  0  0  0  0
  -24.6470  -16.2770   20.2750 H   0  0  0  0  0  0  0  0  0  0  0  0
  -26.2900  -16.0430   19.9550 H   0  0  0  0  0  0  0  0  0  0  0  0
  -29.4230  -23.4250   20.8210 C   0  0  0  0  0  3  0  0  0  0  0  0
  -28.6260  -24.7660   21.5380 C   0  0  0  0  0  3  0  0  0  0  0  0
  -28.7690  -26.3160   21.2440 O   0  0  0  0  0  0  0  0  0  0  0  0
  -24.6380  -32.0610   23.5040 C   0  0  0  0  0  0  0  0  0  0  0  0
  -27.6640  -27.2460   21.0730 C   0  0  0  0  0  0  0  0  0  0  0  0
  -23.6510  -30.5140   21.8580 C   0  0  0  0  0  3  0  0  0  0  0  0
  -25.2850  -28.9020   20.6900 C   0  0  0  0  0  0  0  0  0  0  0  0
  -26.1980  -30.8700   21.9120 C   0  0  0  0  0  2  0  0  0  0  0  0
  -26.3860  -29.4370   21.3700 C   0  0  0  0  0  0  0  0  0  0  0  0
  -27.5750  -28.6260   21.5390 C   0  0  0  0  0  3  0  0  0  0  0  0
  -26.5360  -26.8130   20.3450 C   0  0  0  0  0  3  0  0  0  0  0  0
  -25.3740  -27.6020   20.1660 C   0  0  0  0  0  3  0  0  0  0  0  0
  -24.0260  -29.7510   20.5590 C   0  0  0  0  0  2  0  0  0  0  0  0
  -24.8440  -31.1770   22.4790 N   0  0  0  0  0  0  0  0  0  0  0  0
  -23.4950  -32.3320   23.9070 O   0  0  0  0  0  0  0  0  0  0  0  0
  -22.9210  -29.5450   22.8230 C   0  0  0  0  0  0  0  0  0  0  0  0
  -21.6210  -29.3030   22.5820 N   0  0  0  0  0  0  0  0  0  0  0  0
  -23.5330  -29.0080   23.7510 O   0  0  0  0  0  0  0  0  0  0  0  0
  -21.1850  -29.7800   21.8050 H   0  0  0  0  0  0  0  0  0  0  0  0
  -18.2660  -27.9690   22.8280 C   0  0  0  0  0  0  0  0  0  0  0  0
  -20.7700  -28.3790   23.3350 C   0  0  0  0  0  3  0  0  0  0  0  0
  -20.9940  -26.9210   22.8770 C   0  0  0  0  0  2  0  0  0  0  0  0
  -20.0170  -26.4700   21.7870 C   0  0  0  0  0  2  0  0  0  0  0  0
  -18.5710  -26.5910   22.2710 C   0  0  0  0  0  2  0  0  0  0  0  0
  -19.3000  -28.8150   23.3140 C   0  0  0  0  0  0  0  0  0  0  0  0
  -18.9650  -30.1000   23.7920 C   0  0  0  0  0  3  0  0  0  0  0  0
  -17.6290  -30.5410   23.7930 C   0  0  0  0  0  3  0  0  0  0  0  0
  -16.6100  -29.6940   23.3250 C   0  0  0  0  0  3  0  0  0  0  0  0
  -16.9260  -28.4110   22.8490 C   0  0  0  0  0  3  0  0  0  0  0  0
  -25.8260  -32.7890   24.2040 C   0  0  0  0  0  3  0  0  0  0  0  0
  -25.4400  -34.1970   24.3930 N   0  0  0  0  0  0  0  0  0  0  0  0
  -25.8050  -35.2050   23.5900 C   0  0  0  0  0  0  0  0  0  0  0  0
  -26.5670  -35.0530   22.6320 O   0  0  0  0  0  0  0  0  0  0  0  0
  -24.7720  -34.3860   25.1240 H   0  0  0  0  0  0  0  0  0  0  0  0
  -24.0570  -36.9030   22.9640 C   0  0  0  0  0  1  0  0  0  0  0  0
  -25.2390  -36.6060   23.8990 C   0  0  0  0  0  3  0  0  0  0  0  0
  -27.2690  -37.6310   24.8270 C   0  0  0  0  0  1  0  0  0  0  0  0
  -26.2440  -37.6860   23.7870 N   0  0  0  0  0  0  0  0  0  0  0  0
  -25.7980  -38.5990   23.8300 H   0  0  0  0  0  0  0  0  0  0  0  0
  -26.2220  -32.1400   25.5880 C   0  0  1  0  0  0  0  0  0  0  0  0
  -25.0230  -31.9290   26.5400 C   0  0  0  0  0  1  0  0  0  0  0  0
  -26.9040  -30.7690   25.3780 C   0  0  0  0  0  1  0  0  0  0  0  0
  -27.2560  -33.0360   26.3100 C   0  0  0  0  0  1  0  0  0  0  0  0
  2  7  1  0
  3  4  1  0
  3  2  1  0
  5  4  1  0
  5 24  1  0
  5  6  1  0
  7  1  1  0
  7  6  1  0
  8  1  2  0
 10 11  2  0
 10 17  1  0
 11 12  1  0
 12  9  2  0
 13  9  1  0
 13 19  1  0
 14 18  1  0
 15 16  1  0
 15 14  1  0
 15 11  1  0
 17 13  2  0
 18 12  1  0
 18  1  1  0
 19 20  1  0
 21 22  2  0
 22 23  1  0
 22 41  1  0
 23 26  1  0
 24 21  1  0
 24 25  1  0
 25 23  2  0
 26 27  1  0
 27 28  2  0
 29 32  1  0
 29 28  1  0
 30 29  2  0
 31 30  1  0
 31 26  2  0
 32 33  1  0
 33 34  1  0
 34 35  2  0
 36 35  1  0
 36 40  1  0
 37 36  2  0
 38 33  2  0
 38 37  1  0
 39 38  1  0
 41 42  1  0
 42 45  1  0
 42 44  1  0
 43 41  2  0
 46 47  1  0
 46 21  1  0
 48 46  1  0
 49 19  1  0
 49 50  2  0
 51 50  1  0
 52 63  2  0
 53 51  1  0
 53 58  1  0
 54 62  1  0
 54 64  1  0
 55 57  1  0
 56 62  1  0
 57 58  2  0
 57 56  1  0
 59 53  2  0
 60 59  1  0
 60 55  2  0
 61 55  1  0
 61 54  1  0
 62 52  1  0
 64 66  2  0
 65 64  1  0
 67 65  1  0
 68 77  2  0
 68 73  1  0
 69 65  1  0
 70 69  1  0
 71 72  1  0
 71 70  1  0
 72 68  1  0
 73 69  1  0
 73 74  2  0
 74 75  1  0
 76 75  2  0
 77 76  1  0
 78 52  1  0
 78 79  1  0
 78 88  1  0
 79 82  1  0
 80 84  1  0
 80 79  1  0
 81 80  2  0
 84 83  1  0
 86 87  1  0
 86 84  1  0
 86 85  1  0
 88 91  1  1
 88 89  1  0
 90 88  1  0
M  ISO  4   1 100  18 100  50 101  51 101
M  END
>  <TORSDO>  (73) 
F 17

>  <SCORE>  (73) 
-12.626

>  <name>  (73) 
72

>  <ligand_id>  (73) 
72

>  <original_smiles>  (73) 
[H]c1nc(N([H])C([H])([H])C([H])([H])Oc2c([H])c([H])c3c(c2[H])C([H])([H])N(C(=O)C([H])(N([H])C(=O)C([H])(N([H])C([H])([H])[H])C([H])([H])[H])C(C([H])([H])[H])(C([H])([H])[H])C([H])([H])[H])C([H])(C(=O)N([H])C2([H])c4c([H])c([H])c([H])c([H])c4C([H])([H])C([H])([H])C2([H])[H])C3([H])[H])c([H])c2c1C([H])(C([H])([H])[H])C([H])([H])N2C(=O)N1C([H])([H])C([H])([H])C([H])([H])C([H])(n2nc(-c3c([H])c([H])c(Oc4c([H])c([H])c(F)c([H])c4F)c([H])c3[H])c(C(=O)N([H])[H])c2N([H])[H])C1([H])[H]

>  <smiles>  (73) 
[H]c1nc(N([H])C([H])([H])C([H])([H])Oc2c([H])c([H])c3c(c2[H])C([H])([H])N(C(=O)C([H])(N([H])C(=O)C([H])(N([H])C([H])([H])[H])C([H])([H])[H])C(C([H])([H])[H])(C([H])([H])[H])C([H])([H])[H])C([H])(C(=O)N([H])C2([H])c4c([H])c([H])c([H])c([H])c4C([H])([H])C([H])([H])C2([H])[H])C3([H])[H])c([H])c2c1C([H])(C([H])([H])[H])C([H])([H])N2C(=O)N1C([H])([H])C([H])([H])C([H])([H])C([H])(n2nc(-c3c([H])c([H])c(Oc4c([H])c([H])c(F)c([H])c4F)c([H])c3[H])c(C(=O)N([H])[H])c2N([H])[H])C1([H])[H]

$$$$
73:0:0
     RDKit          3D

 94105  0  0  1  0  0  0  0  0999 V2000
  -30.2160  -21.8540   20.5940 C   0  0  0  0  0  0  0  0  0  0  0  0
  -29.3470  -20.8130   20.1140 C   0  0  0  0  0  0  0  0  0  0  0  0
  -27.6890  -22.5230   19.9990 C   0  0  0  0  0  0  0  0  0  0  0  0
  -28.5580  -23.5690   20.4700 C   0  0  0  0  0  0  0  0  0  0  0  0
  -26.2280  -22.7990   19.6960 C   0  0  0  0  0  1  0  0  0  0  0  0
  -28.0750  -21.2090   19.8060 N   0  0  0  0  0  0  0  0  0  0  0  0
  -29.8310  -23.1710   20.7770 N   0  0  0  0  0  0  0  0  0  0  0  0
  -30.5890  -14.8000   20.2340 C   0  0  0  0  0  0  0  0  0  0  0  0
  -30.3130  -12.5190   19.2370 C   0  0  0  0  0  2  0  0  0  0  0  0
  -29.3510  -12.5610   18.0310 C   0  0  0  0  0  2  0  0  0  0  0  0
  -27.9030  -12.3540   18.5050 C   0  0  0  0  0  2  0  0  0  0  0  0
  -27.5420  -13.2600   19.7110 C   0  0  0  0  0  3  0  0  0  0  0  0
  -28.6300  -13.2480   20.8080 C   0  0  0  0  0  2  0  0  0  0  0  0
  -29.9050  -13.6010   20.1700 N   0  0  0  0  0  0  0  0  0  0  0  0
  -31.7740  -14.8100   19.8830 O   0  0  0  0  0  0  0  0  0  0  0  0
  -30.7380  -17.2280   21.0110 C   0  0  0  0  0  2  0  0  0  0  0  0
  -28.9120  -16.7630   19.8900 C   0  0  0  0  0  2  0  0  0  0  0  0
  -29.9120  -19.4950   19.4190 C   0  0  0  0  0  3  0  0  0  0  0  0
  -30.7680  -18.2820   19.8750 C   0  0  0  0  0  3  0  0  0  0  0  0
  -29.4610  -18.0210   19.1460 C   0  0  0  0  0  3  0  0  0  0  0  0
  -29.9760  -16.0090   20.6100 N   0  0  0  0  0  0  0  0  0  0  0  0
  -25.1820  -13.8460   20.5180 C   0  0  0  0  0  0  0  0  0  0  0  0
  -24.1270  -13.0690   20.9080 C   0  0  0  0  0  0  0  0  0  0  0  0
  -24.5900  -11.7180   20.8540 C   0  0  0  0  0  0  0  0  0  0  0  0
  -26.2170  -12.9680   20.2440 N   0  0  0  0  0  0  0  0  0  0  0  0
  -25.8730  -11.6830   20.5110 N   0  0  0  0  0  0  0  0  0  0  0  0
  -23.8700  -10.4540   21.0500 C   0  0  0  0  0  0  0  0  0  0  0  0
  -24.3260   -9.4800   21.9640 C   0  0  0  0  0  3  0  0  0  0  0  0
  -23.6050   -8.2800   22.1500 C   0  0  0  0  0  3  0  0  0  0  0  0
  -22.4160   -8.0480   21.4190 C   0  0  0  0  0  0  0  0  0  0  0  0
  -21.9790   -9.0100   20.4910 C   0  0  0  0  0  3  0  0  0  0  0  0
  -22.7020  -10.2010   20.3050 C   0  0  0  0  0  3  0  0  0  0  0  0
  -21.6640   -6.9020   21.5160 O   0  0  0  0  0  0  0  0  0  0  0  0
  -21.6460   -6.1470   22.6610 C   0  0  0  0  0  0  0  0  0  0  0  0
  -21.2460   -6.6870   23.9030 C   0  0  0  0  0  3  0  0  0  0  0  0
  -21.1730   -5.8590   25.0400 C   0  0  0  0  0  3  0  0  0  0  0  0
  -21.4910   -4.4920   24.9390 C   0  0  0  0  0  0  0  0  0  0  0  0
  -21.8830   -3.9510   23.7030 C   0  0  0  0  0  3  0  0  0  0  0  0
  -21.9570   -4.7760   22.5670 C   0  0  0  0  0  0  0  0  0  0  0  0
  -22.3150   -4.2430   21.3740 F   0  0  0  0  0  0  0  0  0  0  0  0
  -21.4140   -3.6950   26.0310 F   0  0  0  0  0  0  0  0  0  0  0  0
  -22.7370  -13.5430   21.2160 C   0  0  0  0  0  0  0  0  0  0  0  0
  -22.0280  -12.8400   22.0930 N   0  0  0  0  0  0  0  0  0  0  0  0
  -22.2870  -14.5730   20.7160 O   0  0  0  0  0  0  0  0  0  0  0  0
  -22.4040  -12.0100   22.5250 H   0  0  0  0  0  0  0  0  0  0  0  0
  -21.0960  -13.1440   22.3410 H   0  0  0  0  0  0  0  0  0  0  0  0
  -25.3430  -15.2180   20.3490 N   0  0  0  0  0  0  0  0  0  0  0  0
  -24.5890  -15.8790   20.5020 H   0  0  0  0  0  0  0  0  0  0  0  0
  -26.1920  -15.6610   20.0220 H   0  0  0  0  0  0  0  0  0  0  0  0
  -32.1990  -20.5690   21.7370 C   0  0  0  0  0  2  0  0  0  0  0  0
  -32.3940  -22.0300   22.0520 C   0  0  0  0  0  2  0  0  0  0  0  0
  -31.6870  -21.6210   20.7770 C   0  0  0  0  0  3  0  0  0  0  0  0
  -28.0390  -25.0250   20.9400 C   0  0  0  0  0  2  0  0  0  0  0  0
  -28.3300  -26.3480   20.2710 O   0  0  0  0  0  0  0  0  0  0  0  0
  -24.6230  -31.8850   23.2380 C   0  0  0  0  0  0  0  0  0  0  0  0
  -27.2600  -27.2750   20.2310 C   0  0  0  0  0  0  0  0  0  0  0  0
  -23.4370  -30.4770   21.5950 C   0  0  0  0  0  3  0  0  0  0  0  0
  -24.9050  -28.9230   20.1830 C   0  0  0  0  0  0  0  0  0  0  0  0
  -25.9810  -30.7900   21.4340 C   0  0  0  0  0  2  0  0  0  0  0  0
  -26.0710  -29.4040   20.7920 C   0  0  0  0  0  0  0  0  0  0  0  0
  -27.2540  -28.5930   20.8060 C   0  0  0  0  0  3  0  0  0  0  0  0
  -26.0750  -26.8680   19.5820 C   0  0  0  0  0  3  0  0  0  0  0  0
  -24.9130  -27.6610   19.5650 C   0  0  0  0  0  3  0  0  0  0  0  0
  -23.6650  -29.7980   20.2190 C   0  0  0  0  0  2  0  0  0  0  0  0
  -24.6990  -31.0690   22.1450 N   0  0  0  0  0  0  0  0  0  0  0  0
  -23.5320  -32.1610   23.7610 O   0  0  0  0  0  0  0  0  0  0  0  0
  -22.7660  -29.4630   22.5540 C   0  0  0  0  0  0  0  0  0  0  0  0
  -21.4400  -29.2860   22.4230 N   0  0  0  0  0  0  0  0  0  0  0  0
  -23.4400  -28.8380   23.3780 O   0  0  0  0  0  0  0  0  0  0  0  0
  -20.9550  -29.8420   21.7320 H   0  0  0  0  0  0  0  0  0  0  0  0
  -18.0590  -28.0930   22.9190 C   0  0  0  0  0  0  0  0  0  0  0  0
  -20.6170  -28.3500   23.1920 C   0  0  0  0  0  3  0  0  0  0  0  0
  -20.7190  -26.9190   22.6160 C   0  0  0  0  0  2  0  0  0  0  0  0
  -19.6190  -26.5970   21.6000 C   0  0  0  0  0  2  0  0  0  0  0  0
  -18.2360  -26.7440   22.2420 C   0  0  0  0  0  2  0  0  0  0  0  0
  -19.1780  -28.8530   23.3510 C   0  0  0  0  0  0  0  0  0  0  0  0
  -18.9590  -30.1160   23.9430 C   0  0  0  0  0  3  0  0  0  0  0  0
  -17.6550  -30.6180   24.1100 C   0  0  0  0  0  3  0  0  0  0  0  0
  -16.5500  -29.8540   23.6940 C   0  0  0  0  0  3  0  0  0  0  0  0
  -16.7530  -28.5930   23.1040 C   0  0  0  0  0  3  0  0  0  0  0  0
  -25.8960  -32.5260   23.8680 C   0  0  0  0  0  3  0  0  0  0  0  0
  -25.5770  -33.9240   24.1940 N   0  0  0  0  0  0  0  0  0  0  0  0
  -25.9010  -34.9780   23.4360 C   0  0  0  0  0  0  0  0  0  0  0  0
  -26.5710  -34.8770   22.4030 O   0  0  0  0  0  0  0  0  0  0  0  0
  -24.9830  -34.0750   24.9970 H   0  0  0  0  0  0  0  0  0  0  0  0
  -24.1630  -36.7620   23.0830 C   0  0  0  0  0  1  0  0  0  0  0  0
  -25.4090  -36.3640   23.8930 C   0  0  0  0  0  3  0  0  0  0  0  0
  -27.5390  -37.2640   24.7170 C   0  0  0  0  0  1  0  0  0  0  0  0
  -26.4350  -37.4240   23.7750 N   0  0  0  0  0  0  0  0  0  0  0  0
  -26.0240  -38.3420   23.9210 H   0  0  0  0  0  0  0  0  0  0  0  0
  -26.4060  -31.7610   25.1510 C   0  0  1  0  0  0  0  0  0  0  0  0
  -25.3060  -31.5220   26.2110 C   0  0  0  0  0  1  0  0  0  0  0  0
  -26.9980  -30.3830   24.7700 C   0  0  0  0  0  1  0  0  0  0  0  0
  -27.5490  -32.5620   25.8180 C   0  0  0  0  0  1  0  0  0  0  0  0
  1  7  1  0
  1 52  1  0
  2  1  2  0
  3  4  1  0
  4  7  2  0
  4 53  1  0
  5  3  1  0
  6  3  2  0
  6  2  1  0
  8 21  1  0
  9 14  1  0
 10 11  1  0
 10  9  1  0
 12 11  1  0
 12 25  1  0
 12 13  1  0
 14  8  1  0
 14 13  1  0
 15  8  2  0
 17 21  1  0
 18 19  1  0
 18  2  1  0
 19 16  1  0
 20 18  1  0
 20 19  1  0
 20 17  1  0
 21 16  1  0
 22 23  2  0
 23 42  1  0
 24 23  1  0
 24 27  1  0
 25 26  1  0
 25 22  1  0
 26 24  2  0
 27 28  1  0
 28 29  2  0
 30 33  1  0
 30 29  1  0
 31 30  2  0
 32 31  1  0
 32 27  2  0
 33 34  1  0
 34 35  1  0
 35 36  2  0
 37 36  1  0
 37 41  1  0
 38 37  2  0
 39 34  2  0
 39 38  1  0
 40 39  1  0
 42 43  1  0
 43 46  1  0
 43 45  1  0
 44 42  2  0
 47 48  1  0
 47 22  1  0
 49 47  1  0
 50 51  1  0
 52 50  1  0
 52 51  1  0
 54 53  1  0
 55 66  2  0
 56 54  1  0
 56 61  1  0
 57 65  1  0
 57 67  1  0
 58 64  1  0
 58 60  1  0
 59 65  1  0
 60 61  2  0
 60 59  1  0
 62 56  2  0
 63 62  1  0
 63 58  2  0
 64 57  1  0
 65 55  1  0
 67 69  2  0
 68 67  1  0
 70 68  1  0
 71 80  2  0
 71 76  1  0
 72 68  1  0
 72 76  1  0
 73 72  1  0
 74 75  1  0
 74 73  1  0
 75 71  1  0
 76 77  2  0
 77 78  1  0
 79 78  2  0
 80 79  1  0
 81 55  1  0
 81 82  1  0
 81 91  1  0
 82 85  1  0
 83 87  1  0
 83 82  1  0
 84 83  2  0
 87 86  1  0
 89 87  1  0
 89 90  1  0
 89 88  1  0
 91 94  1  1
 91 92  1  0
 93 91  1  0
M  ISO  4   8 100  21 100  53 101  54 101
M  END
>  <TORSDO>  (74) 
F 18

>  <SCORE>  (74) 
-14.469

>  <name>  (74) 
73

>  <ligand_id>  (74) 
73

>  <original_smiles>  (74) 
[H]c1c([H])c([H])c2c(c1[H])C([H])([H])C([H])([H])C([H])([H])C2([H])N([H])C(=O)C1([H])N(C(=O)C([H])(N([H])C(=O)C([H])(N([H])C([H])([H])[H])C([H])([H])[H])C(C([H])([H])[H])(C([H])([H])[H])C([H])([H])[H])C([H])([H])c2c([H])c(OC([H])([H])c3nc(C4([H])C([H])([H])C4([H])[H])c(C4([H])C5([H])C([H])([H])N(C(=O)N6C([H])([H])C([H])([H])C([H])([H])C([H])(n7nc(-c8c([H])c([H])c(Oc9c([H])c([H])c(F)c([H])c9F)c([H])c8[H])c(C(=O)N([H])[H])c7N([H])[H])C6([H])[H])C([H])([H])C45[H])nc3C([H])([H])[H])c([H])c([H])c2C1([H])[H]

>  <smiles>  (74) 
[H]c1c([H])c([H])c2c(c1[H])C([H])([H])C([H])([H])C([H])([H])C2([H])N([H])C(=O)C1([H])N(C(=O)C([H])(N([H])C(=O)C([H])(N([H])C([H])([H])[H])C([H])([H])[H])C(C([H])([H])[H])(C([H])([H])[H])C([H])([H])[H])C([H])([H])c2c([H])c(OC([H])([H])c3nc(C4([H])C([H])([H])C4([H])[H])c(C4([H])C5([H])C([H])([H])N(C(=O)N6C([H])([H])C([H])([H])C([H])([H])C([H])(n7nc(-c8c([H])c([H])c(Oc9c([H])c([H])c(F)c([H])c9F)c([H])c8[H])c(C(=O)N([H])[H])c7N([H])[H])C6([H])[H])C([H])([H])C45[H])nc3C([H])([H])[H])c([H])c([H])c2C1([H])[H]

$$$$
74:0:0
     RDKit          3D

 95104  0  0  1  0  0  0  0  0999 V2000
  -28.6490  -20.5620   19.5290 C   0  0  0  0  0  0  0  0  0  0  0  0
  -28.1410  -21.9290   19.3220 C   0  0  0  0  0  0  0  0  0  0  0  0
  -28.6490  -23.1080   20.0210 C   0  0  0  0  0  0  0  0  0  0  0  0
  -29.6900  -20.3280   20.4510 C   0  0  0  0  0  0  0  0  0  0  0  0
  -29.6920  -22.7280   20.9220 C   0  0  0  0  0  0  0  0  0  0  0  0
  -29.0200  -18.0490   18.6450 C   0  0  0  0  0  2  0  0  0  0  0  0
  -28.0610  -19.2910   18.8550 C   0  0  0  0  0  3  0  0  0  0  0  0
  -30.0290  -17.6000   19.7560 C   0  0  0  0  0  3  0  0  0  0  0  0
  -30.2010  -18.8260   20.8410 C   0  0  1  0  0  0  0  0  0  0  0  0
  -26.9910  -22.1430   18.3410 C   0  0  0  0  0  1  0  0  0  0  0  0
  -30.3610  -23.7860   21.7740 C   0  0  0  0  0  1  0  0  0  0  0  0
  -26.7590  -18.8410   19.5470 C   0  0  0  0  0  1  0  0  0  0  0  0
  -31.7180  -18.8970   21.1080 C   0  0  0  0  0  1  0  0  0  0  0  0
  -29.5200  -18.4070   22.1590 C   0  0  0  0  0  1  0  0  0  0  0  0
  -30.1600  -21.4340   21.1240 N   0  0  0  0  0  0  0  0  0  0  0  0
  -30.7300  -14.9240   19.8840 C   0  0  0  0  0  0  0  0  0  0  0  0
  -30.5730  -12.5870   18.9290 C   0  0  0  0  0  2  0  0  0  0  0  0
  -29.5470  -12.5600   17.7700 C   0  0  0  0  0  2  0  0  0  0  0  0
  -28.1230  -12.3300   18.3080 C   0  0  0  0  0  2  0  0  0  0  0  0
  -27.8020  -13.2300   19.5310 C   0  0  0  0  0  3  0  0  0  0  0  0
  -28.9390  -13.2230   20.5750 C   0  0  0  0  0  2  0  0  0  0  0  0
  -30.1620  -13.6530   19.8860 N   0  0  0  0  0  0  0  0  0  0  0  0
  -31.8820  -15.0350   19.4540 O   0  0  0  0  0  0  0  0  0  0  0  0
  -29.9350  -16.0670   20.1530 N   0  0  0  0  0  0  0  0  0  0  0  0
  -29.0360  -15.8170   20.5370 H   0  0  0  0  0  0  0  0  0  0  0  0
  -25.5010  -13.7680   20.5140 C   0  0  0  0  0  0  0  0  0  0  0  0
  -24.4700  -12.9720   20.9330 C   0  0  0  0  0  0  0  0  0  0  0  0
  -24.9200  -11.6250   20.7780 C   0  0  0  0  0  0  0  0  0  0  0  0
  -26.5110  -12.9040   20.1270 N   0  0  0  0  0  0  0  0  0  0  0  0
  -26.1770  -11.6070   20.3500 N   0  0  0  0  0  0  0  0  0  0  0  0
  -24.2050  -10.3540   20.9550 C   0  0  0  0  0  0  0  0  0  0  0  0
  -24.6400   -9.3860   21.8860 C   0  0  0  0  0  3  0  0  0  0  0  0
  -23.9240   -8.1810   22.0530 C   0  0  0  0  0  3  0  0  0  0  0  0
  -22.7590   -7.9360   21.2880 C   0  0  0  0  0  0  0  0  0  0  0  0
  -22.3430   -8.8930   20.3460 C   0  0  0  0  0  3  0  0  0  0  0  0
  -23.0600  -10.0890   20.1770 C   0  0  0  0  0  3  0  0  0  0  0  0
  -22.0160   -6.7830   21.3630 O   0  0  0  0  0  0  0  0  0  0  0  0
  -21.8460   -6.1120   22.5470 C   0  0  0  0  0  0  0  0  0  0  0  0
  -21.2580   -6.7280   23.6740 C   0  0  0  0  0  3  0  0  0  0  0  0
  -21.0390   -5.9810   24.8490 C   0  0  0  0  0  3  0  0  0  0  0  0
  -21.3950   -4.6200   24.8970 C   0  0  0  0  0  0  0  0  0  0  0  0
  -21.9740   -4.0030   23.7730 C   0  0  0  0  0  3  0  0  0  0  0  0
  -22.1950   -4.7480   22.6010 C   0  0  0  0  0  0  0  0  0  0  0  0
  -22.7340   -4.1440   21.5130 F   0  0  0  0  0  0  0  0  0  0  0  0
  -21.1770   -3.9010   26.0220 F   0  0  0  0  0  0  0  0  0  0  0  0
  -23.1060  -13.4340   21.3570 C   0  0  0  0  0  0  0  0  0  0  0  0
  -22.4570  -12.6940   22.2510 N   0  0  0  0  0  0  0  0  0  0  0  0
  -22.6250  -14.4830   20.9310 O   0  0  0  0  0  0  0  0  0  0  0  0
  -22.8610  -11.8440   22.6150 H   0  0  0  0  0  0  0  0  0  0  0  0
  -21.5460  -12.9840   22.5750 H   0  0  0  0  0  0  0  0  0  0  0  0
  -25.6570  -15.1470   20.4070 N   0  0  0  0  0  0  0  0  0  0  0  0
  -24.9000  -15.7880   20.6190 H   0  0  0  0  0  0  0  0  0  0  0  0
  -26.4620  -15.6040   20.0000 H   0  0  0  0  0  0  0  0  0  0  0  0
  -27.9100  -24.5990   19.8750 C   0  0  0  0  0  2  0  0  0  0  0  0
  -28.3120  -26.0610   20.2500 O   0  0  0  0  0  0  0  0  0  0  0  0
  -24.7380  -31.7920   23.2680 C   0  0  0  0  0  0  0  0  0  0  0  0
  -27.3040  -27.1030   20.1630 C   0  0  0  0  0  0  0  0  0  0  0  0
  -23.5520  -30.4500   21.5790 C   0  0  0  0  0  3  0  0  0  0  0  0
  -25.0050  -28.9020   20.1370 C   0  0  0  0  0  0  0  0  0  0  0  0
  -26.1160  -30.6820   21.4660 C   0  0  0  0  0  2  0  0  0  0  0  0
  -26.1830  -29.3060   20.7780 C   0  0  0  0  0  0  0  0  0  0  0  0
  -27.3330  -28.4250   20.7760 C   0  0  0  0  0  3  0  0  0  0  0  0
  -26.0990  -26.8220   19.4710 C   0  0  0  0  0  3  0  0  0  0  0  0
  -24.9790  -27.6740   19.4680 C   0  0  0  0  0  3  0  0  0  0  0  0
  -23.7890  -29.8130   20.1860 C   0  0  0  0  0  2  0  0  0  0  0  0
  -24.8220  -30.9950   22.1580 N   0  0  0  0  0  0  0  0  0  0  0  0
  -23.6450  -32.0760   23.7810 O   0  0  0  0  0  0  0  0  0  0  0  0
  -22.8490  -29.4230   22.5050 C   0  0  0  0  0  0  0  0  0  0  0  0
  -21.5230  -29.2550   22.3430 N   0  0  0  0  0  0  0  0  0  0  0  0
  -23.4980  -28.7820   23.3350 O   0  0  0  0  0  0  0  0  0  0  0  0
  -21.0560  -29.8240   21.6510 H   0  0  0  0  0  0  0  0  0  0  0  0
  -18.1270  -28.0490   22.7350 C   0  0  0  0  0  0  0  0  0  0  0  0
  -20.6780  -28.3080   23.0770 C   0  0  0  0  0  3  0  0  0  0  0  0
  -20.7970  -26.8850   22.4870 C   0  0  0  0  0  2  0  0  0  0  0  0
  -19.7230  -26.5740   21.4390 C   0  0  0  0  0  2  0  0  0  0  0  0
  -18.3230  -26.7100   22.0440 C   0  0  0  0  0  2  0  0  0  0  0  0
  -19.2330  -28.8070   23.2040 C   0  0  0  0  0  0  0  0  0  0  0  0
  -18.9950  -30.0600   23.8100 C   0  0  0  0  0  3  0  0  0  0  0  0
  -17.6840  -30.5550   23.9490 C   0  0  0  0  0  3  0  0  0  0  0  0
  -16.5930  -29.7940   23.4940 C   0  0  0  0  0  3  0  0  0  0  0  0
  -16.8140  -28.5430   22.8930 C   0  0  0  0  0  3  0  0  0  0  0  0
  -26.0110  -32.4020   23.9290 C   0  0  0  0  0  3  0  0  0  0  0  0
  -25.7110  -33.8010   24.2720 N   0  0  0  0  0  0  0  0  0  0  0  0
  -26.0400  -34.8600   23.5200 C   0  0  0  0  0  0  0  0  0  0  0  0
  -26.6950  -34.7610   22.4790 O   0  0  0  0  0  0  0  0  0  0  0  0
  -25.1310  -33.9550   25.0840 H   0  0  0  0  0  0  0  0  0  0  0  0
  -24.3040  -36.6600   23.2310 C   0  0  0  0  0  1  0  0  0  0  0  0
  -25.5700  -36.2480   24.0000 C   0  0  0  0  0  3  0  0  0  0  0  0
  -27.7270  -37.1300   24.7730 C   0  0  0  0  0  1  0  0  0  0  0  0
  -26.6000  -37.3010   23.8610 N   0  0  0  0  0  0  0  0  0  0  0  0
  -26.1970  -38.2210   24.0220 H   0  0  0  0  0  0  0  0  0  0  0  0
  -26.4810  -31.6130   25.2120 C   0  0  1  0  0  0  0  0  0  0  0  0
  -25.3550  -31.3800   26.2480 C   0  0  0  0  0  1  0  0  0  0  0  0
  -27.0560  -30.2310   24.8280 C   0  0  0  0  0  1  0  0  0  0  0  0
  -27.6230  -32.3870   25.9120 C   0  0  0  0  0  1  0  0  0  0  0  0
  1  4  1  0
  2  1  2  0
  2  3  1  0
  3  5  2  0
  4  9  1  0
  4 15  2  0
  5 15  1  0
  5 11  1  0
  6  7  1  0
  6  8  1  0
  7  1  1  0
  7 12  1  0
  8 24  1  0
  8  9  1  0
  9 13  1  1
  9 14  1  0
 10  2  1  0
 16 22  1  0
 16 24  1  0
 17 22  1  0
 18 19  1  0
 18 17  1  0
 20 19  1  0
 20 29  1  0
 20 21  1  0
 22 21  1  0
 23 16  2  0
 24 25  1  0
 26 27  2  0
 27 46  1  0
 28 27  1  0
 28 31  1  0
 29 30  1  0
 29 26  1  0
 30 28  2  0
 31 32  1  0
 32 33  2  0
 34 37  1  0
 34 33  1  0
 35 34  2  0
 36 35  1  0
 36 31  2  0
 37 38  1  0
 38 43  2  0
 38 39  1  0
 39 40  2  0
 40 41  1  0
 41 45  1  0
 42 41  2  0
 43 42  1  0
 44 43  1  0
 46 47  1  0
 47 50  1  0
 47 49  1  0
 48 46  2  0
 51 26  1  0
 51 52  1  0
 53 51  1  0
 54  3  1  0
 54 55  1  0
 56 67  2  0
 57 55  1  0
 57 62  1  0
 58 66  1  0
 58 68  1  0
 59 65  1  0
 59 61  1  0
 60 66  1  0
 61 60  1  0
 62 61  2  0
 63 57  2  0
 64 63  1  0
 64 59  2  0
 65 58  1  0
 66 56  1  0
 68 70  2  0
 69 68  1  0
 71 69  1  0
 72 81  2  0
 72 77  1  0
 73 69  1  0
 73 77  1  0
 74 73  1  0
 75 76  1  0
 75 74  1  0
 76 72  1  0
 77 78  2  0
 78 79  1  0
 80 79  2  0
 81 80  1  0
 82 56  1  0
 82 83  1  0
 82 92  1  0
 83 86  1  0
 84 88  1  0
 84 83  1  0
 85 84  2  0
 88 87  1  0
 90 88  1  0
 90 91  1  0
 90 89  1  0
 92 95  1  1
 92 93  1  0
 94 92  1  0
M  ISO  4  16 100  24 100  54 101  55 101
M  END
>  <TORSDO>  (75) 
F 17

>  <SCORE>  (75) 
-13.662

>  <name>  (75) 
74

>  <ligand_id>  (75) 
74

>  <original_smiles>  (75) 
[H]c1c([H])c([H])c2c(c1[H])C([H])([H])C([H])([H])C([H])([H])C2([H])N([H])C(=O)C1([H])N(C(=O)C([H])(N([H])C(=O)C([H])(N([H])C([H])([H])[H])C([H])([H])[H])C(C([H])([H])[H])(C([H])([H])[H])C([H])([H])[H])C([H])([H])c2c([H])c(OC([H])([H])c3c(C([H])([H])[H])nc4c(c3C([H])([H])[H])C([H])(C([H])([H])[H])C([H])([H])C([H])(N([H])C(=O)N3C([H])([H])C([H])([H])C([H])([H])C([H])(n5nc(-c6c([H])c([H])c(Oc7c([H])c([H])c(F)c([H])c7F)c([H])c6[H])c(C(=O)N([H])[H])c5N([H])[H])C3([H])[H])C4(C([H])([H])[H])C([H])([H])[H])c([H])c([H])c2C1([H])[H]

>  <smiles>  (75) 
[H]c1c([H])c([H])c2c(c1[H])C([H])([H])C([H])([H])C([H])([H])C2([H])N([H])C(=O)C1([H])N(C(=O)C([H])(N([H])C(=O)C([H])(N([H])C([H])([H])[H])C([H])([H])[H])C(C([H])([H])[H])(C([H])([H])[H])C([H])([H])[H])C([H])([H])c2c([H])c(OC([H])([H])c3c(C([H])([H])[H])nc4c(c3C([H])([H])[H])C([H])(C([H])([H])[H])C([H])([H])C([H])(N([H])C(=O)N3C([H])([H])C([H])([H])C([H])([H])C([H])(n5nc(-c6c([H])c([H])c(Oc7c([H])c([H])c(F)c([H])c7F)c([H])c6[H])c(C(=O)N([H])[H])c5N([H])[H])C3([H])[H])C4(C([H])([H])[H])C([H])([H])[H])c([H])c([H])c2C1([H])[H]

$$$$
75:0:0
     RDKit          3D

 91100  0  0  1  0  0  0  0  0999 V2000
  -29.0330  -21.3170   19.0640 C   0  0  0  0  0  3  0  0  0  0  0  0
  -29.5570  -20.5250   20.1410 C   0  0  0  0  0  0  0  0  0  0  0  0
  -28.6690  -22.7140   19.1590 C   0  0  0  0  0  0  0  0  0  0  0  0
  -29.7140  -21.3480   21.3070 C   0  0  0  0  0  0  0  0  0  0  0  0
  -28.8390  -23.4510   20.3680 C   0  0  0  0  0  0  0  0  0  0  0  0
  -30.2860  -20.7440   22.5740 C   0  0  0  0  0  1  0  0  0  0  0  0
  -29.3680  -22.7010   21.4070 N   0  0  0  0  0  0  0  0  0  0  0  0
  -27.9430  -23.4760   17.7890 Cl  0  0  0  0  0  0  0  0  0  0  0  0
  -30.7400  -15.0820   20.3120 C   0  0  0  0  0  0  0  0  0  0  0  0
  -30.5680  -12.7440   19.3720 C   0  0  0  0  0  2  0  0  0  0  0  0
  -29.6410  -12.7220   18.1370 C   0  0  0  0  0  2  0  0  0  0  0  0
  -28.1730  -12.5280   18.5650 C   0  0  0  0  0  2  0  0  0  0  0  0
  -27.7670  -13.4480   19.7470 C   0  0  0  0  0  3  0  0  0  0  0  0
  -28.8240  -13.4680   20.8700 C   0  0  0  0  0  2  0  0  0  0  0  0
  -30.1010  -13.8480   20.2510 N   0  0  0  0  0  0  0  0  0  0  0  0
  -31.9660  -15.1010   20.1610 O   0  0  0  0  0  0  0  0  0  0  0  0
  -29.0140  -18.1860   18.9440 C   0  0  0  0  0  2  0  0  0  0  0  0
  -29.5020  -16.7100   18.9140 C   0  0  0  0  0  2  0  0  0  0  0  0
  -30.2030  -17.6850   20.9080 C   0  0  0  0  0  2  0  0  0  0  0  0
  -29.9480  -18.9360   19.8880 C   0  0  0  0  0  3  0  0  0  0  0  0
  -29.9940  -16.2960   20.2450 N   0  0  0  0  0  0  0  0  0  0  0  0
  -25.3920  -14.0610   20.4680 C   0  0  0  0  0  0  0  0  0  0  0  0
  -24.3160  -13.2970   20.8260 C   0  0  0  0  0  0  0  0  0  0  0  0
  -24.7670  -11.9420   20.8020 C   0  0  0  0  0  0  0  0  0  0  0  0
  -26.4260  -13.1680   20.2390 N   0  0  0  0  0  0  0  0  0  0  0  0
  -26.0600  -11.8900   20.5050 N   0  0  0  0  0  0  0  0  0  0  0  0
  -24.0300  -10.6880   20.9840 C   0  0  0  0  0  0  0  0  0  0  0  0
  -24.4380   -9.7220   21.9290 C   0  0  0  0  0  3  0  0  0  0  0  0
  -23.7000   -8.5310   22.1010 C   0  0  0  0  0  3  0  0  0  0  0  0
  -22.5390   -8.2980   21.3260 C   0  0  0  0  0  0  0  0  0  0  0  0
  -22.1500   -9.2530   20.3690 C   0  0  0  0  0  3  0  0  0  0  0  0
  -22.8890  -10.4340   20.1960 C   0  0  0  0  0  3  0  0  0  0  0  0
  -21.7730   -7.1600   21.4070 O   0  0  0  0  0  0  0  0  0  0  0  0
  -21.6810   -6.4360   22.5680 C   0  0  0  0  0  0  0  0  0  0  0  0
  -21.1930   -7.0040   23.7650 C   0  0  0  0  0  3  0  0  0  0  0  0
  -21.0500   -6.2050   24.9170 C   0  0  0  0  0  3  0  0  0  0  0  0
  -21.3850   -4.8390   24.8720 C   0  0  0  0  0  0  0  0  0  0  0  0
  -21.8660   -4.2690   23.6800 C   0  0  0  0  0  3  0  0  0  0  0  0
  -22.0120   -5.0660   22.5300 C   0  0  0  0  0  0  0  0  0  0  0  0
  -22.4550   -4.5080   21.3780 F   0  0  0  0  0  0  0  0  0  0  0  0
  -21.2410   -4.0680   25.9760 F   0  0  0  0  0  0  0  0  0  0  0  0
  -22.9210  -13.7880   21.0810 C   0  0  0  0  0  0  0  0  0  0  0  0
  -22.1790  -13.1050   21.9450 N   0  0  0  0  0  0  0  0  0  0  0  0
  -22.4970  -14.8140   20.5490 O   0  0  0  0  0  0  0  0  0  0  0  0
  -22.5350  -12.2770   22.3990 H   0  0  0  0  0  0  0  0  0  0  0  0
  -21.2410  -13.4160   22.1540 H   0  0  0  0  0  0  0  0  0  0  0  0
  -25.5730  -15.4310   20.2940 N   0  0  0  0  0  0  0  0  0  0  0  0
  -24.8180  -16.0980   20.4100 H   0  0  0  0  0  0  0  0  0  0  0  0
  -26.4450  -15.8630   20.0180 H   0  0  0  0  0  0  0  0  0  0  0  0
  -28.1130  -24.9000   20.6890 C   0  0  0  0  0  2  0  0  0  0  0  0
  -28.4490  -26.3350   20.2020 O   0  0  0  0  0  0  0  0  0  0  0  0
  -24.6080  -31.8840   23.1720 C   0  0  0  0  0  0  0  0  0  0  0  0
  -27.3820  -27.3000   20.1460 C   0  0  0  0  0  0  0  0  0  0  0  0
  -23.4810  -30.4740   21.4940 C   0  0  0  0  0  3  0  0  0  0  0  0
  -25.0060  -28.9660   20.0800 C   0  0  0  0  0  0  0  0  0  0  0  0
  -26.0290  -30.8210   21.3840 C   0  0  0  0  0  2  0  0  0  0  0  0
  -26.1580  -29.4410   20.7210 C   0  0  0  0  0  0  0  0  0  0  0  0
  -27.3500  -28.6230   20.7390 C   0  0  0  0  0  3  0  0  0  0  0  0
  -26.2100  -26.9350   19.4460 C   0  0  0  0  0  3  0  0  0  0  0  0
  -25.0430  -27.7260   19.4250 C   0  0  0  0  0  3  0  0  0  0  0  0
  -23.7500  -29.8210   20.1120 C   0  0  0  0  0  2  0  0  0  0  0  0
  -24.7240  -31.0810   22.0720 N   0  0  0  0  0  0  0  0  0  0  0  0
  -23.5040  -32.1290   23.6820 O   0  0  0  0  0  0  0  0  0  0  0  0
  -22.8170  -29.4330   22.4300 C   0  0  0  0  0  0  0  0  0  0  0  0
  -21.4990  -29.2210   22.2740 N   0  0  0  0  0  0  0  0  0  0  0  0
  -23.4920  -28.8180   23.2600 O   0  0  0  0  0  0  0  0  0  0  0  0
  -21.0100  -29.7700   21.5810 H   0  0  0  0  0  0  0  0  0  0  0  0
  -18.1450  -27.9170   22.7030 C   0  0  0  0  0  0  0  0  0  0  0  0
  -20.6900  -28.2510   23.0180 C   0  0  0  0  0  3  0  0  0  0  0  0
  -20.8430  -26.8290   22.4300 C   0  0  0  0  0  2  0  0  0  0  0  0
  -19.7700  -26.4860   21.3920 C   0  0  0  0  0  2  0  0  0  0  0  0
  -18.3740  -26.5820   22.0130 C   0  0  0  0  0  2  0  0  0  0  0  0
  -19.2330  -28.7070   23.1620 C   0  0  0  0  0  0  0  0  0  0  0  0
  -18.9660  -29.9540   23.7670 C   0  0  0  0  0  3  0  0  0  0  0  0
  -17.6430  -30.4130   23.9170 C   0  0  0  0  0  3  0  0  0  0  0  0
  -16.5700  -29.6190   23.4740 C   0  0  0  0  0  3  0  0  0  0  0  0
  -16.8220  -28.3730   22.8740 C   0  0  0  0  0  3  0  0  0  0  0  0
  -25.8550  -32.5500   23.8310 C   0  0  0  0  0  3  0  0  0  0  0  0
  -25.5020  -33.9420   24.1520 N   0  0  0  0  0  0  0  0  0  0  0  0
  -25.8220  -35.0040   23.4020 C   0  0  0  0  0  0  0  0  0  0  0  0
  -26.5120  -34.9180   22.3830 O   0  0  0  0  0  0  0  0  0  0  0  0
  -24.8910  -34.0790   24.9440 H   0  0  0  0  0  0  0  0  0  0  0  0
  -24.0640  -36.7640   23.0110 C   0  0  0  0  0  1  0  0  0  0  0  0
  -25.2920  -36.3810   23.8510 C   0  0  0  0  0  3  0  0  0  0  0  0
  -27.3820  -37.3150   24.7420 C   0  0  0  0  0  1  0  0  0  0  0  0
  -26.3050  -37.4570   23.7680 N   0  0  0  0  0  0  0  0  0  0  0  0
  -25.8740  -38.3680   23.9020 H   0  0  0  0  0  0  0  0  0  0  0  0
  -26.3500  -31.7960   25.1250 C   0  0  1  0  0  0  0  0  0  0  0  0
  -25.2330  -31.5400   26.1640 C   0  0  0  0  0  1  0  0  0  0  0  0
  -26.9720  -30.4270   24.7630 C   0  0  0  0  0  1  0  0  0  0  0  0
  -27.4660  -32.6150   25.8130 C   0  0  0  0  0  1  0  0  0  0  0  0
  1  3  2  0
  1  2  1  0
  2  4  2  0
  3  5  1  0
  4  7  1  0
  4  6  1  0
  5 50  1  0
  5  7  2  0
  8  3  1  0
 10 15  1  0
 11 12  1  0
 11 10  1  0
 13 12  1  0
 13 25  1  0
 13 14  1  0
 15  9  1  0
 15 14  1  0
 16  9  2  0
 17 20  1  0
 18 17  1  0
 18 21  1  0
 20  2  1  0
 20 19  1  0
 21  9  1  0
 21 19  1  0
 22 23  2  0
 23 42  1  0
 24 23  1  0
 24 27  1  0
 25 22  1  0
 25 26  1  0
 26 24  2  0
 27 28  1  0
 28 29  2  0
 30 33  1  0
 30 29  1  0
 31 30  2  0
 32 31  1  0
 32 27  2  0
 33 34  1  0
 34 35  1  0
 35 36  2  0
 37 36  1  0
 37 41  1  0
 38 37  2  0
 39 34  2  0
 39 38  1  0
 40 39  1  0
 42 43  1  0
 43 46  1  0
 43 45  1  0
 44 42  2  0
 47 48  1  0
 47 22  1  0
 49 47  1  0
 51 50  1  0
 52 63  2  0
 53 51  1  0
 53 58  1  0
 54 62  1  0
 54 64  1  0
 55 61  1  0
 55 57  1  0
 56 62  1  0
 57 58  2  0
 57 56  1  0
 59 53  2  0
 60 59  1  0
 60 55  2  0
 61 54  1  0
 62 52  1  0
 64 66  2  0
 65 64  1  0
 67 65  1  0
 68 77  2  0
 68 73  1  0
 69 65  1  0
 69 73  1  0
 70 69  1  0
 71 72  1  0
 71 70  1  0
 72 68  1  0
 73 74  2  0
 74 75  1  0
 76 75  2  0
 77 76  1  0
 78 52  1  0
 78 79  1  0
 78 88  1  0
 79 82  1  0
 80 84  1  0
 80 79  1  0
 81 80  2  0
 84 83  1  0
 86 84  1  0
 86 87  1  0
 86 85  1  0
 88 91  1  1
 88 89  1  0
 90 88  1  0
M  ISO  4   9 100  21 100  50 101  51 101
M  END
>  <TORSDO>  (76) 
F 17

>  <SCORE>  (76) 
-15.028

>  <name>  (76) 
75

>  <ligand_id>  (76) 
75

>  <original_smiles>  (76) 
[H]c1c([H])c([H])c2c(c1[H])C([H])([H])C([H])([H])C([H])([H])C2([H])N([H])C(=O)C1([H])N(C(=O)C([H])(N([H])C(=O)C([H])(N([H])C([H])([H])[H])C([H])([H])[H])C(C([H])([H])[H])(C([H])([H])[H])C([H])([H])[H])C([H])([H])c2c([H])c(OC([H])([H])c3nc(C([H])([H])[H])c(C4([H])C([H])([H])N(C(=O)N5C([H])([H])C([H])([H])C([H])([H])C([H])(n6nc(-c7c([H])c([H])c(Oc8c([H])c([H])c(F)c([H])c8F)c([H])c7[H])c(C(=O)N([H])[H])c6N([H])[H])C5([H])[H])C([H])([H])C4([H])[H])c([H])c3Cl)c([H])c([H])c2C1([H])[H]

>  <smiles>  (76) 
[H]c1c([H])c([H])c2c(c1[H])C([H])([H])C([H])([H])C([H])([H])C2([H])N([H])C(=O)C1([H])N(C(=O)C([H])(N([H])C(=O)C([H])(N([H])C([H])([H])[H])C([H])([H])[H])C(C([H])([H])[H])(C([H])([H])[H])C([H])([H])[H])C([H])([H])c2c([H])c(OC([H])([H])c3nc(C([H])([H])[H])c(C4([H])C([H])([H])N(C(=O)N5C([H])([H])C([H])([H])C([H])([H])C([H])(n6nc(-c7c([H])c([H])c(Oc8c([H])c([H])c(F)c([H])c8F)c([H])c7[H])c(C(=O)N([H])[H])c6N([H])[H])C5([H])[H])C([H])([H])C4([H])[H])c([H])c3Cl)c([H])c([H])c2C1([H])[H]

$$$$
76:0:0
     RDKit          3D

 96105  0  0  1  0  0  0  0  0999 V2000
  -28.7650  -22.7320   21.3460 C   0  0  0  0  0  0  0  0  0  0  0  0
  -29.5310  -21.5310   21.4970 C   0  0  0  0  0  0  0  0  0  0  0  0
  -28.7830  -23.1180   20.0150 C   0  0  0  0  0  0  0  0  0  0  0  0
  -29.9460  -21.1800   20.2480 C   0  0  0  0  0  0  0  0  0  0  0  0
  -28.0520  -23.3850   22.5060 C   0  0  0  0  0  1  0  0  0  0  0  0
  -29.8110  -20.7860   22.7820 C   0  0  0  0  0  1  0  0  0  0  0  0
  -29.7660  -22.0640   17.8880 C   0  0  0  0  0  1  0  0  0  0  0  0
  -29.5250  -22.1320   19.3270 N   0  0  0  0  0  0  0  0  0  0  0  0
  -26.6450  -23.7410   18.9080 C   0  0  0  0  0  1  0  0  0  0  0  0
  -28.0580  -24.2530   19.2640 C   0  0  0  0  0  3  0  0  0  0  0  0
  -28.0600  -25.6810   19.9550 C   0  0  0  0  0  2  0  0  0  0  0  0
  -27.9890  -26.8970   19.1370 O   0  0  0  0  0  0  0  0  0  0  0  0
  -24.4780  -31.7890   23.0850 C   0  0  0  0  0  0  0  0  0  0  0  0
  -26.8670  -27.6970   19.3260 C   0  0  0  0  0  0  0  0  0  0  0  0
  -23.1500  -30.5360   21.4250 C   0  0  0  0  0  3  0  0  0  0  0  0
  -24.4850  -29.1890   19.7180 C   0  0  0  0  0  0  0  0  0  0  0  0
  -25.6530  -30.9580   21.0440 C   0  0  0  0  0  2  0  0  0  0  0  0
  -25.6940  -29.6600   20.2490 C   0  0  0  0  0  0  0  0  0  0  0  0
  -26.8930  -28.9260   20.0430 C   0  0  0  0  0  3  0  0  0  0  0  0
  -25.6400  -27.2720   18.7860 C   0  0  0  0  0  3  0  0  0  0  0  0
  -24.4510  -27.9990   18.9830 C   0  0  0  0  0  3  0  0  0  0  0  0
  -23.2370  -30.0110   19.9690 C   0  0  0  0  0  2  0  0  0  0  0  0
  -24.4510  -31.1120   21.9050 N   0  0  0  0  0  0  0  0  0  0  0  0
  -23.4500  -31.9720   23.7500 O   0  0  0  0  0  0  0  0  0  0  0  0
  -22.6120  -29.4010   22.3290 C   0  0  0  0  0  0  0  0  0  0  0  0
  -21.3050  -29.1160   22.2210 N   0  0  0  0  0  0  0  0  0  0  0  0
  -23.3670  -28.7840   23.0830 O   0  0  0  0  0  0  0  0  0  0  0  0
  -20.7510  -29.6700   21.5800 H   0  0  0  0  0  0  0  0  0  0  0  0
  -18.0790  -27.5510   22.6600 C   0  0  0  0  0  0  0  0  0  0  0  0
  -20.5950  -28.0670   22.9520 C   0  0  0  0  0  3  0  0  0  0  0  0
  -20.8460  -26.6780   22.3180 C   0  0  0  0  0  2  0  0  0  0  0  0
  -19.7840  -26.2860   21.2840 C   0  0  0  0  0  2  0  0  0  0  0  0
  -18.3960  -26.2590   21.9300 C   0  0  0  0  0  2  0  0  0  0  0  0
  -19.1100  -28.4090   23.1260 C   0  0  0  0  0  0  0  0  0  0  0  0
  -18.7590  -29.6200   23.7610 C   0  0  0  0  0  3  0  0  0  0  0  0
  -17.4080  -29.9700   23.9470 C   0  0  0  0  0  3  0  0  0  0  0  0
  -16.3910  -29.1130   23.4910 C   0  0  0  0  0  3  0  0  0  0  0  0
  -16.7270  -27.9070   22.8520 C   0  0  0  0  0  3  0  0  0  0  0  0
  -25.8030  -32.3920   23.6480 C   0  0  0  0  0  3  0  0  0  0  0  0
  -26.3920  -31.5770   24.8640 C   0  0  1  0  0  0  0  0  0  0  0  0
  -25.3740  -31.3080   25.9990 C   0  0  0  0  0  1  0  0  0  0  0  0
  -26.9470  -30.2150   24.3920 C   0  0  0  0  0  1  0  0  0  0  0  0
  -27.5910  -32.3450   25.4710 C   0  0  0  0  0  1  0  0  0  0  0  0
  -25.5170  -33.7780   24.0450 N   0  0  0  0  0  0  0  0  0  0  0  0
  -25.8460  -34.8590   23.3280 C   0  0  0  0  0  0  0  0  0  0  0  0
  -26.4900  -34.7920   22.2780 O   0  0  0  0  0  0  0  0  0  0  0  0
  -24.9210  -33.9040   24.8510 H   0  0  0  0  0  0  0  0  0  0  0  0
  -24.1430  -36.7020   23.0850 C   0  0  0  0  0  1  0  0  0  0  0  0
  -25.3860  -36.2330   23.8580 C   0  0  0  0  0  3  0  0  0  0  0  0
  -27.5410  -37.0530   24.7090 C   0  0  0  0  0  1  0  0  0  0  0  0
  -26.4350  -37.2730   23.7820 N   0  0  0  0  0  0  0  0  0  0  0  0
  -26.0460  -38.1930   23.9620 H   0  0  0  0  0  0  0  0  0  0  0  0
  -30.6900  -20.0190   19.9710 N   0  0  0  0  0  0  0  0  0  0  0  0
  -31.3520  -20.1350   19.2090 H   0  0  0  0  0  0  0  0  0  0  0  0
  -31.2870  -15.2280   19.9210 C   0  0  0  0  0  0  0  0  0  0  0  0
  -31.0340  -12.9230   19.0810 C   0  0  0  0  0  2  0  0  0  0  0  0
  -30.0570  -12.8870   17.8860 C   0  0  0  0  0  2  0  0  0  0  0  0
  -28.6020  -12.7460   18.3770 C   0  0  0  0  0  2  0  0  0  0  0  0
  -28.2490  -13.7360   19.5140 C   0  0  0  0  0  3  0  0  0  0  0  0
  -29.3390  -13.7710   20.6090 C   0  0  0  0  0  2  0  0  0  0  0  0
  -30.6260  -14.0350   19.9520 N   0  0  0  0  0  0  0  0  0  0  0  0
  -32.4850  -15.2940   19.6350 O   0  0  0  0  0  0  0  0  0  0  0  0
  -30.4400  -16.8750   18.3920 C   0  0  0  0  0  2  0  0  0  0  0  0
  -30.5600  -17.5310   20.6370 C   0  0  0  0  0  2  0  0  0  0  0  0
  -29.8430  -18.2940   18.4200 C   0  0  0  0  0  3  0  0  0  0  0  0
  -29.9570  -18.7460   19.8700 C   0  0  0  0  0  3  0  0  0  0  0  0
  -28.3930  -18.3260   17.9140 C   0  0  0  0  0  1  0  0  0  0  0  0
  -30.5120  -16.3400   19.7590 N   0  0  0  0  0  0  0  0  0  0  0  0
  -25.9260  -14.3730   20.4070 C   0  0  0  0  0  0  0  0  0  0  0  0
  -24.8480  -13.6150   20.7860 C   0  0  0  0  0  0  0  0  0  0  0  0
  -25.2620  -12.2520   20.6600 C   0  0  0  0  0  0  0  0  0  0  0  0
  -26.9210  -13.4710   20.0640 N   0  0  0  0  0  0  0  0  0  0  0  0
  -26.5310  -12.1900   20.2830 N   0  0  0  0  0  0  0  0  0  0  0  0
  -24.4990  -11.0060   20.8170 C   0  0  0  0  0  0  0  0  0  0  0  0
  -24.8820  -10.0210   21.7520 C   0  0  0  0  0  3  0  0  0  0  0  0
  -24.1230   -8.8400   21.9030 C   0  0  0  0  0  3  0  0  0  0  0  0
  -22.9640   -8.6390   21.1190 C   0  0  0  0  0  0  0  0  0  0  0  0
  -22.5960   -9.6160   20.1750 C   0  0  0  0  0  3  0  0  0  0  0  0
  -23.3560  -10.7870   20.0240 C   0  0  0  0  0  3  0  0  0  0  0  0
  -22.1790   -7.5140   21.1740 O   0  0  0  0  0  0  0  0  0  0  0  0
  -21.9670   -6.8390   22.3480 C   0  0  0  0  0  0  0  0  0  0  0  0
  -21.3500   -7.4600   23.4590 C   0  0  0  0  0  3  0  0  0  0  0  0
  -21.0950   -6.7140   24.6280 C   0  0  0  0  0  3  0  0  0  0  0  0
  -21.4380   -5.3470   24.6800 C   0  0  0  0  0  0  0  0  0  0  0  0
  -22.0380   -4.7270   23.5690 C   0  0  0  0  0  3  0  0  0  0  0  0
  -22.2990   -5.4700   22.4070 C   0  0  0  0  0  0  0  0  0  0  0  0
  -22.8590   -4.8680   21.3310 F   0  0  0  0  0  0  0  0  0  0  0  0
  -21.1820   -4.6280   25.7930 F   0  0  0  0  0  0  0  0  0  0  0  0
  -23.4910  -14.1280   21.1660 C   0  0  0  0  0  0  0  0  0  0  0  0
  -22.7860  -13.4190   22.0420 N   0  0  0  0  0  0  0  0  0  0  0  0
  -23.0590  -15.1940   20.7250 O   0  0  0  0  0  0  0  0  0  0  0  0
  -23.1440  -12.5550   22.4200 H   0  0  0  0  0  0  0  0  0  0  0  0
  -21.8780  -13.7520   22.3440 H   0  0  0  0  0  0  0  0  0  0  0  0
  -26.1280  -15.7450   20.3030 N   0  0  0  0  0  0  0  0  0  0  0  0
  -25.3790  -16.4070   20.4830 H   0  0  0  0  0  0  0  0  0  0  0  0
  -26.9740  -16.1760   19.9530 H   0  0  0  0  0  0  0  0  0  0  0  0
  1  2  1  0
  1  5  1  0
  2  6  1  0
  3  1  2  0
  4  2  2  0
  7  8  1  0
  8  3  1  0
  8  4  1  0
 10  9  1  0
 10 11  1  0
 10  3  1  0
 12 14  1  0
 12 11  1  0
 13 24  2  0
 14 19  1  0
 15 23  1  0
 15 25  1  0
 16 22  1  0
 16 18  1  0
 17 23  1  0
 18 17  1  0
 19 18  2  0
 20 21  1  0
 20 14  2  0
 21 16  2  0
 22 15  1  0
 23 13  1  0
 25 27  2  0
 26 25  1  0
 28 26  1  0
 29 38  2  0
 29 34  1  0
 30 26  1  0
 30 34  1  0
 31 30  1  0
 32 33  1  0
 32 31  1  0
 33 29  1  0
 34 35  2  0
 35 36  1  0
 37 36  2  0
 38 37  1  0
 39 13  1  0
 39 44  1  0
 39 40  1  0
 40 43  1  1
 40 41  1  0
 42 40  1  0
 44 47  1  0
 45 49  1  0
 45 44  1  0
 46 45  2  0
 49 48  1  0
 51 49  1  0
 51 52  1  0
 51 50  1  0
 53  4  1  0
 54 53  1  0
 55 61  1  0
 56 61  1  0
 57 58  1  0
 57 56  1  0
 59 58  1  0
 59 72  1  0
 59 60  1  0
 61 60  1  0
 62 55  2  0
 63 65  1  0
 63 68  1  0
 65 67  1  0
 65 66  1  0
 66 53  1  0
 66 64  1  0
 68 55  1  0
 68 64  1  0
 69 70  2  0
 70 89  1  0
 71 70  1  0
 71 74  1  0
 72 73  1  0
 72 69  1  0
 73 71  2  0
 74 75  1  0
 75 76  2  0
 77 80  1  0
 77 76  1  0
 78 77  2  0
 79 78  1  0
 79 74  2  0
 80 81  1  0
 81 86  2  0
 81 82  1  0
 82 83  2  0
 83 84  1  0
 84 88  1  0
 85 84  2  0
 86 85  1  0
 87 86  1  0
 89 90  1  0
 90 93  1  0
 90 92  1  0
 91 89  2  0
 94 69  1  0
 94 95  1  0
 96 94  1  0
M  ISO  4  11 101  12 101  55 100  68 100
M  END
>  <TORSDO>  (77) 
F 19

>  <SCORE>  (77) 
-12.258

>  <name>  (77) 
76

>  <ligand_id>  (77) 
76

>  <original_smiles>  (77) 
[H]c1c([H])c([H])c2c(c1[H])C([H])([H])C([H])([H])C([H])([H])C2([H])N([H])C(=O)C1([H])N(C(=O)C([H])(N([H])C(=O)C([H])(N([H])C([H])([H])[H])C([H])([H])[H])C(C([H])([H])[H])(C([H])([H])[H])C([H])([H])[H])C([H])([H])c2c([H])c(OC([H])([H])C([H])(c3c(C([H])([H])[H])c(C([H])([H])[H])c(N([H])C4([H])C([H])([H])N(C(=O)N5C([H])([H])C([H])([H])C([H])([H])C([H])(n6nc(-c7c([H])c([H])c(Oc8c([H])c([H])c(F)c([H])c8F)c([H])c7[H])c(C(=O)N([H])[H])c6N([H])[H])C5([H])[H])C([H])([H])C4([H])C([H])([H])[H])n3C([H])([H])[H])C([H])([H])[H])c([H])c([H])c2C1([H])[H]

>  <smiles>  (77) 
[H]c1c([H])c([H])c2c(c1[H])C([H])([H])C([H])([H])C([H])([H])C2([H])N([H])C(=O)C1([H])N(C(=O)C([H])(N([H])C(=O)C([H])(N([H])C([H])([H])[H])C([H])([H])[H])C(C([H])([H])[H])(C([H])([H])[H])C([H])([H])[H])C([H])([H])c2c([H])c(OC([H])([H])C([H])(c3c(C([H])([H])[H])c(C([H])([H])[H])c(N([H])C4([H])C([H])([H])N(C(=O)N5C([H])([H])C([H])([H])C([H])([H])C([H])(n6nc(-c7c([H])c([H])c(Oc8c([H])c([H])c(F)c([H])c8F)c([H])c7[H])c(C(=O)N([H])[H])c6N([H])[H])C5([H])[H])C([H])([H])C4([H])C([H])([H])[H])n3C([H])([H])[H])C([H])([H])[H])c([H])c([H])c2C1([H])[H]

$$$$
77:0:0
     RDKit          3D

 97107  0  0  1  0  0  0  0  0999 V2000
  -28.9300  -21.0690   20.2290 C   0  0  0  0  0  0  0  0  0  0  0  0
  -28.7760  -19.6090   20.2120 C   0  0  0  0  0  0  0  0  0  0  0  0
  -30.2630  -21.3050   20.3180 C   0  0  0  0  0  0  0  0  0  0  0  0
  -30.0130  -18.9750   20.3560 C   0  0  0  0  0  0  0  0  0  0  0  0
  -27.9060  -22.2700   20.2040 C   0  0  0  0  0  2  0  0  0  0  0  0
  -29.9200  -23.6910   19.4250 C   0  0  0  0  0  2  0  0  0  0  0  0
  -30.8280  -22.7370   20.2870 C   0  0  1  0  0  0  0  0  0  0  0  0
  -28.3720  -23.7260   19.6570 C   0  0  1  0  0  0  0  0  0  0  0  0
  -27.4600  -18.8890   20.0880 C   0  0  0  0  0  1  0  0  0  0  0  0
  -30.8950  -23.3470   21.7020 C   0  0  0  0  0  1  0  0  0  0  0  0
  -32.2250  -22.8320   19.6320 C   0  0  0  0  0  1  0  0  0  0  0  0
  -27.6970  -23.9040   18.2790 C   0  0  0  0  0  1  0  0  0  0  0  0
  -30.9220  -20.0600   20.5040 N   0  0  0  0  0  0  0  0  0  0  0  0
  -32.8690  -19.0800   21.8740 C   0  0  0  0  0  2  0  0  0  0  0  0
  -32.9390  -20.5710   21.9370 C   0  0  0  0  0  2  0  0  0  0  0  0
  -32.3730  -19.9070   20.6930 C   0  0  0  0  0  3  0  0  0  0  0  0
  -30.5930  -17.4790   20.4680 C   0  0  0  0  0  2  0  0  0  0  0  0
  -30.6200  -14.9340   20.0350 C   0  0  0  0  0  0  0  0  0  0  0  0
  -30.3850  -12.6300   19.0870 C   0  0  0  0  0  2  0  0  0  0  0  0
  -29.4030  -12.6390   17.8960 C   0  0  0  0  0  2  0  0  0  0  0  0
  -27.9580  -12.4470   18.3930 C   0  0  0  0  0  2  0  0  0  0  0  0
  -27.6110  -13.3680   19.5950 C   0  0  0  0  0  3  0  0  0  0  0  0
  -28.7150  -13.3600   20.6720 C   0  0  0  0  0  2  0  0  0  0  0  0
  -29.9710  -13.7170   20.0050 N   0  0  0  0  0  0  0  0  0  0  0  0
  -31.8060  -14.9770   19.7000 O   0  0  0  0  0  0  0  0  0  0  0  0
  -29.9210  -16.1200   20.2550 N   0  0  0  0  0  0  0  0  0  0  0  0
  -28.9330  -16.0560   20.4440 H   0  0  0  0  0  0  0  0  0  0  0  0
  -25.2720  -13.9340   20.4720 C   0  0  0  0  0  0  0  0  0  0  0  0
  -24.2240  -13.1490   20.8700 C   0  0  0  0  0  0  0  0  0  0  0  0
  -24.6810  -11.8000   20.7710 C   0  0  0  0  0  0  0  0  0  0  0  0
  -26.2980  -13.0620   20.1510 N   0  0  0  0  0  0  0  0  0  0  0  0
  -25.9550  -11.7710   20.3950 N   0  0  0  0  0  0  0  0  0  0  0  0
  -23.9600  -10.5330   20.9540 C   0  0  0  0  0  0  0  0  0  0  0  0
  -24.3950   -9.5620   21.8840 C   0  0  0  0  0  3  0  0  0  0  0  0
  -23.6730   -8.3610   22.0560 C   0  0  0  0  0  3  0  0  0  0  0  0
  -22.5020   -8.1230   21.2970 C   0  0  0  0  0  0  0  0  0  0  0  0
  -22.0870   -9.0810   20.3570 C   0  0  0  0  0  3  0  0  0  0  0  0
  -22.8090  -10.2730   20.1830 C   0  0  0  0  0  3  0  0  0  0  0  0
  -21.7500   -6.9750   21.3800 O   0  0  0  0  0  0  0  0  0  0  0  0
  -21.6400   -6.2700   22.5510 C   0  0  0  0  0  0  0  0  0  0  0  0
  -21.0800   -6.8400   23.7150 C   0  0  0  0  0  3  0  0  0  0  0  0
  -20.9220   -6.0580   24.8760 C   0  0  0  0  0  3  0  0  0  0  0  0
  -21.3130   -4.7060   24.8740 C   0  0  0  0  0  0  0  0  0  0  0  0
  -21.8660   -4.1350   23.7150 C   0  0  0  0  0  3  0  0  0  0  0  0
  -22.0260   -4.9130   22.5560 C   0  0  0  0  0  0  0  0  0  0  0  0
  -22.5400   -4.3520   21.4350 F   0  0  0  0  0  0  0  0  0  0  0  0
  -21.1550   -3.9520   25.9880 F   0  0  0  0  0  0  0  0  0  0  0  0
  -22.8440  -13.6200   21.2260 C   0  0  0  0  0  0  0  0  0  0  0  0
  -22.1570  -12.8970   22.1020 N   0  0  0  0  0  0  0  0  0  0  0  0
  -22.3860  -14.6630   20.7630 O   0  0  0  0  0  0  0  0  0  0  0  0
  -22.5410  -12.0510   22.4980 H   0  0  0  0  0  0  0  0  0  0  0  0
  -21.2330  -13.1930   22.3840 H   0  0  0  0  0  0  0  0  0  0  0  0
  -25.4300  -15.3100   20.3290 N   0  0  0  0  0  0  0  0  0  0  0  0
  -24.6670  -15.9580   20.4920 H   0  0  0  0  0  0  0  0  0  0  0  0
  -26.2490  -15.7530   19.9370 H   0  0  0  0  0  0  0  0  0  0  0  0
  -27.8810  -25.0370   20.5110 C   0  0  0  0  0  2  0  0  0  0  0  0
  -28.0970  -26.4780   20.1010 O   0  0  0  0  0  0  0  0  0  0  0  0
  -24.5040  -31.9910   23.2380 C   0  0  0  0  0  0  0  0  0  0  0  0
  -27.0070  -27.3810   20.1170 C   0  0  0  0  0  0  0  0  0  0  0  0
  -23.2580  -30.6120   21.6140 C   0  0  0  0  0  3  0  0  0  0  0  0
  -24.6680  -29.0510   20.1520 C   0  0  0  0  0  0  0  0  0  0  0  0
  -25.7990  -30.8990   21.3840 C   0  0  0  0  0  2  0  0  0  0  0  0
  -25.8560  -29.5180   20.7290 C   0  0  0  0  0  0  0  0  0  0  0  0
  -27.0320  -28.6980   20.6950 C   0  0  0  0  0  3  0  0  0  0  0  0
  -25.7980  -26.9820   19.5140 C   0  0  0  0  0  3  0  0  0  0  0  0
  -24.6450  -27.7920   19.5310 C   0  0  0  0  0  3  0  0  0  0  0  0
  -23.4420  -29.9410   20.2270 C   0  0  0  0  0  2  0  0  0  0  0  0
  -24.5410  -31.1850   22.1340 N   0  0  0  0  0  0  0  0  0  0  0  0
  -23.4320  -32.2730   23.7940 O   0  0  0  0  0  0  0  0  0  0  0  0
  -22.6030  -29.5970   22.5820 C   0  0  0  0  0  0  0  0  0  0  0  0
  -21.2780  -29.4090   22.4610 N   0  0  0  0  0  0  0  0  0  0  0  0
  -23.2880  -28.9810   23.4030 O   0  0  0  0  0  0  0  0  0  0  0  0
  -20.7830  -29.9590   21.7730 H   0  0  0  0  0  0  0  0  0  0  0  0
  -17.9140  -28.1770   22.9720 C   0  0  0  0  0  0  0  0  0  0  0  0
  -20.4690  -28.4680   23.2390 C   0  0  0  0  0  3  0  0  0  0  0  0
  -20.5870  -27.0340   22.6760 C   0  0  0  0  0  2  0  0  0  0  0  0
  -19.4890  -26.6910   21.6630 C   0  0  0  0  0  2  0  0  0  0  0  0
  -18.1050  -26.8240   22.3060 C   0  0  0  0  0  2  0  0  0  0  0  0
  -19.0230  -28.9550   23.3960 C   0  0  0  0  0  0  0  0  0  0  0  0
  -18.7890  -30.2190   23.9790 C   0  0  0  0  0  3  0  0  0  0  0  0
  -17.4780  -30.7060   24.1420 C   0  0  0  0  0  3  0  0  0  0  0  0
  -16.3830  -29.9250   23.7340 C   0  0  0  0  0  3  0  0  0  0  0  0
  -16.6010  -28.6630   23.1540 C   0  0  0  0  0  3  0  0  0  0  0  0
  -25.8020  -32.6110   23.8400 C   0  0  0  0  0  3  0  0  0  0  0  0
  -26.3260  -31.8400   25.1130 C   0  0  1  0  0  0  0  0  0  0  0  0
  -25.2370  -31.5960   26.1850 C   0  0  0  0  0  1  0  0  0  0  0  0
  -26.9130  -30.4640   24.7180 C   0  0  0  0  0  1  0  0  0  0  0  0
  -27.4770  -32.6360   25.7710 C   0  0  0  0  0  1  0  0  0  0  0  0
  -25.5120  -34.0150   24.1710 N   0  0  0  0  0  0  0  0  0  0  0  0
  -25.8510  -35.0630   23.4090 C   0  0  0  0  0  0  0  0  0  0  0  0
  -26.5080  -34.9500   22.3700 O   0  0  0  0  0  0  0  0  0  0  0  0
  -24.9310  -34.1780   24.9790 H   0  0  0  0  0  0  0  0  0  0  0  0
  -24.1610  -36.8930   23.0540 C   0  0  0  0  0  1  0  0  0  0  0  0
  -25.3890  -36.4580   23.8710 C   0  0  0  0  0  3  0  0  0  0  0  0
  -27.5260  -37.3070   24.7340 C   0  0  0  0  0  1  0  0  0  0  0  0
  -26.4430  -37.4920   23.7710 N   0  0  0  0  0  0  0  0  0  0  0  0
  -26.0520  -38.4200   23.9080 H   0  0  0  0  0  0  0  0  0  0  0  0
  1  3  2  0
  2  1  1  0
  2  4  2  0
  3 13  1  0
  4 17  1  0
  4 13  1  0
  5  1  1  0
  6  8  1  0
  6  7  1  0
  7  3  1  0
  7 10  1  1
  8 12  1  6
  8  5  1  0
  8 56  1  0
  9  2  1  0
 11  7  1  0
 13 16  1  0
 14 15  1  0
 16 14  1  0
 16 15  1  0
 18 26  1  0
 19 24  1  0
 20 21  1  0
 20 19  1  0
 22 21  1  0
 22 31  1  0
 22 23  1  0
 24 18  1  0
 24 23  1  0
 25 18  2  0
 26 27  1  0
 26 17  1  0
 28 29  2  0
 29 48  1  0
 30 29  1  0
 30 33  1  0
 31 32  1  0
 31 28  1  0
 32 30  2  0
 33 34  1  0
 34 35  2  0
 36 39  1  0
 36 35  1  0
 37 36  2  0
 38 37  1  0
 38 33  2  0
 39 40  1  0
 40 45  2  0
 40 41  1  0
 41 42  2  0
 43 42  1  0
 43 47  1  0
 44 43  2  0
 45 44  1  0
 46 45  1  0
 48 49  1  0
 49 52  1  0
 49 51  1  0
 50 48  2  0
 53 28  1  0
 53 54  1  0
 55 53  1  0
 57 59  1  0
 57 56  1  0
 58 69  2  0
 59 64  1  0
 60 68  1  0
 60 70  1  0
 61 67  1  0
 61 63  1  0
 62 68  1  0
 63 62  1  0
 64 63  2  0
 65 66  1  0
 65 59  2  0
 66 61  2  0
 67 60  1  0
 68 58  1  0
 70 72  2  0
 71 70  1  0
 73 71  1  0
 74 83  2  0
 74 79  1  0
 75 71  1  0
 75 79  1  0
 76 75  1  0
 77 78  1  0
 77 76  1  0
 78 74  1  0
 79 80  2  0
 80 81  1  0
 82 81  2  0
 83 82  1  0
 84 58  1  0
 84 89  1  0
 84 85  1  0
 85 88  1  1
 85 86  1  0
 87 85  1  0
 89 92  1  0
 90 94  1  0
 90 89  1  0
 91 90  2  0
 94 93  1  0
 96 94  1  0
 96 97  1  0
 96 95  1  0
M  ISO  4  18 100  26 100  56 101  57 101
M  END
>  <TORSDO>  (78) 
F 19

>  <SCORE>  (78) 
-14.386

>  <name>  (78) 
77

>  <ligand_id>  (78) 
77

>  <original_smiles>  (78) 
[H]c1c([H])c([H])c2c(c1[H])C([H])([H])C([H])([H])C([H])([H])C2([H])N([H])C(=O)C1([H])N(C(=O)C([H])(N([H])C(=O)C([H])(N([H])C([H])([H])[H])C([H])([H])[H])C(C([H])([H])[H])(C([H])([H])[H])C([H])([H])[H])C([H])([H])c2c([H])c(OC([H])([H])C3(C([H])([H])[H])C([H])([H])c4c(C([H])([H])[H])c(C([H])([H])N([H])C(=O)N5C([H])([H])C([H])([H])C([H])([H])C([H])(n6nc(-c7c([H])c([H])c(Oc8c([H])c([H])c(F)c([H])c8F)c([H])c7[H])c(C(=O)N([H])[H])c6N([H])[H])C5([H])[H])n(C5([H])C([H])([H])C5([H])[H])c4C(C([H])([H])[H])(C([H])([H])[H])C3([H])[H])c([H])c([H])c2C1([H])[H]

>  <smiles>  (78) 
[H]c1c([H])c([H])c2c(c1[H])C([H])([H])C([H])([H])C([H])([H])C2([H])N([H])C(=O)C1([H])N(C(=O)C([H])(N([H])C(=O)C([H])(N([H])C([H])([H])[H])C([H])([H])[H])C(C([H])([H])[H])(C([H])([H])[H])C([H])([H])[H])C([H])([H])c2c([H])c(OC([H])([H])C3(C([H])([H])[H])C([H])([H])c4c(C([H])([H])[H])c(C([H])([H])N([H])C(=O)N5C([H])([H])C([H])([H])C([H])([H])C([H])(n6nc(-c7c([H])c([H])c(Oc8c([H])c([H])c(F)c([H])c8F)c([H])c7[H])c(C(=O)N([H])[H])c6N([H])[H])C5([H])[H])n(C5([H])C([H])([H])C5([H])[H])c4C(C([H])([H])[H])(C([H])([H])[H])C3([H])[H])c([H])c([H])c2C1([H])[H]

$$$$
78:0:0
     RDKit          3D

 91100  0  0  1  0  0  0  0  0999 V2000
  -30.7460  -15.5310   19.9550 C   0  0  0  0  0  0  0  0  0  0  0  0
  -30.7680  -13.0010   19.2570 C   0  0  0  0  0  2  0  0  0  0  0  0
  -29.8680  -12.6430   18.0450 C   0  0  0  0  0  2  0  0  0  0  0  0
  -28.4140  -12.3930   18.4850 C   0  0  0  0  0  2  0  0  0  0  0  0
  -27.9460  -13.4390   19.5250 C   0  0  0  0  0  3  0  0  0  0  0  0
  -28.9830  -13.6510   20.6470 C   0  0  0  0  0  2  0  0  0  0  0  0
  -30.1860  -14.2020   19.9850 N   0  0  0  0  0  0  0  0  0  0  0  0
  -31.9590  -15.4660   19.6930 O   0  0  0  0  0  0  0  0  0  0  0  0
  -27.6760  -20.9070   20.8400 C   0  0  0  0  0  3  0  0  0  0  0  0
  -28.4460  -19.7690   20.4480 C   0  0  0  0  0  0  0  0  0  0  0  0
  -29.5480  -19.9100   19.6030 C   0  0  0  0  0  0  0  0  0  0  0  0
  -27.8650  -22.2590   20.3940 C   0  0  0  0  0  0  0  0  0  0  0  0
  -29.7050  -21.3830   19.1100 C   0  0  0  0  0  0  0  0  0  0  0  0
  -28.8730  -22.6530   19.4670 C   0  0  0  0  0  0  0  0  0  0  0  0
  -27.9800  -18.3480   20.8220 C   0  0  0  0  0  2  0  0  0  0  0  0
  -29.0080  -17.1590   20.9890 C   0  0  0  0  0  2  0  0  0  0  0  0
  -30.3580  -18.3870   19.3220 C   0  0  0  0  0  3  0  0  0  0  0  0
  -26.8550  -23.2910   20.8700 C   0  0  0  0  0  1  0  0  0  0  0  0
  -30.8000  -21.6060   18.0880 C   0  0  0  0  0  1  0  0  0  0  0  0
  -30.5010  -18.1860   17.8050 C   0  0  0  0  0  1  0  0  0  0  0  0
  -30.0230  -16.8750   19.9430 N   0  0  0  0  0  0  0  0  0  0  0  0
  -25.6100  -14.0870   20.3000 C   0  0  0  0  0  0  0  0  0  0  0  0
  -24.5190  -13.3530   20.6670 C   0  0  0  0  0  0  0  0  0  0  0  0
  -24.9260  -11.9830   20.6110 C   0  0  0  0  0  0  0  0  0  0  0  0
  -26.6110  -13.1700   20.0360 N   0  0  0  0  0  0  0  0  0  0  0  0
  -26.2140  -11.8960   20.2910 N   0  0  0  0  0  0  0  0  0  0  0  0
  -24.1470  -10.7520   20.7880 C   0  0  0  0  0  0  0  0  0  0  0  0
  -24.5650   -9.7330   21.6750 C   0  0  0  0  0  3  0  0  0  0  0  0
  -23.7870   -8.5670   21.8440 C   0  0  0  0  0  3  0  0  0  0  0  0
  -22.5760   -8.4120   21.1260 C   0  0  0  0  0  0  0  0  0  0  0  0
  -22.1750   -9.4170   20.2300 C   0  0  0  0  0  3  0  0  0  0  0  0
  -22.9530  -10.5750   20.0600 C   0  0  0  0  0  3  0  0  0  0  0  0
  -21.7700   -7.3010   21.2050 O   0  0  0  0  0  0  0  0  0  0  0  0
  -21.7640   -6.4940   22.3120 C   0  0  0  0  0  0  0  0  0  0  0  0
  -21.4670   -6.9960   23.5980 C   0  0  0  0  0  3  0  0  0  0  0  0
  -21.4030   -6.1190   24.7000 C   0  0  0  0  0  3  0  0  0  0  0  0
  -21.6250   -4.7400   24.5150 C   0  0  0  0  0  0  0  0  0  0  0  0
  -21.9120   -4.2370   23.2340 C   0  0  0  0  0  3  0  0  0  0  0  0
  -21.9800   -5.1110   22.1360 C   0  0  0  0  0  0  0  0  0  0  0  0
  -22.2380   -4.6190   20.9010 F   0  0  0  0  0  0  0  0  0  0  0  0
  -21.5560   -3.8960   25.5720 F   0  0  0  0  0  0  0  0  0  0  0  0
  -23.1460  -13.8850   20.9500 C   0  0  0  0  0  0  0  0  0  0  0  0
  -22.4020  -13.2200   21.8260 N   0  0  0  0  0  0  0  0  0  0  0  0
  -22.7450  -14.9270   20.4340 O   0  0  0  0  0  0  0  0  0  0  0  0
  -22.7420  -12.3770   22.2640 H   0  0  0  0  0  0  0  0  0  0  0  0
  -21.4810  -13.5600   22.0610 H   0  0  0  0  0  0  0  0  0  0  0  0
  -25.8300  -15.4510   20.1340 N   0  0  0  0  0  0  0  0  0  0  0  0
  -25.0850  -16.1340   20.2110 H   0  0  0  0  0  0  0  0  0  0  0  0
  -26.6780  -15.8350   19.7380 H   0  0  0  0  0  0  0  0  0  0  0  0
  -28.7450  -24.2870   18.7550 C   0  0  0  0  0  2  0  0  0  0  0  0
  -28.7010  -25.8810   19.2730 O   0  0  0  0  0  0  0  0  0  0  0  0
  -24.7130  -31.3570   22.6850 C   0  0  0  0  0  0  0  0  0  0  0  0
  -27.6360  -26.9490   19.2330 C   0  0  0  0  0  0  0  0  0  0  0  0
  -23.6320  -30.0280   20.9180 C   0  0  0  0  0  3  0  0  0  0  0  0
  -25.2000  -28.6780   19.3520 C   0  0  0  0  0  0  0  0  0  0  0  0
  -26.1750  -30.4370   20.8070 C   0  0  0  0  0  2  0  0  0  0  0  0
  -26.3540  -29.1000   20.0230 C   0  0  0  0  0  0  0  0  0  0  0  0
  -27.5570  -28.2550   19.9470 C   0  0  0  0  0  3  0  0  0  0  0  0
  -26.4440  -26.7060   18.5120 C   0  0  0  0  0  3  0  0  0  0  0  0
  -25.2730  -27.5080   18.5760 C   0  0  0  0  0  3  0  0  0  0  0  0
  -23.9120  -29.4950   19.4840 C   0  0  0  0  0  2  0  0  0  0  0  0
  -24.8610  -30.6330   21.5260 N   0  0  0  0  0  0  0  0  0  0  0  0
  -23.6050  -31.5120   23.2220 O   0  0  0  0  0  0  0  0  0  0  0  0
  -23.0180  -28.8970   21.7860 C   0  0  0  0  0  0  0  0  0  0  0  0
  -21.6910  -28.6900   21.6960 N   0  0  0  0  0  0  0  0  0  0  0  0
  -23.7430  -28.2090   22.5110 O   0  0  0  0  0  0  0  0  0  0  0  0
  -21.1580  -29.3030   21.0940 H   0  0  0  0  0  0  0  0  0  0  0  0
  -18.3830  -27.2830   22.2030 C   0  0  0  0  0  0  0  0  0  0  0  0
  -20.9410  -27.6300   22.3790 C   0  0  0  0  0  3  0  0  0  0  0  0
  -21.0670  -26.2850   21.6260 C   0  0  0  0  0  2  0  0  0  0  0  0
  -19.9270  -26.0400   20.6310 C   0  0  0  0  0  2  0  0  0  0  0  0
  -18.5750  -26.0420   21.3490 C   0  0  0  0  0  2  0  0  0  0  0  0
  -19.4910  -28.0380   22.6730 C   0  0  0  0  0  0  0  0  0  0  0  0
  -19.2520  -29.2020   23.4360 C   0  0  0  0  0  3  0  0  0  0  0  0
  -17.9400  -29.6130   23.7290 C   0  0  0  0  0  3  0  0  0  0  0  0
  -16.8460  -28.8550   23.2750 C   0  0  0  0  0  3  0  0  0  0  0  0
  -17.0700  -27.6920   22.5180 C   0  0  0  0  0  3  0  0  0  0  0  0
  -25.9280  -32.0380   23.3850 C   0  0  0  0  0  3  0  0  0  0  0  0
  -25.4950  -33.3650   23.8610 N   0  0  0  0  0  0  0  0  0  0  0  0
  -25.7940  -34.5300   23.2730 C   0  0  0  0  0  0  0  0  0  0  0  0
  -26.5250  -34.6050   22.2830 O   0  0  0  0  0  0  0  0  0  0  0  0
  -24.8610  -33.3760   24.6460 H   0  0  0  0  0  0  0  0  0  0  0  0
  -23.9630  -36.2450   23.0550 C   0  0  0  0  0  1  0  0  0  0  0  0
  -25.1890  -35.8140   23.8760 C   0  0  0  0  0  3  0  0  0  0  0  0
  -27.2110  -36.7260   24.9310 C   0  0  0  0  0  1  0  0  0  0  0  0
  -26.1470  -36.9390   23.9540 N   0  0  0  0  0  0  0  0  0  0  0  0
  -25.6680  -37.8050   24.1910 H   0  0  0  0  0  0  0  0  0  0  0  0
  -26.5000  -31.1960   24.5930 C   0  0  1  0  0  0  0  0  0  0  0  0
  -25.4300  -30.7870   25.6340 C   0  0  0  0  0  1  0  0  0  0  0  0
  -27.1820  -29.9050   24.0910 C   0  0  0  0  0  1  0  0  0  0  0  0
  -27.5900  -32.0150   25.3240 C   0  0  0  0  0  1  0  0  0  0  0  0
  1  7  1  0
  2  7  1  0
  3  4  1  0
  3  2  1  0
  5  4  1  0
  5 25  1  0
  5  6  1  0
  7  6  1  0
  8  1  2  0
 10 15  1  0
 10  9  1  0
 11 10  2  0
 12  9  2  0
 12 18  1  0
 13 14  2  0
 13 11  1  0
 14 12  1  0
 15 16  1  0
 17 20  1  0
 17 11  1  0
 17 21  1  0
 19 13  1  0
 21  1  1  0
 21 16  1  0
 22 23  2  0
 23 42  1  0
 24 23  1  0
 24 27  1  0
 25 26  1  0
 25 22  1  0
 26 24  2  0
 27 28  1  0
 28 29  2  0
 30 33  1  0
 30 29  1  0
 31 30  2  0
 32 31  1  0
 32 27  2  0
 33 34  1  0
 34 35  1  0
 35 36  2  0
 37 36  1  0
 37 41  1  0
 38 37  2  0
 39 34  2  0
 39 38  1  0
 40 39  1  0
 42 43  1  0
 43 46  1  0
 43 45  1  0
 44 42  2  0
 47 48  1  0
 47 22  1  0
 49 47  1  0
 50 51  1  0
 50 14  1  0
 52 63  2  0
 53 51  1  0
 53 58  1  0
 54 62  1  0
 54 64  1  0
 55 61  1  0
 55 57  1  0
 56 62  1  0
 57 56  1  0
 58 57  2  0
 59 60  1  0
 59 53  2  0
 60 55  2  0
 61 54  1  0
 62 52  1  0
 64 66  2  0
 65 64  1  0
 67 65  1  0
 68 77  2  0
 68 73  1  0
 69 65  1  0
 69 73  1  0
 70 69  1  0
 71 72  1  0
 71 70  1  0
 72 68  1  0
 73 74  2  0
 74 75  1  0
 76 75  2  0
 77 76  1  0
 78 52  1  0
 78 79  1  0
 78 88  1  0
 79 82  1  0
 80 79  1  0
 80 84  1  0
 81 80  2  0
 84 83  1  0
 84 86  1  0
 86 87  1  0
 86 85  1  0
 88 91  1  1
 88 89  1  0
 90 88  1  0
M  ISO  4   1 100  21 100  50 101  51 101
M  END
>  <TORSDO>  (79) 
F 16

>  <SCORE>  (79) 
-13.883

>  <name>  (79) 
78

>  <ligand_id>  (79) 
78

>  <original_smiles>  (79) 
[H]c1c([H])c([H])c2c(c1[H])C([H])([H])C([H])([H])C([H])([H])C2([H])N([H])C(=O)C1([H])N(C(=O)C([H])(N([H])C(=O)C([H])(N([H])C([H])([H])[H])C([H])([H])[H])C(C([H])([H])[H])(C([H])([H])[H])C([H])([H])[H])C([H])([H])c2c([H])c(OC([H])([H])c3c(C([H])([H])[H])c([H])c4c(c3C([H])([H])[H])C([H])(C([H])([H])[H])N(C(=O)N3C([H])([H])C([H])([H])C([H])([H])C([H])(n5nc(-c6c([H])c([H])c(Oc7c([H])c([H])c(F)c([H])c7F)c([H])c6[H])c(C(=O)N([H])[H])c5N([H])[H])C3([H])[H])C([H])([H])C4([H])[H])c([H])c([H])c2C1([H])[H]

>  <smiles>  (79) 
[H]c1c([H])c([H])c2c(c1[H])C([H])([H])C([H])([H])C([H])([H])C2([H])N([H])C(=O)C1([H])N(C(=O)C([H])(N([H])C(=O)C([H])(N([H])C([H])([H])[H])C([H])([H])[H])C(C([H])([H])[H])(C([H])([H])[H])C([H])([H])[H])C([H])([H])c2c([H])c(OC([H])([H])c3c(C([H])([H])[H])c([H])c4c(c3C([H])([H])[H])C([H])(C([H])([H])[H])N(C(=O)N3C([H])([H])C([H])([H])C([H])([H])C([H])(n5nc(-c6c([H])c([H])c(Oc7c([H])c([H])c(F)c([H])c7F)c([H])c6[H])c(C(=O)N([H])[H])c5N([H])[H])C3([H])[H])C([H])([H])C4([H])[H])c([H])c([H])c2C1([H])[H]

$$$$
80:0:0
     RDKit          3D

100110  0  0  1  0  0  0  0  0999 V2000
  -27.8440  -21.6730   19.6230 C   0  0  0  0  0  2  0  0  0  0  0  0
  -28.1050  -20.2180   20.1000 C   0  0  0  0  0  2  0  0  0  0  0  0
  -30.1100  -21.1760   19.2840 C   0  0  0  0  0  3  0  0  0  0  0  0
  -29.1910  -22.4230   19.8110 C   0  0  2  0  0  0  0  0  0  0  0  0
  -30.5380  -21.3110   17.8080 C   0  0  0  0  0  1  0  0  0  0  0  0
  -29.3730  -19.8540   19.4440 N   0  0  1  0  0  4  0  0  0  0  0  0
  -29.0760  -19.6610   18.4980 H   0  0  0  0  0  0  0  0  0  0  0  0
  -30.2890  -21.9100   22.1160 C   0  0  0  0  0  3  0  0  0  0  0  0
  -30.5090  -22.2000   23.4760 C   0  0  0  0  0  3  0  0  0  0  0  0
  -28.8180  -23.8250   21.9530 C   0  0  0  0  0  3  0  0  0  0  0  0
  -29.4180  -22.7030   21.3250 C   0  0  0  0  0  0  0  0  0  0  0  0
  -29.8790  -23.3020   24.0850 C   0  0  0  0  0  0  0  0  0  0  0  0
  -29.0330  -24.1260   23.3120 C   0  0  0  0  0  0  0  0  0  0  0  0
  -30.1380  -23.6040   25.5520 C   0  0  0  0  0  1  0  0  0  0  0  0
  -28.3630  -25.3480   23.9170 C   0  0  0  0  0  1  0  0  0  0  0  0
  -30.5740  -24.6240   19.4180 C   0  0  0  0  0  1  0  0  0  0  0  0
  -29.2820  -23.8740   19.0360 C   0  0  0  0  0  3  0  0  0  0  0  0
  -28.0710  -24.9370   19.1630 C   0  0  0  0  0  2  0  0  0  0  0  0
  -28.2650  -26.4150   18.9730 O   0  0  0  0  0  0  0  0  0  0  0  0
  -24.5760  -31.2960   22.8820 C   0  0  0  0  0  0  0  0  0  0  0  0
  -27.1370  -27.2590   19.1030 C   0  0  0  0  0  0  0  0  0  0  0  0
  -23.3310  -30.1120   21.1110 C   0  0  0  0  0  3  0  0  0  0  0  0
  -24.7460  -28.8200   19.4180 C   0  0  0  0  0  0  0  0  0  0  0  0
  -25.8570  -30.5130   20.8720 C   0  0  0  0  0  2  0  0  0  0  0  0
  -25.9350  -29.2420   20.0300 C   0  0  0  0  0  0  0  0  0  0  0  0
  -27.1320  -28.4770   19.8600 C   0  0  0  0  0  3  0  0  0  0  0  0
  -25.9210  -26.9060   18.4740 C   0  0  0  0  0  3  0  0  0  0  0  0
  -24.7450  -27.6610   18.6300 C   0  0  0  0  0  3  0  0  0  0  0  0
  -23.4970  -29.6480   19.6410 C   0  0  0  0  0  2  0  0  0  0  0  0
  -24.6090  -30.6510   21.6790 N   0  0  0  0  0  0  0  0  0  0  0  0
  -23.5110  -31.4680   23.4930 O   0  0  0  0  0  0  0  0  0  0  0  0
  -22.7300  -28.9530   21.9440 C   0  0  0  0  0  0  0  0  0  0  0  0
  -21.3950  -28.8040   21.9020 N   0  0  0  0  0  0  0  0  0  0  0  0
  -23.4630  -28.1970   22.5880 O   0  0  0  0  0  0  0  0  0  0  0  0
  -20.8620  -29.4680   21.3590 H   0  0  0  0  0  0  0  0  0  0  0  0
  -18.0470  -27.5700   22.5020 C   0  0  0  0  0  0  0  0  0  0  0  0
  -20.6250  -27.7560   22.5740 C   0  0  0  0  0  3  0  0  0  0  0  0
  -20.6390  -26.4440   21.7540 C   0  0  0  0  0  2  0  0  0  0  0  0
  -19.4410  -26.3110   20.8080 C   0  0  0  0  0  2  0  0  0  0  0  0
  -18.1270  -26.3570   21.5910 C   0  0  0  0  0  2  0  0  0  0  0  0
  -19.2190  -28.2360   22.9500 C   0  0  0  0  0  0  0  0  0  0  0  0
  -19.0850  -29.3780   23.7680 C   0  0  0  0  0  3  0  0  0  0  0  0
  -17.8130  -29.8540   24.1400 C   0  0  0  0  0  3  0  0  0  0  0  0
  -16.6580  -29.1830   23.7050 C   0  0  0  0  0  3  0  0  0  0  0  0
  -16.7750  -28.0420   22.8920 C   0  0  0  0  0  3  0  0  0  0  0  0
  -25.8720  -31.8660   23.5370 C   0  0  0  0  0  3  0  0  0  0  0  0
  -26.3880  -30.9980   24.7510 C   0  0  1  0  0  0  0  0  0  0  0  0
  -25.3030  -30.7100   25.8140 C   0  0  0  0  0  1  0  0  0  0  0  0
  -26.9370  -29.6390   24.2590 C   0  0  0  0  0  1  0  0  0  0  0  0
  -27.5610  -31.7240   25.4500 C   0  0  0  0  0  1  0  0  0  0  0  0
  -25.5830  -33.2400   23.9700 N   0  0  0  0  0  0  0  0  0  0  0  0
  -25.9540  -34.3440   23.3070 C   0  0  0  0  0  0  0  0  0  0  0  0
  -26.6470  -34.3080   22.2870 O   0  0  0  0  0  0  0  0  0  0  0  0
  -24.9720  -33.3430   24.7680 H   0  0  0  0  0  0  0  0  0  0  0  0
  -24.3110  -36.2280   23.0230 C   0  0  0  0  0  1  0  0  0  0  0  0
  -25.4840  -35.7010   23.8650 C   0  0  0  0  0  3  0  0  0  0  0  0
  -27.5890  -36.4250   24.9050 C   0  0  0  0  0  1  0  0  0  0  0  0
  -26.5550  -36.7220   23.9150 N   0  0  0  0  0  0  0  0  0  0  0  0
  -26.1690  -37.6380   24.1240 H   0  0  0  0  0  0  0  0  0  0  0  0
  -30.1140  -18.5520   19.8300 C   0  0  0  0  0  2  0  0  0  0  0  0
  -30.8690  -14.8870   20.1450 C   0  0  0  0  0  0  0  0  0  0  0  0
  -30.7390  -12.4700   19.5400 C   0  0  0  0  0  2  0  0  0  0  0  0
  -29.8360  -12.3010   18.2980 C   0  0  0  0  0  2  0  0  0  0  0  0
  -28.3540  -12.1970   18.7050 C   0  0  0  0  0  2  0  0  0  0  0  0
  -27.9270  -13.2680   19.7450 C   0  0  0  0  0  3  0  0  0  0  0  0
  -28.9550  -13.4050   20.8890 C   0  0  0  0  0  2  0  0  0  0  0  0
  -30.2570  -13.6620   20.2690 N   0  0  0  0  0  0  0  0  0  0  0  0
  -32.0970  -14.9430   20.0330 O   0  0  0  0  0  0  0  0  0  0  0  0
  -29.1430  -16.8810   17.9910 C   0  0  0  0  0  2  0  0  0  0  0  0
  -30.4510  -16.1040   18.0120 C   0  0  0  0  0  2  0  0  0  0  0  0
  -29.3930  -17.1600   19.4740 C   0  0  0  0  0  3  0  0  0  0  0  0
  -30.1400  -15.8140   19.4160 N   0  0  0  0  0  0  0  0  0  0  0  0
  -25.5830  -13.9570   20.5240 C   0  0  0  0  0  0  0  0  0  0  0  0
  -24.4780  -13.2260   20.8630 C   0  0  0  0  0  0  0  0  0  0  0  0
  -24.8670  -11.8540   20.7690 C   0  0  0  0  0  0  0  0  0  0  0  0
  -26.5760  -13.0330   20.2410 N   0  0  0  0  0  0  0  0  0  0  0  0
  -26.1530  -11.7600   20.4550 N   0  0  0  0  0  0  0  0  0  0  0  0
  -24.0740  -10.6250   20.9030 C   0  0  0  0  0  0  0  0  0  0  0  0
  -24.4530   -9.5940   21.7910 C   0  0  0  0  0  3  0  0  0  0  0  0
  -23.6630   -8.4310   21.9160 C   0  0  0  0  0  3  0  0  0  0  0  0
  -22.4790   -8.2910   21.1530 C   0  0  0  0  0  0  0  0  0  0  0  0
  -22.1190   -9.3110   20.2550 C   0  0  0  0  0  3  0  0  0  0  0  0
  -22.9090  -10.4650   20.1270 C   0  0  0  0  0  3  0  0  0  0  0  0
  -21.6640   -7.1860   21.1920 O   0  0  0  0  0  0  0  0  0  0  0  0
  -21.5540   -6.4120   22.3180 C   0  0  0  0  0  0  0  0  0  0  0  0
  -21.1240   -6.9480   23.5510 C   0  0  0  0  0  3  0  0  0  0  0  0
  -20.9570   -6.1030   24.6670 C   0  0  0  0  0  3  0  0  0  0  0  0
  -21.2080   -4.7240   24.5510 C   0  0  0  0  0  0  0  0  0  0  0  0
  -21.6300   -4.1870   23.3220 C   0  0  0  0  0  3  0  0  0  0  0  0
  -21.8000   -5.0280   22.2080 C   0  0  0  0  0  0  0  0  0  0  0  0
  -22.1850   -4.5020   21.0210 F   0  0  0  0  0  0  0  0  0  0  0  0
  -21.0410   -3.9100   25.6190 F   0  0  0  0  0  0  0  0  0  0  0  0
  -23.1090  -13.7640   21.1620 C   0  0  0  0  0  0  0  0  0  0  0  0
  -22.3620  -13.0910   22.0300 N   0  0  0  0  0  0  0  0  0  0  0  0
  -22.7110  -14.8160   20.6610 O   0  0  0  0  0  0  0  0  0  0  0  0
  -22.6980  -12.2380   22.4550 H   0  0  0  0  0  0  0  0  0  0  0  0
  -21.4440  -13.4320   22.2750 H   0  0  0  0  0  0  0  0  0  0  0  0
  -25.8240  -15.3220   20.4040 N   0  0  0  0  0  0  0  0  0  0  0  0
  -25.0990  -16.0180   20.5450 H   0  0  0  0  0  0  0  0  0  0  0  0
  -26.6960  -15.7160   20.0770 H   0  0  0  0  0  0  0  0  0  0  0  0
  1  4  1  0
  1  2  1  0
  3  5  1  0
  3  6  1  0
  3  4  1  0
  4 17  1  6
  4 11  1  0
  6 60  1  0
  6  2  1  0
  6  7  1  6
  8  9  1  0
  9 12  2  0
 10 13  2  0
 11 10  1  0
 11  8  2  0
 12 14  1  0
 13 15  1  0
 13 12  1  0
 17 18  1  0
 17 16  1  0
 19 21  1  0
 19 18  1  0
 20 31  2  0
 21 26  1  0
 22 30  1  0
 22 32  1  0
 23 29  1  0
 23 25  1  0
 24 30  1  0
 25 24  1  0
 26 25  2  0
 27 28  1  0
 27 21  2  0
 28 23  2  0
 29 22  1  0
 30 20  1  0
 32 34  2  0
 33 32  1  0
 35 33  1  0
 36 45  2  0
 36 41  1  0
 37 33  1  0
 37 41  1  0
 38 37  1  0
 39 40  1  0
 39 38  1  0
 40 36  1  0
 41 42  2  0
 42 43  1  0
 44 43  2  0
 45 44  1  0
 46 20  1  0
 46 51  1  0
 46 47  1  0
 47 50  1  1
 47 48  1  0
 49 47  1  0
 51 54  1  0
 52 56  1  0
 52 51  1  0
 53 52  2  0
 56 55  1  0
 56 58  1  0
 58 59  1  0
 58 57  1  0
 61 67  1  0
 62 67  1  0
 63 64  1  0
 63 62  1  0
 65 64  1  0
 65 76  1  0
 65 66  1  0
 67 66  1  0
 68 61  2  0
 69 70  1  0
 69 71  1  0
 70 72  1  0
 71 60  1  0
 72 71  1  0
 72 61  1  0
 73 74  2  0
 74 93  1  0
 75 74  1  0
 75 78  1  0
 76 77  1  0
 76 73  1  0
 77 75  2  0
 78 79  1  0
 79 80  2  0
 81 84  1  0
 81 80  1  0
 82 81  2  0
 83 82  1  0
 83 78  2  0
 84 85  1  0
 85 86  1  0
 86 87  2  0
 88 87  1  0
 88 92  1  0
 89 88  2  0
 90 85  2  0
 90 89  1  0
 91 90  1  0
 93 94  1  0
 94 97  1  0
 94 96  1  0
 95 93  2  0
 98 73  1  0
 98 99  1  0
100 98  1  0
M  ISO  4  18 101  19 101  61 100  72 100
M  END
>  <TORSDO>  (80) 
F 20

>  <SCORE>  (80) 
-8.541

>  <name>  (80) 
80

>  <ligand_id>  (80) 
80

>  <original_smiles>  (80) 
[H]c1c([H])c([H])c2c(c1[H])C([H])([H])C([H])([H])C([H])([H])C2([H])N([H])C(=O)C1([H])N(C(=O)C([H])(N([H])C(=O)C([H])(N([H])C([H])([H])[H])C([H])([H])[H])C(C([H])([H])[H])(C([H])([H])[H])C([H])([H])[H])C([H])([H])c2c([H])c(OC([H])([H])C([H])(C([H])([H])[H])C3(c4c([H])c([H])c(C([H])([H])[H])c(C([H])([H])[H])c4[H])C([H])([H])C([H])([H])[N+]([H])(C([H])([H])C4([H])N(C(=O)N5C([H])([H])C([H])([H])C([H])([H])C([H])(n6nc(-c7c([H])c([H])c(Oc8c([H])c([H])c(F)c([H])c8F)c([H])c7[H])c(C(=O)N([H])[H])c6N([H])[H])C5([H])[H])C([H])([H])C4([H])[H])C3([H])C([H])([H])[H])c([H])c([H])c2C1([H])[H]

>  <smiles>  (80) 
[H]c1c([H])c([H])c2c(c1[H])C([H])([H])C([H])([H])C([H])([H])C2([H])N([H])C(=O)C1([H])N(C(=O)C([H])(N([H])C(=O)C([H])(N([H])C([H])([H])[H])C([H])([H])[H])C(C([H])([H])[H])(C([H])([H])[H])C([H])([H])[H])C([H])([H])c2c([H])c(OC([H])([H])C([H])(C([H])([H])[H])C3(c4c([H])c([H])c(C([H])([H])[H])c(C([H])([H])[H])c4[H])C([H])([H])C([H])([H])[N+]([H])(C([H])([H])C4([H])N(C(=O)N5C([H])([H])C([H])([H])C([H])([H])C([H])(n6nc(-c7c([H])c([H])c(Oc8c([H])c([H])c(F)c([H])c8F)c([H])c7[H])c(C(=O)N([H])[H])c6N([H])[H])C5([H])[H])C([H])([H])C4([H])[H])C3([H])C([H])([H])[H])c([H])c([H])c2C1([H])[H]

$$$$
81:0:0
     RDKit          3D

 96105  0  0  1  0  0  0  0  0999 V2000
  -28.5120  -23.4140   18.5860 C   0  0  0  0  0  2  0  0  0  0  0  0
  -29.8160  -21.6080   19.5430 C   0  0  0  0  0  3  0  0  0  0  0  0
  -29.2850  -24.0180   19.7840 C   0  0  0  0  0  3  0  0  0  0  0  0
  -29.5430  -22.7110   20.6260 C   0  0  0  0  0  3  0  0  0  0  0  0
  -30.6850  -22.8410   21.6450 C   0  0  0  0  0  1  0  0  0  0  0  0
  -28.9060  -21.9830   18.4410 N   0  0  0  0  0  4  0  0  0  0  0  0
  -29.3550  -21.8390   17.5510 H   0  0  0  0  0  0  0  0  0  0  0  0
  -28.0730  -21.4180   18.4600 H   0  0  0  0  0  0  0  0  0  0  0  0
  -30.8750  -14.7020   20.0010 C   0  0  0  0  0  0  0  0  0  0  0  0
  -30.6160  -12.4640   18.9500 C   0  0  0  0  0  2  0  0  0  0  0  0
  -29.6080  -12.5960   17.7870 C   0  0  0  0  0  2  0  0  0  0  0  0
  -28.1590  -12.4370   18.2920 C   0  0  0  0  0  2  0  0  0  0  0  0
  -27.8670  -13.2970   19.5490 C   0  0  0  0  0  3  0  0  0  0  0  0
  -28.9830  -13.1340   20.6070 C   0  0  0  0  0  2  0  0  0  0  0  0
  -30.2620  -13.4760   19.9650 N   0  0  0  0  0  0  0  0  0  0  0  0
  -32.0100  -14.8580   19.5350 O   0  0  0  0  0  0  0  0  0  0  0  0
  -29.0140  -17.9070   20.7530 C   0  0  0  0  0  3  0  0  0  0  0  0
  -29.8830  -20.0470   19.8690 C   0  0  0  0  0  0  0  0  0  0  0  0
  -28.8810  -19.3150   20.5740 C   0  0  0  0  0  0  0  0  0  0  0  0
  -30.9730  -19.2340   19.4140 C   0  0  0  0  0  0  0  0  0  0  0  0
  -30.1170  -17.1770   20.2480 C   0  0  0  0  0  0  0  0  0  0  0  0
  -27.6370  -19.9800   21.1360 C   0  0  0  0  0  1  0  0  0  0  0  0
  -32.1420  -19.8180   18.6380 C   0  0  0  0  0  1  0  0  0  0  0  0
  -31.0750  -17.8800   19.5960 N   0  0  0  0  0  0  0  0  0  0  0  0
  -30.0950  -15.7330   20.4520 N   0  0  0  0  0  0  0  0  0  0  0  0
  -29.2500  -15.4010   20.8840 H   0  0  0  0  0  0  0  0  0  0  0  0
  -25.5270  -13.9010   20.4250 C   0  0  0  0  0  0  0  0  0  0  0  0
  -24.4740  -13.1280   20.8320 C   0  0  0  0  0  0  0  0  0  0  0  0
  -24.9150  -11.7730   20.7300 C   0  0  0  0  0  0  0  0  0  0  0  0
  -26.5450  -13.0170   20.1010 N   0  0  0  0  0  0  0  0  0  0  0  0
  -26.1840  -11.7300   20.3440 N   0  0  0  0  0  0  0  0  0  0  0  0
  -24.1850  -10.5130   20.9200 C   0  0  0  0  0  0  0  0  0  0  0  0
  -24.6040   -9.5510   21.8660 C   0  0  0  0  0  3  0  0  0  0  0  0
  -23.8740   -8.3570   22.0440 C   0  0  0  0  0  3  0  0  0  0  0  0
  -22.7110   -8.1150   21.2740 C   0  0  0  0  0  0  0  0  0  0  0  0
  -22.3100   -9.0640   20.3180 C   0  0  0  0  0  3  0  0  0  0  0  0
  -23.0410  -10.2510   20.1380 C   0  0  0  0  0  3  0  0  0  0  0  0
  -21.9530   -6.9720   21.3610 O   0  0  0  0  0  0  0  0  0  0  0  0
  -21.7990   -6.2980   22.5460 C   0  0  0  0  0  0  0  0  0  0  0  0
  -21.2430   -6.9160   23.6870 C   0  0  0  0  0  3  0  0  0  0  0  0
  -21.0390   -6.1670   24.8650 C   0  0  0  0  0  3  0  0  0  0  0  0
  -21.3810   -4.8030   24.9000 C   0  0  0  0  0  0  0  0  0  0  0  0
  -21.9290   -4.1840   23.7620 C   0  0  0  0  0  3  0  0  0  0  0  0
  -22.1350   -4.9290   22.5890 C   0  0  0  0  0  0  0  0  0  0  0  0
  -22.6450   -4.3240   21.4880 F   0  0  0  0  0  0  0  0  0  0  0  0
  -21.1780   -4.0810   26.0260 F   0  0  0  0  0  0  0  0  0  0  0  0
  -23.1010  -13.6110   21.2030 C   0  0  0  0  0  0  0  0  0  0  0  0
  -22.4180  -12.8950   22.0880 N   0  0  0  0  0  0  0  0  0  0  0  0
  -22.6450  -14.6560   20.7410 O   0  0  0  0  0  0  0  0  0  0  0  0
  -22.8010  -12.0470   22.4820 H   0  0  0  0  0  0  0  0  0  0  0  0
  -21.4990  -13.1960   22.3790 H   0  0  0  0  0  0  0  0  0  0  0  0
  -25.6980  -15.2760   20.2830 N   0  0  0  0  0  0  0  0  0  0  0  0
  -24.9370  -15.9250   20.4440 H   0  0  0  0  0  0  0  0  0  0  0  0
  -26.5100  -15.7140   19.8700 H   0  0  0  0  0  0  0  0  0  0  0  0
  -28.5750  -25.2530   20.4920 C   0  0  0  0  0  2  0  0  0  0  0  0
  -28.6620  -26.5940   19.8820 O   0  0  0  0  0  0  0  0  0  0  0  0
  -24.6470  -31.6950   23.0280 C   0  0  0  0  0  0  0  0  0  0  0  0
  -27.4990  -27.3690   19.8870 C   0  0  0  0  0  0  0  0  0  0  0  0
  -23.5210  -30.2820   21.3430 C   0  0  0  0  0  3  0  0  0  0  0  0
  -25.0550  -28.8380   19.8940 C   0  0  0  0  0  0  0  0  0  0  0  0
  -26.0400  -30.7350   21.1860 C   0  0  0  0  0  2  0  0  0  0  0  0
  -26.1920  -29.3790   20.5090 C   0  0  0  0  0  0  0  0  0  0  0  0
  -27.4190  -28.6560   20.4950 C   0  0  0  0  0  3  0  0  0  0  0  0
  -26.3420  -26.8720   19.2510 C   0  0  0  0  0  3  0  0  0  0  0  0
  -25.1300  -27.5890   19.2560 C   0  0  0  0  0  3  0  0  0  0  0  0
  -23.7760  -29.6480   19.9490 C   0  0  0  0  0  2  0  0  0  0  0  0
  -24.7530  -30.9200   21.9090 N   0  0  0  0  0  0  0  0  0  0  0  0
  -23.5470  -31.9070   23.5610 O   0  0  0  0  0  0  0  0  0  0  0  0
  -22.9020  -29.2110   22.2720 C   0  0  0  0  0  0  0  0  0  0  0  0
  -21.5810  -28.9990   22.1510 N   0  0  0  0  0  0  0  0  0  0  0  0
  -23.6080  -28.5770   23.0600 O   0  0  0  0  0  0  0  0  0  0  0  0
  -21.0680  -29.5670   21.4910 H   0  0  0  0  0  0  0  0  0  0  0  0
  -18.2370  -27.7220   22.6730 C   0  0  0  0  0  0  0  0  0  0  0  0
  -20.7970  -28.0120   22.8940 C   0  0  0  0  0  3  0  0  0  0  0  0
  -20.9080  -26.6110   22.2480 C   0  0  0  0  0  2  0  0  0  0  0  0
  -19.7870  -26.3200   21.2450 C   0  0  0  0  0  2  0  0  0  0  0  0
  -18.4190  -26.4100   21.9280 C   0  0  0  0  0  2  0  0  0  0  0  0
  -19.3540  -28.4810   23.1120 C   0  0  0  0  0  0  0  0  0  0  0  0
  -19.1300  -29.7110   23.7690 C   0  0  0  0  0  3  0  0  0  0  0  0
  -17.8210  -30.1810   23.9900 C   0  0  0  0  0  3  0  0  0  0  0  0
  -16.7200  -29.4180   23.5660 C   0  0  0  0  0  3  0  0  0  0  0  0
  -16.9290  -28.1900   22.9130 C   0  0  0  0  0  3  0  0  0  0  0  0
  -25.8940  -32.3700   23.6770 C   0  0  0  0  0  3  0  0  0  0  0  0
  -25.5120  -33.7360   24.0590 N   0  0  0  0  0  0  0  0  0  0  0  0
  -25.7880  -34.8330   23.3390 C   0  0  0  0  0  0  0  0  0  0  0  0
  -26.4600  -34.8020   22.3050 O   0  0  0  0  0  0  0  0  0  0  0  0
  -24.9120  -33.8300   24.8640 H   0  0  0  0  0  0  0  0  0  0  0  0
  -23.9700  -36.5460   23.0490 C   0  0  0  0  0  1  0  0  0  0  0  0
  -25.2300  -36.1750   23.8480 C   0  0  0  0  0  3  0  0  0  0  0  0
  -27.3100  -37.1420   24.7230 C   0  0  0  0  0  1  0  0  0  0  0  0
  -26.2070  -37.2850   23.7780 N   0  0  0  0  0  0  0  0  0  0  0  0
  -25.7520  -38.1760   23.9530 H   0  0  0  0  0  0  0  0  0  0  0  0
  -26.4490  -31.5780   24.9260 C   0  0  1  0  0  0  0  0  0  0  0  0
  -25.3700  -31.2470   25.9820 C   0  0  0  0  0  1  0  0  0  0  0  0
  -27.1020  -30.2480   24.4840 C   0  0  0  0  0  1  0  0  0  0  0  0
  -27.5590  -32.4060   25.6190 C   0  0  0  0  0  1  0  0  0  0  0  0
  1  3  1  0
  2 18  1  0
  2  4  1  0
  3 55  1  0
  3  4  1  0
  4  5  1  0
  6  8  1  0
  6  1  1  0
  6  2  1  0
  7  6  1  0
  9 25  1  0
 10 15  1  0
 11 12  1  0
 11 10  1  0
 13 12  1  0
 13 30  1  0
 13 14  1  0
 15  9  1  0
 15 14  1  0
 16  9  2  0
 18 19  2  0
 19 17  1  0
 19 22  1  0
 20 24  2  0
 20 18  1  0
 21 25  1  0
 21 17  2  0
 23 20  1  0
 24 21  1  0
 25 26  1  0
 27 28  2  0
 28 47  1  0
 29 28  1  0
 29 32  1  0
 30 31  1  0
 30 27  1  0
 31 29  2  0
 32 33  1  0
 33 34  2  0
 35 38  1  0
 35 34  1  0
 36 35  2  0
 37 36  1  0
 37 32  2  0
 38 39  1  0
 39 44  2  0
 39 40  1  0
 40 41  2  0
 41 42  1  0
 42 46  1  0
 43 42  2  0
 44 43  1  0
 45 44  1  0
 47 48  1  0
 48 51  1  0
 48 50  1  0
 49 47  2  0
 52 27  1  0
 52 53  1  0
 54 52  1  0
 56 58  1  0
 56 55  1  0
 57 68  2  0
 58 63  1  0
 59 67  1  0
 59 69  1  0
 60 66  1  0
 60 62  1  0
 61 67  1  0
 62 61  1  0
 63 62  2  0
 64 65  1  0
 64 58  2  0
 65 60  2  0
 66 59  1  0
 67 57  1  0
 69 71  2  0
 70 69  1  0
 72 70  1  0
 73 82  2  0
 73 78  1  0
 74 70  1  0
 74 78  1  0
 75 74  1  0
 76 77  1  0
 76 75  1  0
 77 73  1  0
 78 79  2  0
 79 80  1  0
 81 80  2  0
 82 81  1  0
 83 57  1  0
 83 84  1  0
 83 93  1  0
 84 87  1  0
 85 89  1  0
 85 84  1  0
 86 85  2  0
 89 88  1  0
 91 89  1  0
 91 92  1  0
 91 90  1  0
 93 96  1  1
 93 94  1  0
 95 93  1  0
M  ISO  4   9 100  25 100  55 101  56 101
M  END
>  <TORSDO>  (81) 
F 17

>  <SCORE>  (81) 
-13.387

>  <name>  (81) 
81

>  <ligand_id>  (81) 
81

>  <original_smiles>  (81) 
[H]c1c([H])c([H])c2c(c1[H])C([H])([H])C([H])([H])C([H])([H])C2([H])N([H])C(=O)C1([H])N(C(=O)C([H])(N([H])C(=O)C([H])(N([H])C([H])([H])[H])C([H])([H])[H])C(C([H])([H])[H])(C([H])([H])[H])C([H])([H])[H])C([H])([H])c2c([H])c(OC([H])([H])C3([H])C([H])(C([H])([H])[H])C([H])(c4c(C([H])([H])[H])nc(N([H])C(=O)N5C([H])([H])C([H])([H])C([H])([H])C([H])(n6nc(-c7c([H])c([H])c(Oc8c([H])c([H])c(F)c([H])c8F)c([H])c7[H])c(C(=O)N([H])[H])c6N([H])[H])C5([H])[H])c([H])c4C([H])([H])[H])[N+]([H])([H])C3([H])[H])c([H])c([H])c2C1([H])[H]

>  <smiles>  (81) 
[H]c1c([H])c([H])c2c(c1[H])C([H])([H])C([H])([H])C([H])([H])C2([H])N([H])C(=O)C1([H])N(C(=O)C([H])(N([H])C(=O)C([H])(N([H])C([H])([H])[H])C([H])([H])[H])C(C([H])([H])[H])(C([H])([H])[H])C([H])([H])[H])C([H])([H])c2c([H])c(OC([H])([H])C3([H])C([H])(C([H])([H])[H])C([H])(c4c(C([H])([H])[H])nc(N([H])C(=O)N5C([H])([H])C([H])([H])C([H])([H])C([H])(n6nc(-c7c([H])c([H])c(Oc8c([H])c([H])c(F)c([H])c8F)c([H])c7[H])c(C(=O)N([H])[H])c6N([H])[H])C5([H])[H])c([H])c4C([H])([H])[H])[N+]([H])([H])C3([H])[H])c([H])c([H])c2C1([H])[H]

$$$$
82:0:0
     RDKit          3D

 96105  0  0  1  0  0  0  0  0999 V2000
  -30.6260  -14.8340   20.4650 C   0  0  0  0  0  0  0  0  0  0  0  0
  -30.4180  -12.5620   19.4520 C   0  0  0  0  0  2  0  0  0  0  0  0
  -29.5180  -12.6650   18.2010 C   0  0  0  0  0  2  0  0  0  0  0  0
  -28.0360  -12.4940   18.5890 C   0  0  0  0  0  2  0  0  0  0  0  0
  -27.6380  -13.3580   19.8150 C   0  0  0  0  0  3  0  0  0  0  0  0
  -28.6700  -13.2630   20.9620 C   0  0  0  0  0  2  0  0  0  0  0  0
  -29.9830  -13.6130   20.4060 N   0  0  0  0  0  0  0  0  0  0  0  0
  -31.8150  -14.8920   20.1310 O   0  0  0  0  0  0  0  0  0  0  0  0
  -29.8280  -18.6270   20.6460 C   0  0  0  0  0  3  0  0  0  0  0  0
  -29.9650  -19.8390   19.8410 C   0  0  0  0  0  0  0  0  0  0  0  0
  -30.2670  -19.6110   18.5000 C   0  0  0  0  0  0  0  0  0  0  0  0
  -30.3220  -18.3180   17.9570 C   0  0  0  0  0  0  0  0  0  0  0  0
  -29.9820  -17.2930   20.0500 C   0  0  0  0  0  0  0  0  0  0  0  0
  -30.7260  -20.8470   17.7860 C   0  0  0  0  0  2  0  0  0  0  0  0
  -30.1800  -21.4000   20.1660 C   0  0  0  0  0  3  0  0  0  0  0  0
  -31.0360  -21.8360   18.9220 C   0  0  0  0  0  3  0  0  0  0  0  0
  -30.6670  -18.0780   16.5040 C   0  0  0  0  0  1  0  0  0  0  0  0
  -32.5430  -21.8840   19.2360 C   0  0  0  0  0  1  0  0  0  0  0  0
  -30.1660  -17.2180   18.7110 N   0  0  0  0  0  0  0  0  0  0  0  0
  -29.9180  -15.9960   20.7630 N   0  0  0  0  0  0  0  0  0  0  0  0
  -29.0800  -15.8620   21.3070 H   0  0  0  0  0  0  0  0  0  0  0  0
  -25.2290  -13.9270   20.4790 C   0  0  0  0  0  0  0  0  0  0  0  0
  -24.1630  -13.1470   20.8310 C   0  0  0  0  0  0  0  0  0  0  0  0
  -24.6390  -11.8000   20.8240 C   0  0  0  0  0  0  0  0  0  0  0  0
  -26.2860  -13.0570   20.2760 N   0  0  0  0  0  0  0  0  0  0  0  0
  -25.9360  -11.7720   20.5460 N   0  0  0  0  0  0  0  0  0  0  0  0
  -23.9190  -10.5320   21.0090 C   0  0  0  0  0  0  0  0  0  0  0  0
  -24.3350   -9.5790   21.9660 C   0  0  0  0  0  3  0  0  0  0  0  0
  -23.6130   -8.3770   22.1390 C   0  0  0  0  0  3  0  0  0  0  0  0
  -22.4630   -8.1200   21.3550 C   0  0  0  0  0  0  0  0  0  0  0  0
  -22.0670   -9.0620   20.3900 C   0  0  0  0  0  3  0  0  0  0  0  0
  -22.7870  -10.2560   20.2150 C   0  0  0  0  0  3  0  0  0  0  0  0
  -21.7160   -6.9690   21.4360 O   0  0  0  0  0  0  0  0  0  0  0  0
  -21.6340   -6.2440   22.5980 C   0  0  0  0  0  0  0  0  0  0  0  0
  -21.1440   -6.8090   23.7950 C   0  0  0  0  0  3  0  0  0  0  0  0
  -21.0120   -6.0110   24.9490 C   0  0  0  0  0  3  0  0  0  0  0  0
  -21.3570   -4.6460   24.9050 C   0  0  0  0  0  0  0  0  0  0  0  0
  -21.8380   -4.0800   23.7100 C   0  0  0  0  0  3  0  0  0  0  0  0
  -21.9740   -4.8770   22.5600 C   0  0  0  0  0  0  0  0  0  0  0  0
  -22.4180   -4.3210   21.4080 F   0  0  0  0  0  0  0  0  0  0  0  0
  -21.2220   -3.8770   26.0100 F   0  0  0  0  0  0  0  0  0  0  0  0
  -22.7550  -13.6130   21.0630 C   0  0  0  0  0  0  0  0  0  0  0  0
  -22.0140  -12.9210   21.9210 N   0  0  0  0  0  0  0  0  0  0  0  0
  -22.3190  -14.6270   20.5190 O   0  0  0  0  0  0  0  0  0  0  0  0
  -22.3790  -12.1000   22.3820 H   0  0  0  0  0  0  0  0  0  0  0  0
  -21.0670  -13.2130   22.1170 H   0  0  0  0  0  0  0  0  0  0  0  0
  -25.3860  -15.2980   20.2910 N   0  0  0  0  0  0  0  0  0  0  0  0
  -24.6110  -15.9470   20.3680 H   0  0  0  0  0  0  0  0  0  0  0  0
  -26.2330  -15.7350   19.9470 H   0  0  0  0  0  0  0  0  0  0  0  0
  -29.0150  -22.4010   20.2970 N   0  0  0  0  0  4  0  0  0  0  0  0
  -28.5020  -22.1270   21.1190 H   0  0  0  0  0  0  0  0  0  0  0  0
  -28.4050  -22.2380   19.5130 H   0  0  0  0  0  0  0  0  0  0  0  0
  -29.3180  -23.9290   20.3780 C   0  0  0  0  0  2  0  0  0  0  0  0
  -27.5260  -24.8300   21.9610 C   0  0  0  0  0  1  0  0  0  0  0  0
  -28.1090  -24.9840   20.5470 C   0  0  0  0  0  3  0  0  0  0  0  0
  -28.3640  -26.4600   20.3360 O   0  0  0  0  0  0  0  0  0  0  0  0
  -24.6180  -31.9760   23.2370 C   0  0  0  0  0  0  0  0  0  0  0  0
  -27.2670  -27.3560   20.2550 C   0  0  0  0  0  0  0  0  0  0  0  0
  -23.4400  -30.5620   21.5950 C   0  0  0  0  0  3  0  0  0  0  0  0
  -24.9090  -29.0000   20.2030 C   0  0  0  0  0  0  0  0  0  0  0  0
  -25.9850  -30.8690   21.4480 C   0  0  0  0  0  2  0  0  0  0  0  0
  -26.0750  -29.4820   20.8120 C   0  0  0  0  0  0  0  0  0  0  0  0
  -27.2580  -28.6740   20.8260 C   0  0  0  0  0  3  0  0  0  0  0  0
  -26.0790  -26.9500   19.6020 C   0  0  0  0  0  3  0  0  0  0  0  0
  -24.9170  -27.7410   19.5880 C   0  0  0  0  0  3  0  0  0  0  0  0
  -23.6730  -29.8760   20.2260 C   0  0  0  0  0  2  0  0  0  0  0  0
  -24.7000  -31.1540   22.1500 N   0  0  0  0  0  0  0  0  0  0  0  0
  -23.5250  -32.2590   23.7520 O   0  0  0  0  0  0  0  0  0  0  0  0
  -22.7640  -29.5530   22.5560 C   0  0  0  0  0  0  0  0  0  0  0  0
  -21.4370  -29.3810   22.4180 N   0  0  0  0  0  0  0  0  0  0  0  0
  -23.4310  -28.9280   23.3850 O   0  0  0  0  0  0  0  0  0  0  0  0
  -20.9600  -29.9360   21.7220 H   0  0  0  0  0  0  0  0  0  0  0  0
  -18.0400  -28.2460   22.9290 C   0  0  0  0  0  0  0  0  0  0  0  0
  -20.6050  -28.4520   23.1850 C   0  0  0  0  0  3  0  0  0  0  0  0
  -20.6760  -27.0240   22.5950 C   0  0  0  0  0  2  0  0  0  0  0  0
  -19.5620  -26.7320   21.5860 C   0  0  0  0  0  2  0  0  0  0  0  0
  -18.1870  -26.8980   22.2400 C   0  0  0  0  0  2  0  0  0  0  0  0
  -19.1760  -28.9820   23.3560 C   0  0  0  0  0  0  0  0  0  0  0  0
  -18.9870  -30.2420   23.9620 C   0  0  0  0  0  3  0  0  0  0  0  0
  -17.6920  -30.7670   24.1440 C   0  0  0  0  0  3  0  0  0  0  0  0
  -16.5710  -30.0250   23.7340 C   0  0  0  0  0  3  0  0  0  0  0  0
  -16.7450  -28.7670   23.1310 C   0  0  0  0  0  3  0  0  0  0  0  0
  -25.8900  -32.6160   23.8700 C   0  0  0  0  0  3  0  0  0  0  0  0
  -25.5660  -34.0120   24.2000 N   0  0  0  0  0  0  0  0  0  0  0  0
  -25.8880  -35.0700   23.4450 C   0  0  0  0  0  0  0  0  0  0  0  0
  -26.5560  -34.9740   22.4110 O   0  0  0  0  0  0  0  0  0  0  0  0
  -24.9710  -34.1600   25.0020 H   0  0  0  0  0  0  0  0  0  0  0  0
  -24.1400  -36.8480   23.1020 C   0  0  0  0  0  1  0  0  0  0  0  0
  -25.3890  -36.4520   23.9060 C   0  0  0  0  0  3  0  0  0  0  0  0
  -27.5150  -37.3600   24.7320 C   0  0  0  0  0  1  0  0  0  0  0  0
  -26.4090  -37.5170   23.7920 N   0  0  0  0  0  0  0  0  0  0  0  0
  -25.9930  -38.4320   23.9420 H   0  0  0  0  0  0  0  0  0  0  0  0
  -26.3990  -31.8480   25.1520 C   0  0  1  0  0  0  0  0  0  0  0  0
  -25.2920  -31.5850   26.1990 C   0  0  0  0  0  1  0  0  0  0  0  0
  -27.0140  -30.4850   24.7620 C   0  0  0  0  0  1  0  0  0  0  0  0
  -27.5220  -32.6610   25.8380 C   0  0  0  0  0  1  0  0  0  0  0  0
  1 20  1  0
  2  7  1  0
  3  4  1  0
  3  2  1  0
  5  4  1  0
  5 25  1  0
  5  6  1  0
  7  1  1  0
  7  6  1  0
  8  1  2  0
 10 15  1  0
 10  9  2  0
 11 10  1  0
 12 11  2  0
 12 19  1  0
 13  9  1  0
 13 20  1  0
 14 11  1  0
 14 16  1  0
 15 50  1  0
 16 18  1  0
 16 15  1  0
 17 12  1  0
 19 13  2  0
 20 21  1  0
 22 23  2  0
 23 42  1  0
 24 23  1  0
 24 27  1  0
 25 22  1  0
 25 26  1  0
 26 24  2  0
 27 28  1  0
 28 29  2  0
 30 33  1  0
 30 29  1  0
 31 30  2  0
 32 31  1  0
 32 27  2  0
 33 34  1  0
 34 35  1  0
 35 36  2  0
 37 36  1  0
 37 41  1  0
 38 37  2  0
 39 34  2  0
 39 38  1  0
 40 39  1  0
 42 43  1  0
 43 46  1  0
 43 45  1  0
 44 42  2  0
 47 48  1  0
 47 22  1  0
 49 47  1  0
 50 53  1  0
 50 51  1  0
 52 50  1  0
 53 55  1  0
 55 54  1  0
 56 55  1  0
 57 68  2  0
 58 56  1  0
 58 63  1  0
 59 67  1  0
 59 69  1  0
 60 66  1  0
 60 62  1  0
 61 67  1  0
 62 63  2  0
 62 61  1  0
 64 58  2  0
 65 64  1  0
 65 60  2  0
 66 59  1  0
 67 57  1  0
 69 71  2  0
 70 69  1  0
 72 70  1  0
 73 82  2  0
 73 78  1  0
 74 70  1  0
 74 78  1  0
 75 74  1  0
 76 77  1  0
 76 75  1  0
 77 73  1  0
 78 79  2  0
 79 80  1  0
 81 80  2  0
 82 81  1  0
 83 57  1  0
 83 84  1  0
 83 93  1  0
 84 87  1  0
 85 89  1  0
 85 84  1  0
 86 85  2  0
 89 88  1  0
 91 89  1  0
 91 92  1  0
 91 90  1  0
 93 96  1  1
 93 94  1  0
 95 93  1  0
M  ISO  4   1 100  20 100  55 101  56 101
M  END
>  <TORSDO>  (82) 
F 18

>  <SCORE>  (82) 
-14.693

>  <name>  (82) 
82

>  <ligand_id>  (82) 
82

>  <original_smiles>  (82) 
[H]c1c([H])c([H])c2c(c1[H])C([H])([H])C([H])([H])C([H])([H])C2([H])N([H])C(=O)C1([H])N(C(=O)C([H])(N([H])C(=O)C([H])(N([H])C([H])([H])[H])C([H])([H])[H])C(C([H])([H])[H])(C([H])([H])[H])C([H])([H])[H])C([H])([H])c2c([H])c(OC([H])(C([H])([H])[H])C([H])([H])[N+]([H])([H])C3([H])c4c([H])c(N([H])C(=O)N5C([H])([H])C([H])([H])C([H])([H])C([H])(n6nc(-c7c([H])c([H])c(Oc8c([H])c([H])c(F)c([H])c8F)c([H])c7[H])c(C(=O)N([H])[H])c6N([H])[H])C5([H])[H])nc(C([H])([H])[H])c4C([H])([H])C3([H])C([H])([H])[H])c([H])c([H])c2C1([H])[H]

>  <smiles>  (82) 
[H]c1c([H])c([H])c2c(c1[H])C([H])([H])C([H])([H])C([H])([H])C2([H])N([H])C(=O)C1([H])N(C(=O)C([H])(N([H])C(=O)C([H])(N([H])C([H])([H])[H])C([H])([H])[H])C(C([H])([H])[H])(C([H])([H])[H])C([H])([H])[H])C([H])([H])c2c([H])c(OC([H])(C([H])([H])[H])C([H])([H])[N+]([H])([H])C3([H])c4c([H])c(N([H])C(=O)N5C([H])([H])C([H])([H])C([H])([H])C([H])(n6nc(-c7c([H])c([H])c(Oc8c([H])c([H])c(F)c([H])c8F)c([H])c7[H])c(C(=O)N([H])[H])c6N([H])[H])C5([H])[H])nc(C([H])([H])[H])c4C([H])([H])C3([H])C([H])([H])[H])c([H])c([H])c2C1([H])[H]

$$$$
83:0:0
     RDKit          3D

 98107  0  0  1  0  0  0  0  0999 V2000
  -28.0980  -20.8100   19.6940 C   0  0  0  0  0  0  0  0  0  0  0  0
  -30.3540  -21.5820   19.7330 C   0  0  0  0  0  0  0  0  0  0  0  0
  -27.6340  -22.1870   19.6910 C   0  0  0  0  0  0  0  0  0  0  0  0
  -29.8860  -22.9720   19.8360 C   0  0  0  0  0  0  0  0  0  0  0  0
  -29.4800  -20.4330   19.6280 C   0  0  0  0  0  0  0  0  0  0  0  0
  -28.4980  -23.3450   19.7920 C   0  0  0  0  0  0  0  0  0  0  0  0
  -27.0660  -19.6820   19.7430 C   0  0  0  0  0  1  0  0  0  0  0  0
  -31.8560  -21.3330   19.7190 C   0  0  0  0  0  1  0  0  0  0  0  0
  -26.1250  -22.4140   19.5120 C   0  0  0  0  0  1  0  0  0  0  0  0
  -30.9140  -24.0870   19.9580 C   0  0  0  0  0  1  0  0  0  0  0  0
  -29.9160  -18.8870   19.2300 C   0  0  0  0  0  2  0  0  0  0  0  0
  -30.9350  -15.0700   19.5920 C   0  0  0  0  0  0  0  0  0  0  0  0
  -30.6040  -12.8010   18.5000 C   0  0  0  0  0  2  0  0  0  0  0  0
  -29.5310  -12.8570   17.3860 C   0  0  0  0  0  2  0  0  0  0  0  0
  -28.1140  -12.6560   17.9600 C   0  0  0  0  0  2  0  0  0  0  0  0
  -27.8790  -13.5180   19.2250 C   0  0  0  0  0  3  0  0  0  0  0  0
  -29.0470  -13.3880   20.2140 C   0  0  0  0  0  2  0  0  0  0  0  0
  -30.2760  -13.8360   19.5260 N   0  0  0  0  0  0  0  0  0  0  0  0
  -31.9990  -15.1810   18.9730 O   0  0  0  0  0  0  0  0  0  0  0  0
  -30.6600  -18.2690   21.6130 C   0  0  0  0  0  2  0  0  0  0  0  0
  -30.0930  -15.9840   21.6580 C   0  0  0  0  0  2  0  0  0  0  0  0
  -30.9080  -17.0190   22.4240 C   0  0  0  0  0  3  0  0  0  0  0  0
  -30.6780  -17.7580   20.1630 C   0  0  0  0  0  3  0  0  0  0  0  0
  -30.3490  -16.2030   20.2200 N   0  0  0  0  0  0  0  0  0  0  0  0
  -25.6160  -14.1210   20.2680 C   0  0  0  0  0  0  0  0  0  0  0  0
  -24.5820  -13.3540   20.7330 C   0  0  0  0  0  0  0  0  0  0  0  0
  -25.0020  -11.9960   20.5840 C   0  0  0  0  0  0  0  0  0  0  0  0
  -26.5970  -13.2310   19.8610 N   0  0  0  0  0  0  0  0  0  0  0  0
  -26.2420  -11.9440   20.1140 N   0  0  0  0  0  0  0  0  0  0  0  0
  -24.2690  -10.7440   20.8080 C   0  0  0  0  0  0  0  0  0  0  0  0
  -24.7150   -9.7840   21.7440 C   0  0  0  0  0  3  0  0  0  0  0  0
  -23.9830   -8.5950   21.9540 C   0  0  0  0  0  3  0  0  0  0  0  0
  -22.7920   -8.3580   21.2270 C   0  0  0  0  0  0  0  0  0  0  0  0
  -22.3650   -9.3070   20.2810 C   0  0  0  0  0  3  0  0  0  0  0  0
  -23.0960  -10.4880   20.0690 C   0  0  0  0  0  3  0  0  0  0  0  0
  -22.0280   -7.2210   21.3470 O   0  0  0  0  0  0  0  0  0  0  0  0
  -21.8990   -6.5630   22.5430 C   0  0  0  0  0  0  0  0  0  0  0  0
  -21.3950   -7.2050   23.6960 C   0  0  0  0  0  3  0  0  0  0  0  0
  -21.2110   -6.4730   24.8850 C   0  0  0  0  0  3  0  0  0  0  0  0
  -21.5240   -5.1000   24.9230 C   0  0  0  0  0  0  0  0  0  0  0  0
  -22.0230   -4.4590   23.7760 C   0  0  0  0  0  3  0  0  0  0  0  0
  -22.2070   -5.1900   22.5890 C   0  0  0  0  0  0  0  0  0  0  0  0
  -22.6670   -4.5600   21.4790 F   0  0  0  0  0  0  0  0  0  0  0  0
  -21.3420   -4.3940   26.0640 F   0  0  0  0  0  0  0  0  0  0  0  0
  -23.2420  -13.8500   21.1900 C   0  0  0  0  0  0  0  0  0  0  0  0
  -22.6170  -13.1510   22.1310 N   0  0  0  0  0  0  0  0  0  0  0  0
  -22.7590  -14.8930   20.7510 O   0  0  0  0  0  0  0  0  0  0  0  0
  -23.0220  -12.3070   22.5100 H   0  0  0  0  0  0  0  0  0  0  0  0
  -21.7220  -13.4650   22.4800 H   0  0  0  0  0  0  0  0  0  0  0  0
  -25.7930  -15.4950   20.1360 N   0  0  0  0  0  0  0  0  0  0  0  0
  -25.0560  -16.1490   20.3730 H   0  0  0  0  0  0  0  0  0  0  0  0
  -26.5900  -15.9360   19.6970 H   0  0  0  0  0  0  0  0  0  0  0  0
  -30.5540  -17.1210   23.8510 N   0  0  0  0  0  4  0  0  0  0  0  0
  -29.5770  -17.3120   23.9850 H   0  0  0  0  0  0  0  0  0  0  0  0
  -31.0820  -17.8530   24.2920 H   0  0  0  0  0  0  0  0  0  0  0  0
  -30.7780  -16.2630   24.3260 H   0  0  0  0  0  0  0  0  0  0  0  0
  -27.7910  -24.8350   19.7040 C   0  0  0  0  0  2  0  0  0  0  0  0
  -28.1940  -26.2800   20.0510 O   0  0  0  0  0  0  0  0  0  0  0  0
  -24.5220  -31.8800   23.1170 C   0  0  0  0  0  0  0  0  0  0  0  0
  -27.1400  -27.2690   19.9870 C   0  0  0  0  0  0  0  0  0  0  0  0
  -23.3170  -30.4670   21.5000 C   0  0  0  0  0  3  0  0  0  0  0  0
  -24.7690  -28.9530   20.0300 C   0  0  0  0  0  0  0  0  0  0  0  0
  -25.8610  -30.7970   21.2830 C   0  0  0  0  0  2  0  0  0  0  0  0
  -25.9530  -29.4160   20.6190 C   0  0  0  0  0  0  0  0  0  0  0  0
  -27.1380  -28.5850   20.5950 C   0  0  0  0  0  3  0  0  0  0  0  0
  -25.9280  -26.9310   19.3300 C   0  0  0  0  0  3  0  0  0  0  0  0
  -24.7680  -27.7220   19.3700 C   0  0  0  0  0  3  0  0  0  0  0  0
  -23.5200  -29.8120   20.1120 C   0  0  0  0  0  2  0  0  0  0  0  0
  -24.5860  -31.0680   22.0200 N   0  0  0  0  0  0  0  0  0  0  0  0
  -23.4420  -32.1370   23.6710 O   0  0  0  0  0  0  0  0  0  0  0  0
  -22.6860  -29.4340   22.4680 C   0  0  0  0  0  0  0  0  0  0  0  0
  -21.3680  -29.2000   22.3410 N   0  0  0  0  0  0  0  0  0  0  0  0
  -23.3860  -28.8460   23.2950 O   0  0  0  0  0  0  0  0  0  0  0  0
  -20.8590  -29.7300   21.6480 H   0  0  0  0  0  0  0  0  0  0  0  0
  -18.0540  -27.8180   22.8150 C   0  0  0  0  0  0  0  0  0  0  0  0
  -20.5880  -28.2370   23.1210 C   0  0  0  0  0  3  0  0  0  0  0  0
  -20.7840  -26.8000   22.5870 C   0  0  0  0  0  2  0  0  0  0  0  0
  -19.7230  -26.3850   21.5630 C   0  0  0  0  0  2  0  0  0  0  0  0
  -18.3220  -26.4660   22.1780 C   0  0  0  0  0  2  0  0  0  0  0  0
  -19.1170  -28.6560   23.2430 C   0  0  0  0  0  0  0  0  0  0  0  0
  -18.8130  -29.9180   23.7990 C   0  0  0  0  0  3  0  0  0  0  0  0
  -17.4780  -30.3450   23.9300 C   0  0  0  0  0  3  0  0  0  0  0  0
  -16.4280  -29.5050   23.5210 C   0  0  0  0  0  3  0  0  0  0  0  0
  -16.7170  -28.2440   22.9690 C   0  0  0  0  0  3  0  0  0  0  0  0
  -25.8010  -32.5420   23.7160 C   0  0  0  0  0  3  0  0  0  0  0  0
  -26.3770  -31.7620   24.9620 C   0  0  1  0  0  0  0  0  0  0  0  0
  -25.3180  -31.4430   26.0430 C   0  0  0  0  0  1  0  0  0  0  0  0
  -27.0170  -30.4230   24.5260 C   0  0  0  0  0  1  0  0  0  0  0  0
  -27.5020  -32.5900   25.6230 C   0  0  0  0  0  1  0  0  0  0  0  0
  -25.4560  -33.9230   24.0880 N   0  0  0  0  0  0  0  0  0  0  0  0
  -25.7230  -35.0040   23.3450 C   0  0  0  0  0  0  0  0  0  0  0  0
  -26.3560  -34.9470   22.2870 O   0  0  0  0  0  0  0  0  0  0  0  0
  -24.8920  -34.0370   24.9180 H   0  0  0  0  0  0  0  0  0  0  0  0
  -23.9260  -36.7480   23.1020 C   0  0  0  0  0  1  0  0  0  0  0  0
  -25.2090  -36.3660   23.8560 C   0  0  0  0  0  3  0  0  0  0  0  0
  -27.3460  -37.3000   24.6240 C   0  0  0  0  0  1  0  0  0  0  0  0
  -26.2010  -37.4550   23.7310 N   0  0  0  0  0  0  0  0  0  0  0  0
  -25.7720  -38.3570   23.9160 H   0  0  0  0  0  0  0  0  0  0  0  0
  1  7  1  0
  2  4  2  0
  3  1  1  0
  3  6  2  0
  4 10  1  0
  5  1  2  0
  5  2  1  0
  6  4  1  0
  8  2  1  0
  9  3  1  0
 11  5  1  0
 12 24  1  0
 13 18  1  0
 14 15  1  0
 14 13  1  0
 16 15  1  0
 16 28  1  0
 16 17  1  0
 18 12  1  0
 18 17  1  0
 19 12  2  0
 20 22  1  0
 21 22  1  0
 22 53  1  0
 23 11  1  0
 23 24  1  0
 23 20  1  0
 24 21  1  0
 25 26  2  0
 26 45  1  0
 27 26  1  0
 27 30  1  0
 28 29  1  0
 28 25  1  0
 29 27  2  0
 30 31  1  0
 31 32  2  0
 33 36  1  0
 33 32  1  0
 34 33  2  0
 35 34  1  0
 35 30  2  0
 36 37  1  0
 37 42  2  0
 37 38  1  0
 38 39  2  0
 39 40  1  0
 40 44  1  0
 41 40  2  0
 42 41  1  0
 43 42  1  0
 45 46  1  0
 46 49  1  0
 46 48  1  0
 47 45  2  0
 50 25  1  0
 50 51  1  0
 52 50  1  0
 53 54  1  0
 53 55  1  0
 53 56  1  0
 57  6  1  0
 57 58  1  0
 59 70  2  0
 60 58  1  0
 60 65  1  0
 61 69  1  0
 61 71  1  0
 62 68  1  0
 62 64  1  0
 63 69  1  0
 64 63  1  0
 65 64  2  0
 66 67  1  0
 66 60  2  0
 67 62  2  0
 68 61  1  0
 69 59  1  0
 71 73  2  0
 72 71  1  0
 74 72  1  0
 75 84  2  0
 75 80  1  0
 76 72  1  0
 76 80  1  0
 77 76  1  0
 78 79  1  0
 78 77  1  0
 79 75  1  0
 80 81  2  0
 81 82  1  0
 83 82  2  0
 84 83  1  0
 85 59  1  0
 85 90  1  0
 85 86  1  0
 86 89  1  1
 86 87  1  0
 88 86  1  0
 90 93  1  0
 91 95  1  0
 91 90  1  0
 92 91  2  0
 95 94  1  0
 97 95  1  0
 97 98  1  0
 97 96  1  0
M  ISO  4  12 100  24 100  57 101  58 101
M  END
>  <TORSDO>  (83) 
F 19

>  <SCORE>  (83) 
-12.515

>  <name>  (83) 
83

>  <ligand_id>  (83) 
83

>  <original_smiles>  (83) 
[H]c1c([H])c([H])c2c(c1[H])C([H])([H])C([H])([H])C([H])([H])C2([H])N([H])C(=O)C1([H])N(C(=O)C([H])(N([H])C(=O)C([H])(N([H])C([H])([H])[H])C([H])([H])[H])C(C([H])([H])[H])(C([H])([H])[H])C([H])([H])[H])C([H])([H])c2c([H])c(OC([H])([H])c3c(C([H])([H])[H])c(C([H])([H])[H])c(C([H])([H])C4([H])N(C(=O)N5C([H])([H])C([H])([H])C([H])([H])C([H])(n6nc(-c7c([H])c([H])c(Oc8c([H])c([H])c(F)c([H])c8F)c([H])c7[H])c(C(=O)N([H])[H])c6N([H])[H])C5([H])[H])C([H])([H])C([H])([N+]([H])([H])[H])C4([H])[H])c(C([H])([H])[H])c3C([H])([H])[H])c([H])c([H])c2C1([H])[H]

>  <smiles>  (83) 
[H]c1c([H])c([H])c2c(c1[H])C([H])([H])C([H])([H])C([H])([H])C2([H])N([H])C(=O)C1([H])N(C(=O)C([H])(N([H])C(=O)C([H])(N([H])C([H])([H])[H])C([H])([H])[H])C(C([H])([H])[H])(C([H])([H])[H])C([H])([H])[H])C([H])([H])c2c([H])c(OC([H])([H])c3c(C([H])([H])[H])c(C([H])([H])[H])c(C([H])([H])C4([H])N(C(=O)N5C([H])([H])C([H])([H])C([H])([H])C([H])(n6nc(-c7c([H])c([H])c(Oc8c([H])c([H])c(F)c([H])c8F)c([H])c7[H])c(C(=O)N([H])[H])c6N([H])[H])C5([H])[H])C([H])([H])C([H])([N+]([H])([H])[H])C4([H])[H])c(C([H])([H])[H])c3C([H])([H])[H])c([H])c([H])c2C1([H])[H]

$$$$
84:0:0
     RDKit          3D

 97106  0  0  1  0  0  0  0  0999 V2000
  -27.2020  -19.8200   20.2320 C   0  0  0  0  0  3  0  0  0  0  0  0
  -28.6250  -21.6910   19.6840 C   0  0  0  0  0  0  0  0  0  0  0  0
  -27.9560  -21.7430   18.4310 C   0  0  0  0  0  0  0  0  0  0  0  0
  -28.5290  -20.3130   20.3020 C   0  0  0  0  0  0  0  0  0  0  0  0
  -26.8190  -20.9260   18.2420 C   0  0  0  0  0  0  0  0  0  0  0  0
  -28.4280  -22.6520   17.3030 C   0  0  0  0  0  1  0  0  0  0  0  0
  -25.9890  -20.9750   16.9670 C   0  0  0  0  0  1  0  0  0  0  0  0
  -26.3790  -20.0860   19.1960 N   0  0  0  0  0  0  0  0  0  0  0  0
  -31.2700  -17.6890   19.5740 C   0  0  0  0  0  2  0  0  0  0  0  0
  -30.6970  -19.1550   19.5700 C   0  0  0  0  0  2  0  0  0  0  0  0
  -29.3180  -17.6820   20.7750 C   0  0  0  0  0  2  0  0  0  0  0  0
  -30.1290  -16.6360   19.7920 C   0  0  2  0  0  0  0  0  0  0  0  0
  -29.5140  -19.1880   20.4210 N   0  0  0  0  0  0  0  0  0  0  0  0
  -30.7740  -15.0880   20.0970 C   0  0  0  0  0  0  0  0  0  0  0  0
  -30.5770  -12.7190   19.1980 C   0  0  0  0  0  2  0  0  0  0  0  0
  -29.6060  -12.6390   17.9970 C   0  0  0  0  0  2  0  0  0  0  0  0
  -28.1630  -12.4180   18.4880 C   0  0  0  0  0  2  0  0  0  0  0  0
  -27.7820  -13.3620   19.6580 C   0  0  0  0  0  3  0  0  0  0  0  0
  -28.8800  -13.4410   20.7370 C   0  0  0  0  0  2  0  0  0  0  0  0
  -30.1270  -13.8440   20.0740 N   0  0  0  0  0  0  0  0  0  0  0  0
  -31.9980  -15.0050   19.9540 O   0  0  0  0  0  0  0  0  0  0  0  0
  -25.4440  -13.9330   20.5220 C   0  0  0  0  0  0  0  0  0  0  0  0
  -24.3910  -13.1520   20.9100 C   0  0  0  0  0  0  0  0  0  0  0  0
  -24.8480  -11.8020   20.8290 C   0  0  0  0  0  0  0  0  0  0  0  0
  -26.4730  -13.0560   20.2180 N   0  0  0  0  0  0  0  0  0  0  0  0
  -26.1270  -11.7680   20.4700 N   0  0  0  0  0  0  0  0  0  0  0  0
  -24.1230  -10.5390   21.0120 C   0  0  0  0  0  0  0  0  0  0  0  0
  -24.5580   -9.5630   21.9340 C   0  0  0  0  0  3  0  0  0  0  0  0
  -23.8290   -8.3670   22.1070 C   0  0  0  0  0  3  0  0  0  0  0  0
  -22.6500   -8.1380   21.3570 C   0  0  0  0  0  0  0  0  0  0  0  0
  -22.2360   -9.1040   20.4220 C   0  0  0  0  0  3  0  0  0  0  0  0
  -22.9660  -10.2910   20.2470 C   0  0  0  0  0  3  0  0  0  0  0  0
  -21.8910   -6.9950   21.4400 O   0  0  0  0  0  0  0  0  0  0  0  0
  -21.8080   -6.2720   22.6010 C   0  0  0  0  0  0  0  0  0  0  0  0
  -21.2890   -6.8280   23.7910 C   0  0  0  0  0  3  0  0  0  0  0  0
  -21.1550   -6.0270   24.9430 C   0  0  0  0  0  3  0  0  0  0  0  0
  -21.5320   -4.6710   24.9060 C   0  0  0  0  0  0  0  0  0  0  0  0
  -22.0450   -4.1150   23.7220 C   0  0  0  0  0  3  0  0  0  0  0  0
  -22.1800   -4.9130   22.5720 C   0  0  0  0  0  0  0  0  0  0  0  0
  -22.6560   -4.3660   21.4280 F   0  0  0  0  0  0  0  0  0  0  0  0
  -21.3990   -3.9000   26.0110 F   0  0  0  0  0  0  0  0  0  0  0  0
  -23.0070  -13.6300   21.2380 C   0  0  0  0  0  0  0  0  0  0  0  0
  -22.3080  -12.9230   22.1200 N   0  0  0  0  0  0  0  0  0  0  0  0
  -22.5570  -14.6640   20.7480 O   0  0  0  0  0  0  0  0  0  0  0  0
  -22.6860  -12.0850   22.5330 H   0  0  0  0  0  0  0  0  0  0  0  0
  -21.3800  -13.2250   22.3830 H   0  0  0  0  0  0  0  0  0  0  0  0
  -25.6010  -15.3080   20.3800 N   0  0  0  0  0  0  0  0  0  0  0  0
  -24.8220  -15.9400   20.5360 H   0  0  0  0  0  0  0  0  0  0  0  0
  -26.4420  -15.7900   20.1050 H   0  0  0  0  0  0  0  0  0  0  0  0
  -29.3890  -16.5450   18.5220 N   0  0  0  0  0  4  0  0  0  0  0  0
  -28.9970  -17.4490   18.3170 H   0  0  0  0  0  0  0  0  0  0  0  0
  -28.6460  -15.8760   18.5680 H   0  0  0  0  0  0  0  0  0  0  0  0
  -30.0120  -16.2840   17.7780 H   0  0  0  0  0  0  0  0  0  0  0  0
  -30.4430  -23.4630   20.2860 C   0  0  0  0  0  1  0  0  0  0  0  0
  -28.9370  -23.1870   20.3520 C   0  0  0  0  0  3  0  0  0  0  0  0
  -28.0950  -24.6240   19.9400 C   0  0  0  0  0  2  0  0  0  0  0  0
  -28.3020  -26.1200   20.3820 O   0  0  0  0  0  0  0  0  0  0  0  0
  -24.6490  -31.8770   23.2500 C   0  0  0  0  0  0  0  0  0  0  0  0
  -27.2710  -27.1330   20.2700 C   0  0  0  0  0  0  0  0  0  0  0  0
  -23.4790  -30.4730   21.5980 C   0  0  0  0  0  3  0  0  0  0  0  0
  -24.9530  -28.9000   20.1970 C   0  0  0  0  0  0  0  0  0  0  0  0
  -26.0380  -30.7350   21.4790 C   0  0  0  0  0  2  0  0  0  0  0  0
  -26.1230  -29.3400   20.8270 C   0  0  0  0  0  0  0  0  0  0  0  0
  -27.2820  -28.4710   20.8480 C   0  0  0  0  0  3  0  0  0  0  0  0
  -26.0770  -26.8120   19.5870 C   0  0  0  0  0  3  0  0  0  0  0  0
  -24.9450  -27.6530   19.5610 C   0  0  0  0  0  3  0  0  0  0  0  0
  -23.7250  -29.7960   20.2250 C   0  0  0  0  0  2  0  0  0  0  0  0
  -24.7420  -31.0500   22.1640 N   0  0  0  0  0  0  0  0  0  0  0  0
  -23.5520  -32.1630   23.7580 O   0  0  0  0  0  0  0  0  0  0  0  0
  -22.7860  -29.4650   22.5510 C   0  0  0  0  0  0  0  0  0  0  0  0
  -21.4590  -29.3000   22.4100 N   0  0  0  0  0  0  0  0  0  0  0  0
  -23.4480  -28.8370   23.3800 O   0  0  0  0  0  0  0  0  0  0  0  0
  -20.9810  -29.8570   21.7170 H   0  0  0  0  0  0  0  0  0  0  0  0
  -18.0620  -28.1480   22.9170 C   0  0  0  0  0  0  0  0  0  0  0  0
  -20.6280  -28.3650   23.1740 C   0  0  0  0  0  3  0  0  0  0  0  0
  -20.7030  -26.9390   22.5810 C   0  0  0  0  0  2  0  0  0  0  0  0
  -19.5910  -26.6500   21.5670 C   0  0  0  0  0  2  0  0  0  0  0  0
  -18.2140  -26.8070   22.2180 C   0  0  0  0  0  2  0  0  0  0  0  0
  -19.1950  -28.8860   23.3510 C   0  0  0  0  0  0  0  0  0  0  0  0
  -18.9970  -30.1420   23.9640 C   0  0  0  0  0  3  0  0  0  0  0  0
  -17.7010  -30.6600   24.1480 C   0  0  0  0  0  3  0  0  0  0  0  0
  -16.5830  -29.9180   23.7290 C   0  0  0  0  0  3  0  0  0  0  0  0
  -16.7640  -28.6640   23.1190 C   0  0  0  0  0  3  0  0  0  0  0  0
  -25.9150  -32.5180   23.8930 C   0  0  0  0  0  3  0  0  0  0  0  0
  -26.4030  -31.7580   25.1890 C   0  0  1  0  0  0  0  0  0  0  0  0
  -25.2830  -31.5290   26.2310 C   0  0  0  0  0  1  0  0  0  0  0  0
  -27.0000  -30.3770   24.8330 C   0  0  0  0  0  1  0  0  0  0  0  0
  -27.5330  -32.5640   25.8720 C   0  0  0  0  0  1  0  0  0  0  0  0
  -25.5970  -33.9200   24.2120 N   0  0  0  0  0  0  0  0  0  0  0  0
  -25.9120  -34.9680   23.4400 C   0  0  0  0  0  0  0  0  0  0  0  0
  -26.5700  -34.8590   22.4020 O   0  0  0  0  0  0  0  0  0  0  0  0
  -25.0060  -34.0760   25.0150 H   0  0  0  0  0  0  0  0  0  0  0  0
  -24.1630  -36.7480   23.1050 C   0  0  0  0  0  1  0  0  0  0  0  0
  -25.4250  -36.3600   23.8910 C   0  0  0  0  0  3  0  0  0  0  0  0
  -27.5620  -37.2830   24.6770 C   0  0  0  0  0  1  0  0  0  0  0  0
  -26.4470  -37.4190   23.7430 N   0  0  0  0  0  0  0  0  0  0  0  0
  -26.0320  -38.3370   23.8800 H   0  0  0  0  0  0  0  0  0  0  0  0
  1  4  1  0
  2  4  2  3
  2 55  1  0
  3  2  1  0
  4 13  1  0
  5  3  2  0
  5  8  1  0
  6  3  1  0
  7  5  1  0
  8  1  2  0
  9 12  1  0
 10  9  1  0
 10 13  1  0
 12 14  1  0
 12 11  1  0
 13 11  1  0
 15 20  1  0
 16 17  1  0
 16 15  1  0
 18 17  1  0
 18 25  1  0
 18 19  1  0
 20 14  1  0
 20 19  1  0
 21 14  2  0
 22 23  2  0
 23 42  1  0
 24 23  1  0
 24 27  1  0
 25 26  1  0
 25 22  1  0
 26 24  2  0
 27 28  1  0
 28 29  2  0
 30 33  1  0
 30 29  1  0
 31 30  2  0
 32 31  1  0
 32 27  2  0
 33 34  1  0
 34 35  1  0
 35 36  2  0
 37 36  1  0
 37 41  1  0
 38 37  2  0
 39 34  2  0
 39 38  1  0
 40 39  1  0
 42 43  1  0
 43 46  1  0
 43 45  1  0
 44 42  2  0
 47 22  1  0
 47 48  1  0
 49 47  1  0
 50 52  1  0
 12 50  1  6
 51 50  1  0
 53 50  1  0
 55 54  1  0
 56 55  1  0
 56 57  1  0
 58 69  2  0
 59 57  1  0
 59 64  1  0
 60 68  1  0
 60 70  1  0
 61 67  1  0
 61 63  1  0
 62 68  1  0
 63 64  2  0
 63 62  1  0
 65 59  2  0
 66 65  1  0
 66 61  2  0
 67 60  1  0
 68 58  1  0
 70 72  2  0
 71 70  1  0
 73 71  1  0
 74 83  2  0
 74 79  1  0
 75 71  1  0
 75 79  1  0
 76 75  1  0
 77 78  1  0
 77 76  1  0
 78 74  1  0
 79 80  2  0
 80 81  1  0
 82 81  2  0
 83 82  1  0
 84 58  1  0
 84 89  1  0
 84 85  1  0
 85 88  1  1
 85 86  1  0
 87 85  1  0
 89 92  1  0
 90 94  1  0
 90 89  1  0
 91 90  2  0
 94 93  1  0
 96 97  1  0
 96 94  1  0
 96 95  1  0
M  ISO  4  12 100  14 100  56 101  57 101
M  END
>  <TORSDO>  (84) 
F 20

>  <SCORE>  (84) 
-14.071

>  <name>  (84) 
84

>  <ligand_id>  (84) 
84

>  <original_smiles>  (84) 
[H]c1nc(C([H])([H])[H])c(C([H])([H])[H])c(C([H])(C([H])([H])[H])C([H])([H])Oc2c([H])c([H])c3c(c2[H])C([H])([H])N(C(=O)C([H])(N([H])C(=O)C([H])(N([H])C([H])([H])[H])C([H])([H])[H])C(C([H])([H])[H])(C([H])([H])[H])C([H])([H])[H])C([H])(C(=O)N([H])C2([H])c4c([H])c([H])c([H])c([H])c4C([H])([H])C([H])([H])C2([H])[H])C3([H])[H])c1N1C([H])([H])C([H])([H])C(C(=O)N2C([H])([H])C([H])([H])C([H])([H])C([H])(n3nc(-c4c([H])c([H])c(Oc5c([H])c([H])c(F)c([H])c5F)c([H])c4[H])c(C(=O)N([H])[H])c3N([H])[H])C2([H])[H])([N+]([H])([H])[H])C1([H])[H]

>  <smiles>  (84) 
[H]c1nc(C([H])([H])[H])c(C([H])([H])[H])c(C([H])(C([H])([H])[H])C([H])([H])Oc2c([H])c([H])c3c(c2[H])C([H])([H])N(C(=O)C([H])(N([H])C(=O)C([H])(N([H])C([H])([H])[H])C([H])([H])[H])C(C([H])([H])[H])(C([H])([H])[H])C([H])([H])[H])C([H])(C(=O)N([H])C2([H])c4c([H])c([H])c([H])c([H])c4C([H])([H])C([H])([H])C2([H])[H])C3([H])[H])c1N1C([H])([H])C([H])([H])C(C(=O)N2C([H])([H])C([H])([H])C([H])([H])C([H])(n3nc(-c4c([H])c([H])c(Oc5c([H])c([H])c(F)c([H])c5F)c([H])c4[H])c(C(=O)N([H])[H])c3N([H])[H])C2([H])[H])([N+]([H])([H])[H])C1([H])[H]

$$$$
85:0:0
     RDKit          3D

 92101  0  0  1  0  0  0  0  0999 V2000
  -27.5210  -22.2480   18.8140 C   0  0  0  0  0  3  0  0  0  0  0  0
  -28.2590  -22.6050   19.9490 C   0  0  0  0  0  0  0  0  0  0  0  0
  -28.9740  -21.4210   20.5470 C   0  0  0  0  0  0  0  0  0  0  0  0
  -27.4920  -20.9060   18.3270 C   0  0  0  0  0  0  0  0  0  0  0  0
  -29.0090  -19.9110   20.1010 C   0  0  0  0  0  0  0  0  0  0  0  0
  -28.2000  -19.7960   18.9250 C   0  0  0  0  0  0  0  0  0  0  0  0
  -29.6330  -22.1200   21.7360 C   0  0  0  0  0  2  0  0  0  0  0  0
  -29.3970  -23.7190   21.6240 C   0  0  0  0  0  2  0  0  0  0  0  0
  -28.1610  -24.1260   20.7310 C   0  0  2  0  0  0  0  0  0  0  0  0
  -26.6220  -20.6830   17.0970 C   0  0  0  0  0  1  0  0  0  0  0  0
  -28.0970  -18.4140   18.2810 C   0  0  0  0  0  1  0  0  0  0  0  0
  -26.9000  -24.0790   21.6090 C   0  0  0  0  0  1  0  0  0  0  0  0
  -28.2140  -25.7480   20.2430 O   0  0  0  0  0  0  0  0  0  0  0  0
  -24.6140  -31.8360   23.1880 C   0  0  0  0  0  0  0  0  0  0  0  0
  -27.1910  -26.8660   20.2530 C   0  0  0  0  0  0  0  0  0  0  0  0
  -23.4360  -30.4200   21.5570 C   0  0  0  0  0  3  0  0  0  0  0  0
  -24.8970  -28.7890   20.1670 C   0  0  0  0  0  0  0  0  0  0  0  0
  -26.0070  -30.6160   21.4300 C   0  0  0  0  0  2  0  0  0  0  0  0
  -26.0840  -29.1900   20.7940 C   0  0  0  0  0  0  0  0  0  0  0  0
  -27.2250  -28.2540   20.8020 C   0  0  0  0  0  3  0  0  0  0  0  0
  -25.9710  -26.6370   19.5750 C   0  0  0  0  0  3  0  0  0  0  0  0
  -24.8700  -27.5350   19.5360 C   0  0  0  0  0  3  0  0  0  0  0  0
  -23.6800  -29.7190   20.1920 C   0  0  0  0  0  2  0  0  0  0  0  0
  -24.7080  -30.9870   22.1110 N   0  0  0  0  0  0  0  0  0  0  0  0
  -23.5200  -32.1300   23.6970 O   0  0  0  0  0  0  0  0  0  0  0  0
  -22.7320  -29.4360   22.5300 C   0  0  0  0  0  0  0  0  0  0  0  0
  -21.4020  -29.2710   22.4020 N   0  0  0  0  0  0  0  0  0  0  0  0
  -23.3930  -28.8200   23.3710 O   0  0  0  0  0  0  0  0  0  0  0  0
  -20.9220  -29.8200   21.7030 H   0  0  0  0  0  0  0  0  0  0  0  0
  -18.0120  -28.0870   22.9390 C   0  0  0  0  0  0  0  0  0  0  0  0
  -20.5780  -28.3390   23.1780 C   0  0  0  0  0  3  0  0  0  0  0  0
  -20.6650  -26.9070   22.6020 C   0  0  0  0  0  2  0  0  0  0  0  0
  -19.5530  -26.5920   21.5960 C   0  0  0  0  0  2  0  0  0  0  0  0
  -18.1770  -26.7400   22.2530 C   0  0  0  0  0  2  0  0  0  0  0  0
  -19.1390  -28.8450   23.3590 C   0  0  0  0  0  0  0  0  0  0  0  0
  -18.9290  -30.1030   23.9640 C   0  0  0  0  0  3  0  0  0  0  0  0
  -17.6260  -30.6040   24.1500 C   0  0  0  0  0  3  0  0  0  0  0  0
  -16.5160  -29.8440   23.7430 C   0  0  0  0  0  3  0  0  0  0  0  0
  -16.7100  -28.5880   23.1440 C   0  0  0  0  0  3  0  0  0  0  0  0
  -25.8760  -32.4920   23.8240 C   0  0  0  0  0  3  0  0  0  0  0  0
  -25.5480  -33.8930   24.1460 N   0  0  0  0  0  0  0  0  0  0  0  0
  -25.8850  -34.9530   23.3990 C   0  0  0  0  0  0  0  0  0  0  0  0
  -26.5650  -34.8560   22.3750 O   0  0  0  0  0  0  0  0  0  0  0  0
  -24.9420  -34.0410   24.9400 H   0  0  0  0  0  0  0  0  0  0  0  0
  -24.1650  -36.7590   23.0370 C   0  0  0  0  0  1  0  0  0  0  0  0
  -25.3940  -36.3430   23.8610 C   0  0  0  0  0  3  0  0  0  0  0  0
  -27.5140  -37.2290   24.7310 C   0  0  0  0  0  1  0  0  0  0  0  0
  -26.4290  -37.3960   23.7680 N   0  0  0  0  0  0  0  0  0  0  0  0
  -26.0200  -38.3160   23.9080 H   0  0  0  0  0  0  0  0  0  0  0  0
  -26.3740  -31.7430   25.1220 C   0  0  1  0  0  0  0  0  0  0  0  0
  -25.2660  -31.5210   26.1780 C   0  0  0  0  0  1  0  0  0  0  0  0
  -26.9680  -30.3600   24.7710 C   0  0  0  0  0  1  0  0  0  0  0  0
  -27.5130  -32.5520   25.7870 C   0  0  0  0  0  1  0  0  0  0  0  0
  -29.8480  -18.4180   20.6370 C   0  0  0  0  0  2  0  0  0  0  0  0
  -30.4110  -15.4250   20.4620 C   0  0  0  0  0  0  0  0  0  0  0  0
  -30.4700  -12.9300   19.6510 C   0  0  0  0  0  2  0  0  0  0  0  0
  -29.5980  -12.6140   18.4080 C   0  0  0  0  0  2  0  0  0  0  0  0
  -28.1450  -12.3170   18.8190 C   0  0  0  0  0  2  0  0  0  0  0  0
  -27.6340  -13.3190   19.8820 C   0  0  0  0  0  3  0  0  0  0  0  0
  -28.6420  -13.5580   21.0260 C   0  0  0  0  0  2  0  0  0  0  0  0
  -29.8630  -14.0990   20.4020 N   0  0  0  0  0  0  0  0  0  0  0  0
  -31.6450  -15.4030   20.3300 O   0  0  0  0  0  0  0  0  0  0  0  0
  -29.6380  -16.7230   20.4820 N   0  0  0  0  0  0  0  0  0  0  0  0
  -28.6540  -16.5050   20.4930 H   0  0  0  0  0  0  0  0  0  0  0  0
  -25.2490  -13.8680   20.5780 C   0  0  0  0  0  0  0  0  0  0  0  0
  -24.1800  -13.0900   20.9220 C   0  0  0  0  0  0  0  0  0  0  0  0
  -24.6500  -11.7410   20.9090 C   0  0  0  0  0  0  0  0  0  0  0  0
  -26.2990  -12.9950   20.3640 N   0  0  0  0  0  0  0  0  0  0  0  0
  -25.9510  -11.7090   20.6330 N   0  0  0  0  0  0  0  0  0  0  0  0
  -23.9200  -10.4780   21.0820 C   0  0  0  0  0  0  0  0  0  0  0  0
  -24.3210   -9.5140   22.0330 C   0  0  0  0  0  3  0  0  0  0  0  0
  -23.5870   -8.3200   22.1950 C   0  0  0  0  0  3  0  0  0  0  0  0
  -22.4370   -8.0790   21.4060 C   0  0  0  0  0  0  0  0  0  0  0  0
  -22.0550   -9.0320   20.4440 C   0  0  0  0  0  3  0  0  0  0  0  0
  -22.7900  -10.2170   20.2800 C   0  0  0  0  0  3  0  0  0  0  0  0
  -21.6770   -6.9360   21.4760 O   0  0  0  0  0  0  0  0  0  0  0  0
  -21.5830   -6.2060   22.6340 C   0  0  0  0  0  0  0  0  0  0  0  0
  -21.0870   -6.7680   23.8320 C   0  0  0  0  0  3  0  0  0  0  0  0
  -20.9400   -5.9630   24.9790 C   0  0  0  0  0  3  0  0  0  0  0  0
  -21.2790   -4.5980   24.9300 C   0  0  0  0  0  0  0  0  0  0  0  0
  -21.7680   -4.0360   23.7380 C   0  0  0  0  0  3  0  0  0  0  0  0
  -21.9160   -4.8380   22.5920 C   0  0  0  0  0  0  0  0  0  0  0  0
  -22.3670   -4.2860   21.4400 F   0  0  0  0  0  0  0  0  0  0  0  0
  -21.1320   -3.8230   26.0300 F   0  0  0  0  0  0  0  0  0  0  0  0
  -22.7750  -13.5660   21.1460 C   0  0  0  0  0  0  0  0  0  0  0  0
  -22.0220  -12.8770   21.9940 N   0  0  0  0  0  0  0  0  0  0  0  0
  -22.3530  -14.5880   20.6040 O   0  0  0  0  0  0  0  0  0  0  0  0
  -22.3760  -12.0510   22.4540 H   0  0  0  0  0  0  0  0  0  0  0  0
  -21.0780  -13.1800   22.1890 H   0  0  0  0  0  0  0  0  0  0  0  0
  -25.4100  -15.2380   20.3980 N   0  0  0  0  0  0  0  0  0  0  0  0
  -24.6340  -15.8860   20.4790 H   0  0  0  0  0  0  0  0  0  0  0  0
  -26.2530  -15.6740   20.0500 H   0  0  0  0  0  0  0  0  0  0  0  0
  1  2  1  0
  2  3  2  0
  2  9  1  0
  3  7  1  0
  4  1  2  0
  4  6  1  0
  5  3  1  0
  5 54  1  0
  6  5  2  0
  8  7  1  0
  9 12  1  1
  9  8  1  0
 10  4  1  0
 11  6  1  0
 13 15  1  0
 13  9  1  0
 14 25  2  0
 15 20  1  0
 16 24  1  0
 16 26  1  0
 17 23  1  0
 17 19  1  0
 18 24  1  0
 19 20  2  0
 19 18  1  0
 21 15  2  0
 22 21  1  0
 22 17  2  0
 23 16  1  0
 24 14  1  0
 26 28  2  0
 27 26  1  0
 29 27  1  0
 30 39  2  0
 30 35  1  0
 31 27  1  0
 31 35  1  0
 32 31  1  0
 33 34  1  0
 33 32  1  0
 34 30  1  0
 35 36  2  0
 36 37  1  0
 38 37  2  0
 39 38  1  0
 40 14  1  0
 40 41  1  0
 40 50  1  0
 41 44  1  0
 42 46  1  0
 42 41  1  0
 43 42  2  0
 46 45  1  0
 48 46  1  0
 48 49  1  0
 48 47  1  0
 50 53  1  1
 50 51  1  0
 52 50  1  0
 55 63  1  0
 56 61  1  0
 57 58  1  0
 57 56  1  0
 59 58  1  0
 59 68  1  0
 59 60  1  0
 61 55  1  0
 61 60  1  0
 62 55  2  0
 63 64  1  0
 63 54  1  0
 65 66  2  0
 66 85  1  0
 67 66  1  0
 67 70  1  0
 68 65  1  0
 68 69  1  0
 69 67  2  0
 70 71  1  0
 71 72  2  0
 73 76  1  0
 73 72  1  0
 74 73  2  0
 75 74  1  0
 75 70  2  0
 76 77  1  0
 77 78  1  0
 78 79  2  0
 80 79  1  0
 80 84  1  0
 81 80  2  0
 82 77  2  0
 82 81  1  0
 83 82  1  0
 85 86  1  0
 86 89  1  0
 86 88  1  0
 87 85  2  0
 90 91  1  0
 90 65  1  0
 92 90  1  0
M  ISO  4   9 101  13 101  55 100  63 100
M  END
>  <TORSDO>  (85) 
F 17

>  <SCORE>  (85) 
-16.854

>  <name>  (85) 
85

>  <ligand_id>  (85) 
85

>  <original_smiles>  (85) 
[H]c1c([H])c([H])c2c(c1[H])C([H])([H])C([H])([H])C([H])([H])C2([H])N([H])C(=O)C1([H])N(C(=O)C([H])(N([H])C(=O)C([H])(N([H])C([H])([H])[H])C([H])([H])[H])C(C([H])([H])[H])(C([H])([H])[H])C([H])([H])[H])C([H])([H])c2c([H])c(OC3(C([H])([H])[H])c4c([H])c(C([H])([H])[H])c(C([H])([H])[H])c(C([H])([H])N([H])C(=O)N5C([H])([H])C([H])([H])C([H])([H])C([H])(n6nc(-c7c([H])c([H])c(Oc8c([H])c([H])c(F)c([H])c8F)c([H])c7[H])c(C(=O)N([H])[H])c6N([H])[H])C5([H])[H])c4C([H])([H])C3([H])[H])c([H])c([H])c2C1([H])[H]

>  <smiles>  (85) 
[H]c1c([H])c([H])c2c(c1[H])C([H])([H])C([H])([H])C([H])([H])C2([H])N([H])C(=O)C1([H])N(C(=O)C([H])(N([H])C(=O)C([H])(N([H])C([H])([H])[H])C([H])([H])[H])C(C([H])([H])[H])(C([H])([H])[H])C([H])([H])[H])C([H])([H])c2c([H])c(OC3(C([H])([H])[H])c4c([H])c(C([H])([H])[H])c(C([H])([H])[H])c(C([H])([H])N([H])C(=O)N5C([H])([H])C([H])([H])C([H])([H])C([H])(n6nc(-c7c([H])c([H])c(Oc8c([H])c([H])c(F)c([H])c8F)c([H])c7[H])c(C(=O)N([H])[H])c6N([H])[H])C5([H])[H])c4C([H])([H])C3([H])[H])c([H])c([H])c2C1([H])[H]

$$$$
86:0:0
     RDKit          3D

 91100  0  0  1  0  0  0  0  0999 V2000
  -30.6170  -14.7930   20.3580 C   0  0  0  0  0  0  0  0  0  0  0  0
  -30.4060  -12.4780   19.4340 C   0  0  0  0  0  2  0  0  0  0  0  0
  -29.4790  -12.4770   18.1990 C   0  0  0  0  0  2  0  0  0  0  0  0
  -28.0140  -12.2950   18.6350 C   0  0  0  0  0  2  0  0  0  0  0  0
  -27.6180  -13.2430   19.7980 C   0  0  0  0  0  3  0  0  0  0  0  0
  -28.6680  -13.2580   20.9290 C   0  0  0  0  0  2  0  0  0  0  0  0
  -29.9580  -13.5830   20.3170 N   0  0  0  0  0  0  0  0  0  0  0  0
  -31.8270  -14.8160   20.1030 O   0  0  0  0  0  0  0  0  0  0  0  0
  -28.4990  -22.5380   18.7860 C   0  0  0  0  0  3  0  0  0  0  0  0
  -28.7600  -21.1340   18.8810 C   0  0  0  0  0  3  0  0  0  0  0  0
  -28.4940  -23.4010   19.9190 C   0  0  0  0  0  0  0  0  0  0  0  0
  -28.8300  -22.7060   21.1230 C   0  0  0  0  0  0  0  0  0  0  0  0
  -29.0570  -20.5190   20.1210 C   0  0  0  0  0  0  0  0  0  0  0  0
  -29.7490  -18.4400   21.5150 C   0  0  0  0  0  2  0  0  0  0  0  0
  -29.1630  -18.0860   19.1770 C   0  0  0  0  0  2  0  0  0  0  0  0
  -30.6260  -17.1390   21.2630 C   0  0  0  0  0  2  0  0  0  0  0  0
  -28.9090  -16.5860   19.6670 C   0  0  0  0  0  2  0  0  0  0  0  0
  -28.8620  -23.4380   22.4500 C   0  0  0  0  0  1  0  0  0  0  0  0
  -29.1060  -21.3500   21.2070 N   0  0  0  0  0  0  0  0  0  0  0  0
  -29.2820  -19.0810   20.2710 N   0  0  0  0  0  0  0  0  0  0  0  0
  -29.9360  -15.9970   20.5880 N   0  0  0  0  0  0  0  0  0  0  0  0
  -25.2500  -13.8660   20.5390 C   0  0  0  0  0  0  0  0  0  0  0  0
  -24.1760  -13.1020   20.9100 C   0  0  0  0  0  0  0  0  0  0  0  0
  -24.6260  -11.7480   20.8800 C   0  0  0  0  0  0  0  0  0  0  0  0
  -26.2800  -12.9730   20.3000 N   0  0  0  0  0  0  0  0  0  0  0  0
  -25.9160  -11.6960   20.5730 N   0  0  0  0  0  0  0  0  0  0  0  0
  -23.8880  -10.4930   21.0600 C   0  0  0  0  0  0  0  0  0  0  0  0
  -24.3050   -9.5190   21.9940 C   0  0  0  0  0  3  0  0  0  0  0  0
  -23.5650   -8.3300   22.1650 C   0  0  0  0  0  3  0  0  0  0  0  0
  -22.3960   -8.1050   21.3990 C   0  0  0  0  0  0  0  0  0  0  0  0
  -21.9970   -9.0680   20.4540 C   0  0  0  0  0  3  0  0  0  0  0  0
  -22.7370  -10.2500   20.2830 C   0  0  0  0  0  3  0  0  0  0  0  0
  -21.6300   -6.9670   21.4780 O   0  0  0  0  0  0  0  0  0  0  0  0
  -21.5540   -6.2320   22.6330 C   0  0  0  0  0  0  0  0  0  0  0  0
  -21.1060   -6.7950   23.8480 C   0  0  0  0  0  3  0  0  0  0  0  0
  -20.9780   -5.9860   24.9940 C   0  0  0  0  0  3  0  0  0  0  0  0
  -21.2880   -4.6140   24.9250 C   0  0  0  0  0  0  0  0  0  0  0  0
  -21.7270   -4.0500   23.7150 C   0  0  0  0  0  3  0  0  0  0  0  0
  -21.8570   -4.8570   22.5710 C   0  0  0  0  0  0  0  0  0  0  0  0
  -22.2630   -4.3050   21.4010 F   0  0  0  0  0  0  0  0  0  0  0  0
  -21.1560   -3.8350   26.0220 F   0  0  0  0  0  0  0  0  0  0  0  0
  -22.7850  -13.5960   21.1760 C   0  0  0  0  0  0  0  0  0  0  0  0
  -22.0490  -12.9070   22.0430 N   0  0  0  0  0  0  0  0  0  0  0  0
  -22.3600  -14.6260   20.6540 O   0  0  0  0  0  0  0  0  0  0  0  0
  -22.4080  -12.0720   22.4820 H   0  0  0  0  0  0  0  0  0  0  0  0
  -21.1160  -13.2160   22.2710 H   0  0  0  0  0  0  0  0  0  0  0  0
  -25.4240  -15.2340   20.3530 N   0  0  0  0  0  0  0  0  0  0  0  0
  -24.6530  -15.8880   20.4220 H   0  0  0  0  0  0  0  0  0  0  0  0
  -26.2590  -15.6490   19.9610 H   0  0  0  0  0  0  0  0  0  0  0  0
  -27.7570  -24.8270   19.8000 C   0  0  0  0  0  2  0  0  0  0  0  0
  -28.2560  -26.2480   20.0070 O   0  0  0  0  0  0  0  0  0  0  0  0
  -24.6990  -31.8020   23.1790 C   0  0  0  0  0  0  0  0  0  0  0  0
  -27.2310  -27.2450   19.9640 C   0  0  0  0  0  0  0  0  0  0  0  0
  -23.4830  -30.4630   21.5080 C   0  0  0  0  0  3  0  0  0  0  0  0
  -24.9140  -28.9690   20.0160 C   0  0  0  0  0  0  0  0  0  0  0  0
  -26.0370  -30.7450   21.3360 C   0  0  0  0  0  2  0  0  0  0  0  0
  -26.1000  -29.3850   20.6380 C   0  0  0  0  0  0  0  0  0  0  0  0
  -27.2630  -28.5370   20.6040 C   0  0  0  0  0  3  0  0  0  0  0  0
  -26.0180  -26.9410   19.2910 C   0  0  0  0  0  3  0  0  0  0  0  0
  -24.8820  -27.7570   19.3300 C   0  0  0  0  0  3  0  0  0  0  0  0
  -23.6900  -29.8580   20.1000 C   0  0  0  0  0  2  0  0  0  0  0  0
  -24.7590  -31.0200   22.0620 N   0  0  0  0  0  0  0  0  0  0  0  0
  -23.6170  -32.0700   23.7210 O   0  0  0  0  0  0  0  0  0  0  0  0
  -22.8190  -29.4130   22.4300 C   0  0  0  0  0  0  0  0  0  0  0  0
  -21.4880  -29.2570   22.3180 N   0  0  0  0  0  0  0  0  0  0  0  0
  -23.5000  -28.7480   23.2160 O   0  0  0  0  0  0  0  0  0  0  0  0
  -20.9950  -29.8570   21.6700 H   0  0  0  0  0  0  0  0  0  0  0  0
  -18.0970  -28.0980   22.8430 C   0  0  0  0  0  0  0  0  0  0  0  0
  -20.6660  -28.3010   23.0660 C   0  0  0  0  0  3  0  0  0  0  0  0
  -20.7270  -26.8930   22.4280 C   0  0  0  0  0  2  0  0  0  0  0  0
  -19.5970  -26.6330   21.4280 C   0  0  0  0  0  2  0  0  0  0  0  0
  -18.2330  -26.7740   22.1100 C   0  0  0  0  0  2  0  0  0  0  0  0
  -19.2380  -28.8220   23.2790 C   0  0  0  0  0  0  0  0  0  0  0  0
  -19.0560  -30.0610   23.9290 C   0  0  0  0  0  3  0  0  0  0  0  0
  -17.7640  -30.5760   24.1470 C   0  0  0  0  0  3  0  0  0  0  0  0
  -16.6370  -29.8480   23.7250 C   0  0  0  0  0  3  0  0  0  0  0  0
  -16.8050  -28.6110   23.0790 C   0  0  0  0  0  3  0  0  0  0  0  0
  -25.9830  -32.4120   23.8150 C   0  0  0  0  0  3  0  0  0  0  0  0
  -25.6790  -33.8030   24.1800 N   0  0  0  0  0  0  0  0  0  0  0  0
  -25.9920  -34.8740   23.4380 C   0  0  0  0  0  0  0  0  0  0  0  0
  -26.6370  -34.7960   22.3890 O   0  0  0  0  0  0  0  0  0  0  0  0
  -25.1040  -33.9390   24.9990 H   0  0  0  0  0  0  0  0  0  0  0  0
  -24.2480  -36.6710   23.1780 C   0  0  0  0  0  1  0  0  0  0  0  0
  -25.5150  -36.2510   23.9400 C   0  0  0  0  0  3  0  0  0  0  0  0
  -27.6740  -37.1310   24.7160 C   0  0  0  0  0  1  0  0  0  0  0  0
  -26.5400  -37.3120   23.8130 N   0  0  0  0  0  0  0  0  0  0  0  0
  -26.1350  -38.2270   23.9890 H   0  0  0  0  0  0  0  0  0  0  0  0
  -26.4970  -31.6050   25.0690 C   0  0  1  0  0  0  0  0  0  0  0  0
  -25.4060  -31.3490   26.1360 C   0  0  0  0  0  1  0  0  0  0  0  0
  -27.0690  -30.2310   24.6450 C   0  0  0  0  0  1  0  0  0  0  0  0
  -27.6530  -32.3780   25.7480 C   0  0  0  0  0  1  0  0  0  0  0  0
  1 21  1  0
  2  7  1  0
  3  4  1  0
  3  2  1  0
  5  4  1  0
  5 25  1  0
  5  6  1  0
  7  1  1  0
  7  6  1  0
  8  1  2  0
  9 10  2  0
  9 11  1  0
 10 13  1  0
 11 12  2  0
 12 19  1  0
 12 18  1  0
 13 20  1  0
 13 19  2  0
 15 17  1  0
 15 20  1  0
 16 14  1  0
 17 21  1  0
 20 14  1  0
 21 16  1  0
 22 23  2  0
 23 42  1  0
 24 23  1  0
 24 27  1  0
 25 22  1  0
 25 26  1  0
 26 24  2  0
 27 28  1  0
 28 29  2  0
 30 33  1  0
 30 29  1  0
 31 30  2  0
 32 31  1  0
 32 27  2  0
 33 34  1  0
 34 35  1  0
 35 36  2  0
 37 36  1  0
 37 41  1  0
 38 37  2  0
 39 34  2  0
 39 38  1  0
 40 39  1  0
 42 43  1  0
 43 46  1  0
 43 45  1  0
 44 42  2  0
 47 48  1  0
 47 22  1  0
 49 47  1  0
 50 11  1  0
 50 51  1  0
 52 63  2  0
 53 51  1  0
 53 58  1  0
 54 62  1  0
 54 64  1  0
 55 61  1  0
 55 57  1  0
 56 62  1  0
 57 56  1  0
 58 57  2  0
 59 60  1  0
 59 53  2  0
 60 55  2  0
 61 54  1  0
 62 52  1  0
 64 66  2  0
 65 64  1  0
 67 65  1  0
 68 77  2  0
 68 73  1  0
 69 65  1  0
 69 73  1  0
 70 69  1  0
 71 72  1  0
 71 70  1  0
 72 68  1  0
 73 74  2  0
 74 75  1  0
 76 75  2  0
 77 76  1  0
 78 52  1  0
 78 79  1  0
 78 88  1  0
 79 82  1  0
 80 84  1  0
 80 79  1  0
 81 80  2  0
 84 83  1  0
 86 84  1  0
 86 87  1  0
 86 85  1  0
 88 91  1  1
 88 89  1  0
 90 88  1  0
M  ISO  4   1 100  21 100  50 101  51 101
M  END
>  <TORSDO>  (86) 
F 16

>  <SCORE>  (86) 
-15.245

>  <name>  (86) 
86

>  <ligand_id>  (86) 
86

>  <original_smiles>  (86) 
[H]c1c(N2C([H])([H])C([H])([H])N(C(=O)N3C([H])([H])C([H])([H])C([H])([H])C([H])(n4nc(-c5c([H])c([H])c(Oc6c([H])c([H])c(F)c([H])c6F)c([H])c5[H])c(C(=O)N([H])[H])c4N([H])[H])C3([H])[H])C([H])([H])C2([H])[H])nc(C([H])([H])[H])c(C([H])([H])Oc2c([H])c([H])c3c(c2[H])C([H])([H])N(C(=O)C([H])(N([H])C(=O)C([H])(N([H])C([H])([H])[H])C([H])([H])[H])C(C([H])([H])[H])(C([H])([H])[H])C([H])([H])[H])C([H])(C(=O)N([H])C2([H])c4c([H])c([H])c([H])c([H])c4C([H])([H])C([H])([H])C2([H])[H])C3([H])[H])c1[H]

>  <smiles>  (86) 
[H]c1c(N2C([H])([H])C([H])([H])N(C(=O)N3C([H])([H])C([H])([H])C([H])([H])C([H])(n4nc(-c5c([H])c([H])c(Oc6c([H])c([H])c(F)c([H])c6F)c([H])c5[H])c(C(=O)N([H])[H])c4N([H])[H])C3([H])[H])C([H])([H])C2([H])[H])nc(C([H])([H])[H])c(C([H])([H])Oc2c([H])c([H])c3c(c2[H])C([H])([H])N(C(=O)C([H])(N([H])C(=O)C([H])(N([H])C([H])([H])[H])C([H])([H])[H])C(C([H])([H])[H])(C([H])([H])[H])C([H])([H])[H])C([H])(C(=O)N([H])C2([H])c4c([H])c([H])c([H])c([H])c4C([H])([H])C([H])([H])C2([H])[H])C3([H])[H])c1[H]

$$$$
87:0:0
     RDKit          3D

100110  0  0  1  0  0  0  0  0999 V2000
  -29.1930  -23.0800   19.5170 C   0  0  0  0  0  3  0  0  0  0  0  0
  -28.6710  -21.3050   21.5240 C   0  0  0  0  0  3  0  0  0  0  0  0
  -29.4820  -21.6710   19.3300 C   0  0  0  0  0  0  0  0  0  0  0  0
  -29.2390  -20.6940   20.3660 C   0  0  0  0  0  0  0  0  0  0  0  0
  -28.6520  -23.5830   20.7270 C   0  0  0  0  0  0  0  0  0  0  0  0
  -28.3900  -22.6430   21.6870 N   0  0  0  0  0  0  0  0  0  0  0  0
  -30.9140  -14.8850   20.2540 C   0  0  0  0  0  0  0  0  0  0  0  0
  -30.6270  -12.5980   19.2660 C   0  0  0  0  0  2  0  0  0  0  0  0
  -29.6800  -12.6090   18.0510 C   0  0  0  0  0  2  0  0  0  0  0  0
  -28.2250  -12.4110   18.5140 C   0  0  0  0  0  2  0  0  0  0  0  0
  -27.8550  -13.3150   19.7200 C   0  0  0  0  0  3  0  0  0  0  0  0
  -28.9390  -13.3060   20.8200 C   0  0  0  0  0  2  0  0  0  0  0  0
  -30.1950  -13.7010   20.1710 N   0  0  0  0  0  0  0  0  0  0  0  0
  -32.1170  -14.8000   19.9890 O   0  0  0  0  0  0  0  0  0  0  0  0
  -30.9000  -18.8230   20.5340 C   0  0  0  0  0  3  0  0  0  0  0  0
  -28.6510  -18.2100   20.8250 C   0  0  0  0  0  3  0  0  0  0  0  0
  -31.2750  -17.3580   20.0700 C   0  0  0  0  0  3  0  0  0  0  0  0
  -28.9510  -16.6840   20.4120 C   0  0  0  0  0  3  0  0  0  0  0  0
  -29.5280  -19.2550   20.2420 N   0  0  0  0  0  0  0  0  0  0  0  0
  -30.3650  -16.1930   20.3610 N   0  0  0  0  0  0  0  0  0  0  0  0
  -25.4880  -13.8770   20.5130 C   0  0  0  0  0  0  0  0  0  0  0  0
  -24.4330  -13.0920   20.8890 C   0  0  0  0  0  0  0  0  0  0  0  0
  -24.9000  -11.7440   20.8250 C   0  0  0  0  0  0  0  0  0  0  0  0
  -26.5290  -13.0070   20.2410 N   0  0  0  0  0  0  0  0  0  0  0  0
  -26.1860  -11.7180   20.4940 N   0  0  0  0  0  0  0  0  0  0  0  0
  -24.1810  -10.4760   21.0020 C   0  0  0  0  0  0  0  0  0  0  0  0
  -24.6000   -9.5130   21.9450 C   0  0  0  0  0  3  0  0  0  0  0  0
  -23.8810   -8.3110   22.1110 C   0  0  0  0  0  3  0  0  0  0  0  0
  -22.7260   -8.0630   21.3330 C   0  0  0  0  0  0  0  0  0  0  0  0
  -22.3240   -9.0130   20.3790 C   0  0  0  0  0  3  0  0  0  0  0  0
  -23.0450  -10.2070   20.2110 C   0  0  0  0  0  3  0  0  0  0  0  0
  -21.9770   -6.9130   21.4090 O   0  0  0  0  0  0  0  0  0  0  0  0
  -21.8620   -6.2040   22.5790 C   0  0  0  0  0  0  0  0  0  0  0  0
  -21.2770   -6.7650   23.7350 C   0  0  0  0  0  3  0  0  0  0  0  0
  -21.1160   -5.9800   24.8940 C   0  0  0  0  0  3  0  0  0  0  0  0
  -21.5290   -4.6340   24.8970 C   0  0  0  0  0  0  0  0  0  0  0  0
  -22.1050   -4.0730   23.7440 C   0  0  0  0  0  3  0  0  0  0  0  0
  -22.2690   -4.8560   22.5870 C   0  0  0  0  0  0  0  0  0  0  0  0
  -22.8070   -4.3030   21.4730 F   0  0  0  0  0  0  0  0  0  0  0  0
  -21.3670   -3.8770   26.0060 F   0  0  0  0  0  0  0  0  0  0  0  0
  -23.0400  -13.5610   21.1880 C   0  0  0  0  0  0  0  0  0  0  0  0
  -22.3320  -12.8620   22.0680 N   0  0  0  0  0  0  0  0  0  0  0  0
  -22.5880  -14.5880   20.6820 O   0  0  0  0  0  0  0  0  0  0  0  0
  -22.7090  -12.0320   22.5020 H   0  0  0  0  0  0  0  0  0  0  0  0
  -21.3990  -13.1630   22.3110 H   0  0  0  0  0  0  0  0  0  0  0  0
  -25.6400  -15.2510   20.3510 N   0  0  0  0  0  0  0  0  0  0  0  0
  -24.8650  -15.8940   20.4750 H   0  0  0  0  0  0  0  0  0  0  0  0
  -26.4670  -15.6920   19.9740 H   0  0  0  0  0  0  0  0  0  0  0  0
  -29.6730  -21.0750   15.5930 C   0  0  0  0  0  2  0  0  0  0  0  0
  -29.9750  -21.2110   17.9550 C   0  0  0  0  0  3  0  0  0  0  0  0
  -28.8720  -21.1130   16.8980 C   0  0  0  0  0  3  0  0  0  0  0  0
  -31.0140  -22.1320   17.2870 C   0  0  0  0  0  3  0  0  0  0  0  0
  -27.9190  -19.9180   17.0790 C   0  0  0  0  0  1  0  0  0  0  0  0
  -32.4420  -21.9270   17.8220 C   0  0  0  0  0  1  0  0  0  0  0  0
  -31.0540  -23.0340   14.9700 C   0  0  0  0  0  1  0  0  0  0  0  0
  -30.9220  -21.8390   15.8330 N   0  0  2  0  0  4  0  0  0  0  0  0
  -31.6810  -21.2200   15.5930 H   0  0  0  0  0  0  0  0  0  0  0  0
  -28.7990  -25.5300   22.4180 C   0  0  0  0  0  1  0  0  0  0  0  0
  -28.1940  -25.1070   21.0670 C   0  0  0  0  0  3  0  0  0  0  0  0
  -28.4380  -26.3320   20.2140 O   0  0  0  0  0  0  0  0  0  0  0  0
  -24.6680  -31.8050   23.2330 C   0  0  0  0  0  0  0  0  0  0  0  0
  -27.3830  -27.2790   20.1690 C   0  0  0  0  0  0  0  0  0  0  0  0
  -23.5210  -30.4240   21.5420 C   0  0  0  0  0  3  0  0  0  0  0  0
  -25.0220  -28.9160   20.1150 C   0  0  0  0  0  0  0  0  0  0  0  0
  -26.0640  -30.7630   21.4220 C   0  0  0  0  0  2  0  0  0  0  0  0
  -26.1770  -29.3930   20.7510 C   0  0  0  0  0  0  0  0  0  0  0  0
  -27.3660  -28.5890   20.7650 C   0  0  0  0  0  3  0  0  0  0  0  0
  -26.2110  -26.8780   19.4960 C   0  0  0  0  0  3  0  0  0  0  0  0
  -25.0460  -27.6680   19.4730 C   0  0  0  0  0  3  0  0  0  0  0  0
  -23.7760  -29.7800   20.1540 C   0  0  0  0  0  2  0  0  0  0  0  0
  -24.7690  -31.0160   22.1230 N   0  0  0  0  0  0  0  0  0  0  0  0
  -23.5680  -32.0590   23.7480 O   0  0  0  0  0  0  0  0  0  0  0  0
  -22.8480  -29.3820   22.4690 C   0  0  0  0  0  0  0  0  0  0  0  0
  -21.5300  -29.1780   22.3000 N   0  0  0  0  0  0  0  0  0  0  0  0
  -23.5140  -28.7590   23.3010 O   0  0  0  0  0  0  0  0  0  0  0  0
  -21.0500  -29.7320   21.6060 H   0  0  0  0  0  0  0  0  0  0  0  0
  -18.1630  -27.9070   22.6950 C   0  0  0  0  0  0  0  0  0  0  0  0
  -20.7090  -28.2110   23.0340 C   0  0  0  0  0  3  0  0  0  0  0  0
  -20.8520  -26.7920   22.4380 C   0  0  0  0  0  2  0  0  0  0  0  0
  -19.7830  -26.4660   21.3910 C   0  0  0  0  0  2  0  0  0  0  0  0
  -18.3830  -26.5740   22.0010 C   0  0  0  0  0  2  0  0  0  0  0  0
  -19.2550  -28.6840   23.1660 C   0  0  0  0  0  0  0  0  0  0  0  0
  -18.9960  -29.9310   23.7740 C   0  0  0  0  0  3  0  0  0  0  0  0
  -17.6780  -30.4020   23.9160 C   0  0  0  0  0  3  0  0  0  0  0  0
  -16.6000  -29.6240   23.4610 C   0  0  0  0  0  3  0  0  0  0  0  0
  -16.8430  -28.3780   22.8560 C   0  0  0  0  0  3  0  0  0  0  0  0
  -25.9250  -32.4440   23.8970 C   0  0  0  0  0  3  0  0  0  0  0  0
  -25.5970  -33.8430   24.2160 N   0  0  0  0  0  0  0  0  0  0  0  0
  -25.9520  -34.8990   23.4730 C   0  0  0  0  0  0  0  0  0  0  0  0
  -26.6580  -34.7990   22.4650 O   0  0  0  0  0  0  0  0  0  0  0  0
  -24.9690  -33.9920   24.9920 H   0  0  0  0  0  0  0  0  0  0  0  0
  -24.2530  -36.7040   23.0420 C   0  0  0  0  0  1  0  0  0  0  0  0
  -25.4460  -36.2850   23.9160 C   0  0  0  0  0  3  0  0  0  0  0  0
  -27.5250  -37.1620   24.8850 C   0  0  0  0  0  1  0  0  0  0  0  0
  -26.4860  -37.3350   23.8730 N   0  0  0  0  0  0  0  0  0  0  0  0
  -26.0740  -38.2560   23.9960 H   0  0  0  0  0  0  0  0  0  0  0  0
  -26.4000  -31.6780   25.1930 C   0  0  1  0  0  0  0  0  0  0  0  0
  -25.2700  -31.4340   26.2200 C   0  0  0  0  0  1  0  0  0  0  0  0
  -27.0060  -30.3040   24.8240 C   0  0  0  0  0  1  0  0  0  0  0  0
  -27.5210  -32.4810   25.8940 C   0  0  0  0  0  1  0  0  0  0  0  0
  1  5  1  0
  2  6  1  0
  3  1  2  0
  3  4  1  0
  4  2  2  0
  5 59  1  0
  5  6  2  0
  7 20  1  0
  8 13  1  0
  9 10  1  0
  9  8  1  0
 11 10  1  0
 11 24  1  0
 11 12  1  0
 13  7  1  0
 13 12  1  0
 14  7  2  0
 17 20  1  0
 17 15  2  0
 18 16  2  0
 19  4  1  0
 19 15  1  0
 19 16  1  0
 20 18  1  0
 21 22  2  0
 22 41  1  0
 23 22  1  0
 23 26  1  0
 24 25  1  0
 24 21  1  0
 25 23  2  0
 26 27  1  0
 27 28  2  0
 29 32  1  0
 29 28  1  0
 30 29  2  0
 31 30  1  0
 31 26  2  0
 32 33  1  0
 33 38  2  0
 33 34  1  0
 34 35  2  0
 35 36  1  0
 36 40  1  0
 37 36  2  0
 38 37  1  0
 39 38  1  0
 41 42  1  0
 42 45  1  0
 42 44  1  0
 43 41  2  0
 46 47  1  0
 46 21  1  0
 48 46  1  0
 49 56  1  0
 49 51  1  0
 50  3  1  0
 51 53  1  0
 51 50  1  0
 52 54  1  0
 52 50  1  0
 55 56  1  0
 56 52  1  0
 56 57  1  6
 59 58  1  0
 60 59  1  0
 61 72  2  0
 62 60  1  0
 62 67  1  0
 63 71  1  0
 63 73  1  0
 64 70  1  0
 64 66  1  0
 65 71  1  0
 66 67  2  0
 66 65  1  0
 68 62  2  0
 69 68  1  0
 69 64  2  0
 70 63  1  0
 71 61  1  0
 73 75  2  0
 74 73  1  0
 76 74  1  0
 77 86  2  0
 77 82  1  0
 78 74  1  0
 78 82  1  0
 79 78  1  0
 80 81  1  0
 80 79  1  0
 81 77  1  0
 82 83  2  0
 83 84  1  0
 85 84  2  0
 86 85  1  0
 87 61  1  0
 87 88  1  0
 87 97  1  0
 88 91  1  0
 89 93  1  0
 89 88  1  0
 90 89  2  0
 93 92  1  0
 95 93  1  0
 95 96  1  0
 95 94  1  0
 97100  1  1
 97 98  1  0
 99 97  1  0
M  ISO  4   7 100  20 100  59 101  60 101
M  END
>  <TORSDO>  (87) 
F 18

>  <SCORE>  (87) 
-14.757

>  <name>  (87) 
87

>  <ligand_id>  (87) 
87

>  <original_smiles>  (87) 
[H]c1nc(C([H])(Oc2c([H])c([H])c3c(c2[H])C([H])([H])N(C(=O)C([H])(N([H])C(=O)C([H])(N([H])C([H])([H])[H])C([H])([H])[H])C(C([H])([H])[H])(C([H])([H])[H])C([H])([H])[H])C([H])(C(=O)N([H])C2([H])c4c([H])c([H])c([H])c([H])c4C([H])([H])C([H])([H])C2([H])[H])C3([H])[H])C([H])([H])[H])c([H])c(C2([H])C([H])(C([H])([H])[H])C([H])([H])[N+]([H])(C([H])([H])[H])C2([H])C([H])([H])[H])c1N1C([H])([H])C([H])([H])N(C(=O)N2C([H])([H])C([H])([H])C([H])([H])C([H])(n3nc(-c4c([H])c([H])c(Oc5c([H])c([H])c(F)c([H])c5F)c([H])c4[H])c(C(=O)N([H])[H])c3N([H])[H])C2([H])[H])C([H])([H])C1([H])[H]

>  <smiles>  (87) 
[H]c1nc(C([H])(Oc2c([H])c([H])c3c(c2[H])C([H])([H])N(C(=O)C([H])(N([H])C(=O)C([H])(N([H])C([H])([H])[H])C([H])([H])[H])C(C([H])([H])[H])(C([H])([H])[H])C([H])([H])[H])C([H])(C(=O)N([H])C2([H])c4c([H])c([H])c([H])c([H])c4C([H])([H])C([H])([H])C2([H])[H])C3([H])[H])C([H])([H])[H])c([H])c(C2([H])C([H])(C([H])([H])[H])C([H])([H])[N+]([H])(C([H])([H])[H])C2([H])C([H])([H])[H])c1N1C([H])([H])C([H])([H])N(C(=O)N2C([H])([H])C([H])([H])C([H])([H])C([H])(n3nc(-c4c([H])c([H])c(Oc5c([H])c([H])c(F)c([H])c5F)c([H])c4[H])c(C(=O)N([H])[H])c3N([H])[H])C2([H])[H])C([H])([H])C1([H])[H]

$$$$
88:0:0
     RDKit          3D

 99109  0  0  1  0  0  0  0  0999 V2000
  -30.7110  -14.4470   20.5480 C   0  0  0  0  0  0  0  0  0  0  0  0
  -30.4150  -12.2830   19.4200 C   0  0  0  0  0  2  0  0  0  0  0  0
  -29.4910  -12.4920   18.2030 C   0  0  0  0  0  2  0  0  0  0  0  0
  -28.0130  -12.3590   18.6170 C   0  0  0  0  0  2  0  0  0  0  0  0
  -27.6590  -13.2050   19.8710 C   0  0  0  0  0  3  0  0  0  0  0  0
  -28.7010  -12.9960   20.9920 C   0  0  0  0  0  2  0  0  0  0  0  0
  -30.0310  -13.2770   20.4320 N   0  0  0  0  0  0  0  0  0  0  0  0
  -31.8710  -14.5890   20.1450 O   0  0  0  0  0  0  0  0  0  0  0  0
  -27.1240  -19.8340   20.3270 C   0  0  0  0  0  3  0  0  0  0  0  0
  -26.8470  -21.7950   21.6940 C   0  0  0  0  0  0  0  0  0  0  0  0
  -26.5030  -21.0900   20.5220 C   0  0  0  0  0  0  0  0  0  0  0  0
  -27.7190  -21.2050   22.5980 C   0  0  0  0  0  0  0  0  0  0  0  0
  -28.0240  -19.3240   21.2970 C   0  0  0  0  0  0  0  0  0  0  0  0
  -27.9200  -22.0500   23.8250 C   0  0  0  0  0  2  0  0  0  0  0  0
  -26.8680  -23.1760   23.6700 C   0  0  0  0  0  2  0  0  0  0  0  0
  -28.7980  -17.5320   19.7800 C   0  0  0  0  0  2  0  0  0  0  0  0
  -28.6770  -17.1250   22.2140 C   0  0  0  0  0  2  0  0  0  0  0  0
  -29.9970  -16.5770   19.7020 C   0  0  0  0  0  2  0  0  0  0  0  0
  -29.8470  -16.1190   22.0930 C   0  0  0  0  0  2  0  0  0  0  0  0
  -26.3260  -23.1310   22.2130 C   0  0  0  0  0  3  0  0  0  0  0  0
  -25.5060  -21.6260   19.5140 C   0  0  0  0  0  1  0  0  0  0  0  0
  -28.3070  -20.0020   22.4340 N   0  0  0  0  0  0  0  0  0  0  0  0
  -28.6960  -18.0970   21.1200 N   0  0  0  0  0  0  0  0  0  0  0  0
  -29.9360  -15.5370   20.7440 N   0  0  0  0  0  0  0  0  0  0  0  0
  -25.2590  -13.8150   20.5680 C   0  0  0  0  0  0  0  0  0  0  0  0
  -24.1840  -13.0450   20.9190 C   0  0  0  0  0  0  0  0  0  0  0  0
  -24.6380  -11.6910   20.8740 C   0  0  0  0  0  0  0  0  0  0  0  0
  -26.3010  -12.9320   20.3340 N   0  0  0  0  0  0  0  0  0  0  0  0
  -25.9310  -11.6480   20.5760 N   0  0  0  0  0  0  0  0  0  0  0  0
  -23.9040  -10.4300   21.0410 C   0  0  0  0  0  0  0  0  0  0  0  0
  -24.3590   -9.4210   21.9190 C   0  0  0  0  0  3  0  0  0  0  0  0
  -23.6280   -8.2250   22.0760 C   0  0  0  0  0  3  0  0  0  0  0  0
  -22.4260   -8.0280   21.3550 C   0  0  0  0  0  0  0  0  0  0  0  0
  -21.9890   -9.0250   20.4660 C   0  0  0  0  0  3  0  0  0  0  0  0
  -22.7210  -10.2140   20.3060 C   0  0  0  0  0  3  0  0  0  0  0  0
  -21.6650   -6.8860   21.4230 O   0  0  0  0  0  0  0  0  0  0  0  0
  -21.6860   -6.0720   22.5270 C   0  0  0  0  0  0  0  0  0  0  0  0
  -21.4010   -6.5620   23.8200 C   0  0  0  0  0  3  0  0  0  0  0  0
  -21.3660   -5.6790   24.9170 C   0  0  0  0  0  3  0  0  0  0  0  0
  -21.6050   -4.3050   24.7230 C   0  0  0  0  0  0  0  0  0  0  0  0
  -21.8820   -3.8130   23.4350 C   0  0  0  0  0  3  0  0  0  0  0  0
  -21.9200   -4.6950   22.3400 C   0  0  0  0  0  0  0  0  0  0  0  0
  -22.1670   -4.2130   21.0980 F   0  0  0  0  0  0  0  0  0  0  0  0
  -21.5630   -3.4540   25.7740 F   0  0  0  0  0  0  0  0  0  0  0  0
  -22.7860  -13.5260   21.1850 C   0  0  0  0  0  0  0  0  0  0  0  0
  -22.0490  -12.8260   22.0390 N   0  0  0  0  0  0  0  0  0  0  0  0
  -22.3540  -14.5580   20.6710 O   0  0  0  0  0  0  0  0  0  0  0  0
  -22.4100  -11.9920   22.4780 H   0  0  0  0  0  0  0  0  0  0  0  0
  -21.1110  -13.1300   22.2620 H   0  0  0  0  0  0  0  0  0  0  0  0
  -25.4330  -15.1860   20.4100 N   0  0  0  0  0  0  0  0  0  0  0  0
  -24.6700  -15.8440   20.5200 H   0  0  0  0  0  0  0  0  0  0  0  0
  -26.2930  -15.6170   20.0980 H   0  0  0  0  0  0  0  0  0  0  0  0
  -26.7400  -24.3290   21.4300 N   0  0  0  0  0  4  0  0  0  0  0  0
  -26.4840  -25.1440   21.9660 H   0  0  0  0  0  0  0  0  0  0  0  0
  -26.1880  -24.3620   20.5880 H   0  0  0  0  0  0  0  0  0  0  0  0
  -28.1740  -24.4300   21.0500 C   0  0  0  0  0  2  0  0  0  0  0  0
  -28.6560  -26.5140   22.5170 C   0  0  0  0  0  1  0  0  0  0  0  0
  -28.7580  -25.8630   21.1270 C   0  0  0  0  0  3  0  0  0  0  0  0
  -28.3960  -26.7200   20.0300 O   0  0  0  0  0  0  0  0  0  0  0  0
  -24.6160  -31.8700   23.2110 C   0  0  0  0  0  0  0  0  0  0  0  0
  -27.2300  -27.4440   20.1070 C   0  0  0  0  0  0  0  0  0  0  0  0
  -23.4010  -30.4930   21.5500 C   0  0  0  0  0  3  0  0  0  0  0  0
  -24.8480  -28.9540   20.1220 C   0  0  0  0  0  0  0  0  0  0  0  0
  -25.9270  -30.8380   21.3630 C   0  0  0  0  0  2  0  0  0  0  0  0
  -26.0040  -29.4690   20.7210 C   0  0  0  0  0  0  0  0  0  0  0  0
  -27.2000  -28.7220   20.7110 C   0  0  0  0  0  3  0  0  0  0  0  0
  -26.0670  -26.9470   19.4870 C   0  0  0  0  0  3  0  0  0  0  0  0
  -24.8720  -27.6900   19.5040 C   0  0  0  0  0  3  0  0  0  0  0  0
  -23.6120  -29.8250   20.1660 C   0  0  0  0  0  2  0  0  0  0  0  0
  -24.6660  -31.0810   22.1010 N   0  0  0  0  0  0  0  0  0  0  0  0
  -23.5350  -32.1440   23.7520 O   0  0  0  0  0  0  0  0  0  0  0  0
  -22.7400  -29.4660   22.4970 C   0  0  0  0  0  0  0  0  0  0  0  0
  -21.4120  -29.3040   22.3700 N   0  0  0  0  0  0  0  0  0  0  0  0
  -23.4170  -28.8180   23.3000 O   0  0  0  0  0  0  0  0  0  0  0  0
  -20.9270  -29.8780   21.6940 H   0  0  0  0  0  0  0  0  0  0  0  0
  -18.0260  -28.1370   22.8510 C   0  0  0  0  0  0  0  0  0  0  0  0
  -20.5860  -28.3670   23.1290 C   0  0  0  0  0  3  0  0  0  0  0  0
  -20.6750  -26.9400   22.5380 C   0  0  0  0  0  2  0  0  0  0  0  0
  -19.5690  -26.6350   21.5220 C   0  0  0  0  0  2  0  0  0  0  0  0
  -18.1890  -26.7910   22.1660 C   0  0  0  0  0  2  0  0  0  0  0  0
  -19.1520  -28.8840   23.2880 C   0  0  0  0  0  0  0  0  0  0  0  0
  -18.9460  -30.1470   23.8860 C   0  0  0  0  0  3  0  0  0  0  0  0
  -17.6470  -30.6600   24.0550 C   0  0  0  0  0  3  0  0  0  0  0  0
  -16.5350  -29.9100   23.6360 C   0  0  0  0  0  3  0  0  0  0  0  0
  -16.7260  -28.6500   23.0400 C   0  0  0  0  0  3  0  0  0  0  0  0
  -25.9070  -32.4820   23.8410 C   0  0  0  0  0  3  0  0  0  0  0  0
  -25.5950  -33.8610   24.2370 N   0  0  0  0  0  0  0  0  0  0  0  0
  -25.9030  -34.9470   23.5140 C   0  0  0  0  0  0  0  0  0  0  0  0
  -26.5560  -34.8920   22.4690 O   0  0  0  0  0  0  0  0  0  0  0  0
  -25.0200  -33.9790   25.0580 H   0  0  0  0  0  0  0  0  0  0  0  0
  -24.1490  -36.7300   23.2630 C   0  0  0  0  0  1  0  0  0  0  0  0
  -25.4110  -36.3110   24.0340 C   0  0  0  0  0  3  0  0  0  0  0  0
  -27.5580  -37.1810   24.8460 C   0  0  0  0  0  1  0  0  0  0  0  0
  -26.4300  -37.3800   23.9400 N   0  0  0  0  0  0  0  0  0  0  0  0
  -26.0190  -38.2890   24.1400 H   0  0  0  0  0  0  0  0  0  0  0  0
  -26.4480  -31.6570   25.0740 C   0  0  1  0  0  0  0  0  0  0  0  0
  -25.3750  -31.3680   26.1490 C   0  0  0  0  0  1  0  0  0  0  0  0
  -27.0270  -30.2990   24.6100 C   0  0  0  0  0  1  0  0  0  0  0  0
  -27.6090  -32.4230   25.7500 C   0  0  0  0  0  1  0  0  0  0  0  0
  1 24  1  0
  2  7  1  0
  3  4  1  0
  3  2  1  0
  5  4  1  0
  5 28  1  0
  5  6  1  0
  7  1  1  0
  7  6  1  0
  8  1  2  0
  9 11  2  0
  9 13  1  0
 10 20  1  0
 10 12  2  0
 11 10  1  0
 12 14  1  0
 13 22  2  0
 15 14  1  0
 16 23  1  0
 18 16  1  0
 18 24  1  0
 19 17  1  0
 20 53  1  0
 20 15  1  0
 21 11  1  0
 22 12  1  0
 23 13  1  0
 23 17  1  0
 24 19  1  0
 25 26  2  0
 26 45  1  0
 27 26  1  0
 27 30  1  0
 28 25  1  0
 28 29  1  0
 29 27  2  0
 30 31  1  0
 31 32  2  0
 33 36  1  0
 33 32  1  0
 34 33  2  0
 35 34  1  0
 35 30  2  0
 36 37  1  0
 37 38  1  0
 38 39  2  0
 40 39  1  0
 40 44  1  0
 41 40  2  0
 42 37  2  0
 42 41  1  0
 43 42  1  0
 45 46  1  0
 46 49  1  0
 46 48  1  0
 47 45  2  0
 50 51  1  0
 50 25  1  0
 52 50  1  0
 53 54  1  0
 55 53  1  0
 56 58  1  0
 56 53  1  0
 58 57  1  0
 59 61  1  0
 59 58  1  0
 60 71  2  0
 61 66  1  0
 62 70  1  0
 62 72  1  0
 63 69  1  0
 63 65  1  0
 64 70  1  0
 65 64  1  0
 66 65  2  0
 67 68  1  0
 67 61  2  0
 68 63  2  0
 69 62  1  0
 70 60  1  0
 72 74  2  0
 73 72  1  0
 75 73  1  0
 76 85  2  0
 76 81  1  0
 77 73  1  0
 77 81  1  0
 78 77  1  0
 79 80  1  0
 79 78  1  0
 80 76  1  0
 81 82  2  0
 82 83  1  0
 84 83  2  0
 85 84  1  0
 86 60  1  0
 86 87  1  0
 86 96  1  0
 87 90  1  0
 88 92  1  0
 88 87  1  0
 89 88  2  0
 92 91  1  0
 94 92  1  0
 94 95  1  0
 94 93  1  0
 96 99  1  1
 96 97  1  0
 98 96  1  0
M  ISO  4   1 100  24 100  58 101  59 101
M  END
>  <TORSDO>  (88) 
F 18

>  <SCORE>  (88) 
8.554

>  <name>  (88) 
88

>  <ligand_id>  (88) 
88

>  <original_smiles>  (88) 
[H]c1c([H])c([H])c2c(c1[H])C([H])([H])C([H])([H])C([H])([H])C2([H])N([H])C(=O)C1([H])N(C(=O)C([H])(N([H])C(=O)C([H])(N([H])C([H])([H])[H])C([H])([H])[H])C(C([H])([H])[H])(C([H])([H])[H])C([H])([H])[H])C([H])([H])c2c([H])c(OC([H])(C([H])([H])[H])C([H])([H])[N+]([H])([H])C3([H])c4c(nc(N5C([H])([H])C([H])([H])N(C(=O)N6C([H])([H])C([H])([H])C([H])([H])C([H])(n7nc(-c8c([H])c([H])c(Oc9c([H])c([H])c(F)c([H])c9F)c([H])c8[H])c(C(=O)N([H])[H])c7N([H])[H])C6([H])[H])C([H])([H])C5([H])[H])c([H])c4C([H])([H])[H])C([H])([H])C3([H])[H])c([H])c([H])c2C1([H])[H]

>  <smiles>  (88) 
[H]c1c([H])c([H])c2c(c1[H])C([H])([H])C([H])([H])C([H])([H])C2([H])N([H])C(=O)C1([H])N(C(=O)C([H])(N([H])C(=O)C([H])(N([H])C([H])([H])[H])C([H])([H])[H])C(C([H])([H])[H])(C([H])([H])[H])C([H])([H])[H])C([H])([H])c2c([H])c(OC([H])(C([H])([H])[H])C([H])([H])[N+]([H])([H])C3([H])c4c(nc(N5C([H])([H])C([H])([H])N(C(=O)N6C([H])([H])C([H])([H])C([H])([H])C([H])(n7nc(-c8c([H])c([H])c(Oc9c([H])c([H])c(F)c([H])c9F)c([H])c8[H])c(C(=O)N([H])[H])c7N([H])[H])C6([H])[H])C([H])([H])C5([H])[H])c([H])c4C([H])([H])[H])C([H])([H])C3([H])[H])c([H])c([H])c2C1([H])[H]

$$$$
89:0:0
     RDKit          3D

 93102  0  0  1  0  0  0  0  0999 V2000
  -30.2650  -20.8560   20.9450 C   0  0  0  0  0  3  0  0  0  0  0  0
  -29.7870  -22.2730   20.9280 C   0  0  0  0  0  3  0  0  0  0  0  0
  -27.9770  -21.6200   19.6260 C   0  0  0  0  0  3  0  0  0  0  0  0
  -29.5990  -19.7120   20.3310 C   0  0  0  0  0  0  0  0  0  0  0  0
  -28.4530  -20.2150   19.6700 C   0  0  0  0  0  0  0  0  0  0  0  0
  -28.6030  -22.7970   20.2470 C   0  0  0  0  0  0  0  0  0  0  0  0
  -27.8780  -19.0140   18.9400 C   0  0  0  0  0  2  0  0  0  0  0  0
  -30.0510  -18.1190   19.8780 C   0  0  0  0  0  3  0  0  0  0  0  0
  -29.0840  -18.0340   18.6190 C   0  0  0  0  0  3  0  0  0  0  0  0
  -30.7410  -15.3570   20.3040 C   0  0  0  0  0  0  0  0  0  0  0  0
  -30.6590  -12.9520   19.3900 C   0  0  0  0  0  2  0  0  0  0  0  0
  -29.7540  -12.8600   18.1380 C   0  0  0  0  0  2  0  0  0  0  0  0
  -28.2930  -12.6110   18.5510 C   0  0  0  0  0  2  0  0  0  0  0  0
  -27.8560  -13.5480   19.7050 C   0  0  0  0  0  3  0  0  0  0  0  0
  -28.8850  -13.6230   20.8530 C   0  0  0  0  0  2  0  0  0  0  0  0
  -30.1560  -14.0710   20.2660 N   0  0  0  0  0  0  0  0  0  0  0  0
  -31.9290  -15.3700   19.9510 O   0  0  0  0  0  0  0  0  0  0  0  0
  -30.0080  -16.6110   20.5310 N   0  0  0  0  0  0  0  0  0  0  0  0
  -29.1290  -16.4450   21.0000 H   0  0  0  0  0  0  0  0  0  0  0  0
  -25.4660  -14.1210   20.4000 C   0  0  0  0  0  0  0  0  0  0  0  0
  -24.3930  -13.3500   20.7510 C   0  0  0  0  0  0  0  0  0  0  0  0
  -24.8590  -11.9970   20.7380 C   0  0  0  0  0  0  0  0  0  0  0  0
  -26.5130  -13.2410   20.1840 N   0  0  0  0  0  0  0  0  0  0  0  0
  -26.1570  -11.9580   20.4570 N   0  0  0  0  0  0  0  0  0  0  0  0
  -24.1280  -10.7370   20.9250 C   0  0  0  0  0  0  0  0  0  0  0  0
  -24.5100   -9.7910   21.9000 C   0  0  0  0  0  3  0  0  0  0  0  0
  -23.7730   -8.5980   22.0690 C   0  0  0  0  0  3  0  0  0  0  0  0
  -22.6380   -8.3440   21.2640 C   0  0  0  0  0  0  0  0  0  0  0  0
  -22.2750   -9.2780   20.2790 C   0  0  0  0  0  3  0  0  0  0  0  0
  -23.0140  -10.4610   20.1080 C   0  0  0  0  0  3  0  0  0  0  0  0
  -21.8760   -7.2030   21.3440 O   0  0  0  0  0  0  0  0  0  0  0  0
  -21.7420   -6.5060   22.5170 C   0  0  0  0  0  0  0  0  0  0  0  0
  -21.2050   -7.1050   23.6770 C   0  0  0  0  0  3  0  0  0  0  0  0
  -21.0160   -6.3360   24.8430 C   0  0  0  0  0  3  0  0  0  0  0  0
  -21.3540   -4.9700   24.8510 C   0  0  0  0  0  0  0  0  0  0  0  0
  -21.8810   -4.3710   23.6940 C   0  0  0  0  0  3  0  0  0  0  0  0
  -22.0690   -5.1350   22.5280 C   0  0  0  0  0  0  0  0  0  0  0  0
  -22.5590   -4.5480   21.4110 F   0  0  0  0  0  0  0  0  0  0  0  0
  -21.1650   -4.2280   25.9680 F   0  0  0  0  0  0  0  0  0  0  0  0
  -22.9930  -13.8290   20.9860 C   0  0  0  0  0  0  0  0  0  0  0  0
  -22.2580  -13.1630   21.8690 N   0  0  0  0  0  0  0  0  0  0  0  0
  -22.5610  -14.8370   20.4260 O   0  0  0  0  0  0  0  0  0  0  0  0
  -22.6100  -12.3410   22.3380 H   0  0  0  0  0  0  0  0  0  0  0  0
  -21.3230  -13.4780   22.0830 H   0  0  0  0  0  0  0  0  0  0  0  0
  -25.6340  -15.4920   20.2110 N   0  0  0  0  0  0  0  0  0  0  0  0
  -24.8600  -16.1450   20.2890 H   0  0  0  0  0  0  0  0  0  0  0  0
  -26.4950  -15.9370   19.9290 H   0  0  0  0  0  0  0  0  0  0  0  0
  -30.9040  -17.4840   17.0070 C   0  0  0  0  0  1  0  0  0  0  0  0
  -28.8950  -18.5580   16.1680 C   0  0  0  0  0  1  0  0  0  0  0  0
  -29.7930  -18.4120   17.3470 N   0  0  1  0  0  4  0  0  0  0  0  0
  -30.2100  -19.3180   17.4990 H   0  0  0  0  0  0  0  0  0  0  0  0
  -27.8350  -24.3710   20.2090 C   0  0  0  0  0  2  0  0  0  0  0  0
  -28.2390  -25.9600   20.2600 O   0  0  0  0  0  0  0  0  0  0  0  0
  -24.6380  -31.9410   23.1810 C   0  0  0  0  0  0  0  0  0  0  0  0
  -27.2300  -27.0610   20.2090 C   0  0  0  0  0  0  0  0  0  0  0  0
  -23.4570  -30.5020   21.5730 C   0  0  0  0  0  3  0  0  0  0  0  0
  -24.9170  -28.9140   20.1570 C   0  0  0  0  0  0  0  0  0  0  0  0
  -26.0180  -30.7560   21.4010 C   0  0  0  0  0  2  0  0  0  0  0  0
  -26.1050  -29.3390   20.7640 C   0  0  0  0  0  0  0  0  0  0  0  0
  -27.2600  -28.4290   20.7690 C   0  0  0  0  0  3  0  0  0  0  0  0
  -26.0070  -26.7880   19.5570 C   0  0  0  0  0  3  0  0  0  0  0  0
  -24.8900  -27.6570   19.5420 C   0  0  0  0  0  3  0  0  0  0  0  0
  -23.6900  -29.8210   20.1950 C   0  0  0  0  0  2  0  0  0  0  0  0
  -24.7270  -31.0920   22.1080 N   0  0  0  0  0  0  0  0  0  0  0  0
  -23.5480  -32.2260   23.7060 O   0  0  0  0  0  0  0  0  0  0  0  0
  -22.7950  -29.5010   22.5560 C   0  0  0  0  0  0  0  0  0  0  0  0
  -21.4700  -29.3000   22.4420 N   0  0  0  0  0  0  0  0  0  0  0  0
  -23.4770  -28.9070   23.3940 O   0  0  0  0  0  0  0  0  0  0  0  0
  -20.9680  -29.8490   21.7580 H   0  0  0  0  0  0  0  0  0  0  0  0
  -18.1200  -28.0040   22.9710 C   0  0  0  0  0  0  0  0  0  0  0  0
  -20.6710  -28.3540   23.2320 C   0  0  0  0  0  3  0  0  0  0  0  0
  -20.8140  -26.9110   22.6930 C   0  0  0  0  0  2  0  0  0  0  0  0
  -19.7240  -26.5330   21.6860 C   0  0  0  0  0  2  0  0  0  0  0  0
  -18.3370  -26.6460   22.3260 C   0  0  0  0  0  2  0  0  0  0  0  0
  -19.2160  -28.8110   23.3800 C   0  0  0  0  0  0  0  0  0  0  0  0
  -18.9560  -30.0750   23.9500 C   0  0  0  0  0  3  0  0  0  0  0  0
  -17.6350  -30.5340   24.1160 C   0  0  0  0  0  3  0  0  0  0  0  0
  -16.5560  -29.7260   23.7190 C   0  0  0  0  0  3  0  0  0  0  0  0
  -16.7980  -28.4650   23.1470 C   0  0  0  0  0  3  0  0  0  0  0  0
  -25.9010  -32.6170   23.7910 C   0  0  0  0  0  3  0  0  0  0  0  0
  -25.5480  -34.0020   24.1400 N   0  0  0  0  0  0  0  0  0  0  0  0
  -25.8430  -35.0840   23.4090 C   0  0  0  0  0  0  0  0  0  0  0  0
  -26.5120  -35.0210   22.3750 O   0  0  0  0  0  0  0  0  0  0  0  0
  -24.9510  -34.1190   24.9460 H   0  0  0  0  0  0  0  0  0  0  0  0
  -24.0930  -36.8650   23.0810 C   0  0  0  0  0  1  0  0  0  0  0  0
  -25.3220  -36.4500   23.9030 C   0  0  0  0  0  3  0  0  0  0  0  0
  -27.4180  -37.3540   24.8040 C   0  0  0  0  0  1  0  0  0  0  0  0
  -26.3350  -37.5240   23.8430 N   0  0  0  0  0  0  0  0  0  0  0  0
  -25.9110  -38.4330   24.0080 H   0  0  0  0  0  0  0  0  0  0  0  0
  -26.4550  -31.8600   25.0610 C   0  0  1  0  0  0  0  0  0  0  0  0
  -25.3780  -31.5580   26.1280 C   0  0  0  0  0  1  0  0  0  0  0  0
  -27.1100  -30.5190   24.6600 C   0  0  0  0  0  1  0  0  0  0  0  0
  -27.5630  -32.7070   25.7280 C   0  0  0  0  0  1  0  0  0  0  0  0
  2  1  1  0
  3  5  2  0
  3  6  1  0
  4  1  2  0
  5  4  1  0
  6  2  2  0
  7  5  1  0
  8  4  1  0
  8 18  1  0
  9 50  1  0
  9  7  1  0
  9  8  1  0
 10 18  1  0
 11 16  1  0
 12 13  1  0
 12 11  1  0
 14 13  1  0
 14 23  1  0
 14 15  1  0
 16 10  1  0
 16 15  1  0
 17 10  2  0
 18 19  1  0
 20 21  2  0
 21 40  1  0
 22 21  1  0
 22 25  1  0
 23 20  1  0
 23 24  1  0
 24 22  2  0
 25 26  1  0
 26 27  2  0
 28 31  1  0
 28 27  1  0
 29 28  2  0
 30 29  1  0
 30 25  2  0
 31 32  1  0
 32 37  2  0
 32 33  1  0
 33 34  2  0
 34 35  1  0
 35 39  1  0
 36 35  2  0
 37 36  1  0
 38 37  1  0
 40 41  1  0
 41 44  1  0
 41 43  1  0
 42 40  2  0
 45 46  1  0
 45 20  1  0
 47 45  1  0
 48 50  1  0
 49 50  1  0
 50 51  1  1
 52  6  1  0
 52 53  1  0
 54 65  2  0
 55 53  1  0
 55 60  1  0
 56 64  1  0
 56 66  1  0
 57 63  1  0
 57 59  1  0
 58 64  1  0
 59 60  2  0
 59 58  1  0
 61 55  2  0
 62 61  1  0
 62 57  2  0
 63 56  1  0
 64 54  1  0
 66 68  2  0
 67 66  1  0
 69 67  1  0
 70 79  2  0
 70 75  1  0
 71 67  1  0
 71 75  1  0
 72 71  1  0
 73 74  1  0
 73 72  1  0
 74 70  1  0
 75 76  2  0
 76 77  1  0
 78 77  2  0
 79 78  1  0
 80 54  1  0
 80 81  1  0
 80 90  1  0
 81 84  1  0
 82 86  1  0
 82 81  1  0
 83 82  2  0
 86 85  1  0
 88 86  1  0
 88 89  1  0
 88 87  1  0
 90 93  1  1
 90 91  1  0
 92 90  1  0
M  ISO  4  10 100  18 100  52 101  53 101
M  END
>  <TORSDO>  (89) 
F 18

>  <SCORE>  (89) 
-15.182

>  <name>  (89) 
89

>  <ligand_id>  (89) 
89

>  <original_smiles>  (89) 
[H]c1c([H])c([H])c2c(c1[H])C([H])([H])C([H])([H])C([H])([H])C2([H])N([H])C(=O)C1([H])N(C(=O)C([H])(N([H])C(=O)C([H])(N([H])C([H])([H])[H])C([H])([H])[H])C(C([H])([H])[H])(C([H])([H])[H])C([H])([H])[H])C([H])([H])c2c([H])c(OC([H])([H])c3c([H])c([H])c4c(c3[H])C([H])([H])C([H])([N+]([H])(C([H])([H])[H])C([H])([H])[H])C4([H])N([H])C(=O)N3C([H])([H])C([H])([H])C([H])([H])C([H])(n4nc(-c5c([H])c([H])c(Oc6c([H])c([H])c(F)c([H])c6F)c([H])c5[H])c(C(=O)N([H])[H])c4N([H])[H])C3([H])[H])c([H])c([H])c2C1([H])[H]

>  <smiles>  (89) 
[H]c1c([H])c([H])c2c(c1[H])C([H])([H])C([H])([H])C([H])([H])C2([H])N([H])C(=O)C1([H])N(C(=O)C([H])(N([H])C(=O)C([H])(N([H])C([H])([H])[H])C([H])([H])[H])C(C([H])([H])[H])(C([H])([H])[H])C([H])([H])[H])C([H])([H])c2c([H])c(OC([H])([H])c3c([H])c([H])c4c(c3[H])C([H])([H])C([H])([N+]([H])(C([H])([H])[H])C([H])([H])[H])C4([H])N([H])C(=O)N3C([H])([H])C([H])([H])C([H])([H])C([H])(n4nc(-c5c([H])c([H])c(Oc6c([H])c([H])c(F)c([H])c6F)c([H])c5[H])c(C(=O)N([H])[H])c4N([H])[H])C3([H])[H])c([H])c([H])c2C1([H])[H]

$$$$
90:0:0
     RDKit          3D

 93103  0  0  1  0  0  0  0  0999 V2000
  -28.7710  -21.3290   21.1750 C   0  0  0  0  0  3  0  0  0  0  0  0
  -28.4200  -22.7260   21.1670 C   0  0  0  0  0  3  0  0  0  0  0  0
  -29.2720  -20.6410   20.0270 C   0  0  0  0  0  0  0  0  0  0  0  0
  -29.3870  -21.4770   18.8760 C   0  0  0  0  0  0  0  0  0  0  0  0
  -29.0300  -22.8510   18.8630 C   0  0  0  0  0  0  0  0  0  0  0  0
  -28.5460  -23.5550   20.0100 C   0  0  0  0  0  0  0  0  0  0  0  0
  -29.8360  -21.0380   17.4930 C   0  0  0  0  0  2  0  0  0  0  0  0
  -29.1260  -23.4030   17.4540 C   0  0  0  0  0  2  0  0  0  0  0  0
  -29.9000  -22.3330   16.6610 C   0  0  0  0  0  2  0  0  0  0  0  0
  -30.7300  -14.7760   20.3700 C   0  0  0  0  0  0  0  0  0  0  0  0
  -30.4820  -12.5130   19.3760 C   0  0  0  0  0  2  0  0  0  0  0  0
  -29.5450  -12.5840   18.1550 C   0  0  0  0  0  2  0  0  0  0  0  0
  -28.0780  -12.4200   18.5950 C   0  0  0  0  0  2  0  0  0  0  0  0
  -27.7020  -13.3140   19.8090 C   0  0  0  0  0  3  0  0  0  0  0  0
  -28.7680  -13.2550   20.9230 C   0  0  0  0  0  2  0  0  0  0  0  0
  -30.0590  -13.5810   20.3080 N   0  0  0  0  0  0  0  0  0  0  0  0
  -31.9400  -14.8090   20.1160 O   0  0  0  0  0  0  0  0  0  0  0  0
  -29.8680  -18.4240   21.4300 C   0  0  0  0  0  2  0  0  0  0  0  0
  -28.9720  -18.0610   19.2070 C   0  0  0  0  0  2  0  0  0  0  0  0
  -30.5860  -17.0230   21.3730 C   0  0  0  0  0  2  0  0  0  0  0  0
  -29.6280  -16.6230   19.1710 C   0  0  0  0  0  2  0  0  0  0  0  0
  -29.7500  -19.1180   20.0490 C   0  0  0  0  0  3  0  0  0  0  0  0
  -30.0280  -15.9750   20.4610 N   0  0  0  0  0  0  0  0  0  0  0  0
  -25.3150  -13.9000   20.5390 C   0  0  0  0  0  0  0  0  0  0  0  0
  -24.2480  -13.1240   20.8970 C   0  0  0  0  0  0  0  0  0  0  0  0
  -24.7140  -11.7720   20.8620 C   0  0  0  0  0  0  0  0  0  0  0  0
  -26.3600  -13.0240   20.3030 N   0  0  0  0  0  0  0  0  0  0  0  0
  -26.0060  -11.7390   20.5610 N   0  0  0  0  0  0  0  0  0  0  0  0
  -23.9900  -10.5090   21.0460 C   0  0  0  0  0  0  0  0  0  0  0  0
  -24.4090   -9.5450   21.9890 C   0  0  0  0  0  3  0  0  0  0  0  0
  -23.6860   -8.3460   22.1570 C   0  0  0  0  0  3  0  0  0  0  0  0
  -22.5270   -8.1020   21.3830 C   0  0  0  0  0  0  0  0  0  0  0  0
  -22.1270   -9.0530   20.4290 C   0  0  0  0  0  3  0  0  0  0  0  0
  -22.8510  -10.2440   20.2590 C   0  0  0  0  0  3  0  0  0  0  0  0
  -21.7760   -6.9530   21.4580 O   0  0  0  0  0  0  0  0  0  0  0  0
  -21.6850   -6.2260   22.6180 C   0  0  0  0  0  0  0  0  0  0  0  0
  -21.1820   -6.7870   23.8120 C   0  0  0  0  0  3  0  0  0  0  0  0
  -21.0460   -5.9870   24.9640 C   0  0  0  0  0  3  0  0  0  0  0  0
  -21.4030   -4.6240   24.9210 C   0  0  0  0  0  0  0  0  0  0  0  0
  -21.8980   -4.0620   23.7310 C   0  0  0  0  0  3  0  0  0  0  0  0
  -22.0370   -4.8610   22.5820 C   0  0  0  0  0  0  0  0  0  0  0  0
  -22.4940   -4.3100   21.4320 F   0  0  0  0  0  0  0  0  0  0  0  0
  -21.2640   -3.8520   26.0240 F   0  0  0  0  0  0  0  0  0  0  0  0
  -22.8520  -13.5990   21.1650 C   0  0  0  0  0  0  0  0  0  0  0  0
  -22.1220  -12.9000   22.0300 N   0  0  0  0  0  0  0  0  0  0  0  0
  -22.4140  -14.6220   20.6430 O   0  0  0  0  0  0  0  0  0  0  0  0
  -22.4850  -12.0670   22.4700 H   0  0  0  0  0  0  0  0  0  0  0  0
  -21.1850  -13.2070   22.2550 H   0  0  0  0  0  0  0  0  0  0  0  0
  -25.4830  -15.2710   20.3710 N   0  0  0  0  0  0  0  0  0  0  0  0
  -24.7230  -15.9310   20.4940 H   0  0  0  0  0  0  0  0  0  0  0  0
  -26.3520  -15.7120   20.0920 H   0  0  0  0  0  0  0  0  0  0  0  0
  -27.7960  -24.9480   19.8770 C   0  0  0  0  0  2  0  0  0  0  0  0
  -28.2480  -26.3350   20.2680 O   0  0  0  0  0  0  0  0  0  0  0  0
  -24.6560  -31.9340   23.3080 C   0  0  0  0  0  0  0  0  0  0  0  0
  -27.2110  -27.3120   20.2160 C   0  0  0  0  0  0  0  0  0  0  0  0
  -23.4590  -30.5620   21.6550 C   0  0  0  0  0  3  0  0  0  0  0  0
  -24.8970  -29.0220   20.2230 C   0  0  0  0  0  0  0  0  0  0  0  0
  -26.0150  -30.8350   21.4950 C   0  0  0  0  0  2  0  0  0  0  0  0
  -26.0790  -29.4600   20.8330 C   0  0  0  0  0  0  0  0  0  0  0  0
  -27.2430  -28.6150   20.8250 C   0  0  0  0  0  3  0  0  0  0  0  0
  -25.9920  -26.9790   19.5640 C   0  0  0  0  0  3  0  0  0  0  0  0
  -24.8590  -27.7880   19.5790 C   0  0  0  0  0  3  0  0  0  0  0  0
  -23.6780  -29.9150   20.2680 C   0  0  0  0  0  2  0  0  0  0  0  0
  -24.7310  -31.1290   22.2090 N   0  0  0  0  0  0  0  0  0  0  0  0
  -23.5680  -32.2100   23.8350 O   0  0  0  0  0  0  0  0  0  0  0  0
  -22.7830  -29.5330   22.5960 C   0  0  0  0  0  0  0  0  0  0  0  0
  -21.4540  -29.3610   22.4540 N   0  0  0  0  0  0  0  0  0  0  0  0
  -23.4510  -28.8960   23.4140 O   0  0  0  0  0  0  0  0  0  0  0  0
  -20.9690  -29.9290   21.7720 H   0  0  0  0  0  0  0  0  0  0  0  0
  -18.0650  -28.1770   22.9410 C   0  0  0  0  0  0  0  0  0  0  0  0
  -20.6260  -28.4200   23.2140 C   0  0  0  0  0  3  0  0  0  0  0  0
  -20.7160  -26.9910   22.6300 C   0  0  0  0  0  2  0  0  0  0  0  0
  -19.6160  -26.6830   21.6090 C   0  0  0  0  0  2  0  0  0  0  0  0
  -18.2350  -26.8350   22.2510 C   0  0  0  0  0  2  0  0  0  0  0  0
  -19.1880  -28.9280   23.3790 C   0  0  0  0  0  0  0  0  0  0  0  0
  -18.9770  -30.1870   23.9810 C   0  0  0  0  0  3  0  0  0  0  0  0
  -17.6750  -30.6950   24.1480 C   0  0  0  0  0  3  0  0  0  0  0  0
  -16.5660  -29.9430   23.7220 C   0  0  0  0  0  3  0  0  0  0  0  0
  -16.7630  -28.6840   23.1270 C   0  0  0  0  0  3  0  0  0  0  0  0
  -25.9350  -32.5610   23.9440 C   0  0  0  0  0  3  0  0  0  0  0  0
  -25.6350  -33.9630   24.2720 N   0  0  0  0  0  0  0  0  0  0  0  0
  -25.9370  -35.0090   23.4910 C   0  0  0  0  0  0  0  0  0  0  0  0
  -26.5740  -34.8950   22.4400 O   0  0  0  0  0  0  0  0  0  0  0  0
  -25.0760  -34.1290   25.0950 H   0  0  0  0  0  0  0  0  0  0  0  0
  -24.1800  -36.7830   23.1700 C   0  0  0  0  0  1  0  0  0  0  0  0
  -25.4530  -36.3990   23.9430 C   0  0  0  0  0  3  0  0  0  0  0  0
  -27.6090  -37.3130   24.6860 C   0  0  0  0  0  1  0  0  0  0  0  0
  -26.4720  -37.4630   23.7820 N   0  0  0  0  0  0  0  0  0  0  0  0
  -26.0620  -38.3820   23.9300 H   0  0  0  0  0  0  0  0  0  0  0  0
  -26.4260  -31.7890   25.2330 C   0  0  1  0  0  0  0  0  0  0  0  0
  -25.3140  -31.5610   26.2820 C   0  0  0  0  0  1  0  0  0  0  0  0
  -27.0050  -30.4060   24.8600 C   0  0  0  0  0  1  0  0  0  0  0  0
  -27.5740  -32.5750   25.9100 C   0  0  0  0  0  1  0  0  0  0  0  0
  2  1  1  0
  3  1  2  0
  4  3  1  0
  5  4  2  0
  5  6  1  0
  6  2  2  0
  7  4  1  0
  8  5  1  0
  9  8  1  0
  9  7  1  0
 10 23  1  0
 11 16  1  0
 12 13  1  0
 12 11  1  0
 14 13  1  0
 14 27  1  0
 14 15  1  0
 16 10  1  0
 16 15  1  0
 17 10  2  0
 19 22  1  0
 20 18  1  0
 21 19  1  0
 21 23  1  0
 22  3  1  0
 22 18  1  0
 23 20  1  0
 24 25  2  0
 25 44  1  0
 26 25  1  0
 26 29  1  0
 27 24  1  0
 27 28  1  0
 28 26  2  0
 29 30  1  0
 30 31  2  0
 32 35  1  0
 32 31  1  0
 33 32  2  0
 34 33  1  0
 34 29  2  0
 35 36  1  0
 36 37  1  0
 37 38  2  0
 39 38  1  0
 39 43  1  0
 40 39  2  0
 41 36  2  0
 41 40  1  0
 42 41  1  0
 44 45  1  0
 45 48  1  0
 45 47  1  0
 46 44  2  0
 49 50  1  0
 49 24  1  0
 51 49  1  0
 52  6  1  0
 52 53  1  0
 54 65  2  0
 55 53  1  0
 55 60  1  0
 56 64  1  0
 56 66  1  0
 57 63  1  0
 57 59  1  0
 58 64  1  0
 59 58  1  0
 60 59  2  0
 61 62  1  0
 61 55  2  0
 62 57  2  0
 63 56  1  0
 64 54  1  0
 66 68  2  0
 67 66  1  0
 69 67  1  0
 70 79  2  0
 70 75  1  0
 71 67  1  0
 71 75  1  0
 72 71  1  0
 73 74  1  0
 73 72  1  0
 74 70  1  0
 75 76  2  0
 76 77  1  0
 78 77  2  0
 79 78  1  0
 80 54  1  0
 80 81  1  0
 80 90  1  0
 81 84  1  0
 82 86  1  0
 82 81  1  0
 83 82  2  0
 86 85  1  0
 88 89  1  0
 88 86  1  0
 88 87  1  0
 90 93  1  1
 90 91  1  0
 92 90  1  0
M  ISO  4  10 100  23 100  52 101  53 101
M  END
>  <TORSDO>  (90) 
F 17

>  <SCORE>  (90) 
-15.243

>  <name>  (90) 
90

>  <ligand_id>  (90) 
90

>  <original_smiles>  (90) 
[H]c1c([H])c([H])c2c(c1[H])C([H])([H])C([H])([H])C([H])([H])C2([H])N([H])C(=O)C1([H])N(C(=O)C([H])(N([H])C(=O)C([H])(N([H])C([H])([H])[H])C([H])([H])[H])C(C([H])([H])[H])(C([H])([H])[H])C([H])([H])[H])C([H])([H])c2c([H])c(OC([H])([H])c3c([H])c([H])c(C4([H])C([H])([H])C([H])([H])N(C(=O)N5C([H])([H])C([H])([H])C([H])([H])C([H])(n6nc(-c7c([H])c([H])c(Oc8c([H])c([H])c(F)c([H])c8F)c([H])c7[H])c(C(=O)N([H])[H])c6N([H])[H])C5([H])[H])C([H])([H])C4([H])[H])c4c3C([H])([H])C([H])([H])C4([H])[H])c([H])c([H])c2C1([H])[H]

>  <smiles>  (90) 
[H]c1c([H])c([H])c2c(c1[H])C([H])([H])C([H])([H])C([H])([H])C2([H])N([H])C(=O)C1([H])N(C(=O)C([H])(N([H])C(=O)C([H])(N([H])C([H])([H])[H])C([H])([H])[H])C(C([H])([H])[H])(C([H])([H])[H])C([H])([H])[H])C([H])([H])c2c([H])c(OC([H])([H])c3c([H])c([H])c(C4([H])C([H])([H])C([H])([H])N(C(=O)N5C([H])([H])C([H])([H])C([H])([H])C([H])(n6nc(-c7c([H])c([H])c(Oc8c([H])c([H])c(F)c([H])c8F)c([H])c7[H])c(C(=O)N([H])[H])c6N([H])[H])C5([H])[H])C([H])([H])C4([H])[H])c4c3C([H])([H])C([H])([H])C4([H])[H])c([H])c([H])c2C1([H])[H]

$$$$
91:0:0
     RDKit          3D

 91101  0  0  1  0  0  0  0  0999 V2000
  -28.5710  -19.8700   21.3610 C   0  0  0  0  0  3  0  0  0  0  0  0
  -27.7300  -20.9210   21.7470 C   0  0  0  0  0  3  0  0  0  0  0  0
  -29.4930  -21.3270   19.6360 C   0  0  0  0  0  3  0  0  0  0  0  0
  -29.4400  -19.9930   20.2650 C   0  0  0  0  0  0  0  0  0  0  0  0
  -28.6640  -22.4770   20.0390 C   0  0  0  0  0  0  0  0  0  0  0  0
  -27.7190  -22.1600   21.0740 C   0  0  0  0  0  0  0  0  0  0  0  0
  -26.5590  -23.0810   21.4440 C   0  0  0  0  0  1  0  0  0  0  0  0
  -31.2730  -15.3050   20.0970 C   0  0  0  0  0  0  0  0  0  0  0  0
  -31.0850  -12.9280   19.3100 C   0  0  0  0  0  2  0  0  0  0  0  0
  -30.1690  -12.8520   18.0690 C   0  0  0  0  0  2  0  0  0  0  0  0
  -28.6940  -12.7240   18.4950 C   0  0  0  0  0  2  0  0  0  0  0  0
  -28.3030  -13.7210   19.6200 C   0  0  0  0  0  3  0  0  0  0  0  0
  -29.3470  -13.7710   20.7520 C   0  0  0  0  0  2  0  0  0  0  0  0
  -30.6360  -14.0810   20.1280 N   0  0  0  0  0  0  0  0  0  0  0  0
  -32.4700  -15.3390   19.7880 O   0  0  0  0  0  0  0  0  0  0  0  0
  -31.1310  -17.8120   20.8360 C   0  0  0  0  0  2  0  0  0  0  0  0
  -29.5050  -17.2340   19.6510 C   0  0  0  0  0  2  0  0  0  0  0  0
  -30.2030  -18.6270   19.8720 C   0  0  0  0  0  3  0  0  0  0  0  0
  -30.5820  -16.4940   20.3830 N   0  0  0  0  0  0  0  0  0  0  0  0
  -25.9830  -14.3940   20.4620 C   0  0  0  0  0  0  0  0  0  0  0  0
  -24.8780  -13.6630   20.8030 C   0  0  0  0  0  0  0  0  0  0  0  0
  -25.2540  -12.2920   20.6620 C   0  0  0  0  0  0  0  0  0  0  0  0
  -26.9600  -13.4730   20.1270 N   0  0  0  0  0  0  0  0  0  0  0  0
  -26.5310  -12.1970   20.3090 N   0  0  0  0  0  0  0  0  0  0  0  0
  -24.4540  -11.0680   20.7790 C   0  0  0  0  0  0  0  0  0  0  0  0
  -24.8530  -10.0040   21.6190 C   0  0  0  0  0  3  0  0  0  0  0  0
  -24.0590   -8.8420   21.7290 C   0  0  0  0  0  3  0  0  0  0  0  0
  -22.8490   -8.7380   21.0010 C   0  0  0  0  0  0  0  0  0  0  0  0
  -22.4670   -9.7910   20.1510 C   0  0  0  0  0  3  0  0  0  0  0  0
  -23.2620  -10.9430   20.0370 C   0  0  0  0  0  3  0  0  0  0  0  0
  -22.0260   -7.6390   21.0250 O   0  0  0  0  0  0  0  0  0  0  0  0
  -21.9550   -6.8170   22.1210 C   0  0  0  0  0  0  0  0  0  0  0  0
  -21.5920   -7.3010   23.3970 C   0  0  0  0  0  3  0  0  0  0  0  0
  -21.4660   -6.4100   24.4800 C   0  0  0  0  0  3  0  0  0  0  0  0
  -21.6930   -5.0330   24.2890 C   0  0  0  0  0  0  0  0  0  0  0  0
  -22.0470   -4.5480   23.0180 C   0  0  0  0  0  3  0  0  0  0  0  0
  -22.1770   -5.4370   21.9380 C   0  0  0  0  0  0  0  0  0  0  0  0
  -22.4980   -4.9600   20.7100 F   0  0  0  0  0  0  0  0  0  0  0  0
  -21.5640   -4.1750   25.3270 F   0  0  0  0  0  0  0  0  0  0  0  0
  -23.5230  -14.2080   21.1450 C   0  0  0  0  0  0  0  0  0  0  0  0
  -22.7770  -13.5040   21.9890 N   0  0  0  0  0  0  0  0  0  0  0  0
  -23.1360  -15.2870   20.7010 O   0  0  0  0  0  0  0  0  0  0  0  0
  -23.1060  -12.6330   22.3770 H   0  0  0  0  0  0  0  0  0  0  0  0
  -21.8670  -13.8500   22.2590 H   0  0  0  0  0  0  0  0  0  0  0  0
  -26.2280  -15.7620   20.3830 N   0  0  0  0  0  0  0  0  0  0  0  0
  -25.5040  -16.4460   20.5720 H   0  0  0  0  0  0  0  0  0  0  0  0
  -27.0910  -16.1760   20.0620 H   0  0  0  0  0  0  0  0  0  0  0  0
  -28.1400  -25.0720   20.1970 C   0  0  0  0  0  2  0  0  0  0  0  0
  -28.4810  -23.9370   19.3450 C   0  0  0  0  0  3  0  0  0  0  0  0
  -29.2360  -25.4170   19.1960 C   0  0  0  0  0  3  0  0  0  0  0  0
  -29.0900  -26.9030   19.5540 O   0  0  0  0  0  0  0  0  0  0  0  0
  -24.6940  -31.5590   22.9920 C   0  0  0  0  0  0  0  0  0  0  0  0
  -27.8980  -27.6810   19.5020 C   0  0  0  0  0  0  0  0  0  0  0  0
  -23.7080  -30.2250   21.1670 C   0  0  0  0  0  3  0  0  0  0  0  0
  -25.3620  -29.0470   19.6030 C   0  0  0  0  0  0  0  0  0  0  0  0
  -26.1980  -30.8470   21.1160 C   0  0  0  0  0  2  0  0  0  0  0  0
  -26.4560  -29.5810   20.2930 C   0  0  0  0  0  0  0  0  0  0  0  0
  -27.7260  -28.9150   20.2240 C   0  0  0  0  0  3  0  0  0  0  0  0
  -26.7730  -27.2240   18.7820 C   0  0  0  0  0  3  0  0  0  0  0  0
  -25.5270  -27.8790   18.8380 C   0  0  0  0  0  3  0  0  0  0  0  0
  -24.0290  -29.7640   19.7210 C   0  0  0  0  0  2  0  0  0  0  0  0
  -24.8800  -30.8920   21.8150 N   0  0  0  0  0  0  0  0  0  0  0  0
  -23.5730  -31.6410   23.5170 O   0  0  0  0  0  0  0  0  0  0  0  0
  -23.1660  -29.0240   21.9780 C   0  0  0  0  0  0  0  0  0  0  0  0
  -21.8690  -28.7110   21.8100 N   0  0  0  0  0  0  0  0  0  0  0  0
  -23.9100  -28.3830   22.7260 O   0  0  0  0  0  0  0  0  0  0  0  0
  -21.3190  -29.2940   21.1950 H   0  0  0  0  0  0  0  0  0  0  0  0
  -18.6460  -27.1050   22.1510 C   0  0  0  0  0  0  0  0  0  0  0  0
  -21.1630  -27.6040   22.4560 C   0  0  0  0  0  3  0  0  0  0  0  0
  -21.4090  -26.2670   21.7190 C   0  0  0  0  0  2  0  0  0  0  0  0
  -20.3420  -25.9460   20.6650 C   0  0  0  0  0  2  0  0  0  0  0  0
  -18.9540  -25.8770   21.3110 C   0  0  0  0  0  2  0  0  0  0  0  0
  -19.6810  -27.9240   22.6750 C   0  0  0  0  0  0  0  0  0  0  0  0
  -19.3380  -29.0660   23.4290 C   0  0  0  0  0  3  0  0  0  0  0  0
  -17.9900  -29.3900   23.6710 C   0  0  0  0  0  3  0  0  0  0  0  0
  -16.9690  -28.5710   23.1610 C   0  0  0  0  0  3  0  0  0  0  0  0
  -17.2970  -27.4300   22.4070 C   0  0  0  0  0  3  0  0  0  0  0  0
  -25.8730  -32.2760   23.7200 C   0  0  0  0  0  3  0  0  0  0  0  0
  -25.4060  -33.6130   24.1160 N   0  0  0  0  0  0  0  0  0  0  0  0
  -25.6620  -34.7450   23.4470 C   0  0  0  0  0  0  0  0  0  0  0  0
  -26.3880  -34.7830   22.4490 O   0  0  0  0  0  0  0  0  0  0  0  0
  -24.7700  -33.6560   24.8980 H   0  0  0  0  0  0  0  0  0  0  0  0
  -23.7640  -36.3670   23.1300 C   0  0  0  0  0  1  0  0  0  0  0  0
  -25.0110  -36.0410   23.9670 C   0  0  0  0  0  3  0  0  0  0  0  0
  -27.0070  -37.0860   24.9430 C   0  0  0  0  0  1  0  0  0  0  0  0
  -25.9260  -37.2020   23.9690 N   0  0  0  0  0  0  0  0  0  0  0  0
  -25.4160  -38.0580   24.1680 H   0  0  0  0  0  0  0  0  0  0  0  0
  -26.3970  -31.4890   24.9830 C   0  0  1  0  0  0  0  0  0  0  0  0
  -25.2770  -31.1060   25.9800 C   0  0  0  0  0  1  0  0  0  0  0  0
  -27.1270  -30.1900   24.5690 C   0  0  0  0  0  1  0  0  0  0  0  0
  -27.4290  -32.3540   25.7490 C   0  0  0  0  0  1  0  0  0  0  0  0
  1  2  1  0
  3  5  2  0
  3  4  1  0
  4  1  2  0
  5  6  1  0
  6  7  1  0
  6  2  2  0
  8 14  1  0
  8 19  1  0
  9 14  1  0
 10 11  1  0
 10  9  1  0
 12 11  1  0
 12 23  1  0
 12 13  1  0
 14 13  1  0
 15  8  2  0
 17 18  1  0
 17 19  1  0
 18  4  1  0
 18 16  1  0
 19 16  1  0
 20 21  2  0
 21 40  1  0
 22 25  1  0
 22 21  1  0
 23 24  1  0
 23 20  1  0
 24 22  2  0
 25 26  1  0
 26 27  2  0
 28 31  1  0
 28 27  1  0
 29 28  2  0
 30 29  1  0
 30 25  2  0
 31 32  1  0
 32 33  1  0
 33 34  2  0
 35 34  1  0
 35 39  1  0
 36 35  2  0
 37 32  2  0
 37 36  1  0
 38 37  1  0
 40 41  1  0
 41 44  1  0
 41 43  1  0
 42 40  2  0
 45 20  1  0
 45 46  1  0
 47 45  1  0
 49  5  1  0
 49 48  1  0
 50 49  1  0
 50 51  1  0
 50 48  1  0
 52 63  2  0
 53 51  1  0
 53 58  1  0
 54 62  1  0
 54 64  1  0
 55 61  1  0
 55 57  1  0
 56 62  1  0
 57 56  1  0
 58 57  2  0
 59 60  1  0
 59 53  2  0
 60 55  2  0
 61 54  1  0
 62 52  1  0
 64 66  2  0
 65 64  1  0
 67 65  1  0
 68 77  2  0
 68 73  1  0
 69 65  1  0
 69 73  1  0
 70 69  1  0
 71 72  1  0
 71 70  1  0
 72 68  1  0
 73 74  2  0
 74 75  1  0
 76 75  2  0
 77 76  1  0
 78 52  1  0
 78 79  1  0
 78 88  1  0
 79 82  1  0
 80 84  1  0
 80 79  1  0
 81 80  2  0
 84 83  1  0
 84 86  1  0
 86 87  1  0
 86 85  1  0
 88 91  1  1
 88 89  1  0
 90 88  1  0
M  ISO  4   8 100  19 100  50 101  51 101
M  END
>  <TORSDO>  (91) 
F 17

>  <SCORE>  (91) 
-9.992

>  <name>  (91) 
91

>  <ligand_id>  (91) 
91

>  <original_smiles>  (91) 
[H]c1c([H])c([H])c2c(c1[H])C([H])([H])C([H])([H])C([H])([H])C2([H])N([H])C(=O)C1([H])N(C(=O)C([H])(N([H])C(=O)C([H])(N([H])C([H])([H])[H])C([H])([H])[H])C(C([H])([H])[H])(C([H])([H])[H])C([H])([H])[H])C([H])([H])c2c([H])c(OC3([H])C([H])([H])C3([H])c3c([H])c(C4([H])C([H])([H])N(C(=O)N5C([H])([H])C([H])([H])C([H])([H])C([H])(n6nc(-c7c([H])c([H])c(Oc8c([H])c([H])c(F)c([H])c8F)c([H])c7[H])c(C(=O)N([H])[H])c6N([H])[H])C5([H])[H])C4([H])[H])c([H])c([H])c3C([H])([H])[H])c([H])c([H])c2C1([H])[H]

>  <smiles>  (91) 
[H]c1c([H])c([H])c2c(c1[H])C([H])([H])C([H])([H])C([H])([H])C2([H])N([H])C(=O)C1([H])N(C(=O)C([H])(N([H])C(=O)C([H])(N([H])C([H])([H])[H])C([H])([H])[H])C(C([H])([H])[H])(C([H])([H])[H])C([H])([H])[H])C([H])([H])c2c([H])c(OC3([H])C([H])([H])C3([H])c3c([H])c(C4([H])C([H])([H])N(C(=O)N5C([H])([H])C([H])([H])C([H])([H])C([H])(n6nc(-c7c([H])c([H])c(Oc8c([H])c([H])c(F)c([H])c8F)c([H])c7[H])c(C(=O)N([H])[H])c6N([H])[H])C5([H])[H])C4([H])[H])c([H])c([H])c3C([H])([H])[H])c([H])c([H])c2C1([H])[H]

$$$$
92:0:0
     RDKit          3D

 99108  0  0  1  0  0  0  0  0999 V2000
  -28.2720  -20.9150   18.8310 C   0  0  0  0  0  2  0  0  0  0  0  0
  -28.4020  -19.3930   18.9040 C   0  0  0  0  0  2  0  0  0  0  0  0
  -29.6890  -21.0470   19.4130 C   0  0  0  0  0  3  0  0  0  0  0  0
  -29.8140  -19.5780   19.2270 N   0  0  0  0  0  0  0  0  0  0  0  0
  -30.8890  -16.1210   20.5670 C   0  0  0  0  0  0  0  0  0  0  0  0
  -30.9320  -16.3770   21.9670 C   0  0  0  0  0  0  0  0  0  0  0  0
  -30.5430  -17.2280   19.6960 C   0  0  0  0  0  0  0  0  0  0  0  0
  -30.6790  -17.6840   22.4510 C   0  0  0  0  0  0  0  0  0  0  0  0
  -30.5290  -18.7800   21.5680 C   0  0  0  0  0  0  0  0  0  0  0  0
  -30.3070  -18.5780   20.1700 C   0  0  0  0  0  0  0  0  0  0  0  0
  -31.3110  -15.3040   22.9900 C   0  0  0  0  0  1  0  0  0  0  0  0
  -30.4150  -16.9690   18.1830 C   0  0  0  0  0  1  0  0  0  0  0  0
  -30.5590  -17.9290   23.9590 C   0  0  0  0  0  1  0  0  0  0  0  0
  -30.6270  -20.1800   22.1870 C   0  0  0  0  0  1  0  0  0  0  0  0
  -31.3710  -14.7720   19.9900 C   0  0  0  0  0  0  0  0  0  0  0  0
  -30.8730  -12.6230   18.8690 C   0  0  0  0  0  2  0  0  0  0  0  0
  -29.9170  -12.8980   17.6960 C   0  0  0  0  0  2  0  0  0  0  0  0
  -28.4580  -12.7700   18.1770 C   0  0  0  0  0  2  0  0  0  0  0  0
  -28.1940  -13.6050   19.4630 C   0  0  0  0  0  3  0  0  0  0  0  0
  -29.2910  -13.3880   20.5250 C   0  0  0  0  0  2  0  0  0  0  0  0
  -30.6010  -13.6420   19.9070 N   0  0  0  0  0  0  0  0  0  0  0  0
  -32.5030  -14.7860   19.4990 O   0  0  0  0  0  0  0  0  0  0  0  0
  -25.8770  -14.2900   20.3530 C   0  0  0  0  0  0  0  0  0  0  0  0
  -24.7860  -13.5630   20.7380 C   0  0  0  0  0  0  0  0  0  0  0  0
  -25.1630  -12.1910   20.6160 C   0  0  0  0  0  0  0  0  0  0  0  0
  -26.8560  -13.3700   20.0120 N   0  0  0  0  0  0  0  0  0  0  0  0
  -26.4360  -12.0970   20.2370 N   0  0  0  0  0  0  0  0  0  0  0  0
  -24.3700  -10.9640   20.7780 C   0  0  0  0  0  0  0  0  0  0  0  0
  -24.7730   -9.9380   21.6600 C   0  0  0  0  0  3  0  0  0  0  0  0
  -23.9900   -8.7730   21.8190 C   0  0  0  0  0  3  0  0  0  0  0  0
  -22.7790   -8.6270   21.0980 C   0  0  0  0  0  0  0  0  0  0  0  0
  -22.3870   -9.6450   20.2100 C   0  0  0  0  0  3  0  0  0  0  0  0
  -23.1720  -10.8020   20.0510 C   0  0  0  0  0  3  0  0  0  0  0  0
  -21.9650   -7.5220   21.1660 O   0  0  0  0  0  0  0  0  0  0  0  0
  -21.8990   -6.7460   22.2960 C   0  0  0  0  0  0  0  0  0  0  0  0
  -21.5700   -7.2900   23.5580 C   0  0  0  0  0  3  0  0  0  0  0  0
  -21.4540   -6.4450   24.6790 C   0  0  0  0  0  3  0  0  0  0  0  0
  -21.6460   -5.0570   24.5390 C   0  0  0  0  0  0  0  0  0  0  0  0
  -21.9620   -4.5140   23.2820 C   0  0  0  0  0  3  0  0  0  0  0  0
  -22.0890   -5.3570   22.1640 C   0  0  0  0  0  0  0  0  0  0  0  0
  -22.3730   -4.8260   20.9510 F   0  0  0  0  0  0  0  0  0  0  0  0
  -21.5240   -4.2430   25.6140 F   0  0  0  0  0  0  0  0  0  0  0  0
  -23.4330  -14.1060   21.1020 C   0  0  0  0  0  0  0  0  0  0  0  0
  -22.7080  -13.4380   21.9890 N   0  0  0  0  0  0  0  0  0  0  0  0
  -23.0260  -15.1650   20.6230 O   0  0  0  0  0  0  0  0  0  0  0  0
  -23.0390  -12.5850   22.4170 H   0  0  0  0  0  0  0  0  0  0  0  0
  -21.7960  -13.7930   22.2440 H   0  0  0  0  0  0  0  0  0  0  0  0
  -26.1070  -15.6560   20.2330 N   0  0  0  0  0  0  0  0  0  0  0  0
  -25.3800  -16.3300   20.4440 H   0  0  0  0  0  0  0  0  0  0  0  0
  -26.9710  -16.0860   19.9340 H   0  0  0  0  0  0  0  0  0  0  0  0
  -30.5460  -21.9360   17.1380 C   0  0  0  0  0  1  0  0  0  0  0  0
  -30.7930  -21.8430   18.6600 C   0  0  0  0  0  3  0  0  0  0  0  0
  -31.1830  -23.2120   19.3140 C   0  0  0  0  0  2  0  0  0  0  0  0
  -30.0780  -24.1940   19.5220 N   0  0  0  0  0  4  0  0  0  0  0  0
  -29.2290  -23.6990   19.7440 H   0  0  0  0  0  0  0  0  0  0  0  0
  -30.3200  -24.7370   20.3390 H   0  0  0  0  0  0  0  0  0  0  0  0
  -29.8080  -25.1940   18.4570 C   0  0  0  0  0  2  0  0  0  0  0  0
  -28.3910  -25.8010   18.5990 C   0  0  0  0  0  2  0  0  0  0  0  0
  -28.3020  -26.8140   19.6210 O   0  0  0  0  0  0  0  0  0  0  0  0
  -24.6230  -31.8550   23.1120 C   0  0  0  0  0  0  0  0  0  0  0  0
  -27.1080  -27.5140   19.7290 C   0  0  0  0  0  0  0  0  0  0  0  0
  -23.3400  -30.5330   21.4680 C   0  0  0  0  0  3  0  0  0  0  0  0
  -24.7180  -29.0330   19.9340 C   0  0  0  0  0  0  0  0  0  0  0  0
  -25.8630  -30.8660   21.1880 C   0  0  0  0  0  2  0  0  0  0  0  0
  -25.9050  -29.5190   20.4940 C   0  0  0  0  0  0  0  0  0  0  0  0
  -27.0990  -28.7630   20.3950 C   0  0  0  0  0  3  0  0  0  0  0  0
  -25.8830  -27.0290   19.2020 C   0  0  0  0  0  3  0  0  0  0  0  0
  -24.6990  -27.7800   19.3020 C   0  0  0  0  0  3  0  0  0  0  0  0
  -23.4920  -29.9100   20.0550 C   0  0  0  0  0  2  0  0  0  0  0  0
  -24.6300  -31.0960   21.9810 N   0  0  0  0  0  0  0  0  0  0  0  0
  -23.5660  -32.1190   23.7020 O   0  0  0  0  0  0  0  0  0  0  0  0
  -22.7120  -29.4790   22.4080 C   0  0  0  0  0  0  0  0  0  0  0  0
  -21.3820  -29.3160   22.3220 N   0  0  0  0  0  0  0  0  0  0  0  0
  -23.4170  -28.8150   23.1720 O   0  0  0  0  0  0  0  0  0  0  0  0
  -20.8740  -29.9070   21.6780 H   0  0  0  0  0  0  0  0  0  0  0  0
  -18.0210  -28.1100   22.8730 C   0  0  0  0  0  0  0  0  0  0  0  0
  -20.5850  -28.3580   23.0860 C   0  0  0  0  0  3  0  0  0  0  0  0
  -20.6720  -26.9450   22.4660 C   0  0  0  0  0  2  0  0  0  0  0  0
  -19.5430  -26.6490   21.4730 C   0  0  0  0  0  2  0  0  0  0  0  0
  -18.1770  -26.7810   22.1520 C   0  0  0  0  0  2  0  0  0  0  0  0
  -19.1520  -28.8580   23.2970 C   0  0  0  0  0  0  0  0  0  0  0  0
  -18.9510  -30.1020   23.9310 C   0  0  0  0  0  3  0  0  0  0  0  0
  -17.6520  -30.6000   24.1460 C   0  0  0  0  0  3  0  0  0  0  0  0
  -16.5360  -29.8490   23.7370 C   0  0  0  0  0  3  0  0  0  0  0  0
  -16.7200  -28.6060   23.1070 C   0  0  0  0  0  3  0  0  0  0  0  0
  -25.9390  -32.4480   23.7050 C   0  0  0  0  0  3  0  0  0  0  0  0
  -25.6570  -33.8330   24.1080 N   0  0  0  0  0  0  0  0  0  0  0  0
  -25.9540  -34.9140   23.3760 C   0  0  0  0  0  0  0  0  0  0  0  0
  -26.5720  -34.8500   22.3090 O   0  0  0  0  0  0  0  0  0  0  0  0
  -25.1160  -33.9590   24.9510 H   0  0  0  0  0  0  0  0  0  0  0  0
  -24.2180  -36.7230   23.1800 C   0  0  0  0  0  1  0  0  0  0  0  0
  -25.4970  -36.2850   23.9100 C   0  0  0  0  0  3  0  0  0  0  0  0
  -27.6770  -37.1330   24.6590 C   0  0  0  0  0  1  0  0  0  0  0  0
  -26.5260  -37.3390   23.7840 N   0  0  0  0  0  0  0  0  0  0  0  0
  -26.1340  -38.2530   23.9880 H   0  0  0  0  0  0  0  0  0  0  0  0
  -26.5010  -31.6180   24.9260 C   0  0  1  0  0  0  0  0  0  0  0  0
  -25.4530  -31.3500   26.0320 C   0  0  0  0  0  1  0  0  0  0  0  0
  -27.0470  -30.2520   24.4520 C   0  0  0  0  0  1  0  0  0  0  0  0
  -27.6900  -32.3710   25.5710 C   0  0  0  0  0  1  0  0  0  0  0  0
  1  2  1  0
  1  3  1  0
  2  4  1  0
  3 52  1  0
  4  3  1  0
  4 10  1  0
  5  6  1  0
  6  8  2  0
  6 11  1  0
  7 10  1  0
  7  5  2  0
  8 13  1  0
  9 14  1  0
  9  8  1  0
 10  9  2  0
 12  7  1  0
 15  5  1  0
 16 21  1  0
 17 18  1  0
 17 16  1  0
 19 18  1  0
 19 26  1  0
 19 20  1  0
 21 15  1  0
 21 20  1  0
 22 15  2  0
 23 24  2  0
 24 43  1  0
 25 24  1  0
 25 28  1  0
 26 27  1  0
 26 23  1  0
 27 25  2  0
 28 29  1  0
 29 30  2  0
 31 34  1  0
 31 30  1  0
 32 31  2  0
 33 32  1  0
 33 28  2  0
 34 35  1  0
 35 36  1  0
 36 37  2  0
 38 37  1  0
 38 42  1  0
 39 38  2  0
 40 35  2  0
 40 39  1  0
 41 40  1  0
 43 44  1  0
 44 47  1  0
 44 46  1  0
 45 43  2  0
 48 23  1  0
 48 49  1  0
 50 48  1  0
 52 51  1  0
 52 53  1  0
 53 54  1  0
 54 55  1  0
 54 56  1  0
 57 58  1  0
 57 54  1  0
 58 59  1  0
 59 61  1  0
 60 71  2  0
 61 66  1  0
 62 70  1  0
 62 72  1  0
 63 69  1  0
 63 65  1  0
 64 70  1  0
 65 64  1  0
 66 65  2  0
 67 68  1  0
 67 61  2  0
 68 63  2  0
 69 62  1  0
 70 60  1  0
 72 74  2  0
 73 72  1  0
 75 73  1  0
 76 85  2  0
 76 81  1  0
 77 73  1  0
 77 81  1  0
 78 77  1  0
 79 80  1  0
 79 78  1  0
 80 76  1  0
 81 82  2  0
 82 83  1  0
 84 83  2  0
 85 84  1  0
 86 60  1  0
 86 87  1  0
 86 96  1  0
 87 90  1  0
 88 92  1  0
 88 87  1  0
 89 88  2  0
 92 91  1  0
 94 92  1  0
 94 95  1  0
 94 93  1  0
 96 99  1  1
 96 97  1  0
 98 96  1  0
M  ISO  4   5 100  15 100  58 101  59 101
M  END
>  <TORSDO>  (92) 
F 22

>  <SCORE>  (92) 
-9.890

>  <name>  (92) 
92

>  <ligand_id>  (92) 
92

>  <original_smiles>  (92) 
[H]c1c([H])c([H])c2c(c1[H])C([H])([H])C([H])([H])C([H])([H])C2([H])N([H])C(=O)C1([H])N(C(=O)C([H])(N([H])C(=O)C([H])(N([H])C([H])([H])[H])C([H])([H])[H])C(C([H])([H])[H])(C([H])([H])[H])C([H])([H])[H])C([H])([H])c2c([H])c(OC([H])([H])C([H])([H])[N+]([H])([H])C([H])([H])C([H])(C([H])([H])[H])C3([H])N(c4c(C([H])([H])[H])c(C(=O)N5C([H])([H])C([H])([H])C([H])([H])C([H])(n6nc(-c7c([H])c([H])c(Oc8c([H])c([H])c(F)c([H])c8F)c([H])c7[H])c(C(=O)N([H])[H])c6N([H])[H])C5([H])[H])c(C([H])([H])[H])c(C([H])([H])[H])c4C([H])([H])[H])C([H])([H])C3([H])[H])c([H])c([H])c2C1([H])[H]

>  <smiles>  (92) 
[H]c1c([H])c([H])c2c(c1[H])C([H])([H])C([H])([H])C([H])([H])C2([H])N([H])C(=O)C1([H])N(C(=O)C([H])(N([H])C(=O)C([H])(N([H])C([H])([H])[H])C([H])([H])[H])C(C([H])([H])[H])(C([H])([H])[H])C([H])([H])[H])C([H])([H])c2c([H])c(OC([H])([H])C([H])([H])[N+]([H])([H])C([H])([H])C([H])(C([H])([H])[H])C3([H])N(c4c(C([H])([H])[H])c(C(=O)N5C([H])([H])C([H])([H])C([H])([H])C([H])(n6nc(-c7c([H])c([H])c(Oc8c([H])c([H])c(F)c([H])c8F)c([H])c7[H])c(C(=O)N([H])[H])c6N([H])[H])C5([H])[H])c(C([H])([H])[H])c(C([H])([H])[H])c4C([H])([H])[H])C([H])([H])C3([H])[H])c([H])c([H])c2C1([H])[H]

$$$$
93:0:0
     RDKit          3D

 98107  0  0  1  0  0  0  0  0999 V2000
  -30.5460  -20.4980   21.9070 C   0  0  0  0  0  0  0  0  0  0  0  0
  -29.3960  -20.7090   21.1000 C   0  0  0  0  0  0  0  0  0  0  0  0
  -31.2100  -19.2460   21.8450 C   0  0  0  0  0  0  0  0  0  0  0  0
  -28.9650  -19.6190   20.2920 C   0  0  0  0  0  0  0  0  0  0  0  0
  -30.6760  -18.2140   21.0350 C   0  0  0  0  0  0  0  0  0  0  0  0
  -31.0280  -21.5560   22.9080 C   0  0  0  0  0  2  0  0  0  0  0  0
  -30.0860  -22.7460   23.1500 C   0  0  0  0  0  2  0  0  0  0  0  0
  -28.6400  -22.4540   22.7330 C   0  0  0  0  0  2  0  0  0  0  0  0
  -28.5780  -22.0190   21.2530 C   0  0  0  0  0  3  0  0  0  0  0  0
  -32.4620  -19.0050   22.6940 C   0  0  0  0  0  1  0  0  0  0  0  0
  -27.7250  -19.7020   19.4210 C   0  0  0  0  0  1  0  0  0  0  0  0
  -29.5840  -18.4100   20.2670 N   0  0  0  0  0  0  0  0  0  0  0  0
  -28.9800  -23.1250   20.3120 N   0  0  0  0  0  4  0  0  0  0  0  0
  -28.8410  -22.7980   19.3690 H   0  0  0  0  0  0  0  0  0  0  0  0
  -29.9760  -23.2570   20.4160 H   0  0  0  0  0  0  0  0  0  0  0  0
  -26.7700  -24.3390   20.5090 C   0  0  0  0  0  1  0  0  0  0  0  0
  -28.3100  -24.4710   20.4710 C   0  0  0  0  0  3  0  0  0  0  0  0
  -28.7990  -25.5200   19.4130 C   0  0  0  0  0  2  0  0  0  0  0  0
  -28.6910  -26.9090   19.8210 O   0  0  0  0  0  0  0  0  0  0  0  0
  -24.5450  -31.7010   23.0780 C   0  0  0  0  0  0  0  0  0  0  0  0
  -27.4810  -27.5830   19.7850 C   0  0  0  0  0  0  0  0  0  0  0  0
  -23.4550  -30.3580   21.3120 C   0  0  0  0  0  3  0  0  0  0  0  0
  -25.0190  -28.9950   19.8250 C   0  0  0  0  0  0  0  0  0  0  0  0
  -25.9680  -30.8400   21.2190 C   0  0  0  0  0  2  0  0  0  0  0  0
  -26.1360  -29.5210   20.4870 C   0  0  0  0  0  0  0  0  0  0  0  0
  -27.3660  -28.8220   20.4650 C   0  0  0  0  0  3  0  0  0  0  0  0
  -26.3460  -27.0910   19.0980 C   0  0  0  0  0  3  0  0  0  0  0  0
  -25.1210  -27.7810   19.1290 C   0  0  0  0  0  3  0  0  0  0  0  0
  -23.7340  -29.7890   19.8960 C   0  0  0  0  0  2  0  0  0  0  0  0
  -24.6720  -30.9790   21.9290 N   0  0  0  0  0  0  0  0  0  0  0  0
  -23.4370  -31.8830   23.6010 O   0  0  0  0  0  0  0  0  0  0  0  0
  -22.8310  -29.2430   22.1800 C   0  0  0  0  0  0  0  0  0  0  0  0
  -21.5050  -29.0620   22.0600 N   0  0  0  0  0  0  0  0  0  0  0  0
  -23.5340  -28.5480   22.9180 O   0  0  0  0  0  0  0  0  0  0  0  0
  -20.9980  -29.6790   21.4410 H   0  0  0  0  0  0  0  0  0  0  0  0
  -18.1380  -27.8540   22.5720 C   0  0  0  0  0  0  0  0  0  0  0  0
  -20.7090  -28.0470   22.7490 C   0  0  0  0  0  3  0  0  0  0  0  0
  -20.7600  -26.6950   22.0000 C   0  0  0  0  0  2  0  0  0  0  0  0
  -19.6070  -26.5110   21.0090 C   0  0  0  0  0  2  0  0  0  0  0  0
  -18.2590  -26.5940   21.7320 C   0  0  0  0  0  2  0  0  0  0  0  0
  -19.2880  -28.5450   23.0360 C   0  0  0  0  0  0  0  0  0  0  0  0
  -19.1200  -29.7320   23.7830 C   0  0  0  0  0  3  0  0  0  0  0  0
  -17.8340  -30.2250   24.0700 C   0  0  0  0  0  3  0  0  0  0  0  0
  -16.6990  -29.5290   23.6220 C   0  0  0  0  0  3  0  0  0  0  0  0
  -16.8510  -28.3450   22.8790 C   0  0  0  0  0  3  0  0  0  0  0  0
  -25.7800  -32.3490   23.7770 C   0  0  0  0  0  3  0  0  0  0  0  0
  -26.2550  -31.5600   25.0580 C   0  0  1  0  0  0  0  0  0  0  0  0
  -25.1190  -31.2660   26.0660 C   0  0  0  0  0  1  0  0  0  0  0  0
  -26.8950  -30.2080   24.6610 C   0  0  0  0  0  1  0  0  0  0  0  0
  -27.3480  -32.3670   25.7970 C   0  0  0  0  0  1  0  0  0  0  0  0
  -25.4160  -33.7300   24.1250 N   0  0  0  0  0  0  0  0  0  0  0  0
  -25.7520  -34.8090   23.4050 C   0  0  0  0  0  0  0  0  0  0  0  0
  -26.4710  -34.7480   22.4040 O   0  0  0  0  0  0  0  0  0  0  0  0
  -24.7790  -33.8470   24.8990 H   0  0  0  0  0  0  0  0  0  0  0  0
  -23.9830  -36.5540   23.0200 C   0  0  0  0  0  1  0  0  0  0  0  0
  -25.2040  -36.1710   23.8700 C   0  0  0  0  0  3  0  0  0  0  0  0
  -27.2730  -37.1060   24.8060 C   0  0  0  0  0  1  0  0  0  0  0  0
  -26.2070  -37.2560   23.8180 N   0  0  0  0  0  0  0  0  0  0  0  0
  -25.7660  -38.1620   23.9640 H   0  0  0  0  0  0  0  0  0  0  0  0
  -31.3280  -16.8220   21.0320 C   0  0  0  0  0  2  0  0  0  0  0  0
  -31.0300  -14.6070   19.9870 C   0  0  0  0  0  0  0  0  0  0  0  0
  -30.6230  -12.4160   18.9240 C   0  0  0  0  0  2  0  0  0  0  0  0
  -29.6180  -12.5620   17.7660 C   0  0  0  0  0  2  0  0  0  0  0  0
  -28.1760  -12.4270   18.2890 C   0  0  0  0  0  2  0  0  0  0  0  0
  -27.9040  -13.3160   19.5320 C   0  0  0  0  0  3  0  0  0  0  0  0
  -29.0260  -13.1770   20.5860 C   0  0  0  0  0  2  0  0  0  0  0  0
  -30.3070  -13.4540   19.9220 N   0  0  0  0  0  0  0  0  0  0  0  0
  -32.1000  -14.7330   19.3880 O   0  0  0  0  0  0  0  0  0  0  0  0
  -30.5220  -15.6360   20.6890 N   0  0  0  0  0  0  0  0  0  0  0  0
  -29.6050  -15.5620   21.1000 H   0  0  0  0  0  0  0  0  0  0  0  0
  -25.5850  -13.9330   20.4530 C   0  0  0  0  0  0  0  0  0  0  0  0
  -24.5290  -13.1650   20.8650 C   0  0  0  0  0  0  0  0  0  0  0  0
  -24.9530  -11.8070   20.7330 C   0  0  0  0  0  0  0  0  0  0  0  0
  -26.5880  -13.0430   20.1020 N   0  0  0  0  0  0  0  0  0  0  0  0
  -26.2160  -11.7560   20.3280 N   0  0  0  0  0  0  0  0  0  0  0  0
  -24.2120  -10.5520   20.9160 C   0  0  0  0  0  0  0  0  0  0  0  0
  -24.6470   -9.5620   21.8250 C   0  0  0  0  0  3  0  0  0  0  0  0
  -23.9070   -8.3730   21.9970 C   0  0  0  0  0  3  0  0  0  0  0  0
  -22.7170   -8.1650   21.2600 C   0  0  0  0  0  0  0  0  0  0  0  0
  -22.3010   -9.1420   20.3390 C   0  0  0  0  0  3  0  0  0  0  0  0
  -23.0410  -10.3230   20.1660 C   0  0  0  0  0  3  0  0  0  0  0  0
  -21.9480   -7.0300   21.3430 O   0  0  0  0  0  0  0  0  0  0  0  0
  -21.8440   -6.3130   22.5080 C   0  0  0  0  0  0  0  0  0  0  0  0
  -21.3480   -6.8910   23.6970 C   0  0  0  0  0  3  0  0  0  0  0  0
  -21.1930   -6.1000   24.8530 C   0  0  0  0  0  3  0  0  0  0  0  0
  -21.5260   -4.7320   24.8210 C   0  0  0  0  0  0  0  0  0  0  0  0
  -22.0150   -4.1550   23.6370 C   0  0  0  0  0  3  0  0  0  0  0  0
  -22.1710   -4.9420   22.4830 C   0  0  0  0  0  0  0  0  0  0  0  0
  -22.6240   -4.3750   21.3390 F   0  0  0  0  0  0  0  0  0  0  0  0
  -21.3690   -3.9710   25.9290 F   0  0  0  0  0  0  0  0  0  0  0  0
  -23.1680  -13.6580   21.2650 C   0  0  0  0  0  0  0  0  0  0  0  0
  -22.4990  -12.9420   22.1630 N   0  0  0  0  0  0  0  0  0  0  0  0
  -22.7120  -14.7080   20.8190 O   0  0  0  0  0  0  0  0  0  0  0  0
  -22.8820  -12.0910   22.5430 H   0  0  0  0  0  0  0  0  0  0  0  0
  -21.5890  -13.2520   22.4740 H   0  0  0  0  0  0  0  0  0  0  0  0
  -25.7720  -15.3070   20.3310 N   0  0  0  0  0  0  0  0  0  0  0  0
  -25.0380  -15.9750   20.5380 H   0  0  0  0  0  0  0  0  0  0  0  0
  -26.6160  -15.7410   19.9810 H   0  0  0  0  0  0  0  0  0  0  0  0
  1  6  1  0
  2  9  1  0
  2  1  2  0
  3  1  1  0
  3 10  1  0
  4  2  1  0
  5  3  2  0
  6  7  1  0
  8  7  1  0
  9 13  1  0
  9  8  1  0
 11  4  1  0
 12  4  2  0
 12  5  1  0
 13 15  1  0
 13 17  1  0
 14 13  1  0
 17 16  1  0
 18 19  1  0
 18 17  1  0
 20 31  2  0
 21 19  1  0
 21 26  1  0
 22 30  1  0
 22 32  1  0
 23 29  1  0
 23 25  1  0
 24 30  1  0
 25 24  1  0
 26 25  2  0
 27 28  1  0
 27 21  2  0
 28 23  2  0
 29 22  1  0
 30 20  1  0
 32 34  2  0
 33 32  1  0
 35 33  1  0
 36 45  2  0
 36 41  1  0
 37 33  1  0
 37 41  1  0
 38 37  1  0
 39 40  1  0
 39 38  1  0
 40 36  1  0
 41 42  2  0
 42 43  1  0
 44 43  2  0
 45 44  1  0
 46 20  1  0
 46 51  1  0
 46 47  1  0
 47 50  1  1
 47 48  1  0
 49 47  1  0
 51 54  1  0
 52 56  1  0
 52 51  1  0
 53 52  2  0
 56 55  1  0
 58 56  1  0
 58 59  1  0
 58 57  1  0
 60  5  1  0
 61 69  1  0
 62 67  1  0
 63 64  1  0
 63 62  1  0
 65 64  1  0
 65 74  1  0
 65 66  1  0
 67 61  1  0
 67 66  1  0
 68 61  2  0
 69 60  1  0
 69 70  1  0
 71 72  2  0
 72 91  1  0
 73 72  1  0
 73 76  1  0
 74 75  1  0
 74 71  1  0
 75 73  2  0
 76 77  1  0
 77 78  2  0
 79 82  1  0
 79 78  1  0
 80 79  2  0
 81 80  1  0
 81 76  2  0
 82 83  1  0
 83 84  1  0
 84 85  2  0
 86 85  1  0
 86 90  1  0
 87 86  2  0
 88 83  2  0
 88 87  1  0
 89 88  1  0
 91 92  1  0
 92 95  1  0
 92 94  1  0
 93 91  2  0
 96 71  1  0
 96 97  1  0
 98 96  1  0
M  ISO  4  18 101  19 101  61 100  69 100
M  END
>  <TORSDO>  (93) 
F 20

>  <SCORE>  (93) 
-13.206

>  <name>  (93) 
93

>  <ligand_id>  (93) 
93

>  <original_smiles>  (93) 
[H]c1c([H])c([H])c2c(c1[H])C([H])([H])C([H])([H])C([H])([H])C2([H])N([H])C(=O)C1([H])N(C(=O)C([H])(N([H])C(=O)C([H])(N([H])C([H])([H])[H])C([H])([H])[H])C(C([H])([H])[H])(C([H])([H])[H])C([H])([H])[H])C([H])([H])c2c([H])c(OC([H])([H])C([H])(C([H])([H])[H])[N+]([H])([H])C3([H])c4c(C([H])([H])[H])nc(C([H])([H])N([H])C(=O)N5C([H])([H])C([H])([H])C([H])([H])C([H])(n6nc(-c7c([H])c([H])c(Oc8c([H])c([H])c(F)c([H])c8F)c([H])c7[H])c(C(=O)N([H])[H])c6N([H])[H])C5([H])[H])c(C([H])([H])[H])c4C([H])([H])C([H])([H])C3([H])[H])c([H])c([H])c2C1([H])[H]

>  <smiles>  (93) 
[H]c1c([H])c([H])c2c(c1[H])C([H])([H])C([H])([H])C([H])([H])C2([H])N([H])C(=O)C1([H])N(C(=O)C([H])(N([H])C(=O)C([H])(N([H])C([H])([H])[H])C([H])([H])[H])C(C([H])([H])[H])(C([H])([H])[H])C([H])([H])[H])C([H])([H])c2c([H])c(OC([H])([H])C([H])(C([H])([H])[H])[N+]([H])([H])C3([H])c4c(C([H])([H])[H])nc(C([H])([H])N([H])C(=O)N5C([H])([H])C([H])([H])C([H])([H])C([H])(n6nc(-c7c([H])c([H])c(Oc8c([H])c([H])c(F)c([H])c8F)c([H])c7[H])c(C(=O)N([H])[H])c6N([H])[H])C5([H])[H])c(C([H])([H])[H])c4C([H])([H])C([H])([H])C3([H])[H])c([H])c([H])c2C1([H])[H]

$$$$
94:0:0
     RDKit          3D

 97107  0  0  1  0  0  0  0  0999 V2000
  -31.1210  -23.2620   21.1230 C   0  0  0  0  0  3  0  0  0  0  0  0
  -28.4200  -23.6890   20.5210 C   0  0  0  0  0  3  0  0  0  0  0  0
  -30.3670  -22.2240   20.5310 C   0  0  0  0  0  0  0  0  0  0  0  0
  -28.9990  -22.4320   20.2480 C   0  0  0  0  0  0  0  0  0  0  0  0
  -30.5420  -24.5220   21.4030 C   0  0  0  0  0  0  0  0  0  0  0  0
  -29.1820  -24.7450   21.0660 C   0  0  0  0  0  0  0  0  0  0  0  0
  -28.1250  -21.3420   19.6450 C   0  0  0  0  0  2  0  0  0  0  0  0
  -31.0680  -20.9360   20.1230 C   0  0  0  0  0  2  0  0  0  0  0  0
  -28.9040  -20.1730   19.0250 C   0  0  0  0  0  2  0  0  0  0  0  0
  -30.1340  -19.7390   19.8460 C   0  0  0  0  0  3  0  0  0  0  0  0
  -31.4070  -25.6130   22.0190 C   0  0  0  0  0  1  0  0  0  0  0  0
  -29.7510  -19.0270   21.0950 N   0  0  0  0  0  4  0  0  0  0  0  0
  -28.7490  -18.9980   21.1950 H   0  0  0  0  0  0  0  0  0  0  0  0
  -30.1070  -19.5740   21.8640 H   0  0  0  0  0  0  0  0  0  0  0  0
  -30.2830  -17.6460   21.2240 C   0  0  0  0  0  2  0  0  0  0  0  0
  -30.7730  -14.4970   21.0820 C   0  0  0  0  0  0  0  0  0  0  0  0
  -30.5940  -12.2290   20.2210 C   0  0  0  0  0  2  0  0  0  0  0  0
  -29.7760  -12.2920   18.9100 C   0  0  0  0  0  2  0  0  0  0  0  0
  -28.2580  -12.2490   19.1770 C   0  0  0  0  0  2  0  0  0  0  0  0
  -27.7910  -13.1950   20.3160 C   0  0  0  0  0  3  0  0  0  0  0  0
  -28.7310  -13.0990   21.5410 C   0  0  0  0  0  2  0  0  0  0  0  0
  -30.1140  -13.3100   21.0890 N   0  0  0  0  0  0  0  0  0  0  0  0
  -31.9950  -14.5990   21.1690 O   0  0  0  0  0  0  0  0  0  0  0  0
  -29.6220  -16.6580   18.8010 C   0  0  0  0  0  2  0  0  0  0  0  0
  -30.8570  -15.8050   18.9850 C   0  0  0  0  0  2  0  0  0  0  0  0
  -29.5190  -16.6350   20.3330 C   0  0  0  0  0  3  0  0  0  0  0  0
  -30.1850  -15.3230   20.1990 N   0  0  0  0  0  0  0  0  0  0  0  0
  -25.3370  -13.8360   20.7600 C   0  0  0  0  0  0  0  0  0  0  0  0
  -24.2290  -13.0780   21.0290 C   0  0  0  0  0  0  0  0  0  0  0  0
  -24.6810  -11.7250   21.0840 C   0  0  0  0  0  0  0  0  0  0  0  0
  -26.3950  -12.9440   20.6670 N   0  0  0  0  0  0  0  0  0  0  0  0
  -25.9990  -11.6730   20.9260 N   0  0  0  0  0  0  0  0  0  0  0  0
  -23.9290  -10.4720   21.2210 C   0  0  0  0  0  0  0  0  0  0  0  0
  -24.2700   -9.5100   22.1960 C   0  0  0  0  0  3  0  0  0  0  0  0
  -23.5210   -8.3190   22.3210 C   0  0  0  0  0  3  0  0  0  0  0  0
  -22.4170   -8.0810   21.4680 C   0  0  0  0  0  0  0  0  0  0  0  0
  -22.0950   -9.0310   20.4820 C   0  0  0  0  0  3  0  0  0  0  0  0
  -22.8430  -10.2140   20.3560 C   0  0  0  0  0  3  0  0  0  0  0  0
  -21.6480   -6.9430   21.5030 O   0  0  0  0  0  0  0  0  0  0  0  0
  -21.5120   -6.2030   22.6500 C   0  0  0  0  0  0  0  0  0  0  0  0
  -20.9970   -6.7590   23.8410 C   0  0  0  0  0  3  0  0  0  0  0  0
  -20.8080   -5.9430   24.9740 C   0  0  0  0  0  3  0  0  0  0  0  0
  -21.1240   -4.5720   24.9170 C   0  0  0  0  0  0  0  0  0  0  0  0
  -21.6330   -4.0160   23.7300 C   0  0  0  0  0  3  0  0  0  0  0  0
  -21.8240   -4.8290   22.5990 C   0  0  0  0  0  0  0  0  0  0  0  0
  -22.2950   -4.2850   21.4510 F   0  0  0  0  0  0  0  0  0  0  0  0
  -20.9350   -3.7850   26.0010 F   0  0  0  0  0  0  0  0  0  0  0  0
  -22.8120  -13.5700   21.1290 C   0  0  0  0  0  0  0  0  0  0  0  0
  -21.9890  -12.9050   21.9290 N   0  0  0  0  0  0  0  0  0  0  0  0
  -22.4410  -14.5810   20.5320 O   0  0  0  0  0  0  0  0  0  0  0  0
  -22.2980  -12.0910   22.4380 H   0  0  0  0  0  0  0  0  0  0  0  0
  -21.0350  -13.2190   22.0370 H   0  0  0  0  0  0  0  0  0  0  0  0
  -25.5270  -15.1990   20.5620 N   0  0  0  0  0  0  0  0  0  0  0  0
  -24.7510  -15.8500   20.5650 H   0  0  0  0  0  0  0  0  0  0  0  0
  -26.4080  -15.6220   20.3010 H   0  0  0  0  0  0  0  0  0  0  0  0
  -28.4910  -26.0920   21.2420 C   0  0  0  0  0  2  0  0  0  0  0  0
  -28.1250  -26.6370   19.9740 O   0  0  0  0  0  0  0  0  0  0  0  0
  -24.4870  -31.8820   23.1130 C   0  0  0  0  0  0  0  0  0  0  0  0
  -26.9930  -27.4060   20.0060 C   0  0  0  0  0  0  0  0  0  0  0  0
  -23.2200  -30.4980   21.4970 C   0  0  0  0  0  3  0  0  0  0  0  0
  -24.6210  -28.9240   20.0530 C   0  0  0  0  0  0  0  0  0  0  0  0
  -25.7450  -30.8190   21.2470 C   0  0  0  0  0  2  0  0  0  0  0  0
  -25.7970  -29.4410   20.6190 C   0  0  0  0  0  0  0  0  0  0  0  0
  -26.9860  -28.6840   20.6000 C   0  0  0  0  0  3  0  0  0  0  0  0
  -25.8140  -26.8980   19.4280 C   0  0  0  0  0  3  0  0  0  0  0  0
  -24.6210  -27.6500   19.4600 C   0  0  0  0  0  3  0  0  0  0  0  0
  -23.3900  -29.8000   20.1190 C   0  0  0  0  0  2  0  0  0  0  0  0
  -24.5040  -31.0810   22.0120 N   0  0  0  0  0  0  0  0  0  0  0  0
  -23.4230  -32.1750   23.6760 O   0  0  0  0  0  0  0  0  0  0  0  0
  -22.5700  -29.4930   22.4750 C   0  0  0  0  0  0  0  0  0  0  0  0
  -21.2400  -29.3450   22.3830 N   0  0  0  0  0  0  0  0  0  0  0  0
  -23.2600  -28.8450   23.2690 O   0  0  0  0  0  0  0  0  0  0  0  0
  -20.7480  -29.9240   21.7150 H   0  0  0  0  0  0  0  0  0  0  0  0
  -17.8480  -28.2470   22.9700 C   0  0  0  0  0  0  0  0  0  0  0  0
  -20.4180  -28.4270   23.1710 C   0  0  0  0  0  3  0  0  0  0  0  0
  -20.4610  -26.9980   22.5860 C   0  0  0  0  0  2  0  0  0  0  0  0
  -19.3230  -26.7110   21.6030 C   0  0  0  0  0  2  0  0  0  0  0  0
  -17.9630  -26.8940   22.2860 C   0  0  0  0  0  2  0  0  0  0  0  0
  -18.9990  -28.9730   23.3710 C   0  0  0  0  0  0  0  0  0  0  0  0
  -18.8380  -30.2390   23.9730 C   0  0  0  0  0  3  0  0  0  0  0  0
  -17.5550  -30.7810   24.1750 C   0  0  0  0  0  3  0  0  0  0  0  0
  -16.4170  -30.0490   23.7930 C   0  0  0  0  0  3  0  0  0  0  0  0
  -16.5620  -28.7850   23.1960 C   0  0  0  0  0  3  0  0  0  0  0  0
  -25.7990  -32.4860   23.7060 C   0  0  0  0  0  3  0  0  0  0  0  0
  -26.3600  -31.6780   24.9400 C   0  0  1  0  0  0  0  0  0  0  0  0
  -25.3060  -31.4140   26.0430 C   0  0  0  0  0  1  0  0  0  0  0  0
  -26.9200  -30.3100   24.4850 C   0  0  0  0  0  1  0  0  0  0  0  0
  -27.5390  -32.4480   25.5790 C   0  0  0  0  0  1  0  0  0  0  0  0
  -25.5120  -33.8760   24.0850 N   0  0  0  0  0  0  0  0  0  0  0  0
  -25.8600  -34.9490   23.3570 C   0  0  0  0  0  0  0  0  0  0  0  0
  -26.5230  -34.8690   22.3190 O   0  0  0  0  0  0  0  0  0  0  0  0
  -24.9300  -34.0170   24.8960 H   0  0  0  0  0  0  0  0  0  0  0  0
  -24.1650  -36.7820   23.0560 C   0  0  0  0  0  1  0  0  0  0  0  0
  -25.3910  -36.3270   23.8620 C   0  0  0  0  0  3  0  0  0  0  0  0
  -27.5340  -37.1400   24.7430 C   0  0  0  0  0  1  0  0  0  0  0  0
  -26.4430  -37.3650   23.7980 N   0  0  0  0  0  0  0  0  0  0  0  0
  -26.0520  -38.2840   23.9760 H   0  0  0  0  0  0  0  0  0  0  0  0
  1  5  1  0
  2  6  1  0
  3  1  2  0
  4  2  2  0
  4  3  1  0
  5 11  1  0
  6 56  1  0
  6  5  2  0
  7  4  1  0
  8  3  1  0
  9  7  1  0
  9 10  1  0
 10  8  1  0
 10 12  1  0
 12 13  1  0
 12 15  1  0
 12 14  1  0
 16 22  1  0
 16 23  2  0
 17 22  1  0
 18 19  1  0
 18 17  1  0
 20 19  1  0
 20 31  1  0
 20 21  1  0
 22 21  1  0
 24 25  1  0
 24 26  1  0
 25 27  1  0
 26 15  1  0
 27 26  1  0
 27 16  1  0
 28 29  2  0
 29 30  1  0
 29 48  1  0
 30 33  1  0
 31 28  1  0
 31 32  1  0
 32 30  2  0
 33 34  1  0
 34 35  2  0
 36 39  1  0
 36 35  1  0
 37 36  2  0
 38 37  1  0
 38 33  2  0
 39 40  1  0
 40 41  1  0
 41 42  2  0
 43 42  1  0
 43 47  1  0
 44 43  2  0
 45 40  2  0
 45 44  1  0
 46 45  1  0
 48 49  1  0
 49 52  1  0
 49 51  1  0
 50 48  2  0
 53 54  1  0
 53 28  1  0
 55 53  1  0
 57 59  1  0
 57 56  1  0
 58 69  2  0
 59 64  1  0
 60 68  1  0
 60 70  1  0
 61 67  1  0
 61 63  1  0
 62 68  1  0
 63 62  1  0
 64 63  2  0
 65 66  1  0
 65 59  2  0
 66 61  2  0
 67 60  1  0
 68 58  1  0
 70 72  2  0
 71 70  1  0
 73 71  1  0
 74 83  2  0
 74 79  1  0
 75 71  1  0
 75 79  1  0
 76 75  1  0
 77 78  1  0
 77 76  1  0
 78 74  1  0
 79 80  2  0
 80 81  1  0
 82 81  2  0
 83 82  1  0
 84 58  1  0
 84 89  1  0
 84 85  1  0
 85 88  1  1
 85 86  1  0
 87 85  1  0
 89 92  1  0
 90 94  1  0
 90 89  1  0
 91 90  2  0
 94 93  1  0
 96 94  1  0
 96 97  1  0
 96 95  1  0
M  ISO  4  16 100  27 100  56 101  57 101
M  END
>  <TORSDO>  (94) 
F 19

>  <SCORE>  (94) 
-13.261

>  <name>  (94) 
94

>  <ligand_id>  (94) 
94

>  <original_smiles>  (94) 
[H]c1c([H])c([H])c2c(c1[H])C([H])([H])C([H])([H])C([H])([H])C2([H])N([H])C(=O)C1([H])N(C(=O)C([H])(N([H])C(=O)C([H])(N([H])C([H])([H])[H])C([H])([H])[H])C(C([H])([H])[H])(C([H])([H])[H])C([H])([H])[H])C([H])([H])c2c([H])c(OC([H])([H])c3c([H])c4c(c([H])c3C([H])([H])[H])C([H])([H])C([H])([N+]([H])([H])C([H])([H])C3([H])N(C(=O)N5C([H])([H])C([H])([H])C([H])([H])C([H])(n6nc(-c7c([H])c([H])c(Oc8c([H])c([H])c(F)c([H])c8F)c([H])c7[H])c(C(=O)N([H])[H])c6N([H])[H])C5([H])[H])C([H])([H])C3([H])[H])C([H])([H])C4([H])[H])c([H])c([H])c2C1([H])[H]

>  <smiles>  (94) 
[H]c1c([H])c([H])c2c(c1[H])C([H])([H])C([H])([H])C([H])([H])C2([H])N([H])C(=O)C1([H])N(C(=O)C([H])(N([H])C(=O)C([H])(N([H])C([H])([H])[H])C([H])([H])[H])C(C([H])([H])[H])(C([H])([H])[H])C([H])([H])[H])C([H])([H])c2c([H])c(OC([H])([H])c3c([H])c4c(c([H])c3C([H])([H])[H])C([H])([H])C([H])([N+]([H])([H])C([H])([H])C3([H])N(C(=O)N5C([H])([H])C([H])([H])C([H])([H])C([H])(n6nc(-c7c([H])c([H])c(Oc8c([H])c([H])c(F)c([H])c8F)c([H])c7[H])c(C(=O)N([H])[H])c6N([H])[H])C5([H])[H])C([H])([H])C3([H])[H])C([H])([H])C4([H])[H])c([H])c([H])c2C1([H])[H]

$$$$
95:0:0
     RDKit          3D

 97106  0  0  1  0  0  0  0  0999 V2000
  -30.1100  -21.2480   19.3750 C   0  0  0  0  0  2  0  0  0  0  0  0
  -30.8660  -22.6030   19.4050 C   0  0  0  0  0  2  0  0  0  0  0  0
  -30.3140  -22.7850   21.8820 C   0  0  0  0  0  2  0  0  0  0  0  0
  -29.5640  -21.4170   21.7910 C   0  0  0  0  0  3  0  0  0  0  0  0
  -30.1330  -20.4390   20.7010 C   0  0  0  0  0  3  0  0  0  0  0  0
  -28.0310  -21.6150   21.7500 C   0  0  0  0  0  1  0  0  0  0  0  0
  -30.6210  -23.4700   20.5920 N   0  0  2  0  0  4  0  0  0  0  0  0
  -31.5950  -23.6510   20.7900 H   0  0  0  0  0  0  0  0  0  0  0  0
  -31.2360  -14.7250   20.0030 C   0  0  0  0  0  0  0  0  0  0  0  0
  -30.8460  -12.5320   18.9140 C   0  0  0  0  0  2  0  0  0  0  0  0
  -29.8360  -12.6670   17.7570 C   0  0  0  0  0  2  0  0  0  0  0  0
  -28.3880  -12.5350   18.2740 C   0  0  0  0  0  2  0  0  0  0  0  0
  -28.1180  -13.4000   19.5350 C   0  0  0  0  0  3  0  0  0  0  0  0
  -29.2430  -13.2270   20.5780 C   0  0  0  0  0  2  0  0  0  0  0  0
  -30.5180  -13.5590   19.9250 N   0  0  0  0  0  0  0  0  0  0  0  0
  -32.3370  -14.8200   19.4520 O   0  0  0  0  0  0  0  0  0  0  0  0
  -30.5460  -17.5810   22.3810 C   0  0  0  0  0  2  0  0  0  0  0  0
  -30.5730  -16.1030   21.9070 C   0  0  0  0  0  2  0  0  0  0  0  0
  -30.8550  -17.1240   19.6530 C   0  0  0  0  0  2  0  0  0  0  0  0
  -29.2870  -18.3620   21.9510 C   0  0  0  0  0  2  0  0  0  0  0  0
  -29.6730  -18.1440   19.4990 C   0  0  0  0  0  3  0  0  0  0  0  0
  -28.3750  -17.4390   19.0800 C   0  0  0  0  0  1  0  0  0  0  0  0
  -30.6130  -15.8720   20.4430 N   0  0  0  0  0  0  0  0  0  0  0  0
  -29.4170  -19.0870   20.6510 N   0  0  2  0  0  4  0  0  0  0  0  0
  -28.4660  -19.3800   20.4700 H   0  0  0  0  0  0  0  0  0  0  0  0
  -25.8030  -14.0100   20.4850 C   0  0  0  0  0  0  0  0  0  0  0  0
  -24.7480  -13.2440   20.8870 C   0  0  0  0  0  0  0  0  0  0  0  0
  -25.1570  -11.8870   20.7180 C   0  0  0  0  0  0  0  0  0  0  0  0
  -26.8010  -13.1240   20.1030 N   0  0  0  0  0  0  0  0  0  0  0  0
  -26.4180  -11.8350   20.3000 N   0  0  0  0  0  0  0  0  0  0  0  0
  -24.4020  -10.6400   20.8710 C   0  0  0  0  0  0  0  0  0  0  0  0
  -24.7970   -9.6470   21.7930 C   0  0  0  0  0  3  0  0  0  0  0  0
  -24.0420   -8.4630   21.9370 C   0  0  0  0  0  3  0  0  0  0  0  0
  -22.8770   -8.2650   21.1590 C   0  0  0  0  0  0  0  0  0  0  0  0
  -22.5000   -9.2480   20.2270 C   0  0  0  0  0  3  0  0  0  0  0  0
  -23.2550  -10.4220   20.0800 C   0  0  0  0  0  3  0  0  0  0  0  0
  -22.0950   -7.1380   21.2130 O   0  0  0  0  0  0  0  0  0  0  0  0
  -21.9190   -6.4410   22.3810 C   0  0  0  0  0  0  0  0  0  0  0  0
  -21.3870   -7.0480   23.5400 C   0  0  0  0  0  3  0  0  0  0  0  0
  -21.1600   -6.2760   24.6970 C   0  0  0  0  0  3  0  0  0  0  0  0
  -21.4530   -4.9000   24.6950 C   0  0  0  0  0  0  0  0  0  0  0  0
  -21.9770   -4.2920   23.5410 C   0  0  0  0  0  3  0  0  0  0  0  0
  -22.2080   -5.0610   22.3860 C   0  0  0  0  0  0  0  0  0  0  0  0
  -22.6910   -4.4670   21.2690 F   0  0  0  0  0  0  0  0  0  0  0  0
  -21.2280   -4.1560   25.8040 F   0  0  0  0  0  0  0  0  0  0  0  0
  -23.3940  -13.7450   21.3050 C   0  0  0  0  0  0  0  0  0  0  0  0
  -22.7270  -13.0290   22.2000 N   0  0  0  0  0  0  0  0  0  0  0  0
  -22.9470  -14.8070   20.8740 O   0  0  0  0  0  0  0  0  0  0  0  0
  -23.1060  -12.1700   22.5700 H   0  0  0  0  0  0  0  0  0  0  0  0
  -21.8220  -13.3450   22.5200 H   0  0  0  0  0  0  0  0  0  0  0  0
  -25.9760  -15.3860   20.3910 N   0  0  0  0  0  0  0  0  0  0  0  0
  -25.1890  -16.0030   20.5550 H   0  0  0  0  0  0  0  0  0  0  0  0
  -26.7330  -15.8270   19.8870 H   0  0  0  0  0  0  0  0  0  0  0  0
  -30.2840  -24.9320   20.3850 C   0  0  0  0  0  2  0  0  0  0  0  0
  -28.0710  -24.5890   19.1450 C   0  0  0  0  0  1  0  0  0  0  0  0
  -28.8030  -25.3940   20.2310 C   0  0  0  0  0  3  0  0  0  0  0  0
  -28.8340  -26.8320   19.9490 O   0  0  0  0  0  0  0  0  0  0  0  0
  -24.8140  -31.7030   23.3060 C   0  0  0  0  0  0  0  0  0  0  0  0
  -27.6530  -27.5630   19.9570 C   0  0  0  0  0  0  0  0  0  0  0  0
  -23.6960  -30.4100   21.5280 C   0  0  0  0  0  3  0  0  0  0  0  0
  -25.2290  -29.0460   20.0160 C   0  0  0  0  0  0  0  0  0  0  0  0
  -26.2220  -30.8450   21.4360 C   0  0  0  0  0  2  0  0  0  0  0  0
  -26.3600  -29.5310   20.6860 C   0  0  0  0  0  0  0  0  0  0  0  0
  -27.5740  -28.8000   20.6510 C   0  0  0  0  0  3  0  0  0  0  0  0
  -26.5120  -27.1420   19.2400 C   0  0  0  0  0  3  0  0  0  0  0  0
  -25.3050  -27.8550   19.2820 C   0  0  0  0  0  3  0  0  0  0  0  0
  -23.9630  -29.8690   20.1000 C   0  0  0  0  0  2  0  0  0  0  0  0
  -24.9290  -30.9950   22.1490 N   0  0  0  0  0  0  0  0  0  0  0  0
  -23.7110  -31.8950   23.8350 O   0  0  0  0  0  0  0  0  0  0  0  0
  -23.0560  -29.2870   22.3750 C   0  0  0  0  0  0  0  0  0  0  0  0
  -21.7370  -29.0870   22.2050 N   0  0  0  0  0  0  0  0  0  0  0  0
  -23.7390  -28.6050   23.1420 O   0  0  0  0  0  0  0  0  0  0  0  0
  -21.2410  -29.7010   21.5740 H   0  0  0  0  0  0  0  0  0  0  0  0
  -18.3750  -27.8090   22.5650 C   0  0  0  0  0  0  0  0  0  0  0  0
  -20.9300  -28.0620   22.8670 C   0  0  0  0  0  3  0  0  0  0  0  0
  -21.0510  -26.7020   22.1410 C   0  0  0  0  0  2  0  0  0  0  0  0
  -19.9490  -26.4700   21.1030 C   0  0  0  0  0  2  0  0  0  0  0  0
  -18.5640  -26.5410   21.7500 C   0  0  0  0  0  2  0  0  0  0  0  0
  -19.4870  -28.5320   23.0760 C   0  0  0  0  0  0  0  0  0  0  0  0
  -19.2530  -29.7240   23.7940 C   0  0  0  0  0  3  0  0  0  0  0  0
  -17.9430  -30.1940   24.0070 C   0  0  0  0  0  3  0  0  0  0  0  0
  -16.8450  -29.4670   23.5130 C   0  0  0  0  0  3  0  0  0  0  0  0
  -17.0640  -28.2760   22.7990 C   0  0  0  0  0  3  0  0  0  0  0  0
  -26.0610  -32.3160   24.0160 C   0  0  0  0  0  3  0  0  0  0  0  0
  -25.7140  -33.6850   24.4170 N   0  0  0  0  0  0  0  0  0  0  0  0
  -26.0240  -34.7840   23.7180 C   0  0  0  0  0  0  0  0  0  0  0  0
  -26.7090  -34.7500   22.6910 O   0  0  0  0  0  0  0  0  0  0  0  0
  -25.1060  -33.7820   25.2170 H   0  0  0  0  0  0  0  0  0  0  0  0
  -24.2380  -36.5350   23.4510 C   0  0  0  0  0  1  0  0  0  0  0  0
  -25.4940  -36.1320   24.2410 C   0  0  0  0  0  3  0  0  0  0  0  0
  -27.5950  -37.0460   25.1230 C   0  0  0  0  0  1  0  0  0  0  0  0
  -26.4920  -37.2230   24.1820 N   0  0  0  0  0  0  0  0  0  0  0  0
  -26.0570  -38.1220   24.3690 H   0  0  0  0  0  0  0  0  0  0  0  0
  -26.5490  -31.4740   25.2570 C   0  0  1  0  0  0  0  0  0  0  0  0
  -25.4200  -31.1440   26.2610 C   0  0  0  0  0  1  0  0  0  0  0  0
  -27.1760  -30.1370   24.7980 C   0  0  0  0  0  1  0  0  0  0  0  0
  -27.6590  -32.2450   26.0070 C   0  0  0  0  0  1  0  0  0  0  0  0
  1  2  1  0
  2  7  1  0
  4  6  1  0
  4  3  1  0
  5  1  1  0
  5  4  1  0
  7  8  1  1
  7  3  1  0
  9 23  1  0
 10 15  1  0
 11 12  1  0
 11 10  1  0
 13 12  1  0
 13 29  1  0
 13 14  1  0
 15  9  1  0
 15 14  1  0
 16  9  2  0
 18 17  1  0
 19 23  1  0
 20 17  1  0
 21 22  1  0
 21 19  1  0
 21 24  1  0
 23 18  1  0
 24 25  1  6
 24  5  1  0
 24 20  1  0
 26 27  2  0
 27 46  1  0
 28 31  1  0
 28 27  1  0
 29 30  1  0
 29 26  1  0
 30 28  2  0
 31 32  1  0
 32 33  2  0
 34 37  1  0
 34 33  1  0
 35 34  2  0
 36 35  1  0
 36 31  2  0
 37 38  1  0
 38 43  2  0
 38 39  1  0
 39 40  2  0
 41 40  1  0
 41 45  1  0
 42 41  2  0
 43 42  1  0
 44 43  1  0
 46 47  1  0
 47 50  1  0
 47 49  1  0
 48 46  2  0
 51 26  1  0
 51 52  1  0
 53 51  1  0
 54  7  1  0
 56 55  1  0
 56 54  1  0
 57 59  1  0
 57 56  1  0
 58 69  2  0
 59 64  1  0
 60 68  1  0
 60 70  1  0
 61 67  1  0
 61 63  1  0
 62 68  1  0
 63 62  1  0
 64 63  2  0
 65 66  1  0
 65 59  2  0
 66 61  2  0
 67 60  1  0
 68 58  1  0
 70 72  2  0
 71 70  1  0
 73 71  1  0
 74 83  2  0
 74 79  1  0
 75 71  1  0
 75 79  1  0
 76 75  1  0
 77 78  1  0
 77 76  1  0
 78 74  1  0
 79 80  2  0
 80 81  1  0
 82 81  2  0
 83 82  1  0
 84 58  1  0
 84 85  1  0
 84 94  1  0
 85 88  1  0
 86 90  1  0
 86 85  1  0
 87 86  2  0
 90 89  1  0
 92 90  1  0
 92 93  1  0
 92 91  1  0
 94 97  1  1
 94 95  1  0
 96 94  1  0
M  ISO  4   9 100  23 100  56 101  57 101
M  END
>  <TORSDO>  (95) 
F 18

>  <SCORE>  (95) 
-12.605

>  <name>  (95) 
95

>  <ligand_id>  (95) 
95

>  <original_smiles>  (95) 
[H]c1c([H])c([H])c2c(c1[H])C([H])([H])C([H])([H])C([H])([H])C2([H])N([H])C(=O)C1([H])N(C(=O)C([H])(N([H])C(=O)C([H])(N([H])C([H])([H])[H])C([H])([H])[H])C(C([H])([H])[H])(C([H])([H])[H])C([H])([H])[H])C([H])([H])c2c([H])c(OC([H])(C([H])([H])[H])C([H])([H])[N+]3([H])C([H])([H])C([H])([H])C([H])([N+]4([H])C([H])([H])C([H])([H])C([H])([H])N(C(=O)N5C([H])([H])C([H])([H])C([H])([H])C([H])(n6nc(-c7c([H])c([H])c(Oc8c([H])c([H])c(F)c([H])c8F)c([H])c7[H])c(C(=O)N([H])[H])c6N([H])[H])C5([H])[H])C([H])([H])C4([H])C([H])([H])[H])C([H])(C([H])([H])[H])C3([H])[H])c([H])c([H])c2C1([H])[H]

>  <smiles>  (95) 
[H]c1c([H])c([H])c2c(c1[H])C([H])([H])C([H])([H])C([H])([H])C2([H])N([H])C(=O)C1([H])N(C(=O)C([H])(N([H])C(=O)C([H])(N([H])C([H])([H])[H])C([H])([H])[H])C(C([H])([H])[H])(C([H])([H])[H])C([H])([H])[H])C([H])([H])c2c([H])c(OC([H])(C([H])([H])[H])C([H])([H])[N+]3([H])C([H])([H])C([H])([H])C([H])([N+]4([H])C([H])([H])C([H])([H])C([H])([H])N(C(=O)N5C([H])([H])C([H])([H])C([H])([H])C([H])(n6nc(-c7c([H])c([H])c(Oc8c([H])c([H])c(F)c([H])c8F)c([H])c7[H])c(C(=O)N([H])[H])c6N([H])[H])C5([H])[H])C([H])([H])C4([H])C([H])([H])[H])C([H])(C([H])([H])[H])C3([H])[H])c([H])c([H])c2C1([H])[H]

$$$$
96:0:0
     RDKit          3D

 98107  0  0  1  0  0  0  0  0999 V2000
  -31.2880  -22.8260   17.5790 C   0  0  0  0  0  2  0  0  0  0  0  0
  -29.9850  -22.7910   19.7410 C   0  0  0  0  0  2  0  0  0  0  0  0
  -30.2980  -23.8740   17.0420 C   0  0  0  0  0  2  0  0  0  0  0  0
  -29.0270  -23.8300   19.1340 C   0  0  0  0  0  2  0  0  0  0  0  0
  -30.6510  -21.9280   18.6530 C   0  0  0  0  0  3  0  0  0  0  0  0
  -29.7380  -24.6910   18.1520 N   0  0  2  0  0  4  0  0  0  0  0  0
  -30.5320  -25.0920   18.6310 H   0  0  0  0  0  0  0  0  0  0  0  0
  -28.9320  -25.8480   17.6840 C   0  0  0  0  0  2  0  0  0  0  0  0
  -29.0850  -27.0740   18.6060 C   0  0  0  0  0  2  0  0  0  0  0  0
  -28.4280  -26.8740   19.8600 O   0  0  0  0  0  0  0  0  0  0  0  0
  -24.5630  -31.8760   23.1480 C   0  0  0  0  0  0  0  0  0  0  0  0
  -27.2380  -27.5460   19.9630 C   0  0  0  0  0  0  0  0  0  0  0  0
  -23.3590  -30.4920   21.4880 C   0  0  0  0  0  3  0  0  0  0  0  0
  -24.8190  -28.9850   20.0390 C   0  0  0  0  0  0  0  0  0  0  0  0
  -25.8770  -30.8800   21.2840 C   0  0  0  0  0  2  0  0  0  0  0  0
  -25.9710  -29.5200   20.6280 C   0  0  0  0  0  0  0  0  0  0  0  0
  -27.1850  -28.8030   20.5980 C   0  0  0  0  0  3  0  0  0  0  0  0
  -26.0660  -26.9980   19.4000 C   0  0  0  0  0  3  0  0  0  0  0  0
  -24.8560  -27.7180   19.4300 C   0  0  0  0  0  3  0  0  0  0  0  0
  -23.5660  -29.8280   20.1000 C   0  0  0  0  0  2  0  0  0  0  0  0
  -24.6170  -31.0960   22.0330 N   0  0  0  0  0  0  0  0  0  0  0  0
  -23.4840  -32.1290   23.7020 O   0  0  0  0  0  0  0  0  0  0  0  0
  -22.7230  -29.4500   22.4370 C   0  0  0  0  0  0  0  0  0  0  0  0
  -21.3970  -29.2720   22.3250 N   0  0  0  0  0  0  0  0  0  0  0  0
  -23.4200  -28.8050   23.2240 O   0  0  0  0  0  0  0  0  0  0  0  0
  -20.8960  -29.8440   21.6590 H   0  0  0  0  0  0  0  0  0  0  0  0
  -18.0280  -28.0880   22.8620 C   0  0  0  0  0  0  0  0  0  0  0  0
  -20.5920  -28.3190   23.0880 C   0  0  0  0  0  3  0  0  0  0  0  0
  -20.6720  -26.9050   22.4700 C   0  0  0  0  0  2  0  0  0  0  0  0
  -19.5460  -26.6180   21.4700 C   0  0  0  0  0  2  0  0  0  0  0  0
  -18.1780  -26.7570   22.1460 C   0  0  0  0  0  2  0  0  0  0  0  0
  -19.1610  -28.8290   23.2900 C   0  0  0  0  0  0  0  0  0  0  0  0
  -18.9660  -30.0780   23.9190 C   0  0  0  0  0  3  0  0  0  0  0  0
  -17.6690  -30.5850   24.1260 C   0  0  0  0  0  3  0  0  0  0  0  0
  -16.5510  -29.8400   23.7160 C   0  0  0  0  0  3  0  0  0  0  0  0
  -16.7310  -28.5950   23.0870 C   0  0  0  0  0  3  0  0  0  0  0  0
  -25.8490  -32.5070   23.7700 C   0  0  0  0  0  3  0  0  0  0  0  0
  -25.5320  -33.8980   24.1140 N   0  0  0  0  0  0  0  0  0  0  0  0
  -25.8620  -34.9610   23.3670 C   0  0  0  0  0  0  0  0  0  0  0  0
  -26.5330  -34.8730   22.3340 O   0  0  0  0  0  0  0  0  0  0  0  0
  -24.9320  -34.0420   24.9150 H   0  0  0  0  0  0  0  0  0  0  0  0
  -24.1250  -36.7480   23.0300 C   0  0  0  0  0  1  0  0  0  0  0  0
  -25.3670  -36.3420   23.8390 C   0  0  0  0  0  3  0  0  0  0  0  0
  -27.4960  -37.2250   24.6780 C   0  0  0  0  0  1  0  0  0  0  0  0
  -26.3930  -37.4010   23.7380 N   0  0  0  0  0  0  0  0  0  0  0  0
  -25.9820  -38.3160   23.8990 H   0  0  0  0  0  0  0  0  0  0  0  0
  -26.3790  -31.7250   25.0340 C   0  0  1  0  0  0  0  0  0  0  0  0
  -25.2940  -31.4660   26.1060 C   0  0  0  0  0  1  0  0  0  0  0  0
  -26.9690  -30.3550   24.6220 C   0  0  0  0  0  1  0  0  0  0  0  0
  -27.5290  -32.5180   25.6960 C   0  0  0  0  0  1  0  0  0  0  0  0
  -31.7000  -21.1640   19.2390 O   0  0  0  0  0  0  0  0  0  0  0  0
  -30.5600  -17.7380   20.0440 C   0  0  0  0  0  3  0  0  0  0  0  0
  -30.8590  -18.8920   19.2950 C   0  0  0  0  0  3  0  0  0  0  0  0
  -31.4280  -20.0590   21.3430 C   0  0  0  0  0  3  0  0  0  0  0  0
  -30.7090  -17.7090   21.4550 C   0  0  0  0  0  0  0  0  0  0  0  0
  -31.1060  -18.9160   22.1060 C   0  0  0  0  0  0  0  0  0  0  0  0
  -31.3130  -20.0540   19.9430 C   0  0  0  0  0  0  0  0  0  0  0  0
  -31.2160  -19.0550   23.6170 C   0  0  0  0  0  1  0  0  0  0  0  0
  -31.7470  -15.8790   22.9370 C   0  0  0  0  0  1  0  0  0  0  0  0
  -30.4660  -16.4060   22.2490 C   0  0  0  0  0  3  0  0  0  0  0  0
  -30.2480  -14.5590   20.5250 C   0  0  0  0  0  0  0  0  0  0  0  0
  -29.9090  -12.5320   19.1620 C   0  0  0  0  0  2  0  0  0  0  0  0
  -28.9090  -12.7800   18.0190 C   0  0  0  0  0  2  0  0  0  0  0  0
  -27.4670  -12.5380   18.5010 C   0  0  0  0  0  2  0  0  0  0  0  0
  -27.1510  -13.2860   19.8240 C   0  0  0  0  0  3  0  0  0  0  0  0
  -28.2570  -13.0410   20.8740 C   0  0  0  0  0  2  0  0  0  0  0  0
  -29.5530  -13.4190   20.2800 N   0  0  0  0  0  0  0  0  0  0  0  0
  -31.2510  -14.8800   19.8820 O   0  0  0  0  0  0  0  0  0  0  0  0
  -29.7890  -15.3080   21.5410 N   0  0  0  0  0  0  0  0  0  0  0  0
  -28.9300  -14.9810   21.9580 H   0  0  0  0  0  0  0  0  0  0  0  0
  -24.7370  -13.7350   20.5920 C   0  0  0  0  0  0  0  0  0  0  0  0
  -23.7320  -12.8960   20.9910 C   0  0  0  0  0  0  0  0  0  0  0  0
  -24.2810  -11.5770   20.9520 C   0  0  0  0  0  0  0  0  0  0  0  0
  -25.8320  -12.9250   20.3380 N   0  0  0  0  0  0  0  0  0  0  0  0
  -25.5630  -11.6220   20.6100 N   0  0  0  0  0  0  0  0  0  0  0  0
  -23.6470  -10.2700   21.1650 C   0  0  0  0  0  0  0  0  0  0  0  0
  -24.1450   -9.3530   22.1160 C   0  0  0  0  0  3  0  0  0  0  0  0
  -23.5070   -8.1100   22.3150 C   0  0  0  0  0  3  0  0  0  0  0  0
  -22.3560   -7.7750   21.5610 C   0  0  0  0  0  0  0  0  0  0  0  0
  -21.8800   -8.6820   20.5990 C   0  0  0  0  0  3  0  0  0  0  0  0
  -22.5190   -9.9150   20.3990 C   0  0  0  0  0  3  0  0  0  0  0  0
  -21.6860   -6.5790   21.6680 O   0  0  0  0  0  0  0  0  0  0  0  0
  -21.6720   -5.8650   22.8390 C   0  0  0  0  0  0  0  0  0  0  0  0
  -21.1880   -6.4190   24.0440 C   0  0  0  0  0  3  0  0  0  0  0  0
  -21.1250   -5.6280   25.2080 C   0  0  0  0  0  3  0  0  0  0  0  0
  -21.5350   -4.2810   25.1670 C   0  0  0  0  0  0  0  0  0  0  0  0
  -22.0110   -3.7260   23.9670 C   0  0  0  0  0  3  0  0  0  0  0  0
  -22.0760   -4.5150   22.8050 C   0  0  0  0  0  0  0  0  0  0  0  0
  -22.5160   -3.9700   21.6450 F   0  0  0  0  0  0  0  0  0  0  0  0
  -21.4680   -3.5180   26.2830 F   0  0  0  0  0  0  0  0  0  0  0  0
  -22.3130  -13.2810   21.2990 C   0  0  0  0  0  0  0  0  0  0  0  0
  -21.6610  -12.5450   22.1920 N   0  0  0  0  0  0  0  0  0  0  0  0
  -21.7900  -14.2680   20.7820 O   0  0  0  0  0  0  0  0  0  0  0  0
  -22.1000  -11.7500   22.6320 H   0  0  0  0  0  0  0  0  0  0  0  0
  -20.7110  -12.7800   22.4430 H   0  0  0  0  0  0  0  0  0  0  0  0
  -24.8100  -15.1130   20.4060 N   0  0  0  0  0  0  0  0  0  0  0  0
  -24.0140  -15.7290   20.5340 H   0  0  0  0  0  0  0  0  0  0  0  0
  -25.6350  -15.5970   20.0740 H   0  0  0  0  0  0  0  0  0  0  0  0
  1  5  1  0
  3  1  1  0
  3  6  1  0
  4  2  1  0
  5 51  1  0
  5  2  1  0
  6  7  1  1
  6  4  1  0
  8  6  1  0
  8  9  1  0
  9 10  1  0
 10 12  1  0
 11 22  2  0
 12 17  1  0
 13 21  1  0
 13 23  1  0
 14 20  1  0
 14 16  1  0
 15 21  1  0
 16 15  1  0
 17 16  2  0
 18 19  1  0
 18 12  2  0
 19 14  2  0
 20 13  1  0
 21 11  1  0
 23 25  2  0
 24 23  1  0
 26 24  1  0
 27 36  2  0
 27 32  1  0
 28 24  1  0
 28 32  1  0
 29 28  1  0
 30 31  1  0
 30 29  1  0
 31 27  1  0
 32 33  2  0
 33 34  1  0
 35 34  2  0
 36 35  1  0
 37 11  1  0
 37 38  1  0
 37 47  1  0
 38 41  1  0
 39 43  1  0
 39 38  1  0
 40 39  2  0
 43 42  1  0
 45 43  1  0
 45 46  1  0
 45 44  1  0
 47 50  1  1
 47 48  1  0
 49 47  1  0
 51 57  1  0
 52 55  1  0
 53 57  1  0
 53 52  2  0
 54 56  1  0
 55 56  2  0
 55 60  1  0
 56 58  1  0
 57 54  2  0
 60 59  1  0
 61 69  1  0
 62 67  1  0
 63 64  1  0
 63 62  1  0
 65 64  1  0
 65 74  1  0
 65 66  1  0
 67 61  1  0
 67 66  1  0
 68 61  2  0
 69 70  1  0
 69 60  1  0
 71 72  2  0
 72 91  1  0
 73 72  1  0
 73 76  1  0
 74 71  1  0
 74 75  1  0
 75 73  2  0
 76 77  1  0
 77 78  2  0
 79 82  1  0
 79 78  1  0
 80 79  2  0
 81 80  1  0
 81 76  2  0
 82 83  1  0
 83 84  1  0
 84 85  2  0
 86 85  1  0
 86 90  1  0
 87 86  2  0
 88 83  2  0
 88 87  1  0
 89 88  1  0
 91 92  1  0
 92 95  1  0
 92 94  1  0
 93 91  2  0
 96 97  1  0
 96 71  1  0
 98 96  1  0
M  ISO  4   9 101  10 101  61 100  69 100
M  END
>  <TORSDO>  (96) 
F 21

>  <SCORE>  (96) 
-11.100

>  <name>  (96) 
96

>  <ligand_id>  (96) 
96

>  <original_smiles>  (96) 
[H]c1c([H])c([H])c2c(c1[H])C([H])([H])C([H])([H])C([H])([H])C2([H])N([H])C(=O)C1([H])N(C(=O)C([H])(N([H])C(=O)C([H])(N([H])C([H])([H])[H])C([H])([H])[H])C(C([H])([H])[H])(C([H])([H])[H])C([H])([H])[H])C([H])([H])c2c([H])c(OC([H])([H])C([H])([H])[N+]3([H])C([H])([H])C([H])([H])C([H])(Oc4c([H])c([H])c(C([H])(N([H])C(=O)N5C([H])([H])C([H])([H])C([H])([H])C([H])(n6nc(-c7c([H])c([H])c(Oc8c([H])c([H])c(F)c([H])c8F)c([H])c7[H])c(C(=O)N([H])[H])c6N([H])[H])C5([H])[H])C([H])([H])[H])c(C([H])([H])[H])c4[H])C([H])([H])C3([H])[H])c([H])c([H])c2C1([H])[H]

>  <smiles>  (96) 
[H]c1c([H])c([H])c2c(c1[H])C([H])([H])C([H])([H])C([H])([H])C2([H])N([H])C(=O)C1([H])N(C(=O)C([H])(N([H])C(=O)C([H])(N([H])C([H])([H])[H])C([H])([H])[H])C(C([H])([H])[H])(C([H])([H])[H])C([H])([H])[H])C([H])([H])c2c([H])c(OC([H])([H])C([H])([H])[N+]3([H])C([H])([H])C([H])([H])C([H])(Oc4c([H])c([H])c(C([H])(N([H])C(=O)N5C([H])([H])C([H])([H])C([H])([H])C([H])(n6nc(-c7c([H])c([H])c(Oc8c([H])c([H])c(F)c([H])c8F)c([H])c7[H])c(C(=O)N([H])[H])c6N([H])[H])C5([H])[H])C([H])([H])[H])c(C([H])([H])[H])c4[H])C([H])([H])C3([H])[H])c([H])c([H])c2C1([H])[H]

$$$$
