0:0:0
     RDKit          3D

 99108  0  0  1  0  0  0  0  0999 V2000
  -30.6000  -19.6990   16.7520 C   0  0  0  0  0  3  0  0  0  0  0  0
  -30.8640  -18.5920   19.3260 C   0  0  0  0  0  0  0  0  0  0  0  0
  -31.6980  -18.8780   17.0190 C   0  0  0  0  0  0  0  0  0  0  0  0
  -29.7150  -20.0940   17.7710 C   0  0  0  0  0  0  0  0  0  0  0  0
  -31.8100  -18.2810   18.2970 C   0  0  0  0  0  0  0  0  0  0  0  0
  -30.0340  -19.7990   19.1350 C   0  0  0  0  0  0  0  0  0  0  0  0
  -29.8580  -18.4780   21.5870 C   0  0  0  0  0  2  0  0  0  0  0  0
  -29.9930  -20.0540   21.5220 C   0  0  0  0  0  2  0  0  0  0  0  0
  -30.8270  -17.7020   20.6420 C   0  0  0  0  0  3  0  0  0  0  0  0
  -33.0100  -17.3810   18.5480 C   0  0  0  0  0  1  0  0  0  0  0  0
  -29.6230  -20.6760   20.2310 N   0  0  0  0  0  0  0  0  0  0  0  0
  -31.2770  -14.9760   20.7210 C   0  0  0  0  0  0  0  0  0  0  0  0
  -31.1600  -12.5870   19.9400 C   0  0  0  0  0  2  0  0  0  0  0  0
  -30.3350  -12.4780   18.6380 C   0  0  0  0  0  2  0  0  0  0  0  0
  -28.8360  -12.3210   18.9580 C   0  0  0  0  0  2  0  0  0  0  0  0
  -28.3420  -13.3320   20.0260 C   0  0  0  0  0  3  0  0  0  0  0  0
  -29.3020  -13.4300   21.2300 C   0  0  0  0  0  2  0  0  0  0  0  0
  -30.6340  -13.7500   20.6970 N   0  0  0  0  0  0  0  0  0  0  0  0
  -32.5050  -14.9780   20.6570 O   0  0  0  0  0  0  0  0  0  0  0  0
  -30.5290  -16.1600   20.6000 N   0  0  0  0  0  0  0  0  0  0  0  0
  -29.5430  -15.9590   20.5390 H   0  0  0  0  0  0  0  0  0  0  0  0
  -25.9210  -13.9620   20.5650 C   0  0  0  0  0  0  0  0  0  0  0  0
  -24.8190  -13.2100   20.8720 C   0  0  0  0  0  0  0  0  0  0  0  0
  -25.2650  -11.8540   20.9130 C   0  0  0  0  0  0  0  0  0  0  0  0
  -26.9650  -13.0650   20.4320 N   0  0  0  0  0  0  0  0  0  0  0  0
  -26.5750  -11.7910   20.7040 N   0  0  0  0  0  0  0  0  0  0  0  0
  -24.5050  -10.6070   21.0770 C   0  0  0  0  0  0  0  0  0  0  0  0
  -24.8370   -9.6650   22.0740 C   0  0  0  0  0  3  0  0  0  0  0  0
  -24.0800   -8.4830   22.2230 C   0  0  0  0  0  3  0  0  0  0  0  0
  -22.9750   -8.2370   21.3730 C   0  0  0  0  0  0  0  0  0  0  0  0
  -22.6640   -9.1680   20.3660 C   0  0  0  0  0  3  0  0  0  0  0  0
  -23.4220  -10.3400   20.2170 C   0  0  0  0  0  3  0  0  0  0  0  0
  -22.1960   -7.1080   21.4290 O   0  0  0  0  0  0  0  0  0  0  0  0
  -22.0140   -6.4160   22.6000 C   0  0  0  0  0  0  0  0  0  0  0  0
  -21.4490   -7.0230   23.7430 C   0  0  0  0  0  3  0  0  0  0  0  0
  -21.2160   -6.2570   24.9030 C   0  0  0  0  0  3  0  0  0  0  0  0
  -21.5350   -4.8860   24.9190 C   0  0  0  0  0  0  0  0  0  0  0  0
  -22.0880   -4.2790   23.7770 C   0  0  0  0  0  3  0  0  0  0  0  0
  -22.3240   -5.0420   22.6210 C   0  0  0  0  0  0  0  0  0  0  0  0
  -22.8400   -4.4470   21.5180 F   0  0  0  0  0  0  0  0  0  0  0  0
  -21.3010   -4.1480   26.0280 F   0  0  0  0  0  0  0  0  0  0  0  0
  -23.4140  -13.7140   21.0190 C   0  0  0  0  0  0  0  0  0  0  0  0
  -22.6140  -13.0540   21.8520 N   0  0  0  0  0  0  0  0  0  0  0  0
  -23.0310  -14.7280   20.4370 O   0  0  0  0  0  0  0  0  0  0  0  0
  -22.9360  -12.2350   22.3460 H   0  0  0  0  0  0  0  0  0  0  0  0
  -21.6670  -13.3710   21.9930 H   0  0  0  0  0  0  0  0  0  0  0  0
  -26.1130  -15.3240   20.3630 N   0  0  0  0  0  0  0  0  0  0  0  0
  -25.3360  -15.9780   20.3980 H   0  0  0  0  0  0  0  0  0  0  0  0
  -26.9770  -15.7560   20.0600 H   0  0  0  0  0  0  0  0  0  0  0  0
  -33.8330  -19.6240   15.8320 C   0  0  0  0  0  1  0  0  0  0  0  0
  -32.6800  -18.6070   15.8800 C   0  0  0  0  0  2  0  0  0  0  0  0
  -27.6580  -19.9490   16.2070 C   0  0  0  0  0  1  0  0  0  0  0  0
  -28.4030  -20.7340   17.3060 C   0  0  0  0  0  2  0  0  0  0  0  0
  -27.5090  -21.8450   20.9170 C   0  0  0  0  0  1  0  0  0  0  0  0
  -28.8450  -22.0300   20.1700 C   0  0  0  0  0  3  0  0  0  0  0  0
  -30.0260  -23.6690   21.8830 C   0  0  0  0  0  1  0  0  0  0  0  0
  -29.4560  -23.5490   20.4600 C   0  0  0  0  0  3  0  0  0  0  0  0
  -28.4570  -24.8440   20.1670 C   0  0  0  0  0  2  0  0  0  0  0  0
  -28.7180  -26.3410   20.3660 O   0  0  0  0  0  0  0  0  0  0  0  0
  -24.8150  -31.7790   23.3270 C   0  0  0  0  0  0  0  0  0  0  0  0
  -27.6310  -27.2680   20.2730 C   0  0  0  0  0  0  0  0  0  0  0  0
  -23.7130  -30.4110   21.5960 C   0  0  0  0  0  3  0  0  0  0  0  0
  -25.2560  -28.9250   20.1860 C   0  0  0  0  0  0  0  0  0  0  0  0
  -26.2620  -30.7540   21.5420 C   0  0  0  0  0  2  0  0  0  0  0  0
  -26.3950  -29.3900   20.8550 C   0  0  0  0  0  0  0  0  0  0  0  0
  -27.5830  -28.5770   20.8860 C   0  0  0  0  0  3  0  0  0  0  0  0
  -26.4630  -26.8930   19.5670 C   0  0  0  0  0  3  0  0  0  0  0  0
  -25.3010  -27.6880   19.5300 C   0  0  0  0  0  3  0  0  0  0  0  0
  -24.0080  -29.7910   20.2040 C   0  0  0  0  0  2  0  0  0  0  0  0
  -24.9450  -31.0000   22.2110 N   0  0  0  0  0  0  0  0  0  0  0  0
  -23.7030  -32.0190   23.8220 O   0  0  0  0  0  0  0  0  0  0  0  0
  -23.0240  -29.3540   22.4940 C   0  0  0  0  0  0  0  0  0  0  0  0
  -21.7040  -29.1640   22.3140 N   0  0  0  0  0  0  0  0  0  0  0  0
  -23.6780  -28.7090   23.3170 O   0  0  0  0  0  0  0  0  0  0  0  0
  -21.2300  -29.7480   21.6400 H   0  0  0  0  0  0  0  0  0  0  0  0
  -18.3240  -27.9030   22.6490 C   0  0  0  0  0  0  0  0  0  0  0  0
  -20.8690  -28.1870   23.0190 C   0  0  0  0  0  3  0  0  0  0  0  0
  -21.0110  -26.7760   22.4010 C   0  0  0  0  0  2  0  0  0  0  0  0
  -19.9510  -26.4750   21.3350 C   0  0  0  0  0  2  0  0  0  0  0  0
  -18.5460  -26.5790   21.9340 C   0  0  0  0  0  2  0  0  0  0  0  0
  -19.4180  -28.6640   23.1440 C   0  0  0  0  0  0  0  0  0  0  0  0
  -19.1590  -29.9010   23.7730 C   0  0  0  0  0  3  0  0  0  0  0  0
  -17.8410  -30.3790   23.9100 C   0  0  0  0  0  3  0  0  0  0  0  0
  -16.7630  -29.6140   23.4320 C   0  0  0  0  0  3  0  0  0  0  0  0
  -17.0060  -28.3770   22.8060 C   0  0  0  0  0  3  0  0  0  0  0  0
  -26.0530  -32.4200   24.0250 C   0  0  0  0  0  3  0  0  0  0  0  0
  -25.7140  -33.8140   24.3420 N   0  0  0  0  0  0  0  0  0  0  0  0
  -26.0400  -34.8720   23.5890 C   0  0  0  0  0  0  0  0  0  0  0  0
  -26.7280  -34.7780   22.5690 O   0  0  0  0  0  0  0  0  0  0  0  0
  -25.1050  -33.9580   25.1350 H   0  0  0  0  0  0  0  0  0  0  0  0
  -24.2750  -36.6270   23.2230 C   0  0  0  0  0  1  0  0  0  0  0  0
  -25.5230  -36.2550   24.0370 C   0  0  0  0  0  3  0  0  0  0  0  0
  -27.6390  -37.1920   24.8600 C   0  0  0  0  0  1  0  0  0  0  0  0
  -26.5350  -37.3290   23.9150 N   0  0  0  0  0  0  0  0  0  0  0  0
  -26.1100  -38.2420   24.0540 H   0  0  0  0  0  0  0  0  0  0  0  0
  -26.4970  -31.6480   25.3290 C   0  0  1  0  0  0  0  0  0  0  0  0
  -25.3450  -31.4030   26.3330 C   0  0  0  0  0  1  0  0  0  0  0  0
  -27.1090  -30.2740   24.9700 C   0  0  0  0  0  1  0  0  0  0  0  0
  -27.6050  -32.4460   26.0560 C   0  0  0  0  0  1  0  0  0  0  0  0
  1  3  2  0
  1  4  1  0
  2  9  1  0
  3  5  1  0
  4  6  2  0
  5 10  1  0
  5  2  2  0
  6  2  1  0
  6 11  1  0
  8  7  1  0
  9 20  1  0
  9  7  1  0
 11  8  1  0
 13 18  1  0
 14 15  1  0
 14 13  1  0
 16 15  1  0
 16 25  1  0
 16 17  1  0
 18 12  1  0
 18 17  1  0
 19 12  2  0
 20 12  1  0
 21 20  1  0
 22 23  2  0
 23 24  1  0
 23 42  1  0
 24 27  1  0
 25 22  1  0
 25 26  1  0
 26 24  2  0
 27 28  1  0
 28 29  2  0
 30 33  1  0
 30 29  1  0
 31 30  2  0
 32 31  1  0
 32 27  2  0
 33 34  1  0
 34 39  2  0
 34 35  1  0
 35 36  2  0
 36 37  1  0
 37 41  1  0
 38 37  2  0
 39 38  1  0
 40 39  1  0
 42 43  1  0
 43 46  1  0
 43 45  1  0
 44 42  2  0
 47 48  1  0
 47 22  1  0
 49 47  1  0
 50 51  1  0
 51  3  1  0
 52 53  1  0
 53  4  1  0
 55 11  1  0
 55 57  1  0
 55 54  1  0
 57 56  1  0
 58 59  1  0
 58 57  1  0
 60 71  2  0
 61 59  1  0
 61 66  1  0
 62 70  1  0
 62 72  1  0
 63 69  1  0
 63 65  1  0
 64 70  1  0
 65 66  2  0
 65 64  1  0
 67 61  2  0
 68 67  1  0
 68 63  2  0
 69 62  1  0
 70 60  1  0
 72 74  2  0
 73 72  1  0
 75 73  1  0
 76 85  2  0
 76 81  1  0
 77 73  1  0
 77 81  1  0
 78 77  1  0
 79 80  1  0
 79 78  1  0
 80 76  1  0
 81 82  2  0
 82 83  1  0
 84 83  2  0
 85 84  1  0
 86 60  1  0
 86 87  1  0
 86 96  1  0
 87 90  1  0
 88 92  1  0
 88 87  1  0
 89 88  2  0
 92 91  1  0
 94 92  1  0
 94 95  1  0
 94 93  1  0
 96 99  1  1
 96 97  1  0
 98 96  1  0
M  ISO  4  12 100  20 100  58 101  59 101
M  END
>  <TORSDO>  (1) 
F 21

>  <SCORE>  (1) 
-12.156

>  <name>  (1) 
0

>  <ligand_id>  (1) 
0

>  <original_smiles>  (1) 
[H]c1c([H])c([H])c2c(c1[H])C([H])([H])C([H])([H])C([H])([H])C2([H])N([H])C(=O)C1([H])N(C(=O)C([H])(N([H])C(=O)C([H])(N([H])C([H])([H])[H])C([H])([H])[H])C(C([H])([H])[H])(C([H])([H])[H])C([H])([H])[H])C([H])([H])c2c([H])c(OC([H])([H])C([H])(C([H])([H])[H])C([H])(N3c4c(C([H])([H])C([H])([H])[H])c([H])c(C([H])([H])C([H])([H])[H])c(C([H])([H])[H])c4C([H])(N([H])C(=O)N4C([H])([H])C([H])([H])C([H])([H])C([H])(n5nc(-c6c([H])c([H])c(Oc7c([H])c([H])c(F)c([H])c7F)c([H])c6[H])c(C(=O)N([H])[H])c5N([H])[H])C4([H])[H])C([H])([H])C3([H])[H])C([H])([H])[H])c([H])c([H])c2C1([H])[H]

>  <smiles>  (1) 
[H]c1c([H])c([H])c2c(c1[H])C([H])([H])C([H])([H])C([H])([H])C2([H])N([H])C(=O)C1([H])N(C(=O)C([H])(N([H])C(=O)C([H])(N([H])C([H])([H])[H])C([H])([H])[H])C(C([H])([H])[H])(C([H])([H])[H])C([H])([H])[H])C([H])([H])c2c([H])c(OC([H])([H])C([H])(C([H])([H])[H])C([H])(N3c4c(C([H])([H])C([H])([H])[H])c([H])c(C([H])([H])C([H])([H])[H])c(C([H])([H])[H])c4C([H])(N([H])C(=O)N4C([H])([H])C([H])([H])C([H])([H])C([H])(n5nc(-c6c([H])c([H])c(Oc7c([H])c([H])c(F)c([H])c7F)c([H])c6[H])c(C(=O)N([H])[H])c5N([H])[H])C4([H])[H])C([H])([H])C3([H])[H])C([H])([H])[H])c([H])c([H])c2C1([H])[H]

$$$$
1:0:0
     RDKit          3D

 93102  0  0  1  0  0  0  0  0999 V2000
  -28.9560  -23.3920   21.3980 C   0  0  0  0  0  3  0  0  0  0  0  0
  -29.7350  -20.8040   20.6760 C   0  0  0  0  0  0  0  0  0  0  0  0
  -29.1440  -23.1510   20.0260 C   0  0  0  0  0  0  0  0  0  0  0  0
  -29.5600  -21.8170   19.6580 C   0  0  0  0  0  0  0  0  0  0  0  0
  -29.4390  -21.2100   22.0100 C   0  0  0  0  0  0  0  0  0  0  0  0
  -29.8180  -21.4930   18.1930 C   0  0  0  0  0  1  0  0  0  0  0  0
  -29.4780  -20.2770   23.2120 C   0  0  0  0  0  1  0  0  0  0  0  0
  -29.0840  -22.4610   22.3500 N   0  0  0  0  0  0  0  0  0  0  0  0
  -31.7240  -15.2650   19.5680 C   0  0  0  0  0  0  0  0  0  0  0  0
  -31.3710  -12.9710   18.6780 C   0  0  0  0  0  2  0  0  0  0  0  0
  -30.3120  -12.9760   17.5600 C   0  0  0  0  0  2  0  0  0  0  0  0
  -28.9100  -12.7580   18.1600 C   0  0  0  0  0  2  0  0  0  0  0  0
  -28.6310  -13.6920   19.3650 C   0  0  0  0  0  3  0  0  0  0  0  0
  -29.8160  -13.7320   20.3610 C   0  0  0  0  0  2  0  0  0  0  0  0
  -31.0300  -14.0740   19.6050 N   0  0  0  0  0  0  0  0  0  0  0  0
  -32.8620  -15.2760   19.0930 O   0  0  0  0  0  0  0  0  0  0  0  0
  -29.4130  -18.4080   19.5370 C   0  0  0  0  0  2  0  0  0  0  0  0
  -31.6880  -19.0430   20.1200 C   0  0  0  0  0  2  0  0  0  0  0  0
  -29.7680  -16.8850   19.6630 C   0  0  0  0  0  2  0  0  0  0  0  0
  -32.0720  -17.5640   20.4590 C   0  0  0  0  0  2  0  0  0  0  0  0
  -30.2260  -19.3150   20.4650 C   0  0  0  0  0  3  0  0  0  0  0  0
  -31.1640  -16.4680   19.9790 N   0  0  0  0  0  0  0  0  0  0  0  0
  -26.4050  -14.2710   20.5000 C   0  0  0  0  0  0  0  0  0  0  0  0
  -25.3690  -13.4880   20.9260 C   0  0  0  0  0  0  0  0  0  0  0  0
  -25.7660  -12.1380   20.6760 C   0  0  0  0  0  0  0  0  0  0  0  0
  -27.3650  -13.3950   20.0170 N   0  0  0  0  0  0  0  0  0  0  0  0
  -26.9960  -12.1010   20.1840 N   0  0  0  0  0  0  0  0  0  0  0  0
  -25.0240  -10.8820   20.8230 C   0  0  0  0  0  0  0  0  0  0  0  0
  -25.3780   -9.9260   21.8000 C   0  0  0  0  0  3  0  0  0  0  0  0
  -24.6380   -8.7310   21.9310 C   0  0  0  0  0  3  0  0  0  0  0  0
  -23.5290   -8.4870   21.0870 C   0  0  0  0  0  0  0  0  0  0  0  0
  -23.1970   -9.4320   20.1000 C   0  0  0  0  0  3  0  0  0  0  0  0
  -23.9370  -10.6180   19.9660 C   0  0  0  0  0  3  0  0  0  0  0  0
  -22.7670   -7.3450   21.1270 O   0  0  0  0  0  0  0  0  0  0  0  0
  -22.3480   -6.8030   22.3150 C   0  0  0  0  0  0  0  0  0  0  0  0
  -21.5520   -7.5290   23.2290 C   0  0  0  0  0  3  0  0  0  0  0  0
  -21.0860   -6.9090   24.4050 C   0  0  0  0  0  3  0  0  0  0  0  0
  -21.4050   -5.5630   24.6660 C   0  0  0  0  0  0  0  0  0  0  0  0
  -22.1910   -4.8360   23.7550 C   0  0  0  0  0  3  0  0  0  0  0  0
  -22.6590   -5.4540   22.5810 C   0  0  0  0  0  0  0  0  0  0  0  0
  -23.4000   -4.7430   21.6970 F   0  0  0  0  0  0  0  0  0  0  0  0
  -20.9500   -4.9640   25.7910 F   0  0  0  0  0  0  0  0  0  0  0  0
  -24.0440  -13.9640   21.4460 C   0  0  0  0  0  0  0  0  0  0  0  0
  -23.4310  -13.2090   22.3500 N   0  0  0  0  0  0  0  0  0  0  0  0
  -23.5660  -15.0400   21.0850 O   0  0  0  0  0  0  0  0  0  0  0  0
  -23.8310  -12.3350   22.6620 H   0  0  0  0  0  0  0  0  0  0  0  0
  -22.5480  -13.5090   22.7380 H   0  0  0  0  0  0  0  0  0  0  0  0
  -26.5980  -15.6500   20.4570 N   0  0  0  0  0  0  0  0  0  0  0  0
  -25.8890  -16.3060   20.7690 H   0  0  0  0  0  0  0  0  0  0  0  0
  -27.4050  -16.1040   20.0520 H   0  0  0  0  0  0  0  0  0  0  0  0
  -28.8880  -24.3400   19.0290 C   0  0  0  0  0  3  0  0  0  0  0  0
  -28.2510  -25.6630   19.6300 C   0  0  0  0  0  3  0  0  0  0  0  0
  -28.1430  -26.8580   18.7930 O   0  0  0  0  0  0  0  0  0  0  0  0
  -24.4560  -31.5340   22.8170 C   0  0  0  0  0  0  0  0  0  0  0  0
  -26.9850  -27.6090   18.9760 C   0  0  0  0  0  0  0  0  0  0  0  0
  -23.1670  -30.2940   21.1100 C   0  0  0  0  0  3  0  0  0  0  0  0
  -24.5510  -29.0230   19.3750 C   0  0  0  0  0  0  0  0  0  0  0  0
  -25.6550  -30.7890   20.7540 C   0  0  0  0  0  2  0  0  0  0  0  0
  -25.7400  -29.5150   19.9310 C   0  0  0  0  0  0  0  0  0  0  0  0
  -26.9610  -28.8190   19.7220 C   0  0  0  0  0  3  0  0  0  0  0  0
  -25.7770  -27.1540   18.4090 C   0  0  0  0  0  3  0  0  0  0  0  0
  -24.5670  -27.8460   18.6080 C   0  0  0  0  0  3  0  0  0  0  0  0
  -23.2830  -29.8070   19.6410 C   0  0  0  0  0  2  0  0  0  0  0  0
  -24.4500  -30.8830   21.6180 N   0  0  0  0  0  0  0  0  0  0  0  0
  -23.4160  -31.6800   23.4730 O   0  0  0  0  0  0  0  0  0  0  0  0
  -22.6410  -29.1280   21.9800 C   0  0  0  0  0  0  0  0  0  0  0  0
  -21.3310  -28.8450   21.8770 N   0  0  0  0  0  0  0  0  0  0  0  0
  -23.4070  -28.4860   22.7040 O   0  0  0  0  0  0  0  0  0  0  0  0
  -20.7680  -29.4260   21.2720 H   0  0  0  0  0  0  0  0  0  0  0  0
  -18.1220  -27.2290   22.2560 C   0  0  0  0  0  0  0  0  0  0  0  0
  -20.6310  -27.7620   22.5660 C   0  0  0  0  0  3  0  0  0  0  0  0
  -20.8990  -26.4020   21.8790 C   0  0  0  0  0  2  0  0  0  0  0  0
  -19.8410  -26.0360   20.8350 C   0  0  0  0  0  2  0  0  0  0  0  0
  -18.4540  -25.9650   21.4810 C   0  0  0  0  0  2  0  0  0  0  0  0
  -19.1440  -28.0810   22.7520 C   0  0  0  0  0  0  0  0  0  0  0  0
  -18.7790  -29.2620   23.4350 C   0  0  0  0  0  3  0  0  0  0  0  0
  -17.4260  -29.5940   23.6270 C   0  0  0  0  0  3  0  0  0  0  0  0
  -16.4190  -28.7400   23.1480 C   0  0  0  0  0  3  0  0  0  0  0  0
  -16.7660  -27.5580   22.4700 C   0  0  0  0  0  3  0  0  0  0  0  0
  -25.7640  -32.1450   23.4090 C   0  0  0  0  0  3  0  0  0  0  0  0
  -25.4550  -33.5100   23.8520 N   0  0  0  0  0  0  0  0  0  0  0  0
  -25.7550  -34.6200   23.1630 C   0  0  0  0  0  0  0  0  0  0  0  0
  -26.3920  -34.5980   22.1060 O   0  0  0  0  0  0  0  0  0  0  0  0
  -24.8890  -33.6000   24.6820 H   0  0  0  0  0  0  0  0  0  0  0  0
  -24.0080  -36.4200   22.9840 C   0  0  0  0  0  1  0  0  0  0  0  0
  -25.2700  -35.9650   23.7350 C   0  0  0  0  0  3  0  0  0  0  0  0
  -27.4150  -36.8050   24.5890 C   0  0  0  0  0  1  0  0  0  0  0  0
  -26.2950  -37.0320   23.6790 N   0  0  0  0  0  0  0  0  0  0  0  0
  -25.8860  -37.9370   23.9010 H   0  0  0  0  0  0  0  0  0  0  0  0
  -26.3630  -31.2970   24.5980 C   0  0  1  0  0  0  0  0  0  0  0  0
  -25.3300  -30.9500   25.6950 C   0  0  0  0  0  1  0  0  0  0  0  0
  -26.9620  -29.9700   24.0720 C   0  0  0  0  0  1  0  0  0  0  0  0
  -27.5260  -32.0730   25.2600 C   0  0  0  0  0  1  0  0  0  0  0  0
  1  8  1  0
  2  5  1  0
  3  1  2  0
  4  3  1  0
  4  2  2  0
  5  8  2  0
  5  7  1  0
  6  4  1  0
  9 15  1  0
  9 22  1  0
 10 15  1  0
 11 12  1  0
 11 10  1  0
 13 12  1  0
 13 26  1  0
 13 14  1  0
 15 14  1  0
 16  9  2  0
 17 19  1  0
 17 21  1  0
 18 20  1  0
 18 21  1  0
 19 22  1  0
 21  2  1  0
 22 20  1  0
 23 24  2  0
 24 43  1  0
 25 28  1  0
 25 24  1  0
 26 27  1  0
 26 23  1  0
 27 25  2  0
 28 29  1  0
 29 30  2  0
 31 34  1  0
 31 30  1  0
 32 31  2  0
 33 32  1  0
 33 28  2  0
 34 35  1  0
 35 40  2  0
 35 36  1  0
 36 37  2  0
 37 38  1  0
 38 42  1  0
 39 38  2  0
 40 39  1  0
 41 40  1  0
 43 44  1  0
 44 46  1  0
 44 47  1  0
 45 43  2  0
 48 23  1  0
 48 49  1  0
 50 48  1  0
 51 52  2  0
 51  3  1  0
 53 55  1  0
 53 52  1  0
 54 65  2  0
 55 60  1  0
 56 64  1  0
 56 66  1  0
 57 63  1  0
 57 59  1  0
 58 64  1  0
 59 58  1  0
 60 59  2  0
 61 62  1  0
 61 55  2  0
 62 57  2  0
 63 56  1  0
 64 54  1  0
 66 68  2  0
 67 66  1  0
 69 67  1  0
 70 79  2  0
 70 75  1  0
 71 67  1  0
 71 75  1  0
 72 71  1  0
 73 74  1  0
 73 72  1  0
 74 70  1  0
 75 76  2  0
 76 77  1  0
 78 77  2  0
 79 78  1  0
 80 54  1  0
 80 81  1  0
 80 90  1  0
 81 84  1  0
 82 86  1  0
 82 81  1  0
 83 82  2  0
 86 85  1  0
 88 86  1  0
 88 89  1  0
 88 87  1  0
 90 93  1  1
 90 91  1  0
 92 90  1  0
M  ISO  4   9 100  22 100  52 101  53 101
M  END
>  <TORSDO>  (2) 
F 18

>  <SCORE>  (2) 
-9.320

>  <name>  (2) 
1

>  <ligand_id>  (2) 
1

>  <original_smiles>  (2) 
[H]c1nc(C([H])([H])[H])c(C2([H])C([H])([H])C([H])([H])N(C(=O)N3C([H])([H])C([H])([H])C([H])([H])C([H])(n4nc(-c5c([H])c([H])c(Oc6c([H])c([H])c(F)c([H])c6F)c([H])c5[H])c(C(=O)N([H])[H])c4N([H])[H])C3([H])[H])C([H])([H])C2([H])[H])c(C([H])([H])[H])c1C([H])([H])C([H])([H])Oc1c([H])c([H])c2c(c1[H])C([H])([H])N(C(=O)C([H])(N([H])C(=O)C([H])(N([H])C([H])([H])[H])C([H])([H])[H])C(C([H])([H])[H])(C([H])([H])[H])C([H])([H])[H])C([H])(C(=O)N([H])C1([H])c3c([H])c([H])c([H])c([H])c3C([H])([H])C([H])([H])C1([H])[H])C2([H])[H]

>  <smiles>  (2) 
[H]c1nc(C([H])([H])[H])c(C2([H])C([H])([H])C([H])([H])N(C(=O)N3C([H])([H])C([H])([H])C([H])([H])C([H])(n4nc(-c5c([H])c([H])c(Oc6c([H])c([H])c(F)c([H])c6F)c([H])c5[H])c(C(=O)N([H])[H])c4N([H])[H])C3([H])[H])C([H])([H])C2([H])[H])c(C([H])([H])[H])c1C([H])([H])C([H])([H])Oc1c([H])c([H])c2c(c1[H])C([H])([H])N(C(=O)C([H])(N([H])C(=O)C([H])(N([H])C([H])([H])[H])C([H])([H])[H])C(C([H])([H])[H])(C([H])([H])[H])C([H])([H])[H])C([H])(C(=O)N([H])C1([H])c3c([H])c([H])c([H])c([H])c3C([H])([H])C([H])([H])C1([H])[H])C2([H])[H]

$$$$
2:0:0
     RDKit          3D

 93102  0  0  1  0  0  0  0  0999 V2000
  -28.9410  -23.4180   19.8070 C   0  0  0  0  0  3  0  0  0  0  0  0
  -29.2400  -22.0210   19.7210 C   0  0  0  0  0  3  0  0  0  0  0  0
  -29.0650  -24.1420   21.0240 C   0  0  0  0  0  0  0  0  0  0  0  0
  -29.4770  -23.3810   22.1660 C   0  0  0  0  0  0  0  0  0  0  0  0
  -29.7730  -21.9800   22.0730 C   0  0  0  0  0  0  0  0  0  0  0  0
  -29.6770  -21.2710   20.8460 C   0  0  0  0  0  0  0  0  0  0  0  0
  -29.6010  -24.0570   23.5350 C   0  0  0  0  0  1  0  0  0  0  0  0
  -30.2150  -21.2110   23.3140 C   0  0  0  0  0  1  0  0  0  0  0  0
  -28.7500  -25.6820   21.1840 C   0  0  0  0  0  2  0  0  0  0  0  0
  -28.6620  -26.5930   20.0480 O   0  0  0  0  0  0  0  0  0  0  0  0
  -24.7320  -31.7580   23.2060 C   0  0  0  0  0  0  0  0  0  0  0  0
  -27.5380  -27.4170   20.0550 C   0  0  0  0  0  0  0  0  0  0  0  0
  -23.5900  -30.3540   21.5230 C   0  0  0  0  0  3  0  0  0  0  0  0
  -25.1100  -28.8990   20.0700 C   0  0  0  0  0  0  0  0  0  0  0  0
  -26.1110  -30.7880   21.3580 C   0  0  0  0  0  2  0  0  0  0  0  0
  -26.2520  -29.4290   20.6870 C   0  0  0  0  0  0  0  0  0  0  0  0
  -27.4730  -28.6960   20.6790 C   0  0  0  0  0  3  0  0  0  0  0  0
  -26.3820  -26.9260   19.4190 C   0  0  0  0  0  3  0  0  0  0  0  0
  -25.1740  -27.6500   19.4280 C   0  0  0  0  0  3  0  0  0  0  0  0
  -23.8370  -29.7190   20.1290 C   0  0  0  0  0  2  0  0  0  0  0  0
  -24.8300  -30.9820   22.0870 N   0  0  0  0  0  0  0  0  0  0  0  0
  -23.6370  -31.9780   23.7430 O   0  0  0  0  0  0  0  0  0  0  0  0
  -22.9650  -29.2880   22.4560 C   0  0  0  0  0  0  0  0  0  0  0  0
  -21.6510  -29.0520   22.3060 N   0  0  0  0  0  0  0  0  0  0  0  0
  -23.6620  -28.6780   23.2700 O   0  0  0  0  0  0  0  0  0  0  0  0
  -21.1470  -29.5980   21.6230 H   0  0  0  0  0  0  0  0  0  0  0  0
  -18.3350  -27.6700   22.7050 C   0  0  0  0  0  0  0  0  0  0  0  0
  -20.8660  -28.0660   23.0490 C   0  0  0  0  0  3  0  0  0  0  0  0
  -21.0620  -26.6470   22.4670 C   0  0  0  0  0  2  0  0  0  0  0  0
  -20.0090  -26.2730   21.4200 C   0  0  0  0  0  2  0  0  0  0  0  0
  -18.6040  -26.3370   22.0250 C   0  0  0  0  0  2  0  0  0  0  0  0
  -19.3970  -28.4880   23.1720 C   0  0  0  0  0  0  0  0  0  0  0  0
  -19.0940  -29.7320   23.7670 C   0  0  0  0  0  3  0  0  0  0  0  0
  -17.7580  -30.1600   23.8980 C   0  0  0  0  0  3  0  0  0  0  0  0
  -16.7090  -29.3400   23.4470 C   0  0  0  0  0  3  0  0  0  0  0  0
  -16.9980  -28.0960   22.8570 C   0  0  0  0  0  3  0  0  0  0  0  0
  -25.9880  -32.4220   23.8500 C   0  0  0  0  0  3  0  0  0  0  0  0
  -25.6350  -33.8080   24.1810 N   0  0  0  0  0  0  0  0  0  0  0  0
  -25.9460  -34.8750   23.4300 C   0  0  0  0  0  0  0  0  0  0  0  0
  -26.6310  -34.7950   22.4070 O   0  0  0  0  0  0  0  0  0  0  0  0
  -25.0260  -33.9430   24.9750 H   0  0  0  0  0  0  0  0  0  0  0  0
  -24.1660  -36.6150   23.0690 C   0  0  0  0  0  1  0  0  0  0  0  0
  -25.4130  -36.2450   23.8890 C   0  0  0  0  0  3  0  0  0  0  0  0
  -27.5140  -37.1920   24.7380 C   0  0  0  0  0  1  0  0  0  0  0  0
  -26.4140  -37.3310   23.7880 N   0  0  0  0  0  0  0  0  0  0  0  0
  -25.9780  -38.2370   23.9380 H   0  0  0  0  0  0  0  0  0  0  0  0
  -26.5060  -31.6580   25.1290 C   0  0  1  0  0  0  0  0  0  0  0  0
  -25.4030  -31.3880   26.1790 C   0  0  0  0  0  1  0  0  0  0  0  0
  -27.1280  -30.2960   24.7400 C   0  0  0  0  0  1  0  0  0  0  0  0
  -27.6240  -32.4790   25.8130 C   0  0  0  0  0  1  0  0  0  0  0  0
  -30.1360  -19.9400   20.7710 O   0  0  0  0  0  0  0  0  0  0  0  0
  -31.0410  -14.6990   20.1830 C   0  0  0  0  0  0  0  0  0  0  0  0
  -30.7200  -12.4430   19.1900 C   0  0  0  0  0  2  0  0  0  0  0  0
  -29.7950  -12.5470   17.9600 C   0  0  0  0  0  2  0  0  0  0  0  0
  -28.3200  -12.4230   18.3920 C   0  0  0  0  0  2  0  0  0  0  0  0
  -27.9680  -13.3340   19.5990 C   0  0  0  0  0  3  0  0  0  0  0  0
  -29.0250  -13.2410   20.7200 C   0  0  0  0  0  2  0  0  0  0  0  0
  -30.3310  -13.5270   20.1170 N   0  0  0  0  0  0  0  0  0  0  0  0
  -32.2280  -14.7120   19.8400 O   0  0  0  0  0  0  0  0  0  0  0  0
  -29.8000  -18.1350   19.0370 C   0  0  0  0  0  2  0  0  0  0  0  0
  -28.9980  -17.7480   21.3680 C   0  0  0  0  0  2  0  0  0  0  0  0
  -30.8090  -16.9680   19.2790 C   0  0  0  0  0  2  0  0  0  0  0  0
  -30.0440  -16.5820   21.4910 C   0  0  0  0  0  2  0  0  0  0  0  0
  -29.2800  -18.8570   20.3030 C   0  0  0  0  0  3  0  0  0  0  0  0
  -30.3520  -15.9000   20.2130 N   0  0  0  0  0  0  0  0  0  0  0  0
  -25.5940  -13.9720   20.3320 C   0  0  0  0  0  0  0  0  0  0  0  0
  -24.5180  -13.2190   20.7130 C   0  0  0  0  0  0  0  0  0  0  0  0
  -24.9570  -11.8590   20.6900 C   0  0  0  0  0  0  0  0  0  0  0  0
  -26.6220  -13.0740   20.0990 N   0  0  0  0  0  0  0  0  0  0  0  0
  -26.2460  -11.7970   20.3760 N   0  0  0  0  0  0  0  0  0  0  0  0
  -24.2100  -10.6110   20.8930 C   0  0  0  0  0  0  0  0  0  0  0  0
  -24.6010   -9.6650   21.8660 C   0  0  0  0  0  3  0  0  0  0  0  0
  -23.8570   -8.4800   22.0550 C   0  0  0  0  0  3  0  0  0  0  0  0
  -22.7050   -8.2340   21.2710 C   0  0  0  0  0  0  0  0  0  0  0  0
  -22.3320   -9.1680   20.2870 C   0  0  0  0  0  3  0  0  0  0  0  0
  -23.0770  -10.3440   20.0970 C   0  0  0  0  0  3  0  0  0  0  0  0
  -21.9330   -7.1010   21.3670 O   0  0  0  0  0  0  0  0  0  0  0  0
  -21.7910   -6.4250   22.5540 C   0  0  0  0  0  0  0  0  0  0  0  0
  -21.2870   -7.0530   23.7150 C   0  0  0  0  0  3  0  0  0  0  0  0
  -21.0940   -6.3030   24.8920 C   0  0  0  0  0  3  0  0  0  0  0  0
  -21.3940   -4.9270   24.9080 C   0  0  0  0  0  0  0  0  0  0  0  0
  -21.8900   -4.3000   23.7520 C   0  0  0  0  0  3  0  0  0  0  0  0
  -22.0850   -5.0470   22.5770 C   0  0  0  0  0  0  0  0  0  0  0  0
  -22.5440   -4.4340   21.4590 F   0  0  0  0  0  0  0  0  0  0  0  0
  -21.2010   -4.2040   26.0360 F   0  0  0  0  0  0  0  0  0  0  0  0
  -23.1300  -13.7220   20.9880 C   0  0  0  0  0  0  0  0  0  0  0  0
  -22.3970  -13.0530   21.8700 N   0  0  0  0  0  0  0  0  0  0  0  0
  -22.7050  -14.7460   20.4530 O   0  0  0  0  0  0  0  0  0  0  0  0
  -22.7510  -12.2250   22.3240 H   0  0  0  0  0  0  0  0  0  0  0  0
  -21.4660  -13.3740   22.0940 H   0  0  0  0  0  0  0  0  0  0  0  0
  -25.7810  -15.3380   20.1430 N   0  0  0  0  0  0  0  0  0  0  0  0
  -25.0180  -16.0020   20.2320 H   0  0  0  0  0  0  0  0  0  0  0  0
  -26.6430  -15.7600   19.8260 H   0  0  0  0  0  0  0  0  0  0  0  0
  1  3  1  0
  2  1  2  0
  2  6  1  0
  3  9  1  0
  3  4  2  0
  4  7  1  0
  5  4  1  0
  5  8  1  0
  6  5  2  0
 10 12  1  0
 10  9  1  0
 11 22  2  0
 12 17  1  0
 13 21  1  0
 13 23  1  0
 14 20  1  0
 14 16  1  0
 15 21  1  0
 16 15  1  0
 17 16  2  0
 18 19  1  0
 18 12  2  0
 19 14  2  0
 20 13  1  0
 21 11  1  0
 23 25  2  0
 24 23  1  0
 26 24  1  0
 27 36  2  0
 27 32  1  0
 28 24  1  0
 28 32  1  0
 29 28  1  0
 30 31  1  0
 30 29  1  0
 31 27  1  0
 32 33  2  0
 33 34  1  0
 35 34  2  0
 36 35  1  0
 37 11  1  0
 37 38  1  0
 37 47  1  0
 38 41  1  0
 39 43  1  0
 39 38  1  0
 40 39  2  0
 43 42  1  0
 45 43  1  0
 45 46  1  0
 45 44  1  0
 47 50  1  1
 47 48  1  0
 49 47  1  0
 51  6  1  0
 52 65  1  0
 53 58  1  0
 54 55  1  0
 54 53  1  0
 56 55  1  0
 56 69  1  0
 56 57  1  0
 58 52  1  0
 58 57  1  0
 59 52  2  0
 60 62  1  0
 60 64  1  0
 61 63  1  0
 62 65  1  0
 64 51  1  0
 64 61  1  0
 65 63  1  0
 66 67  2  0
 67 86  1  0
 68 67  1  0
 68 71  1  0
 69 66  1  0
 69 70  1  0
 70 68  2  0
 71 72  1  0
 72 73  2  0
 74 77  1  0
 74 73  1  0
 75 74  2  0
 76 75  1  0
 76 71  2  0
 77 78  1  0
 78 83  2  0
 78 79  1  0
 79 80  2  0
 80 81  1  0
 81 85  1  0
 82 81  2  0
 83 82  1  0
 84 83  1  0
 86 87  1  0
 87 90  1  0
 87 89  1  0
 88 86  2  0
 91 92  1  0
 91 66  1  0
 93 91  1  0
M  ISO  4   9 101  10 101  52 100  65 100
M  END
>  <TORSDO>  (3) 
F 18

>  <SCORE>  (3) 
-14.024

>  <name>  (3) 
2

>  <ligand_id>  (3) 
2

>  <original_smiles>  (3) 
[H]c1c([H])c([H])c2c(c1[H])C([H])([H])C([H])([H])C([H])([H])C2([H])N([H])C(=O)C1([H])N(C(=O)C([H])(N([H])C(=O)C([H])(N([H])C([H])([H])[H])C([H])([H])[H])C(C([H])([H])[H])(C([H])([H])[H])C([H])([H])[H])C([H])([H])c2c([H])c(OC([H])([H])c3c([H])c([H])c(OC4([H])C([H])([H])C([H])([H])N(C(=O)N5C([H])([H])C([H])([H])C([H])([H])C([H])(n6nc(-c7c([H])c([H])c(Oc8c([H])c([H])c(F)c([H])c8F)c([H])c7[H])c(C(=O)N([H])[H])c6N([H])[H])C5([H])[H])C([H])([H])C4([H])[H])c(C([H])([H])[H])c3C([H])([H])[H])c([H])c([H])c2C1([H])[H]

>  <smiles>  (3) 
[H]c1c([H])c([H])c2c(c1[H])C([H])([H])C([H])([H])C([H])([H])C2([H])N([H])C(=O)C1([H])N(C(=O)C([H])(N([H])C(=O)C([H])(N([H])C([H])([H])[H])C([H])([H])[H])C(C([H])([H])[H])(C([H])([H])[H])C([H])([H])[H])C([H])([H])c2c([H])c(OC([H])([H])c3c([H])c([H])c(OC4([H])C([H])([H])C([H])([H])N(C(=O)N5C([H])([H])C([H])([H])C([H])([H])C([H])(n6nc(-c7c([H])c([H])c(Oc8c([H])c([H])c(F)c([H])c8F)c([H])c7[H])c(C(=O)N([H])[H])c6N([H])[H])C5([H])[H])C([H])([H])C4([H])[H])c(C([H])([H])[H])c3C([H])([H])[H])c([H])c([H])c2C1([H])[H]

$$$$
3:0:0
     RDKit          3D

 95104  0  0  1  0  0  0  0  0999 V2000
  -30.2350  -21.8910   22.9940 C   0  0  0  0  0  0  0  0  0  0  0  0
  -29.3440  -23.7530   21.6140 C   0  0  0  0  0  2  0  0  0  0  0  0
  -30.3160  -21.8340   20.4690 C   0  0  0  0  0  3  0  0  0  0  0  0
  -29.4940  -24.1630   20.1370 C   0  0  0  0  0  3  0  0  0  0  0  0
  -29.5200  -22.7420   19.4670 C   0  0  0  0  0  3  0  0  0  0  0  0
  -29.5820  -22.5140   24.2270 C   0  0  0  0  0  1  0  0  0  0  0  0
  -30.1070  -22.7380   18.0460 C   0  0  0  0  0  1  0  0  0  0  0  0
  -29.9380  -22.4080   21.7780 N   0  0  0  0  0  0  0  0  0  0  0  0
  -30.9800  -20.9210   23.1570 O   0  0  0  0  0  0  0  0  0  0  0  0
  -31.4420  -19.4980   20.1490 C   0  0  0  0  0  3  0  0  0  0  0  0
  -29.0590  -19.5110   20.4610 C   0  0  0  0  0  3  0  0  0  0  0  0
  -31.4530  -18.0700   20.1750 C   0  0  0  0  0  3  0  0  0  0  0  0
  -29.0690  -18.0860   20.4890 C   0  0  0  0  0  3  0  0  0  0  0  0
  -30.2530  -20.2620   20.3170 C   0  0  0  0  0  0  0  0  0  0  0  0
  -30.2630  -17.3220   20.3710 C   0  0  0  0  0  0  0  0  0  0  0  0
  -30.9620  -14.8260   20.0690 C   0  0  0  0  0  0  0  0  0  0  0  0
  -30.6800  -12.5900   19.0180 C   0  0  0  0  0  2  0  0  0  0  0  0
  -29.6820  -12.7360   17.8460 C   0  0  0  0  0  2  0  0  0  0  0  0
  -28.2230  -12.6220   18.3340 C   0  0  0  0  0  2  0  0  0  0  0  0
  -27.9390  -13.4890   19.5900 C   0  0  0  0  0  3  0  0  0  0  0  0
  -29.0400  -13.2900   20.6570 C   0  0  0  0  0  2  0  0  0  0  0  0
  -30.3330  -13.6080   20.0270 N   0  0  0  0  0  0  0  0  0  0  0  0
  -32.1010  -14.9780   19.6190 O   0  0  0  0  0  0  0  0  0  0  0  0
  -30.1710  -15.8660   20.4790 N   0  0  0  0  0  0  0  0  0  0  0  0
  -29.2820  -15.5370   20.8230 H   0  0  0  0  0  0  0  0  0  0  0  0
  -25.6190  -14.1610   20.4730 C   0  0  0  0  0  0  0  0  0  0  0  0
  -24.5350  -13.4190   20.8560 C   0  0  0  0  0  0  0  0  0  0  0  0
  -24.9240  -12.0520   20.7170 C   0  0  0  0  0  0  0  0  0  0  0  0
  -26.6040  -13.2470   20.1290 N   0  0  0  0  0  0  0  0  0  0  0  0
  -26.1920  -11.9690   20.3320 N   0  0  0  0  0  0  0  0  0  0  0  0
  -24.1420  -10.8180   20.8710 C   0  0  0  0  0  0  0  0  0  0  0  0
  -24.5220   -9.8140   21.7900 C   0  0  0  0  0  3  0  0  0  0  0  0
  -23.7460   -8.6440   21.9340 C   0  0  0  0  0  3  0  0  0  0  0  0
  -22.5780   -8.4670   21.1560 C   0  0  0  0  0  0  0  0  0  0  0  0
  -22.2160   -9.4580   20.2240 C   0  0  0  0  0  3  0  0  0  0  0  0
  -22.9920  -10.6200   20.0790 C   0  0  0  0  0  3  0  0  0  0  0  0
  -21.7770   -7.3520   21.2090 O   0  0  0  0  0  0  0  0  0  0  0  0
  -21.6030   -6.6450   22.3710 C   0  0  0  0  0  0  0  0  0  0  0  0
  -21.0380   -7.2330   23.5230 C   0  0  0  0  0  3  0  0  0  0  0  0
  -20.8140   -6.4500   24.6740 C   0  0  0  0  0  3  0  0  0  0  0  0
  -21.1470   -5.0830   24.6740 C   0  0  0  0  0  0  0  0  0  0  0  0
  -21.7040   -4.4950   23.5240 C   0  0  0  0  0  3  0  0  0  0  0  0
  -21.9300   -5.2740   22.3760 C   0  0  0  0  0  0  0  0  0  0  0  0
  -22.4500   -4.6970   21.2640 F   0  0  0  0  0  0  0  0  0  0  0  0
  -20.9250   -4.3300   25.7760 F   0  0  0  0  0  0  0  0  0  0  0  0
  -23.1800  -13.9450   21.2350 C   0  0  0  0  0  0  0  0  0  0  0  0
  -22.4700  -13.2420   22.1100 N   0  0  0  0  0  0  0  0  0  0  0  0
  -22.7630  -15.0130   20.7880 O   0  0  0  0  0  0  0  0  0  0  0  0
  -22.8220  -12.3770   22.4950 H   0  0  0  0  0  0  0  0  0  0  0  0
  -21.5620  -13.5750   22.4000 H   0  0  0  0  0  0  0  0  0  0  0  0
  -25.8420  -15.5300   20.3680 N   0  0  0  0  0  0  0  0  0  0  0  0
  -25.1110  -16.2040   20.5620 H   0  0  0  0  0  0  0  0  0  0  0  0
  -26.6610  -15.9480   19.9450 H   0  0  0  0  0  0  0  0  0  0  0  0
  -28.4300  -25.2390   19.6500 C   0  0  0  0  0  2  0  0  0  0  0  0
  -28.5160  -26.6330   20.1360 O   0  0  0  0  0  0  0  0  0  0  0  0
  -24.5550  -31.7660   23.2830 C   0  0  0  0  0  0  0  0  0  0  0  0
  -27.3720  -27.4460   20.0760 C   0  0  0  0  0  0  0  0  0  0  0  0
  -23.4290  -30.4100   21.5540 C   0  0  0  0  0  3  0  0  0  0  0  0
  -24.9560  -28.9820   20.0870 C   0  0  0  0  0  0  0  0  0  0  0  0
  -25.9620  -30.8120   21.4470 C   0  0  0  0  0  2  0  0  0  0  0  0
  -26.0950  -29.4710   20.7400 C   0  0  0  0  0  0  0  0  0  0  0  0
  -27.3030  -28.7130   20.7320 C   0  0  0  0  0  3  0  0  0  0  0  0
  -26.2140  -27.0240   19.3800 C   0  0  0  0  0  3  0  0  0  0  0  0
  -25.0180  -27.7610   19.4010 C   0  0  0  0  0  3  0  0  0  0  0  0
  -23.6930  -29.8130   20.1480 C   0  0  0  0  0  2  0  0  0  0  0  0
  -24.6650  -31.0110   22.1520 N   0  0  0  0  0  0  0  0  0  0  0  0
  -23.4520  -31.9850   23.8070 O   0  0  0  0  0  0  0  0  0  0  0  0
  -22.7820  -29.3260   22.4490 C   0  0  0  0  0  0  0  0  0  0  0  0
  -21.4680  -29.1030   22.2750 N   0  0  0  0  0  0  0  0  0  0  0  0
  -23.4610  -28.6920   23.2620 O   0  0  0  0  0  0  0  0  0  0  0  0
  -20.9760  -29.6710   21.5990 H   0  0  0  0  0  0  0  0  0  0  0  0
  -18.1230  -27.7750   22.6360 C   0  0  0  0  0  0  0  0  0  0  0  0
  -20.6640  -28.1040   22.9820 C   0  0  0  0  0  3  0  0  0  0  0  0
  -20.8280  -26.7030   22.3480 C   0  0  0  0  0  2  0  0  0  0  0  0
  -19.7630  -26.3910   21.2930 C   0  0  0  0  0  2  0  0  0  0  0  0
  -18.3610  -26.4640   21.9060 C   0  0  0  0  0  2  0  0  0  0  0  0
  -19.2050  -28.5530   23.1270 C   0  0  0  0  0  0  0  0  0  0  0  0
  -18.9290  -29.7820   23.7660 C   0  0  0  0  0  3  0  0  0  0  0  0
  -17.6050  -30.2320   23.9210 C   0  0  0  0  0  3  0  0  0  0  0  0
  -16.5370  -29.4510   23.4440 C   0  0  0  0  0  3  0  0  0  0  0  0
  -16.7970  -28.2230   22.8100 C   0  0  0  0  0  3  0  0  0  0  0  0
  -25.8040  -32.4070   23.9610 C   0  0  0  0  0  3  0  0  0  0  0  0
  -25.4720  -33.8040   24.2740 N   0  0  0  0  0  0  0  0  0  0  0  0
  -25.7880  -34.8530   23.5030 C   0  0  0  0  0  0  0  0  0  0  0  0
  -26.4600  -34.7500   22.4730 O   0  0  0  0  0  0  0  0  0  0  0  0
  -24.8750  -33.9600   25.0720 H   0  0  0  0  0  0  0  0  0  0  0  0
  -24.0110  -36.5960   23.1460 C   0  0  0  0  0  1  0  0  0  0  0  0
  -25.2770  -36.2380   23.9420 C   0  0  0  0  0  3  0  0  0  0  0  0
  -27.3910  -37.2010   24.7360 C   0  0  0  0  0  1  0  0  0  0  0  0
  -26.2830  -37.3120   23.7910 N   0  0  0  0  0  0  0  0  0  0  0  0
  -25.8540  -38.2260   23.9150 H   0  0  0  0  0  0  0  0  0  0  0  0
  -26.2660  -31.6420   25.2610 C   0  0  1  0  0  0  0  0  0  0  0  0
  -25.1220  -31.3850   26.2710 C   0  0  0  0  0  1  0  0  0  0  0  0
  -26.8930  -30.2770   24.8990 C   0  0  0  0  0  1  0  0  0  0  0  0
  -27.3660  -32.4540   25.9830 C   0  0  0  0  0  1  0  0  0  0  0  0
  1  9  2  0
  1  6  1  0
  2  8  1  0
  3 14  1  0
  3  8  1  0
  4 54  1  0
  4  2  1  0
  5  7  1  0
  5  4  1  0
  5  3  1  0
  8  1  1  0
 10 12  2  0
 10 14  1  0
 11 13  1  0
 12 15  1  0
 14 11  2  0
 15 24  1  0
 15 13  2  0
 16 24  1  0
 17 22  1  0
 18 19  1  0
 18 17  1  0
 20 19  1  0
 20 29  1  0
 20 21  1  0
 22 16  1  0
 22 21  1  0
 23 16  2  0
 24 25  1  0
 26 27  2  0
 27 46  1  0
 28 27  1  0
 28 31  1  0
 29 30  1  0
 29 26  1  0
 30 28  2  0
 31 32  1  0
 32 33  2  0
 34 37  1  0
 34 33  1  0
 35 34  2  0
 36 35  1  0
 36 31  2  0
 37 38  1  0
 38 43  2  0
 38 39  1  0
 39 40  2  0
 41 40  1  0
 41 45  1  0
 42 41  2  0
 43 42  1  0
 44 43  1  0
 46 47  1  0
 47 50  1  0
 47 49  1  0
 48 46  2  0
 51 26  1  0
 51 52  1  0
 53 51  1  0
 54 55  1  0
 56 67  2  0
 57 55  1  0
 57 62  1  0
 58 66  1  0
 58 68  1  0
 59 65  1  0
 59 61  1  0
 60 66  1  0
 61 60  1  0
 62 61  2  0
 63 64  1  0
 63 57  2  0
 64 59  2  0
 65 58  1  0
 66 56  1  0
 68 70  2  0
 69 68  1  0
 71 69  1  0
 72 81  2  0
 72 77  1  0
 73 69  1  0
 73 77  1  0
 74 73  1  0
 75 76  1  0
 75 74  1  0
 76 72  1  0
 77 78  2  0
 78 79  1  0
 80 79  2  0
 81 80  1  0
 82 56  1  0
 82 83  1  0
 82 92  1  0
 83 86  1  0
 84 88  1  0
 84 83  1  0
 85 84  2  0
 88 87  1  0
 90 91  1  0
 90 88  1  0
 90 89  1  0
 92 95  1  1
 92 93  1  0
 94 92  1  0
M  ISO  4  16 100  24 100  54 101  55 101
M  END
>  <TORSDO>  (4) 
F 18

>  <SCORE>  (4) 
-14.382

>  <name>  (4) 
3

>  <ligand_id>  (4) 
3

>  <original_smiles>  (4) 
[H]c1c([H])c([H])c2c(c1[H])C([H])([H])C([H])([H])C([H])([H])C2([H])N([H])C(=O)C1([H])N(C(=O)C([H])(N([H])C(=O)C([H])(N([H])C([H])([H])[H])C([H])([H])[H])C(C([H])([H])[H])(C([H])([H])[H])C([H])([H])[H])C([H])([H])c2c([H])c(OC([H])([H])C3([H])C([H])([H])N(C(=O)C([H])([H])[H])C([H])(c4c([H])c([H])c(N([H])C(=O)N5C([H])([H])C([H])([H])C([H])([H])C([H])(n6nc(-c7c([H])c([H])c(Oc8c([H])c([H])c(F)c([H])c8F)c([H])c7[H])c(C(=O)N([H])[H])c6N([H])[H])C5([H])[H])c([H])c4[H])C3([H])C([H])([H])[H])c([H])c([H])c2C1([H])[H]

>  <smiles>  (4) 
[H]c1c([H])c([H])c2c(c1[H])C([H])([H])C([H])([H])C([H])([H])C2([H])N([H])C(=O)C1([H])N(C(=O)C([H])(N([H])C(=O)C([H])(N([H])C([H])([H])[H])C([H])([H])[H])C(C([H])([H])[H])(C([H])([H])[H])C([H])([H])[H])C([H])([H])c2c([H])c(OC([H])([H])C3([H])C([H])([H])N(C(=O)C([H])([H])[H])C([H])(c4c([H])c([H])c(N([H])C(=O)N5C([H])([H])C([H])([H])C([H])([H])C([H])(n6nc(-c7c([H])c([H])c(Oc8c([H])c([H])c(F)c([H])c8F)c([H])c7[H])c(C(=O)N([H])[H])c6N([H])[H])C5([H])[H])c([H])c4[H])C3([H])C([H])([H])[H])c([H])c([H])c2C1([H])[H]

$$$$
4:0:0
     RDKit          3D

 94103  0  0  1  0  0  0  0  0999 V2000
  -30.6360  -14.9770   20.4470 C   0  0  0  0  0  0  0  0  0  0  0  0
  -30.4180  -12.5600   19.6370 C   0  0  0  0  0  2  0  0  0  0  0  0
  -29.5050  -12.2760   18.4180 C   0  0  0  0  0  2  0  0  0  0  0  0
  -28.0730  -12.0380   18.8870 C   0  0  0  0  0  2  0  0  0  0  0  0
  -27.6060  -13.1180   19.8830 C   0  0  0  0  0  3  0  0  0  0  0  0
  -28.6420  -13.3710   21.0070 C   0  0  0  0  0  2  0  0  0  0  0  0
  -29.9220  -13.7570   20.3970 N   0  0  0  0  0  0  0  0  0  0  0  0
  -31.8320  -14.8970   20.1470 O   0  0  0  0  0  0  0  0  0  0  0  0
  -29.3990  -19.6420   20.8210 C   0  0  0  0  0  0  0  0  0  0  0  0
  -30.7050  -19.1030   21.0850 C   0  0  0  0  0  0  0  0  0  0  0  0
  -29.0900  -21.1330   20.9840 C   0  0  0  0  0  0  0  0  0  0  0  0
  -31.7060  -20.1040   21.3430 C   0  0  0  0  0  0  0  0  0  0  0  0
  -30.0980  -21.9220   21.6120 C   0  0  0  0  0  0  0  0  0  0  0  0
  -31.4370  -21.4790   21.6280 C   0  0  0  0  0  0  0  0  0  0  0  0
  -28.4080  -18.4640   20.5610 C   0  0  0  0  0  2  0  0  0  0  0  0
  -31.0550  -17.5110   21.0500 C   0  0  0  0  0  2  0  0  0  0  0  0
  -28.9040  -16.9700   20.0920 C   0  0  0  0  0  3  0  0  0  0  0  0
  -33.1600  -19.7270   21.2830 C   0  0  0  0  0  1  0  0  0  0  0  0
  -29.7670  -23.2630   22.2910 C   0  0  0  0  0  1  0  0  0  0  0  0
  -32.5430  -22.5220   21.9210 C   0  0  0  0  0  1  0  0  0  0  0  0
  -29.1710  -16.9110   18.5910 C   0  0  0  0  0  1  0  0  0  0  0  0
  -30.1030  -16.3300   20.7410 N   0  0  0  0  0  0  0  0  0  0  0  0
  -25.2600  -13.7560   20.6570 C   0  0  0  0  0  0  0  0  0  0  0  0
  -24.1750  -13.0140   21.0270 C   0  0  0  0  0  0  0  0  0  0  0  0
  -24.5950  -11.6480   20.9640 C   0  0  0  0  0  0  0  0  0  0  0  0
  -26.2680  -12.8440   20.3920 N   0  0  0  0  0  0  0  0  0  0  0  0
  -25.8810  -11.5700   20.6370 N   0  0  0  0  0  0  0  0  0  0  0  0
  -23.8190  -10.4070   21.1410 C   0  0  0  0  0  0  0  0  0  0  0  0
  -24.2470   -9.3880   22.0200 C   0  0  0  0  0  3  0  0  0  0  0  0
  -23.4790   -8.2160   22.1910 C   0  0  0  0  0  3  0  0  0  0  0  0
  -22.2670   -8.0510   21.4830 C   0  0  0  0  0  0  0  0  0  0  0  0
  -21.8560   -9.0550   20.5870 C   0  0  0  0  0  3  0  0  0  0  0  0
  -22.6250  -10.2200   20.4140 C   0  0  0  0  0  3  0  0  0  0  0  0
  -21.4700   -6.9360   21.5650 O   0  0  0  0  0  0  0  0  0  0  0  0
  -21.4620   -6.1390   22.6800 C   0  0  0  0  0  0  0  0  0  0  0  0
  -21.1430   -6.6460   23.9580 C   0  0  0  0  0  3  0  0  0  0  0  0
  -21.0820   -5.7770   25.0660 C   0  0  0  0  0  3  0  0  0  0  0  0
  -21.3300   -4.4030   24.8960 C   0  0  0  0  0  0  0  0  0  0  0  0
  -21.6430   -3.8940   23.6230 C   0  0  0  0  0  3  0  0  0  0  0  0
  -21.7070   -4.7610   22.5170 C   0  0  0  0  0  0  0  0  0  0  0  0
  -21.9890   -4.2630   21.2890 F   0  0  0  0  0  0  0  0  0  0  0  0
  -21.2630   -3.5640   25.9580 F   0  0  0  0  0  0  0  0  0  0  0  0
  -22.8000  -13.5340   21.3290 C   0  0  0  0  0  0  0  0  0  0  0  0
  -22.0630  -12.8580   22.2010 N   0  0  0  0  0  0  0  0  0  0  0  0
  -22.3890  -14.5730   20.8160 O   0  0  0  0  0  0  0  0  0  0  0  0
  -22.4090  -12.0150   22.6350 H   0  0  0  0  0  0  0  0  0  0  0  0
  -21.1430  -13.1930   22.4480 H   0  0  0  0  0  0  0  0  0  0  0  0
  -25.4810  -15.1180   20.5050 N   0  0  0  0  0  0  0  0  0  0  0  0
  -24.7440  -15.8080   20.6270 H   0  0  0  0  0  0  0  0  0  0  0  0
  -26.3420  -15.5150   20.1740 H   0  0  0  0  0  0  0  0  0  0  0  0
  -27.8010  -21.9310   20.5090 C   0  0  0  0  0  2  0  0  0  0  0  0
  -27.4920  -23.5380   20.6960 C   0  0  0  0  0  2  0  0  0  0  0  0
  -27.7170  -24.7490   19.6030 C   0  0  0  0  0  2  0  0  0  0  0  0
  -28.0980  -26.2270   19.7820 O   0  0  0  0  0  0  0  0  0  0  0  0
  -24.5110  -31.5750   23.0110 C   0  0  0  0  0  0  0  0  0  0  0  0
  -27.0980  -27.2540   19.6330 C   0  0  0  0  0  0  0  0  0  0  0  0
  -23.3090  -30.2230   21.3150 C   0  0  0  0  0  3  0  0  0  0  0  0
  -24.7330  -28.8400   19.7360 C   0  0  0  0  0  0  0  0  0  0  0  0
  -25.8330  -30.6490   21.0950 C   0  0  0  0  0  2  0  0  0  0  0  0
  -25.8990  -29.3080   20.3600 C   0  0  0  0  0  0  0  0  0  0  0  0
  -27.1030  -28.5410   20.2720 C   0  0  0  0  0  3  0  0  0  0  0  0
  -25.9560  -26.9750   18.8520 C   0  0  0  0  0  3  0  0  0  0  0  0
  -24.7910  -27.7140   18.9310 C   0  0  0  0  0  3  0  0  0  0  0  0
  -23.4830  -29.6590   19.8880 C   0  0  0  0  0  2  0  0  0  0  0  0
  -24.5610  -30.8360   21.8510 N   0  0  0  0  0  0  0  0  0  0  0  0
  -23.4250  -31.8010   23.5750 O   0  0  0  0  0  0  0  0  0  0  0  0
  -22.6660  -29.1390   22.2310 C   0  0  0  0  0  0  0  0  0  0  0  0
  -21.3370  -28.9970   22.1670 N   0  0  0  0  0  0  0  0  0  0  0  0
  -23.3650  -28.4870   23.0050 O   0  0  0  0  0  0  0  0  0  0  0  0
  -20.8360  -29.6270   21.5640 H   0  0  0  0  0  0  0  0  0  0  0  0
  -17.9750  -27.7270   22.6500 C   0  0  0  0  0  0  0  0  0  0  0  0
  -20.5290  -27.9920   22.8720 C   0  0  0  0  0  3  0  0  0  0  0  0
  -20.6260  -26.6070   22.1850 C   0  0  0  0  0  2  0  0  0  0  0  0
  -19.4980  -26.3380   21.1830 C   0  0  0  0  0  2  0  0  0  0  0  0
  -18.1370  -26.4260   21.8760 C   0  0  0  0  0  2  0  0  0  0  0  0
  -19.0980  -28.4730   23.0950 C   0  0  0  0  0  0  0  0  0  0  0  0
  -18.8810  -29.6870   23.7790 C   0  0  0  0  0  3  0  0  0  0  0  0
  -17.5770  -30.1580   24.0140 C   0  0  0  0  0  3  0  0  0  0  0  0
  -16.4670  -29.4140   23.5750 C   0  0  0  0  0  3  0  0  0  0  0  0
  -16.6690  -28.1960   22.9020 C   0  0  0  0  0  3  0  0  0  0  0  0
  -25.7830  -32.2060   23.6470 C   0  0  0  0  0  3  0  0  0  0  0  0
  -25.4630  -33.5990   24.0440 N   0  0  0  0  0  0  0  0  0  0  0  0
  -25.8030  -34.6810   23.3360 C   0  0  0  0  0  0  0  0  0  0  0  0
  -26.4540  -34.6130   22.2930 O   0  0  0  0  0  0  0  0  0  0  0  0
  -24.8910  -33.7020   24.8670 H   0  0  0  0  0  0  0  0  0  0  0  0
  -24.0560  -36.4670   23.0690 C   0  0  0  0  0  1  0  0  0  0  0  0
  -25.3110  -36.0500   23.8630 C   0  0  0  0  0  3  0  0  0  0  0  0
  -27.4550  -36.8740   24.6950 C   0  0  0  0  0  1  0  0  0  0  0  0
  -26.3410  -37.0970   23.7800 N   0  0  0  0  0  0  0  0  0  0  0  0
  -25.9520  -38.0130   23.9790 H   0  0  0  0  0  0  0  0  0  0  0  0
  -26.3280  -31.3770   24.8760 C   0  0  1  0  0  0  0  0  0  0  0  0
  -25.2700  -31.0880   25.9710 C   0  0  0  0  0  1  0  0  0  0  0  0
  -26.8770  -30.0290   24.3580 C   0  0  0  0  0  1  0  0  0  0  0  0
  -27.4900  -32.1270   25.5700 C   0  0  0  0  0  1  0  0  0  0  0  0
  1 22  1  0
  2  7  1  0
  3  4  1  0
  3  2  1  0
  5  4  1  0
  5 26  1  0
  5  6  1  0
  7  1  1  0
  7  6  1  0
  8  1  2  0
  9 11  2  0
  9 10  1  0
 10 12  2  0
 11 13  1  0
 12 14  1  0
 13 14  2  0
 13 19  1  0
 14 20  1  0
 15  9  1  0
 16 10  1  0
 17 21  1  0
 17 15  1  0
 17 22  1  0
 18 12  1  0
 22 16  1  0
 23 24  2  0
 24 43  1  0
 25 24  1  0
 25 28  1  0
 26 27  1  0
 26 23  1  0
 27 25  2  0
 28 29  1  0
 29 30  2  0
 31 34  1  0
 31 30  1  0
 32 31  2  0
 33 32  1  0
 33 28  2  0
 34 35  1  0
 35 36  1  0
 36 37  2  0
 38 37  1  0
 38 42  1  0
 39 38  2  0
 40 35  2  0
 40 39  1  0
 41 40  1  0
 43 44  1  0
 44 47  1  0
 44 46  1  0
 45 43  2  0
 48 49  1  0
 48 23  1  0
 50 48  1  0
 51 52  1  0
 51 11  1  0
 53 54  1  0
 53 52  1  0
 55 66  2  0
 56 54  1  0
 56 61  1  0
 57 65  1  0
 57 67  1  0
 58 64  1  0
 58 60  1  0
 59 65  1  0
 60 59  1  0
 61 60  2  0
 62 63  1  0
 62 56  2  0
 63 58  2  0
 64 57  1  0
 65 55  1  0
 67 69  2  0
 68 67  1  0
 70 68  1  0
 71 80  2  0
 71 76  1  0
 72 68  1  0
 72 76  1  0
 73 72  1  0
 74 75  1  0
 74 73  1  0
 75 71  1  0
 76 77  2  0
 77 78  1  0
 79 78  2  0
 80 79  1  0
 81 55  1  0
 81 82  1  0
 81 91  1  0
 82 85  1  0
 83 87  1  0
 83 82  1  0
 84 83  2  0
 87 86  1  0
 89 87  1  0
 89 90  1  0
 89 88  1  0
 91 94  1  1
 91 92  1  0
 93 91  1  0
M  ISO  4   1 100  22 100  53 101  54 101
M  END
>  <TORSDO>  (5) 
F 18

>  <SCORE>  (5) 
-12.993

>  <name>  (5) 
4

>  <ligand_id>  (5) 
4

>  <original_smiles>  (5) 
[H]c1c([H])c([H])c2c(c1[H])C([H])([H])C([H])([H])C([H])([H])C2([H])N([H])C(=O)C1([H])N(C(=O)C([H])(N([H])C(=O)C([H])(N([H])C([H])([H])[H])C([H])([H])[H])C(C([H])([H])[H])(C([H])([H])[H])C([H])([H])[H])C([H])([H])c2c([H])c(OC([H])([H])C([H])([H])C([H])([H])c3c(C([H])([H])[H])c(C([H])([H])[H])c(C([H])([H])[H])c4c3C([H])([H])C([H])(C([H])([H])[H])N(C(=O)N3C([H])([H])C([H])([H])C([H])([H])C([H])(n5nc(-c6c([H])c([H])c(Oc7c([H])c([H])c(F)c([H])c7F)c([H])c6[H])c(C(=O)N([H])[H])c5N([H])[H])C3([H])[H])C4([H])[H])c([H])c([H])c2C1([H])[H]

>  <smiles>  (5) 
[H]c1c([H])c([H])c2c(c1[H])C([H])([H])C([H])([H])C([H])([H])C2([H])N([H])C(=O)C1([H])N(C(=O)C([H])(N([H])C(=O)C([H])(N([H])C([H])([H])[H])C([H])([H])[H])C(C([H])([H])[H])(C([H])([H])[H])C([H])([H])[H])C([H])([H])c2c([H])c(OC([H])([H])C([H])([H])C([H])([H])c3c(C([H])([H])[H])c(C([H])([H])[H])c(C([H])([H])[H])c4c3C([H])([H])C([H])(C([H])([H])[H])N(C(=O)N3C([H])([H])C([H])([H])C([H])([H])C([H])(n5nc(-c6c([H])c([H])c(Oc7c([H])c([H])c(F)c([H])c7F)c([H])c6[H])c(C(=O)N([H])[H])c5N([H])[H])C3([H])[H])C4([H])[H])c([H])c([H])c2C1([H])[H]

$$$$
5:0:0
     RDKit          3D

 96105  0  0  1  0  0  0  0  0999 V2000
  -29.8530  -22.2210   22.0120 C   0  0  0  0  0  2  0  0  0  0  0  0
  -30.5830  -23.3590   21.3710 C   0  0  0  0  0  2  0  0  0  0  0  0
  -28.3320  -23.6170   20.8560 C   0  0  0  0  0  2  0  0  0  0  0  0
  -28.6200  -22.0660   21.1450 C   0  0  0  0  0  3  0  0  0  0  0  0
  -29.6140  -24.3660   20.9790 N   0  0  2  0  0  4  0  0  0  0  0  0
  -29.4420  -24.9920   21.7450 H   0  0  0  0  0  0  0  0  0  0  0  0
  -28.3350  -20.3600   17.7320 C   0  0  0  0  0  3  0  0  0  0  0  0
  -28.4690  -21.3760   18.6790 C   0  0  0  0  0  0  0  0  0  0  0  0
  -28.2410  -19.0660   18.1990 C   0  0  0  0  0  0  0  0  0  0  0  0
  -28.7810  -21.0010   20.0140 C   0  0  0  0  0  0  0  0  0  0  0  0
  -28.9250  -18.6730   19.3630 C   0  0  0  0  0  0  0  0  0  0  0  0
  -27.9790  -22.7300   18.1680 C   0  0  0  0  0  1  0  0  0  0  0  0
  -26.8100  -18.5710   18.0650 C   0  0  0  0  0  1  0  0  0  0  0  0
  -29.1220  -19.6580   20.3130 N   0  0  0  0  0  0  0  0  0  0  0  0
  -29.2680  -17.0880   19.3530 C   0  0  0  0  0  2  0  0  0  0  0  0
  -30.5100  -14.9180   20.1830 C   0  0  0  0  0  0  0  0  0  0  0  0
  -30.4640  -12.5730   19.3340 C   0  0  0  0  0  2  0  0  0  0  0  0
  -29.5170  -12.4890   18.1100 C   0  0  0  0  0  2  0  0  0  0  0  0
  -28.0690  -12.2900   18.5830 C   0  0  0  0  0  2  0  0  0  0  0  0
  -27.6670  -13.2850   19.6970 C   0  0  0  0  0  3  0  0  0  0  0  0
  -28.7130  -13.2620   20.8350 C   0  0  0  0  0  2  0  0  0  0  0  0
  -29.9870  -13.6570   20.2340 N   0  0  0  0  0  0  0  0  0  0  0  0
  -31.6730  -15.0750   19.8160 O   0  0  0  0  0  0  0  0  0  0  0  0
  -29.6610  -16.0380   20.3770 N   0  0  0  0  0  0  0  0  0  0  0  0
  -28.8510  -15.7780   20.9120 H   0  0  0  0  0  0  0  0  0  0  0  0
  -25.2980  -13.9290   20.4420 C   0  0  0  0  0  0  0  0  0  0  0  0
  -24.2230  -13.1700   20.8150 C   0  0  0  0  0  0  0  0  0  0  0  0
  -24.6790  -11.8150   20.7980 C   0  0  0  0  0  0  0  0  0  0  0  0
  -26.3280  -13.0310   20.2070 N   0  0  0  0  0  0  0  0  0  0  0  0
  -25.9680  -11.7570   20.5030 N   0  0  0  0  0  0  0  0  0  0  0  0
  -23.9540  -10.5570   20.9980 C   0  0  0  0  0  0  0  0  0  0  0  0
  -24.3890   -9.5870   21.9290 C   0  0  0  0  0  3  0  0  0  0  0  0
  -23.6630   -8.3900   22.1110 C   0  0  0  0  0  3  0  0  0  0  0  0
  -22.4830   -8.1520   21.3670 C   0  0  0  0  0  0  0  0  0  0  0  0
  -22.0680   -9.1080   20.4230 C   0  0  0  0  0  3  0  0  0  0  0  0
  -22.7960  -10.2970   20.2390 C   0  0  0  0  0  3  0  0  0  0  0  0
  -21.7290   -7.0070   21.4550 O   0  0  0  0  0  0  0  0  0  0  0  0
  -21.6930   -6.2620   22.6060 C   0  0  0  0  0  0  0  0  0  0  0  0
  -21.2910   -6.8180   23.8400 C   0  0  0  0  0  3  0  0  0  0  0  0
  -21.2000   -6.0000   24.9860 C   0  0  0  0  0  3  0  0  0  0  0  0
  -21.5040   -4.6280   24.8970 C   0  0  0  0  0  0  0  0  0  0  0  0
  -21.9000   -4.0710   23.6680 C   0  0  0  0  0  3  0  0  0  0  0  0
  -21.9920   -4.8880   22.5260 C   0  0  0  0  0  0  0  0  0  0  0  0
  -22.3520   -4.3420   21.3400 F   0  0  0  0  0  0  0  0  0  0  0  0
  -21.4090   -3.8380   25.9950 F   0  0  0  0  0  0  0  0  0  0  0  0
  -22.8270  -13.6540   21.0710 C   0  0  0  0  0  0  0  0  0  0  0  0
  -22.0950  -12.9690   21.9400 N   0  0  0  0  0  0  0  0  0  0  0  0
  -22.4040  -14.6820   20.5430 O   0  0  0  0  0  0  0  0  0  0  0  0
  -22.4560  -12.1450   22.3910 H   0  0  0  0  0  0  0  0  0  0  0  0
  -21.1610  -13.2830   22.1550 H   0  0  0  0  0  0  0  0  0  0  0  0
  -25.4810  -15.2960   20.2330 N   0  0  0  0  0  0  0  0  0  0  0  0
  -24.7210  -15.9680   20.3310 H   0  0  0  0  0  0  0  0  0  0  0  0
  -26.3190  -15.6860   19.8120 H   0  0  0  0  0  0  0  0  0  0  0  0
  -30.1720  -25.3010   19.9310 C   0  0  0  0  0  2  0  0  0  0  0  0
  -29.4430  -26.6190   19.6350 C   0  0  0  0  0  2  0  0  0  0  0  0
  -28.3250  -26.6190   20.4910 O   0  0  0  0  0  0  0  0  0  0  0  0
  -24.6220  -31.9280   23.2380 C   0  0  0  0  0  0  0  0  0  0  0  0
  -27.2970  -27.4970   20.2530 C   0  0  0  0  0  0  0  0  0  0  0  0
  -23.4340  -30.5300   21.5760 C   0  0  0  0  0  3  0  0  0  0  0  0
  -24.9460  -28.9980   20.1740 C   0  0  0  0  0  0  0  0  0  0  0  0
  -25.9520  -30.9110   21.3990 C   0  0  0  0  0  2  0  0  0  0  0  0
  -26.0730  -29.5230   20.8250 C   0  0  0  0  0  0  0  0  0  0  0  0
  -27.2570  -28.7550   20.8830 C   0  0  0  0  0  3  0  0  0  0  0  0
  -26.1740  -26.9870   19.5770 C   0  0  0  0  0  3  0  0  0  0  0  0
  -24.9830  -27.7460   19.5230 C   0  0  0  0  0  3  0  0  0  0  0  0
  -23.7050  -29.8610   20.1950 C   0  0  0  0  0  2  0  0  0  0  0  0
  -24.6890  -31.1300   22.1310 N   0  0  0  0  0  0  0  0  0  0  0  0
  -23.5270  -32.1810   23.7630 O   0  0  0  0  0  0  0  0  0  0  0  0
  -22.7620  -29.5100   22.5420 C   0  0  0  0  0  0  0  0  0  0  0  0
  -21.4410  -29.3190   22.4240 N   0  0  0  0  0  0  0  0  0  0  0  0
  -23.4530  -28.8890   23.3620 O   0  0  0  0  0  0  0  0  0  0  0  0
  -20.9270  -29.9160   21.7870 H   0  0  0  0  0  0  0  0  0  0  0  0
  -18.0660  -28.0860   22.9170 C   0  0  0  0  0  0  0  0  0  0  0  0
  -20.6310  -28.3600   23.1900 C   0  0  0  0  0  3  0  0  0  0  0  0
  -20.7370  -26.9310   22.6080 C   0  0  0  0  0  2  0  0  0  0  0  0
  -19.6330  -26.6060   21.5910 C   0  0  0  0  0  2  0  0  0  0  0  0
  -18.2550  -26.7340   22.2480 C   0  0  0  0  0  2  0  0  0  0  0  0
  -19.1860  -28.8460   23.3560 C   0  0  0  0  0  0  0  0  0  0  0  0
  -18.9670  -30.1120   23.9440 C   0  0  0  0  0  3  0  0  0  0  0  0
  -17.6640  -30.6110   24.1050 C   0  0  0  0  0  3  0  0  0  0  0  0
  -16.5600  -29.8490   23.6920 C   0  0  0  0  0  3  0  0  0  0  0  0
  -16.7590  -28.5910   23.0970 C   0  0  0  0  0  3  0  0  0  0  0  0
  -25.8910  -32.5600   23.8840 C   0  0  0  0  0  3  0  0  0  0  0  0
  -26.3870  -31.7810   25.1530 C   0  0  1  0  0  0  0  0  0  0  0  0
  -25.2920  -31.5480   26.2080 C   0  0  0  0  0  1  0  0  0  0  0  0
  -26.9610  -30.4010   24.7500 C   0  0  0  0  0  1  0  0  0  0  0  0
  -27.5150  -32.5760   25.8260 C   0  0  0  0  0  1  0  0  0  0  0  0
  -25.5640  -33.9600   24.1970 N   0  0  0  0  0  0  0  0  0  0  0  0
  -25.9010  -34.9960   23.4290 C   0  0  0  0  0  0  0  0  0  0  0  0
  -26.5770  -34.8710   22.4040 O   0  0  0  0  0  0  0  0  0  0  0  0
  -24.9390  -34.1320   24.9690 H   0  0  0  0  0  0  0  0  0  0  0  0
  -24.1830  -36.7840   23.0350 C   0  0  0  0  0  1  0  0  0  0  0  0
  -25.4040  -36.3770   23.8700 C   0  0  0  0  0  3  0  0  0  0  0  0
  -27.5130  -37.2810   24.7280 C   0  0  0  0  0  1  0  0  0  0  0  0
  -26.4260  -37.4270   23.7710 N   0  0  0  0  0  0  0  0  0  0  0  0
  -26.0080  -38.3450   23.8810 H   0  0  0  0  0  0  0  0  0  0  0  0
  2  1  1  0
  3  5  1  0
  3  4  1  0
  4 10  1  0
  4  1  1  0
  5  2  1  0
  5  6  1  1
  7  9  2  0
  7  8  1  0
  8 10  2  0
  9 11  1  0
 10 14  1  0
 11 14  2  0
 12  8  1  0
 13  9  1  0
 15 11  1  0
 15 24  1  0
 16 22  1  0
 16 24  1  0
 17 22  1  0
 18 19  1  0
 18 17  1  0
 20 19  1  0
 20 29  1  0
 20 21  1  0
 22 21  1  0
 23 16  2  0
 24 25  1  0
 26 27  2  0
 27 46  1  0
 28 27  1  0
 28 31  1  0
 29 26  1  0
 29 30  1  0
 30 28  2  0
 31 32  1  0
 32 33  2  0
 34 37  1  0
 34 33  1  0
 35 34  2  0
 36 35  1  0
 36 31  2  0
 37 38  1  0
 38 39  1  0
 39 40  2  0
 41 40  1  0
 41 45  1  0
 42 41  2  0
 43 38  2  0
 43 42  1  0
 44 43  1  0
 46 47  1  0
 47 50  1  0
 47 49  1  0
 48 46  2  0
 51 52  1  0
 51 26  1  0
 53 51  1  0
 54  5  1  0
 55 54  1  0
 55 56  1  0
 57 68  2  0
 58 56  1  0
 58 63  1  0
 59 67  1  0
 59 69  1  0
 60 66  1  0
 60 62  1  0
 61 67  1  0
 62 63  2  0
 62 61  1  0
 64 58  2  0
 65 64  1  0
 65 60  2  0
 66 59  1  0
 67 57  1  0
 69 71  2  0
 70 69  1  0
 72 70  1  0
 73 82  2  0
 73 78  1  0
 74 70  1  0
 74 78  1  0
 75 74  1  0
 76 77  1  0
 76 75  1  0
 77 73  1  0
 78 79  2  0
 79 80  1  0
 81 80  2  0
 82 81  1  0
 83 57  1  0
 83 88  1  0
 83 84  1  0
 84 87  1  1
 84 85  1  0
 86 84  1  0
 88 91  1  0
 89 93  1  0
 89 88  1  0
 90 89  2  0
 93 92  1  0
 95 93  1  0
 95 96  1  0
 95 94  1  0
M  ISO  4  16 100  24 100  55 101  56 101
M  END
>  <TORSDO>  (6) 
F 20

>  <SCORE>  (6) 
-13.895

>  <name>  (6) 
5

>  <ligand_id>  (6) 
5

>  <original_smiles>  (6) 
[H]c1c([H])c([H])c2c(c1[H])C([H])([H])C([H])([H])C([H])([H])C2([H])N([H])C(=O)C1([H])N(C(=O)C([H])(N([H])C(=O)C([H])(N([H])C([H])([H])[H])C([H])([H])[H])C(C([H])([H])[H])(C([H])([H])[H])C([H])([H])[H])C([H])([H])c2c([H])c(OC([H])([H])C([H])([H])[N+]3([H])C([H])([H])C([H])([H])C([H])(c4nc(C([H])([H])N([H])C(=O)N5C([H])([H])C([H])([H])C([H])([H])C([H])(n6nc(-c7c([H])c([H])c(Oc8c([H])c([H])c(F)c([H])c8F)c([H])c7[H])c(C(=O)N([H])[H])c6N([H])[H])C5([H])[H])c(C([H])([H])[H])c([H])c4C([H])([H])[H])C3([H])[H])c([H])c([H])c2C1([H])[H]

>  <smiles>  (6) 
[H]c1c([H])c([H])c2c(c1[H])C([H])([H])C([H])([H])C([H])([H])C2([H])N([H])C(=O)C1([H])N(C(=O)C([H])(N([H])C(=O)C([H])(N([H])C([H])([H])[H])C([H])([H])[H])C(C([H])([H])[H])(C([H])([H])[H])C([H])([H])[H])C([H])([H])c2c([H])c(OC([H])([H])C([H])([H])[N+]3([H])C([H])([H])C([H])([H])C([H])(c4nc(C([H])([H])N([H])C(=O)N5C([H])([H])C([H])([H])C([H])([H])C([H])(n6nc(-c7c([H])c([H])c(Oc8c([H])c([H])c(F)c([H])c8F)c([H])c7[H])c(C(=O)N([H])[H])c6N([H])[H])C5([H])[H])c(C([H])([H])[H])c([H])c4C([H])([H])[H])C3([H])[H])c([H])c([H])c2C1([H])[H]

$$$$
6:0:0
     RDKit          3D

 99109  0  0  1  0  0  0  0  0999 V2000
  -28.9540  -20.3570   20.4230 C   0  0  0  0  0  2  0  0  0  0  0  0
  -27.7230  -19.9200   18.3840 C   0  0  0  0  0  2  0  0  0  0  0  0
  -28.9520  -21.8960   20.1230 C   0  0  0  0  0  2  0  0  0  0  0  0
  -27.5830  -21.4610   18.1050 C   0  0  0  0  0  2  0  0  0  0  0  0
  -29.0470  -19.5720   19.0990 C   0  0  0  0  0  3  0  0  0  0  0  0
  -27.8130  -22.3920   19.2690 N   0  0  2  0  0  4  0  0  0  0  0  0
  -26.9760  -22.3320   19.8360 H   0  0  0  0  0  0  0  0  0  0  0  0
  -27.9790  -23.8600   18.8330 C   0  0  0  0  0  2  0  0  0  0  0  0
  -26.6850  -24.8560   20.8370 C   0  0  0  0  0  1  0  0  0  0  0  0
  -26.9200  -24.9390   19.3110 C   0  0  0  0  0  3  0  0  0  0  0  0
  -27.2160  -26.3610   18.9520 O   0  0  0  0  0  0  0  0  0  0  0  0
  -24.5160  -31.6080   23.1510 C   0  0  0  0  0  0  0  0  0  0  0  0
  -26.2080  -27.3150   19.1840 C   0  0  0  0  0  0  0  0  0  0  0  0
  -22.9550  -30.4690   21.6230 C   0  0  0  0  0  3  0  0  0  0  0  0
  -24.0200  -29.0460   19.7960 C   0  0  0  0  0  0  0  0  0  0  0  0
  -25.4400  -30.6810   21.0150 C   0  0  0  0  0  2  0  0  0  0  0  0
  -25.3090  -29.3860   20.2230 C   0  0  0  0  0  0  0  0  0  0  0  0
  -26.4090  -28.5260   19.9190 C   0  0  0  0  0  3  0  0  0  0  0  0
  -24.8960  -27.0640   18.7160 C   0  0  0  0  0  3  0  0  0  0  0  0
  -23.8140  -27.8900   19.0370 C   0  0  0  0  0  3  0  0  0  0  0  0
  -22.8780  -29.9670   20.1620 C   0  0  0  0  0  2  0  0  0  0  0  0
  -24.3360  -30.9270   21.9840 N   0  0  0  0  0  0  0  0  0  0  0  0
  -23.5620  -31.8710   23.8960 O   0  0  0  0  0  0  0  0  0  0  0  0
  -22.4070  -29.3690   22.5640 C   0  0  0  0  0  0  0  0  0  0  0  0
  -21.1280  -29.0010   22.3800 N   0  0  0  0  0  0  0  0  0  0  0  0
  -23.1290  -28.8540   23.4210 O   0  0  0  0  0  0  0  0  0  0  0  0
  -20.5950  -29.4830   21.6700 H   0  0  0  0  0  0  0  0  0  0  0  0
  -18.0290  -27.1460   22.5650 C   0  0  0  0  0  0  0  0  0  0  0  0
  -20.4150  -27.9680   23.1320 C   0  0  0  0  0  3  0  0  0  0  0  0
  -20.8860  -26.5530   22.7220 C   0  0  0  0  0  2  0  0  0  0  0  0
  -20.0340  -25.9280   21.6130 C   0  0  0  0  0  2  0  0  0  0  0  0
  -18.5720  -25.8210   22.0570 C   0  0  0  0  0  2  0  0  0  0  0  0
  -18.8960  -28.1590   23.0550 C   0  0  0  0  0  0  0  0  0  0  0  0
  -18.3410  -29.3850   23.4850 C   0  0  0  0  0  3  0  0  0  0  0  0
  -16.9510  -29.6050   23.4310 C   0  0  0  0  0  3  0  0  0  0  0  0
  -16.0980  -28.5940   22.9580 C   0  0  0  0  0  3  0  0  0  0  0  0
  -16.6360  -27.3660   22.5320 C   0  0  0  0  0  3  0  0  0  0  0  0
  -25.9250  -32.1060   23.5930 C   0  0  0  0  0  3  0  0  0  0  0  0
  -26.6020  -31.1710   24.6700 C   0  0  1  0  0  0  0  0  0  0  0  0
  -25.6630  -30.7810   25.8350 C   0  0  0  0  0  1  0  0  0  0  0  0
  -27.1090  -29.8660   24.0130 C   0  0  0  0  0  1  0  0  0  0  0  0
  -27.8430  -31.8740   25.2720 C   0  0  0  0  0  1  0  0  0  0  0  0
  -25.7670  -33.4700   24.1150 N   0  0  0  0  0  0  0  0  0  0  0  0
  -26.0640  -34.5850   23.4350 C   0  0  0  0  0  0  0  0  0  0  0  0
  -26.5720  -34.5680   22.3100 O   0  0  0  0  0  0  0  0  0  0  0  0
  -25.3080  -33.5620   25.0090 H   0  0  0  0  0  0  0  0  0  0  0  0
  -24.4500  -36.5160   23.5200 C   0  0  0  0  0  1  0  0  0  0  0  0
  -25.7460  -35.9350   24.1090 C   0  0  0  0  0  3  0  0  0  0  0  0
  -28.0360  -36.5680   24.7340 C   0  0  0  0  0  1  0  0  0  0  0  0
  -26.8350  -36.9280   23.9830 N   0  0  0  0  0  0  0  0  0  0  0  0
  -26.5260  -37.8440   24.2980 H   0  0  0  0  0  0  0  0  0  0  0  0
  -29.3770  -18.1330   19.1650 O   0  0  0  0  0  0  0  0  0  0  0  0
  -29.8460  -14.4480   19.1400 C   0  0  0  0  0  0  0  0  0  0  0  0
  -29.2380  -12.3520   17.9240 C   0  0  0  0  0  2  0  0  0  0  0  0
  -28.0220  -12.4820   16.9890 C   0  0  0  0  0  2  0  0  0  0  0  0
  -26.7180  -12.1870   17.7570 C   0  0  0  0  0  2  0  0  0  0  0  0
  -26.6340  -12.9910   19.0790 C   0  0  0  0  0  3  0  0  0  0  0  0
  -27.9410  -12.9010   19.8920 C   0  0  0  0  0  2  0  0  0  0  0  0
  -29.0870  -13.2960   19.0520 N   0  0  0  0  0  0  0  0  0  0  0  0
  -30.5820  -14.7780   18.2070 O   0  0  0  0  0  0  0  0  0  0  0  0
  -32.5180  -17.1290   21.8440 C   0  0  0  0  0  3  0  0  0  0  0  0
  -31.5090  -16.2210   21.5250 C   0  0  0  0  0  0  0  0  0  0  0  0
  -32.6800  -18.2520   21.0220 C   0  0  0  0  0  0  0  0  0  0  0  0
  -31.7210  -18.5220   20.0000 C   0  0  0  0  0  0  0  0  0  0  0  0
  -30.5910  -16.4100   20.4860 C   0  0  0  0  0  0  0  0  0  0  0  0
  -30.5350  -17.7050   19.8430 C   0  0  0  0  0  0  0  0  0  0  0  0
  -31.3090  -14.9310   22.2380 C   0  0  0  0  0  2  0  0  0  0  0  0
  -30.0780  -14.3540   21.5360 C   0  0  0  0  0  2  0  0  0  0  0  0
  -33.9100  -19.1270   21.2920 C   0  0  0  0  0  1  0  0  0  0  0  0
  -32.0800  -19.6300   19.0150 C   0  0  0  0  0  1  0  0  0  0  0  0
  -29.8500  -15.1640   20.3150 N   0  0  0  0  0  0  0  0  0  0  0  0
  -24.5060  -13.4040   20.4670 C   0  0  0  0  0  0  0  0  0  0  0  0
  -23.6010  -12.5480   21.0430 C   0  0  0  0  0  0  0  0  0  0  0  0
  -24.0780  -11.2300   20.7690 C   0  0  0  0  0  0  0  0  0  0  0  0
  -25.4720  -12.5970   19.8810 N   0  0  0  0  0  0  0  0  0  0  0  0
  -25.2390  -11.2810   20.1250 N   0  0  0  0  0  0  0  0  0  0  0  0
  -23.4640   -9.9210   21.0370 C   0  0  0  0  0  0  0  0  0  0  0  0
  -24.0650   -8.9920   21.9150 C   0  0  0  0  0  3  0  0  0  0  0  0
  -23.4500   -7.7450   22.1670 C   0  0  0  0  0  3  0  0  0  0  0  0
  -22.2190   -7.4240   21.5490 C   0  0  0  0  0  0  0  0  0  0  0  0
  -21.6370   -8.3410   20.6590 C   0  0  0  0  0  3  0  0  0  0  0  0
  -22.2540   -9.5760   20.3990 C   0  0  0  0  0  3  0  0  0  0  0  0
  -21.5600   -6.2300   21.7210 O   0  0  0  0  0  0  0  0  0  0  0  0
  -21.5970   -5.5480   22.9100 C   0  0  0  0  0  0  0  0  0  0  0  0
  -21.1510   -6.1250   24.1190 C   0  0  0  0  0  3  0  0  0  0  0  0
  -21.1280   -5.3550   25.2990 C   0  0  0  0  0  3  0  0  0  0  0  0
  -21.5630   -4.0170   25.2780 C   0  0  0  0  0  0  0  0  0  0  0  0
  -22.0160   -3.4440   24.0770 C   0  0  0  0  0  3  0  0  0  0  0  0
  -22.0270   -4.2070   22.8970 C   0  0  0  0  0  0  0  0  0  0  0  0
  -22.4370   -3.6380   21.7370 F   0  0  0  0  0  0  0  0  0  0  0  0
  -21.5490   -3.2780   26.4140 F   0  0  0  0  0  0  0  0  0  0  0  0
  -22.3130  -12.9350   21.7160 C   0  0  0  0  0  0  0  0  0  0  0  0
  -21.9000  -12.1810   22.7340 N   0  0  0  0  0  0  0  0  0  0  0  0
  -21.6830  -13.9300   21.3660 O   0  0  0  0  0  0  0  0  0  0  0  0
  -22.4270  -11.3780   23.0430 H   0  0  0  0  0  0  0  0  0  0  0  0
  -21.0420  -12.4130   23.2120 H   0  0  0  0  0  0  0  0  0  0  0  0
  -24.5860  -14.7880   20.3880 N   0  0  0  0  0  0  0  0  0  0  0  0
  -23.8720  -15.3930   20.7850 H   0  0  0  0  0  0  0  0  0  0  0  0
  -25.3590  -15.2960   19.9710 H   0  0  0  0  0  0  0  0  0  0  0  0
  2  5  1  0
  3  1  1  0
  4  2  1  0
  4  6  1  0
  5 52  1  0
  5  1  1  0
  6  7  1  1
  6  3  1  0
  8  6  1  0
  8 10  1  0
 10  9  1  0
 11 13  1  0
 11 10  1  0
 12 23  2  0
 13 18  1  0
 14 22  1  0
 14 24  1  0
 15 21  1  0
 15 17  1  0
 16 22  1  0
 17 16  1  0
 18 17  2  0
 19 20  1  0
 19 13  2  0
 20 15  2  0
 21 14  1  0
 22 12  1  0
 24 26  2  0
 25 24  1  0
 27 25  1  0
 28 33  1  0
 29 25  1  0
 30 29  1  0
 31 32  1  0
 31 30  1  0
 32 28  1  0
 33 29  1  0
 33 34  2  0
 35 34  1  0
 36 35  2  0
 37 28  2  0
 37 36  1  0
 38 12  1  0
 38 43  1  0
 38 39  1  0
 39 42  1  1
 39 40  1  0
 41 39  1  0
 43 46  1  0
 44 48  1  0
 44 43  1  0
 45 44  2  0
 48 47  1  0
 50 48  1  0
 50 51  1  0
 50 49  1  0
 52 66  1  0
 53 71  1  0
 54 59  1  0
 55 56  1  0
 55 54  1  0
 57 56  1  0
 57 75  1  0
 57 58  1  0
 59 53  1  0
 59 58  1  0
 60 53  2  0
 62 61  1  0
 62 67  1  0
 63 69  1  0
 63 61  2  0
 64 63  1  0
 65 62  2  0
 66 64  2  0
 66 65  1  0
 68 67  1  0
 70 64  1  0
 71 65  1  0
 71 68  1  0
 72 73  2  0
 73 92  1  0
 74 77  1  0
 74 73  1  0
 75 76  1  0
 75 72  1  0
 76 74  2  0
 77 78  1  0
 78 79  2  0
 80 83  1  0
 80 79  1  0
 81 80  2  0
 82 81  1  0
 82 77  2  0
 83 84  1  0
 84 85  1  0
 85 86  2  0
 87 86  1  0
 87 91  1  0
 88 87  2  0
 89 84  2  0
 89 88  1  0
 90 89  1  0
 92 93  1  0
 93 95  1  0
 93 96  1  0
 94 92  2  0
 97 72  1  0
 97 98  1  0
 99 97  1  0
M  ISO  4  10 101  11 101  53 100  71 100
M  END
>  <TORSDO>  (7) 
F 19

>  <SCORE>  (7) 
-6.864

>  <name>  (7) 
6

>  <ligand_id>  (7) 
6

>  <original_smiles>  (7) 
[H]c1c([H])c([H])c2c(c1[H])C([H])([H])C([H])([H])C([H])([H])C2([H])N([H])C(=O)C1([H])N(C(=O)C([H])(N([H])C(=O)C([H])(N([H])C([H])([H])[H])C([H])([H])[H])C(C([H])([H])[H])(C([H])([H])[H])C([H])([H])[H])C([H])([H])c2c([H])c(OC([H])(C([H])([H])[H])C([H])([H])[N+]3([H])C([H])([H])C([H])([H])C([H])(Oc4c5c(c([H])c(C([H])([H])[H])c4C([H])([H])[H])C([H])([H])C([H])([H])N5C(=O)N4C([H])([H])C([H])([H])C([H])([H])C([H])(n5nc(-c6c([H])c([H])c(Oc7c([H])c([H])c(F)c([H])c7F)c([H])c6[H])c(C(=O)N([H])[H])c5N([H])[H])C4([H])[H])C([H])([H])C3([H])[H])c([H])c([H])c2C1([H])[H]

>  <smiles>  (7) 
[H]c1c([H])c([H])c2c(c1[H])C([H])([H])C([H])([H])C([H])([H])C2([H])N([H])C(=O)C1([H])N(C(=O)C([H])(N([H])C(=O)C([H])(N([H])C([H])([H])[H])C([H])([H])[H])C(C([H])([H])[H])(C([H])([H])[H])C([H])([H])[H])C([H])([H])c2c([H])c(OC([H])(C([H])([H])[H])C([H])([H])[N+]3([H])C([H])([H])C([H])([H])C([H])(Oc4c5c(c([H])c(C([H])([H])[H])c4C([H])([H])[H])C([H])([H])C([H])([H])N5C(=O)N4C([H])([H])C([H])([H])C([H])([H])C([H])(n5nc(-c6c([H])c([H])c(Oc7c([H])c([H])c(F)c([H])c7F)c([H])c6[H])c(C(=O)N([H])[H])c5N([H])[H])C4([H])[H])C([H])([H])C3([H])[H])c([H])c([H])c2C1([H])[H]

$$$$
7:0:0
     RDKit          3D

101111  0  0  1  0  0  0  0  0999 V2000
  -28.5940  -19.6350   20.0740 C   0  0  0  0  0  3  0  0  0  0  0  0
  -29.5720  -19.8020   21.0740 C   0  0  0  0  0  0  0  0  0  0  0  0
  -28.8370  -22.0990   21.3880 C   0  0  0  0  0  0  0  0  0  0  0  0
  -27.9470  -21.9530   20.2860 C   0  0  0  0  0  0  0  0  0  0  0  0
  -29.6580  -21.0180   21.7920 C   0  0  0  0  0  0  0  0  0  0  0  0
  -27.8020  -20.7080   19.6390 C   0  0  0  0  0  0  0  0  0  0  0  0
  -28.9330  -23.4320   22.1270 C   0  0  0  0  0  2  0  0  0  0  0  0
  -27.1070  -24.2810   20.7680 C   0  0  0  0  0  2  0  0  0  0  0  0
  -27.2160  -23.1620   19.7210 C   0  0  0  0  0  3  0  0  0  0  0  0
  -30.6400  -21.1760   22.9600 C   0  0  0  0  0  1  0  0  0  0  0  0
  -27.9010  -23.6360   18.4210 C   0  0  0  0  0  1  0  0  0  0  0  0
  -28.4520  -24.5710   21.3240 N   0  0  1  0  0  4  0  0  0  0  0  0
  -29.0650  -24.5860   20.5230 H   0  0  0  0  0  0  0  0  0  0  0  0
  -31.5030  -14.6230   20.0230 C   0  0  0  0  0  0  0  0  0  0  0  0
  -31.0390  -12.4740   18.9370 C   0  0  0  0  0  2  0  0  0  0  0  0
  -30.0410  -12.6320   17.7740 C   0  0  0  0  0  2  0  0  0  0  0  0
  -28.5860  -12.5300   18.2740 C   0  0  0  0  0  2  0  0  0  0  0  0
  -28.3150  -13.4010   19.5290 C   0  0  0  0  0  3  0  0  0  0  0  0
  -29.4280  -13.1540   20.5690 C   0  0  0  0  0  2  0  0  0  0  0  0
  -30.7100  -13.5080   19.9370 N   0  0  0  0  0  0  0  0  0  0  0  0
  -32.6510  -14.5880   19.5680 O   0  0  0  0  0  0  0  0  0  0  0  0
  -29.9640  -17.4530   21.9370 C   0  0  0  0  0  2  0  0  0  0  0  0
  -31.1650  -18.3580   19.8650 C   0  0  0  0  0  2  0  0  0  0  0  0
  -29.7680  -16.2460   21.0090 C   0  0  0  0  0  2  0  0  0  0  0  0
  -31.8420  -16.9990   19.8330 C   0  0  0  0  0  2  0  0  0  0  0  0
  -30.5750  -18.6790   21.2440 C   0  0  0  0  0  3  0  0  0  0  0  0
  -30.9970  -15.8620   20.2920 N   0  0  0  0  0  0  0  0  0  0  0  0
  -25.9730  -14.0500   20.3800 C   0  0  0  0  0  0  0  0  0  0  0  0
  -24.9040  -13.2940   20.7840 C   0  0  0  0  0  0  0  0  0  0  0  0
  -25.3270  -11.9330   20.6850 C   0  0  0  0  0  0  0  0  0  0  0  0
  -26.9810  -13.1510   20.0700 N   0  0  0  0  0  0  0  0  0  0  0  0
  -26.5970  -11.8710   20.3070 N   0  0  0  0  0  0  0  0  0  0  0  0
  -24.5780  -10.6850   20.8700 C   0  0  0  0  0  0  0  0  0  0  0  0
  -24.9050   -9.7760   21.9000 C   0  0  0  0  0  3  0  0  0  0  0  0
  -24.1610   -8.5910   22.0710 C   0  0  0  0  0  3  0  0  0  0  0  0
  -23.0730   -8.3050   21.2140 C   0  0  0  0  0  0  0  0  0  0  0  0
  -22.7650   -9.2010   20.1740 C   0  0  0  0  0  3  0  0  0  0  0  0
  -23.5120  -10.3780   20.0010 C   0  0  0  0  0  3  0  0  0  0  0  0
  -22.3070   -7.1680   21.2910 O   0  0  0  0  0  0  0  0  0  0  0  0
  -21.9000   -6.6550   22.4980 C   0  0  0  0  0  0  0  0  0  0  0  0
  -21.0930   -7.3980   23.3860 C   0  0  0  0  0  3  0  0  0  0  0  0
  -20.6360   -6.8090   24.5830 C   0  0  0  0  0  3  0  0  0  0  0  0
  -20.9800   -5.4780   24.8890 C   0  0  0  0  0  0  0  0  0  0  0  0
  -21.7780   -4.7350   24.0010 C   0  0  0  0  0  3  0  0  0  0  0  0
  -22.2350   -5.3220   22.8080 C   0  0  0  0  0  0  0  0  0  0  0  0
  -22.9880   -4.5950   21.9480 F   0  0  0  0  0  0  0  0  0  0  0  0
  -20.5350   -4.9090   26.0330 F   0  0  0  0  0  0  0  0  0  0  0  0
  -23.5380  -13.7970   21.1480 C   0  0  0  0  0  0  0  0  0  0  0  0
  -22.8510  -13.1170   22.0570 N   0  0  0  0  0  0  0  0  0  0  0  0
  -23.0860  -14.8350   20.6580 O   0  0  0  0  0  0  0  0  0  0  0  0
  -23.2230  -12.2780   22.4790 H   0  0  0  0  0  0  0  0  0  0  0  0
  -21.9350  -13.4370   22.3370 H   0  0  0  0  0  0  0  0  0  0  0  0
  -26.1640  -15.4210   20.2390 N   0  0  0  0  0  0  0  0  0  0  0  0
  -25.4230  -16.0880   20.4330 H   0  0  0  0  0  0  0  0  0  0  0  0
  -27.0070  -15.8520   19.8850 H   0  0  0  0  0  0  0  0  0  0  0  0
  -27.4440  -26.3630   22.8560 C   0  0  0  0  0  1  0  0  0  0  0  0
  -28.6480  -25.8840   22.0100 C   0  0  0  0  0  3  0  0  0  0  0  0
  -29.2620  -26.9250   21.0390 C   0  0  0  0  0  2  0  0  0  0  0  0
  -28.5570  -27.0320   19.7950 O   0  0  0  0  0  0  0  0  0  0  0  0
  -24.5690  -31.8040   23.2240 C   0  0  0  0  0  0  0  0  0  0  0  0
  -27.4040  -27.7760   19.8210 C   0  0  0  0  0  0  0  0  0  0  0  0
  -23.4160  -30.4850   21.4730 C   0  0  0  0  0  3  0  0  0  0  0  0
  -24.9360  -29.1360   19.9250 C   0  0  0  0  0  0  0  0  0  0  0  0
  -25.9200  -30.9630   21.3250 C   0  0  0  0  0  2  0  0  0  0  0  0
  -26.0560  -29.6590   20.5810 C   0  0  0  0  0  0  0  0  0  0  0  0
  -27.2900  -28.9840   20.5440 C   0  0  0  0  0  3  0  0  0  0  0  0
  -26.2880  -27.2920   19.1160 C   0  0  0  0  0  3  0  0  0  0  0  0
  -25.0470  -27.9480   19.1820 C   0  0  0  0  0  3  0  0  0  0  0  0
  -23.6470  -29.9150   20.0440 C   0  0  0  0  0  2  0  0  0  0  0  0
  -24.6490  -31.0960   22.0640 N   0  0  0  0  0  0  0  0  0  0  0  0
  -23.4800  -31.9890   23.7850 O   0  0  0  0  0  0  0  0  0  0  0  0
  -22.8200  -29.3660   22.3550 C   0  0  0  0  0  0  0  0  0  0  0  0
  -21.5040  -29.1430   22.2210 N   0  0  0  0  0  0  0  0  0  0  0  0
  -23.5360  -28.7050   23.1110 O   0  0  0  0  0  0  0  0  0  0  0  0
  -20.9870  -29.7400   21.5890 H   0  0  0  0  0  0  0  0  0  0  0  0
  -18.1970  -27.7450   22.5990 C   0  0  0  0  0  0  0  0  0  0  0  0
  -20.7300  -28.1240   22.9290 C   0  0  0  0  0  3  0  0  0  0  0  0
  -20.9170  -26.7330   22.2870 C   0  0  0  0  0  2  0  0  0  0  0  0
  -19.8560  -26.4090   21.2280 C   0  0  0  0  0  2  0  0  0  0  0  0
  -18.4560  -26.4510   21.8450 C   0  0  0  0  0  2  0  0  0  0  0  0
  -19.2650  -28.5370   23.0960 C   0  0  0  0  0  0  0  0  0  0  0  0
  -18.9700  -29.7450   23.7640 C   0  0  0  0  0  3  0  0  0  0  0  0
  -17.6390  -30.1620   23.9410 C   0  0  0  0  0  3  0  0  0  0  0  0
  -16.5830  -29.3690   23.4550 C   0  0  0  0  0  3  0  0  0  0  0  0
  -16.8640  -28.1610   22.7890 C   0  0  0  0  0  3  0  0  0  0  0  0
  -25.8360  -32.4330   23.8890 C   0  0  0  0  0  3  0  0  0  0  0  0
  -26.3220  -31.6530   25.1730 C   0  0  1  0  0  0  0  0  0  0  0  0
  -25.2070  -31.4340   26.2200 C   0  0  0  0  0  1  0  0  0  0  0  0
  -26.9020  -30.2680   24.7980 C   0  0  0  0  0  1  0  0  0  0  0  0
  -27.4650  -32.4370   25.8570 C   0  0  0  0  0  1  0  0  0  0  0  0
  -25.5110  -33.8270   24.2200 N   0  0  0  0  0  0  0  0  0  0  0  0
  -25.8760  -34.8870   23.4870 C   0  0  0  0  0  0  0  0  0  0  0  0
  -26.5940  -34.7960   22.4880 O   0  0  0  0  0  0  0  0  0  0  0  0
  -24.8830  -33.9730   24.9970 H   0  0  0  0  0  0  0  0  0  0  0  0
  -24.1710  -36.6870   23.0550 C   0  0  0  0  0  1  0  0  0  0  0  0
  -25.3580  -36.2670   23.9360 C   0  0  0  0  0  3  0  0  0  0  0  0
  -27.4240  -37.1520   24.9270 C   0  0  0  0  0  1  0  0  0  0  0  0
  -26.3950  -37.3190   23.9050 N   0  0  0  0  0  0  0  0  0  0  0  0
  -25.9770  -38.2390   24.0190 H   0  0  0  0  0  0  0  0  0  0  0  0
  -27.3790  -19.8260   17.4560 C   0  0  0  0  0  1  0  0  0  0  0  0
  -26.9300  -20.5860   18.5800 O   0  0  0  0  0  0  0  0  0  0  0  0
  1  2  1  0
  2  5  2  0
  3  5  1  0
  3  7  1  0
  4  3  2  0
  5 10  1  0
  6  1  2  0
  6  4  1  0
  8 12  1  0
  9 11  1  0
  9  4  1  0
  9  8  1  0
 12 57  1  0
 12  7  1  0
 12 13  1  6
 14 27  1  0
 15 20  1  0
 16 17  1  0
 16 15  1  0
 18 17  1  0
 18 31  1  0
 18 19  1  0
 20 14  1  0
 20 19  1  0
 21 14  2  0
 23 26  1  0
 24 22  1  0
 25 23  1  0
 25 27  1  0
 26  2  1  0
 26 22  1  0
 27 24  1  0
 28 29  2  0
 29 48  1  0
 30 29  1  0
 30 33  1  0
 31 32  1  0
 31 28  1  0
 32 30  2  0
 33 34  1  0
 34 35  2  0
 36 39  1  0
 36 35  1  0
 37 36  2  0
 38 37  1  0
 38 33  2  0
 39 40  1  0
 40 45  2  0
 40 41  1  0
 41 42  2  0
 42 43  1  0
 43 47  1  0
 44 43  2  0
 45 44  1  0
 46 45  1  0
 48 49  1  0
 49 52  1  0
 49 51  1  0
 50 48  2  0
 53 28  1  0
 53 54  1  0
 55 53  1  0
 57 56  1  0
 58 57  1  0
 59 61  1  0
 59 58  1  0
 60 71  2  0
 61 66  1  0
 62 70  1  0
 62 72  1  0
 63 69  1  0
 63 65  1  0
 64 70  1  0
 65 64  1  0
 66 65  2  0
 67 68  1  0
 67 61  2  0
 68 63  2  0
 69 62  1  0
 70 60  1  0
 72 74  2  0
 73 72  1  0
 75 73  1  0
 76 85  2  0
 76 81  1  0
 77 73  1  0
 77 81  1  0
 78 77  1  0
 79 80  1  0
 79 78  1  0
 80 76  1  0
 81 82  2  0
 82 83  1  0
 84 83  2  0
 85 84  1  0
 86 60  1  0
 86 91  1  0
 86 87  1  0
 87 90  1  1
 87 88  1  0
 89 87  1  0
 91 94  1  0
 92 96  1  0
 92 91  1  0
 93 92  2  0
 96 95  1  0
 98 96  1  0
 98 99  1  0
 98 97  1  0
100101  1  0
101  6  1  0
M  ISO  4  14 100  27 100  58 101  59 101
M  END
>  <TORSDO>  (8) 
F 19

>  <SCORE>  (8) 
-13.560

>  <name>  (8) 
7

>  <ligand_id>  (8) 
7

>  <original_smiles>  (8) 
[H]c1c([H])c([H])c2c(c1[H])C([H])([H])C([H])([H])C([H])([H])C2([H])N([H])C(=O)C1([H])N(C(=O)C([H])(N([H])C(=O)C([H])(N([H])C([H])([H])[H])C([H])([H])[H])C(C([H])([H])[H])(C([H])([H])[H])C([H])([H])[H])C([H])([H])c2c([H])c(OC([H])([H])C([H])(C([H])([H])[H])[N+]3([H])C([H])([H])c4c(C([H])([H])[H])c(C5([H])C([H])([H])C([H])([H])N(C(=O)N6C([H])([H])C([H])([H])C([H])([H])C([H])(n7nc(-c8c([H])c([H])c(Oc9c([H])c([H])c(F)c([H])c9F)c([H])c8[H])c(C(=O)N([H])[H])c7N([H])[H])C6([H])[H])C([H])([H])C5([H])[H])c([H])c(OC([H])([H])[H])c4C([H])(C([H])([H])[H])C3([H])[H])c([H])c([H])c2C1([H])[H]

>  <smiles>  (8) 
[H]c1c([H])c([H])c2c(c1[H])C([H])([H])C([H])([H])C([H])([H])C2([H])N([H])C(=O)C1([H])N(C(=O)C([H])(N([H])C(=O)C([H])(N([H])C([H])([H])[H])C([H])([H])[H])C(C([H])([H])[H])(C([H])([H])[H])C([H])([H])[H])C([H])([H])c2c([H])c(OC([H])([H])C([H])(C([H])([H])[H])[N+]3([H])C([H])([H])c4c(C([H])([H])[H])c(C5([H])C([H])([H])C([H])([H])N(C(=O)N6C([H])([H])C([H])([H])C([H])([H])C([H])(n7nc(-c8c([H])c([H])c(Oc9c([H])c([H])c(F)c([H])c9F)c([H])c8[H])c(C(=O)N([H])[H])c7N([H])[H])C6([H])[H])C([H])([H])C5([H])[H])c([H])c(OC([H])([H])[H])c4C([H])(C([H])([H])[H])C3([H])[H])c([H])c([H])c2C1([H])[H]

$$$$
8:0:0
     RDKit          3D

100110  0  0  1  0  0  0  0  0999 V2000
  -32.4390  -21.2840   21.2270 C   0  0  0  0  0  3  0  0  0  0  0  0
  -30.9550  -20.7310   19.3840 C   0  0  0  0  0  3  0  0  0  0  0  0
  -31.6600  -21.6980   20.1300 C   0  0  0  0  0  0  0  0  0  0  0  0
  -31.6880  -18.9720   20.9200 C   0  0  0  0  0  0  0  0  0  0  0  0
  -32.4640  -19.9320   21.6200 C   0  0  0  0  0  0  0  0  0  0  0  0
  -30.9700  -19.3670   19.7630 C   0  0  0  0  0  0  0  0  0  0  0  0
  -33.3210  -19.5420   22.8130 C   0  0  0  0  0  1  0  0  0  0  0  0
  -31.8530  -23.5620   18.3480 C   0  0  0  0  0  2  0  0  0  0  0  0
  -31.2260  -24.9520   18.2430 C   0  0  0  0  0  2  0  0  0  0  0  0
  -31.5510  -23.1820   19.7950 C   0  0  0  0  0  3  0  0  0  0  0  0
  -30.1430  -23.7640   20.0280 C   0  0  0  0  0  3  0  0  0  0  0  0
  -29.8840  -24.1610   21.4900 C   0  0  0  0  0  1  0  0  0  0  0  0
  -30.0400  -24.9440   19.1370 N   0  0  2  0  0  4  0  0  0  0  0  0
  -30.1030  -25.7670   19.7200 H   0  0  0  0  0  0  0  0  0  0  0  0
  -28.7450  -25.0400   18.4170 C   0  0  0  0  0  2  0  0  0  0  0  0
  -28.3690  -26.5020   18.1800 C   0  0  0  0  0  2  0  0  0  0  0  0
  -28.1360  -27.0830   19.4620 O   0  0  0  0  0  0  0  0  0  0  0  0
  -24.5420  -31.8750   23.2780 C   0  0  0  0  0  0  0  0  0  0  0  0
  -26.9490  -27.7530   19.6330 C   0  0  0  0  0  0  0  0  0  0  0  0
  -23.2300  -30.6680   21.5630 C   0  0  0  0  0  3  0  0  0  0  0  0
  -24.5810  -29.2500   19.9340 C   0  0  0  0  0  0  0  0  0  0  0  0
  -25.7480  -31.0030   21.2830 C   0  0  0  0  0  2  0  0  0  0  0  0
  -25.7710  -29.6970   20.5200 C   0  0  0  0  0  0  0  0  0  0  0  0
  -26.9550  -28.9460   20.3810 C   0  0  0  0  0  3  0  0  0  0  0  0
  -25.7360  -27.2910   19.0770 C   0  0  0  0  0  3  0  0  0  0  0  0
  -24.5540  -28.0410   19.2170 C   0  0  0  0  0  3  0  0  0  0  0  0
  -23.3610  -30.1230   20.1150 C   0  0  0  0  0  2  0  0  0  0  0  0
  -24.5280  -31.1900   22.1020 N   0  0  0  0  0  0  0  0  0  0  0  0
  -23.4940  -32.1110   23.8940 O   0  0  0  0  0  0  0  0  0  0  0  0
  -22.5980  -29.5690   22.4480 C   0  0  0  0  0  0  0  0  0  0  0  0
  -21.2700  -29.4050   22.3420 N   0  0  0  0  0  0  0  0  0  0  0  0
  -23.3000  -28.8710   23.1860 O   0  0  0  0  0  0  0  0  0  0  0  0
  -20.7620  -30.0270   21.7290 H   0  0  0  0  0  0  0  0  0  0  0  0
  -17.9100  -28.1620   22.7920 C   0  0  0  0  0  0  0  0  0  0  0  0
  -20.4710  -28.4050   23.0490 C   0  0  0  0  0  3  0  0  0  0  0  0
  -20.5670  -27.0230   22.3630 C   0  0  0  0  0  2  0  0  0  0  0  0
  -19.4540  -26.7760   21.3410 C   0  0  0  0  0  2  0  0  0  0  0  0
  -18.0800  -26.8680   22.0140 C   0  0  0  0  0  2  0  0  0  0  0  0
  -19.0330  -28.8910   23.2660 C   0  0  0  0  0  0  0  0  0  0  0  0
  -18.8210  -30.1040   23.9580 C   0  0  0  0  0  3  0  0  0  0  0  0
  -17.5190  -30.5920   24.1740 C   0  0  0  0  0  3  0  0  0  0  0  0
  -16.4090  -29.8580   23.7170 C   0  0  0  0  0  3  0  0  0  0  0  0
  -16.6070  -28.6440   23.0330 C   0  0  0  0  0  3  0  0  0  0  0  0
  -25.8710  -32.4130   23.8970 C   0  0  0  0  0  3  0  0  0  0  0  0
  -25.6500  -33.8170   24.2630 N   0  0  0  0  0  0  0  0  0  0  0  0
  -26.0770  -34.8650   23.5450 C   0  0  0  0  0  0  0  0  0  0  0  0
  -26.7660  -34.7430   22.5290 O   0  0  0  0  0  0  0  0  0  0  0  0
  -25.0410  -33.9890   25.0500 H   0  0  0  0  0  0  0  0  0  0  0  0
  -24.5190  -36.8040   23.1690 C   0  0  0  0  0  1  0  0  0  0  0  0
  -25.6750  -36.2710   24.0300 C   0  0  0  0  0  3  0  0  0  0  0  0
  -27.8180  -36.9600   25.0130 C   0  0  0  0  0  1  0  0  0  0  0  0
  -26.7920  -37.2400   24.0120 N   0  0  0  0  0  0  0  0  0  0  0  0
  -26.4540  -38.1870   24.1590 H   0  0  0  0  0  0  0  0  0  0  0  0
  -26.3600  -31.5760   25.1420 C   0  0  1  0  0  0  0  0  0  0  0  0
  -25.2620  -31.3500   26.2090 C   0  0  0  0  0  1  0  0  0  0  0  0
  -26.8770  -30.1900   24.6930 C   0  0  0  0  0  1  0  0  0  0  0  0
  -27.5520  -32.2920   25.8200 C   0  0  0  0  0  1  0  0  0  0  0  0
  -30.8780  -17.2470   22.7220 C   0  0  0  0  0  2  0  0  0  0  0  0
  -31.5880  -17.5500   21.4150 C   0  0  0  0  0  3  0  0  0  0  0  0
  -30.2470  -16.8320   21.4200 C   0  0  0  0  0  3  0  0  0  0  0  0
  -30.5000  -14.7160   20.1390 C   0  0  0  0  0  0  0  0  0  0  0  0
  -30.2040  -12.6100   18.8890 C   0  0  0  0  0  2  0  0  0  0  0  0
  -29.1600  -12.7800   17.7700 C   0  0  0  0  0  2  0  0  0  0  0  0
  -27.7370  -12.5310   18.3060 C   0  0  0  0  0  2  0  0  0  0  0  0
  -27.4430  -13.3350   19.5980 C   0  0  0  0  0  3  0  0  0  0  0  0
  -28.5850  -13.1480   20.6240 C   0  0  0  0  0  2  0  0  0  0  0  0
  -29.8640  -13.5260   19.9860 N   0  0  0  0  0  0  0  0  0  0  0  0
  -31.4000  -15.1070   19.3910 O   0  0  0  0  0  0  0  0  0  0  0  0
  -30.0830  -15.4290   21.1910 N   0  0  0  0  0  0  0  0  0  0  0  0
  -29.3990  -14.9660   21.7710 H   0  0  0  0  0  0  0  0  0  0  0  0
  -25.0730  -13.7930   20.5020 C   0  0  0  0  0  0  0  0  0  0  0  0
  -24.0780  -12.9520   20.9280 C   0  0  0  0  0  0  0  0  0  0  0  0
  -24.6060  -11.6300   20.8160 C   0  0  0  0  0  0  0  0  0  0  0  0
  -26.1430  -12.9770   20.1650 N   0  0  0  0  0  0  0  0  0  0  0  0
  -25.8670  -11.6690   20.4070 N   0  0  0  0  0  0  0  0  0  0  0  0
  -23.9660  -10.3240   21.0240 C   0  0  0  0  0  0  0  0  0  0  0  0
  -24.3960   -9.4430   22.0400 C   0  0  0  0  0  3  0  0  0  0  0  0
  -23.7540   -8.2000   22.2290 C   0  0  0  0  0  3  0  0  0  0  0  0
  -22.6670   -7.8300   21.4030 C   0  0  0  0  0  0  0  0  0  0  0  0
  -22.2580   -8.7020   20.3780 C   0  0  0  0  0  3  0  0  0  0  0  0
  -22.9010   -9.9360   20.1860 C   0  0  0  0  0  3  0  0  0  0  0  0
  -22.0000   -6.6330   21.4960 O   0  0  0  0  0  0  0  0  0  0  0  0
  -21.7740   -6.0280   22.7070 C   0  0  0  0  0  0  0  0  0  0  0  0
  -21.0240   -6.6570   23.7250 C   0  0  0  0  0  3  0  0  0  0  0  0
  -20.7550   -5.9720   24.9260 C   0  0  0  0  0  3  0  0  0  0  0  0
  -21.2250   -4.6580   25.1100 C   0  0  0  0  0  0  0  0  0  0  0  0
  -21.9680   -4.0280   24.0950 C   0  0  0  0  0  3  0  0  0  0  0  0
  -22.2380   -4.7110   22.8960 C   0  0  0  0  0  0  0  0  0  0  0  0
  -22.9350   -4.0920   21.9130 F   0  0  0  0  0  0  0  0  0  0  0  0
  -20.9620   -3.9970   26.2610 F   0  0  0  0  0  0  0  0  0  0  0  0
  -22.6850  -13.3440   21.3280 C   0  0  0  0  0  0  0  0  0  0  0  0
  -22.0640  -12.5780   22.2190 N   0  0  0  0  0  0  0  0  0  0  0  0
  -22.1550  -14.3630   20.8870 O   0  0  0  0  0  0  0  0  0  0  0  0
  -22.5070  -11.7540   22.5970 H   0  0  0  0  0  0  0  0  0  0  0  0
  -21.1340  -12.8210   22.5290 H   0  0  0  0  0  0  0  0  0  0  0  0
  -25.1530  -15.1750   20.3590 N   0  0  0  0  0  0  0  0  0  0  0  0
  -24.3710  -15.7900   20.5570 H   0  0  0  0  0  0  0  0  0  0  0  0
  -25.9680  -15.6670   20.0140 H   0  0  0  0  0  0  0  0  0  0  0  0
  -29.6460  -18.7280   17.8510 C   0  0  0  0  0  1  0  0  0  0  0  0
  -30.2920  -18.3850   19.0690 O   0  0  0  0  0  0  0  0  0  0  0  0
  1  5  1  0
  2  6  2  0
  2  3  1  0
  3  1  2  0
  4  5  2  0
  5  7  1  0
  6  4  1  0
  8 10  1  0
  9  8  1  0
  9 13  1  0
 10 11  1  0
 10  3  1  0
 11 12  1  0
 13 14  1  1
 13 11  1  0
 15 13  1  0
 16 15  1  0
 16 17  1  0
 17 19  1  0
 18 29  2  0
 19 24  1  0
 20 28  1  0
 20 30  1  0
 21 27  1  0
 21 23  1  0
 22 28  1  0
 23 22  1  0
 24 23  2  0
 25 26  1  0
 25 19  2  0
 26 21  2  0
 27 20  1  0
 28 18  1  0
 30 32  2  0
 31 30  1  0
 33 31  1  0
 34 43  2  0
 34 39  1  0
 35 31  1  0
 35 39  1  0
 36 35  1  0
 37 38  1  0
 37 36  1  0
 38 34  1  0
 39 40  2  0
 40 41  1  0
 42 41  2  0
 43 42  1  0
 44 18  1  0
 44 45  1  0
 44 54  1  0
 45 48  1  0
 46 50  1  0
 46 45  1  0
 47 46  2  0
 50 49  1  0
 52 50  1  0
 52 53  1  0
 52 51  1  0
 54 57  1  1
 54 55  1  0
 56 54  1  0
 59  4  1  0
 59 60  1  0
 59 58  1  0
 60 69  1  0
 60 58  1  0
 61 69  1  0
 62 67  1  0
 63 64  1  0
 63 62  1  0
 65 64  1  0
 65 74  1  0
 65 66  1  0
 67 61  1  0
 67 66  1  0
 68 61  2  0
 69 70  1  0
 71 72  2  0
 72 91  1  0
 73 72  1  0
 73 76  1  0
 74 75  1  0
 74 71  1  0
 75 73  2  0
 76 77  1  0
 77 78  2  0
 79 82  1  0
 79 78  1  0
 80 79  2  0
 81 80  1  0
 81 76  2  0
 82 83  1  0
 83 88  2  0
 83 84  1  0
 84 85  2  0
 85 86  1  0
 86 90  1  0
 87 86  2  0
 88 87  1  0
 89 88  1  0
 91 92  1  0
 92 95  1  0
 92 94  1  0
 93 91  2  0
 96 71  1  0
 96 97  1  0
 98 96  1  0
 99100  1  0
100  6  1  0
M  ISO  4  16 101  17 101  61 100  69 100
M  END
>  <TORSDO>  (9) 
F 21

>  <SCORE>  (9) 
-12.550

>  <name>  (9) 
8

>  <ligand_id>  (9) 
8

>  <original_smiles>  (9) 
[H]c1c([H])c([H])c2c(c1[H])C([H])([H])C([H])([H])C([H])([H])C2([H])N([H])C(=O)C1([H])N(C(=O)C([H])(N([H])C(=O)C([H])(N([H])C([H])([H])[H])C([H])([H])[H])C(C([H])([H])[H])(C([H])([H])[H])C([H])([H])[H])C([H])([H])c2c([H])c(OC([H])([H])C([H])([H])[N+]3([H])C([H])([H])C([H])([H])C([H])(c4c([H])c(OC([H])([H])[H])c(C5([H])C([H])([H])C5([H])N([H])C(=O)N5C([H])([H])C([H])([H])C([H])([H])C([H])(n6nc(-c7c([H])c([H])c(Oc8c([H])c([H])c(F)c([H])c8F)c([H])c7[H])c(C(=O)N([H])[H])c6N([H])[H])C5([H])[H])c(C([H])([H])[H])c4[H])C3([H])C([H])([H])[H])c([H])c([H])c2C1([H])[H]

>  <smiles>  (9) 
[H]c1c([H])c([H])c2c(c1[H])C([H])([H])C([H])([H])C([H])([H])C2([H])N([H])C(=O)C1([H])N(C(=O)C([H])(N([H])C(=O)C([H])(N([H])C([H])([H])[H])C([H])([H])[H])C(C([H])([H])[H])(C([H])([H])[H])C([H])([H])[H])C([H])([H])c2c([H])c(OC([H])([H])C([H])([H])[N+]3([H])C([H])([H])C([H])([H])C([H])(c4c([H])c(OC([H])([H])[H])c(C5([H])C([H])([H])C5([H])N([H])C(=O)N5C([H])([H])C([H])([H])C([H])([H])C([H])(n6nc(-c7c([H])c([H])c(Oc8c([H])c([H])c(F)c([H])c8F)c([H])c7[H])c(C(=O)N([H])[H])c6N([H])[H])C5([H])[H])c(C([H])([H])[H])c4[H])C3([H])C([H])([H])[H])c([H])c([H])c2C1([H])[H]

$$$$
9:0:0
     RDKit          3D

 99108  0  0  1  0  0  0  0  0999 V2000
  -28.9580  -22.4560   20.8650 C   0  0  0  0  0  3  0  0  0  0  0  0
  -27.8830  -20.8080   19.8100 C   0  0  0  0  0  0  0  0  0  0  0  0
  -28.9830  -21.1030   20.6830 C   0  0  0  0  0  0  0  0  0  0  0  0
  -27.2620  -21.9930   19.4380 C   0  0  0  0  0  0  0  0  0  0  0  0
  -30.0240  -20.2040   21.2980 C   0  0  0  0  0  1  0  0  0  0  0  0
  -27.9340  -23.0250   20.1260 N   0  0  0  0  0  0  0  0  0  0  0  0
  -24.9930  -23.1760   18.8930 C   0  0  0  0  0  1  0  0  0  0  0  0
  -25.4950  -21.1010   17.6540 C   0  0  0  0  0  1  0  0  0  0  0  0
  -26.1540  -22.2900   18.3970 C   0  0  0  0  0  3  0  0  0  0  0  0
  -27.9780  -18.9270   17.9800 C   0  0  0  0  0  2  0  0  0  0  0  0
  -27.4010  -19.4500   19.2960 C   0  0  0  0  0  3  0  0  0  0  0  0
  -27.9720  -18.0390   19.1940 C   0  0  0  0  0  3  0  0  0  0  0  0
  -29.3100  -17.6880   19.6850 N   0  0  0  0  0  4  0  0  0  0  0  0
  -29.8530  -18.5140   19.8730 H   0  0  0  0  0  0  0  0  0  0  0  0
  -29.7780  -17.1560   18.9670 H   0  0  0  0  0  0  0  0  0  0  0  0
  -29.2340  -16.7990   20.8710 C   0  0  0  0  0  2  0  0  0  0  0  0
  -31.6910  -16.8560   21.4440 C   0  0  0  0  0  1  0  0  0  0  0  0
  -30.5010  -15.9530   21.0890 C   0  0  0  0  0  3  0  0  0  0  0  0
  -31.3670  -13.9690   19.8210 C   0  0  0  0  0  0  0  0  0  0  0  0
  -30.9340  -11.5980   19.3800 C   0  0  0  0  0  2  0  0  0  0  0  0
  -30.0170  -11.4100   18.1580 C   0  0  0  0  0  2  0  0  0  0  0  0
  -28.5420  -11.4410   18.5920 C   0  0  0  0  0  2  0  0  0  0  0  0
  -28.2100  -12.6560   19.5010 C   0  0  0  0  0  3  0  0  0  0  0  0
  -29.2500  -12.8210   20.6300 C   0  0  0  0  0  2  0  0  0  0  0  0
  -30.5870  -12.8760   20.0170 N   0  0  0  0  0  0  0  0  0  0  0  0
  -32.4680  -13.9330   19.2780 O   0  0  0  0  0  0  0  0  0  0  0  0
  -30.8030  -15.1780   19.8860 N   0  0  0  0  0  0  0  0  0  0  0  0
  -31.3810  -15.7370   19.2730 H   0  0  0  0  0  0  0  0  0  0  0  0
  -25.9350  -13.5900   20.2520 C   0  0  0  0  0  0  0  0  0  0  0  0
  -24.7930  -12.9820   20.6860 C   0  0  0  0  0  0  0  0  0  0  0  0
  -25.0640  -11.5800   20.6700 C   0  0  0  0  0  0  0  0  0  0  0  0
  -26.8480  -12.5750   20.0210 N   0  0  0  0  0  0  0  0  0  0  0  0
  -26.3260  -11.3600   20.3250 N   0  0  0  0  0  0  0  0  0  0  0  0
  -24.1830  -10.4340   20.9110 C   0  0  0  0  0  0  0  0  0  0  0  0
  -24.5390   -9.4170   21.8270 C   0  0  0  0  0  3  0  0  0  0  0  0
  -23.6740   -8.3260   22.0560 C   0  0  0  0  0  3  0  0  0  0  0  0
  -22.4360   -8.2490   21.3730 C   0  0  0  0  0  0  0  0  0  0  0  0
  -22.0950   -9.2550   20.4510 C   0  0  0  0  0  3  0  0  0  0  0  0
  -22.9590  -10.3370   20.2200 C   0  0  0  0  0  3  0  0  0  0  0  0
  -21.5420   -7.2160   21.5140 O   0  0  0  0  0  0  0  0  0  0  0  0
  -21.4930   -6.4570   22.6540 C   0  0  0  0  0  0  0  0  0  0  0  0
  -21.2500   -7.0300   23.9210 C   0  0  0  0  0  3  0  0  0  0  0  0
  -21.1410   -6.2050   25.0560 C   0  0  0  0  0  3  0  0  0  0  0  0
  -21.2630   -4.8080   24.9290 C   0  0  0  0  0  0  0  0  0  0  0  0
  -21.4970   -4.2350   23.6670 C   0  0  0  0  0  3  0  0  0  0  0  0
  -21.6100   -5.0570   22.5310 C   0  0  0  0  0  0  0  0  0  0  0  0
  -21.8120   -4.4970   21.3140 F   0  0  0  0  0  0  0  0  0  0  0  0
  -21.1560   -4.0140   26.0190 F   0  0  0  0  0  0  0  0  0  0  0  0
  -23.4790  -13.6480   20.9870 C   0  0  0  0  0  0  0  0  0  0  0  0
  -22.7040  -13.0950   21.9100 N   0  0  0  0  0  0  0  0  0  0  0  0
  -23.1570  -14.6970   20.4270 O   0  0  0  0  0  0  0  0  0  0  0  0
  -22.9700  -12.2350   22.3730 H   0  0  0  0  0  0  0  0  0  0  0  0
  -21.8230  -13.5290   22.1470 H   0  0  0  0  0  0  0  0  0  0  0  0
  -26.2710  -14.9180   19.9970 N   0  0  0  0  0  0  0  0  0  0  0  0
  -25.5470  -15.6260   20.0130 H   0  0  0  0  0  0  0  0  0  0  0  0
  -27.0130  -15.1410   19.3500 H   0  0  0  0  0  0  0  0  0  0  0  0
  -27.6730  -24.4750   20.0200 C   0  0  0  0  0  3  0  0  0  0  0  0
  -28.6270  -25.4870   20.7160 C   0  0  0  0  0  3  0  0  0  0  0  0
  -28.6040  -26.8710   20.2900 O   0  0  0  0  0  0  0  0  0  0  0  0
  -24.5900  -31.9870   23.2850 C   0  0  0  0  0  0  0  0  0  0  0  0
  -27.4200  -27.5830   20.3170 C   0  0  0  0  0  0  0  0  0  0  0  0
  -23.4710  -30.5640   21.6000 C   0  0  0  0  0  3  0  0  0  0  0  0
  -25.0110  -29.0670   20.2190 C   0  0  0  0  0  0  0  0  0  0  0  0
  -25.9960  -30.9710   21.4930 C   0  0  0  0  0  2  0  0  0  0  0  0
  -26.1340  -29.5990   20.8650 C   0  0  0  0  0  0  0  0  0  0  0  0
  -27.3430  -28.8640   20.9140 C   0  0  0  0  0  3  0  0  0  0  0  0
  -26.2890  -27.0970   19.6260 C   0  0  0  0  0  3  0  0  0  0  0  0
  -25.0850  -27.8160   19.5930 C   0  0  0  0  0  3  0  0  0  0  0  0
  -23.7480  -29.8950   20.2230 C   0  0  0  0  0  2  0  0  0  0  0  0
  -24.7010  -31.1890   22.1850 N   0  0  0  0  0  0  0  0  0  0  0  0
  -23.4850  -32.2350   23.7920 O   0  0  0  0  0  0  0  0  0  0  0  0
  -22.8140  -29.5230   22.5350 C   0  0  0  0  0  0  0  0  0  0  0  0
  -21.4940  -29.3340   22.3850 N   0  0  0  0  0  0  0  0  0  0  0  0
  -23.4910  -28.8920   23.3490 O   0  0  0  0  0  0  0  0  0  0  0  0
  -21.0110  -29.8860   21.6930 H   0  0  0  0  0  0  0  0  0  0  0  0
  -18.1080  -28.1740   22.8780 C   0  0  0  0  0  0  0  0  0  0  0  0
  -20.6710  -28.3810   23.1320 C   0  0  0  0  0  3  0  0  0  0  0  0
  -20.7460  -26.9710   22.5010 C   0  0  0  0  0  2  0  0  0  0  0  0
  -19.6300  -26.7030   21.4880 C   0  0  0  0  0  2  0  0  0  0  0  0
  -18.2570  -26.8480   22.1530 C   0  0  0  0  0  2  0  0  0  0  0  0
  -19.2420  -28.9020   23.3250 C   0  0  0  0  0  0  0  0  0  0  0  0
  -19.0510  -30.1460   23.9610 C   0  0  0  0  0  3  0  0  0  0  0  0
  -17.7560  -30.6660   24.1500 C   0  0  0  0  0  3  0  0  0  0  0  0
  -16.6350  -29.9310   23.7260 C   0  0  0  0  0  3  0  0  0  0  0  0
  -16.8120  -28.6870   23.0960 C   0  0  0  0  0  3  0  0  0  0  0  0
  -25.8410  -32.6460   23.9450 C   0  0  0  0  0  3  0  0  0  0  0  0
  -25.5040  -34.0420   24.2530 N   0  0  0  0  0  0  0  0  0  0  0  0
  -25.8150  -35.0880   23.4770 C   0  0  0  0  0  0  0  0  0  0  0  0
  -26.4910  -34.9830   22.4510 O   0  0  0  0  0  0  0  0  0  0  0  0
  -24.9020  -34.1950   25.0470 H   0  0  0  0  0  0  0  0  0  0  0  0
  -24.0360  -36.8100   23.0870 C   0  0  0  0  0  1  0  0  0  0  0  0
  -25.2870  -36.4670   23.9100 C   0  0  0  0  0  3  0  0  0  0  0  0
  -27.3970  -37.4210   24.7180 C   0  0  0  0  0  1  0  0  0  0  0  0
  -26.2880  -37.5460   23.7760 N   0  0  0  0  0  0  0  0  0  0  0  0
  -25.8570  -38.4560   23.9100 H   0  0  0  0  0  0  0  0  0  0  0  0
  -26.3240  -31.8910   25.2400 C   0  0  1  0  0  0  0  0  0  0  0  0
  -25.1900  -31.6140   26.2550 C   0  0  0  0  0  1  0  0  0  0  0  0
  -26.9720  -30.5380   24.8700 C   0  0  0  0  0  1  0  0  0  0  0  0
  -27.4190  -32.7170   25.9550 C   0  0  0  0  0  1  0  0  0  0  0  0
  2  3  1  0
  3  1  2  0
  3  5  1  0
  4  2  2  0
  4  6  1  0
  6  1  1  0
  8  9  1  0
  9  7  1  0
  9  4  1  0
 10 12  1  0
 10 11  1  0
 11  2  1  0
 12 11  1  0
 12 13  1  0
 13 14  1  0
 13 16  1  0
 15 13  1  0
 16 18  1  0
 18 17  1  0
 19 27  1  0
 19 25  1  0
 20 25  1  0
 21 22  1  0
 21 20  1  0
 23 22  1  0
 23 32  1  0
 23 24  1  0
 25 24  1  0
 26 19  2  0
 27 18  1  0
 28 27  1  0
 29 30  2  0
 30 49  1  0
 31 30  1  0
 31 34  1  0
 32 29  1  0
 32 33  1  0
 33 31  2  0
 34 35  1  0
 35 36  2  0
 37 40  1  0
 37 36  1  0
 38 37  2  0
 39 38  1  0
 39 34  2  0
 40 41  1  0
 41 42  1  0
 42 43  2  0
 44 43  1  0
 44 48  1  0
 45 44  2  0
 46 41  2  0
 46 45  1  0
 47 46  1  0
 49 50  1  0
 50 53  1  0
 50 52  1  0
 51 49  2  0
 54 55  1  0
 54 29  1  0
 56 54  1  0
 57  6  1  0
 57 58  2  0
 59 61  1  0
 59 58  1  0
 60 71  2  0
 61 66  1  0
 62 70  1  0
 62 72  1  0
 63 69  1  0
 63 65  1  0
 64 70  1  0
 65 66  2  0
 65 64  1  0
 67 61  2  0
 68 67  1  0
 68 63  2  0
 69 62  1  0
 70 60  1  0
 72 74  2  0
 73 72  1  0
 75 73  1  0
 76 85  2  0
 76 81  1  0
 77 73  1  0
 77 81  1  0
 78 77  1  0
 79 80  1  0
 79 78  1  0
 80 76  1  0
 81 82  2  0
 82 83  1  0
 84 83  2  0
 85 84  1  0
 86 60  1  0
 86 87  1  0
 86 96  1  0
 87 90  1  0
 88 92  1  0
 88 87  1  0
 89 88  2  0
 92 91  1  0
 94 95  1  0
 94 92  1  0
 94 93  1  0
 96 99  1  1
 96 97  1  0
 98 96  1  0
M  ISO  4  19 100  27 100  58 101  59 101
M  END
>  <TORSDO>  (10) 
F 23

>  <SCORE>  (10) 
-12.892

>  <name>  (10) 
9

>  <ligand_id>  (10) 
9

>  <original_smiles>  (10) 
[H]c1c([H])c([H])c2c(c1[H])C([H])([H])C([H])([H])C([H])([H])C2([H])N([H])C(=O)C1([H])N(C(=O)C([H])(N([H])C(=O)C([H])(N([H])C([H])([H])[H])C([H])([H])[H])C(C([H])([H])[H])(C([H])([H])[H])C([H])([H])[H])C([H])([H])c2c([H])c(OC([H])([H])C([H])([H])n3c([H])c(C([H])([H])[H])c(C4([H])C([H])([H])C4([H])[N+]([H])([H])C([H])([H])C([H])(N([H])C(=O)N4C([H])([H])C([H])([H])C([H])([H])C([H])(n5nc(-c6c([H])c([H])c(Oc7c([H])c([H])c(F)c([H])c7F)c([H])c6[H])c(C(=O)N([H])[H])c5N([H])[H])C4([H])[H])C([H])([H])[H])c3C([H])(C([H])([H])[H])C([H])([H])[H])c([H])c([H])c2C1([H])[H]

>  <smiles>  (10) 
[H]c1c([H])c([H])c2c(c1[H])C([H])([H])C([H])([H])C([H])([H])C2([H])N([H])C(=O)C1([H])N(C(=O)C([H])(N([H])C(=O)C([H])(N([H])C([H])([H])[H])C([H])([H])[H])C(C([H])([H])[H])(C([H])([H])[H])C([H])([H])[H])C([H])([H])c2c([H])c(OC([H])([H])C([H])([H])n3c([H])c(C([H])([H])[H])c(C4([H])C([H])([H])C4([H])[N+]([H])([H])C([H])([H])C([H])(N([H])C(=O)N4C([H])([H])C([H])([H])C([H])([H])C([H])(n5nc(-c6c([H])c([H])c(Oc7c([H])c([H])c(F)c([H])c7F)c([H])c6[H])c(C(=O)N([H])[H])c5N([H])[H])C4([H])[H])C([H])([H])[H])c3C([H])(C([H])([H])[H])C([H])([H])[H])c([H])c([H])c2C1([H])[H]

$$$$
10:0:0
     RDKit          3D

 89 98  0  0  1  0  0  0  0  0999 V2000
  -29.2890  -21.2250   21.2950 C   0  0  0  0  0  3  0  0  0  0  0  0
  -29.0020  -22.6470   21.2600 C   0  0  0  0  0  3  0  0  0  0  0  0
  -29.1620  -21.2190   18.9580 C   0  0  0  0  0  3  0  0  0  0  0  0
  -29.3340  -20.4040   20.1220 C   0  0  0  0  0  0  0  0  0  0  0  0
  -28.7560  -23.3630   20.0470 C   0  0  0  0  0  0  0  0  0  0  0  0
  -28.8890  -22.5810   18.9230 N   0  0  0  0  0  0  0  0  0  0  0  0
  -30.6900  -14.9990   19.9490 C   0  0  0  0  0  0  0  0  0  0  0  0
  -30.4290  -12.7000   18.9210 C   0  0  0  0  0  2  0  0  0  0  0  0
  -29.3900  -12.6940   17.7770 C   0  0  0  0  0  2  0  0  0  0  0  0
  -27.9730  -12.4620   18.3290 C   0  0  0  0  0  2  0  0  0  0  0  0
  -27.6720  -13.3420   19.5700 C   0  0  0  0  0  3  0  0  0  0  0  0
  -28.8280  -13.3030   20.5950 C   0  0  0  0  0  2  0  0  0  0  0  0
  -30.0360  -13.7650   19.8920 N   0  0  0  0  0  0  0  0  0  0  0  0
  -31.8420  -15.0310   19.5040 O   0  0  0  0  0  0  0  0  0  0  0  0
  -28.7350  -18.0490   21.3330 C   0  0  0  0  0  2  0  0  0  0  0  0
  -28.9140  -16.5050   21.1160 C   0  0  0  0  0  2  0  0  0  0  0  0
  -30.4530  -17.6740   19.7820 C   0  0  0  0  0  2  0  0  0  0  0  0
  -29.2860  -18.7560   20.0920 C   0  0  0  0  0  3  0  0  0  0  0  0
  -30.0240  -16.2430   20.1820 N   0  0  0  0  0  0  0  0  0  0  0  0
  -25.3590  -13.8830   20.5300 C   0  0  0  0  0  0  0  0  0  0  0  0
  -24.3310  -13.0890   20.9590 C   0  0  0  0  0  0  0  0  0  0  0  0
  -24.7900  -11.7430   20.8260 C   0  0  0  0  0  0  0  0  0  0  0  0
  -26.3800  -13.0210   20.1670 N   0  0  0  0  0  0  0  0  0  0  0  0
  -26.0500  -11.7250   20.4060 N   0  0  0  0  0  0  0  0  0  0  0  0
  -24.0800  -10.4720   21.0160 C   0  0  0  0  0  0  0  0  0  0  0  0
  -24.5460   -9.4940   21.9220 C   0  0  0  0  0  3  0  0  0  0  0  0
  -23.8330   -8.2890   22.1040 C   0  0  0  0  0  3  0  0  0  0  0  0
  -22.6410   -8.0540   21.3800 C   0  0  0  0  0  0  0  0  0  0  0  0
  -22.1920   -9.0220   20.4630 C   0  0  0  0  0  3  0  0  0  0  0  0
  -22.9060  -10.2170   20.2800 C   0  0  0  0  0  3  0  0  0  0  0  0
  -21.8970   -6.9020   21.4730 O   0  0  0  0  0  0  0  0  0  0  0  0
  -21.8210   -6.1860   22.6400 C   0  0  0  0  0  0  0  0  0  0  0  0
  -21.3390   -6.7610   23.8370 C   0  0  0  0  0  3  0  0  0  0  0  0
  -21.2140   -5.9700   24.9970 C   0  0  0  0  0  3  0  0  0  0  0  0
  -21.5610   -4.6070   24.9610 C   0  0  0  0  0  0  0  0  0  0  0  0
  -22.0360   -4.0310   23.7690 C   0  0  0  0  0  3  0  0  0  0  0  0
  -22.1630   -4.8190   22.6120 C   0  0  0  0  0  0  0  0  0  0  0  0
  -22.6010   -4.2550   21.4600 F   0  0  0  0  0  0  0  0  0  0  0  0
  -21.4330   -3.8440   26.0720 F   0  0  0  0  0  0  0  0  0  0  0  0
  -22.9640  -13.5510   21.3710 C   0  0  0  0  0  0  0  0  0  0  0  0
  -22.3210  -12.8260   22.2790 N   0  0  0  0  0  0  0  0  0  0  0  0
  -22.4800  -14.5900   20.9270 O   0  0  0  0  0  0  0  0  0  0  0  0
  -22.7270  -11.9840   22.6580 H   0  0  0  0  0  0  0  0  0  0  0  0
  -21.4080  -13.1170   22.5990 H   0  0  0  0  0  0  0  0  0  0  0  0
  -25.4950  -15.2600   20.3900 N   0  0  0  0  0  0  0  0  0  0  0  0
  -24.7270  -15.8950   20.5780 H   0  0  0  0  0  0  0  0  0  0  0  0
  -26.2860  -15.7140   19.9540 H   0  0  0  0  0  0  0  0  0  0  0  0
  -27.9160  -24.7730   19.9120 C   0  0  0  0  0  2  0  0  0  0  0  0
  -28.2990  -26.2460   20.1880 O   0  0  0  0  0  0  0  0  0  0  0  0
  -24.6760  -31.8900   23.2520 C   0  0  0  0  0  0  0  0  0  0  0  0
  -27.2550  -27.2440   20.1340 C   0  0  0  0  0  0  0  0  0  0  0  0
  -23.4760  -30.5300   21.5880 C   0  0  0  0  0  3  0  0  0  0  0  0
  -24.9240  -28.9890   20.1360 C   0  0  0  0  0  0  0  0  0  0  0  0
  -26.0330  -30.7950   21.4340 C   0  0  0  0  0  2  0  0  0  0  0  0
  -26.1070  -29.4190   20.7550 C   0  0  0  0  0  0  0  0  0  0  0  0
  -27.2720  -28.5620   20.7420 C   0  0  0  0  0  3  0  0  0  0  0  0
  -26.0420  -26.9220   19.4750 C   0  0  0  0  0  3  0  0  0  0  0  0
  -24.9050  -27.7530   19.4830 C   0  0  0  0  0  3  0  0  0  0  0  0
  -23.6980  -29.8840   20.1970 C   0  0  0  0  0  2  0  0  0  0  0  0
  -24.7470  -31.0910   22.1470 N   0  0  0  0  0  0  0  0  0  0  0  0
  -23.5890  -32.1690   23.7820 O   0  0  0  0  0  0  0  0  0  0  0  0
  -22.7930  -29.5030   22.5260 C   0  0  0  0  0  0  0  0  0  0  0  0
  -21.4670  -29.3340   22.3880 N   0  0  0  0  0  0  0  0  0  0  0  0
  -23.4610  -28.8610   23.3420 O   0  0  0  0  0  0  0  0  0  0  0  0
  -20.9850  -29.9050   21.7080 H   0  0  0  0  0  0  0  0  0  0  0  0
  -18.0740  -28.1580   22.8800 C   0  0  0  0  0  0  0  0  0  0  0  0
  -20.6380  -28.3870   23.1400 C   0  0  0  0  0  3  0  0  0  0  0  0
  -20.7210  -26.9680   22.5320 C   0  0  0  0  0  2  0  0  0  0  0  0
  -19.6100  -26.6800   21.5160 C   0  0  0  0  0  2  0  0  0  0  0  0
  -18.2330  -26.8230   22.1690 C   0  0  0  0  0  2  0  0  0  0  0  0
  -19.2030  -28.8990   23.3210 C   0  0  0  0  0  0  0  0  0  0  0  0
  -18.9990  -30.1470   23.9470 C   0  0  0  0  0  3  0  0  0  0  0  0
  -17.6990  -30.6550   24.1340 C   0  0  0  0  0  3  0  0  0  0  0  0
  -16.5850  -29.9120   23.7080 C   0  0  0  0  0  3  0  0  0  0  0  0
  -16.7740  -28.6650   23.0860 C   0  0  0  0  0  3  0  0  0  0  0  0
  -25.9550  -32.5100   23.8920 C   0  0  0  0  0  3  0  0  0  0  0  0
  -25.6520  -33.9100   24.2290 N   0  0  0  0  0  0  0  0  0  0  0  0
  -25.9620  -34.9640   23.4630 C   0  0  0  0  0  0  0  0  0  0  0  0
  -26.6000  -34.8610   22.4120 O   0  0  0  0  0  0  0  0  0  0  0  0
  -25.0810  -34.0640   25.0480 H   0  0  0  0  0  0  0  0  0  0  0  0
  -24.2080  -36.7480   23.1850 C   0  0  0  0  0  1  0  0  0  0  0  0
  -25.4910  -36.3530   23.9360 C   0  0  0  0  0  3  0  0  0  0  0  0
  -27.6570  -37.2580   24.6570 C   0  0  0  0  0  1  0  0  0  0  0  0
  -26.5110  -37.4110   23.7650 N   0  0  0  0  0  0  0  0  0  0  0  0
  -26.1070  -38.3300   23.9250 H   0  0  0  0  0  0  0  0  0  0  0  0
  -26.4450  -31.7290   25.1720 C   0  0  1  0  0  0  0  0  0  0  0  0
  -25.3320  -31.4970   26.2230 C   0  0  0  0  0  1  0  0  0  0  0  0
  -27.0240  -30.3470   24.7880 C   0  0  0  0  0  1  0  0  0  0  0  0
  -27.5930  -32.5120   25.8540 C   0  0  0  0  0  1  0  0  0  0  0  0
  2  1  1  0
  3  4  1  0
  4  1  2  0
  5  2  2  0
  6  3  2  0
  6  5  1  0
  7 19  1  0
  8 13  1  0
  9 10  1  0
  9  8  1  0
 11 10  1  0
 11 23  1  0
 11 12  1  0
 13  7  1  0
 13 12  1  0
 14  7  2  0
 16 15  1  0
 17 18  1  0
 17 19  1  0
 18  4  1  0
 18 15  1  0
 19 16  1  0
 20 21  2  0
 21 40  1  0
 22 21  1  0
 22 25  1  0
 23 24  1  0
 23 20  1  0
 24 22  2  0
 25 26  1  0
 26 27  2  0
 28 31  1  0
 28 27  1  0
 29 28  2  0
 30 29  1  0
 30 25  2  0
 31 32  1  0
 32 33  1  0
 33 34  2  0
 35 34  1  0
 35 39  1  0
 36 35  2  0
 37 32  2  0
 37 36  1  0
 38 37  1  0
 40 41  1  0
 41 44  1  0
 41 43  1  0
 42 40  2  0
 45 20  1  0
 45 46  1  0
 47 45  1  0
 48  5  1  0
 48 49  1  0
 50 61  2  0
 51 49  1  0
 51 56  1  0
 52 60  1  0
 52 62  1  0
 53 59  1  0
 53 55  1  0
 54 60  1  0
 55 54  1  0
 56 55  2  0
 57 58  1  0
 57 51  2  0
 58 53  2  0
 59 52  1  0
 60 50  1  0
 62 64  2  0
 63 62  1  0
 65 63  1  0
 66 75  2  0
 66 71  1  0
 67 63  1  0
 67 71  1  0
 68 67  1  0
 69 70  1  0
 69 68  1  0
 70 66  1  0
 71 72  2  0
 72 73  1  0
 74 73  2  0
 75 74  1  0
 76 50  1  0
 76 77  1  0
 76 86  1  0
 77 80  1  0
 78 82  1  0
 78 77  1  0
 79 78  2  0
 82 81  1  0
 84 85  1  0
 84 82  1  0
 84 83  1  0
 86 89  1  1
 86 87  1  0
 88 86  1  0
M  ISO  4   7 100  19 100  48 101  49 101
M  END
>  <TORSDO>  (11) 
F 17

>  <SCORE>  (11) 
-14.026

>  <name>  (11) 
10

>  <ligand_id>  (11) 
10

>  <original_smiles>  (11) 
[H]c1nc(C([H])([H])Oc2c([H])c([H])c3c(c2[H])C([H])([H])N(C(=O)C([H])(N([H])C(=O)C([H])(N([H])C([H])([H])[H])C([H])([H])[H])C(C([H])([H])[H])(C([H])([H])[H])C([H])([H])[H])C([H])(C(=O)N([H])C2([H])c4c([H])c([H])c([H])c([H])c4C([H])([H])C([H])([H])C2([H])[H])C3([H])[H])c([H])c([H])c1C1([H])C([H])([H])N(C(=O)N2C([H])([H])C([H])([H])C([H])([H])C([H])(n3nc(-c4c([H])c([H])c(Oc5c([H])c([H])c(F)c([H])c5F)c([H])c4[H])c(C(=O)N([H])[H])c3N([H])[H])C2([H])[H])C([H])([H])C1([H])[H]

>  <smiles>  (11) 
[H]c1nc(C([H])([H])Oc2c([H])c([H])c3c(c2[H])C([H])([H])N(C(=O)C([H])(N([H])C(=O)C([H])(N([H])C([H])([H])[H])C([H])([H])[H])C(C([H])([H])[H])(C([H])([H])[H])C([H])([H])[H])C([H])(C(=O)N([H])C2([H])c4c([H])c([H])c([H])c([H])c4C([H])([H])C([H])([H])C2([H])[H])C3([H])[H])c([H])c([H])c1C1([H])C([H])([H])N(C(=O)N2C([H])([H])C([H])([H])C([H])([H])C([H])(n3nc(-c4c([H])c([H])c(Oc5c([H])c([H])c(F)c([H])c5F)c([H])c4[H])c(C(=O)N([H])[H])c3N([H])[H])C2([H])[H])C([H])([H])C1([H])[H]

$$$$
11:0:0
     RDKit          3D

 93102  0  0  1  0  0  0  0  0999 V2000
  -28.7500  -20.1930   22.0170 C   0  0  0  0  0  3  0  0  0  0  0  0
  -28.7710  -21.5920   22.1670 C   0  0  0  0  0  3  0  0  0  0  0  0
  -29.5340  -20.5170   19.7700 C   0  0  0  0  0  3  0  0  0  0  0  0
  -29.1410  -19.6080   20.7880 C   0  0  0  0  0  0  0  0  0  0  0  0
  -29.1640  -22.3890   21.0830 C   0  0  0  0  0  0  0  0  0  0  0  0
  -29.5400  -21.8620   19.9050 N   0  0  0  0  0  0  0  0  0  0  0  0
  -29.1930  -23.7790   21.2270 N   0  0  0  0  0  0  0  0  0  0  0  0
  -28.8600  -24.1600   22.1060 H   0  0  0  0  0  0  0  0  0  0  0  0
  -31.1350  -14.6240   19.7240 C   0  0  0  0  0  0  0  0  0  0  0  0
  -30.7080  -12.4550   18.6480 C   0  0  0  0  0  2  0  0  0  0  0  0
  -29.6800  -12.6610   17.5170 C   0  0  0  0  0  2  0  0  0  0  0  0
  -28.2440  -12.5500   18.0640 C   0  0  0  0  0  2  0  0  0  0  0  0
  -28.0150  -13.4150   19.3330 C   0  0  0  0  0  3  0  0  0  0  0  0
  -29.1510  -13.2040   20.3600 C   0  0  0  0  0  2  0  0  0  0  0  0
  -30.4300  -13.4630   19.6790 N   0  0  0  0  0  0  0  0  0  0  0  0
  -32.2400  -14.7590   19.1880 O   0  0  0  0  0  0  0  0  0  0  0  0
  -29.3320  -17.2550   21.6960 C   0  0  0  0  0  2  0  0  0  0  0  0
  -29.0590  -17.6130   19.2580 C   0  0  0  0  0  2  0  0  0  0  0  0
  -30.4990  -16.2840   21.3930 C   0  0  0  0  0  2  0  0  0  0  0  0
  -30.3140  -16.7710   19.0170 C   0  0  0  0  0  2  0  0  0  0  0  0
  -29.1260  -18.2020   20.5940 N   0  0  0  0  0  0  0  0  0  0  0  0
  -30.4090  -15.7160   20.0390 N   0  0  0  0  0  0  0  0  0  0  0  0
  -25.7100  -14.0690   20.2760 C   0  0  0  0  0  0  0  0  0  0  0  0
  -24.6510  -13.3150   20.7050 C   0  0  0  0  0  0  0  0  0  0  0  0
  -25.0610  -11.9530   20.5810 C   0  0  0  0  0  0  0  0  0  0  0  0
  -26.7000  -13.1660   19.9200 N   0  0  0  0  0  0  0  0  0  0  0  0
  -26.3170  -11.8860   20.1590 N   0  0  0  0  0  0  0  0  0  0  0  0
  -24.3110  -10.7070   20.7850 C   0  0  0  0  0  0  0  0  0  0  0  0
  -24.7020   -9.7610   21.7580 C   0  0  0  0  0  3  0  0  0  0  0  0
  -23.9550   -8.5790   21.9480 C   0  0  0  0  0  3  0  0  0  0  0  0
  -22.8020   -8.3350   21.1660 C   0  0  0  0  0  0  0  0  0  0  0  0
  -22.4290   -9.2700   20.1840 C   0  0  0  0  0  3  0  0  0  0  0  0
  -23.1780  -10.4430   19.9910 C   0  0  0  0  0  3  0  0  0  0  0  0
  -22.0270   -7.2040   21.2650 O   0  0  0  0  0  0  0  0  0  0  0  0
  -21.8000   -6.5900   22.4700 C   0  0  0  0  0  0  0  0  0  0  0  0
  -21.2000   -7.2690   23.5510 C   0  0  0  0  0  3  0  0  0  0  0  0
  -20.9220   -6.5810   24.7480 C   0  0  0  0  0  3  0  0  0  0  0  0
  -21.2330   -5.2130   24.8630 C   0  0  0  0  0  0  0  0  0  0  0  0
  -21.8270   -4.5330   23.7850 C   0  0  0  0  0  3  0  0  0  0  0  0
  -22.1070   -5.2190   22.5910 C   0  0  0  0  0  0  0  0  0  0  0  0
  -22.6590   -4.5540   21.5480 F   0  0  0  0  0  0  0  0  0  0  0  0
  -20.9610   -4.5480   26.0100 F   0  0  0  0  0  0  0  0  0  0  0  0
  -23.3000  -13.8230   21.1220 C   0  0  0  0  0  0  0  0  0  0  0  0
  -22.6400  -13.1280   22.0390 N   0  0  0  0  0  0  0  0  0  0  0  0
  -22.8440  -14.8720   20.6670 O   0  0  0  0  0  0  0  0  0  0  0  0
  -23.0230  -12.2780   22.4270 H   0  0  0  0  0  0  0  0  0  0  0  0
  -21.7390  -13.4510   22.3620 H   0  0  0  0  0  0  0  0  0  0  0  0
  -25.9060  -15.4400   20.1420 N   0  0  0  0  0  0  0  0  0  0  0  0
  -25.1840  -16.1150   20.3640 H   0  0  0  0  0  0  0  0  0  0  0  0
  -26.7630  -15.8660   19.8160 H   0  0  0  0  0  0  0  0  0  0  0  0
  -29.0640  -24.6360   20.0500 C   0  0  0  0  0  2  0  0  0  0  0  0
  -29.1360  -26.1290   20.4180 C   0  0  0  0  0  2  0  0  0  0  0  0
  -28.8030  -26.9360   19.2900 O   0  0  0  0  0  0  0  0  0  0  0  0
  -24.6120  -31.4120   22.8880 C   0  0  0  0  0  0  0  0  0  0  0  0
  -27.5800  -27.5450   19.3890 C   0  0  0  0  0  0  0  0  0  0  0  0
  -23.4980  -30.0460   21.1480 C   0  0  0  0  0  3  0  0  0  0  0  0
  -25.0540  -28.7800   19.5710 C   0  0  0  0  0  0  0  0  0  0  0  0
  -25.9680  -30.6670   20.9380 C   0  0  0  0  0  2  0  0  0  0  0  0
  -26.1670  -29.3690   20.1860 C   0  0  0  0  0  0  0  0  0  0  0  0
  -27.4340  -28.7550   20.0980 C   0  0  0  0  0  3  0  0  0  0  0  0
  -26.4570  -26.9600   18.7700 C   0  0  0  0  0  3  0  0  0  0  0  0
  -25.1910  -27.5720   18.8640 C   0  0  0  0  0  3  0  0  0  0  0  0
  -23.7350  -29.5060   19.7120 C   0  0  0  0  0  2  0  0  0  0  0  0
  -24.7100  -30.7190   21.7180 N   0  0  0  0  0  0  0  0  0  0  0  0
  -23.5250  -31.5330   23.4690 O   0  0  0  0  0  0  0  0  0  0  0  0
  -22.9710  -28.8910   22.0290 C   0  0  0  0  0  0  0  0  0  0  0  0
  -21.6670  -28.5950   21.9070 N   0  0  0  0  0  0  0  0  0  0  0  0
  -23.7290  -28.2650   22.7740 O   0  0  0  0  0  0  0  0  0  0  0  0
  -21.1090  -29.1610   21.2820 H   0  0  0  0  0  0  0  0  0  0  0  0
  -18.4280  -27.0590   22.3550 C   0  0  0  0  0  0  0  0  0  0  0  0
  -20.9590  -27.5220   22.6050 C   0  0  0  0  0  3  0  0  0  0  0  0
  -21.1740  -26.1640   21.8990 C   0  0  0  0  0  2  0  0  0  0  0  0
  -20.0800  -25.8320   20.8800 C   0  0  0  0  0  2  0  0  0  0  0  0
  -18.7080  -25.7950   21.5590 C   0  0  0  0  0  2  0  0  0  0  0  0
  -19.4850  -27.8780   22.8320 C   0  0  0  0  0  0  0  0  0  0  0  0
  -19.1720  -29.0610   23.5350 C   0  0  0  0  0  3  0  0  0  0  0  0
  -17.8320  -29.4270   23.7670 C   0  0  0  0  0  3  0  0  0  0  0  0
  -16.7900  -28.6030   23.3070 C   0  0  0  0  0  3  0  0  0  0  0  0
  -17.0890  -27.4210   22.6080 C   0  0  0  0  0  3  0  0  0  0  0  0
  -25.8520  -32.1040   23.5370 C   0  0  0  0  0  3  0  0  0  0  0  0
  -25.4290  -33.4360   23.9860 N   0  0  0  0  0  0  0  0  0  0  0  0
  -25.6680  -34.5730   23.3190 C   0  0  0  0  0  0  0  0  0  0  0  0
  -26.3390  -34.6160   22.2840 O   0  0  0  0  0  0  0  0  0  0  0  0
  -24.8290  -33.4720   24.7970 H   0  0  0  0  0  0  0  0  0  0  0  0
  -23.7950  -36.2370   23.1100 C   0  0  0  0  0  1  0  0  0  0  0  0
  -25.0670  -35.8710   23.8910 C   0  0  0  0  0  3  0  0  0  0  0  0
  -27.1200  -36.8560   24.8090 C   0  0  0  0  0  1  0  0  0  0  0  0
  -26.0070  -37.0130   23.8760 N   0  0  0  0  0  0  0  0  0  0  0  0
  -25.5250  -37.8790   24.1010 H   0  0  0  0  0  0  0  0  0  0  0  0
  -26.4680  -31.2800   24.7330 C   0  0  1  0  0  0  0  0  0  0  0  0
  -25.4300  -30.8590   25.7980 C   0  0  0  0  0  1  0  0  0  0  0  0
  -27.1590  -29.9980   24.2110 C   0  0  0  0  0  1  0  0  0  0  0  0
  -27.5640  -32.1160   25.4370 C   0  0  0  0  0  1  0  0  0  0  0  0
  1  2  1  0
  3  6  2  0
  3  4  1  0
  4  1  2  0
  5  7  1  0
  5  2  2  0
  6  5  1  0
  7  8  1  0
  9 22  1  0
 10 15  1  0
 11 12  1  0
 11 10  1  0
 13 12  1  0
 13 26  1  0
 13 14  1  0
 15  9  1  0
 15 14  1  0
 16  9  2  0
 18 21  1  0
 19 17  1  0
 20 18  1  0
 20 22  1  0
 21  4  1  0
 21 17  1  0
 22 19  1  0
 23 24  2  0
 24 43  1  0
 25 24  1  0
 25 28  1  0
 26 27  1  0
 26 23  1  0
 27 25  2  0
 28 29  1  0
 29 30  2  0
 31 34  1  0
 31 30  1  0
 32 31  2  0
 33 32  1  0
 33 28  2  0
 34 35  1  0
 35 40  2  0
 35 36  1  0
 36 37  2  0
 37 38  1  0
 38 42  1  0
 39 38  2  0
 40 39  1  0
 41 40  1  0
 43 44  1  0
 44 47  1  0
 44 46  1  0
 45 43  2  0
 48 23  1  0
 48 49  1  0
 50 48  1  0
 51 52  1  0
 51  7  1  0
 53 55  1  0
 53 52  1  0
 54 65  2  0
 55 60  1  0
 56 64  1  0
 56 66  1  0
 57 63  1  0
 57 59  1  0
 58 64  1  0
 59 58  1  0
 60 59  2  0
 61 62  1  0
 61 55  2  0
 62 57  2  0
 63 56  1  0
 64 54  1  0
 66 68  2  0
 67 66  1  0
 69 67  1  0
 70 79  2  0
 70 75  1  0
 71 67  1  0
 71 75  1  0
 72 71  1  0
 73 74  1  0
 73 72  1  0
 74 70  1  0
 75 76  2  0
 76 77  1  0
 78 77  2  0
 79 78  1  0
 80 54  1  0
 80 81  1  0
 80 90  1  0
 81 84  1  0
 82 86  1  0
 82 81  1  0
 83 82  2  0
 86 85  1  0
 88 86  1  0
 88 89  1  0
 88 87  1  0
 90 93  1  1
 90 91  1  0
 92 90  1  0
M  ISO  4   9 100  22 100  52 101  53 101
M  END
>  <TORSDO>  (12) 
F 18

>  <SCORE>  (12) 
-10.508

>  <name>  (12) 
11

>  <ligand_id>  (12) 
11

>  <original_smiles>  (12) 
[H]c1nc(N([H])C([H])([H])C([H])([H])Oc2c([H])c([H])c3c(c2[H])C([H])([H])N(C(=O)C([H])(N([H])C(=O)C([H])(N([H])C([H])([H])[H])C([H])([H])[H])C(C([H])([H])[H])(C([H])([H])[H])C([H])([H])[H])C([H])(C(=O)N([H])C2([H])c4c([H])c([H])c([H])c([H])c4C([H])([H])C([H])([H])C2([H])[H])C3([H])[H])c([H])c([H])c1N1C([H])([H])C([H])([H])N(C(=O)N2C([H])([H])C([H])([H])C([H])([H])C([H])(n3nc(-c4c([H])c([H])c(Oc5c([H])c([H])c(F)c([H])c5F)c([H])c4[H])c(C(=O)N([H])[H])c3N([H])[H])C2([H])[H])C([H])([H])C1([H])[H]

>  <smiles>  (12) 
[H]c1nc(N([H])C([H])([H])C([H])([H])Oc2c([H])c([H])c3c(c2[H])C([H])([H])N(C(=O)C([H])(N([H])C(=O)C([H])(N([H])C([H])([H])[H])C([H])([H])[H])C(C([H])([H])[H])(C([H])([H])[H])C([H])([H])[H])C([H])(C(=O)N([H])C2([H])c4c([H])c([H])c([H])c([H])c4C([H])([H])C([H])([H])C2([H])[H])C3([H])[H])c([H])c([H])c1N1C([H])([H])C([H])([H])N(C(=O)N2C([H])([H])C([H])([H])C([H])([H])C([H])(n3nc(-c4c([H])c([H])c(Oc5c([H])c([H])c(F)c([H])c5F)c([H])c4[H])c(C(=O)N([H])[H])c3N([H])[H])C2([H])[H])C([H])([H])C1([H])[H]

$$$$
12:0:0
     RDKit          3D

 94104  0  0  1  0  0  0  0  0999 V2000
  -32.0430  -22.0840   20.0630 C   0  0  0  0  0  3  0  0  0  0  0  0
  -30.4720  -20.1670   20.1510 C   0  0  0  0  0  0  0  0  0  0  0  0
  -29.6700  -22.6340   20.2210 C   0  0  0  0  0  0  0  0  0  0  0  0
  -31.7850  -20.7080   19.9630 C   0  0  0  0  0  0  0  0  0  0  0  0
  -31.0250  -23.0360   20.1760 C   0  0  0  0  0  0  0  0  0  0  0  0
  -29.4180  -21.1860   20.2510 C   0  0  0  0  0  0  0  0  0  0  0  0
  -32.9990  -19.8870   19.5370 C   0  0  0  0  0  1  0  0  0  0  0  0
  -31.4470  -24.5000   20.1380 C   0  0  0  0  0  1  0  0  0  0  0  0
  -27.9740  -20.7260   20.3030 C   0  0  0  0  0  1  0  0  0  0  0  0
  -31.4220  -17.7970   20.7560 C   0  0  0  0  0  2  0  0  0  0  0  0
  -30.3170  -18.5640   20.0300 C   0  0  0  0  0  3  0  0  0  0  0  0
  -30.0570  -17.3120   21.0250 C   0  0  0  0  0  3  0  0  0  0  0  0
  -30.5640  -14.7440   20.5100 C   0  0  0  0  0  0  0  0  0  0  0  0
  -30.3830  -12.4700   19.4870 C   0  0  0  0  0  2  0  0  0  0  0  0
  -29.4680  -12.5360   18.2440 C   0  0  0  0  0  2  0  0  0  0  0  0
  -27.9880  -12.3720   18.6440 C   0  0  0  0  0  2  0  0  0  0  0  0
  -27.5910  -13.2720   19.8460 C   0  0  0  0  0  3  0  0  0  0  0  0
  -28.6240  -13.1820   20.9890 C   0  0  0  0  0  2  0  0  0  0  0  0
  -29.9310  -13.5270   20.4180 N   0  0  0  0  0  0  0  0  0  0  0  0
  -31.7690  -14.8230   20.2550 O   0  0  0  0  0  0  0  0  0  0  0  0
  -29.7700  -15.8650   20.7030 N   0  0  0  0  0  0  0  0  0  0  0  0
  -28.7920  -15.6310   20.7780 H   0  0  0  0  0  0  0  0  0  0  0  0
  -25.1890  -13.8790   20.5080 C   0  0  0  0  0  0  0  0  0  0  0  0
  -24.1120  -13.1110   20.8630 C   0  0  0  0  0  0  0  0  0  0  0  0
  -24.5750  -11.7590   20.8630 C   0  0  0  0  0  0  0  0  0  0  0  0
  -26.2350  -12.9940   20.3090 N   0  0  0  0  0  0  0  0  0  0  0  0
  -25.8730  -11.7160   20.5860 N   0  0  0  0  0  0  0  0  0  0  0  0
  -23.8420  -10.5000   21.0520 C   0  0  0  0  0  0  0  0  0  0  0  0
  -24.2650   -9.5330   21.9890 C   0  0  0  0  0  3  0  0  0  0  0  0
  -23.5330   -8.3390   22.1660 C   0  0  0  0  0  3  0  0  0  0  0  0
  -22.3630   -8.1050   21.4040 C   0  0  0  0  0  0  0  0  0  0  0  0
  -21.9590   -9.0610   20.4550 C   0  0  0  0  0  3  0  0  0  0  0  0
  -22.6930  -10.2460   20.2770 C   0  0  0  0  0  3  0  0  0  0  0  0
  -21.6030   -6.9640   21.4890 O   0  0  0  0  0  0  0  0  0  0  0  0
  -21.5590   -6.2120   22.6360 C   0  0  0  0  0  0  0  0  0  0  0  0
  -21.1620   -6.7630   23.8740 C   0  0  0  0  0  3  0  0  0  0  0  0
  -21.0650   -5.9380   25.0130 C   0  0  0  0  0  3  0  0  0  0  0  0
  -21.3540   -4.5650   24.9150 C   0  0  0  0  0  0  0  0  0  0  0  0
  -21.7450   -4.0130   23.6820 C   0  0  0  0  0  3  0  0  0  0  0  0
  -21.8440   -4.8350   22.5450 C   0  0  0  0  0  0  0  0  0  0  0  0
  -22.2000   -4.2940   21.3550 F   0  0  0  0  0  0  0  0  0  0  0  0
  -21.2540   -3.7710   26.0060 F   0  0  0  0  0  0  0  0  0  0  0  0
  -22.7100  -13.5930   21.0910 C   0  0  0  0  0  0  0  0  0  0  0  0
  -21.9590  -12.9110   21.9490 N   0  0  0  0  0  0  0  0  0  0  0  0
  -22.2870  -14.6110   20.5440 O   0  0  0  0  0  0  0  0  0  0  0  0
  -22.3140  -12.0890   22.4140 H   0  0  0  0  0  0  0  0  0  0  0  0
  -21.0160  -13.2170   22.1450 H   0  0  0  0  0  0  0  0  0  0  0  0
  -25.3570  -15.2470   20.3140 N   0  0  0  0  0  0  0  0  0  0  0  0
  -24.5830  -15.8970   20.3880 H   0  0  0  0  0  0  0  0  0  0  0  0
  -26.2010  -15.6800   19.9600 H   0  0  0  0  0  0  0  0  0  0  0  0
  -27.4130  -24.1010   20.8890 C   0  0  0  0  0  2  0  0  0  0  0  0
  -28.6210  -23.8110   20.0270 C   0  0  0  0  0  3  0  0  0  0  0  0
  -28.5000  -25.1650   20.8550 C   0  0  0  0  0  3  0  0  0  0  0  0
  -28.3740  -26.4810   20.1520 O   0  0  0  0  0  0  0  0  0  0  0  0
  -24.6000  -31.8850   23.2440 C   0  0  0  0  0  0  0  0  0  0  0  0
  -27.2360  -27.3000   20.2340 C   0  0  0  0  0  0  0  0  0  0  0  0
  -23.4060  -30.4730   21.6060 C   0  0  0  0  0  3  0  0  0  0  0  0
  -24.8680  -28.9130   20.2000 C   0  0  0  0  0  0  0  0  0  0  0  0
  -25.9460  -30.7960   21.4300 C   0  0  0  0  0  2  0  0  0  0  0  0
  -26.0330  -29.4070   20.8010 C   0  0  0  0  0  0  0  0  0  0  0  0
  -27.2210  -28.6130   20.8050 C   0  0  0  0  0  3  0  0  0  0  0  0
  -26.0540  -26.8670   19.6000 C   0  0  0  0  0  3  0  0  0  0  0  0
  -24.8810  -27.6480   19.5910 C   0  0  0  0  0  3  0  0  0  0  0  0
  -23.6290  -29.7870   20.2330 C   0  0  0  0  0  2  0  0  0  0  0  0
  -24.6700  -31.0700   22.1500 N   0  0  0  0  0  0  0  0  0  0  0  0
  -23.5140  -32.1610   23.7750 O   0  0  0  0  0  0  0  0  0  0  0  0
  -22.7450  -29.4600   22.5710 C   0  0  0  0  0  0  0  0  0  0  0  0
  -21.4200  -29.2800   22.4440 N   0  0  0  0  0  0  0  0  0  0  0  0
  -23.4240  -28.8380   23.3920 O   0  0  0  0  0  0  0  0  0  0  0  0
  -20.9300  -29.8320   21.7530 H   0  0  0  0  0  0  0  0  0  0  0  0
  -18.0450  -28.0740   22.9440 C   0  0  0  0  0  0  0  0  0  0  0  0
  -20.6020  -28.3430   23.2170 C   0  0  0  0  0  3  0  0  0  0  0  0
  -20.7100  -26.9090   22.6460 C   0  0  0  0  0  2  0  0  0  0  0  0
  -19.6100  -26.5790   21.6320 C   0  0  0  0  0  2  0  0  0  0  0  0
  -18.2270  -26.7220   22.2740 C   0  0  0  0  0  2  0  0  0  0  0  0
  -19.1610  -28.8410   23.3730 C   0  0  0  0  0  0  0  0  0  0  0  0
  -18.9360  -30.1050   23.9600 C   0  0  0  0  0  3  0  0  0  0  0  0
  -17.6300  -30.6030   24.1220 C   0  0  0  0  0  3  0  0  0  0  0  0
  -16.5290  -29.8330   23.7090 C   0  0  0  0  0  3  0  0  0  0  0  0
  -16.7370  -28.5690   23.1260 C   0  0  0  0  0  3  0  0  0  0  0  0
  -25.8780  -32.5260   23.8670 C   0  0  0  0  0  3  0  0  0  0  0  0
  -25.5580  -33.9220   24.1990 N   0  0  0  0  0  0  0  0  0  0  0  0
  -25.8760  -34.9790   23.4390 C   0  0  0  0  0  0  0  0  0  0  0  0
  -26.5400  -34.8820   22.4030 O   0  0  0  0  0  0  0  0  0  0  0  0
  -24.9690  -34.0710   25.0050 H   0  0  0  0  0  0  0  0  0  0  0  0
  -24.1260  -36.7540   23.1060 C   0  0  0  0  0  1  0  0  0  0  0  0
  -25.3810  -36.3630   23.9010 C   0  0  0  0  0  3  0  0  0  0  0  0
  -27.5190  -37.2680   24.7000 C   0  0  0  0  0  1  0  0  0  0  0  0
  -26.4020  -37.4270   23.7730 N   0  0  0  0  0  0  0  0  0  0  0  0
  -25.9890  -38.3430   23.9290 H   0  0  0  0  0  0  0  0  0  0  0  0
  -26.3990  -31.7580   25.1430 C   0  0  1  0  0  0  0  0  0  0  0  0
  -25.3080  -31.5150   26.2120 C   0  0  0  0  0  1  0  0  0  0  0  0
  -26.9890  -30.3830   24.7530 C   0  0  0  0  0  1  0  0  0  0  0  0
  -27.5460  -32.5580   25.8040 C   0  0  0  0  0  1  0  0  0  0  0  0
  1  5  1  0
  2  6  2  0
  3  6  1  0
  4  1  2  0
  4  2  1  0
  5  3  2  0
  6  9  1  0
  7  4  1  0
  8  5  1  0
 10 12  1  0
 11  2  1  0
 11 10  1  0
 11 12  1  0
 12 21  1  0
 13 21  1  0
 14 19  1  0
 15 16  1  0
 15 14  1  0
 17 16  1  0
 17 26  1  0
 17 18  1  0
 19 13  1  0
 19 18  1  0
 20 13  2  0
 21 22  1  0
 23 24  2  0
 24 43  1  0
 25 24  1  0
 25 28  1  0
 26 23  1  0
 26 27  1  0
 27 25  2  0
 28 29  1  0
 29 30  2  0
 31 34  1  0
 31 30  1  0
 32 31  2  0
 33 32  1  0
 33 28  2  0
 34 35  1  0
 35 36  1  0
 36 37  2  0
 38 37  1  0
 38 42  1  0
 39 38  2  0
 40 35  2  0
 40 39  1  0
 41 40  1  0
 43 44  1  0
 44 47  1  0
 44 46  1  0
 45 43  2  0
 48 49  1  0
 48 23  1  0
 50 48  1  0
 52  3  1  0
 52 53  1  0
 52 51  1  0
 53 54  1  0
 53 51  1  0
 54 56  1  0
 55 66  2  0
 56 61  1  0
 57 65  1  0
 57 67  1  0
 58 64  1  0
 58 60  1  0
 59 65  1  0
 60 61  2  0
 60 59  1  0
 62 56  2  0
 63 62  1  0
 63 58  2  0
 64 57  1  0
 65 55  1  0
 67 69  2  0
 68 67  1  0
 70 68  1  0
 71 80  2  0
 71 76  1  0
 72 68  1  0
 72 76  1  0
 73 72  1  0
 74 75  1  0
 74 73  1  0
 75 71  1  0
 76 77  2  0
 77 78  1  0
 79 78  2  0
 80 79  1  0
 81 55  1  0
 81 82  1  0
 81 91  1  0
 82 85  1  0
 83 87  1  0
 83 82  1  0
 84 83  2  0
 87 86  1  0
 89 87  1  0
 89 90  1  0
 89 88  1  0
 91 94  1  1
 91 92  1  0
 93 91  1  0
M  ISO  4  13 100  21 100  53 101  54 101
M  END
>  <TORSDO>  (13) 
F 18

>  <SCORE>  (13) 
-14.817

>  <name>  (13) 
12

>  <ligand_id>  (13) 
12

>  <original_smiles>  (13) 
[H]c1c([H])c([H])c2c(c1[H])C([H])([H])C([H])([H])C([H])([H])C2([H])N([H])C(=O)C1([H])N(C(=O)C([H])(N([H])C(=O)C([H])(N([H])C([H])([H])[H])C([H])([H])[H])C(C([H])([H])[H])(C([H])([H])[H])C([H])([H])[H])C([H])([H])c2c([H])c(OC3([H])C([H])([H])C3([H])c3c(C([H])([H])[H])c([H])c(C([H])([H])[H])c(C4([H])C([H])([H])C4([H])N([H])C(=O)N4C([H])([H])C([H])([H])C([H])([H])C([H])(n5nc(-c6c([H])c([H])c(Oc7c([H])c([H])c(F)c([H])c7F)c([H])c6[H])c(C(=O)N([H])[H])c5N([H])[H])C4([H])[H])c3C([H])([H])[H])c([H])c([H])c2C1([H])[H]

>  <smiles>  (13) 
[H]c1c([H])c([H])c2c(c1[H])C([H])([H])C([H])([H])C([H])([H])C2([H])N([H])C(=O)C1([H])N(C(=O)C([H])(N([H])C(=O)C([H])(N([H])C([H])([H])[H])C([H])([H])[H])C(C([H])([H])[H])(C([H])([H])[H])C([H])([H])[H])C([H])([H])c2c([H])c(OC3([H])C([H])([H])C3([H])c3c(C([H])([H])[H])c([H])c(C([H])([H])[H])c(C4([H])C([H])([H])C4([H])N([H])C(=O)N4C([H])([H])C([H])([H])C([H])([H])C([H])(n5nc(-c6c([H])c([H])c(Oc7c([H])c([H])c(F)c([H])c7F)c([H])c6[H])c(C(=O)N([H])[H])c5N([H])[H])C4([H])[H])c3C([H])([H])[H])c([H])c([H])c2C1([H])[H]

$$$$
13:0:0
     RDKit          3D

 93102  0  0  1  0  0  0  0  0999 V2000
  -29.7160  -20.8100   20.1430 C   0  0  0  0  0  0  0  0  0  0  0  0
  -30.6920  -21.8560   20.3160 C   0  0  0  0  0  0  0  0  0  0  0  0
  -30.3360  -23.2570   20.2280 C   0  0  0  0  0  0  0  0  0  0  0  0
  -28.3890  -21.3140   20.0090 C   0  0  0  0  0  0  0  0  0  0  0  0
  -28.9830  -23.6450   20.0170 C   0  0  0  0  0  0  0  0  0  0  0  0
  -32.1460  -21.4730   20.5770 C   0  0  0  0  0  1  0  0  0  0  0  0
  -31.4050  -24.3390   20.3260 C   0  0  0  0  0  1  0  0  0  0  0  0
  -27.1820  -20.4010   19.9120 C   0  0  0  0  0  1  0  0  0  0  0  0
  -28.0650  -22.6410   19.9470 N   0  0  0  0  0  0  0  0  0  0  0  0
  -30.9520  -14.8350   20.0300 C   0  0  0  0  0  0  0  0  0  0  0  0
  -30.6280  -12.5730   19.0340 C   0  0  0  0  0  2  0  0  0  0  0  0
  -29.6380  -12.6470   17.8540 C   0  0  0  0  0  2  0  0  0  0  0  0
  -28.1950  -12.4750   18.3620 C   0  0  0  0  0  2  0  0  0  0  0  0
  -27.8810  -13.3770   19.5860 C   0  0  0  0  0  3  0  0  0  0  0  0
  -28.9930  -13.3220   20.6550 C   0  0  0  0  0  2  0  0  0  0  0  0
  -30.2580  -13.6470   19.9850 N   0  0  0  0  0  0  0  0  0  0  0  0
  -32.1300  -14.8570   19.6630 O   0  0  0  0  0  0  0  0  0  0  0  0
  -30.3370  -18.4600   21.3930 C   0  0  0  0  0  2  0  0  0  0  0  0
  -29.2310  -18.2550   19.2530 C   0  0  0  0  0  2  0  0  0  0  0  0
  -30.9490  -17.0080   21.2140 C   0  0  0  0  0  2  0  0  0  0  0  0
  -29.8460  -16.8090   19.0570 C   0  0  0  0  0  2  0  0  0  0  0  0
  -30.1150  -19.2430   20.0690 C   0  0  0  0  0  3  0  0  0  0  0  0
  -30.2960  -16.0470   20.2660 N   0  0  0  0  0  0  0  0  0  0  0  0
  -25.5500  -13.9750   20.4650 C   0  0  0  0  0  0  0  0  0  0  0  0
  -24.4930  -13.2040   20.8650 C   0  0  0  0  0  0  0  0  0  0  0  0
  -24.9320  -11.8480   20.7660 C   0  0  0  0  0  0  0  0  0  0  0  0
  -26.5640  -13.0890   20.1440 N   0  0  0  0  0  0  0  0  0  0  0  0
  -26.2040  -11.8030   20.3890 N   0  0  0  0  0  0  0  0  0  0  0  0
  -24.1970  -10.5900   20.9530 C   0  0  0  0  0  0  0  0  0  0  0  0
  -24.6110   -9.6270   21.8990 C   0  0  0  0  0  3  0  0  0  0  0  0
  -23.8770   -8.4340   22.0740 C   0  0  0  0  0  3  0  0  0  0  0  0
  -22.7130   -8.1960   21.3040 C   0  0  0  0  0  0  0  0  0  0  0  0
  -22.3190   -9.1500   20.3480 C   0  0  0  0  0  3  0  0  0  0  0  0
  -23.0540  -10.3340   20.1710 C   0  0  0  0  0  3  0  0  0  0  0  0
  -21.9520   -7.0560   21.3880 O   0  0  0  0  0  0  0  0  0  0  0  0
  -21.8160   -6.3680   22.5670 C   0  0  0  0  0  0  0  0  0  0  0  0
  -21.2160   -6.9500   23.7040 C   0  0  0  0  0  3  0  0  0  0  0  0
  -21.0330   -6.1830   24.8730 C   0  0  0  0  0  3  0  0  0  0  0  0
  -21.4370   -4.8360   24.9030 C   0  0  0  0  0  0  0  0  0  0  0  0
  -22.0290   -4.2530   23.7680 C   0  0  0  0  0  3  0  0  0  0  0  0
  -22.2150   -5.0160   22.6030 C   0  0  0  0  0  0  0  0  0  0  0  0
  -22.7660   -4.4430   21.5060 F   0  0  0  0  0  0  0  0  0  0  0  0
  -21.2550   -4.0970   26.0220 F   0  0  0  0  0  0  0  0  0  0  0  0
  -23.1190  -13.6910   21.2260 C   0  0  0  0  0  0  0  0  0  0  0  0
  -22.4330  -12.9820   22.1150 N   0  0  0  0  0  0  0  0  0  0  0  0
  -22.6680  -14.7360   20.7590 O   0  0  0  0  0  0  0  0  0  0  0  0
  -22.8120  -12.1360   22.5120 H   0  0  0  0  0  0  0  0  0  0  0  0
  -21.5150  -13.2920   22.4020 H   0  0  0  0  0  0  0  0  0  0  0  0
  -25.7300  -15.3490   20.3250 N   0  0  0  0  0  0  0  0  0  0  0  0
  -24.9910  -16.0180   20.5080 H   0  0  0  0  0  0  0  0  0  0  0  0
  -26.5840  -15.7830   19.9990 H   0  0  0  0  0  0  0  0  0  0  0  0
  -28.4090  -25.0760   19.5750 C   0  0  0  0  0  2  0  0  0  0  0  0
  -28.6400  -26.4380   20.1840 O   0  0  0  0  0  0  0  0  0  0  0  0
  -24.6010  -31.6700   23.2270 C   0  0  0  0  0  0  0  0  0  0  0  0
  -27.5580  -27.3580   20.0680 C   0  0  0  0  0  0  0  0  0  0  0  0
  -23.5620  -30.3410   21.4310 C   0  0  0  0  0  3  0  0  0  0  0  0
  -25.1580  -28.9510   20.0000 C   0  0  0  0  0  0  0  0  0  0  0  0
  -26.1010  -30.7400   21.4440 C   0  0  0  0  0  2  0  0  0  0  0  0
  -26.2740  -29.4080   20.7160 C   0  0  0  0  0  0  0  0  0  0  0  0
  -27.4750  -28.6220   20.7480 C   0  0  0  0  0  3  0  0  0  0  0  0
  -26.4250  -27.0090   19.2880 C   0  0  0  0  0  3  0  0  0  0  0  0
  -25.2410  -27.7600   19.2760 C   0  0  0  0  0  3  0  0  0  0  0  0
  -23.8900  -29.7790   20.0260 C   0  0  0  0  0  2  0  0  0  0  0  0
  -24.7690  -30.9310   22.0910 N   0  0  0  0  0  0  0  0  0  0  0  0
  -23.4730  -31.8770   23.7010 O   0  0  0  0  0  0  0  0  0  0  0  0
  -22.8780  -29.2380   22.2740 C   0  0  0  0  0  0  0  0  0  0  0  0
  -21.5540  -29.0800   22.1110 N   0  0  0  0  0  0  0  0  0  0  0  0
  -23.5400  -28.5320   23.0410 O   0  0  0  0  0  0  0  0  0  0  0  0
  -21.0780  -29.7050   21.4750 H   0  0  0  0  0  0  0  0  0  0  0  0
  -18.1460  -27.9290   22.5360 C   0  0  0  0  0  0  0  0  0  0  0  0
  -20.7170  -28.0780   22.7770 C   0  0  0  0  0  3  0  0  0  0  0  0
  -20.7630  -26.7260   22.0270 C   0  0  0  0  0  2  0  0  0  0  0  0
  -19.6310  -26.5630   21.0070 C   0  0  0  0  0  2  0  0  0  0  0  0
  -18.2670  -26.6690   21.6940 C   0  0  0  0  0  2  0  0  0  0  0  0
  -19.2970  -28.5980   23.0300 C   0  0  0  0  0  0  0  0  0  0  0  0
  -19.1300  -29.7840   23.7780 C   0  0  0  0  0  3  0  0  0  0  0  0
  -17.8450  -30.2990   24.0350 C   0  0  0  0  0  3  0  0  0  0  0  0
  -16.7090  -29.6230   23.5550 C   0  0  0  0  0  3  0  0  0  0  0  0
  -16.8610  -28.4400   22.8120 C   0  0  0  0  0  3  0  0  0  0  0  0
  -25.8120  -32.3100   23.9690 C   0  0  0  0  0  3  0  0  0  0  0  0
  -25.4720  -33.7120   24.2510 N   0  0  0  0  0  0  0  0  0  0  0  0
  -25.8250  -34.7510   23.4850 C   0  0  0  0  0  0  0  0  0  0  0  0
  -26.5400  -34.6330   22.4860 O   0  0  0  0  0  0  0  0  0  0  0  0
  -24.8450  -33.8780   25.0260 H   0  0  0  0  0  0  0  0  0  0  0  0
  -24.0700  -36.4990   23.0410 C   0  0  0  0  0  1  0  0  0  0  0  0
  -25.3020  -36.1440   23.8890 C   0  0  0  0  0  3  0  0  0  0  0  0
  -27.3880  -37.1080   24.7520 C   0  0  0  0  0  1  0  0  0  0  0  0
  -26.3170  -37.2120   23.7640 N   0  0  0  0  0  0  0  0  0  0  0  0
  -25.8880  -38.1290   23.8580 H   0  0  0  0  0  0  0  0  0  0  0  0
  -26.1930  -31.5530   25.3010 C   0  0  1  0  0  0  0  0  0  0  0  0
  -24.9920  -31.3150   26.2450 C   0  0  0  0  0  1  0  0  0  0  0  0
  -26.8260  -30.1780   24.9880 C   0  0  0  0  0  1  0  0  0  0  0  0
  -27.2600  -32.3630   26.0750 C   0  0  0  0  0  1  0  0  0  0  0  0
  1  2  1  0
  2  6  1  0
  3  2  2  0
  3  7  1  0
  4  1  2  0
  5  3  1  0
  8  4  1  0
  9  4  1  0
  9  5  2  0
 10 23  1  0
 11 16  1  0
 12 13  1  0
 12 11  1  0
 14 13  1  0
 14 27  1  0
 14 15  1  0
 16 10  1  0
 16 15  1  0
 17 10  2  0
 19 22  1  0
 20 18  1  0
 21 19  1  0
 21 23  1  0
 22  1  1  0
 22 18  1  0
 23 20  1  0
 24 25  2  0
 25 44  1  0
 26 25  1  0
 26 29  1  0
 27 28  1  0
 27 24  1  0
 28 26  2  0
 29 30  1  0
 30 31  2  0
 32 35  1  0
 32 31  1  0
 33 32  2  0
 34 33  1  0
 34 29  2  0
 35 36  1  0
 36 41  2  0
 36 37  1  0
 37 38  2  0
 38 39  1  0
 39 43  1  0
 40 39  2  0
 41 40  1  0
 42 41  1  0
 44 45  1  0
 45 48  1  0
 45 47  1  0
 46 44  2  0
 49 24  1  0
 49 50  1  0
 51 49  1  0
 52  5  1  0
 52 53  1  0
 54 65  2  0
 55 53  1  0
 55 60  1  0
 56 64  1  0
 56 66  1  0
 57 63  1  0
 57 59  1  0
 58 64  1  0
 59 60  2  0
 59 58  1  0
 61 55  2  0
 62 61  1  0
 62 57  2  0
 63 56  1  0
 64 54  1  0
 66 68  2  0
 67 66  1  0
 69 67  1  0
 70 79  2  0
 70 75  1  0
 71 67  1  0
 71 75  1  0
 72 71  1  0
 73 74  1  0
 73 72  1  0
 74 70  1  0
 75 76  2  0
 76 77  1  0
 78 77  2  0
 79 78  1  0
 80 54  1  0
 80 81  1  0
 80 90  1  0
 81 84  1  0
 82 86  1  0
 82 81  1  0
 83 82  2  0
 86 85  1  0
 88 89  1  0
 88 86  1  0
 88 87  1  0
 90 93  1  1
 90 91  1  0
 92 90  1  0
M  ISO  4  10 100  23 100  52 101  53 101
M  END
>  <TORSDO>  (14) 
F 17

>  <SCORE>  (14) 
-14.450

>  <name>  (14) 
13

>  <ligand_id>  (14) 
13

>  <original_smiles>  (14) 
[H]c1c([H])c([H])c2c(c1[H])C([H])([H])C([H])([H])C([H])([H])C2([H])N([H])C(=O)C1([H])N(C(=O)C([H])(N([H])C(=O)C([H])(N([H])C([H])([H])[H])C([H])([H])[H])C(C([H])([H])[H])(C([H])([H])[H])C([H])([H])[H])C([H])([H])c2c([H])c(OC([H])([H])c3nc(C([H])([H])[H])c(C4([H])C([H])([H])C([H])([H])N(C(=O)N5C([H])([H])C([H])([H])C([H])([H])C([H])(n6nc(-c7c([H])c([H])c(Oc8c([H])c([H])c(F)c([H])c8F)c([H])c7[H])c(C(=O)N([H])[H])c6N([H])[H])C5([H])[H])C([H])([H])C4([H])[H])c(C([H])([H])[H])c3C([H])([H])[H])c([H])c([H])c2C1([H])[H]

>  <smiles>  (14) 
[H]c1c([H])c([H])c2c(c1[H])C([H])([H])C([H])([H])C([H])([H])C2([H])N([H])C(=O)C1([H])N(C(=O)C([H])(N([H])C(=O)C([H])(N([H])C([H])([H])[H])C([H])([H])[H])C(C([H])([H])[H])(C([H])([H])[H])C([H])([H])[H])C([H])([H])c2c([H])c(OC([H])([H])c3nc(C([H])([H])[H])c(C4([H])C([H])([H])C([H])([H])N(C(=O)N5C([H])([H])C([H])([H])C([H])([H])C([H])(n6nc(-c7c([H])c([H])c(Oc8c([H])c([H])c(F)c([H])c8F)c([H])c7[H])c(C(=O)N([H])[H])c6N([H])[H])C5([H])[H])C([H])([H])C4([H])[H])c(C([H])([H])[H])c3C([H])([H])[H])c([H])c([H])c2C1([H])[H]

$$$$
14:0:0
     RDKit          3D

 97106  0  0  1  0  0  0  0  0999 V2000
  -28.3460  -22.3190   19.0320 C   0  0  0  0  0  2  0  0  0  0  0  0
  -29.7610  -21.8180   19.2610 C   0  0  0  0  0  3  0  0  0  0  0  0
  -28.9850  -22.4970   20.3810 C   0  0  0  0  0  3  0  0  0  0  0  0
  -30.1080  -19.4220   20.1250 C   0  0  0  0  0  3  0  0  0  0  0  0
  -30.1980  -18.4680   17.5020 C   0  0  0  0  0  3  0  0  0  0  0  0
  -29.9590  -20.3350   19.0500 C   0  0  0  0  0  0  0  0  0  0  0  0
  -30.3040  -18.0290   19.9160 C   0  0  0  0  0  0  0  0  0  0  0  0
  -30.0170  -19.8400   17.7280 C   0  0  0  0  0  0  0  0  0  0  0  0
  -30.3470  -17.5620   18.5690 C   0  0  0  0  0  0  0  0  0  0  0  0
  -29.9090  -20.7660   16.5260 C   0  0  0  0  0  1  0  0  0  0  0  0
  -30.5710  -16.1210   18.1800 C   0  0  0  0  0  1  0  0  0  0  0  0
  -30.5470  -17.1500   21.1700 C   0  0  0  0  0  2  0  0  0  0  0  0
  -30.8580  -14.6570   21.0730 C   0  0  0  0  0  0  0  0  0  0  0  0
  -30.6810  -12.4100   20.0800 C   0  0  0  0  0  2  0  0  0  0  0  0
  -29.8820  -12.5000   18.7630 C   0  0  0  0  0  2  0  0  0  0  0  0
  -28.3660  -12.4100   19.0330 C   0  0  0  0  0  2  0  0  0  0  0  0
  -27.8850  -13.3200   20.1970 C   0  0  0  0  0  3  0  0  0  0  0  0
  -28.8220  -13.2100   21.4200 C   0  0  0  0  0  2  0  0  0  0  0  0
  -30.1940  -13.4770   20.9630 N   0  0  0  0  0  0  0  0  0  0  0  0
  -32.0660  -14.7690   20.8510 O   0  0  0  0  0  0  0  0  0  0  0  0
  -30.0820  -15.7500   21.1860 N   0  0  0  0  0  0  0  0  0  0  0  0
  -29.0930  -15.5980   21.3030 H   0  0  0  0  0  0  0  0  0  0  0  0
  -25.4240  -13.9210   20.6510 C   0  0  0  0  0  0  0  0  0  0  0  0
  -24.3320  -13.1480   20.9370 C   0  0  0  0  0  0  0  0  0  0  0  0
  -24.8060  -11.8020   20.9980 C   0  0  0  0  0  0  0  0  0  0  0  0
  -26.4950  -13.0450   20.5530 N   0  0  0  0  0  0  0  0  0  0  0  0
  -26.1200  -11.7680   20.8220 N   0  0  0  0  0  0  0  0  0  0  0  0
  -24.0740  -10.5390   21.1570 C   0  0  0  0  0  0  0  0  0  0  0  0
  -24.4400   -9.5900   22.1360 C   0  0  0  0  0  3  0  0  0  0  0  0
  -23.7100   -8.3900   22.2780 C   0  0  0  0  0  3  0  0  0  0  0  0
  -22.6000   -8.1320   21.4390 C   0  0  0  0  0  0  0  0  0  0  0  0
  -22.2550   -9.0680   20.4480 C   0  0  0  0  0  3  0  0  0  0  0  0
  -22.9870  -10.2590   20.3060 C   0  0  0  0  0  3  0  0  0  0  0  0
  -21.8470   -6.9830   21.4880 O   0  0  0  0  0  0  0  0  0  0  0  0
  -21.7300   -6.2480   22.6410 C   0  0  0  0  0  0  0  0  0  0  0  0
  -21.2300   -6.8100   23.8360 C   0  0  0  0  0  3  0  0  0  0  0  0
  -21.0640   -6.0020   24.9780 C   0  0  0  0  0  3  0  0  0  0  0  0
  -21.3860   -4.6320   24.9260 C   0  0  0  0  0  0  0  0  0  0  0  0
  -21.8780   -4.0700   23.7350 C   0  0  0  0  0  3  0  0  0  0  0  0
  -22.0460   -4.8750   22.5950 C   0  0  0  0  0  0  0  0  0  0  0  0
  -22.5010   -4.3250   21.4430 F   0  0  0  0  0  0  0  0  0  0  0  0
  -21.2190   -3.8530   26.0200 F   0  0  0  0  0  0  0  0  0  0  0  0
  -22.9100  -13.6160   21.0520 C   0  0  0  0  0  0  0  0  0  0  0  0
  -22.1070  -12.9460   21.8720 N   0  0  0  0  0  0  0  0  0  0  0  0
  -22.5150  -14.6120   20.4480 O   0  0  0  0  0  0  0  0  0  0  0  0
  -22.4350  -12.1370   22.3800 H   0  0  0  0  0  0  0  0  0  0  0  0
  -21.1490  -13.2430   21.9930 H   0  0  0  0  0  0  0  0  0  0  0  0
  -25.5920  -15.2880   20.4430 N   0  0  0  0  0  0  0  0  0  0  0  0
  -24.8130  -15.9360   20.4540 H   0  0  0  0  0  0  0  0  0  0  0  0
  -26.4600  -15.7260   20.1640 H   0  0  0  0  0  0  0  0  0  0  0  0
  -29.3100  -23.9280   20.6030 N   0  0  0  0  0  4  0  0  0  0  0  0
  -29.4120  -24.3820   19.7100 H   0  0  0  0  0  0  0  0  0  0  0  0
  -30.2010  -23.9900   21.0730 H   0  0  0  0  0  0  0  0  0  0  0  0
  -28.2870  -24.6600   21.3900 C   0  0  0  0  0  2  0  0  0  0  0  0
  -29.8920  -26.6260   21.9330 C   0  0  0  0  0  1  0  0  0  0  0  0
  -28.5070  -26.1910   21.4390 C   0  0  0  0  0  3  0  0  0  0  0  0
  -28.2300  -26.7920   20.1630 O   0  0  0  0  0  0  0  0  0  0  0  0
  -24.5110  -31.9660   23.3150 C   0  0  0  0  0  0  0  0  0  0  0  0
  -27.0910  -27.5640   20.1570 C   0  0  0  0  0  0  0  0  0  0  0  0
  -23.2710  -30.5860   21.6750 C   0  0  0  0  0  3  0  0  0  0  0  0
  -24.6990  -29.0580   20.2110 C   0  0  0  0  0  0  0  0  0  0  0  0
  -25.7900  -30.9460   21.4390 C   0  0  0  0  0  2  0  0  0  0  0  0
  -25.8640  -29.5810   20.7870 C   0  0  0  0  0  0  0  0  0  0  0  0
  -27.0640  -28.8390   20.7620 C   0  0  0  0  0  3  0  0  0  0  0  0
  -25.9210  -27.0540   19.5640 C   0  0  0  0  0  3  0  0  0  0  0  0
  -24.7210  -27.7920   19.5960 C   0  0  0  0  0  3  0  0  0  0  0  0
  -23.4540  -29.9140   20.2870 C   0  0  0  0  0  2  0  0  0  0  0  0
  -24.5430  -31.1790   22.2010 N   0  0  0  0  0  0  0  0  0  0  0  0
  -23.4410  -32.2350   23.8770 O   0  0  0  0  0  0  0  0  0  0  0  0
  -22.6320  -29.5590   22.6370 C   0  0  0  0  0  0  0  0  0  0  0  0
  -21.3140  -29.3450   22.4950 N   0  0  0  0  0  0  0  0  0  0  0  0
  -23.3210  -28.9560   23.4650 O   0  0  0  0  0  0  0  0  0  0  0  0
  -20.8190  -29.8880   21.8010 H   0  0  0  0  0  0  0  0  0  0  0  0
  -17.9760  -28.0320   22.9140 C   0  0  0  0  0  0  0  0  0  0  0  0
  -20.5110  -28.3940   23.2630 C   0  0  0  0  0  3  0  0  0  0  0  0
  -20.6870  -26.9540   22.7270 C   0  0  0  0  0  2  0  0  0  0  0  0
  -19.6330  -26.5650   21.6850 C   0  0  0  0  0  2  0  0  0  0  0  0
  -18.2260  -26.6730   22.2800 C   0  0  0  0  0  2  0  0  0  0  0  0
  -19.0500  -28.8450   23.3610 C   0  0  0  0  0  0  0  0  0  0  0  0
  -18.7650  -30.1140   23.9110 C   0  0  0  0  0  3  0  0  0  0  0  0
  -17.4380  -30.5710   24.0200 C   0  0  0  0  0  3  0  0  0  0  0  0
  -16.3780  -29.7540   23.5900 C   0  0  0  0  0  3  0  0  0  0  0  0
  -16.6480  -28.4870   23.0430 C   0  0  0  0  0  3  0  0  0  0  0  0
  -25.8110  -32.5830   23.9200 C   0  0  0  0  0  3  0  0  0  0  0  0
  -25.5290  -33.9910   24.2320 N   0  0  0  0  0  0  0  0  0  0  0  0
  -25.8850  -35.0270   23.4600 C   0  0  0  0  0  0  0  0  0  0  0  0
  -26.5580  -34.8970   22.4340 O   0  0  0  0  0  0  0  0  0  0  0  0
  -24.9320  -34.1670   25.0270 H   0  0  0  0  0  0  0  0  0  0  0  0
  -24.1910  -36.8450   23.0730 C   0  0  0  0  0  1  0  0  0  0  0  0
  -25.4210  -36.4300   23.8960 C   0  0  0  0  0  3  0  0  0  0  0  0
  -27.5710  -37.2810   24.7210 C   0  0  0  0  0  1  0  0  0  0  0  0
  -26.4740  -37.4620   23.7750 N   0  0  0  0  0  0  0  0  0  0  0  0
  -26.0840  -38.3910   23.9160 H   0  0  0  0  0  0  0  0  0  0  0  0
  -26.3260  -31.8190   25.2010 C   0  0  1  0  0  0  0  0  0  0  0  0
  -25.2390  -31.6130   26.2800 C   0  0  0  0  0  1  0  0  0  0  0  0
  -26.8830  -30.4280   24.8190 C   0  0  0  0  0  1  0  0  0  0  0  0
  -27.4940  -32.6020   25.8470 C   0  0  0  0  0  1  0  0  0  0  0  0
  1  2  1  0
  1  3  1  0
  2  6  1  0
  2  3  1  0
  3 51  1  0
  5  8  2  0
  5  9  1  0
  6  4  2  0
  7  4  1  0
  7 12  1  0
  8  6  1  0
  9  7  2  0
 10  8  1  0
 11  9  1  0
 12 21  1  0
 13 21  1  0
 14 19  1  0
 15 16  1  0
 15 14  1  0
 17 16  1  0
 17 26  1  0
 17 18  1  0
 19 13  1  0
 19 18  1  0
 20 13  2  0
 21 22  1  0
 23 24  2  0
 24 25  1  0
 24 43  1  0
 25 28  1  0
 26 23  1  0
 26 27  1  0
 27 25  2  0
 28 29  1  0
 29 30  2  0
 31 34  1  0
 31 30  1  0
 32 31  2  0
 33 32  1  0
 33 28  2  0
 34 35  1  0
 35 36  1  0
 36 37  2  0
 38 37  1  0
 38 42  1  0
 39 38  2  0
 40 35  2  0
 40 39  1  0
 41 40  1  0
 43 44  1  0
 44 47  1  0
 44 46  1  0
 45 43  2  0
 48 49  1  0
 48 23  1  0
 50 48  1  0
 51 53  1  0
 51 54  1  0
 52 51  1  0
 54 56  1  0
 56 55  1  0
 57 56  1  0
 58 69  2  0
 59 57  1  0
 59 64  1  0
 60 68  1  0
 60 70  1  0
 61 67  1  0
 61 63  1  0
 62 68  1  0
 63 62  1  0
 64 63  2  0
 65 66  1  0
 65 59  2  0
 66 61  2  0
 67 60  1  0
 68 58  1  0
 70 72  2  0
 71 70  1  0
 73 71  1  0
 74 83  2  0
 74 79  1  0
 75 71  1  0
 75 79  1  0
 76 75  1  0
 77 78  1  0
 77 76  1  0
 78 74  1  0
 79 80  2  0
 80 81  1  0
 82 81  2  0
 83 82  1  0
 84 58  1  0
 84 85  1  0
 84 94  1  0
 85 88  1  0
 86 90  1  0
 86 85  1  0
 87 86  2  0
 90 89  1  0
 92 90  1  0
 92 93  1  0
 92 91  1  0
 94 97  1  1
 94 95  1  0
 96 94  1  0
M  ISO  4  13 100  21 100  56 101  57 101
M  END
>  <TORSDO>  (15) 
F 21

>  <SCORE>  (15) 
-13.112

>  <name>  (15) 
14

>  <ligand_id>  (15) 
14

>  <original_smiles>  (15) 
[H]c1c([H])c([H])c2c(c1[H])C([H])([H])C([H])([H])C([H])([H])C2([H])N([H])C(=O)C1([H])N(C(=O)C([H])(N([H])C(=O)C([H])(N([H])C([H])([H])[H])C([H])([H])[H])C(C([H])([H])[H])(C([H])([H])[H])C([H])([H])[H])C([H])([H])c2c([H])c(OC([H])(C([H])([H])[H])C([H])([H])[N+]([H])([H])C3([H])C([H])([H])C3([H])c3c([H])c(C([H])([H])N([H])C(=O)N4C([H])([H])C([H])([H])C([H])([H])C([H])(n5nc(-c6c([H])c([H])c(Oc7c([H])c([H])c(F)c([H])c7F)c([H])c6[H])c(C(=O)N([H])[H])c5N([H])[H])C4([H])[H])c(C([H])([H])[H])c([H])c3C([H])([H])[H])c([H])c([H])c2C1([H])[H]

>  <smiles>  (15) 
[H]c1c([H])c([H])c2c(c1[H])C([H])([H])C([H])([H])C([H])([H])C2([H])N([H])C(=O)C1([H])N(C(=O)C([H])(N([H])C(=O)C([H])(N([H])C([H])([H])[H])C([H])([H])[H])C(C([H])([H])[H])(C([H])([H])[H])C([H])([H])[H])C([H])([H])c2c([H])c(OC([H])(C([H])([H])[H])C([H])([H])[N+]([H])([H])C3([H])C([H])([H])C3([H])c3c([H])c(C([H])([H])N([H])C(=O)N4C([H])([H])C([H])([H])C([H])([H])C([H])(n5nc(-c6c([H])c([H])c(Oc7c([H])c([H])c(F)c([H])c7F)c([H])c6[H])c(C(=O)N([H])[H])c5N([H])[H])C4([H])[H])c(C([H])([H])[H])c([H])c3C([H])([H])[H])c([H])c([H])c2C1([H])[H]

$$$$
15:0:0
     RDKit          3D

 96105  0  0  1  0  0  0  0  0999 V2000
  -30.1730  -23.1560   22.3140 C   0  0  0  0  0  0  0  0  0  0  0  0
  -31.0300  -22.4300   21.4440 C   0  0  0  0  0  0  0  0  0  0  0  0
  -28.9320  -23.6190   21.8100 C   0  0  0  0  0  0  0  0  0  0  0  0
  -30.4840  -21.8420   20.2730 C   0  0  0  0  0  0  0  0  0  0  0  0
  -28.4980  -23.2230   20.5120 C   0  0  0  0  0  0  0  0  0  0  0  0
  -29.0910  -21.9160   20.0560 C   0  0  0  0  0  0  0  0  0  0  0  0
  -30.5900  -23.4870   23.7520 C   0  0  0  0  0  1  0  0  0  0  0  0
  -32.5030  -22.2180   21.7630 C   0  0  0  0  0  1  0  0  0  0  0  0
  -28.0910  -24.5700   22.6660 C   0  0  0  0  0  1  0  0  0  0  0  0
  -31.3830  -21.1560   19.2460 C   0  0  0  0  0  1  0  0  0  0  0  0
  -28.4490  -20.6040   19.7900 N   0  0  0  0  0  0  0  0  0  0  0  0
  -27.4930  -20.6910   19.4590 H   0  0  0  0  0  0  0  0  0  0  0  0
  -30.2780  -14.6520   19.7570 C   0  0  0  0  0  0  0  0  0  0  0  0
  -30.0260  -12.2890   18.8710 C   0  0  0  0  0  2  0  0  0  0  0  0
  -28.9850  -12.2340   17.7330 C   0  0  0  0  0  2  0  0  0  0  0  0
  -27.5860  -11.9860   18.3200 C   0  0  0  0  0  2  0  0  0  0  0  0
  -27.2770  -12.9360   19.5020 C   0  0  0  0  0  3  0  0  0  0  0  0
  -28.4340  -13.0390   20.5220 C   0  0  0  0  0  2  0  0  0  0  0  0
  -29.6380  -13.4150   19.7730 N   0  0  0  0  0  0  0  0  0  0  0  0
  -31.4420  -14.6540   19.3370 O   0  0  0  0  0  0  0  0  0  0  0  0
  -27.9690  -17.9710   19.9990 C   0  0  0  0  0  2  0  0  0  0  0  0
  -30.2370  -18.5750   20.5050 C   0  0  0  0  0  2  0  0  0  0  0  0
  -28.4220  -16.4970   19.5440 C   0  0  0  0  0  2  0  0  0  0  0  0
  -30.4230  -16.9960   20.8480 C   0  0  0  0  0  2  0  0  0  0  0  0
  -28.9830  -19.1200   19.6950 C   0  0  0  0  0  3  0  0  0  0  0  0
  -29.6650  -15.8880   20.1410 N   0  0  0  0  0  0  0  0  0  0  0  0
  -25.0110  -13.5200   20.5460 C   0  0  0  0  0  0  0  0  0  0  0  0
  -23.9810  -12.7460   20.9940 C   0  0  0  0  0  0  0  0  0  0  0  0
  -24.4020  -11.3890   20.8320 C   0  0  0  0  0  0  0  0  0  0  0  0
  -25.9990  -12.6400   20.1350 N   0  0  0  0  0  0  0  0  0  0  0  0
  -25.6480  -11.3490   20.3700 N   0  0  0  0  0  0  0  0  0  0  0  0
  -23.6690  -10.1350   21.0340 C   0  0  0  0  0  0  0  0  0  0  0  0
  -24.1380   -9.1440   21.9230 C   0  0  0  0  0  3  0  0  0  0  0  0
  -23.4060   -7.9530   22.1180 C   0  0  0  0  0  3  0  0  0  0  0  0
  -22.1890   -7.7460   21.4240 C   0  0  0  0  0  0  0  0  0  0  0  0
  -21.7380   -8.7280   20.5260 C   0  0  0  0  0  3  0  0  0  0  0  0
  -22.4690   -9.9100   20.3300 C   0  0  0  0  0  3  0  0  0  0  0  0
  -21.4260   -6.6080   21.5230 O   0  0  0  0  0  0  0  0  0  0  0  0
  -21.4070   -5.8550   22.6690 C   0  0  0  0  0  0  0  0  0  0  0  0
  -20.9600   -6.3840   23.8980 C   0  0  0  0  0  3  0  0  0  0  0  0
  -20.8960   -5.5580   25.0380 C   0  0  0  0  0  3  0  0  0  0  0  0
  -21.2670   -4.2040   24.9480 C   0  0  0  0  0  0  0  0  0  0  0  0
  -21.7050   -3.6720   23.7220 C   0  0  0  0  0  3  0  0  0  0  0  0
  -21.7740   -4.4970   22.5850 C   0  0  0  0  0  0  0  0  0  0  0  0
  -22.1760   -3.9770   21.4010 F   0  0  0  0  0  0  0  0  0  0  0  0
  -21.1970   -3.4070   26.0400 F   0  0  0  0  0  0  0  0  0  0  0  0
  -22.6390  -13.2300   21.4580 C   0  0  0  0  0  0  0  0  0  0  0  0
  -22.0020  -12.4940   22.3580 N   0  0  0  0  0  0  0  0  0  0  0  0
  -22.1740  -14.2960   21.0560 O   0  0  0  0  0  0  0  0  0  0  0  0
  -22.4040  -11.6300   22.6940 H   0  0  0  0  0  0  0  0  0  0  0  0
  -21.1070  -12.7940   22.7160 H   0  0  0  0  0  0  0  0  0  0  0  0
  -25.1720  -14.8960   20.4250 N   0  0  0  0  0  0  0  0  0  0  0  0
  -24.4100  -15.5310   20.6430 H   0  0  0  0  0  0  0  0  0  0  0  0
  -25.9580  -15.3520   19.9840 H   0  0  0  0  0  0  0  0  0  0  0  0
  -27.5980  -24.3510   19.7300 C   0  0  0  0  0  2  0  0  0  0  0  0
  -27.8860  -25.8810   19.8640 O   0  0  0  0  0  0  0  0  0  0  0  0
  -24.5120  -31.5620   23.0200 C   0  0  0  0  0  0  0  0  0  0  0  0
  -26.8630  -26.8890   19.7970 C   0  0  0  0  0  0  0  0  0  0  0  0
  -23.2250  -30.2540   21.3710 C   0  0  0  0  0  3  0  0  0  0  0  0
  -24.5880  -28.6920   19.8570 C   0  0  0  0  0  0  0  0  0  0  0  0
  -25.7800  -30.4670   21.1390 C   0  0  0  0  0  2  0  0  0  0  0  0
  -25.7980  -29.0960   20.4400 C   0  0  0  0  0  0  0  0  0  0  0  0
  -26.9360  -28.2120   20.3880 C   0  0  0  0  0  3  0  0  0  0  0  0
  -25.6370  -26.5890   19.1640 C   0  0  0  0  0  3  0  0  0  0  0  0
  -24.5190  -27.4510   19.2020 C   0  0  0  0  0  3  0  0  0  0  0  0
  -23.3900  -29.6170   19.9660 C   0  0  0  0  0  2  0  0  0  0  0  0
  -24.5270  -30.7830   21.8970 N   0  0  0  0  0  0  0  0  0  0  0  0
  -23.4520  -31.8590   23.5900 O   0  0  0  0  0  0  0  0  0  0  0  0
  -22.5500  -29.2360   22.3230 C   0  0  0  0  0  0  0  0  0  0  0  0
  -21.2140  -29.0980   22.2270 N   0  0  0  0  0  0  0  0  0  0  0  0
  -23.2280  -28.5740   23.1140 O   0  0  0  0  0  0  0  0  0  0  0  0
  -20.7240  -29.6860   21.5680 H   0  0  0  0  0  0  0  0  0  0  0  0
  -17.8190  -27.9640   22.7840 C   0  0  0  0  0  0  0  0  0  0  0  0
  -20.3890  -28.1590   22.9920 C   0  0  0  0  0  3  0  0  0  0  0  0
  -20.4400  -26.7410   22.3760 C   0  0  0  0  0  2  0  0  0  0  0  0
  -19.3060  -26.4750   21.3790 C   0  0  0  0  0  2  0  0  0  0  0  0
  -17.9450  -26.6320   22.0650 C   0  0  0  0  0  2  0  0  0  0  0  0
  -18.9660  -28.6890   23.2060 C   0  0  0  0  0  0  0  0  0  0  0  0
  -18.7920  -29.9370   23.8420 C   0  0  0  0  0  3  0  0  0  0  0  0
  -17.5030  -30.4600   24.0620 C   0  0  0  0  0  3  0  0  0  0  0  0
  -16.3710  -29.7340   23.6520 C   0  0  0  0  0  3  0  0  0  0  0  0
  -16.5300  -28.4880   23.0180 C   0  0  0  0  0  3  0  0  0  0  0  0
  -25.8290  -32.1390   23.6290 C   0  0  0  0  0  3  0  0  0  0  0  0
  -25.5550  -33.5210   24.0540 N   0  0  0  0  0  0  0  0  0  0  0  0
  -25.8790  -34.6160   23.3530 C   0  0  0  0  0  0  0  0  0  0  0  0
  -26.5070  -34.5670   22.2920 O   0  0  0  0  0  0  0  0  0  0  0  0
  -24.9900  -33.6310   24.8840 H   0  0  0  0  0  0  0  0  0  0  0  0
  -24.1720  -36.4590   23.1930 C   0  0  0  0  0  1  0  0  0  0  0  0
  -25.4420  -35.9830   23.9150 C   0  0  0  0  0  3  0  0  0  0  0  0
  -27.6180  -36.7980   24.7090 C   0  0  0  0  0  1  0  0  0  0  0  0
  -26.4850  -37.0250   23.8140 N   0  0  0  0  0  0  0  0  0  0  0  0
  -26.1000  -37.9430   24.0130 H   0  0  0  0  0  0  0  0  0  0  0  0
  -26.3810  -31.2860   24.8390 C   0  0  1  0  0  0  0  0  0  0  0  0
  -25.3260  -30.9970   25.9330 C   0  0  0  0  0  1  0  0  0  0  0  0
  -26.9270  -29.9220   24.3550 C   0  0  0  0  0  1  0  0  0  0  0  0
  -27.5740  -32.0220   25.4960 C   0  0  0  0  0  1  0  0  0  0  0  0
  1  7  1  0
  2  8  1  0
  2  1  2  0
  3  1  1  0
  3  9  1  0
  4  2  1  0
  5  3  2  0
  6  4  2  0
  6  5  1  0
 10  4  1  0
 11  6  1  0
 12 11  1  0
 13 19  1  0
 13 26  1  0
 14 19  1  0
 15 16  1  0
 15 14  1  0
 17 16  1  0
 17 30  1  0
 17 18  1  0
 19 18  1  0
 20 13  2  0
 22 24  1  0
 23 21  1  0
 23 26  1  0
 25 11  1  0
 25 21  1  0
 25 22  1  0
 26 24  1  0
 27 28  2  0
 28 47  1  0
 29 28  1  0
 29 32  1  0
 30 31  1  0
 30 27  1  0
 31 29  2  0
 32 33  1  0
 33 34  2  0
 35 38  1  0
 35 34  1  0
 36 35  2  0
 37 36  1  0
 37 32  2  0
 38 39  1  0
 39 40  1  0
 40 41  2  0
 42 41  1  0
 42 46  1  0
 43 42  2  0
 44 39  2  0
 44 43  1  0
 45 44  1  0
 47 48  1  0
 48 50  1  0
 48 51  1  0
 49 47  2  0
 52 27  1  0
 52 53  1  0
 54 52  1  0
 55 56  1  0
 55  5  1  0
 57 68  2  0
 58 56  1  0
 58 63  1  0
 59 67  1  0
 59 69  1  0
 60 66  1  0
 60 62  1  0
 61 67  1  0
 62 61  1  0
 63 62  2  0
 64 65  1  0
 64 58  2  0
 65 60  2  0
 66 59  1  0
 67 57  1  0
 69 71  2  0
 70 69  1  0
 72 70  1  0
 73 82  2  0
 73 78  1  0
 74 70  1  0
 74 78  1  0
 75 74  1  0
 76 77  1  0
 76 75  1  0
 77 73  1  0
 78 79  2  0
 79 80  1  0
 81 80  2  0
 82 81  1  0
 83 57  1  0
 83 84  1  0
 83 93  1  0
 84 87  1  0
 85 89  1  0
 85 84  1  0
 86 85  2  0
 89 88  1  0
 91 89  1  0
 91 92  1  0
 91 90  1  0
 93 96  1  1
 93 94  1  0
 95 93  1  0
M  ISO  4  13 100  26 100  55 101  56 101
M  END
>  <TORSDO>  (16) 
F 18

>  <SCORE>  (16) 
-12.095

>  <name>  (16) 
15

>  <ligand_id>  (16) 
15

>  <original_smiles>  (16) 
[H]c1c([H])c([H])c2c(c1[H])C([H])([H])C([H])([H])C([H])([H])C2([H])N([H])C(=O)C1([H])N(C(=O)C([H])(N([H])C(=O)C([H])(N([H])C([H])([H])[H])C([H])([H])[H])C(C([H])([H])[H])(C([H])([H])[H])C([H])([H])[H])C([H])([H])c2c([H])c(OC([H])([H])c3c(N([H])C4([H])C([H])([H])C([H])([H])N(C(=O)N5C([H])([H])C([H])([H])C([H])([H])C([H])(n6nc(-c7c([H])c([H])c(Oc8c([H])c([H])c(F)c([H])c8F)c([H])c7[H])c(C(=O)N([H])[H])c6N([H])[H])C5([H])[H])C([H])([H])C4([H])[H])c(C([H])([H])[H])c(C([H])([H])[H])c(C([H])([H])[H])c3C([H])([H])[H])c([H])c([H])c2C1([H])[H]

>  <smiles>  (16) 
[H]c1c([H])c([H])c2c(c1[H])C([H])([H])C([H])([H])C([H])([H])C2([H])N([H])C(=O)C1([H])N(C(=O)C([H])(N([H])C(=O)C([H])(N([H])C([H])([H])[H])C([H])([H])[H])C(C([H])([H])[H])(C([H])([H])[H])C([H])([H])[H])C([H])([H])c2c([H])c(OC([H])([H])c3c(N([H])C4([H])C([H])([H])C([H])([H])N(C(=O)N5C([H])([H])C([H])([H])C([H])([H])C([H])(n6nc(-c7c([H])c([H])c(Oc8c([H])c([H])c(F)c([H])c8F)c([H])c7[H])c(C(=O)N([H])[H])c6N([H])[H])C5([H])[H])C([H])([H])C4([H])[H])c(C([H])([H])[H])c(C([H])([H])[H])c(C([H])([H])[H])c3C([H])([H])[H])c([H])c([H])c2C1([H])[H]

$$$$
16:0:0
     RDKit          3D

 95104  0  0  1  0  0  0  0  0999 V2000
  -29.0910  -21.0730   20.1680 C   0  0  0  0  0  0  0  0  0  0  0  0
  -27.9190  -21.7590   19.6830 C   0  0  0  0  0  0  0  0  0  0  0  0
  -30.1900  -21.9380   20.5060 C   0  0  0  0  0  0  0  0  0  0  0  0
  -27.7510  -23.1830   19.8000 C   0  0  0  0  0  0  0  0  0  0  0  0
  -30.0370  -23.3760   20.5610 C   0  0  0  0  0  0  0  0  0  0  0  0
  -28.7830  -24.0190   20.3230 C   0  0  0  0  0  0  0  0  0  0  0  0
  -26.7840  -20.9590   19.0250 C   0  0  0  0  0  1  0  0  0  0  0  0
  -31.5550  -21.3350   20.8380 C   0  0  0  0  0  1  0  0  0  0  0  0
  -26.4150  -23.7980   19.3640 C   0  0  0  0  0  1  0  0  0  0  0  0
  -31.2420  -24.2430   20.9250 C   0  0  0  0  0  1  0  0  0  0  0  0
  -29.0470  -19.5170   20.4170 C   0  0  0  0  0  0  0  0  0  0  0  0
  -30.6740  -16.7410   21.5730 C   0  0  0  0  0  2  0  0  0  0  0  0
  -30.9620  -18.2100   21.1820 C   0  0  0  0  0  2  0  0  0  0  0  0
  -29.7690  -17.3020   19.4250 C   0  0  0  0  0  2  0  0  0  0  0  0
  -29.9510  -16.0680   20.3970 C   0  0  0  0  0  3  0  0  0  0  0  0
  -30.0420  -18.6140   20.1090 N   0  0  0  0  0  0  0  0  0  0  0  0
  -28.0180  -19.0520   20.9170 O   0  0  0  0  0  0  0  0  0  0  0  0
  -30.6990  -14.7620   19.8610 C   0  0  0  0  0  0  0  0  0  0  0  0
  -30.5210  -12.4510   18.9410 C   0  0  0  0  0  2  0  0  0  0  0  0
  -29.5000  -12.4860   17.7830 C   0  0  0  0  0  2  0  0  0  0  0  0
  -28.0620  -12.2970   18.3110 C   0  0  0  0  0  2  0  0  0  0  0  0
  -27.7530  -13.2050   19.5330 C   0  0  0  0  0  3  0  0  0  0  0  0
  -28.8880  -13.1340   20.5770 C   0  0  0  0  0  2  0  0  0  0  0  0
  -30.1370  -13.5090   19.9000 N   0  0  0  0  0  0  0  0  0  0  0  0
  -31.8010  -14.9150   19.3250 O   0  0  0  0  0  0  0  0  0  0  0  0
  -25.4430  -13.7660   20.5080 C   0  0  0  0  0  0  0  0  0  0  0  0
  -24.4090  -12.9740   20.9300 C   0  0  0  0  0  0  0  0  0  0  0  0
  -24.8510  -11.6260   20.7700 C   0  0  0  0  0  0  0  0  0  0  0  0
  -26.4520  -12.8970   20.1220 N   0  0  0  0  0  0  0  0  0  0  0  0
  -26.1060  -11.6010   20.3360 N   0  0  0  0  0  0  0  0  0  0  0  0
  -24.1320  -10.3590   20.9520 C   0  0  0  0  0  0  0  0  0  0  0  0
  -24.5610   -9.3960   21.8910 C   0  0  0  0  0  3  0  0  0  0  0  0
  -23.8440   -8.1920   22.0620 C   0  0  0  0  0  3  0  0  0  0  0  0
  -22.6830   -7.9440   21.2940 C   0  0  0  0  0  0  0  0  0  0  0  0
  -22.2700   -8.8970   20.3460 C   0  0  0  0  0  3  0  0  0  0  0  0
  -22.9880  -10.0910   20.1730 C   0  0  0  0  0  3  0  0  0  0  0  0
  -21.9380   -6.7920   21.3730 O   0  0  0  0  0  0  0  0  0  0  0  0
  -21.7800   -6.1150   22.5560 C   0  0  0  0  0  0  0  0  0  0  0  0
  -21.1520   -6.7050   23.6750 C   0  0  0  0  0  3  0  0  0  0  0  0
  -20.9470   -5.9500   24.8470 C   0  0  0  0  0  3  0  0  0  0  0  0
  -21.3610   -4.6060   24.9010 C   0  0  0  0  0  0  0  0  0  0  0  0
  -21.9830   -4.0140   23.7870 C   0  0  0  0  0  3  0  0  0  0  0  0
  -22.1880   -4.7670   22.6170 C   0  0  0  0  0  0  0  0  0  0  0  0
  -22.7670   -4.1850   21.5380 F   0  0  0  0  0  0  0  0  0  0  0  0
  -21.1570   -3.8770   26.0240 F   0  0  0  0  0  0  0  0  0  0  0  0
  -23.0510  -13.4400   21.3660 C   0  0  0  0  0  0  0  0  0  0  0  0
  -22.4050  -12.6950   22.2570 N   0  0  0  0  0  0  0  0  0  0  0  0
  -22.5730  -14.4960   20.9550 O   0  0  0  0  0  0  0  0  0  0  0  0
  -22.8080  -11.8410   22.6140 H   0  0  0  0  0  0  0  0  0  0  0  0
  -21.4960  -12.9840   22.5850 H   0  0  0  0  0  0  0  0  0  0  0  0
  -25.6040  -15.1450   20.4030 N   0  0  0  0  0  0  0  0  0  0  0  0
  -24.8610  -15.7950   20.6400 H   0  0  0  0  0  0  0  0  0  0  0  0
  -26.4360  -15.6030   20.0560 H   0  0  0  0  0  0  0  0  0  0  0  0
  -28.5050  -25.5090   20.8030 C   0  0  0  0  0  2  0  0  0  0  0  0
  -28.5480  -26.6560   19.8810 O   0  0  0  0  0  0  0  0  0  0  0  0
  -24.6030  -31.8140   23.0440 C   0  0  0  0  0  0  0  0  0  0  0  0
  -27.4240  -27.4810   19.8820 C   0  0  0  0  0  0  0  0  0  0  0  0
  -23.4780  -30.4350   21.3320 C   0  0  0  0  0  3  0  0  0  0  0  0
  -25.0080  -28.9910   19.8780 C   0  0  0  0  0  0  0  0  0  0  0  0
  -26.0060  -30.8550   21.2060 C   0  0  0  0  0  2  0  0  0  0  0  0
  -26.1470  -29.5050   20.5160 C   0  0  0  0  0  0  0  0  0  0  0  0
  -27.3630  -28.7600   20.5100 C   0  0  0  0  0  3  0  0  0  0  0  0
  -26.2760  -27.0200   19.2140 C   0  0  0  0  0  3  0  0  0  0  0  0
  -25.0750  -27.7530   19.2180 C   0  0  0  0  0  3  0  0  0  0  0  0
  -23.7390  -29.8170   19.9330 C   0  0  0  0  0  2  0  0  0  0  0  0
  -24.7140  -31.0520   21.9170 N   0  0  0  0  0  0  0  0  0  0  0  0
  -23.5020  -32.0330   23.5690 O   0  0  0  0  0  0  0  0  0  0  0  0
  -22.8370  -29.3610   22.2420 C   0  0  0  0  0  0  0  0  0  0  0  0
  -21.5110  -29.1870   22.1250 N   0  0  0  0  0  0  0  0  0  0  0  0
  -23.5310  -28.6920   23.0120 O   0  0  0  0  0  0  0  0  0  0  0  0
  -21.0110  -29.7810   21.4770 H   0  0  0  0  0  0  0  0  0  0  0  0
  -18.1290  -28.0410   22.7060 C   0  0  0  0  0  0  0  0  0  0  0  0
  -20.7060  -28.2060   22.8540 C   0  0  0  0  0  3  0  0  0  0  0  0
  -20.7300  -26.8310   22.1460 C   0  0  0  0  0  2  0  0  0  0  0  0
  -19.5650  -26.6330   21.1710 C   0  0  0  0  0  2  0  0  0  0  0  0
  -18.2250  -26.7550   21.9030 C   0  0  0  0  0  2  0  0  0  0  0  0
  -19.2930  -28.7300   23.1390 C   0  0  0  0  0  0  0  0  0  0  0  0
  -19.1460  -29.9380   23.8550 C   0  0  0  0  0  3  0  0  0  0  0  0
  -17.8690  -30.4560   24.1400 C   0  0  0  0  0  3  0  0  0  0  0  0
  -16.7200  -29.7630   23.7210 C   0  0  0  0  0  3  0  0  0  0  0  0
  -16.8520  -28.5560   23.0120 C   0  0  0  0  0  3  0  0  0  0  0  0
  -25.8530  -32.4660   23.7130 C   0  0  0  0  0  3  0  0  0  0  0  0
  -25.4910  -33.8430   24.0810 N   0  0  0  0  0  0  0  0  0  0  0  0
  -25.7940  -34.9290   23.3580 C   0  0  0  0  0  0  0  0  0  0  0  0
  -26.4780  -34.8800   22.3310 O   0  0  0  0  0  0  0  0  0  0  0  0
  -24.8790  -33.9510   24.8770 H   0  0  0  0  0  0  0  0  0  0  0  0
  -24.0060  -36.6710   23.0390 C   0  0  0  0  0  1  0  0  0  0  0  0
  -25.2540  -36.2870   23.8490 C   0  0  0  0  0  3  0  0  0  0  0  0
  -27.3410  -37.2300   24.7350 C   0  0  0  0  0  1  0  0  0  0  0  0
  -26.2500  -37.3780   23.7750 N   0  0  0  0  0  0  0  0  0  0  0  0
  -25.8080  -38.2800   23.9350 H   0  0  0  0  0  0  0  0  0  0  0  0
  -26.3650  -31.6720   24.9770 C   0  0  1  0  0  0  0  0  0  0  0  0
  -25.2570  -31.3590   26.0100 C   0  0  0  0  0  1  0  0  0  0  0  0
  -27.0090  -30.3310   24.5540 C   0  0  0  0  0  1  0  0  0  0  0  0
  -27.4670  -32.4870   25.6940 C   0  0  0  0  0  1  0  0  0  0  0  0
  1 11  1  0
  1  3  1  0
  2  4  1  0
  2  1  2  0
  3  5  2  0
  3  8  1  0
  4  6  2  0
  5 10  1  0
  6  5  1  0
  6 54  1  0
  7  2  1  0
  9  4  1  0
 11 17  2  0
 13 12  1  0
 14 16  1  0
 14 15  1  0
 15 18  1  0
 15 12  1  0
 16 11  1  0
 16 13  1  0
 18 24  1  0
 19 24  1  0
 20 21  1  0
 20 19  1  0
 22 21  1  0
 22 29  1  0
 22 23  1  0
 24 23  1  0
 25 18  2  0
 26 27  2  0
 27 46  1  0
 28 27  1  0
 28 31  1  0
 29 30  1  0
 29 26  1  0
 30 28  2  0
 31 32  1  0
 32 33  2  0
 34 37  1  0
 34 33  1  0
 35 34  2  0
 36 35  1  0
 36 31  2  0
 37 38  1  0
 38 43  2  0
 38 39  1  0
 39 40  2  0
 40 41  1  0
 41 45  1  0
 42 41  2  0
 43 42  1  0
 44 43  1  0
 46 47  1  0
 47 50  1  0
 47 49  1  0
 48 46  2  0
 51 26  1  0
 51 52  1  0
 53 51  1  0
 55 57  1  0
 55 54  1  0
 56 67  2  0
 57 62  1  0
 58 66  1  0
 58 68  1  0
 59 65  1  0
 59 61  1  0
 60 66  1  0
 61 60  1  0
 62 61  2  0
 63 64  1  0
 63 57  2  0
 64 59  2  0
 65 58  1  0
 66 56  1  0
 68 70  2  0
 69 68  1  0
 71 69  1  0
 72 81  2  0
 72 77  1  0
 73 69  1  0
 73 77  1  0
 74 73  1  0
 75 76  1  0
 75 74  1  0
 76 72  1  0
 77 78  2  0
 78 79  1  0
 80 79  2  0
 81 80  1  0
 82 56  1  0
 82 83  1  0
 82 92  1  0
 83 86  1  0
 84 88  1  0
 84 83  1  0
 85 84  2  0
 88 87  1  0
 90 88  1  0
 90 91  1  0
 90 89  1  0
 92 95  1  1
 92 93  1  0
 94 92  1  0
M  ISO  4  15 100  18 100  54 101  55 101
M  END
>  <TORSDO>  (17) 
F 18

>  <SCORE>  (17) 
-14.206

>  <name>  (17) 
16

>  <ligand_id>  (17) 
16

>  <original_smiles>  (17) 
[H]c1c([H])c([H])c2c(c1[H])C([H])([H])C([H])([H])C([H])([H])C2([H])N([H])C(=O)C1([H])N(C(=O)C([H])(N([H])C(=O)C([H])(N([H])C([H])([H])[H])C([H])([H])[H])C(C([H])([H])[H])(C([H])([H])[H])C([H])([H])[H])C([H])([H])c2c([H])c(OC([H])([H])c3c(C([H])([H])[H])c(C([H])([H])[H])c(C(=O)N4C([H])([H])C([H])([H])C([H])(C(=O)N5C([H])([H])C([H])([H])C([H])([H])C([H])(n6nc(-c7c([H])c([H])c(Oc8c([H])c([H])c(F)c([H])c8F)c([H])c7[H])c(C(=O)N([H])[H])c6N([H])[H])C5([H])[H])C4([H])[H])c(C([H])([H])[H])c3C([H])([H])[H])c([H])c([H])c2C1([H])[H]

>  <smiles>  (17) 
[H]c1c([H])c([H])c2c(c1[H])C([H])([H])C([H])([H])C([H])([H])C2([H])N([H])C(=O)C1([H])N(C(=O)C([H])(N([H])C(=O)C([H])(N([H])C([H])([H])[H])C([H])([H])[H])C(C([H])([H])[H])(C([H])([H])[H])C([H])([H])[H])C([H])([H])c2c([H])c(OC([H])([H])c3c(C([H])([H])[H])c(C([H])([H])[H])c(C(=O)N4C([H])([H])C([H])([H])C([H])(C(=O)N5C([H])([H])C([H])([H])C([H])([H])C([H])(n6nc(-c7c([H])c([H])c(Oc8c([H])c([H])c(F)c([H])c8F)c([H])c7[H])c(C(=O)N([H])[H])c6N([H])[H])C5([H])[H])C4([H])[H])c(C([H])([H])[H])c3C([H])([H])[H])c([H])c([H])c2C1([H])[H]

$$$$
17:0:0
     RDKit          3D

 94103  0  0  1  0  0  0  0  0999 V2000
  -29.2190  -22.4010   20.6140 C   0  0  0  0  0  0  0  0  0  0  0  0
  -28.8520  -21.0600   20.1330 C   0  0  0  0  0  0  0  0  0  0  0  0
  -30.4370  -22.4110   21.3790 C   0  0  0  0  0  0  0  0  0  0  0  0
  -29.6480  -19.8810   20.4330 C   0  0  0  0  0  0  0  0  0  0  0  0
  -31.1970  -21.2180   21.5310 C   0  0  0  0  0  0  0  0  0  0  0  0
  -27.5890  -20.8430   19.3070 C   0  0  0  0  0  1  0  0  0  0  0  0
  -30.9760  -23.6580   22.0760 C   0  0  0  0  0  1  0  0  0  0  0  0
  -32.5560  -21.1710   22.2160 C   0  0  0  0  0  1  0  0  0  0  0  0
  -30.8010  -20.0140   21.0990 N   0  0  0  0  0  0  0  0  0  0  0  0
  -30.6200  -14.7120   19.9790 C   0  0  0  0  0  0  0  0  0  0  0  0
  -30.3370  -12.4840   18.8800 C   0  0  0  0  0  2  0  0  0  0  0  0
  -29.3150  -12.5950   17.7280 C   0  0  0  0  0  2  0  0  0  0  0  0
  -27.8780  -12.3980   18.2470 C   0  0  0  0  0  2  0  0  0  0  0  0
  -27.5880  -13.2320   19.5230 C   0  0  0  0  0  3  0  0  0  0  0  0
  -28.7240  -13.0720   20.5590 C   0  0  0  0  0  2  0  0  0  0  0  0
  -29.9650  -13.4950   19.8990 N   0  0  0  0  0  0  0  0  0  0  0  0
  -31.7650  -14.7980   19.5230 O   0  0  0  0  0  0  0  0  0  0  0  0
  -28.7290  -17.6590   21.4660 C   0  0  0  0  0  2  0  0  0  0  0  0
  -28.8850  -16.1330   21.2450 C   0  0  0  0  0  2  0  0  0  0  0  0
  -30.3410  -17.2730   19.7800 C   0  0  0  0  0  2  0  0  0  0  0  0
  -29.2570  -18.3500   20.2110 C   0  0  0  0  0  3  0  0  0  0  0  0
  -29.9120  -15.8930   20.2170 N   0  0  0  0  0  0  0  0  0  0  0  0
  -25.2460  -13.7980   20.4120 C   0  0  0  0  0  0  0  0  0  0  0  0
  -24.2140  -13.0070   20.8410 C   0  0  0  0  0  0  0  0  0  0  0  0
  -24.6830  -11.6620   20.7500 C   0  0  0  0  0  0  0  0  0  0  0  0
  -26.2790  -12.9300   20.0920 N   0  0  0  0  0  0  0  0  0  0  0  0
  -25.9500  -11.6400   20.3540 N   0  0  0  0  0  0  0  0  0  0  0  0
  -23.9790  -10.3900   20.9590 C   0  0  0  0  0  0  0  0  0  0  0  0
  -24.4390   -9.4330   21.8900 C   0  0  0  0  0  3  0  0  0  0  0  0
  -23.7320   -8.2270   22.0850 C   0  0  0  0  0  3  0  0  0  0  0  0
  -22.5520   -7.9690   21.3490 C   0  0  0  0  0  0  0  0  0  0  0  0
  -22.1110   -8.9150   20.4060 C   0  0  0  0  0  3  0  0  0  0  0  0
  -22.8190  -10.1130   20.2090 C   0  0  0  0  0  3  0  0  0  0  0  0
  -21.8150   -6.8140   21.4550 O   0  0  0  0  0  0  0  0  0  0  0  0
  -21.7390   -6.1150   22.6320 C   0  0  0  0  0  0  0  0  0  0  0  0
  -21.2550   -6.7050   23.8200 C   0  0  0  0  0  3  0  0  0  0  0  0
  -21.1290   -5.9300   24.9910 C   0  0  0  0  0  3  0  0  0  0  0  0
  -21.4760   -4.5660   24.9720 C   0  0  0  0  0  0  0  0  0  0  0  0
  -21.9530   -3.9750   23.7890 C   0  0  0  0  0  3  0  0  0  0  0  0
  -22.0810   -4.7480   22.6210 C   0  0  0  0  0  0  0  0  0  0  0  0
  -22.5200   -4.1680   21.4780 F   0  0  0  0  0  0  0  0  0  0  0  0
  -21.3470   -3.8180   26.0940 F   0  0  0  0  0  0  0  0  0  0  0  0
  -22.8370  -13.4690   21.2170 C   0  0  0  0  0  0  0  0  0  0  0  0
  -22.1770  -12.7530   22.1200 N   0  0  0  0  0  0  0  0  0  0  0  0
  -22.3560  -14.4990   20.7470 O   0  0  0  0  0  0  0  0  0  0  0  0
  -22.5800  -11.9200   22.5220 H   0  0  0  0  0  0  0  0  0  0  0  0
  -21.2550  -13.0440   22.4130 H   0  0  0  0  0  0  0  0  0  0  0  0
  -25.3810  -15.1710   20.2410 N   0  0  0  0  0  0  0  0  0  0  0  0
  -24.6090  -15.8100   20.3860 H   0  0  0  0  0  0  0  0  0  0  0  0
  -26.1960  -15.6170   19.8380 H   0  0  0  0  0  0  0  0  0  0  0  0
  -26.9640  -23.5580   21.0770 C   0  0  0  0  0  1  0  0  0  0  0  0
  -28.3060  -23.7250   20.3390 C   0  0  0  0  0  3  0  0  0  0  0  0
  -28.7780  -25.2570   20.6470 C   0  0  0  0  0  2  0  0  0  0  0  0
  -28.4090  -26.4910   19.8940 O   0  0  0  0  0  0  0  0  0  0  0  0
  -24.5020  -31.7680   23.0840 C   0  0  0  0  0  0  0  0  0  0  0  0
  -27.2330  -27.2430   20.0560 C   0  0  0  0  0  0  0  0  0  0  0  0
  -23.3370  -30.3440   21.4320 C   0  0  0  0  0  3  0  0  0  0  0  0
  -24.8310  -28.8040   20.0350 C   0  0  0  0  0  0  0  0  0  0  0  0
  -25.8710  -30.7060   21.2740 C   0  0  0  0  0  2  0  0  0  0  0  0
  -25.9830  -29.3190   20.6450 C   0  0  0  0  0  0  0  0  0  0  0  0
  -27.1880  -28.5470   20.6480 C   0  0  0  0  0  3  0  0  0  0  0  0
  -26.0610  -26.7820   19.4270 C   0  0  0  0  0  3  0  0  0  0  0  0
  -24.8690  -27.5390   19.4250 C   0  0  0  0  0  3  0  0  0  0  0  0
  -23.5800  -29.6610   20.0590 C   0  0  0  0  0  2  0  0  0  0  0  0
  -24.5870  -30.9600   21.9850 N   0  0  0  0  0  0  0  0  0  0  0  0
  -23.4070  -32.0260   23.6090 O   0  0  0  0  0  0  0  0  0  0  0  0
  -22.6830  -29.3220   22.3910 C   0  0  0  0  0  0  0  0  0  0  0  0
  -21.3600  -29.1320   22.2610 N   0  0  0  0  0  0  0  0  0  0  0  0
  -23.3670  -28.6980   23.2070 O   0  0  0  0  0  0  0  0  0  0  0  0
  -20.8660  -29.6910   21.5780 H   0  0  0  0  0  0  0  0  0  0  0  0
  -17.9900  -27.9110   22.7730 C   0  0  0  0  0  0  0  0  0  0  0  0
  -20.5490  -28.1800   23.0240 C   0  0  0  0  0  3  0  0  0  0  0  0
  -20.6560  -26.7580   22.4260 C   0  0  0  0  0  2  0  0  0  0  0  0
  -19.5460  -26.4430   21.4180 C   0  0  0  0  0  2  0  0  0  0  0  0
  -18.1680  -26.5730   22.0740 C   0  0  0  0  0  2  0  0  0  0  0  0
  -19.1080  -28.6730   23.2040 C   0  0  0  0  0  0  0  0  0  0  0  0
  -18.8890  -29.9260   23.8200 C   0  0  0  0  0  3  0  0  0  0  0  0
  -17.5840  -30.4190   24.0020 C   0  0  0  0  0  3  0  0  0  0  0  0
  -16.4790  -29.6540   23.5880 C   0  0  0  0  0  3  0  0  0  0  0  0
  -16.6850  -28.4020   22.9790 C   0  0  0  0  0  3  0  0  0  0  0  0
  -25.7690  -32.4220   23.7190 C   0  0  0  0  0  3  0  0  0  0  0  0
  -25.4240  -33.8060   24.0710 N   0  0  0  0  0  0  0  0  0  0  0  0
  -25.7180  -34.8790   23.3250 C   0  0  0  0  0  0  0  0  0  0  0  0
  -26.3800  -34.8100   22.2860 O   0  0  0  0  0  0  0  0  0  0  0  0
  -24.8450  -33.9310   24.8880 H   0  0  0  0  0  0  0  0  0  0  0  0
  -23.9440  -36.6360   23.0120 C   0  0  0  0  0  1  0  0  0  0  0  0
  -25.2010  -36.2500   23.8070 C   0  0  0  0  0  3  0  0  0  0  0  0
  -27.3150  -37.1840   24.6390 C   0  0  0  0  0  1  0  0  0  0  0  0
  -26.2030  -37.3300   23.7030 N   0  0  0  0  0  0  0  0  0  0  0  0
  -25.7730  -38.2360   23.8610 H   0  0  0  0  0  0  0  0  0  0  0  0
  -26.3040  -31.6450   24.9850 C   0  0  1  0  0  0  0  0  0  0  0  0
  -25.2140  -31.3630   26.0460 C   0  0  0  0  0  1  0  0  0  0  0  0
  -26.9230  -30.2860   24.5770 C   0  0  0  0  0  1  0  0  0  0  0  0
  -27.4330  -32.4590   25.6640 C   0  0  0  0  0  1  0  0  0  0  0  0
  1  3  1  0
  2  4  1  0
  2  1  2  0
  3  5  2  0
  3  7  1  0
  4  9  2  0
  5  8  1  0
  6  2  1  0
  9  5  1  0
 10 22  1  0
 11 16  1  0
 12 13  1  0
 12 11  1  0
 14 13  1  0
 14 26  1  0
 14 15  1  0
 16 10  1  0
 16 15  1  0
 17 10  2  0
 19 18  1  0
 20 21  1  0
 20 22  1  0
 21  4  1  0
 21 18  1  0
 22 19  1  0
 23 24  2  0
 24 43  1  0
 25 24  1  0
 25 28  1  0
 26 27  1  0
 26 23  1  0
 27 25  2  0
 28 29  1  0
 29 30  2  0
 31 34  1  0
 31 30  1  0
 32 31  2  0
 33 32  1  0
 33 28  2  0
 34 35  1  0
 35 36  1  0
 36 37  2  0
 38 37  1  0
 38 42  1  0
 39 38  2  0
 40 35  2  0
 40 39  1  0
 41 40  1  0
 43 44  1  0
 44 47  1  0
 44 46  1  0
 45 43  2  0
 48 49  1  0
 48 23  1  0
 50 48  1  0
 52  1  1  0
 52 53  1  0
 52 51  1  0
 54 56  1  0
 54 53  1  0
 55 66  2  0
 56 61  1  0
 57 65  1  0
 57 67  1  0
 58 64  1  0
 58 60  1  0
 59 65  1  0
 60 61  2  0
 60 59  1  0
 62 56  2  0
 63 62  1  0
 63 58  2  0
 64 57  1  0
 65 55  1  0
 67 69  2  0
 68 67  1  0
 70 68  1  0
 71 80  2  0
 71 76  1  0
 72 68  1  0
 72 76  1  0
 73 72  1  0
 74 75  1  0
 74 73  1  0
 75 71  1  0
 76 77  2  0
 77 78  1  0
 79 78  2  0
 80 79  1  0
 81 55  1  0
 81 82  1  0
 81 91  1  0
 82 85  1  0
 83 87  1  0
 83 82  1  0
 84 83  2  0
 87 86  1  0
 89 87  1  0
 89 90  1  0
 89 88  1  0
 91 94  1  1
 91 92  1  0
 93 91  1  0
M  ISO  4  10 100  22 100  53 101  54 101
M  END
>  <TORSDO>  (18) 
F 18

>  <SCORE>  (18) 
-13.111

>  <name>  (18) 
17

>  <ligand_id>  (18) 
17

>  <original_smiles>  (18) 
[H]c1c([H])c([H])c2c(c1[H])C([H])([H])C([H])([H])C([H])([H])C2([H])N([H])C(=O)C1([H])N(C(=O)C([H])(N([H])C(=O)C([H])(N([H])C([H])([H])[H])C([H])([H])[H])C(C([H])([H])[H])(C([H])([H])[H])C([H])([H])[H])C([H])([H])c2c([H])c(OC([H])([H])C([H])(c3c(C([H])([H])[H])c(C([H])([H])[H])nc(C4([H])C([H])([H])N(C(=O)N5C([H])([H])C([H])([H])C([H])([H])C([H])(n6nc(-c7c([H])c([H])c(Oc8c([H])c([H])c(F)c([H])c8F)c([H])c7[H])c(C(=O)N([H])[H])c6N([H])[H])C5([H])[H])C([H])([H])C4([H])[H])c3C([H])([H])[H])C([H])([H])[H])c([H])c([H])c2C1([H])[H]

>  <smiles>  (18) 
[H]c1c([H])c([H])c2c(c1[H])C([H])([H])C([H])([H])C([H])([H])C2([H])N([H])C(=O)C1([H])N(C(=O)C([H])(N([H])C(=O)C([H])(N([H])C([H])([H])[H])C([H])([H])[H])C(C([H])([H])[H])(C([H])([H])[H])C([H])([H])[H])C([H])([H])c2c([H])c(OC([H])([H])C([H])(c3c(C([H])([H])[H])c(C([H])([H])[H])nc(C4([H])C([H])([H])N(C(=O)N5C([H])([H])C([H])([H])C([H])([H])C([H])(n6nc(-c7c([H])c([H])c(Oc8c([H])c([H])c(F)c([H])c8F)c([H])c7[H])c(C(=O)N([H])[H])c6N([H])[H])C5([H])[H])C([H])([H])C4([H])[H])c3C([H])([H])[H])C([H])([H])[H])c([H])c([H])c2C1([H])[H]

$$$$
18:0:0
     RDKit          3D

 95104  0  0  1  0  0  0  0  0999 V2000
  -31.2600  -22.5850   19.5890 C   0  0  0  0  0  3  0  0  0  0  0  0
  -30.3600  -23.6570   19.7800 C   0  0  0  0  0  0  0  0  0  0  0  0
  -30.9170  -21.2170   19.7260 C   0  0  0  0  0  0  0  0  0  0  0  0
  -29.0090  -23.4200   20.1300 C   0  0  0  0  0  0  0  0  0  0  0  0
  -28.6650  -21.9760   20.2910 C   0  0  0  0  0  0  0  0  0  0  0  0
  -29.5990  -20.8320   20.1110 C   0  0  0  0  0  0  0  0  0  0  0  0
  -30.8870  -25.0660   19.5710 C   0  0  0  0  0  1  0  0  0  0  0  0
  -27.2240  -21.6550   20.6490 C   0  0  0  0  0  1  0  0  0  0  0  0
  -30.6150  -14.9390   20.0150 C   0  0  0  0  0  0  0  0  0  0  0  0
  -30.3800  -12.6400   19.0040 C   0  0  0  0  0  2  0  0  0  0  0  0
  -29.3800  -12.6600   17.8270 C   0  0  0  0  0  2  0  0  0  0  0  0
  -27.9440  -12.4470   18.3420 C   0  0  0  0  0  2  0  0  0  0  0  0
  -27.6150  -13.3360   19.5700 C   0  0  0  0  0  3  0  0  0  0  0  0
  -28.7320  -13.3100   20.6320 C   0  0  0  0  0  2  0  0  0  0  0  0
  -29.9690  -13.7110   19.9540 N   0  0  0  0  0  0  0  0  0  0  0  0
  -31.8070  -14.9630   19.6830 O   0  0  0  0  0  0  0  0  0  0  0  0
  -29.7000  -18.5660   21.4590 C   0  0  0  0  0  2  0  0  0  0  0  0
  -28.8490  -18.4570   19.2120 C   0  0  0  0  0  2  0  0  0  0  0  0
  -30.4630  -17.1710   21.2080 C   0  0  0  0  0  2  0  0  0  0  0  0
  -29.5910  -17.0320   19.0340 C   0  0  0  0  0  2  0  0  0  0  0  0
  -29.3360  -19.3770   20.2710 N   0  0  0  0  0  0  0  0  0  0  0  0
  -29.9220  -16.1660   20.2240 N   0  0  0  0  0  0  0  0  0  0  0  0
  -25.2830  -13.8870   20.4700 C   0  0  0  0  0  0  0  0  0  0  0  0
  -24.2410  -13.0990   20.8740 C   0  0  0  0  0  0  0  0  0  0  0  0
  -24.7030  -11.7510   20.7750 C   0  0  0  0  0  0  0  0  0  0  0  0
  -26.3090  -13.0190   20.1400 N   0  0  0  0  0  0  0  0  0  0  0  0
  -25.9740  -11.7270   20.3910 N   0  0  0  0  0  0  0  0  0  0  0  0
  -23.9890  -10.4820   20.9680 C   0  0  0  0  0  0  0  0  0  0  0  0
  -24.4350   -9.5150   21.8960 C   0  0  0  0  0  3  0  0  0  0  0  0
  -23.7190   -8.3110   22.0760 C   0  0  0  0  0  3  0  0  0  0  0  0
  -22.5420   -8.0670   21.3310 C   0  0  0  0  0  0  0  0  0  0  0  0
  -22.1160   -9.0220   20.3910 C   0  0  0  0  0  3  0  0  0  0  0  0
  -22.8320  -10.2160   20.2090 C   0  0  0  0  0  3  0  0  0  0  0  0
  -21.7970   -6.9160   21.4210 O   0  0  0  0  0  0  0  0  0  0  0  0
  -21.7130   -6.2030   22.5890 C   0  0  0  0  0  0  0  0  0  0  0  0
  -21.2130   -6.7770   23.7790 C   0  0  0  0  0  3  0  0  0  0  0  0
  -21.0790   -5.9890   24.9390 C   0  0  0  0  0  3  0  0  0  0  0  0
  -21.4330   -4.6260   24.9110 C   0  0  0  0  0  0  0  0  0  0  0  0
  -21.9250   -4.0520   23.7260 C   0  0  0  0  0  3  0  0  0  0  0  0
  -22.0620   -4.8370   22.5680 C   0  0  0  0  0  0  0  0  0  0  0  0
  -22.5170   -4.2730   21.4230 F   0  0  0  0  0  0  0  0  0  0  0  0
  -21.2990   -3.8670   26.0230 F   0  0  0  0  0  0  0  0  0  0  0  0
  -22.8620  -13.5660   21.2370 C   0  0  0  0  0  0  0  0  0  0  0  0
  -22.1850  -12.8470   22.1240 N   0  0  0  0  0  0  0  0  0  0  0  0
  -22.3950  -14.6040   20.7690 O   0  0  0  0  0  0  0  0  0  0  0  0
  -22.5780  -12.0090   22.5260 H   0  0  0  0  0  0  0  0  0  0  0  0
  -21.2610  -13.1420   22.4080 H   0  0  0  0  0  0  0  0  0  0  0  0
  -25.4400  -15.2630   20.3290 N   0  0  0  0  0  0  0  0  0  0  0  0
  -24.6880  -15.9160   20.5200 H   0  0  0  0  0  0  0  0  0  0  0  0
  -26.2850  -15.7130   20.0030 H   0  0  0  0  0  0  0  0  0  0  0  0
  -33.2110  -20.3230   20.3880 C   0  0  0  0  0  1  0  0  0  0  0  0
  -32.4810  -20.2830   17.9510 C   0  0  0  0  0  1  0  0  0  0  0  0
  -32.0260  -20.1970   19.4190 C   0  0  0  0  0  3  0  0  0  0  0  0
  -27.9610  -24.6870   20.2310 C   0  0  0  0  0  2  0  0  0  0  0  0
  -28.2940  -26.2090   20.2130 O   0  0  0  0  0  0  0  0  0  0  0  0
  -24.6610  -31.8680   23.2440 C   0  0  0  0  0  0  0  0  0  0  0  0
  -27.2410  -27.1920   20.1700 C   0  0  0  0  0  0  0  0  0  0  0  0
  -23.4660  -30.4910   21.5860 C   0  0  0  0  0  3  0  0  0  0  0  0
  -24.9170  -28.9370   20.1500 C   0  0  0  0  0  0  0  0  0  0  0  0
  -26.0210  -30.7580   21.4350 C   0  0  0  0  0  2  0  0  0  0  0  0
  -26.0960  -29.3750   20.7670 C   0  0  0  0  0  0  0  0  0  0  0  0
  -27.2610  -28.5180   20.7590 C   0  0  0  0  0  3  0  0  0  0  0  0
  -26.0350  -26.8610   19.5110 C   0  0  0  0  0  3  0  0  0  0  0  0
  -24.9000  -27.6940   19.5060 C   0  0  0  0  0  3  0  0  0  0  0  0
  -23.6910  -29.8330   20.2010 C   0  0  0  0  0  2  0  0  0  0  0  0
  -24.7360  -31.0600   22.1430 N   0  0  0  0  0  0  0  0  0  0  0  0
  -23.5740  -32.1470   23.7700 O   0  0  0  0  0  0  0  0  0  0  0  0
  -22.7850  -29.4720   22.5330 C   0  0  0  0  0  0  0  0  0  0  0  0
  -21.4560  -29.3070   22.4020 N   0  0  0  0  0  0  0  0  0  0  0  0
  -23.4530  -28.8330   23.3490 O   0  0  0  0  0  0  0  0  0  0  0  0
  -20.9740  -29.8740   21.7180 H   0  0  0  0  0  0  0  0  0  0  0  0
  -18.0640  -28.1360   22.9050 C   0  0  0  0  0  0  0  0  0  0  0  0
  -20.6280  -28.3650   23.1600 C   0  0  0  0  0  3  0  0  0  0  0  0
  -20.7090  -26.9420   22.5590 C   0  0  0  0  0  2  0  0  0  0  0  0
  -19.5970  -26.6510   21.5460 C   0  0  0  0  0  2  0  0  0  0  0  0
  -18.2220  -26.7990   22.2010 C   0  0  0  0  0  2  0  0  0  0  0  0
  -19.1950  -28.8780   23.3420 C   0  0  0  0  0  0  0  0  0  0  0  0
  -18.9920  -30.1310   23.9600 C   0  0  0  0  0  3  0  0  0  0  0  0
  -17.6940  -30.6410   24.1480 C   0  0  0  0  0  3  0  0  0  0  0  0
  -16.5790  -29.8960   23.7280 C   0  0  0  0  0  3  0  0  0  0  0  0
  -16.7650  -28.6450   23.1120 C   0  0  0  0  0  3  0  0  0  0  0  0
  -25.9370  -32.4950   23.8820 C   0  0  0  0  0  3  0  0  0  0  0  0
  -25.6270  -33.8920   24.2240 N   0  0  0  0  0  0  0  0  0  0  0  0
  -25.9270  -34.9510   23.4600 C   0  0  0  0  0  0  0  0  0  0  0  0
  -26.5640  -34.8550   22.4070 O   0  0  0  0  0  0  0  0  0  0  0  0
  -25.0560  -34.0390   25.0430 H   0  0  0  0  0  0  0  0  0  0  0  0
  -24.1610  -36.7250   23.1920 C   0  0  0  0  0  1  0  0  0  0  0  0
  -25.4470  -36.3350   23.9390 C   0  0  0  0  0  3  0  0  0  0  0  0
  -27.6090  -37.2550   24.6590 C   0  0  0  0  0  1  0  0  0  0  0  0
  -26.4610  -37.4010   23.7680 N   0  0  0  0  0  0  0  0  0  0  0  0
  -26.0500  -38.3170   23.9260 H   0  0  0  0  0  0  0  0  0  0  0  0
  -26.4380  -31.7150   25.1600 C   0  0  1  0  0  0  0  0  0  0  0  0
  -25.3340  -31.4770   26.2170 C   0  0  0  0  0  1  0  0  0  0  0  0
  -27.0190  -30.3350   24.7720 C   0  0  0  0  0  1  0  0  0  0  0  0
  -27.5860  -32.5000   25.8360 C   0  0  0  0  0  1  0  0  0  0  0  0
  1  3  2  0
  1  2  1  0
  2  4  2  0
  3  6  1  0
  4 54  1  0
  4  5  1  0
  5  8  1  0
  6 21  1  0
  6  5  2  0
  7  2  1  0
  9 22  1  0
 10 15  1  0
 11 12  1  0
 11 10  1  0
 13 12  1  0
 13 26  1  0
 13 14  1  0
 15  9  1  0
 15 14  1  0
 16  9  2  0
 18 21  1  0
 19 17  1  0
 20 18  1  0
 20 22  1  0
 21 17  1  0
 22 19  1  0
 23 24  2  0
 24 43  1  0
 25 24  1  0
 25 28  1  0
 26 27  1  0
 26 23  1  0
 27 25  2  0
 28 29  1  0
 29 30  2  0
 31 34  1  0
 31 30  1  0
 32 31  2  0
 33 32  1  0
 33 28  2  0
 34 35  1  0
 35 36  1  0
 36 37  2  0
 38 37  1  0
 38 42  1  0
 39 38  2  0
 40 35  2  0
 40 39  1  0
 41 40  1  0
 43 44  1  0
 44 47  1  0
 44 46  1  0
 45 43  2  0
 48 23  1  0
 48 49  1  0
 50 48  1  0
 52 53  1  0
 53  3  1  0
 53 51  1  0
 55 54  1  0
 56 67  2  0
 57 55  1  0
 57 62  1  0
 58 66  1  0
 58 68  1  0
 59 65  1  0
 59 61  1  0
 60 66  1  0
 61 60  1  0
 62 61  2  0
 63 57  2  0
 64 63  1  0
 64 59  2  0
 65 58  1  0
 66 56  1  0
 68 70  2  0
 69 68  1  0
 71 69  1  0
 72 81  2  0
 72 77  1  0
 73 69  1  0
 73 77  1  0
 74 73  1  0
 75 76  1  0
 75 74  1  0
 76 72  1  0
 77 78  2  0
 78 79  1  0
 80 79  2  0
 81 80  1  0
 82 56  1  0
 82 83  1  0
 82 92  1  0
 83 86  1  0
 84 88  1  0
 84 83  1  0
 85 84  2  0
 88 87  1  0
 90 91  1  0
 90 88  1  0
 90 89  1  0
 92 95  1  1
 92 93  1  0
 94 92  1  0
M  ISO  4   9 100  22 100  54 101  55 101
M  END
>  <TORSDO>  (19) 
F 18

>  <SCORE>  (19) 
-14.245

>  <name>  (19) 
18

>  <ligand_id>  (19) 
18

>  <original_smiles>  (19) 
[H]c1c([H])c([H])c2c(c1[H])C([H])([H])C([H])([H])C([H])([H])C2([H])N([H])C(=O)C1([H])N(C(=O)C([H])(N([H])C(=O)C([H])(N([H])C([H])([H])[H])C([H])([H])[H])C(C([H])([H])[H])(C([H])([H])[H])C([H])([H])[H])C([H])([H])c2c([H])c(OC([H])([H])c3c(C([H])([H])[H])c([H])c(C([H])(C([H])([H])[H])C([H])([H])[H])c(N4C([H])([H])C([H])([H])N(C(=O)N5C([H])([H])C([H])([H])C([H])([H])C([H])(n6nc(-c7c([H])c([H])c(Oc8c([H])c([H])c(F)c([H])c8F)c([H])c7[H])c(C(=O)N([H])[H])c6N([H])[H])C5([H])[H])C([H])([H])C4([H])[H])c3C([H])([H])[H])c([H])c([H])c2C1([H])[H]

>  <smiles>  (19) 
[H]c1c([H])c([H])c2c(c1[H])C([H])([H])C([H])([H])C([H])([H])C2([H])N([H])C(=O)C1([H])N(C(=O)C([H])(N([H])C(=O)C([H])(N([H])C([H])([H])[H])C([H])([H])[H])C(C([H])([H])[H])(C([H])([H])[H])C([H])([H])[H])C([H])([H])c2c([H])c(OC([H])([H])c3c(C([H])([H])[H])c([H])c(C([H])(C([H])([H])[H])C([H])([H])[H])c(N4C([H])([H])C([H])([H])N(C(=O)N5C([H])([H])C([H])([H])C([H])([H])C([H])(n6nc(-c7c([H])c([H])c(Oc8c([H])c([H])c(F)c([H])c8F)c([H])c7[H])c(C(=O)N([H])[H])c6N([H])[H])C5([H])[H])C([H])([H])C4([H])[H])c3C([H])([H])[H])c([H])c([H])c2C1([H])[H]

$$$$
19:0:0
     RDKit          3D

 99108  0  0  1  0  0  0  0  0999 V2000
  -27.5510  -21.8230   21.7340 C   0  0  0  0  0  2  0  0  0  0  0  0
  -28.4140  -21.5520   20.5170 C   0  0  0  0  0  3  0  0  0  0  0  0
  -29.0110  -22.2280   21.7300 C   0  0  0  0  0  3  0  0  0  0  0  0
  -29.6330  -19.2970   20.7070 C   0  0  0  0  0  3  0  0  0  0  0  0
  -28.4480  -18.5070   18.2950 C   0  0  0  0  0  3  0  0  0  0  0  0
  -28.6790  -20.1370   20.0870 C   0  0  0  0  0  0  0  0  0  0  0  0
  -30.0430  -18.0840   20.1050 C   0  0  0  0  0  0  0  0  0  0  0  0
  -29.5340  -17.7710   18.8120 C   0  0  0  0  0  0  0  0  0  0  0  0
  -27.9990  -19.6740   18.9460 C   0  0  0  0  0  0  0  0  0  0  0  0
  -30.1940  -16.7760   17.8720 C   0  0  0  0  0  1  0  0  0  0  0  0
  -32.4600  -17.4590   20.1060 C   0  0  0  0  0  1  0  0  0  0  0  0
  -31.1100  -17.2510   20.8280 C   0  0  0  0  0  3  0  0  0  0  0  0
  -31.4410  -14.7160   20.9300 C   0  0  0  0  0  0  0  0  0  0  0  0
  -31.0880  -12.6680   19.6370 C   0  0  0  0  0  2  0  0  0  0  0  0
  -30.2850  -13.0720   18.3820 C   0  0  0  0  0  2  0  0  0  0  0  0
  -28.7690  -13.0330   18.6700 C   0  0  0  0  0  2  0  0  0  0  0  0
  -28.3790  -13.7460   19.9960 C   0  0  0  0  0  3  0  0  0  0  0  0
  -29.3220  -13.3710   21.1550 C   0  0  0  0  0  2  0  0  0  0  0  0
  -30.7060  -13.5970   20.7080 N   0  0  0  0  0  0  0  0  0  0  0  0
  -32.6630  -14.7580   20.7800 O   0  0  0  0  0  0  0  0  0  0  0  0
  -30.7050  -15.8400   21.0130 N   0  0  0  0  0  0  0  0  0  0  0  0
  -29.7140  -15.6870   21.1050 H   0  0  0  0  0  0  0  0  0  0  0  0
  -25.9520  -14.4850   20.4160 C   0  0  0  0  0  0  0  0  0  0  0  0
  -24.8140  -13.7730   20.6810 C   0  0  0  0  0  0  0  0  0  0  0  0
  -25.2160  -12.4050   20.7370 C   0  0  0  0  0  0  0  0  0  0  0  0
  -26.9750  -13.5510   20.3270 N   0  0  0  0  0  0  0  0  0  0  0  0
  -26.5290  -12.2970   20.5790 N   0  0  0  0  0  0  0  0  0  0  0  0
  -24.4180  -11.1850   20.8770 C   0  0  0  0  0  0  0  0  0  0  0  0
  -24.7540  -10.1940   21.8270 C   0  0  0  0  0  3  0  0  0  0  0  0
  -23.9650   -9.0310   21.9560 C   0  0  0  0  0  3  0  0  0  0  0  0
  -22.8240   -8.8560   21.1390 C   0  0  0  0  0  0  0  0  0  0  0  0
  -22.5080   -9.8340   20.1790 C   0  0  0  0  0  3  0  0  0  0  0  0
  -23.2980  -10.9870   20.0480 C   0  0  0  0  0  3  0  0  0  0  0  0
  -22.0130   -7.7500   21.1770 O   0  0  0  0  0  0  0  0  0  0  0  0
  -21.8630   -7.0060   22.3200 C   0  0  0  0  0  0  0  0  0  0  0  0
  -21.4360   -7.5830   23.5340 C   0  0  0  0  0  3  0  0  0  0  0  0
  -21.2280   -6.7680   24.6650 C   0  0  0  0  0  3  0  0  0  0  0  0
  -21.4390   -5.3790   24.5810 C   0  0  0  0  0  0  0  0  0  0  0  0
  -21.8580   -4.8020   23.3690 C   0  0  0  0  0  3  0  0  0  0  0  0
  -22.0680   -5.6140   22.2410 C   0  0  0  0  0  0  0  0  0  0  0  0
  -22.4530   -5.0510   21.0710 F   0  0  0  0  0  0  0  0  0  0  0  0
  -21.2320   -4.5940   25.6640 F   0  0  0  0  0  0  0  0  0  0  0  0
  -23.4200  -14.3170   20.7810 C   0  0  0  0  0  0  0  0  0  0  0  0
  -22.5790  -13.6940   21.5970 N   0  0  0  0  0  0  0  0  0  0  0  0
  -23.0840  -15.3320   20.1700 O   0  0  0  0  0  0  0  0  0  0  0  0
  -22.8680  -12.8790   22.1190 H   0  0  0  0  0  0  0  0  0  0  0  0
  -21.6340  -14.0340   21.6990 H   0  0  0  0  0  0  0  0  0  0  0  0
  -26.1840  -15.8420   20.2320 N   0  0  0  0  0  0  0  0  0  0  0  0
  -25.4150  -16.5010   20.2320 H   0  0  0  0  0  0  0  0  0  0  0  0
  -27.0750  -16.2760   20.0290 H   0  0  0  0  0  0  0  0  0  0  0  0
  -25.8300  -19.6790   18.0420 C   0  0  0  0  0  1  0  0  0  0  0  0
  -26.9650  -20.4290   18.4530 O   0  0  0  0  0  0  0  0  0  0  0  0
  -29.2970  -23.6890   21.5990 N   0  0  0  0  0  4  0  0  0  0  0  0
  -30.1940  -23.7620   21.1430 H   0  0  0  0  0  0  0  0  0  0  0  0
  -29.4390  -24.0560   22.5290 H   0  0  0  0  0  0  0  0  0  0  0  0
  -28.3670  -24.6170   20.8870 C   0  0  0  0  0  2  0  0  0  0  0  0
  -29.2320  -25.3370   18.5360 C   0  0  0  0  0  1  0  0  0  0  0  0
  -29.1670  -25.6410   20.0440 C   0  0  0  0  0  3  0  0  0  0  0  0
  -28.8990  -27.0130   20.3630 O   0  0  0  0  0  0  0  0  0  0  0  0
  -24.7380  -31.9260   23.3050 C   0  0  0  0  0  0  0  0  0  0  0  0
  -27.6530  -27.6070   20.3050 C   0  0  0  0  0  0  0  0  0  0  0  0
  -23.6400  -30.4960   21.6090 C   0  0  0  0  0  3  0  0  0  0  0  0
  -25.1990  -29.0170   20.2340 C   0  0  0  0  0  0  0  0  0  0  0  0
  -26.1550  -30.9500   21.5010 C   0  0  0  0  0  2  0  0  0  0  0  0
  -26.3140  -29.5880   20.8620 C   0  0  0  0  0  0  0  0  0  0  0  0
  -27.5400  -28.8890   20.8860 C   0  0  0  0  0  3  0  0  0  0  0  0
  -26.5080  -27.0330   19.7050 C   0  0  0  0  0  3  0  0  0  0  0  0
  -25.2940  -27.7420   19.6500 C   0  0  0  0  0  3  0  0  0  0  0  0
  -23.9230  -29.8270   20.2350 C   0  0  0  0  0  2  0  0  0  0  0  0
  -24.8590  -31.1410   22.1970 N   0  0  0  0  0  0  0  0  0  0  0  0
  -23.6300  -32.1540   23.8080 O   0  0  0  0  0  0  0  0  0  0  0  0
  -22.9920  -29.4480   22.5410 C   0  0  0  0  0  0  0  0  0  0  0  0
  -21.6730  -29.2470   22.3880 N   0  0  0  0  0  0  0  0  0  0  0  0
  -23.6730  -28.8230   23.3580 O   0  0  0  0  0  0  0  0  0  0  0  0
  -21.1870  -29.8040   21.7010 H   0  0  0  0  0  0  0  0  0  0  0  0
  -18.3030  -28.0380   22.8480 C   0  0  0  0  0  0  0  0  0  0  0  0
  -20.8600  -28.2810   23.1240 C   0  0  0  0  0  3  0  0  0  0  0  0
  -20.9620  -26.8750   22.4910 C   0  0  0  0  0  2  0  0  0  0  0  0
  -19.8580  -26.5920   21.4710 C   0  0  0  0  0  2  0  0  0  0  0  0
  -18.4780  -26.7140   22.1240 C   0  0  0  0  0  2  0  0  0  0  0  0
  -19.4230  -28.7800   23.3040 C   0  0  0  0  0  0  0  0  0  0  0  0
  -19.2090  -30.0210   23.9400 C   0  0  0  0  0  3  0  0  0  0  0  0
  -17.9040  -30.5170   24.1310 C   0  0  0  0  0  3  0  0  0  0  0  0
  -16.7980  -29.7710   23.6910 C   0  0  0  0  0  3  0  0  0  0  0  0
  -17.0000  -28.5360   23.0540 C   0  0  0  0  0  3  0  0  0  0  0  0
  -25.9780  -32.5950   23.9770 C   0  0  0  0  0  3  0  0  0  0  0  0
  -25.6280  -33.9940   24.2590 N   0  0  0  0  0  0  0  0  0  0  0  0
  -25.9730  -35.0330   23.4890 C   0  0  0  0  0  0  0  0  0  0  0  0
  -26.6920  -34.9160   22.4920 O   0  0  0  0  0  0  0  0  0  0  0  0
  -24.9920  -34.1530   25.0260 H   0  0  0  0  0  0  0  0  0  0  0  0
  -24.2170  -36.7700   23.0200 C   0  0  0  0  0  1  0  0  0  0  0  0
  -25.4380  -36.4210   23.8850 C   0  0  0  0  0  3  0  0  0  0  0  0
  -27.5230  -37.3830   24.7600 C   0  0  0  0  0  1  0  0  0  0  0  0
  -26.4490  -37.4960   23.7750 N   0  0  0  0  0  0  0  0  0  0  0  0
  -26.0180  -38.4100   23.8800 H   0  0  0  0  0  0  0  0  0  0  0  0
  -26.4440  -31.8600   25.2940 C   0  0  1  0  0  0  0  0  0  0  0  0
  -25.2970  -31.5750   26.2920 C   0  0  0  0  0  1  0  0  0  0  0  0
  -27.1190  -30.5100   24.9530 C   0  0  0  0  0  1  0  0  0  0  0  0
  -27.5100  -32.7140   26.0240 C   0  0  0  0  0  1  0  0  0  0  0  0
  2  6  1  0
  2  3  1  0
  2  1  1  0
  3 53  1  0
  3  1  1  0
  5  8  1  0
  5  9  2  0
  6  4  2  0
  7  4  1  0
  7 12  1  0
  8  7  2  0
  9  6  1  0
 10  8  1  0
 12 11  1  0
 12 21  1  0
 13 21  1  0
 14 19  1  0
 15 16  1  0
 15 14  1  0
 17 16  1  0
 17 26  1  0
 17 18  1  0
 19 13  1  0
 19 18  1  0
 20 13  2  0
 21 22  1  0
 23 24  2  0
 24 25  1  0
 24 43  1  0
 25 28  1  0
 26 23  1  0
 26 27  1  0
 27 25  2  0
 28 29  1  0
 29 30  2  0
 31 34  1  0
 31 30  1  0
 32 31  2  0
 33 32  1  0
 33 28  2  0
 34 35  1  0
 35 36  1  0
 36 37  2  0
 38 37  1  0
 38 42  1  0
 39 38  2  0
 40 35  2  0
 40 39  1  0
 41 40  1  0
 43 44  1  0
 44 47  1  0
 44 46  1  0
 45 43  2  0
 48 23  1  0
 49 48  1  0
 50 48  1  0
 51 52  1  0
 52  9  1  0
 53 55  1  0
 54 53  1  0
 56 53  1  0
 58 57  1  0
 58 59  1  0
 58 56  1  0
 60 71  2  0
 61 59  1  0
 61 66  1  0
 62 70  1  0
 62 72  1  0
 63 69  1  0
 63 65  1  0
 64 70  1  0
 65 66  2  0
 65 64  1  0
 67 61  2  0
 68 67  1  0
 68 63  2  0
 69 62  1  0
 70 60  1  0
 72 74  2  0
 73 72  1  0
 75 73  1  0
 76 85  2  0
 76 81  1  0
 77 73  1  0
 77 81  1  0
 78 77  1  0
 79 80  1  0
 79 78  1  0
 80 76  1  0
 81 82  2  0
 82 83  1  0
 84 83  2  0
 85 84  1  0
 86 60  1  0
 86 87  1  0
 86 96  1  0
 87 90  1  0
 88 92  1  0
 88 87  1  0
 89 88  2  0
 92 91  1  0
 94 95  1  0
 94 92  1  0
 94 93  1  0
 96 99  1  1
 96 97  1  0
 98 96  1  0
M  ISO  4  13 100  21 100  58 101  59 101
M  END
>  <TORSDO>  (20) 
F 22

>  <SCORE>  (20) 
-11.596

>  <name>  (20) 
19

>  <ligand_id>  (20) 
19

>  <original_smiles>  (20) 
[H]c1c([H])c([H])c2c(c1[H])C([H])([H])C([H])([H])C([H])([H])C2([H])N([H])C(=O)C1([H])N(C(=O)C([H])(N([H])C(=O)C([H])(N([H])C([H])([H])[H])C([H])([H])[H])C(C([H])([H])[H])(C([H])([H])[H])C([H])([H])[H])C([H])([H])c2c([H])c(OC([H])(C([H])([H])[H])C([H])([H])[N+]([H])([H])C3([H])C([H])([H])C3([H])c3c([H])c(C([H])(N([H])C(=O)N4C([H])([H])C([H])([H])C([H])([H])C([H])(n5nc(-c6c([H])c([H])c(Oc7c([H])c([H])c(F)c([H])c7F)c([H])c6[H])c(C(=O)N([H])[H])c5N([H])[H])C4([H])[H])C([H])([H])[H])c(C([H])([H])[H])c([H])c3OC([H])([H])[H])c([H])c([H])c2C1([H])[H]

>  <smiles>  (20) 
[H]c1c([H])c([H])c2c(c1[H])C([H])([H])C([H])([H])C([H])([H])C2([H])N([H])C(=O)C1([H])N(C(=O)C([H])(N([H])C(=O)C([H])(N([H])C([H])([H])[H])C([H])([H])[H])C(C([H])([H])[H])(C([H])([H])[H])C([H])([H])[H])C([H])([H])c2c([H])c(OC([H])(C([H])([H])[H])C([H])([H])[N+]([H])([H])C3([H])C([H])([H])C3([H])c3c([H])c(C([H])(N([H])C(=O)N4C([H])([H])C([H])([H])C([H])([H])C([H])(n5nc(-c6c([H])c([H])c(Oc7c([H])c([H])c(F)c([H])c7F)c([H])c6[H])c(C(=O)N([H])[H])c5N([H])[H])C4([H])[H])C([H])([H])[H])c(C([H])([H])[H])c([H])c3OC([H])([H])[H])c([H])c([H])c2C1([H])[H]

$$$$
20:0:0
     RDKit          3D

 98107  0  0  1  0  0  0  0  0999 V2000
  -29.6670  -24.1700   20.3600 C   0  0  0  0  0  0  0  0  0  0  0  0
  -30.8080  -25.0320   20.5500 C   0  0  0  0  0  0  0  0  0  0  0  0
  -29.9880  -22.6930   20.2210 C   0  0  0  0  0  0  0  0  0  0  0  0
  -32.0970  -24.5910   20.2140 C   0  0  0  0  0  0  0  0  0  0  0  0
  -31.3960  -22.4120   20.0740 C   0  0  0  0  0  0  0  0  0  0  0  0
  -30.7340  -26.4310   21.1700 C   0  0  0  0  0  1  0  0  0  0  0  0
  -33.3290  -25.4860   20.2060 C   0  0  0  0  0  1  0  0  0  0  0  0
  -32.0620  -21.0440   20.1740 C   0  0  0  0  0  1  0  0  0  0  0  0
  -32.3620  -23.3250   19.9400 N   0  0  0  0  0  0  0  0  0  0  0  0
  -29.1370  -21.4930   20.3150 N   0  0  0  0  0  0  0  0  0  0  0  0
  -28.4730  -21.5350   21.0880 H   0  0  0  0  0  0  0  0  0  0  0  0
  -29.3250  -18.8370   20.4550 C   0  0  0  0  0  3  0  0  0  0  0  0
  -29.8740  -17.6590   18.4300 C   0  0  0  0  0  3  0  0  0  0  0  0
  -29.6200  -17.5430   19.8120 C   0  0  0  0  0  0  0  0  0  0  0  0
  -29.3130  -20.1330   19.7450 C   0  0  0  0  0  0  0  0  0  0  0  0
  -29.5140  -19.9880   18.3420 C   0  0  0  0  0  0  0  0  0  0  0  0
  -29.4190  -21.1710   17.3870 C   0  0  0  0  0  1  0  0  0  0  0  0
  -29.8050  -18.8150   17.7290 N   0  0  0  0  0  0  0  0  0  0  0  0
  -30.3640  -15.0090   20.1200 C   0  0  0  0  0  0  0  0  0  0  0  0
  -30.2560  -12.6730   19.2120 C   0  0  0  0  0  2  0  0  0  0  0  0
  -29.2860  -12.6750   18.0090 C   0  0  0  0  0  2  0  0  0  0  0  0
  -27.8440  -12.4210   18.4850 C   0  0  0  0  0  2  0  0  0  0  0  0
  -27.4650  -13.2940   19.7100 C   0  0  0  0  0  3  0  0  0  0  0  0
  -28.5600  -13.3210   20.7990 C   0  0  0  0  0  2  0  0  0  0  0  0
  -29.8090  -13.7390   20.1490 N   0  0  0  0  0  0  0  0  0  0  0  0
  -31.5190  -15.1320   19.7020 O   0  0  0  0  0  0  0  0  0  0  0  0
  -29.5940  -16.1500   20.4170 N   0  0  0  0  0  0  0  0  0  0  0  0
  -28.8060  -15.9650   21.0220 H   0  0  0  0  0  0  0  0  0  0  0  0
  -25.1010  -13.7780   20.5480 C   0  0  0  0  0  0  0  0  0  0  0  0
  -24.0760  -12.9580   20.9420 C   0  0  0  0  0  0  0  0  0  0  0  0
  -24.5820  -11.6240   20.8590 C   0  0  0  0  0  0  0  0  0  0  0  0
  -26.1590  -12.9390   20.2490 N   0  0  0  0  0  0  0  0  0  0  0  0
  -25.8600  -11.6380   20.4950 N   0  0  0  0  0  0  0  0  0  0  0  0
  -23.9000  -10.3340   21.0500 C   0  0  0  0  0  0  0  0  0  0  0  0
  -24.3690   -9.3830   21.9830 C   0  0  0  0  0  3  0  0  0  0  0  0
  -23.6880   -8.1590   22.1610 C   0  0  0  0  0  3  0  0  0  0  0  0
  -22.5240   -7.8760   21.4080 C   0  0  0  0  0  0  0  0  0  0  0  0
  -22.0780   -8.8150   20.4600 C   0  0  0  0  0  3  0  0  0  0  0  0
  -22.7600  -10.0320   20.2810 C   0  0  0  0  0  3  0  0  0  0  0  0
  -21.8150   -6.7020   21.4930 O   0  0  0  0  0  0  0  0  0  0  0  0
  -21.7610   -5.9760   22.6570 C   0  0  0  0  0  0  0  0  0  0  0  0
  -21.2400   -6.5200   23.8490 C   0  0  0  0  0  3  0  0  0  0  0  0
  -21.1410   -5.7210   25.0060 C   0  0  0  0  0  3  0  0  0  0  0  0
  -21.5490   -4.3740   24.9650 C   0  0  0  0  0  0  0  0  0  0  0  0
  -22.0610   -3.8260   23.7770 C   0  0  0  0  0  3  0  0  0  0  0  0
  -22.1650   -4.6260   22.6240 C   0  0  0  0  0  0  0  0  0  0  0  0
  -22.6410   -4.0900   21.4740 F   0  0  0  0  0  0  0  0  0  0  0  0
  -21.4460   -3.5990   26.0710 F   0  0  0  0  0  0  0  0  0  0  0  0
  -22.6790  -13.3810   21.2790 C   0  0  0  0  0  0  0  0  0  0  0  0
  -22.0140  -12.6390   22.1580 N   0  0  0  0  0  0  0  0  0  0  0  0
  -22.1830  -14.4000   20.8010 O   0  0  0  0  0  0  0  0  0  0  0  0
  -22.4320  -11.8110   22.5560 H   0  0  0  0  0  0  0  0  0  0  0  0
  -21.0740  -12.8940   22.4250 H   0  0  0  0  0  0  0  0  0  0  0  0
  -25.2180  -15.1540   20.3910 N   0  0  0  0  0  0  0  0  0  0  0  0
  -24.4320  -15.7840   20.5130 H   0  0  0  0  0  0  0  0  0  0  0  0
  -26.0180  -15.6080   19.9710 H   0  0  0  0  0  0  0  0  0  0  0  0
  -28.2610  -24.9850   20.3490 C   0  0  0  0  0  2  0  0  0  0  0  0
  -28.2860  -26.4970   20.0850 O   0  0  0  0  0  0  0  0  0  0  0  0
  -24.5890  -31.9700   23.2020 C   0  0  0  0  0  0  0  0  0  0  0  0
  -27.1480  -27.3490   20.1040 C   0  0  0  0  0  0  0  0  0  0  0  0
  -23.3540  -30.5570   21.5960 C   0  0  0  0  0  3  0  0  0  0  0  0
  -24.7770  -28.9910   20.1450 C   0  0  0  0  0  0  0  0  0  0  0  0
  -25.8880  -30.8780   21.3420 C   0  0  0  0  0  2  0  0  0  0  0  0
  -25.9610  -29.4860   20.7040 C   0  0  0  0  0  0  0  0  0  0  0  0
  -27.1500  -28.6820   20.6550 C   0  0  0  0  0  3  0  0  0  0  0  0
  -25.9320  -26.9190   19.5300 C   0  0  0  0  0  3  0  0  0  0  0  0
  -24.7690  -27.7200   19.5440 C   0  0  0  0  0  3  0  0  0  0  0  0
  -23.5370  -29.8600   20.2180 C   0  0  0  0  0  2  0  0  0  0  0  0
  -24.6330  -31.1540   22.1040 N   0  0  0  0  0  0  0  0  0  0  0  0
  -23.5160  -32.2440   23.7600 O   0  0  0  0  0  0  0  0  0  0  0  0
  -22.7130  -29.5510   22.5810 C   0  0  0  0  0  0  0  0  0  0  0  0
  -21.3920  -29.3350   22.4550 N   0  0  0  0  0  0  0  0  0  0  0  0
  -23.4040  -28.9640   23.4190 O   0  0  0  0  0  0  0  0  0  0  0  0
  -20.8940  -29.8610   21.7520 H   0  0  0  0  0  0  0  0  0  0  0  0
  -18.0660  -27.9760   22.9050 C   0  0  0  0  0  0  0  0  0  0  0  0
  -20.5950  -28.3890   23.2410 C   0  0  0  0  0  3  0  0  0  0  0  0
  -20.7930  -26.9410   22.7360 C   0  0  0  0  0  2  0  0  0  0  0  0
  -19.7450  -26.5140   21.7040 C   0  0  0  0  0  2  0  0  0  0  0  0
  -18.3360  -26.6110   22.2960 C   0  0  0  0  0  2  0  0  0  0  0  0
  -19.1260  -28.8170   23.3320 C   0  0  0  0  0  0  0  0  0  0  0  0
  -18.8180  -30.0900   23.8620 C   0  0  0  0  0  3  0  0  0  0  0  0
  -17.4830  -30.5230   23.9670 C   0  0  0  0  0  3  0  0  0  0  0  0
  -16.4370  -29.6800   23.5530 C   0  0  0  0  0  3  0  0  0  0  0  0
  -16.7290  -28.4070   23.0300 C   0  0  0  0  0  3  0  0  0  0  0  0
  -25.8800  -32.6100   23.7940 C   0  0  0  0  0  3  0  0  0  0  0  0
  -26.4370  -31.8340   25.0530 C   0  0  1  0  0  0  0  0  0  0  0  0
  -25.3730  -31.5740   26.1450 C   0  0  0  0  0  1  0  0  0  0  0  0
  -27.0220  -30.4660   24.6350 C   0  0  0  0  0  1  0  0  0  0  0  0
  -27.6010  -32.6310   25.6890 C   0  0  0  0  0  1  0  0  0  0  0  0
  -25.5690  -34.0050   24.1440 N   0  0  0  0  0  0  0  0  0  0  0  0
  -25.8970  -35.0690   23.3980 C   0  0  0  0  0  0  0  0  0  0  0  0
  -26.5580  -34.9780   22.3600 O   0  0  0  0  0  0  0  0  0  0  0  0
  -24.9820  -34.1480   24.9530 H   0  0  0  0  0  0  0  0  0  0  0  0
  -24.1710  -36.8720   23.0690 C   0  0  0  0  0  1  0  0  0  0  0  0
  -25.4130  -36.4540   23.8740 C   0  0  0  0  0  3  0  0  0  0  0  0
  -27.5500  -37.3260   24.7130 C   0  0  0  0  0  1  0  0  0  0  0  0
  -26.4490  -37.5050   23.7710 N   0  0  0  0  0  0  0  0  0  0  0  0
  -26.0460  -38.4250   23.9280 H   0  0  0  0  0  0  0  0  0  0  0  0
  1  2  1  0
  2  6  1  0
  3 10  1  0
  3  1  2  0
  4  2  2  0
  5  8  1  0
  5  3  1  0
  7  4  1  0
  9  5  2  0
  9  4  1  0
 10 11  1  0
 13 14  2  0
 14 27  1  0
 14 12  1  0
 15 10  1  0
 15 12  2  0
 16 15  1  0
 17 16  1  0
 18 16  2  0
 18 13  1  0
 19 25  1  0
 19 27  1  0
 20 25  1  0
 21 22  1  0
 21 20  1  0
 23 22  1  0
 23 32  1  0
 23 24  1  0
 25 24  1  0
 26 19  2  0
 27 28  1  0
 29 30  2  0
 30 49  1  0
 31 30  1  0
 31 34  1  0
 32 33  1  0
 32 29  1  0
 33 31  2  0
 34 35  1  0
 35 36  2  0
 37 40  1  0
 37 36  1  0
 38 37  2  0
 39 38  1  0
 39 34  2  0
 40 41  1  0
 41 42  1  0
 42 43  2  0
 44 43  1  0
 44 48  1  0
 45 44  2  0
 46 41  2  0
 46 45  1  0
 47 46  1  0
 49 50  1  0
 50 53  1  0
 50 52  1  0
 51 49  2  0
 54 55  1  0
 54 29  1  0
 56 54  1  0
 57  1  1  0
 58 60  1  0
 58 57  1  0
 59 70  2  0
 60 65  1  0
 61 69  1  0
 61 71  1  0
 62 68  1  0
 62 64  1  0
 63 69  1  0
 64 63  1  0
 65 64  2  0
 66 67  1  0
 66 60  2  0
 67 62  2  0
 68 61  1  0
 69 59  1  0
 71 73  2  0
 72 71  1  0
 74 72  1  0
 75 84  2  0
 75 80  1  0
 76 72  1  0
 76 80  1  0
 77 76  1  0
 78 79  1  0
 78 77  1  0
 79 75  1  0
 80 81  2  0
 81 82  1  0
 83 82  2  0
 84 83  1  0
 85 59  1  0
 85 90  1  0
 85 86  1  0
 86 89  1  1
 86 87  1  0
 88 86  1  0
 90 93  1  0
 91 95  1  0
 91 90  1  0
 92 91  2  0
 95 94  1  0
 97 95  1  0
 97 98  1  0
 97 96  1  0
M  ISO  4  19 100  27 100  57 101  58 101
M  END
>  <TORSDO>  (21) 
F 19

>  <SCORE>  (21) 
-14.382

>  <name>  (21) 
20

>  <ligand_id>  (21) 
20

>  <original_smiles>  (21) 
[H]c1nc(C([H])([H])[H])c(N([H])c2c(C([H])([H])[H])nc(C([H])([H])[H])c(C([H])([H])[H])c2C([H])([H])Oc2c([H])c([H])c3c(c2[H])C([H])([H])N(C(=O)C([H])(N([H])C(=O)C([H])(N([H])C([H])([H])[H])C([H])([H])[H])C(C([H])([H])[H])(C([H])([H])[H])C([H])([H])[H])C([H])(C(=O)N([H])C2([H])c4c([H])c([H])c([H])c([H])c4C([H])([H])C([H])([H])C2([H])[H])C3([H])[H])c([H])c1N([H])C(=O)N1C([H])([H])C([H])([H])C([H])([H])C([H])(n2nc(-c3c([H])c([H])c(Oc4c([H])c([H])c(F)c([H])c4F)c([H])c3[H])c(C(=O)N([H])[H])c2N([H])[H])C1([H])[H]

>  <smiles>  (21) 
[H]c1nc(C([H])([H])[H])c(N([H])c2c(C([H])([H])[H])nc(C([H])([H])[H])c(C([H])([H])[H])c2C([H])([H])Oc2c([H])c([H])c3c(c2[H])C([H])([H])N(C(=O)C([H])(N([H])C(=O)C([H])(N([H])C([H])([H])[H])C([H])([H])[H])C(C([H])([H])[H])(C([H])([H])[H])C([H])([H])[H])C([H])(C(=O)N([H])C2([H])c4c([H])c([H])c([H])c([H])c4C([H])([H])C([H])([H])C2([H])[H])C3([H])[H])c([H])c1N([H])C(=O)N1C([H])([H])C([H])([H])C([H])([H])C([H])(n2nc(-c3c([H])c([H])c(Oc4c([H])c([H])c(F)c([H])c4F)c([H])c3[H])c(C(=O)N([H])[H])c2N([H])[H])C1([H])[H]

$$$$
21:0:0
     RDKit          3D

 96106  0  0  1  0  0  0  0  0999 V2000
  -30.1270  -20.6420   21.1180 C   0  0  0  0  0  3  0  0  0  0  0  0
  -28.2570  -20.3420   19.5810 C   0  0  0  0  0  3  0  0  0  0  0  0
  -29.3780  -19.8060   20.2640 C   0  0  0  0  0  0  0  0  0  0  0  0
  -29.7270  -21.9800   21.1880 C   0  0  0  0  0  0  0  0  0  0  0  0
  -28.6510  -22.4230   20.4510 C   0  0  0  0  0  0  0  0  0  0  0  0
  -28.4920  -23.9080   20.5960 C   0  0  0  0  0  2  0  0  0  0  0  0
  -30.3750  -23.1090   21.9370 C   0  0  0  0  0  3  0  0  0  0  0  0
  -30.5340  -22.8180   23.4360 C   0  0  0  0  0  1  0  0  0  0  0  0
  -27.8910  -21.6440   19.6570 N   0  0  0  0  0  0  0  0  0  0  0  0
  -29.4760  -24.2720   21.6670 N   0  0  1  0  0  4  0  0  0  0  0  0
  -28.9170  -24.3830   22.5000 H   0  0  0  0  0  0  0  0  0  0  0  0
  -30.8620  -14.4580   19.9940 C   0  0  0  0  0  0  0  0  0  0  0  0
  -30.5490  -12.2650   18.9440 C   0  0  0  0  0  2  0  0  0  0  0  0
  -29.5380  -12.4370   17.7910 C   0  0  0  0  0  2  0  0  0  0  0  0
  -28.0870  -12.3110   18.3060 C   0  0  0  0  0  2  0  0  0  0  0  0
  -27.8090  -13.1630   19.5750 C   0  0  0  0  0  3  0  0  0  0  0  0
  -28.9340  -12.9620   20.6180 C   0  0  0  0  0  2  0  0  0  0  0  0
  -30.2190  -13.2640   19.9640 N   0  0  0  0  0  0  0  0  0  0  0  0
  -32.0020  -14.6240   19.5430 O   0  0  0  0  0  0  0  0  0  0  0  0
  -29.8490  -17.5940   21.4230 C   0  0  0  0  0  2  0  0  0  0  0  0
  -29.0700  -17.5940   19.0030 C   0  0  0  0  0  2  0  0  0  0  0  0
  -29.5200  -16.0920   21.2790 C   0  0  0  0  0  2  0  0  0  0  0  0
  -29.7740  -16.2530   18.7720 C   0  0  0  0  0  2  0  0  0  0  0  0
  -29.8280  -18.3660   20.0900 C   0  0  0  0  0  3  0  0  0  0  0  0
  -30.0130  -15.5050   20.0220 N   0  0  0  0  0  0  0  0  0  0  0  0
  -25.4690  -13.7590   20.4730 C   0  0  0  0  0  0  0  0  0  0  0  0
  -24.4230  -12.9750   20.8870 C   0  0  0  0  0  0  0  0  0  0  0  0
  -24.8760  -11.6250   20.7700 C   0  0  0  0  0  0  0  0  0  0  0  0
  -26.4900  -12.8820   20.1370 N   0  0  0  0  0  0  0  0  0  0  0  0
  -26.1400  -11.5930   20.3740 N   0  0  0  0  0  0  0  0  0  0  0  0
  -24.1600  -10.3570   20.9610 C   0  0  0  0  0  0  0  0  0  0  0  0
  -24.5950   -9.4000   21.9040 C   0  0  0  0  0  3  0  0  0  0  0  0
  -23.8810   -8.1960   22.0810 C   0  0  0  0  0  3  0  0  0  0  0  0
  -22.7190   -7.9390   21.3130 C   0  0  0  0  0  0  0  0  0  0  0  0
  -22.3050   -8.8840   20.3580 C   0  0  0  0  0  3  0  0  0  0  0  0
  -23.0200  -10.0810   20.1800 C   0  0  0  0  0  3  0  0  0  0  0  0
  -21.9790   -6.7850   21.3980 O   0  0  0  0  0  0  0  0  0  0  0  0
  -21.8290   -6.1110   22.5830 C   0  0  0  0  0  0  0  0  0  0  0  0
  -21.2110   -6.7080   23.7040 C   0  0  0  0  0  3  0  0  0  0  0  0
  -21.0140   -5.9570   24.8810 C   0  0  0  0  0  3  0  0  0  0  0  0
  -21.4230   -4.6090   24.9350 C   0  0  0  0  0  0  0  0  0  0  0  0
  -22.0320   -4.0140   23.8170 C   0  0  0  0  0  3  0  0  0  0  0  0
  -22.2320   -4.7620   22.6430 C   0  0  0  0  0  0  0  0  0  0  0  0
  -22.8000   -4.1760   21.5620 F   0  0  0  0  0  0  0  0  0  0  0  0
  -21.2270   -3.8860   26.0620 F   0  0  0  0  0  0  0  0  0  0  0  0
  -23.0500  -13.4430   21.2740 C   0  0  0  0  0  0  0  0  0  0  0  0
  -22.3880  -12.7200   22.1730 N   0  0  0  0  0  0  0  0  0  0  0  0
  -22.5750  -14.4800   20.8150 O   0  0  0  0  0  0  0  0  0  0  0  0
  -22.7840  -11.8770   22.5600 H   0  0  0  0  0  0  0  0  0  0  0  0
  -21.4710  -13.0150   22.4780 H   0  0  0  0  0  0  0  0  0  0  0  0
  -25.6290  -15.1350   20.3370 N   0  0  0  0  0  0  0  0  0  0  0  0
  -24.8740  -15.7870   20.5130 H   0  0  0  0  0  0  0  0  0  0  0  0
  -26.4640  -15.5790   19.9740 H   0  0  0  0  0  0  0  0  0  0  0  0
  -30.2390  -25.5290   21.4380 C   0  0  0  0  0  2  0  0  0  0  0  0
  -29.3680  -26.7900   21.4500 C   0  0  0  0  0  2  0  0  0  0  0  0
  -28.5650  -26.7600   20.2790 O   0  0  0  0  0  0  0  0  0  0  0  0
  -24.6200  -31.8950   23.2590 C   0  0  0  0  0  0  0  0  0  0  0  0
  -27.4230  -27.5170   20.2870 C   0  0  0  0  0  0  0  0  0  0  0  0
  -23.4860  -30.4870   21.5680 C   0  0  0  0  0  3  0  0  0  0  0  0
  -25.0070  -28.9670   20.1950 C   0  0  0  0  0  0  0  0  0  0  0  0
  -26.0040  -30.8840   21.4570 C   0  0  0  0  0  2  0  0  0  0  0  0
  -26.1270  -29.5130   20.8320 C   0  0  0  0  0  0  0  0  0  0  0  0
  -27.3370  -28.7940   20.8870 C   0  0  0  0  0  3  0  0  0  0  0  0
  -26.2920  -26.9810   19.6400 C   0  0  0  0  0  3  0  0  0  0  0  0
  -25.0810  -27.6970   19.5960 C   0  0  0  0  0  3  0  0  0  0  0  0
  -23.7510  -29.8070   20.1960 C   0  0  0  0  0  2  0  0  0  0  0  0
  -24.7190  -31.1000   22.1570 N   0  0  0  0  0  0  0  0  0  0  0  0
  -23.5190  -32.1570   23.7600 O   0  0  0  0  0  0  0  0  0  0  0  0
  -22.8090  -29.4570   22.4990 C   0  0  0  0  0  0  0  0  0  0  0  0
  -21.4850  -29.2970   22.3450 N   0  0  0  0  0  0  0  0  0  0  0  0
  -23.4720  -28.8080   23.3120 O   0  0  0  0  0  0  0  0  0  0  0  0
  -21.0150  -29.8760   21.6620 H   0  0  0  0  0  0  0  0  0  0  0  0
  -18.0730  -28.2200   22.8280 C   0  0  0  0  0  0  0  0  0  0  0  0
  -20.6400  -28.3600   23.0840 C   0  0  0  0  0  3  0  0  0  0  0  0
  -20.6790  -26.9530   22.4430 C   0  0  0  0  0  2  0  0  0  0  0  0
  -19.5570  -26.7220   21.4270 C   0  0  0  0  0  2  0  0  0  0  0  0
  -18.1880  -26.8950   22.0920 C   0  0  0  0  0  2  0  0  0  0  0  0
  -19.2260  -28.9150   23.2790 C   0  0  0  0  0  0  0  0  0  0  0  0
  -19.0660  -30.1610   23.9230 C   0  0  0  0  0  3  0  0  0  0  0  0
  -17.7870  -30.7130   24.1190 C   0  0  0  0  0  3  0  0  0  0  0  0
  -16.6470  -30.0110   23.6880 C   0  0  0  0  0  3  0  0  0  0  0  0
  -16.7910  -28.7650   23.0510 C   0  0  0  0  0  3  0  0  0  0  0  0
  -25.8790  -32.5290   23.9300 C   0  0  0  0  0  3  0  0  0  0  0  0
  -25.5580  -33.9270   24.2420 N   0  0  0  0  0  0  0  0  0  0  0  0
  -25.9100  -34.9760   23.4860 C   0  0  0  0  0  0  0  0  0  0  0  0
  -26.6150  -34.8700   22.4790 O   0  0  0  0  0  0  0  0  0  0  0  0
  -24.9400  -34.0840   25.0250 H   0  0  0  0  0  0  0  0  0  0  0  0
  -24.1850  -36.7530   23.0590 C   0  0  0  0  0  1  0  0  0  0  0  0
  -25.4000  -36.3640   23.9160 C   0  0  0  0  0  3  0  0  0  0  0  0
  -27.4890  -37.2740   24.8280 C   0  0  0  0  0  1  0  0  0  0  0  0
  -26.4290  -37.4220   23.8340 N   0  0  0  0  0  0  0  0  0  0  0  0
  -26.0100  -38.3390   23.9590 H   0  0  0  0  0  0  0  0  0  0  0  0
  -26.3480  -31.7590   25.2250 C   0  0  1  0  0  0  0  0  0  0  0  0
  -25.2100  -31.4960   26.2380 C   0  0  0  0  0  1  0  0  0  0  0  0
  -26.9700  -30.3940   24.8460 C   0  0  0  0  0  1  0  0  0  0  0  0
  -27.4530  -32.5650   25.9480 C   0  0  0  0  0  1  0  0  0  0  0  0
  1  4  1  0
  2  9  2  0
  2  3  1  0
  3  1  2  0
  4  7  1  0
  5  6  1  0
  5  4  2  0
  6 10  1  0
  7  8  1  0
  9  5  1  0
 10  7  1  0
 10 11  1  1
 12 25  1  0
 13 18  1  0
 14 15  1  0
 14 13  1  0
 16 15  1  0
 16 29  1  0
 16 17  1  0
 18 12  1  0
 18 17  1  0
 19 12  2  0
 21 24  1  0
 22 20  1  0
 23 21  1  0
 23 25  1  0
 24  3  1  0
 24 20  1  0
 25 22  1  0
 26 27  2  0
 27 46  1  0
 28 27  1  0
 28 31  1  0
 29 30  1  0
 29 26  1  0
 30 28  2  0
 31 32  1  0
 32 33  2  0
 34 37  1  0
 34 33  1  0
 35 34  2  0
 36 35  1  0
 36 31  2  0
 37 38  1  0
 38 43  2  0
 38 39  1  0
 39 40  2  0
 40 41  1  0
 41 45  1  0
 42 41  2  0
 43 42  1  0
 44 43  1  0
 46 47  1  0
 47 50  1  0
 47 49  1  0
 48 46  2  0
 51 26  1  0
 51 52  1  0
 53 51  1  0
 54 55  1  0
 54 10  1  0
 56 58  1  0
 56 55  1  0
 57 68  2  0
 58 63  1  0
 59 67  1  0
 59 69  1  0
 60 66  1  0
 60 62  1  0
 61 67  1  0
 62 63  2  0
 62 61  1  0
 64 58  2  0
 65 64  1  0
 65 60  2  0
 66 59  1  0
 67 57  1  0
 69 71  2  0
 70 69  1  0
 72 70  1  0
 73 82  2  0
 73 78  1  0
 74 70  1  0
 74 78  1  0
 75 74  1  0
 76 77  1  0
 76 75  1  0
 77 73  1  0
 78 79  2  0
 79 80  1  0
 81 80  2  0
 82 81  1  0
 83 57  1  0
 83 84  1  0
 83 93  1  0
 84 87  1  0
 85 89  1  0
 85 84  1  0
 86 85  2  0
 89 88  1  0
 91 89  1  0
 91 92  1  0
 91 90  1  0
 93 96  1  1
 93 94  1  0
 95 93  1  0
M  ISO  4  12 100  25 100  55 101  56 101
M  END
>  <TORSDO>  (22) 
F 18

>  <SCORE>  (22) 
-14.527

>  <name>  (22) 
21

>  <ligand_id>  (22) 
21

>  <original_smiles>  (22) 
[H]c1nc2c(c([H])c1C1([H])C([H])([H])C([H])([H])N(C(=O)N3C([H])([H])C([H])([H])C([H])([H])C([H])(n4nc(-c5c([H])c([H])c(Oc6c([H])c([H])c(F)c([H])c6F)c([H])c5[H])c(C(=O)N([H])[H])c4N([H])[H])C3([H])[H])C([H])([H])C1([H])[H])C([H])(C([H])([H])[H])[N+]([H])(C([H])([H])C([H])([H])Oc1c([H])c([H])c3c(c1[H])C([H])([H])N(C(=O)C([H])(N([H])C(=O)C([H])(N([H])C([H])([H])[H])C([H])([H])[H])C(C([H])([H])[H])(C([H])([H])[H])C([H])([H])[H])C([H])(C(=O)N([H])C1([H])c4c([H])c([H])c([H])c([H])c4C([H])([H])C([H])([H])C1([H])[H])C3([H])[H])C2([H])[H]

>  <smiles>  (22) 
[H]c1nc2c(c([H])c1C1([H])C([H])([H])C([H])([H])N(C(=O)N3C([H])([H])C([H])([H])C([H])([H])C([H])(n4nc(-c5c([H])c([H])c(Oc6c([H])c([H])c(F)c([H])c6F)c([H])c5[H])c(C(=O)N([H])[H])c4N([H])[H])C3([H])[H])C([H])([H])C1([H])[H])C([H])(C([H])([H])[H])[N+]([H])(C([H])([H])C([H])([H])Oc1c([H])c([H])c3c(c1[H])C([H])([H])N(C(=O)C([H])(N([H])C(=O)C([H])(N([H])C([H])([H])[H])C([H])([H])[H])C(C([H])([H])[H])(C([H])([H])[H])C([H])([H])[H])C([H])(C(=O)N([H])C1([H])c4c([H])c([H])c([H])c([H])c4C([H])([H])C([H])([H])C1([H])[H])C3([H])[H])C2([H])[H]

$$$$
22:0:0
     RDKit          3D

 97106  0  0  1  0  0  0  0  0999 V2000
  -28.3990  -21.9670   21.0090 C   0  0  0  0  0  0  0  0  0  0  0  0
  -27.6420  -21.2570   20.0260 C   0  0  0  0  0  0  0  0  0  0  0  0
  -29.4160  -21.0940   21.3180 C   0  0  0  0  0  0  0  0  0  0  0  0
  -26.3770  -21.6820   19.3370 C   0  0  0  0  0  1  0  0  0  0  0  0
  -30.5320  -21.1920   22.3090 C   0  0  0  0  0  1  0  0  0  0  0  0
  -28.1660  -20.0780   19.7330 N   0  0  0  0  0  0  0  0  0  0  0  0
  -29.2710  -19.9810   20.5010 N   0  0  0  0  0  0  0  0  0  0  0  0
  -31.6520  -14.8330   19.9620 C   0  0  0  0  0  0  0  0  0  0  0  0
  -31.2780  -12.5520   19.1230 C   0  0  0  0  0  2  0  0  0  0  0  0
  -30.3490  -12.6240   17.8940 C   0  0  0  0  0  2  0  0  0  0  0  0
  -28.8720  -12.5830   18.3330 C   0  0  0  0  0  2  0  0  0  0  0  0
  -28.5530  -13.5920   19.4700 C   0  0  0  0  0  3  0  0  0  0  0  0
  -29.6010  -13.5050   20.6000 C   0  0  0  0  0  2  0  0  0  0  0  0
  -30.9310  -13.6820   19.9970 N   0  0  0  0  0  0  0  0  0  0  0  0
  -32.7970  -14.8870   19.4970 O   0  0  0  0  0  0  0  0  0  0  0  0
  -30.0180  -18.0700   19.0580 C   0  0  0  0  0  2  0  0  0  0  0  0
  -29.8790  -17.7610   21.5210 C   0  0  0  0  0  2  0  0  0  0  0  0
  -31.0570  -16.9400   18.9900 C   0  0  0  0  0  2  0  0  0  0  0  0
  -30.9140  -16.6150   21.4330 C   0  0  0  0  0  2  0  0  0  0  0  0
  -30.1270  -18.7930   20.4080 C   0  0  0  0  0  3  0  0  0  0  0  0
  -30.9380  -15.9760   20.1030 N   0  0  0  0  0  0  0  0  0  0  0  0
  -26.2350  -14.3650   20.2790 C   0  0  0  0  0  0  0  0  0  0  0  0
  -25.1160  -13.6670   20.6470 C   0  0  0  0  0  0  0  0  0  0  0  0
  -25.4620  -12.2860   20.5460 C   0  0  0  0  0  0  0  0  0  0  0  0
  -27.1960  -13.4110   19.9790 N   0  0  0  0  0  0  0  0  0  0  0  0
  -26.7350  -12.1540   20.1960 N   0  0  0  0  0  0  0  0  0  0  0  0
  -24.6390  -11.0800   20.7040 C   0  0  0  0  0  0  0  0  0  0  0  0
  -24.9710  -10.0750   21.6410 C   0  0  0  0  0  3  0  0  0  0  0  0
  -24.1520   -8.9350   21.7870 C   0  0  0  0  0  3  0  0  0  0  0  0
  -22.9880   -8.7910   20.9970 C   0  0  0  0  0  0  0  0  0  0  0  0
  -22.6750   -9.7820   20.0500 C   0  0  0  0  0  3  0  0  0  0  0  0
  -23.4940  -10.9140   19.9010 C   0  0  0  0  0  3  0  0  0  0  0  0
  -22.1480   -7.7050   21.0520 O   0  0  0  0  0  0  0  0  0  0  0  0
  -21.9300   -7.0220   22.2210 C   0  0  0  0  0  0  0  0  0  0  0  0
  -21.4430   -7.6660   23.3810 C   0  0  0  0  0  3  0  0  0  0  0  0
  -21.1680   -6.9140   24.5400 C   0  0  0  0  0  3  0  0  0  0  0  0
  -21.3680   -5.5200   24.5410 C   0  0  0  0  0  0  0  0  0  0  0  0
  -21.8490   -4.8770   23.3870 C   0  0  0  0  0  3  0  0  0  0  0  0
  -22.1260   -5.6260   22.2290 C   0  0  0  0  0  0  0  0  0  0  0  0
  -22.5670   -4.9980   21.1130 F   0  0  0  0  0  0  0  0  0  0  0  0
  -21.0970   -4.7960   25.6520 F   0  0  0  0  0  0  0  0  0  0  0  0
  -23.7720  -14.2450   20.9840 C   0  0  0  0  0  0  0  0  0  0  0  0
  -23.0270  -13.5900   21.8680 N   0  0  0  0  0  0  0  0  0  0  0  0
  -23.3930  -15.3090   20.4980 O   0  0  0  0  0  0  0  0  0  0  0  0
  -23.3450  -12.7260   22.2790 H   0  0  0  0  0  0  0  0  0  0  0  0
  -22.1250  -13.9590   22.1350 H   0  0  0  0  0  0  0  0  0  0  0  0
  -26.5120  -15.7220   20.1570 N   0  0  0  0  0  0  0  0  0  0  0  0
  -25.8220  -16.4400   20.3450 H   0  0  0  0  0  0  0  0  0  0  0  0
  -27.4090  -16.1020   19.8800 H   0  0  0  0  0  0  0  0  0  0  0  0
  -28.0860  -23.3300   23.1100 C   0  0  0  0  0  1  0  0  0  0  0  0
  -28.0590  -23.3420   21.5730 C   0  0  0  0  0  3  0  0  0  0  0  0
  -28.9320  -24.4130   21.0330 N   0  0  0  0  0  4  0  0  0  0  0  0
  -29.3550  -24.8800   21.8220 H   0  0  0  0  0  0  0  0  0  0  0  0
  -29.6730  -23.9870   20.5000 H   0  0  0  0  0  0  0  0  0  0  0  0
  -28.2520  -25.4360   20.1920 C   0  0  0  0  0  2  0  0  0  0  0  0
  -29.1490  -26.6650   19.8980 C   0  0  0  0  0  2  0  0  0  0  0  0
  -28.6540  -27.4660   18.8230 O   0  0  0  0  0  0  0  0  0  0  0  0
  -24.5810  -31.5710   22.9840 C   0  0  0  0  0  0  0  0  0  0  0  0
  -27.4350  -28.0500   19.0540 C   0  0  0  0  0  0  0  0  0  0  0  0
  -23.4050  -30.2970   21.2210 C   0  0  0  0  0  3  0  0  0  0  0  0
  -24.8970  -29.1980   19.4660 C   0  0  0  0  0  0  0  0  0  0  0  0
  -25.8410  -31.0080   20.9110 C   0  0  0  0  0  2  0  0  0  0  0  0
  -26.0310  -29.7720   20.0590 C   0  0  0  0  0  0  0  0  0  0  0  0
  -27.3050  -29.1990   19.8610 C   0  0  0  0  0  3  0  0  0  0  0  0
  -26.2930  -27.4920   18.4460 C   0  0  0  0  0  3  0  0  0  0  0  0
  -25.0200  -28.0530   18.6610 C   0  0  0  0  0  3  0  0  0  0  0  0
  -23.5690  -29.8710   19.7380 C   0  0  0  0  0  2  0  0  0  0  0  0
  -24.6310  -30.9660   21.7650 N   0  0  0  0  0  0  0  0  0  0  0  0
  -23.5290  -31.6160   23.6360 O   0  0  0  0  0  0  0  0  0  0  0  0
  -22.9640  -29.0650   22.0400 C   0  0  0  0  0  0  0  0  0  0  0  0
  -21.6800  -28.6910   21.9140 N   0  0  0  0  0  0  0  0  0  0  0  0
  -23.7710  -28.4530   22.7450 O   0  0  0  0  0  0  0  0  0  0  0  0
  -21.0820  -29.2480   21.3190 H   0  0  0  0  0  0  0  0  0  0  0  0
  -18.5750  -26.8750   22.2450 C   0  0  0  0  0  0  0  0  0  0  0  0
  -21.0520  -27.5410   22.5620 C   0  0  0  0  0  3  0  0  0  0  0  0
  -21.3950  -26.2300   21.8170 C   0  0  0  0  0  2  0  0  0  0  0  0
  -20.3500  -25.8440   20.7650 C   0  0  0  0  0  2  0  0  0  0  0  0
  -18.9730  -25.6670   21.4130 C   0  0  0  0  0  2  0  0  0  0  0  0
  -19.5500  -27.7630   22.7700 C   0  0  0  0  0  0  0  0  0  0  0  0
  -19.1240  -28.8900   23.5070 C   0  0  0  0  0  3  0  0  0  0  0  0
  -17.7550  -29.1360   23.7180 C   0  0  0  0  0  3  0  0  0  0  0  0
  -16.7930  -28.2460   23.2090 C   0  0  0  0  0  3  0  0  0  0  0  0
  -17.2040  -27.1150   22.4800 C   0  0  0  0  0  3  0  0  0  0  0  0
  -25.8380  -32.2550   23.6090 C   0  0  0  0  0  3  0  0  0  0  0  0
  -26.4700  -31.4300   24.7950 C   0  0  1  0  0  0  0  0  0  0  0  0
  -25.4480  -31.0090   25.8760 C   0  0  0  0  0  1  0  0  0  0  0  0
  -27.1440  -30.1440   24.2620 C   0  0  0  0  0  1  0  0  0  0  0  0
  -27.5860  -32.2570   25.4750 C   0  0  0  0  0  1  0  0  0  0  0  0
  -25.4330  -33.5920   24.0630 N   0  0  0  0  0  0  0  0  0  0  0  0
  -25.6660  -34.7260   23.3880 C   0  0  0  0  0  0  0  0  0  0  0  0
  -26.3170  -34.7600   22.3400 O   0  0  0  0  0  0  0  0  0  0  0  0
  -24.8400  -33.6320   24.8790 H   0  0  0  0  0  0  0  0  0  0  0  0
  -23.7920  -36.3940   23.2190 C   0  0  0  0  0  1  0  0  0  0  0  0
  -25.0840  -36.0290   23.9680 C   0  0  0  0  0  3  0  0  0  0  0  0
  -27.1670  -37.0090   24.8190 C   0  0  0  0  0  1  0  0  0  0  0  0
  -26.0280  -37.1670   23.9190 N   0  0  0  0  0  0  0  0  0  0  0  0
  -25.5580  -38.0380   24.1510 H   0  0  0  0  0  0  0  0  0  0  0  0
  1  3  2  0
  1 51  1  0
  2  1  1  0
  3  5  1  0
  4  2  1  0
  6  2  2  0
  6  7  1  0
  7  3  1  0
  8 14  1  0
  8 21  1  0
  9 14  1  0
 10 11  1  0
 10  9  1  0
 12 11  1  0
 12 25  1  0
 12 13  1  0
 14 13  1  0
 15  8  2  0
 18 16  1  0
 18 21  1  0
 19 17  1  0
 20 16  1  0
 20  7  1  0
 20 17  1  0
 21 19  1  0
 22 23  2  0
 23 42  1  0
 24 23  1  0
 24 27  1  0
 25 26  1  0
 25 22  1  0
 26 24  2  0
 27 28  1  0
 28 29  2  0
 30 33  1  0
 30 29  1  0
 31 30  2  0
 32 31  1  0
 32 27  2  0
 33 34  1  0
 34 39  2  0
 34 35  1  0
 35 36  2  0
 36 37  1  0
 37 41  1  0
 38 37  2  0
 39 38  1  0
 40 39  1  0
 42 43  1  0
 43 46  1  0
 43 45  1  0
 44 42  2  0
 47 22  1  0
 47 48  1  0
 49 47  1  0
 51 50  1  0
 52 51  1  0
 52 53  1  0
 54 52  1  0
 55 52  1  0
 56 55  1  0
 57 59  1  0
 57 56  1  0
 58 69  2  0
 59 64  1  0
 60 68  1  0
 60 70  1  0
 61 67  1  0
 61 63  1  0
 62 68  1  0
 63 62  1  0
 64 63  2  0
 65 66  1  0
 65 59  2  0
 66 61  2  0
 67 60  1  0
 68 58  1  0
 70 72  2  0
 71 70  1  0
 73 71  1  0
 74 83  2  0
 74 79  1  0
 75 71  1  0
 75 79  1  0
 76 75  1  0
 77 78  1  0
 77 76  1  0
 78 74  1  0
 79 80  2  0
 80 81  1  0
 82 81  2  0
 83 82  1  0
 84 58  1  0
 84 89  1  0
 84 85  1  0
 85 88  1  1
 85 86  1  0
 87 85  1  0
 89 92  1  0
 90 94  1  0
 90 89  1  0
 91 90  2  0
 94 93  1  0
 96 94  1  0
 96 97  1  0
 96 95  1  0
M  ISO  4   8 100  21 100  56 101  57 101
M  END
>  <TORSDO>  (23) 
F 20

>  <SCORE>  (23) 
-9.422

>  <name>  (23) 
22

>  <ligand_id>  (23) 
22

>  <original_smiles>  (23) 
[H]c1c([H])c([H])c2c(c1[H])C([H])([H])C([H])([H])C([H])([H])C2([H])N([H])C(=O)C1([H])N(C(=O)C([H])(N([H])C(=O)C([H])(N([H])C([H])([H])[H])C([H])([H])[H])C(C([H])([H])[H])(C([H])([H])[H])C([H])([H])[H])C([H])([H])c2c([H])c(OC([H])([H])C([H])([H])[N+]([H])([H])C([H])(c3c(C([H])([H])[H])nn(C4([H])C([H])([H])C([H])([H])N(C(=O)N5C([H])([H])C([H])([H])C([H])([H])C([H])(n6nc(-c7c([H])c([H])c(Oc8c([H])c([H])c(F)c([H])c8F)c([H])c7[H])c(C(=O)N([H])[H])c6N([H])[H])C5([H])[H])C([H])([H])C4([H])[H])c3C([H])([H])[H])C([H])([H])[H])c([H])c([H])c2C1([H])[H]

>  <smiles>  (23) 
[H]c1c([H])c([H])c2c(c1[H])C([H])([H])C([H])([H])C([H])([H])C2([H])N([H])C(=O)C1([H])N(C(=O)C([H])(N([H])C(=O)C([H])(N([H])C([H])([H])[H])C([H])([H])[H])C(C([H])([H])[H])(C([H])([H])[H])C([H])([H])[H])C([H])([H])c2c([H])c(OC([H])([H])C([H])([H])[N+]([H])([H])C([H])(c3c(C([H])([H])[H])nn(C4([H])C([H])([H])C([H])([H])N(C(=O)N5C([H])([H])C([H])([H])C([H])([H])C([H])(n6nc(-c7c([H])c([H])c(Oc8c([H])c([H])c(F)c([H])c8F)c([H])c7[H])c(C(=O)N([H])[H])c6N([H])[H])C5([H])[H])C([H])([H])C4([H])[H])c3C([H])([H])[H])C([H])([H])[H])c([H])c([H])c2C1([H])[H]

$$$$
23:0:0
     RDKit          3D

 99109  0  0  1  0  0  0  0  0999 V2000
  -29.8550  -20.7750   24.3420 C   0  0  0  0  0  0  0  0  0  0  0  0
  -29.7720  -21.6360   23.2180 C   0  0  0  0  0  0  0  0  0  0  0  0
  -30.4640  -19.6280   23.9310 C   0  0  0  0  0  0  0  0  0  0  0  0
  -30.4810  -21.0570   22.1870 C   0  0  0  0  0  0  0  0  0  0  0  0
  -29.3590  -21.0590   25.7410 C   0  0  0  0  0  1  0  0  0  0  0  0
  -29.0520  -22.9680   23.2210 C   0  0  0  0  0  1  0  0  0  0  0  0
  -30.7800  -18.4350   24.7950 C   0  0  0  0  0  1  0  0  0  0  0  0
  -30.7170  -19.7050   22.5560 N   0  0  0  0  0  0  0  0  0  0  0  0
  -31.7090  -14.6570   19.8300 C   0  0  0  0  0  0  0  0  0  0  0  0
  -31.1170  -12.4970   18.7800 C   0  0  0  0  0  2  0  0  0  0  0  0
  -30.0930  -12.7080   17.6470 C   0  0  0  0  0  2  0  0  0  0  0  0
  -28.6600  -12.6690   18.2060 C   0  0  0  0  0  2  0  0  0  0  0  0
  -28.4840  -13.5770   19.4530 C   0  0  0  0  0  3  0  0  0  0  0  0
  -29.6180  -13.3590   20.4750 C   0  0  0  0  0  2  0  0  0  0  0  0
  -30.9030  -13.5540   19.7880 N   0  0  0  0  0  0  0  0  0  0  0  0
  -32.7550  -14.7040   19.1720 O   0  0  0  0  0  0  0  0  0  0  0  0
  -30.9170  -18.3610   20.2850 C   0  0  0  0  0  2  0  0  0  0  0  0
  -30.6150  -17.1820   22.4140 C   0  0  0  0  0  2  0  0  0  0  0  0
  -31.5620  -17.0680   19.7100 C   0  0  0  0  0  2  0  0  0  0  0  0
  -31.3560  -15.9380   21.8720 C   0  0  0  0  0  2  0  0  0  0  0  0
  -31.1710  -18.4930   21.7970 C   0  0  0  0  0  3  0  0  0  0  0  0
  -31.2330  -15.7980   20.4110 N   0  0  0  0  0  0  0  0  0  0  0  0
  -26.2960  -14.3510   20.5600 C   0  0  0  0  0  0  0  0  0  0  0  0
  -25.1760  -13.6670   20.9520 C   0  0  0  0  0  0  0  0  0  0  0  0
  -25.4320  -12.2900   20.6650 C   0  0  0  0  0  0  0  0  0  0  0  0
  -27.1690  -13.3960   20.0640 N   0  0  0  0  0  0  0  0  0  0  0  0
  -26.6600  -12.1420   20.1850 N   0  0  0  0  0  0  0  0  0  0  0  0
  -24.5580  -11.1150   20.7670 C   0  0  0  0  0  0  0  0  0  0  0  0
  -24.9330   -9.9760   21.5160 C   0  0  0  0  0  3  0  0  0  0  0  0
  -24.0680   -8.8660   21.6130 C   0  0  0  0  0  3  0  0  0  0  0  0
  -22.8110   -8.8870   20.9630 C   0  0  0  0  0  0  0  0  0  0  0  0
  -22.4510  -10.0130   20.2020 C   0  0  0  0  0  3  0  0  0  0  0  0
  -23.3160  -11.1160   20.1020 C   0  0  0  0  0  3  0  0  0  0  0  0
  -21.9150   -7.8450   20.9810 O   0  0  0  0  0  0  0  0  0  0  0  0
  -21.7450   -7.0610   22.0940 C   0  0  0  0  0  0  0  0  0  0  0  0
  -21.4120   -7.6130   23.3500 C   0  0  0  0  0  3  0  0  0  0  0  0
  -21.1780   -6.7650   24.4510 C   0  0  0  0  0  3  0  0  0  0  0  0
  -21.2680   -5.3690   24.2970 C   0  0  0  0  0  0  0  0  0  0  0  0
  -21.5950   -4.8180   23.0460 C   0  0  0  0  0  3  0  0  0  0  0  0
  -21.8290   -5.6610   21.9470 C   0  0  0  0  0  0  0  0  0  0  0  0
  -22.1230   -5.1240   20.7380 F   0  0  0  0  0  0  0  0  0  0  0  0
  -21.0360   -4.5540   25.3540 F   0  0  0  0  0  0  0  0  0  0  0  0
  -23.9020  -14.2650   21.4750 C   0  0  0  0  0  0  0  0  0  0  0  0
  -23.2010  -13.5490   22.3470 N   0  0  0  0  0  0  0  0  0  0  0  0
  -23.5440  -15.3950   21.1480 O   0  0  0  0  0  0  0  0  0  0  0  0
  -23.5060  -12.6300   22.6320 H   0  0  0  0  0  0  0  0  0  0  0  0
  -22.3500  -13.9260   22.7370 H   0  0  0  0  0  0  0  0  0  0  0  0
  -26.6360  -15.6990   20.5630 N   0  0  0  0  0  0  0  0  0  0  0  0
  -25.9960  -16.4200   20.8780 H   0  0  0  0  0  0  0  0  0  0  0  0
  -27.5130  -16.0700   20.2190 H   0  0  0  0  0  0  0  0  0  0  0  0
  -30.3980  -20.8010   19.6920 C   0  0  0  0  0  1  0  0  0  0  0  0
  -30.8480  -21.7080   20.8570 C   0  0  0  0  0  3  0  0  0  0  0  0
  -30.7910  -24.2650   21.6550 C   0  0  0  0  0  2  0  0  0  0  0  0
  -30.6890  -23.7530   19.2280 C   0  0  0  0  0  2  0  0  0  0  0  0
  -30.0750  -25.6290   21.4310 C   0  0  0  0  0  2  0  0  0  0  0  0
  -29.9840  -25.1030   18.9660 C   0  0  0  0  0  2  0  0  0  0  0  0
  -30.3390  -23.1900   20.6280 C   0  0  0  0  0  3  0  0  0  0  0  0
  -30.3300  -26.1870   20.0160 C   0  0  0  0  0  3  0  0  0  0  0  0
  -29.8510  -27.5540   19.8400 O   0  0  0  0  0  0  0  0  0  0  0  0
  -24.8590  -31.3390   23.3070 C   0  0  0  0  0  0  0  0  0  0  0  0
  -28.5190  -27.9360   19.9160 C   0  0  0  0  0  0  0  0  0  0  0  0
  -24.0380  -29.8570   21.5070 C   0  0  0  0  0  3  0  0  0  0  0  0
  -25.8280  -28.8550   19.9960 C   0  0  0  0  0  0  0  0  0  0  0  0
  -26.4140  -30.8120   21.4260 C   0  0  0  0  0  2  0  0  0  0  0  0
  -26.8280  -29.5630   20.6730 C   0  0  0  0  0  0  0  0  0  0  0  0
  -28.1700  -29.1090   20.6350 C   0  0  0  0  0  3  0  0  0  0  0  0
  -27.4940  -27.2770   19.2000 C   0  0  0  0  0  3  0  0  0  0  0  0
  -26.1580  -27.7090   19.2590 C   0  0  0  0  0  3  0  0  0  0  0  0
  -24.4180  -29.3910   20.0770 C   0  0  0  0  0  2  0  0  0  0  0  0
  -25.1170  -30.6850   22.1390 N   0  0  0  0  0  0  0  0  0  0  0  0
  -23.7380  -31.2910   23.8320 O   0  0  0  0  0  0  0  0  0  0  0  0
  -23.6480  -28.6190   22.3460 C   0  0  0  0  0  0  0  0  0  0  0  0
  -22.4420  -28.0830   22.0980 N   0  0  0  0  0  0  0  0  0  0  0  0
  -24.4280  -28.1460   23.1770 O   0  0  0  0  0  0  0  0  0  0  0  0
  -21.8560  -28.5370   21.4100 H   0  0  0  0  0  0  0  0  0  0  0  0
  -19.5570  -25.9060   22.1780 C   0  0  0  0  0  0  0  0  0  0  0  0
  -21.8790  -26.8940   22.7390 C   0  0  0  0  0  3  0  0  0  0  0  0
  -22.4640  -25.6010   22.1260 C   0  0  0  0  0  2  0  0  0  0  0  0
  -21.6110  -25.0320   20.9870 C   0  0  0  0  0  2  0  0  0  0  0  0
  -20.1960  -24.7180   21.4800 C   0  0  0  0  0  2  0  0  0  0  0  0
  -20.3470  -26.9370   22.7550 C   0  0  0  0  0  0  0  0  0  0  0  0
  -19.7020  -28.0360   23.3620 C   0  0  0  0  0  3  0  0  0  0  0  0
  -18.2970  -28.1150   23.4010 C   0  0  0  0  0  3  0  0  0  0  0  0
  -17.5200  -27.0850   22.8430 C   0  0  0  0  0  3  0  0  0  0  0  0
  -18.1500  -25.9830   22.2370 C   0  0  0  0  0  3  0  0  0  0  0  0
  -25.9480  -32.1960   24.0210 C   0  0  0  0  0  3  0  0  0  0  0  0
  -25.3810  -33.5330   24.2470 N   0  0  0  0  0  0  0  0  0  0  0  0
  -25.6290  -34.6030   23.4820 C   0  0  0  0  0  0  0  0  0  0  0  0
  -26.4290  -34.5830   22.5410 O   0  0  0  0  0  0  0  0  0  0  0  0
  -24.6820  -33.6120   24.9710 H   0  0  0  0  0  0  0  0  0  0  0  0
  -23.6940  -36.0760   22.8400 C   0  0  0  0  0  1  0  0  0  0  0  0
  -24.8710  -35.9030   23.8130 C   0  0  0  0  0  3  0  0  0  0  0  0
  -26.7300  -37.1360   24.8390 C   0  0  0  0  0  1  0  0  0  0  0  0
  -25.7270  -37.1080   23.7780 N   0  0  0  0  0  0  0  0  0  0  0  0
  -25.1650  -37.9510   23.8510 H   0  0  0  0  0  0  0  0  0  0  0  0
  -26.4460  -31.5640   25.3790 C   0  0  1  0  0  0  0  0  0  0  0  0
  -25.3000  -31.1710   26.3410 C   0  0  0  0  0  1  0  0  0  0  0  0
  -27.2960  -30.3010   25.1120 C   0  0  0  0  0  1  0  0  0  0  0  0
  -27.3650  -32.5660   26.1160 C   0  0  0  0  0  1  0  0  0  0  0  0
  1  5  1  0
  2  6  1  0
  2  1  1  0
  3  1  2  0
  3  7  1  0
  4  8  1  0
  4  2  2  0
  8  3  1  0
  9 22  1  0
 10 15  1  0
 11 12  1  0
 11 10  1  0
 13 12  1  0
 13 26  1  0
 13 14  1  0
 15  9  1  0
 15 14  1  0
 16  9  2  0
 19 17  1  0
 19 22  1  0
 20 18  1  0
 21 17  1  0
 21 18  1  0
 21  8  1  0
 22 20  1  0
 23 48  1  0
 23 24  2  0
 24 43  1  0
 25 28  1  0
 25 24  1  0
 26 27  1  0
 26 23  1  0
 27 25  2  0
 28 29  1  0
 29 30  2  0
 31 34  1  0
 31 30  1  0
 32 31  2  0
 33 32  1  0
 33 28  2  0
 34 35  1  0
 35 36  1  0
 36 37  2  0
 38 37  1  0
 38 42  1  0
 39 38  2  0
 40 35  2  0
 40 39  1  0
 41 40  1  0
 43 44  1  0
 44 46  1  0
 44 47  1  0
 45 43  2  0
 48 49  1  0
 50 48  1  0
 52 51  1  0
 52  4  1  0
 54 57  1  0
 55 53  1  0
 56 54  1  0
 56 58  1  0
 57 52  1  0
 57 53  1  0
 58 59  1  0
 58 55  1  0
 59 61  1  0
 60 71  2  0
 61 66  1  0
 62 70  1  0
 62 72  1  0
 63 69  1  0
 63 65  1  0
 64 70  1  0
 65 64  1  0
 66 65  2  0
 67 68  1  0
 67 61  2  0
 68 63  2  0
 69 62  1  0
 70 60  1  0
 72 74  2  0
 73 72  1  0
 75 73  1  0
 76 85  2  0
 76 81  1  0
 77 73  1  0
 77 81  1  0
 78 77  1  0
 79 80  1  0
 79 78  1  0
 80 76  1  0
 81 82  2  0
 82 83  1  0
 84 83  2  0
 85 84  1  0
 86 60  1  0
 86 87  1  0
 86 96  1  0
 87 90  1  0
 88 92  1  0
 88 87  1  0
 89 88  2  0
 92 91  1  0
 94 92  1  0
 94 95  1  0
 94 93  1  0
 96 99  1  1
 96 97  1  0
 98 96  1  0
M  ISO  4   9 100  22 100  58 101  59 101
M  END
>  <TORSDO>  (24) 
F 18

>  <SCORE>  (24) 
-5.368

>  <name>  (24) 
23

>  <ligand_id>  (24) 
23

>  <original_smiles>  (24) 
[H]c1c([H])c([H])c2c(c1[H])C([H])([H])C([H])([H])C([H])([H])C2([H])N([H])C(=O)C1([H])N(C(=O)C([H])(N([H])C(=O)C([H])(N([H])C([H])([H])[H])C([H])([H])[H])C(C([H])([H])[H])(C([H])([H])[H])C([H])([H])[H])C([H])([H])c2c([H])c(OC3([H])C([H])([H])C([H])([H])C([H])(C([H])(c4c(C([H])([H])[H])c(C([H])([H])[H])c(C([H])([H])[H])n4C4([H])C([H])([H])C([H])([H])N(C(=O)N5C([H])([H])C([H])([H])C([H])([H])C([H])(n6nc(-c7c([H])c([H])c(Oc8c([H])c([H])c(F)c([H])c8F)c([H])c7[H])c(C(=O)N([H])[H])c6N([H])[H])C5([H])[H])C([H])([H])C4([H])[H])C([H])([H])[H])C([H])([H])C3([H])[H])c([H])c([H])c2C1([H])[H]

>  <smiles>  (24) 
[H]c1c([H])c([H])c2c(c1[H])C([H])([H])C([H])([H])C([H])([H])C2([H])N([H])C(=O)C1([H])N(C(=O)C([H])(N([H])C(=O)C([H])(N([H])C([H])([H])[H])C([H])([H])[H])C(C([H])([H])[H])(C([H])([H])[H])C([H])([H])[H])C([H])([H])c2c([H])c(OC3([H])C([H])([H])C([H])([H])C([H])(C([H])(c4c(C([H])([H])[H])c(C([H])([H])[H])c(C([H])([H])[H])n4C4([H])C([H])([H])C([H])([H])N(C(=O)N5C([H])([H])C([H])([H])C([H])([H])C([H])(n6nc(-c7c([H])c([H])c(Oc8c([H])c([H])c(F)c([H])c8F)c([H])c7[H])c(C(=O)N([H])[H])c6N([H])[H])C5([H])[H])C([H])([H])C4([H])[H])C([H])([H])[H])C([H])([H])C3([H])[H])c([H])c([H])c2C1([H])[H]

$$$$
24:0:0
     RDKit          3D

 96104  0  0  1  0  0  0  0  0999 V2000
  -26.8550  -21.3310   21.7440 C   0  0  0  0  0  1  0  0  0  0  0  0
  -28.1510  -21.2150   20.9050 C   0  0  0  0  0  3  0  0  0  0  0  0
  -27.2400  -19.5960   19.0410 C   0  0  0  0  0  2  0  0  0  0  0  0
  -29.4450  -19.7350   18.1120 C   0  0  0  0  0  2  0  0  0  0  0  0
  -27.9750  -19.9880   17.7780 C   0  0  0  0  0  3  0  0  0  0  0  0
  -28.2430  -19.8340   20.1740 C   0  0  0  0  0  3  0  0  0  0  0  0
  -27.4840  -19.2370   16.5260 C   0  0  0  0  0  1  0  0  0  0  0  0
  -29.5770  -19.5830   19.5920 N   0  0  0  0  0  0  0  0  0  0  0  0
  -30.0670  -18.2210   19.9130 C   0  0  0  0  0  2  0  0  0  0  0  0
  -31.9020  -17.2160   18.4110 C   0  0  0  0  0  1  0  0  0  0  0  0
  -31.4390  -17.4470   19.8900 C   0  0  0  0  0  3  0  0  0  0  0  0
  -32.0260  -15.0340   20.4020 C   0  0  0  0  0  0  0  0  0  0  0  0
  -31.6730  -12.8330   19.3720 C   0  0  0  0  0  2  0  0  0  0  0  0
  -30.8530  -13.0670   18.0860 C   0  0  0  0  0  2  0  0  0  0  0  0
  -29.3380  -13.0740   18.3900 C   0  0  0  0  0  2  0  0  0  0  0  0
  -28.9720  -13.9960   19.5880 C   0  0  0  0  0  3  0  0  0  0  0  0
  -29.9130  -13.7290   20.7890 C   0  0  0  0  0  2  0  0  0  0  0  0
  -31.3010  -13.8870   20.3280 N   0  0  0  0  0  0  0  0  0  0  0  0
  -33.2150  -15.1020   20.0860 O   0  0  0  0  0  0  0  0  0  0  0  0
  -31.2590  -16.1380   20.5480 N   0  0  0  0  0  0  0  0  0  0  0  0
  -30.3290  -15.9580   20.8940 H   0  0  0  0  0  0  0  0  0  0  0  0
  -26.5880  -14.8410   20.0550 C   0  0  0  0  0  0  0  0  0  0  0  0
  -25.4320  -14.1890   20.3920 C   0  0  0  0  0  0  0  0  0  0  0  0
  -25.7730  -12.8060   20.4720 C   0  0  0  0  0  0  0  0  0  0  0  0
  -27.5680  -13.8640   19.9620 N   0  0  0  0  0  0  0  0  0  0  0  0
  -27.0750  -12.6370   20.2690 N   0  0  0  0  0  0  0  0  0  0  0  0
  -24.9270  -11.6250   20.6720 C   0  0  0  0  0  0  0  0  0  0  0  0
  -25.2200  -10.6690   21.6710 C   0  0  0  0  0  3  0  0  0  0  0  0
  -24.3830   -9.5490   21.8560 C   0  0  0  0  0  3  0  0  0  0  0  0
  -23.2340   -9.3800   21.0450 C   0  0  0  0  0  0  0  0  0  0  0  0
  -22.9610  -10.3210   20.0390 C   0  0  0  0  0  3  0  0  0  0  0  0
  -23.7990  -11.4340   19.8520 C   0  0  0  0  0  3  0  0  0  0  0  0
  -22.3790   -8.3090   21.1350 O   0  0  0  0  0  0  0  0  0  0  0  0
  -22.1590   -7.6610   22.3240 C   0  0  0  0  0  0  0  0  0  0  0  0
  -21.6800   -8.3400   23.4660 C   0  0  0  0  0  3  0  0  0  0  0  0
  -21.4050   -7.6230   24.6470 C   0  0  0  0  0  3  0  0  0  0  0  0
  -21.6010   -6.2290   24.6870 C   0  0  0  0  0  0  0  0  0  0  0  0
  -22.0720   -5.5520   23.5500 C   0  0  0  0  0  3  0  0  0  0  0  0
  -22.3510   -6.2670   22.3710 C   0  0  0  0  0  0  0  0  0  0  0  0
  -22.7850   -5.6050   21.2730 F   0  0  0  0  0  0  0  0  0  0  0  0
  -21.3280   -5.5390   25.8200 F   0  0  0  0  0  0  0  0  0  0  0  0
  -24.0690  -14.8030   20.5270 C   0  0  0  0  0  0  0  0  0  0  0  0
  -23.2260  -14.2410   21.3870 N   0  0  0  0  0  0  0  0  0  0  0  0
  -23.7610  -15.8170   19.9030 O   0  0  0  0  0  0  0  0  0  0  0  0
  -23.4890  -13.4230   21.9160 H   0  0  0  0  0  0  0  0  0  0  0  0
  -22.3030  -14.6330   21.5140 H   0  0  0  0  0  0  0  0  0  0  0  0
  -26.8770  -16.1750   19.7990 N   0  0  0  0  0  0  0  0  0  0  0  0
  -26.1160  -16.8380   19.7150 H   0  0  0  0  0  0  0  0  0  0  0  0
  -27.7190  -16.4720   19.3290 H   0  0  0  0  0  0  0  0  0  0  0  0
  -28.3160  -22.3870   19.9990 N   0  0  0  0  0  4  0  0  0  0  0  0
  -28.9250  -22.0750   19.2590 H   0  0  0  0  0  0  0  0  0  0  0  0
  -27.4200  -22.6130   19.5960 H   0  0  0  0  0  0  0  0  0  0  0  0
  -28.9120  -23.5970   20.6420 C   0  0  0  0  0  2  0  0  0  0  0  0
  -29.0310  -24.8430   19.7190 C   0  0  0  0  0  2  0  0  0  0  0  0
  -29.4230  -26.1300   20.5040 C   0  0  0  0  0  2  0  0  0  0  0  0
  -29.3010  -27.3700   19.7820 O   0  0  0  0  0  0  0  0  0  0  0  0
  -24.7230  -31.5330   23.3300 C   0  0  0  0  0  0  0  0  0  0  0  0
  -28.0470  -27.9370   19.8330 C   0  0  0  0  0  0  0  0  0  0  0  0
  -23.7630  -30.1440   21.5270 C   0  0  0  0  0  3  0  0  0  0  0  0
  -25.4450  -29.0290   19.9670 C   0  0  0  0  0  0  0  0  0  0  0  0
  -26.1990  -30.9260   21.4120 C   0  0  0  0  0  2  0  0  0  0  0  0
  -26.5040  -29.6640   20.6280 C   0  0  0  0  0  0  0  0  0  0  0  0
  -27.8110  -29.1230   20.5640 C   0  0  0  0  0  3  0  0  0  0  0  0
  -26.9770  -27.3270   19.1490 C   0  0  0  0  0  3  0  0  0  0  0  0
  -25.6770  -27.8590   19.2230 C   0  0  0  0  0  3  0  0  0  0  0  0
  -24.0780  -29.6650   20.0850 C   0  0  0  0  0  2  0  0  0  0  0  0
  -24.9130  -30.8780   22.1480 N   0  0  0  0  0  0  0  0  0  0  0  0
  -23.6120  -31.5680   23.8730 O   0  0  0  0  0  0  0  0  0  0  0  0
  -23.2890  -28.9300   22.3590 C   0  0  0  0  0  0  0  0  0  0  0  0
  -22.0530  -28.4670   22.1070 N   0  0  0  0  0  0  0  0  0  0  0  0
  -24.0410  -28.4060   23.1890 O   0  0  0  0  0  0  0  0  0  0  0  0
  -21.4840  -28.9600   21.4360 H   0  0  0  0  0  0  0  0  0  0  0  0
  -19.0430  -26.4760   22.1520 C   0  0  0  0  0  0  0  0  0  0  0  0
  -21.4200  -27.3040   22.7290 C   0  0  0  0  0  3  0  0  0  0  0  0
  -21.9240  -25.9800   22.0990 C   0  0  0  0  0  2  0  0  0  0  0  0
  -21.0380  -25.4950   20.9490 C   0  0  0  0  0  2  0  0  0  0  0  0
  -19.6080  -25.2580   21.4440 C   0  0  0  0  0  2  0  0  0  0  0  0
  -19.8960  -27.4460   22.7430 C   0  0  0  0  0  0  0  0  0  0  0  0
  -19.3230  -28.5790   23.3690 C   0  0  0  0  0  3  0  0  0  0  0  0
  -17.9240  -28.7420   23.4020 C   0  0  0  0  0  3  0  0  0  0  0  0
  -17.0810  -27.7730   22.8260 C   0  0  0  0  0  3  0  0  0  0  0  0
  -17.6430  -26.6390   22.2100 C   0  0  0  0  0  3  0  0  0  0  0  0
  -25.8900  -32.2930   24.0340 C   0  0  0  0  0  3  0  0  0  0  0  0
  -25.4200  -33.6580   24.3140 N   0  0  0  0  0  0  0  0  0  0  0  0
  -25.7000  -34.7260   23.5590 C   0  0  0  0  0  0  0  0  0  0  0  0
  -26.4520  -34.6810   22.5800 O   0  0  0  0  0  0  0  0  0  0  0  0
  -24.7560  -33.7610   25.0690 H   0  0  0  0  0  0  0  0  0  0  0  0
  -23.8270  -36.3260   23.0470 C   0  0  0  0  0  1  0  0  0  0  0  0
  -25.0400  -36.0630   23.9530 C   0  0  0  0  0  3  0  0  0  0  0  0
  -27.0120  -37.1680   24.9130 C   0  0  0  0  0  1  0  0  0  0  0  0
  -25.9650  -37.2160   23.8950 N   0  0  0  0  0  0  0  0  0  0  0  0
  -25.4550  -38.0890   24.0000 H   0  0  0  0  0  0  0  0  0  0  0  0
  -26.3870  -31.5870   25.3560 C   0  0  1  0  0  0  0  0  0  0  0  0
  -25.2390  -31.1830   26.3110 C   0  0  0  0  0  1  0  0  0  0  0  0
  -27.1960  -30.3120   25.0220 C   0  0  0  0  0  1  0  0  0  0  0  0
  -27.3410  -32.5320   26.1250 C   0  0  0  0  0  1  0  0  0  0  0  0
  2  1  1  0
  3  6  1  0
  4  8  1  0
  5  7  1  0
  5  4  1  0
  5  3  1  0
  6  2  1  0
  8  9  1  0
  8  6  1  0
 11 10  1  0
 11  9  1  0
 11 20  1  0
 12 20  1  0
 13 18  1  0
 14 15  1  0
 14 13  1  0
 16 15  1  0
 16 25  1  0
 16 17  1  0
 18 12  1  0
 18 17  1  0
 19 12  2  0
 20 21  1  0
 22 23  2  0
 23 24  1  0
 23 42  1  0
 24 27  1  0
 25 22  1  0
 25 26  1  0
 26 24  2  0
 27 28  1  0
 28 29  2  0
 30 33  1  0
 30 29  1  0
 31 30  2  0
 32 31  1  0
 32 27  2  0
 33 34  1  0
 34 39  2  0
 34 35  1  0
 35 36  2  0
 36 37  1  0
 37 41  1  0
 38 37  2  0
 39 38  1  0
 40 39  1  0
 42 43  1  0
 43 46  1  0
 43 45  1  0
 44 42  2  0
 47 22  1  0
 48 47  1  0
 49 47  1  0
 50 53  1  0
 50  2  1  0
 51 50  1  0
 52 50  1  0
 54 55  1  0
 54 53  1  0
 56 58  1  0
 56 55  1  0
 57 68  2  0
 58 63  1  0
 59 67  1  0
 59 69  1  0
 60 66  1  0
 60 62  1  0
 61 67  1  0
 62 61  1  0
 63 62  2  0
 64 65  1  0
 64 58  2  0
 65 60  2  0
 66 59  1  0
 67 57  1  0
 69 71  2  0
 70 69  1  0
 72 70  1  0
 73 82  2  0
 73 78  1  0
 74 70  1  0
 74 78  1  0
 75 74  1  0
 76 77  1  0
 76 75  1  0
 77 73  1  0
 78 79  2  0
 79 80  1  0
 81 80  2  0
 82 81  1  0
 83 57  1  0
 83 84  1  0
 83 93  1  0
 84 87  1  0
 85 89  1  0
 85 84  1  0
 86 85  2  0
 89 88  1  0
 91 89  1  0
 91 92  1  0
 91 90  1  0
 93 96  1  1
 93 94  1  0
 95 93  1  0
M  ISO  4  12 100  20 100  55 101  56 101
M  END
>  <TORSDO>  (25) 
F 23

>  <SCORE>  (25) 
-7.125

>  <name>  (25) 
24

>  <ligand_id>  (25) 
24

>  <original_smiles>  (25) 
[H]c1c([H])c([H])c2c(c1[H])C([H])([H])C([H])([H])C([H])([H])C2([H])N([H])C(=O)C1([H])N(C(=O)C([H])(N([H])C(=O)C([H])(N([H])C([H])([H])[H])C([H])([H])[H])C(C([H])([H])[H])(C([H])([H])[H])C([H])([H])[H])C([H])([H])c2c([H])c(OC([H])([H])C([H])([H])C([H])([H])[N+]([H])([H])C([H])(C([H])([H])[H])C3([H])N(C([H])([H])C([H])(N([H])C(=O)N4C([H])([H])C([H])([H])C([H])([H])C([H])(n5nc(-c6c([H])c([H])c(Oc7c([H])c([H])c(F)c([H])c7F)c([H])c6[H])c(C(=O)N([H])[H])c5N([H])[H])C4([H])[H])C([H])([H])[H])C([H])([H])C([H])(C([H])([H])[H])C3([H])[H])c([H])c([H])c2C1([H])[H]

>  <smiles>  (25) 
[H]c1c([H])c([H])c2c(c1[H])C([H])([H])C([H])([H])C([H])([H])C2([H])N([H])C(=O)C1([H])N(C(=O)C([H])(N([H])C(=O)C([H])(N([H])C([H])([H])[H])C([H])([H])[H])C(C([H])([H])[H])(C([H])([H])[H])C([H])([H])[H])C([H])([H])c2c([H])c(OC([H])([H])C([H])([H])C([H])([H])[N+]([H])([H])C([H])(C([H])([H])[H])C3([H])N(C([H])([H])C([H])(N([H])C(=O)N4C([H])([H])C([H])([H])C([H])([H])C([H])(n5nc(-c6c([H])c([H])c(Oc7c([H])c([H])c(F)c([H])c7F)c([H])c6[H])c(C(=O)N([H])[H])c5N([H])[H])C4([H])[H])C([H])([H])[H])C([H])([H])C([H])(C([H])([H])[H])C3([H])[H])c([H])c([H])c2C1([H])[H]

$$$$
25:0:0
     RDKit          3D

 92101  0  0  1  0  0  0  0  0999 V2000
  -30.5710  -21.0190   18.8780 C   0  0  0  0  0  3  0  0  0  0  0  0
  -29.5250  -20.6680   19.7630 C   0  0  0  0  0  0  0  0  0  0  0  0
  -30.7990  -22.3430   18.4150 C   0  0  0  0  0  0  0  0  0  0  0  0
  -28.7320  -21.8630   20.1980 C   0  0  0  0  0  0  0  0  0  0  0  0
  -29.9950  -23.4480   18.8220 C   0  0  0  0  0  0  0  0  0  0  0  0
  -28.9760  -23.2980   19.8030 C   0  0  0  0  0  0  0  0  0  0  0  0
  -31.9370  -22.5460   17.4200 C   0  0  0  0  0  1  0  0  0  0  0  0
  -27.5060  -21.5800   21.0560 C   0  0  0  0  0  1  0  0  0  0  0  0
  -30.1920  -24.8000   18.1320 C   0  0  0  0  0  1  0  0  0  0  0  0
  -30.7480  -15.1460   19.8770 C   0  0  0  0  0  0  0  0  0  0  0  0
  -30.5860  -12.7870   18.9030 C   0  0  0  0  0  2  0  0  0  0  0  0
  -29.5600  -12.7280   17.7460 C   0  0  0  0  0  2  0  0  0  0  0  0
  -28.1450  -12.4800   18.2950 C   0  0  0  0  0  2  0  0  0  0  0  0
  -27.8200  -13.3910   19.5070 C   0  0  0  0  0  3  0  0  0  0  0  0
  -28.9560  -13.4110   20.5490 C   0  0  0  0  0  2  0  0  0  0  0  0
  -30.1550  -13.8730   19.8450 N   0  0  0  0  0  0  0  0  0  0  0  0
  -31.9040  -15.1850   19.4280 O   0  0  0  0  0  0  0  0  0  0  0  0
  -29.2560  -18.4080   21.4400 C   0  0  0  0  0  2  0  0  0  0  0  0
  -29.2500  -16.8190   21.2740 C   0  0  0  0  0  2  0  0  0  0  0  0
  -30.2220  -17.7930   19.4110 C   0  0  0  0  0  2  0  0  0  0  0  0
  -29.3000  -19.0210   20.0250 C   0  0  0  0  0  3  0  0  0  0  0  0
  -30.0150  -16.3900   20.0670 N   0  0  0  0  0  0  0  0  0  0  0  0
  -25.5290  -13.9350   20.4960 C   0  0  0  0  0  0  0  0  0  0  0  0
  -24.4960  -13.1470   20.9170 C   0  0  0  0  0  0  0  0  0  0  0  0
  -24.9420  -11.7970   20.7720 C   0  0  0  0  0  0  0  0  0  0  0  0
  -26.5310  -13.0660   20.1100 N   0  0  0  0  0  0  0  0  0  0  0  0
  -26.1960  -11.7690   20.3410 N   0  0  0  0  0  0  0  0  0  0  0  0
  -24.2200  -10.5320   20.9500 C   0  0  0  0  0  0  0  0  0  0  0  0
  -24.6420   -9.5610   21.8860 C   0  0  0  0  0  3  0  0  0  0  0  0
  -23.9100   -8.3660   22.0570 C   0  0  0  0  0  3  0  0  0  0  0  0
  -22.7460   -8.1330   21.2870 C   0  0  0  0  0  0  0  0  0  0  0  0
  -22.3480   -9.0890   20.3380 C   0  0  0  0  0  3  0  0  0  0  0  0
  -23.0800  -10.2750   20.1650 C   0  0  0  0  0  3  0  0  0  0  0  0
  -21.9840   -6.9920   21.3670 O   0  0  0  0  0  0  0  0  0  0  0  0
  -21.8250   -6.3160   22.5500 C   0  0  0  0  0  0  0  0  0  0  0  0
  -21.2510   -6.9270   23.6860 C   0  0  0  0  0  3  0  0  0  0  0  0
  -21.0370   -6.1750   24.8570 C   0  0  0  0  0  3  0  0  0  0  0  0
  -21.3930   -4.8130   24.8950 C   0  0  0  0  0  0  0  0  0  0  0  0
  -21.9630   -4.2020   23.7650 C   0  0  0  0  0  3  0  0  0  0  0  0
  -22.1740   -4.9510   22.5940 C   0  0  0  0  0  0  0  0  0  0  0  0
  -22.6990   -4.3510   21.4970 F   0  0  0  0  0  0  0  0  0  0  0  0
  -21.1870   -4.0860   26.0190 F   0  0  0  0  0  0  0  0  0  0  0  0
  -23.1300  -13.6170   21.3340 C   0  0  0  0  0  0  0  0  0  0  0  0
  -22.4770  -12.8850   22.2310 N   0  0  0  0  0  0  0  0  0  0  0  0
  -22.6580  -14.6660   20.9030 O   0  0  0  0  0  0  0  0  0  0  0  0
  -22.8700  -12.0350   22.6050 H   0  0  0  0  0  0  0  0  0  0  0  0
  -21.5700  -13.1870   22.5530 H   0  0  0  0  0  0  0  0  0  0  0  0
  -25.6980  -15.3140   20.3880 N   0  0  0  0  0  0  0  0  0  0  0  0
  -24.9690  -15.9790   20.6230 H   0  0  0  0  0  0  0  0  0  0  0  0
  -26.5270  -15.7600   20.0200 H   0  0  0  0  0  0  0  0  0  0  0  0
  -28.1100  -24.6450   20.2910 C   0  0  0  0  0  2  0  0  0  0  0  0
  -28.4400  -26.1750   20.0800 O   0  0  0  0  0  0  0  0  0  0  0  0
  -24.7360  -31.8600   23.0930 C   0  0  0  0  0  0  0  0  0  0  0  0
  -27.3970  -27.1780   20.0550 C   0  0  0  0  0  0  0  0  0  0  0  0
  -23.5740  -30.4560   21.4360 C   0  0  0  0  0  3  0  0  0  0  0  0
  -25.0560  -28.9110   20.0210 C   0  0  0  0  0  0  0  0  0  0  0  0
  -26.1310  -30.7510   21.3020 C   0  0  0  0  0  2  0  0  0  0  0  0
  -26.2270  -29.3600   20.6440 C   0  0  0  0  0  0  0  0  0  0  0  0
  -27.4040  -28.5140   20.6430 C   0  0  0  0  0  3  0  0  0  0  0  0
  -26.2010  -26.8470   19.3870 C   0  0  0  0  0  3  0  0  0  0  0  0
  -25.0600  -27.6660   19.3770 C   0  0  0  0  0  3  0  0  0  0  0  0
  -23.8170  -29.7930   20.0560 C   0  0  0  0  0  2  0  0  0  0  0  0
  -24.8330  -31.0450   21.9980 N   0  0  0  0  0  0  0  0  0  0  0  0
  -23.6390  -32.1300   23.6080 O   0  0  0  0  0  0  0  0  0  0  0  0
  -22.9010  -29.4310   22.3860 C   0  0  0  0  0  0  0  0  0  0  0  0
  -21.5700  -29.2740   22.2750 N   0  0  0  0  0  0  0  0  0  0  0  0
  -23.5800  -28.7800   23.1840 O   0  0  0  0  0  0  0  0  0  0  0  0
  -21.0850  -29.8640   21.6130 H   0  0  0  0  0  0  0  0  0  0  0  0
  -18.1780  -28.1160   22.8330 C   0  0  0  0  0  0  0  0  0  0  0  0
  -20.7480  -28.3210   23.0280 C   0  0  0  0  0  3  0  0  0  0  0  0
  -20.8020  -26.9070   22.4050 C   0  0  0  0  0  2  0  0  0  0  0  0
  -19.6620  -26.6410   21.4150 C   0  0  0  0  0  2  0  0  0  0  0  0
  -18.3020  -26.7880   22.1040 C   0  0  0  0  0  2  0  0  0  0  0  0
  -19.3230  -28.8430   23.2520 C   0  0  0  0  0  0  0  0  0  0  0  0
  -19.1480  -30.0860   23.8960 C   0  0  0  0  0  3  0  0  0  0  0  0
  -17.8580  -30.6020   24.1240 C   0  0  0  0  0  3  0  0  0  0  0  0
  -16.7290  -29.8750   23.7150 C   0  0  0  0  0  3  0  0  0  0  0  0
  -16.8870  -28.6340   23.0770 C   0  0  0  0  0  3  0  0  0  0  0  0
  -25.9980  -32.5110   23.7390 C   0  0  0  0  0  3  0  0  0  0  0  0
  -25.6480  -33.8940   24.1030 N   0  0  0  0  0  0  0  0  0  0  0  0
  -25.9370  -34.9770   23.3680 C   0  0  0  0  0  0  0  0  0  0  0  0
  -26.5910  -34.9190   22.3240 O   0  0  0  0  0  0  0  0  0  0  0  0
  -25.0690  -34.0100   24.9200 H   0  0  0  0  0  0  0  0  0  0  0  0
  -24.1540  -36.7330   23.0830 C   0  0  0  0  0  1  0  0  0  0  0  0
  -25.4150  -36.3390   23.8690 C   0  0  0  0  0  3  0  0  0  0  0  0
  -27.5340  -37.2650   24.6910 C   0  0  0  0  0  1  0  0  0  0  0  0
  -26.4150  -37.4260   23.7690 N   0  0  0  0  0  0  0  0  0  0  0  0
  -25.9850  -38.3310   23.9460 H   0  0  0  0  0  0  0  0  0  0  0  0
  -26.5200  -31.7290   25.0060 C   0  0  1  0  0  0  0  0  0  0  0  0
  -25.4280  -31.4430   26.0630 C   0  0  0  0  0  1  0  0  0  0  0  0
  -27.1440  -30.3740   24.5980 C   0  0  0  0  0  1  0  0  0  0  0  0
  -27.6410  -32.5460   25.6940 C   0  0  0  0  0  1  0  0  0  0  0  0
  1  2  1  0
  2  4  2  0
  3  5  1  0
  3  1  2  0
  4  8  1  0
  5  6  2  0
  6  4  1  0
  6 51  1  0
  7  3  1  0
  9  5  1  0
 10 22  1  0
 11 16  1  0
 12 13  1  0
 12 11  1  0
 14 13  1  0
 14 26  1  0
 14 15  1  0
 16 10  1  0
 16 15  1  0
 17 10  2  0
 19 18  1  0
 20 21  1  0
 20 22  1  0
 21  2  1  0
 21 18  1  0
 22 19  1  0
 23 24  2  0
 24 43  1  0
 25 24  1  0
 25 28  1  0
 26 27  1  0
 26 23  1  0
 27 25  2  0
 28 29  1  0
 29 30  2  0
 31 34  1  0
 31 30  1  0
 32 31  2  0
 33 32  1  0
 33 28  2  0
 34 35  1  0
 35 40  2  0
 35 36  1  0
 36 37  2  0
 37 38  1  0
 38 42  1  0
 39 38  2  0
 40 39  1  0
 41 40  1  0
 43 44  1  0
 44 47  1  0
 44 46  1  0
 45 43  2  0
 48 23  1  0
 48 49  1  0
 50 48  1  0
 52 51  1  0
 53 64  2  0
 54 52  1  0
 54 59  1  0
 55 63  1  0
 55 65  1  0
 56 62  1  0
 56 58  1  0
 57 63  1  0
 58 57  1  0
 59 58  2  0
 60 54  2  0
 61 60  1  0
 61 56  2  0
 62 55  1  0
 63 53  1  0
 65 67  2  0
 66 65  1  0
 68 66  1  0
 69 78  2  0
 69 74  1  0
 70 66  1  0
 70 74  1  0
 71 70  1  0
 72 73  1  0
 72 71  1  0
 73 69  1  0
 74 75  2  0
 75 76  1  0
 77 76  2  0
 78 77  1  0
 79 53  1  0
 79 80  1  0
 79 89  1  0
 80 83  1  0
 81 85  1  0
 81 80  1  0
 82 81  2  0
 85 84  1  0
 87 85  1  0
 87 88  1  0
 87 86  1  0
 89 92  1  1
 89 90  1  0
 91 89  1  0
M  ISO  4  10 100  22 100  51 101  52 101
M  END
>  <TORSDO>  (26) 
F 17

>  <SCORE>  (26) 
-13.720

>  <name>  (26) 
25

>  <ligand_id>  (26) 
25

>  <original_smiles>  (26) 
[H]c1c([H])c([H])c2c(c1[H])C([H])([H])C([H])([H])C([H])([H])C2([H])N([H])C(=O)C1([H])N(C(=O)C([H])(N([H])C(=O)C([H])(N([H])C([H])([H])[H])C([H])([H])[H])C(C([H])([H])[H])(C([H])([H])[H])C([H])([H])[H])C([H])([H])c2c([H])c(OC([H])([H])c3c(C([H])([H])[H])c(C([H])([H])[H])c([H])c(C4([H])C([H])([H])N(C(=O)N5C([H])([H])C([H])([H])C([H])([H])C([H])(n6nc(-c7c([H])c([H])c(Oc8c([H])c([H])c(F)c([H])c8F)c([H])c7[H])c(C(=O)N([H])[H])c6N([H])[H])C5([H])[H])C([H])([H])C4([H])[H])c3C([H])([H])[H])c([H])c([H])c2C1([H])[H]

>  <smiles>  (26) 
[H]c1c([H])c([H])c2c(c1[H])C([H])([H])C([H])([H])C([H])([H])C2([H])N([H])C(=O)C1([H])N(C(=O)C([H])(N([H])C(=O)C([H])(N([H])C([H])([H])[H])C([H])([H])[H])C(C([H])([H])[H])(C([H])([H])[H])C([H])([H])[H])C([H])([H])c2c([H])c(OC([H])([H])c3c(C([H])([H])[H])c(C([H])([H])[H])c([H])c(C4([H])C([H])([H])N(C(=O)N5C([H])([H])C([H])([H])C([H])([H])C([H])(n6nc(-c7c([H])c([H])c(Oc8c([H])c([H])c(F)c([H])c8F)c([H])c7[H])c(C(=O)N([H])[H])c6N([H])[H])C5([H])[H])C([H])([H])C4([H])[H])c3C([H])([H])[H])c([H])c([H])c2C1([H])[H]

$$$$
26:0:0
     RDKit          3D

 96106  0  0  1  0  0  0  0  0999 V2000
  -30.8360  -22.4180   19.4390 C   0  0  0  0  0  3  0  0  0  0  0  0
  -28.4230  -22.3690   19.4540 C   0  0  0  0  0  0  0  0  0  0  0  0
  -30.8200  -23.8310   19.2720 C   0  0  0  0  0  0  0  0  0  0  0  0
  -28.3990  -23.7910   19.2280 C   0  0  0  0  0  0  0  0  0  0  0  0
  -29.6000  -24.5550   19.1090 C   0  0  0  0  0  0  0  0  0  0  0  0
  -29.6490  -21.6430   19.4920 C   0  0  0  0  0  0  0  0  0  0  0  0
  -32.1640  -24.5420   19.2250 C   0  0  0  0  0  1  0  0  0  0  0  0
  -27.0720  -24.5160   19.0330 C   0  0  0  0  0  1  0  0  0  0  0  0
  -26.0980  -21.9420   20.6440 C   0  0  0  0  0  2  0  0  0  0  0  0
  -26.8730  -20.6610   20.7700 C   0  0  0  0  0  2  0  0  0  0  0  0
  -27.1360  -21.5860   19.5960 C   0  0  0  0  0  3  0  0  0  0  0  0
  -29.5980  -26.0540   18.6040 C   0  0  0  0  0  2  0  0  0  0  0  0
  -29.3120  -27.1710   19.5180 O   0  0  0  0  0  0  0  0  0  0  0  0
  -24.8850  -31.5700   23.0900 C   0  0  0  0  0  0  0  0  0  0  0  0
  -28.0840  -27.8500   19.5100 C   0  0  0  0  0  0  0  0  0  0  0  0
  -23.8870  -30.2910   21.2300 C   0  0  0  0  0  3  0  0  0  0  0  0
  -25.5360  -29.1450   19.6520 C   0  0  0  0  0  0  0  0  0  0  0  0
  -26.3700  -30.9270   21.1830 C   0  0  0  0  0  2  0  0  0  0  0  0
  -26.6250  -29.6750   20.3540 C   0  0  0  0  0  0  0  0  0  0  0  0
  -27.8940  -29.0340   20.2850 C   0  0  0  0  0  3  0  0  0  0  0  0
  -26.9590  -27.3680   18.7970 C   0  0  0  0  0  3  0  0  0  0  0  0
  -25.7030  -27.9950   18.8710 C   0  0  0  0  0  3  0  0  0  0  0  0
  -24.2030  -29.8510   19.7770 C   0  0  0  0  0  2  0  0  0  0  0  0
  -25.0630  -30.9400   21.8930 N   0  0  0  0  0  0  0  0  0  0  0  0
  -23.7660  -31.6420   23.6200 O   0  0  0  0  0  0  0  0  0  0  0  0
  -23.3350  -29.0750   22.0130 C   0  0  0  0  0  0  0  0  0  0  0  0
  -22.0410  -28.7710   21.8220 N   0  0  0  0  0  0  0  0  0  0  0  0
  -24.0710  -28.4170   22.7530 O   0  0  0  0  0  0  0  0  0  0  0  0
  -21.5010  -29.3630   21.2080 H   0  0  0  0  0  0  0  0  0  0  0  0
  -18.8030  -27.1800   22.0840 C   0  0  0  0  0  0  0  0  0  0  0  0
  -21.3230  -27.6470   22.4280 C   0  0  0  0  0  3  0  0  0  0  0  0
  -21.5680  -26.3400   21.6390 C   0  0  0  0  0  2  0  0  0  0  0  0
  -20.5030  -26.0700   20.5720 C   0  0  0  0  0  2  0  0  0  0  0  0
  -19.1150  -25.9750   21.2100 C   0  0  0  0  0  2  0  0  0  0  0  0
  -19.8410  -27.9740   22.6410 C   0  0  0  0  0  0  0  0  0  0  0  0
  -19.4960  -29.1010   23.4180 C   0  0  0  0  0  3  0  0  0  0  0  0
  -18.1470  -29.4380   23.6400 C   0  0  0  0  0  3  0  0  0  0  0  0
  -17.1250  -28.6400   23.0980 C   0  0  0  0  0  3  0  0  0  0  0  0
  -17.4540  -27.5120   22.3260 C   0  0  0  0  0  3  0  0  0  0  0  0
  -26.0720  -32.2510   23.8370 C   0  0  0  0  0  3  0  0  0  0  0  0
  -26.5840  -31.4200   25.0760 C   0  0  1  0  0  0  0  0  0  0  0  0
  -25.4610  -31.0060   26.0560 C   0  0  0  0  0  1  0  0  0  0  0  0
  -27.3000  -30.1290   24.6120 C   0  0  0  0  0  1  0  0  0  0  0  0
  -27.6280  -32.2440   25.8660 C   0  0  0  0  0  1  0  0  0  0  0  0
  -25.6240  -33.5850   24.2600 N   0  0  0  0  0  0  0  0  0  0  0  0
  -25.9190  -34.7250   23.6210 C   0  0  0  0  0  0  0  0  0  0  0  0
  -26.6670  -34.7690   22.6400 O   0  0  0  0  0  0  0  0  0  0  0  0
  -24.9640  -33.6200   25.0230 H   0  0  0  0  0  0  0  0  0  0  0  0
  -24.0700  -36.3980   23.2900 C   0  0  0  0  0  1  0  0  0  0  0  0
  -25.2840  -36.0240   24.1550 C   0  0  0  0  0  3  0  0  0  0  0  0
  -27.2780  -36.9950   25.2090 C   0  0  0  0  0  1  0  0  0  0  0  0
  -26.2270  -37.1620   24.2100 N   0  0  0  0  0  0  0  0  0  0  0  0
  -25.7320  -38.0280   24.4110 H   0  0  0  0  0  0  0  0  0  0  0  0
  -29.5850  -20.2360   19.5950 O   0  0  0  0  0  0  0  0  0  0  0  0
  -31.1300  -15.1900   19.8510 C   0  0  0  0  0  0  0  0  0  0  0  0
  -30.9350  -12.8320   19.1020 C   0  0  0  0  0  2  0  0  0  0  0  0
  -29.9980  -12.7650   17.8780 C   0  0  0  0  0  2  0  0  0  0  0  0
  -28.5290  -12.6240   18.3260 C   0  0  0  0  0  2  0  0  0  0  0  0
  -28.1380  -13.6450   19.4270 C   0  0  0  0  0  3  0  0  0  0  0  0
  -29.1960  -13.7100   20.5500 C   0  0  0  0  0  2  0  0  0  0  0  0
  -30.4980  -13.9770   19.9220 N   0  0  0  0  0  0  0  0  0  0  0  0
  -32.3060  -15.2840   19.4880 O   0  0  0  0  0  0  0  0  0  0  0  0
  -31.3120  -18.6430   20.5070 C   0  0  0  0  0  2  0  0  0  0  0  0
  -30.2490  -18.2000   18.2750 C   0  0  0  0  0  2  0  0  0  0  0  0
  -30.6210  -17.3480   21.0420 C   0  0  0  0  0  2  0  0  0  0  0  0
  -29.5940  -16.9290   18.9040 C   0  0  0  0  0  2  0  0  0  0  0  0
  -30.6680  -19.3200   19.2630 C   0  0  0  0  0  3  0  0  0  0  0  0
  -30.3650  -16.3200   20.0120 N   0  0  0  0  0  0  0  0  0  0  0  0
  -25.7890  -14.3070   20.2280 C   0  0  0  0  0  0  0  0  0  0  0  0
  -24.7080  -13.5600   20.6100 C   0  0  0  0  0  0  0  0  0  0  0  0
  -25.1260  -12.1970   20.5380 C   0  0  0  0  0  0  0  0  0  0  0  0
  -26.7970  -13.3980   19.9480 N   0  0  0  0  0  0  0  0  0  0  0  0
  -26.4050  -12.1220   20.1940 N   0  0  0  0  0  0  0  0  0  0  0  0
  -24.3650  -10.9530   20.7210 C   0  0  0  0  0  0  0  0  0  0  0  0
  -24.7890   -9.9540   21.6230 C   0  0  0  0  0  3  0  0  0  0  0  0
  -24.0300   -8.7760   21.7950 C   0  0  0  0  0  3  0  0  0  0  0  0
  -22.8340   -8.5900   21.0630 C   0  0  0  0  0  0  0  0  0  0  0  0
  -22.4280   -9.5790   20.1480 C   0  0  0  0  0  3  0  0  0  0  0  0
  -23.1880  -10.7480   19.9740 C   0  0  0  0  0  3  0  0  0  0  0  0
  -22.0460   -7.4680   21.1450 O   0  0  0  0  0  0  0  0  0  0  0  0
  -22.0100   -6.6960   22.2790 C   0  0  0  0  0  0  0  0  0  0  0  0
  -21.6310   -7.2290   23.5300 C   0  0  0  0  0  3  0  0  0  0  0  0
  -21.5400   -6.3860   24.6560 C   0  0  0  0  0  3  0  0  0  0  0  0
  -21.8160   -5.0110   24.5310 C   0  0  0  0  0  0  0  0  0  0  0  0
  -22.1890   -4.4780   23.2840 C   0  0  0  0  0  3  0  0  0  0  0  0
  -22.2820   -5.3190   22.1610 C   0  0  0  0  0  0  0  0  0  0  0  0
  -22.6200   -4.7960   20.9570 F   0  0  0  0  0  0  0  0  0  0  0  0
  -21.7220   -4.1990   25.6090 F   0  0  0  0  0  0  0  0  0  0  0  0
  -23.3340  -14.0750   20.9280 C   0  0  0  0  0  0  0  0  0  0  0  0
  -22.6120  -13.3910   21.8080 N   0  0  0  0  0  0  0  0  0  0  0  0
  -22.9120  -15.1200   20.4340 O   0  0  0  0  0  0  0  0  0  0  0  0
  -22.9660  -12.5450   22.2310 H   0  0  0  0  0  0  0  0  0  0  0  0
  -21.6910  -13.7180   22.0650 H   0  0  0  0  0  0  0  0  0  0  0  0
  -25.9930  -15.6750   20.0760 N   0  0  0  0  0  0  0  0  0  0  0  0
  -25.2550  -16.3540   20.2300 H   0  0  0  0  0  0  0  0  0  0  0  0
  -26.8580  -16.0940   19.7590 H   0  0  0  0  0  0  0  0  0  0  0  0
  1  6  1  0
  2  6  2  0
  2 11  1  0
  3  1  2  0
  4  2  1  0
  5  4  2  0
  5  3  1  0
  6 54  1  0
  7  3  1  0
  8  4  1  0
  9 10  1  0
 11  9  1  0
 11 10  1  0
 12  5  1  0
 12 13  1  0
 14 25  2  0
 15 13  1  0
 15 20  1  0
 16 24  1  0
 16 26  1  0
 17 23  1  0
 17 19  1  0
 18 24  1  0
 19 18  1  0
 20 19  2  0
 21 22  1  0
 21 15  2  0
 22 17  2  0
 23 16  1  0
 24 14  1  0
 26 28  2  0
 27 26  1  0
 29 27  1  0
 30 39  2  0
 30 35  1  0
 31 27  1  0
 31 35  1  0
 32 31  1  0
 33 34  1  0
 33 32  1  0
 34 30  1  0
 35 36  2  0
 36 37  1  0
 38 37  2  0
 39 38  1  0
 40 14  1  0
 40 45  1  0
 40 41  1  0
 41 44  1  1
 41 42  1  0
 43 41  1  0
 45 48  1  0
 46 50  1  0
 46 45  1  0
 47 46  2  0
 50 49  1  0
 50 52  1  0
 52 53  1  0
 52 51  1  0
 55 61  1  0
 55 68  1  0
 56 61  1  0
 57 58  1  0
 57 56  1  0
 59 58  1  0
 59 72  1  0
 59 60  1  0
 61 60  1  0
 62 55  2  0
 63 65  1  0
 64 66  1  0
 64 67  1  0
 66 68  1  0
 67 54  1  0
 67 63  1  0
 68 65  1  0
 69 70  2  0
 70 89  1  0
 71 70  1  0
 71 74  1  0
 72 73  1  0
 72 69  1  0
 73 71  2  0
 74 75  1  0
 75 76  2  0
 77 80  1  0
 77 76  1  0
 78 77  2  0
 79 78  1  0
 79 74  2  0
 80 81  1  0
 81 82  1  0
 82 83  2  0
 84 83  1  0
 84 88  1  0
 85 84  2  0
 86 81  2  0
 86 85  1  0
 87 86  1  0
 89 90  1  0
 90 93  1  0
 90 92  1  0
 91 89  2  0
 94 69  1  0
 94 95  1  0
 96 94  1  0
M  ISO  4  12 101  13 101  55 100  68 100
M  END
>  <TORSDO>  (27) 
F 19

>  <SCORE>  (27) 
-8.269

>  <name>  (27) 
26

>  <ligand_id>  (27) 
26

>  <original_smiles>  (27) 
[H]c1c([H])c([H])c2c(c1[H])C([H])([H])C([H])([H])C([H])([H])C2([H])N([H])C(=O)C1([H])N(C(=O)C([H])(N([H])C(=O)C([H])(N([H])C([H])([H])[H])C([H])([H])[H])C(C([H])([H])[H])(C([H])([H])[H])C([H])([H])[H])C([H])([H])c2c([H])c(OC([H])([H])c3c(C([H])([H])[H])c([H])c(OC4([H])C([H])([H])C([H])([H])N(C(=O)N5C([H])([H])C([H])([H])C([H])([H])C([H])(n6nc(-c7c([H])c([H])c(Oc8c([H])c([H])c(F)c([H])c8F)c([H])c7[H])c(C(=O)N([H])[H])c6N([H])[H])C5([H])[H])C([H])([H])C4([H])[H])c(C4([H])C([H])([H])C4([H])[H])c3C([H])([H])[H])c([H])c([H])c2C1([H])[H]

>  <smiles>  (27) 
[H]c1c([H])c([H])c2c(c1[H])C([H])([H])C([H])([H])C([H])([H])C2([H])N([H])C(=O)C1([H])N(C(=O)C([H])(N([H])C(=O)C([H])(N([H])C([H])([H])[H])C([H])([H])[H])C(C([H])([H])[H])(C([H])([H])[H])C([H])([H])[H])C([H])([H])c2c([H])c(OC([H])([H])c3c(C([H])([H])[H])c([H])c(OC4([H])C([H])([H])C([H])([H])N(C(=O)N5C([H])([H])C([H])([H])C([H])([H])C([H])(n6nc(-c7c([H])c([H])c(Oc8c([H])c([H])c(F)c([H])c8F)c([H])c7[H])c(C(=O)N([H])[H])c6N([H])[H])C5([H])[H])C([H])([H])C4([H])[H])c(C4([H])C([H])([H])C4([H])[H])c3C([H])([H])[H])c([H])c([H])c2C1([H])[H]

$$$$
27:0:0
     RDKit          3D

 95104  0  0  1  0  0  0  0  0999 V2000
  -31.7120  -20.3740   20.5000 C   0  0  0  0  0  3  0  0  0  0  0  0
  -30.3390  -20.6350   20.2790 C   0  0  0  0  0  0  0  0  0  0  0  0
  -29.9860  -22.1310   20.0720 C   0  0  0  0  0  0  0  0  0  0  0  0
  -31.1030  -22.9820   19.7210 C   0  0  0  0  0  0  0  0  0  0  0  0
  -32.4600  -22.5860   19.8730 C   0  0  0  0  0  0  0  0  0  0  0  0
  -32.7490  -21.2950   20.3340 C   0  0  0  0  0  0  0  0  0  0  0  0
  -30.8880  -24.3640   19.0950 C   0  0  0  0  0  1  0  0  0  0  0  0
  -33.6230  -23.5360   19.5430 C   0  0  0  0  0  1  0  0  0  0  0  0
  -30.6180  -15.0880   19.9520 C   0  0  0  0  0  0  0  0  0  0  0  0
  -30.3780  -12.7440   18.9590 C   0  0  0  0  0  2  0  0  0  0  0  0
  -29.3880  -12.7130   17.7740 C   0  0  0  0  0  2  0  0  0  0  0  0
  -27.9580  -12.4670   18.2870 C   0  0  0  0  0  2  0  0  0  0  0  0
  -27.6160  -13.3670   19.5070 C   0  0  0  0  0  3  0  0  0  0  0  0
  -28.7350  -13.4000   20.5710 C   0  0  0  0  0  2  0  0  0  0  0  0
  -29.9600  -13.8440   19.8920 N   0  0  0  0  0  0  0  0  0  0  0  0
  -31.7780  -15.0750   19.5310 O   0  0  0  0  0  0  0  0  0  0  0  0
  -29.4440  -18.3750   21.6160 C   0  0  0  0  0  2  0  0  0  0  0  0
  -29.2400  -16.8160   21.3580 C   0  0  0  0  0  2  0  0  0  0  0  0
  -30.2490  -17.7780   19.5230 C   0  0  0  0  0  2  0  0  0  0  0  0
  -29.5920  -19.1310   20.2750 C   0  0  0  0  0  3  0  0  0  0  0  0
  -29.9530  -16.3710   20.1440 N   0  0  0  0  0  0  0  0  0  0  0  0
  -25.2880  -13.9220   20.4110 C   0  0  0  0  0  0  0  0  0  0  0  0
  -24.2430  -13.1400   20.8200 C   0  0  0  0  0  0  0  0  0  0  0  0
  -24.6980  -11.7880   20.7240 C   0  0  0  0  0  0  0  0  0  0  0  0
  -26.3120  -13.0510   20.0800 N   0  0  0  0  0  0  0  0  0  0  0  0
  -25.9710  -11.7600   20.3350 N   0  0  0  0  0  0  0  0  0  0  0  0
  -23.9750  -10.5220   20.9240 C   0  0  0  0  0  0  0  0  0  0  0  0
  -24.4140   -9.5610   21.8620 C   0  0  0  0  0  3  0  0  0  0  0  0
  -23.6890   -8.3640   22.0540 C   0  0  0  0  0  3  0  0  0  0  0  0
  -22.5130   -8.1180   21.3050 C   0  0  0  0  0  0  0  0  0  0  0  0
  -22.0930   -9.0700   20.3590 C   0  0  0  0  0  3  0  0  0  0  0  0
  -22.8170  -10.2580   20.1650 C   0  0  0  0  0  3  0  0  0  0  0  0
  -21.7610   -6.9730   21.4040 O   0  0  0  0  0  0  0  0  0  0  0  0
  -21.6700   -6.2720   22.5800 C   0  0  0  0  0  0  0  0  0  0  0  0
  -21.1850   -6.8660   23.7660 C   0  0  0  0  0  3  0  0  0  0  0  0
  -21.0380   -6.0910   24.9340 C   0  0  0  0  0  3  0  0  0  0  0  0
  -21.3660   -4.7220   24.9160 C   0  0  0  0  0  0  0  0  0  0  0  0
  -21.8450   -4.1270   23.7350 C   0  0  0  0  0  3  0  0  0  0  0  0
  -21.9900   -4.8990   22.5700 C   0  0  0  0  0  0  0  0  0  0  0  0
  -22.4300   -4.3150   21.4300 F   0  0  0  0  0  0  0  0  0  0  0  0
  -21.2160   -3.9770   26.0360 F   0  0  0  0  0  0  0  0  0  0  0  0
  -22.8650  -13.6170   21.1770 C   0  0  0  0  0  0  0  0  0  0  0  0
  -22.1840  -12.9140   22.0750 N   0  0  0  0  0  0  0  0  0  0  0  0
  -22.4020  -14.6510   20.6950 O   0  0  0  0  0  0  0  0  0  0  0  0
  -22.5720  -12.0880   22.5000 H   0  0  0  0  0  0  0  0  0  0  0  0
  -21.2600  -13.2190   22.3470 H   0  0  0  0  0  0  0  0  0  0  0  0
  -25.4450  -15.2960   20.2590 N   0  0  0  0  0  0  0  0  0  0  0  0
  -24.6950  -15.9480   20.4520 H   0  0  0  0  0  0  0  0  0  0  0  0
  -26.2730  -15.7390   19.8810 H   0  0  0  0  0  0  0  0  0  0  0  0
  -27.6020  -22.1190   20.9580 C   0  0  0  0  0  1  0  0  0  0  0  0
  -28.5690  -22.9990   20.1310 C   0  0  0  0  0  3  0  0  0  0  0  0
  -28.2810  -24.6430   20.6650 C   0  0  0  0  0  2  0  0  0  0  0  0
  -28.4320  -26.1270   20.1270 O   0  0  0  0  0  0  0  0  0  0  0  0
  -24.5630  -31.7240   23.1110 C   0  0  0  0  0  0  0  0  0  0  0  0
  -27.3470  -27.0950   20.1070 C   0  0  0  0  0  0  0  0  0  0  0  0
  -23.4400  -30.3170   21.4250 C   0  0  0  0  0  3  0  0  0  0  0  0
  -24.9700  -28.7960   20.0170 C   0  0  0  0  0  0  0  0  0  0  0  0
  -25.9890  -30.6560   21.3210 C   0  0  0  0  0  2  0  0  0  0  0  0
  -26.1230  -29.2690   20.6560 C   0  0  0  0  0  0  0  0  0  0  0  0
  -27.3110  -28.4400   20.6760 C   0  0  0  0  0  3  0  0  0  0  0  0
  -26.1590  -26.7260   19.4360 C   0  0  0  0  0  3  0  0  0  0  0  0
  -25.0030  -27.5390   19.3900 C   0  0  0  0  0  3  0  0  0  0  0  0
  -23.7160  -29.6580   20.0450 C   0  0  0  0  0  2  0  0  0  0  0  0
  -24.6810  -30.9240   22.0060 N   0  0  0  0  0  0  0  0  0  0  0  0
  -23.4590  -31.9630   23.6240 O   0  0  0  0  0  0  0  0  0  0  0  0
  -22.7690  -29.2800   22.3600 C   0  0  0  0  0  0  0  0  0  0  0  0
  -21.4460  -29.0850   22.2150 N   0  0  0  0  0  0  0  0  0  0  0  0
  -23.4470  -28.6510   23.1760 O   0  0  0  0  0  0  0  0  0  0  0  0
  -20.9590  -29.6430   21.5290 H   0  0  0  0  0  0  0  0  0  0  0  0
  -18.0790  -27.8290   22.6860 C   0  0  0  0  0  0  0  0  0  0  0  0
  -20.6360  -28.1150   22.9560 C   0  0  0  0  0  3  0  0  0  0  0  0
  -20.7540  -26.7050   22.3350 C   0  0  0  0  0  2  0  0  0  0  0  0
  -19.6540  -26.3990   21.3130 C   0  0  0  0  0  2  0  0  0  0  0  0
  -18.2700  -26.5070   21.9610 C   0  0  0  0  0  2  0  0  0  0  0  0
  -19.1880  -28.5930   23.1360 C   0  0  0  0  0  0  0  0  0  0  0  0
  -18.9530  -29.8310   23.7720 C   0  0  0  0  0  3  0  0  0  0  0  0
  -17.6410  -30.3070   23.9590 C   0  0  0  0  0  3  0  0  0  0  0  0
  -16.5470  -29.5410   23.5240 C   0  0  0  0  0  3  0  0  0  0  0  0
  -16.7660  -28.3030   22.8940 C   0  0  0  0  0  3  0  0  0  0  0  0
  -25.8080  -32.3910   23.7730 C   0  0  0  0  0  3  0  0  0  0  0  0
  -26.3060  -31.6260   25.0610 C   0  0  1  0  0  0  0  0  0  0  0  0
  -25.1890  -31.3570   26.0980 C   0  0  0  0  0  1  0  0  0  0  0  0
  -26.9380  -30.2670   24.6860 C   0  0  0  0  0  1  0  0  0  0  0  0
  -27.4160  -32.4450   25.7610 C   0  0  0  0  0  1  0  0  0  0  0  0
  -25.4460  -33.7740   24.1160 N   0  0  0  0  0  0  0  0  0  0  0  0
  -25.7570  -34.8500   23.3810 C   0  0  0  0  0  0  0  0  0  0  0  0
  -26.4390  -34.7840   22.3560 O   0  0  0  0  0  0  0  0  0  0  0  0
  -24.8460  -33.8910   24.9180 H   0  0  0  0  0  0  0  0  0  0  0  0
  -23.9810  -36.6000   23.0290 C   0  0  0  0  0  1  0  0  0  0  0  0
  -25.2220  -36.2170   23.8550 C   0  0  0  0  0  3  0  0  0  0  0  0
  -27.3150  -37.1550   24.7350 C   0  0  0  0  0  1  0  0  0  0  0  0
  -26.2230  -37.3030   23.7760 N   0  0  0  0  0  0  0  0  0  0  0  0
  -25.7850  -38.2090   23.9240 H   0  0  0  0  0  0  0  0  0  0  0  0
  -34.6930  -21.2840   21.6810 C   0  0  0  0  0  1  0  0  0  0  0  0
  -34.0350  -20.8420   20.5020 O   0  0  0  0  0  0  0  0  0  0  0  0
  2  1  2  0
  3 51  1  0
  3  2  1  0
  4  5  1  0
  4  3  2  0
  5  6  2  0
  6  1  1  0
  6 95  1  0
  7  4  1  0
  8  5  1  0
  9 21  1  0
 10 15  1  0
 11 12  1  0
 11 10  1  0
 13 12  1  0
 13 25  1  0
 13 14  1  0
 15  9  1  0
 15 14  1  0
 16  9  2  0
 18 17  1  0
 19 21  1  0
 19 20  1  0
 20  2  1  0
 20 17  1  0
 21 18  1  0
 22 23  2  0
 23 42  1  0
 24 23  1  0
 24 27  1  0
 25 26  1  0
 25 22  1  0
 26 24  2  0
 27 28  1  0
 28 29  2  0
 30 33  1  0
 30 29  1  0
 31 30  2  0
 32 31  1  0
 32 27  2  0
 33 34  1  0
 34 35  1  0
 35 36  2  0
 37 36  1  0
 37 41  1  0
 38 37  2  0
 39 34  2  0
 39 38  1  0
 40 39  1  0
 42 43  1  0
 43 46  1  0
 43 45  1  0
 44 42  2  0
 47 22  1  0
 47 48  1  0
 49 47  1  0
 51 52  1  0
 51 50  1  0
 53 52  1  0
 54 65  2  0
 55 53  1  0
 55 60  1  0
 56 64  1  0
 56 66  1  0
 57 63  1  0
 57 59  1  0
 58 64  1  0
 59 60  2  0
 59 58  1  0
 61 55  2  0
 62 61  1  0
 62 57  2  0
 63 56  1  0
 64 54  1  0
 66 68  2  0
 67 66  1  0
 69 67  1  0
 70 79  2  0
 70 75  1  0
 71 67  1  0
 71 75  1  0
 72 71  1  0
 73 74  1  0
 73 72  1  0
 74 70  1  0
 75 76  2  0
 76 77  1  0
 78 77  2  0
 79 78  1  0
 80 54  1  0
 80 85  1  0
 80 81  1  0
 81 84  1  1
 81 82  1  0
 83 81  1  0
 85 88  1  0
 86 90  1  0
 86 85  1  0
 87 86  2  0
 90 89  1  0
 92 90  1  0
 92 93  1  0
 92 91  1  0
 95 94  1  0
M  ISO  4   9 100  21 100  52 101  53 101
M  END
>  <TORSDO>  (28) 
F 19

>  <SCORE>  (28) 
-14.088

>  <name>  (28) 
27

>  <ligand_id>  (28) 
27

>  <original_smiles>  (28) 
[H]c1c([H])c([H])c2c(c1[H])C([H])([H])C([H])([H])C([H])([H])C2([H])N([H])C(=O)C1([H])N(C(=O)C([H])(N([H])C(=O)C([H])(N([H])C([H])([H])[H])C([H])([H])[H])C(C([H])([H])[H])(C([H])([H])[H])C([H])([H])[H])C([H])([H])c2c([H])c(OC([H])([H])C([H])(c3c(C([H])([H])[H])c(C([H])([H])[H])c(OC([H])([H])[H])c([H])c3C3([H])C([H])([H])N(C(=O)N4C([H])([H])C([H])([H])C([H])([H])C([H])(n5nc(-c6c([H])c([H])c(Oc7c([H])c([H])c(F)c([H])c7F)c([H])c6[H])c(C(=O)N([H])[H])c5N([H])[H])C4([H])[H])C([H])([H])C3([H])[H])C([H])([H])[H])c([H])c([H])c2C1([H])[H]

>  <smiles>  (28) 
[H]c1c([H])c([H])c2c(c1[H])C([H])([H])C([H])([H])C([H])([H])C2([H])N([H])C(=O)C1([H])N(C(=O)C([H])(N([H])C(=O)C([H])(N([H])C([H])([H])[H])C([H])([H])[H])C(C([H])([H])[H])(C([H])([H])[H])C([H])([H])[H])C([H])([H])c2c([H])c(OC([H])([H])C([H])(c3c(C([H])([H])[H])c(C([H])([H])[H])c(OC([H])([H])[H])c([H])c3C3([H])C([H])([H])N(C(=O)N4C([H])([H])C([H])([H])C([H])([H])C([H])(n5nc(-c6c([H])c([H])c(Oc7c([H])c([H])c(F)c([H])c7F)c([H])c6[H])c(C(=O)N([H])[H])c5N([H])[H])C4([H])[H])C([H])([H])C3([H])[H])C([H])([H])[H])c([H])c([H])c2C1([H])[H]

$$$$
28:0:0
     RDKit          3D

 95105  0  0  1  0  0  0  0  0999 V2000
  -29.5930  -21.0320   20.2730 C   0  0  0  0  0  2  0  0  0  0  0  0
  -30.1890  -23.4930   21.1470 C   0  0  0  0  0  2  0  0  0  0  0  0
  -28.4960  -23.1490   19.3240 C   0  0  0  0  0  2  0  0  0  0  0  0
  -29.6300  -24.9330   21.3900 C   0  0  0  0  0  2  0  0  0  0  0  0
  -27.9130  -24.5540   19.5850 C   0  0  0  0  0  2  0  0  0  0  0  0
  -29.1190  -22.5090   20.5930 C   0  0  0  0  0  3  0  0  0  0  0  0
  -28.9820  -25.5300   20.1130 C   0  0  0  0  0  3  0  0  0  0  0  0
  -28.7190  -26.9640   20.1480 O   0  0  0  0  0  0  0  0  0  0  0  0
  -24.6740  -31.9420   23.2630 C   0  0  0  0  0  0  0  0  0  0  0  0
  -27.4760  -27.5880   20.1690 C   0  0  0  0  0  0  0  0  0  0  0  0
  -23.5280  -30.5380   21.5810 C   0  0  0  0  0  3  0  0  0  0  0  0
  -25.0390  -29.0630   20.1540 C   0  0  0  0  0  0  0  0  0  0  0  0
  -26.0450  -30.9640   21.4220 C   0  0  0  0  0  2  0  0  0  0  0  0
  -26.1750  -29.5980   20.7710 C   0  0  0  0  0  0  0  0  0  0  0  0
  -27.3880  -28.8680   20.7750 C   0  0  0  0  0  3  0  0  0  0  0  0
  -26.3170  -27.0860   19.5290 C   0  0  0  0  0  3  0  0  0  0  0  0
  -25.1070  -27.8060   19.5320 C   0  0  0  0  0  3  0  0  0  0  0  0
  -23.7750  -29.8920   20.1920 C   0  0  0  0  0  2  0  0  0  0  0  0
  -24.7670  -31.1640   22.1480 N   0  0  0  0  0  0  0  0  0  0  0  0
  -23.5790  -32.1750   23.7910 O   0  0  0  0  0  0  0  0  0  0  0  0
  -22.8950  -29.4800   22.5150 C   0  0  0  0  0  0  0  0  0  0  0  0
  -21.5830  -29.2460   22.3520 N   0  0  0  0  0  0  0  0  0  0  0  0
  -23.5810  -28.8760   23.3430 O   0  0  0  0  0  0  0  0  0  0  0  0
  -21.0900  -29.7830   21.6520 H   0  0  0  0  0  0  0  0  0  0  0  0
  -18.2600  -27.8800   22.7300 C   0  0  0  0  0  0  0  0  0  0  0  0
  -20.7880  -28.2660   23.0940 C   0  0  0  0  0  3  0  0  0  0  0  0
  -20.9870  -26.8450   22.5210 C   0  0  0  0  0  2  0  0  0  0  0  0
  -19.9410  -26.4670   21.4680 C   0  0  0  0  0  2  0  0  0  0  0  0
  -18.5300  -26.5420   22.0590 C   0  0  0  0  0  2  0  0  0  0  0  0
  -19.3210  -28.6960   23.2000 C   0  0  0  0  0  0  0  0  0  0  0  0
  -19.0170  -29.9450   23.7830 C   0  0  0  0  0  3  0  0  0  0  0  0
  -17.6840  -30.3820   23.8960 C   0  0  0  0  0  3  0  0  0  0  0  0
  -16.6360  -29.5620   23.4420 C   0  0  0  0  0  3  0  0  0  0  0  0
  -16.9240  -28.3120   22.8660 C   0  0  0  0  0  3  0  0  0  0  0  0
  -25.9360  -32.5990   23.9070 C   0  0  0  0  0  3  0  0  0  0  0  0
  -26.4400  -31.8410   25.1960 C   0  0  1  0  0  0  0  0  0  0  0  0
  -25.3250  -31.5850   26.2390 C   0  0  0  0  0  1  0  0  0  0  0  0
  -27.0590  -30.4740   24.8190 C   0  0  0  0  0  1  0  0  0  0  0  0
  -27.5640  -32.6570   25.8800 C   0  0  0  0  0  1  0  0  0  0  0  0
  -25.6000  -33.9930   24.2230 N   0  0  0  0  0  0  0  0  0  0  0  0
  -25.9160  -35.0430   23.4540 C   0  0  0  0  0  0  0  0  0  0  0  0
  -26.5970  -34.9380   22.4290 O   0  0  0  0  0  0  0  0  0  0  0  0
  -25.0090  -34.1470   25.0270 H   0  0  0  0  0  0  0  0  0  0  0  0
  -24.1580  -36.7930   23.0590 C   0  0  0  0  0  1  0  0  0  0  0  0
  -25.3990  -36.4270   23.8890 C   0  0  0  0  0  3  0  0  0  0  0  0
  -27.5090  -37.3650   24.7240 C   0  0  0  0  0  1  0  0  0  0  0  0
  -26.4120  -37.4980   23.7680 N   0  0  0  0  0  0  0  0  0  0  0  0
  -25.9890  -38.4130   23.8960 H   0  0  0  0  0  0  0  0  0  0  0  0
  -30.2510  -20.2140   21.3590 N   0  0  2  0  0  4  0  0  0  0  0  0
  -31.2230  -20.4770   21.3050 H   0  0  0  0  0  0  0  0  0  0  0  0
  -31.5120  -14.6970   20.1750 C   0  0  0  0  0  0  0  0  0  0  0  0
  -31.0760  -12.5050   19.1000 C   0  0  0  0  0  2  0  0  0  0  0  0
  -30.1430  -12.6630   17.8810 C   0  0  0  0  0  2  0  0  0  0  0  0
  -28.6660  -12.6080   18.3190 C   0  0  0  0  0  2  0  0  0  0  0  0
  -28.3650  -13.5600   19.5040 C   0  0  0  0  0  3  0  0  0  0  0  0
  -29.4050  -13.3800   20.6360 C   0  0  0  0  0  2  0  0  0  0  0  0
  -30.7450  -13.5730   20.0600 N   0  0  0  0  0  0  0  0  0  0  0  0
  -32.6740  -14.7490   19.7660 O   0  0  0  0  0  0  0  0  0  0  0  0
  -31.4550  -18.0070   21.8690 C   0  0  0  0  0  2  0  0  0  0  0  0
  -30.2150  -18.1240   19.7530 C   0  0  0  0  0  2  0  0  0  0  0  0
  -31.3090  -16.4590   21.9170 C   0  0  0  0  0  2  0  0  0  0  0  0
  -29.9840  -16.5940   19.7830 C   0  0  0  0  0  2  0  0  0  0  0  0
  -30.2560  -18.7010   21.1850 C   0  0  0  0  0  3  0  0  0  0  0  0
  -30.8960  -15.8170   20.6510 N   0  0  0  0  0  0  0  0  0  0  0  0
  -26.0370  -14.3850   20.2220 C   0  0  0  0  0  0  0  0  0  0  0  0
  -24.9070  -13.7090   20.5990 C   0  0  0  0  0  0  0  0  0  0  0  0
  -25.2530  -12.3230   20.5780 C   0  0  0  0  0  0  0  0  0  0  0  0
  -27.0000  -13.4130   19.9940 N   0  0  0  0  0  0  0  0  0  0  0  0
  -26.5340  -12.1710   20.2710 N   0  0  0  0  0  0  0  0  0  0  0  0
  -24.4250  -11.1270   20.7720 C   0  0  0  0  0  0  0  0  0  0  0  0
  -24.7840  -10.1270   21.7010 C   0  0  0  0  0  3  0  0  0  0  0  0
  -23.9630   -8.9930   21.8820 C   0  0  0  0  0  3  0  0  0  0  0  0
  -22.7690   -8.8550   21.1340 C   0  0  0  0  0  0  0  0  0  0  0  0
  -22.4300   -9.8440   20.1940 C   0  0  0  0  0  3  0  0  0  0  0  0
  -23.2500  -10.9690   20.0110 C   0  0  0  0  0  3  0  0  0  0  0  0
  -21.9240   -7.7760   21.2260 O   0  0  0  0  0  0  0  0  0  0  0  0
  -21.7990   -7.0570   22.3860 C   0  0  0  0  0  0  0  0  0  0  0  0
  -21.4210   -7.6640   23.6030 C   0  0  0  0  0  3  0  0  0  0  0  0
  -21.2370   -6.8750   24.7560 C   0  0  0  0  0  3  0  0  0  0  0  0
  -21.4220   -5.4820   24.6930 C   0  0  0  0  0  0  0  0  0  0  0  0
  -21.7940   -4.8740   23.4810 C   0  0  0  0  0  3  0  0  0  0  0  0
  -21.9790   -5.6600   22.3300 C   0  0  0  0  0  0  0  0  0  0  0  0
  -22.3160   -5.0670   21.1590 F   0  0  0  0  0  0  0  0  0  0  0  0
  -21.2370   -4.7220   25.7990 F   0  0  0  0  0  0  0  0  0  0  0  0
  -23.5550  -14.3040   20.8650 C   0  0  0  0  0  0  0  0  0  0  0  0
  -22.7860  -13.6990   21.7650 N   0  0  0  0  0  0  0  0  0  0  0  0
  -23.1910  -15.3400   20.3100 O   0  0  0  0  0  0  0  0  0  0  0  0
  -23.0930  -12.8590   22.2330 H   0  0  0  0  0  0  0  0  0  0  0  0
  -21.8790  -14.0830   21.9900 H   0  0  0  0  0  0  0  0  0  0  0  0
  -26.3140  -15.7350   20.0310 N   0  0  0  0  0  0  0  0  0  0  0  0
  -25.5980  -16.4470   20.1140 H   0  0  0  0  0  0  0  0  0  0  0  0
  -27.1830  -16.0870   19.6530 H   0  0  0  0  0  0  0  0  0  0  0  0
  -30.7370  -20.2830   23.8990 C   0  0  0  0  0  2  0  0  0  0  0  0
  -30.7100  -21.6860   23.3490 C   0  0  0  0  0  2  0  0  0  0  0  0
  -29.8180  -20.6220   22.7330 C   0  0  0  0  0  3  0  0  0  0  0  0
  1 49  1  0
  2  4  1  0
  3  5  1  0
  3  6  1  0
  5  7  1  0
  6  1  1  0
  6  2  1  0
  7  8  1  0
  7  4  1  0
  8 10  1  0
  9 20  2  0
 10 15  1  0
 11 19  1  0
 11 21  1  0
 12 18  1  0
 12 14  1  0
 13 19  1  0
 14 15  2  0
 14 13  1  0
 16 17  1  0
 16 10  2  0
 17 12  2  0
 18 11  1  0
 19  9  1  0
 21 23  2  0
 22 21  1  0
 24 22  1  0
 25 34  2  0
 25 30  1  0
 26 22  1  0
 26 30  1  0
 27 26  1  0
 28 29  1  0
 28 27  1  0
 29 25  1  0
 30 31  2  0
 31 32  1  0
 33 32  2  0
 34 33  1  0
 35  9  1  0
 35 40  1  0
 35 36  1  0
 36 39  1  1
 36 37  1  0
 38 36  1  0
 40 43  1  0
 41 45  1  0
 41 40  1  0
 42 41  2  0
 45 44  1  0
 47 45  1  0
 47 48  1  0
 47 46  1  0
 49 95  1  0
 49 50  1  1
 51 64  1  0
 52 57  1  0
 53 54  1  0
 53 52  1  0
 55 54  1  0
 55 68  1  0
 55 56  1  0
 57 51  1  0
 57 56  1  0
 58 51  2  0
 59 61  1  0
 60 62  1  0
 60 63  1  0
 62 64  1  0
 63 49  1  0
 63 59  1  0
 64 61  1  0
 65 66  2  0
 66 85  1  0
 67 66  1  0
 67 70  1  0
 68 65  1  0
 68 69  1  0
 69 67  2  0
 70 71  1  0
 71 72  2  0
 73 76  1  0
 73 72  1  0
 74 73  2  0
 75 74  1  0
 75 70  2  0
 76 77  1  0
 77 78  1  0
 78 79  2  0
 80 79  1  0
 80 84  1  0
 81 80  2  0
 82 77  2  0
 82 81  1  0
 83 82  1  0
 85 86  1  0
 86 89  1  0
 86 88  1  0
 87 85  2  0
 90 91  1  0
 90 65  1  0
 92 90  1  0
 94 93  1  0
 95 94  1  0
 95 93  1  0
M  ISO  4   7 101   8 101  51 100  64 100
M  END
>  <TORSDO>  (29) 
F 19

>  <SCORE>  (29) 
-13.076

>  <name>  (29) 
28

>  <ligand_id>  (29) 
28

>  <original_smiles>  (29) 
[H]c1c([H])c([H])c2c(c1[H])C([H])([H])C([H])([H])C([H])([H])C2([H])N([H])C(=O)C1([H])N(C(=O)C([H])(N([H])C(=O)C([H])(N([H])C([H])([H])[H])C([H])([H])[H])C(C([H])([H])[H])(C([H])([H])[H])C([H])([H])[H])C([H])([H])c2c([H])c(OC3([H])C([H])([H])C([H])([H])C([H])(C([H])([H])[N+]([H])(C4([H])C([H])([H])C([H])([H])N(C(=O)N5C([H])([H])C([H])([H])C([H])([H])C([H])(n6nc(-c7c([H])c([H])c(Oc8c([H])c([H])c(F)c([H])c8F)c([H])c7[H])c(C(=O)N([H])[H])c6N([H])[H])C5([H])[H])C([H])([H])C4([H])[H])C4([H])C([H])([H])C4([H])[H])C([H])([H])C3([H])[H])c([H])c([H])c2C1([H])[H]

>  <smiles>  (29) 
[H]c1c([H])c([H])c2c(c1[H])C([H])([H])C([H])([H])C([H])([H])C2([H])N([H])C(=O)C1([H])N(C(=O)C([H])(N([H])C(=O)C([H])(N([H])C([H])([H])[H])C([H])([H])[H])C(C([H])([H])[H])(C([H])([H])[H])C([H])([H])[H])C([H])([H])c2c([H])c(OC3([H])C([H])([H])C([H])([H])C([H])(C([H])([H])[N+]([H])(C4([H])C([H])([H])C([H])([H])N(C(=O)N5C([H])([H])C([H])([H])C([H])([H])C([H])(n6nc(-c7c([H])c([H])c(Oc8c([H])c([H])c(F)c([H])c8F)c([H])c7[H])c(C(=O)N([H])[H])c6N([H])[H])C5([H])[H])C([H])([H])C4([H])[H])C4([H])C([H])([H])C4([H])[H])C([H])([H])C3([H])[H])c([H])c([H])c2C1([H])[H]

$$$$
29:0:0
     RDKit          3D

100110  0  0  1  0  0  0  0  0999 V2000
  -27.4570  -18.3230   19.5280 C   0  0  0  0  0  3  0  0  0  0  0  0
  -28.5000  -19.2310   19.8150 C   0  0  0  0  0  0  0  0  0  0  0  0
  -28.1490  -20.6700   19.8200 C   0  0  0  0  0  0  0  0  0  0  0  0
  -26.7500  -20.9730   20.0120 C   0  0  0  0  0  0  0  0  0  0  0  0
  -25.7480  -20.0010   19.7570 C   0  0  0  0  0  0  0  0  0  0  0  0
  -26.1240  -18.7080   19.3850 C   0  0  0  0  0  0  0  0  0  0  0  0
  -26.2740  -22.3500   20.4840 C   0  0  0  0  0  1  0  0  0  0  0  0
  -24.2600  -20.3230   19.8610 C   0  0  0  0  0  1  0  0  0  0  0  0
  -30.9740  -15.1840   20.9920 C   0  0  0  0  0  0  0  0  0  0  0  0
  -30.9590  -12.7530   20.4270 C   0  0  0  0  0  2  0  0  0  0  0  0
  -30.2300  -12.5490   19.0800 C   0  0  0  0  0  2  0  0  0  0  0  0
  -28.7140  -12.3890   19.3070 C   0  0  0  0  0  2  0  0  0  0  0  0
  -28.1300  -13.4550   20.2730 C   0  0  0  0  0  3  0  0  0  0  0  0
  -29.0050  -13.6580   21.5260 C   0  0  0  0  0  2  0  0  0  0  0  0
  -30.3650  -13.9510   21.0600 N   0  0  0  0  0  0  0  0  0  0  0  0
  -32.2050  -15.2310   20.9640 O   0  0  0  0  0  0  0  0  0  0  0  0
  -29.9750  -17.5300   21.4140 C   0  0  0  0  0  2  0  0  0  0  0  0
  -29.8420  -18.4430   20.1440 C   0  0  0  0  0  3  0  0  0  0  0  0
  -30.3210  -17.1590   19.3740 C   0  0  0  0  0  3  0  0  0  0  0  0
  -30.2140  -16.2950   20.6120 N   0  0  0  0  0  0  0  0  0  0  0  0
  -25.6910  -14.0730   20.7500 C   0  0  0  0  0  0  0  0  0  0  0  0
  -24.5700  -13.3260   20.9680 C   0  0  0  0  0  0  0  0  0  0  0  0
  -25.0040  -11.9660   20.9620 C   0  0  0  0  0  0  0  0  0  0  0  0
  -26.7360  -13.1780   20.6120 N   0  0  0  0  0  0  0  0  0  0  0  0
  -26.3220  -11.9000   20.8070 N   0  0  0  0  0  0  0  0  0  0  0  0
  -24.2330  -10.7220   21.0400 C   0  0  0  0  0  0  0  0  0  0  0  0
  -24.5980   -9.6840   21.9260 C   0  0  0  0  0  3  0  0  0  0  0  0
  -23.8310   -8.5010   21.9950 C   0  0  0  0  0  3  0  0  0  0  0  0
  -22.6870   -8.3490   21.1760 C   0  0  0  0  0  0  0  0  0  0  0  0
  -22.3420   -9.3770   20.2800 C   0  0  0  0  0  3  0  0  0  0  0  0
  -23.1100  -10.5510   20.2080 C   0  0  0  0  0  3  0  0  0  0  0  0
  -21.8980   -7.2250   21.1550 O   0  0  0  0  0  0  0  0  0  0  0  0
  -21.8250   -6.3770   22.2320 C   0  0  0  0  0  0  0  0  0  0  0  0
  -21.4110   -6.8260   23.5050 C   0  0  0  0  0  3  0  0  0  0  0  0
  -21.2800   -5.9070   24.5670 C   0  0  0  0  0  3  0  0  0  0  0  0
  -21.5550   -4.5430   24.3560 C   0  0  0  0  0  0  0  0  0  0  0  0
  -21.9650   -4.0940   23.0880 C   0  0  0  0  0  3  0  0  0  0  0  0
  -22.0950   -5.0090   22.0280 C   0  0  0  0  0  0  0  0  0  0  0  0
  -22.4670   -4.5690   20.8020 F   0  0  0  0  0  0  0  0  0  0  0  0
  -21.4260   -3.6590   25.3730 F   0  0  0  0  0  0  0  0  0  0  0  0
  -23.1620  -13.8380   21.0810 C   0  0  0  0  0  0  0  0  0  0  0  0
  -22.3240  -13.1610   21.8570 N   0  0  0  0  0  0  0  0  0  0  0  0
  -22.8090  -14.8710   20.5140 O   0  0  0  0  0  0  0  0  0  0  0  0
  -22.6180  -12.3240   22.3380 H   0  0  0  0  0  0  0  0  0  0  0  0
  -21.3750  -13.4880   21.9730 H   0  0  0  0  0  0  0  0  0  0  0  0
  -25.9240  -15.4310   20.6290 N   0  0  0  0  0  0  0  0  0  0  0  0
  -25.1970  -16.1390   20.5850 H   0  0  0  0  0  0  0  0  0  0  0  0
  -26.8330  -15.8110   20.4140 H   0  0  0  0  0  0  0  0  0  0  0  0
  -31.5320  -17.7630   17.2470 C   0  0  0  0  0  1  0  0  0  0  0  0
  -32.8070  -17.9330   19.3940 C   0  0  0  0  0  1  0  0  0  0  0  0
  -31.6890  -17.1670   18.6550 C   0  0  0  0  0  3  0  0  0  0  0  0
  -29.6030  -22.8680   20.5550 C   0  0  0  0  0  2  0  0  0  0  0  0
  -28.3090  -22.8230   18.3180 C   0  0  0  0  0  2  0  0  0  0  0  0
  -29.7120  -24.4430   20.3370 C   0  0  0  0  0  2  0  0  0  0  0  0
  -28.6240  -24.3660   18.1800 C   0  0  0  0  0  2  0  0  0  0  0  0
  -29.0550  -21.9300   19.4020 C   0  0  0  0  0  3  0  0  0  0  0  0
  -28.6020  -25.1780   19.5100 C   0  0  0  0  0  3  0  0  0  0  0  0
  -28.7870  -26.6660   19.4160 O   0  0  0  0  0  0  0  0  0  0  0  0
  -25.3530  -31.5410   23.5760 C   0  0  0  0  0  0  0  0  0  0  0  0
  -27.7010  -27.5550   19.5900 C   0  0  0  0  0  0  0  0  0  0  0  0
  -24.0680  -30.5870   21.6960 C   0  0  0  0  0  3  0  0  0  0  0  0
  -25.4260  -29.2750   19.9610 C   0  0  0  0  0  0  0  0  0  0  0  0
  -26.6210  -30.7810   21.5480 C   0  0  0  0  0  2  0  0  0  0  0  0
  -26.6240  -29.5600   20.6280 C   0  0  0  0  0  0  0  0  0  0  0  0
  -27.7620  -28.7170   20.4310 C   0  0  0  0  0  3  0  0  0  0  0  0
  -26.4780  -27.3300   18.9210 C   0  0  0  0  0  3  0  0  0  0  0  0
  -25.3580  -28.1670   19.1000 C   0  0  0  0  0  3  0  0  0  0  0  0
  -24.2450  -30.1970   20.2040 C   0  0  0  0  0  2  0  0  0  0  0  0
  -25.3690  -30.9750   22.3320 N   0  0  0  0  0  0  0  0  0  0  0  0
  -24.2900  -31.7650   24.1710 O   0  0  0  0  0  0  0  0  0  0  0  0
  -23.3430  -29.4360   22.4340 C   0  0  0  0  0  0  0  0  0  0  0  0
  -22.0140  -29.3440   22.2550 N   0  0  0  0  0  0  0  0  0  0  0  0
  -23.9770  -28.6370   23.1290 O   0  0  0  0  0  0  0  0  0  0  0  0
  -21.5660  -30.0450   21.6800 H   0  0  0  0  0  0  0  0  0  0  0  0
  -18.5840  -28.2040   22.4530 C   0  0  0  0  0  0  0  0  0  0  0  0
  -21.1420  -28.3110   22.8180 C   0  0  0  0  0  3  0  0  0  0  0  0
  -21.2100  -27.0090   21.9880 C   0  0  0  0  0  2  0  0  0  0  0  0
  -20.1250  -26.9190   20.9090 C   0  0  0  0  0  2  0  0  0  0  0  0
  -18.7310  -26.9980   21.5410 C   0  0  0  0  0  2  0  0  0  0  0  0
  -19.7160  -28.8280   23.0410 C   0  0  0  0  0  0  0  0  0  0  0  0
  -19.5230  -29.9630   23.8580 C   0  0  0  0  0  3  0  0  0  0  0  0
  -18.2310  -30.4730   24.0890 C   0  0  0  0  0  3  0  0  0  0  0  0
  -17.1140  -29.8440   23.5130 C   0  0  0  0  0  3  0  0  0  0  0  0
  -17.2910  -28.7090   22.7030 C   0  0  0  0  0  3  0  0  0  0  0  0
  -26.6710  -31.9540   24.3030 C   0  0  0  0  0  3  0  0  0  0  0  0
  -27.1490  -30.8950   25.3700 C   0  0  1  0  0  0  0  0  0  0  0  0
  -26.0510  -30.4960   26.3850 C   0  0  0  0  0  1  0  0  0  0  0  0
  -27.6420  -29.6050   24.6770 C   0  0  0  0  0  1  0  0  0  0  0  0
  -28.3540  -31.4570   26.1600 C   0  0  0  0  0  1  0  0  0  0  0  0
  -26.4380  -33.2580   24.9400 N   0  0  0  0  0  0  0  0  0  0  0  0
  -26.8070  -34.4370   24.4200 C   0  0  0  0  0  0  0  0  0  0  0  0
  -27.4510  -34.5320   23.3710 O   0  0  0  0  0  0  0  0  0  0  0  0
  -25.8710  -33.2580   25.7750 H   0  0  0  0  0  0  0  0  0  0  0  0
  -25.1600  -36.3340   24.5240 C   0  0  0  0  0  1  0  0  0  0  0  0
  -26.4020  -35.7120   25.1830 C   0  0  0  0  0  3  0  0  0  0  0  0
  -28.5990  -36.3060   26.1050 C   0  0  0  0  0  1  0  0  0  0  0  0
  -27.4810  -36.7210   25.2610 N   0  0  0  0  0  0  0  0  0  0  0  0
  -27.1250  -37.6040   25.6190 H   0  0  0  0  0  0  0  0  0  0  0  0
  -24.6700  -18.0370   17.6750 C   0  0  0  0  0  1  0  0  0  0  0  0
  -25.1980  -17.7870   18.9740 O   0  0  0  0  0  0  0  0  0  0  0  0
  1  2  1  0
  2  3  2  0
  3  4  1  0
  4  7  1  0
  5  8  1  0
  5  4  2  0
  6  1  2  0
  6  5  1  0
  9 15  1  0
 10 15  1  0
 11 12  1  0
 11 10  1  0
 13 12  1  0
 13 24  1  0
 13 14  1  0
 15 14  1  0
 16  9  2  0
 18  2  1  0
 18 17  1  0
 19 51  1  0
 19 18  1  0
 19 20  1  0
 20  9  1  0
 20 17  1  0
 21 22  2  0
 22 41  1  0
 23 22  1  0
 23 26  1  0
 24 21  1  0
 24 25  1  0
 25 23  2  0
 26 27  1  0
 27 28  2  0
 29 28  1  0
 30 29  2  0
 31 30  1  0
 31 26  2  0
 32 29  1  0
 32 33  1  0
 33 34  1  0
 34 35  2  0
 36 35  1  0
 36 40  1  0
 37 36  2  0
 38 33  2  0
 38 37  1  0
 39 38  1  0
 41 42  1  0
 42 45  1  0
 42 44  1  0
 43 41  2  0
 46 21  1  0
 47 46  1  0
 48 46  1  0
 49 51  1  0
 51 50  1  0
 53 56  1  0
 54 52  1  0
 55 53  1  0
 55 57  1  0
 56  3  1  0
 56 52  1  0
 57 58  1  0
 57 54  1  0
 58 60  1  0
 59 70  2  0
 60 65  1  0
 61 69  1  0
 61 71  1  0
 62 68  1  0
 62 64  1  0
 63 69  1  0
 64 63  1  0
 65 64  2  0
 66 67  1  0
 66 60  2  0
 67 62  2  0
 68 61  1  0
 69 59  1  0
 71 73  2  0
 72 71  1  0
 74 72  1  0
 75 84  2  0
 75 80  1  0
 76 72  1  0
 76 80  1  0
 77 76  1  0
 78 79  1  0
 78 77  1  0
 79 75  1  0
 80 81  2  0
 81 82  1  0
 83 82  2  0
 84 83  1  0
 85 59  1  0
 85 90  1  0
 85 86  1  0
 86 89  1  1
 86 87  1  0
 88 86  1  0
 90 93  1  0
 91 90  1  0
 91 95  1  0
 92 91  2  0
 95 94  1  0
 95 97  1  0
 97 98  1  0
 97 96  1  0
 99100  1  0
100  6  1  0
M  ISO  4   9 100  20 100  57 101  58 101
M  END
>  <TORSDO>  (30) 
F 19

>  <SCORE>  (30) 
-1.270

>  <name>  (30) 
29

>  <ligand_id>  (30) 
29

>  <original_smiles>  (30) 
[H]c1c([H])c([H])c2c(c1[H])C([H])([H])C([H])([H])C([H])([H])C2([H])N([H])C(=O)C1([H])N(C(=O)C([H])(N([H])C(=O)C([H])(N([H])C([H])([H])[H])C([H])([H])[H])C(C([H])([H])[H])(C([H])([H])[H])C([H])([H])[H])C([H])([H])c2c([H])c(OC3([H])C([H])([H])C([H])([H])C([H])(c4c(C([H])([H])[H])c(C([H])([H])[H])c(OC([H])([H])[H])c([H])c4C4([H])C([H])([H])N(C(=O)N5C([H])([H])C([H])([H])C([H])([H])C([H])(n6nc(-c7c([H])c([H])c(Oc8c([H])c([H])c(F)c([H])c8F)c([H])c7[H])c(C(=O)N([H])[H])c6N([H])[H])C5([H])[H])C4([H])C([H])(C([H])([H])[H])C([H])([H])[H])C([H])([H])C3([H])[H])c([H])c([H])c2C1([H])[H]

>  <smiles>  (30) 
[H]c1c([H])c([H])c2c(c1[H])C([H])([H])C([H])([H])C([H])([H])C2([H])N([H])C(=O)C1([H])N(C(=O)C([H])(N([H])C(=O)C([H])(N([H])C([H])([H])[H])C([H])([H])[H])C(C([H])([H])[H])(C([H])([H])[H])C([H])([H])[H])C([H])([H])c2c([H])c(OC3([H])C([H])([H])C([H])([H])C([H])(c4c(C([H])([H])[H])c(C([H])([H])[H])c(OC([H])([H])[H])c([H])c4C4([H])C([H])([H])N(C(=O)N5C([H])([H])C([H])([H])C([H])([H])C([H])(n6nc(-c7c([H])c([H])c(Oc8c([H])c([H])c(F)c([H])c8F)c([H])c7[H])c(C(=O)N([H])[H])c6N([H])[H])C5([H])[H])C4([H])C([H])(C([H])([H])[H])C([H])([H])[H])C([H])([H])C3([H])[H])c([H])c([H])c2C1([H])[H]

$$$$
30:0:0
     RDKit          3D

 93102  0  0  1  0  0  0  0  0999 V2000
  -27.4520  -20.0460   18.3330 C   0  0  0  0  0  3  0  0  0  0  0  0
  -28.8160  -20.0470   20.3450 C   0  0  0  0  0  3  0  0  0  0  0  0
  -27.6240  -19.6620   19.6820 C   0  0  0  0  0  0  0  0  0  0  0  0
  -28.3710  -20.9310   17.7310 C   0  0  0  0  0  0  0  0  0  0  0  0
  -29.1650  -21.4680   19.9640 C   0  0  0  0  0  3  0  0  0  0  0  0
  -29.2330  -21.6810   18.5640 C   0  0  0  0  0  0  0  0  0  0  0  0
  -26.6650  -18.6480   20.2670 C   0  0  0  0  0  1  0  0  0  0  0  0
  -28.3380  -21.1440   16.2270 C   0  0  0  0  0  1  0  0  0  0  0  0
  -30.0800  -22.8000   17.9630 C   0  0  0  0  0  1  0  0  0  0  0  0
  -30.8140  -14.7210   20.5650 C   0  0  0  0  0  0  0  0  0  0  0  0
  -30.6770  -12.3560   19.6390 C   0  0  0  0  0  2  0  0  0  0  0  0
  -29.7800  -12.2370   18.3870 C   0  0  0  0  0  2  0  0  0  0  0  0
  -28.3130  -12.0160   18.7970 C   0  0  0  0  0  2  0  0  0  0  0  0
  -27.8580  -12.9760   19.9270 C   0  0  0  0  0  3  0  0  0  0  0  0
  -28.8850  -13.0840   21.0710 C   0  0  0  0  0  2  0  0  0  0  0  0
  -30.1530  -13.4930   20.4560 N   0  0  0  0  0  0  0  0  0  0  0  0
  -32.0460  -14.6560   20.4530 O   0  0  0  0  0  0  0  0  0  0  0  0
  -30.1250  -18.1430   18.9370 C   0  0  0  0  0  2  0  0  0  0  0  0
  -30.7370  -16.7160   19.0850 C   0  0  0  0  0  2  0  0  0  0  0  0
  -29.6360  -17.2130   21.0440 C   0  0  0  0  0  2  0  0  0  0  0  0
  -29.8370  -18.7160   20.3310 C   0  0  0  0  0  3  0  0  0  0  0  0
  -30.1830  -15.9800   20.2440 N   0  0  0  0  0  0  0  0  0  0  0  0
  -25.4680  -13.5380   20.6310 C   0  0  0  0  0  0  0  0  0  0  0  0
  -24.3970  -12.7600   20.9700 C   0  0  0  0  0  0  0  0  0  0  0  0
  -24.8690  -11.4100   20.9490 C   0  0  0  0  0  0  0  0  0  0  0  0
  -26.5180  -12.6650   20.4080 N   0  0  0  0  0  0  0  0  0  0  0  0
  -26.1680  -11.3780   20.6690 N   0  0  0  0  0  0  0  0  0  0  0  0
  -24.1410  -10.1440   21.1190 C   0  0  0  0  0  0  0  0  0  0  0  0
  -24.5170   -9.1980   22.0970 C   0  0  0  0  0  3  0  0  0  0  0  0
  -23.7870   -8.0000   22.2540 C   0  0  0  0  0  3  0  0  0  0  0  0
  -22.6650   -7.7390   21.4330 C   0  0  0  0  0  0  0  0  0  0  0  0
  -22.3080   -8.6730   20.4450 C   0  0  0  0  0  3  0  0  0  0  0  0
  -23.0390   -9.8630   20.2870 C   0  0  0  0  0  3  0  0  0  0  0  0
  -21.9130   -6.5910   21.4980 O   0  0  0  0  0  0  0  0  0  0  0  0
  -21.7490   -5.9030   22.6740 C   0  0  0  0  0  0  0  0  0  0  0  0
  -21.1010   -6.4780   23.7890 C   0  0  0  0  0  3  0  0  0  0  0  0
  -20.8900   -5.7100   24.9530 C   0  0  0  0  0  3  0  0  0  0  0  0
  -21.3180   -4.3710   24.9990 C   0  0  0  0  0  0  0  0  0  0  0  0
  -21.9590   -3.7950   23.8880 C   0  0  0  0  0  3  0  0  0  0  0  0
  -22.1720   -4.5600   22.7270 C   0  0  0  0  0  0  0  0  0  0  0  0
  -22.7710   -3.9950   21.6520 F   0  0  0  0  0  0  0  0  0  0  0  0
  -21.1110   -3.6300   26.1140 F   0  0  0  0  0  0  0  0  0  0  0  0
  -22.9910  -13.2340   21.2000 C   0  0  0  0  0  0  0  0  0  0  0  0
  -22.2500  -12.5550   22.0670 N   0  0  0  0  0  0  0  0  0  0  0  0
  -22.5610  -14.2470   20.6470 O   0  0  0  0  0  0  0  0  0  0  0  0
  -22.6130  -11.7380   22.5360 H   0  0  0  0  0  0  0  0  0  0  0  0
  -21.3070  -12.8550   22.2650 H   0  0  0  0  0  0  0  0  0  0  0  0
  -25.6350  -14.9080   20.4630 N   0  0  0  0  0  0  0  0  0  0  0  0
  -24.8670  -15.5630   20.5500 H   0  0  0  0  0  0  0  0  0  0  0  0
  -26.5000  -15.3390   20.1600 H   0  0  0  0  0  0  0  0  0  0  0  0
  -29.1170  -22.8920   20.8240 C   0  0  0  0  0  2  0  0  0  0  0  0
  -28.1890  -24.2700   20.4160 C   0  0  0  0  0  2  0  0  0  0  0  0
  -28.3820  -25.7800   20.8060 O   0  0  0  0  0  0  0  0  0  0  0  0
  -24.5940  -31.6070   23.3150 C   0  0  0  0  0  0  0  0  0  0  0  0
  -27.3630  -26.7920   20.6070 C   0  0  0  0  0  0  0  0  0  0  0  0
  -23.5310  -30.2020   21.5930 C   0  0  0  0  0  3  0  0  0  0  0  0
  -25.0780  -28.5810   20.3310 C   0  0  0  0  0  0  0  0  0  0  0  0
  -26.0930  -30.4230   21.6630 C   0  0  0  0  0  2  0  0  0  0  0  0
  -26.2050  -29.0190   21.0400 C   0  0  0  0  0  0  0  0  0  0  0  0
  -27.3490  -28.1390   21.1590 C   0  0  0  0  0  3  0  0  0  0  0  0
  -26.2170  -26.4640   19.8500 C   0  0  0  0  0  3  0  0  0  0  0  0
  -25.1000  -27.3180   19.7230 C   0  0  0  0  0  3  0  0  0  0  0  0
  -23.8690  -29.5000   20.2510 C   0  0  0  0  0  2  0  0  0  0  0  0
  -24.7550  -30.7690   22.2460 N   0  0  0  0  0  0  0  0  0  0  0  0
  -23.4670  -31.9160   23.7330 O   0  0  0  0  0  0  0  0  0  0  0  0
  -22.7490  -29.2200   22.5020 C   0  0  0  0  0  0  0  0  0  0  0  0
  -21.4250  -29.1080   22.2890 N   0  0  0  0  0  0  0  0  0  0  0  0
  -23.3380  -28.5630   23.3640 O   0  0  0  0  0  0  0  0  0  0  0  0
  -21.0100  -29.6870   21.5740 H   0  0  0  0  0  0  0  0  0  0  0  0
  -17.9540  -28.1340   22.6480 C   0  0  0  0  0  0  0  0  0  0  0  0
  -20.5160  -28.2020   22.9980 C   0  0  0  0  0  3  0  0  0  0  0  0
  -20.5330  -26.7890   22.3690 C   0  0  0  0  0  2  0  0  0  0  0  0
  -19.4440  -26.5850   21.3120 C   0  0  0  0  0  2  0  0  0  0  0  0
  -18.0570  -26.8020   21.9220 C   0  0  0  0  0  2  0  0  0  0  0  0
  -19.1100  -28.7980   23.1380 C   0  0  0  0  0  0  0  0  0  0  0  0
  -18.9590  -30.0490   23.7780 C   0  0  0  0  0  3  0  0  0  0  0  0
  -17.6880  -30.6320   23.9300 C   0  0  0  0  0  3  0  0  0  0  0  0
  -16.5470  -29.9640   23.4540 C   0  0  0  0  0  3  0  0  0  0  0  0
  -16.6800  -28.7160   22.8200 C   0  0  0  0  0  3  0  0  0  0  0  0
  -25.8160  -32.2360   24.0520 C   0  0  0  0  0  3  0  0  0  0  0  0
  -25.5060  -33.6520   24.3030 N   0  0  0  0  0  0  0  0  0  0  0  0
  -25.9010  -34.6710   23.5270 C   0  0  0  0  0  0  0  0  0  0  0  0
  -26.6280  -34.5160   22.5430 O   0  0  0  0  0  0  0  0  0  0  0  0
  -24.8670  -33.8480   25.0590 H   0  0  0  0  0  0  0  0  0  0  0  0
  -24.2160  -36.4710   23.0190 C   0  0  0  0  0  1  0  0  0  0  0  0
  -25.4150  -36.0870   23.9020 C   0  0  0  0  0  3  0  0  0  0  0  0
  -27.5080  -36.9980   24.8050 C   0  0  0  0  0  1  0  0  0  0  0  0
  -26.4670  -37.1200   23.7900 N   0  0  0  0  0  0  0  0  0  0  0  0
  -26.0660  -38.0520   23.8570 H   0  0  0  0  0  0  0  0  0  0  0  0
  -26.1670  -31.5030   25.4050 C   0  0  1  0  0  0  0  0  0  0  0  0
  -24.9550  -31.3150   26.3460 C   0  0  0  0  0  1  0  0  0  0  0  0
  -26.7710  -30.1070   25.1310 C   0  0  0  0  0  1  0  0  0  0  0  0
  -27.2460  -32.3060   26.1690 C   0  0  0  0  0  1  0  0  0  0  0  0
  1  3  2  0
  2  3  1  0
  3  7  1  0
  4  1  1  0
  4  6  2  0
  5  2  1  0
  5 51  1  0
  6  5  1  0
  8  4  1  0
  9  6  1  0
 11 16  1  0
 12 13  1  0
 12 11  1  0
 14 13  1  0
 14 26  1  0
 14 15  1  0
 16 10  1  0
 16 15  1  0
 17 10  2  0
 18 19  1  0
 19 22  1  0
 21 18  1  0
 21  2  1  0
 21 20  1  0
 22 10  1  0
 22 20  1  0
 23 24  2  0
 24 43  1  0
 25 24  1  0
 25 28  1  0
 26 23  1  0
 26 27  1  0
 27 25  2  0
 28 29  1  0
 29 30  2  0
 31 34  1  0
 31 30  1  0
 32 31  2  0
 33 32  1  0
 33 28  2  0
 34 35  1  0
 35 40  2  0
 35 36  1  0
 36 37  2  0
 37 38  1  0
 38 42  1  0
 39 38  2  0
 40 39  1  0
 41 40  1  0
 43 44  1  0
 44 47  1  0
 44 46  1  0
 45 43  2  0
 48 49  1  0
 48 23  1  0
 50 48  1  0
 52 53  1  0
 52 51  1  0
 54 65  2  0
 55 53  1  0
 55 60  1  0
 56 64  1  0
 56 66  1  0
 57 59  1  0
 58 64  1  0
 59 60  2  0
 59 58  1  0
 61 55  2  0
 62 61  1  0
 62 57  2  0
 63 57  1  0
 63 56  1  0
 64 54  1  0
 66 68  2  0
 67 66  1  0
 69 67  1  0
 70 79  2  0
 70 75  1  0
 71 67  1  0
 71 75  1  0
 72 71  1  0
 73 74  1  0
 73 72  1  0
 74 70  1  0
 75 76  2  0
 76 77  1  0
 78 77  2  0
 79 78  1  0
 80 54  1  0
 80 81  1  0
 80 90  1  0
 81 84  1  0
 82 86  1  0
 82 81  1  0
 83 82  2  0
 86 85  1  0
 88 89  1  0
 88 86  1  0
 88 87  1  0
 90 93  1  1
 90 91  1  0
 92 90  1  0
M  ISO  4  10 100  22 100  52 101  53 101
M  END
>  <TORSDO>  (31) 
F 18

>  <SCORE>  (31) 
-13.363

>  <name>  (31) 
30

>  <ligand_id>  (31) 
30

>  <original_smiles>  (31) 
[H]c1c([H])c([H])c2c(c1[H])C([H])([H])C([H])([H])C([H])([H])C2([H])N([H])C(=O)C1([H])N(C(=O)C([H])(N([H])C(=O)C([H])(N([H])C([H])([H])[H])C([H])([H])[H])C(C([H])([H])[H])(C([H])([H])[H])C([H])([H])[H])C([H])([H])c2c([H])c(OC([H])([H])C([H])([H])c3c(C([H])([H])[H])c(C([H])([H])[H])c([H])c(C([H])([H])[H])c3C3([H])C([H])([H])N(C(=O)N4C([H])([H])C([H])([H])C([H])([H])C([H])(n5nc(-c6c([H])c([H])c(Oc7c([H])c([H])c(F)c([H])c7F)c([H])c6[H])c(C(=O)N([H])[H])c5N([H])[H])C4([H])[H])C([H])([H])C3([H])[H])c([H])c([H])c2C1([H])[H]

>  <smiles>  (31) 
[H]c1c([H])c([H])c2c(c1[H])C([H])([H])C([H])([H])C([H])([H])C2([H])N([H])C(=O)C1([H])N(C(=O)C([H])(N([H])C(=O)C([H])(N([H])C([H])([H])[H])C([H])([H])[H])C(C([H])([H])[H])(C([H])([H])[H])C([H])([H])[H])C([H])([H])c2c([H])c(OC([H])([H])C([H])([H])c3c(C([H])([H])[H])c(C([H])([H])[H])c([H])c(C([H])([H])[H])c3C3([H])C([H])([H])N(C(=O)N4C([H])([H])C([H])([H])C([H])([H])C([H])(n5nc(-c6c([H])c([H])c(Oc7c([H])c([H])c(F)c([H])c7F)c([H])c6[H])c(C(=O)N([H])[H])c5N([H])[H])C4([H])[H])C([H])([H])C3([H])[H])c([H])c([H])c2C1([H])[H]

$$$$
31:0:0
     RDKit          3D

101110  0  0  1  0  0  0  0  0999 V2000
  -29.7500  -20.0260   20.2470 C   0  0  0  0  0  3  0  0  0  0  0  0
  -31.4420  -14.3460   19.4580 C   0  0  0  0  0  0  0  0  0  0  0  0
  -30.7990  -12.2270   18.3740 C   0  0  0  0  0  2  0  0  0  0  0  0
  -29.7170  -12.5280   17.3180 C   0  0  0  0  0  2  0  0  0  0  0  0
  -28.3170  -12.5000   17.9580 C   0  0  0  0  0  2  0  0  0  0  0  0
  -28.2310  -13.3260   19.2690 C   0  0  0  0  0  3  0  0  0  0  0  0
  -29.4210  -13.0300   20.2070 C   0  0  0  0  0  2  0  0  0  0  0  0
  -30.6510  -13.2340   19.4380 N   0  0  0  0  0  0  0  0  0  0  0  0
  -32.5760  -14.3420   18.9710 O   0  0  0  0  0  0  0  0  0  0  0  0
  -29.8110  -17.7520   18.8900 C   0  0  0  0  0  2  0  0  0  0  0  0
  -30.6750  -17.6690   21.1570 C   0  0  0  0  0  2  0  0  0  0  0  0
  -30.5590  -16.4200   18.5740 C   0  0  0  0  0  2  0  0  0  0  0  0
  -31.4420  -16.3530   20.8220 C   0  0  0  0  0  2  0  0  0  0  0  0
  -30.5120  -18.6430   19.9520 C   0  0  0  0  0  3  0  0  0  0  0  0
  -30.8370  -15.5450   19.7430 N   0  0  0  0  0  0  0  0  0  0  0  0
  -26.0570  -14.1000   20.3940 C   0  0  0  0  0  0  0  0  0  0  0  0
  -24.9710  -13.4090   20.8620 C   0  0  0  0  0  0  0  0  0  0  0  0
  -25.2650  -12.0260   20.6590 C   0  0  0  0  0  0  0  0  0  0  0  0
  -26.9470  -13.1410   19.9380 N   0  0  0  0  0  0  0  0  0  0  0  0
  -26.4850  -11.8830   20.1560 N   0  0  0  0  0  0  0  0  0  0  0  0
  -24.4320  -10.8330   20.8590 C   0  0  0  0  0  0  0  0  0  0  0  0
  -24.8080   -9.8130   21.7610 C   0  0  0  0  0  3  0  0  0  0  0  0
  -23.9800   -8.6860   21.9510 C   0  0  0  0  0  3  0  0  0  0  0  0
  -22.7630   -8.5710   21.2380 C   0  0  0  0  0  0  0  0  0  0  0  0
  -22.4070   -9.5760   20.3230 C   0  0  0  0  0  3  0  0  0  0  0  0
  -23.2340  -10.6960   20.1310 C   0  0  0  0  0  3  0  0  0  0  0  0
  -21.9070   -7.5000   21.3390 O   0  0  0  0  0  0  0  0  0  0  0  0
  -21.7530   -6.8110   22.5160 C   0  0  0  0  0  0  0  0  0  0  0  0
  -21.3060   -7.4420   23.6970 C   0  0  0  0  0  3  0  0  0  0  0  0
  -21.0940   -6.6810   24.8640 C   0  0  0  0  0  3  0  0  0  0  0  0
  -21.3230   -5.2920   24.8520 C   0  0  0  0  0  0  0  0  0  0  0  0
  -21.7620   -4.6620   23.6750 C   0  0  0  0  0  3  0  0  0  0  0  0
  -21.9750   -5.4190   22.5100 C   0  0  0  0  0  0  0  0  0  0  0  0
  -22.3780   -4.8020   21.3730 F   0  0  0  0  0  0  0  0  0  0  0  0
  -21.1130   -4.5600   25.9710 F   0  0  0  0  0  0  0  0  0  0  0  0
  -23.6930  -14.0000   21.3830 C   0  0  0  0  0  0  0  0  0  0  0  0
  -23.0840  -13.3600   22.3760 N   0  0  0  0  0  0  0  0  0  0  0  0
  -23.2510  -15.0600   20.9410 O   0  0  0  0  0  0  0  0  0  0  0  0
  -23.4570  -12.5000   22.7470 H   0  0  0  0  0  0  0  0  0  0  0  0
  -22.2350  -13.7370   22.7710 H   0  0  0  0  0  0  0  0  0  0  0  0
  -26.3520  -15.4560   20.2960 N   0  0  0  0  0  0  0  0  0  0  0  0
  -25.6910  -16.1770   20.5660 H   0  0  0  0  0  0  0  0  0  0  0  0
  -27.2120  -15.8250   19.9100 H   0  0  0  0  0  0  0  0  0  0  0  0
  -31.9790  -21.5610   23.0130 C   0  0  0  0  0  3  0  0  0  0  0  0
  -31.0380  -22.0060   23.9560 C   0  0  0  0  0  0  0  0  0  0  0  0
  -31.5840  -20.9130   21.8300 C   0  0  0  0  0  0  0  0  0  0  0  0
  -29.6580  -21.7880   23.7250 C   0  0  0  0  0  0  0  0  0  0  0  0
  -29.2320  -21.1620   22.5190 C   0  0  0  0  0  0  0  0  0  0  0  0
  -30.1970  -20.7200   21.5570 C   0  0  0  0  0  0  0  0  0  0  0  0
  -31.5370  -22.7000   25.2110 C   0  0  0  0  0  1  0  0  0  0  0  0
  -32.7050  -20.4270   20.9150 C   0  0  0  0  0  1  0  0  0  0  0  0
  -28.6320  -22.2120   24.7780 C   0  0  0  0  0  1  0  0  0  0  0  0
  -27.7320  -20.9610   22.2650 C   0  0  0  0  0  1  0  0  0  0  0  0
  -30.0080  -20.8180   17.7310 C   0  0  0  0  0  1  0  0  0  0  0  0
  -29.3310  -21.0650   19.0950 C   0  0  0  0  0  3  0  0  0  0  0  0
  -29.3840  -22.5220   19.4980 N   0  0  0  0  0  4  0  0  0  0  0  0
  -29.0770  -22.5500   20.4600 H   0  0  0  0  0  0  0  0  0  0  0  0
  -30.3530  -22.8050   19.5140 H   0  0  0  0  0  0  0  0  0  0  0  0
  -28.5820  -23.5480   18.7250 C   0  0  0  0  0  2  0  0  0  0  0  0
  -28.5110  -24.9640   19.4120 C   0  0  0  0  0  2  0  0  0  0  0  0
  -28.2160  -26.1100   18.5620 O   0  0  0  0  0  0  0  0  0  0  0  0
  -25.8730  -30.0230   24.1070 C   0  0  0  0  0  0  0  0  0  0  0  0
  -27.3120  -27.0440   19.0500 C   0  0  0  0  0  0  0  0  0  0  0  0
  -24.3820  -29.9050   22.1410 C   0  0  0  0  0  3  0  0  0  0  0  0
  -25.4120  -28.9200   20.0190 C   0  0  0  0  0  0  0  0  0  0  0  0
  -26.9180  -29.6800   21.8640 C   0  0  0  0  0  2  0  0  0  0  0  0
  -26.6570  -28.8030   20.6500 C   0  0  0  0  0  0  0  0  0  0  0  0
  -27.6160  -27.8750   20.1610 C   0  0  0  0  0  3  0  0  0  0  0  0
  -26.0580  -27.1970   18.4230 C   0  0  0  0  0  3  0  0  0  0  0  0
  -25.1110  -28.1200   18.9020 C   0  0  0  0  0  3  0  0  0  0  0  0
  -24.4380  -29.9330   20.5890 C   0  0  0  0  0  2  0  0  0  0  0  0
  -25.7460  -29.8500   22.7600 N   0  0  0  0  0  0  0  0  0  0  0  0
  -24.8880  -30.2580   24.8190 O   0  0  0  0  0  0  0  0  0  0  0  0
  -23.4600  -28.7420   22.5800 C   0  0  0  0  0  0  0  0  0  0  0  0
  -22.1390  -28.9370   22.4300 N   0  0  0  0  0  0  0  0  0  0  0  0
  -23.9350  -27.6920   23.0200 O   0  0  0  0  0  0  0  0  0  0  0  0
  -21.8300  -29.8280   22.0710 H   0  0  0  0  0  0  0  0  0  0  0  0
  -18.5660  -28.3800   22.3330 C   0  0  0  0  0  0  0  0  0  0  0  0
  -21.0850  -27.9720   22.7430 C   0  0  0  0  0  3  0  0  0  0  0  0
  -20.9850  -26.8870   21.6450 C   0  0  0  0  0  2  0  0  0  0  0  0
  -19.9530  -27.2210   20.5610 C   0  0  0  0  0  2  0  0  0  0  0  0
  -18.5620  -27.3930   21.1760 C   0  0  0  0  0  2  0  0  0  0  0  0
  -19.7530  -28.6630   23.0580 C   0  0  0  0  0  0  0  0  0  0  0  0
  -19.7100  -29.6140   24.0990 C   0  0  0  0  0  3  0  0  0  0  0  0
  -18.5110  -30.2770   24.4190 C   0  0  0  0  0  3  0  0  0  0  0  0
  -17.3330  -29.9790   23.7120 C   0  0  0  0  0  3  0  0  0  0  0  0
  -17.3600  -29.0290   22.6740 C   0  0  0  0  0  3  0  0  0  0  0  0
  -27.2620  -29.9550   24.8130 C   0  0  0  0  0  3  0  0  0  0  0  0
  -27.1740  -30.7600   26.0360 N   0  0  0  0  0  0  0  0  0  0  0  0
  -27.7980  -31.9290   26.2240 C   0  0  0  0  0  0  0  0  0  0  0  0
  -28.5750  -32.4140   25.3960 O   0  0  0  0  0  0  0  0  0  0  0  0
  -26.5130  -30.4460   26.7330 H   0  0  0  0  0  0  0  0  0  0  0  0
  -26.5690  -33.8570   27.2690 C   0  0  0  0  0  1  0  0  0  0  0  0
  -27.5210  -32.6810   27.5390 C   0  0  0  0  0  3  0  0  0  0  0  0
  -29.5790  -32.1020   28.7490 C   0  0  0  0  0  1  0  0  0  0  0  0
  -28.7460  -33.1740   28.2060 N   0  0  0  0  0  0  0  0  0  0  0  0
  -28.5130  -33.8050   28.9670 H   0  0  0  0  0  0  0  0  0  0  0  0
  -27.7150  -28.4810   25.1460 C   0  0  1  0  0  0  0  0  0  0  0  0
  -26.6480  -27.6590   25.9100 C   0  0  0  0  0  1  0  0  0  0  0  0
  -28.0630  -27.7130   23.8520 C   0  0  0  0  0  1  0  0  0  0  0  0
  -29.0050  -28.5130   25.9990 C   0  0  0  0  0  1  0  0  0  0  0  0
  1 55  1  0
  1 49  1  0
  2 15  1  0
  3  8  1  0
  4  5  1  0
  4  3  1  0
  6  5  1  0
  6 19  1  0
  6  7  1  0
  8  2  1  0
  8  7  1  0
  9  2  2  0
 10 14  1  0
 12 10  1  0
 12 15  1  0
 13 11  1  0
 14  1  1  0
 14 11  1  0
 15 13  1  0
 16 17  2  0
 17 36  1  0
 18 21  1  0
 18 17  1  0
 19 20  1  0
 19 16  1  0
 20 18  2  0
 21 22  1  0
 22 23  2  0
 24 27  1  0
 24 23  1  0
 25 24  2  0
 26 25  1  0
 26 21  2  0
 27 28  1  0
 28 29  1  0
 29 30  2  0
 31 30  1  0
 31 35  1  0
 32 31  2  0
 33 28  2  0
 33 32  1  0
 34 33  1  0
 36 37  1  0
 37 39  1  0
 37 40  1  0
 38 36  2  0
 41 16  1  0
 41 42  1  0
 43 41  1  0
 44 45  1  0
 45 50  1  0
 46 44  2  0
 47 45  2  0
 47 52  1  0
 48 47  1  0
 49 46  1  0
 49 48  2  0
 51 46  1  0
 53 48  1  0
 55 54  1  0
 55 56  1  0
 56 58  1  0
 56 57  1  0
 59 60  1  0
 59 56  1  0
 61 63  1  0
 61 60  1  0
 62 73  2  0
 63 68  1  0
 64 74  1  0
 64 72  1  0
 65 71  1  0
 65 67  1  0
 66 72  1  0
 67 66  1  0
 68 67  2  0
 69 70  1  0
 69 63  2  0
 70 65  2  0
 71 64  1  0
 72 62  1  0
 74 76  2  0
 75 74  1  0
 77 75  1  0
 78 87  2  0
 78 83  1  0
 79 75  1  0
 79 83  1  0
 80 79  1  0
 81 82  1  0
 81 80  1  0
 82 78  1  0
 83 84  2  0
 84 85  1  0
 86 85  2  0
 87 86  1  0
 88 62  1  0
 88 98  1  0
 88 89  1  0
 89 90  1  0
 89 92  1  0
 90 94  1  0
 91 90  2  0
 94 93  1  0
 94 96  1  0
 96 95  1  0
 96 97  1  0
 98 99  1  1
 98101  1  0
100 98  1  0
M  ISO  4   2 100  15 100  60 101  61 101
M  END
>  <TORSDO>  (32) 
F 21

>  <SCORE>  (32) 
-2.806

>  <name>  (32) 
31

>  <ligand_id>  (32) 
31

>  <original_smiles>  (32) 
[H]c1c([H])c([H])c2c(c1[H])C([H])([H])C([H])([H])C([H])([H])C2([H])N([H])C(=O)C1([H])N(C(=O)C([H])(N([H])C(=O)C([H])(N([H])C([H])([H])[H])C([H])([H])[H])C(C([H])([H])[H])(C([H])([H])[H])C([H])([H])[H])C([H])([H])c2c([H])c(OC([H])([H])C([H])([H])[N+]([H])([H])C([H])(C([H])([H])[H])C([H])(c3c(C([H])([H])[H])c([H])c(C([H])([H])[H])c(C([H])([H])[H])c3C([H])([H])[H])C3([H])C([H])([H])C([H])([H])N(C(=O)N4C([H])([H])C([H])([H])C([H])([H])C([H])(n5nc(-c6c([H])c([H])c(Oc7c([H])c([H])c(F)c([H])c7F)c([H])c6[H])c(C(=O)N([H])[H])c5N([H])[H])C4([H])[H])C([H])([H])C3([H])[H])c([H])c([H])c2C1([H])[H]

>  <smiles>  (32) 
[H]c1c([H])c([H])c2c(c1[H])C([H])([H])C([H])([H])C([H])([H])C2([H])N([H])C(=O)C1([H])N(C(=O)C([H])(N([H])C(=O)C([H])(N([H])C([H])([H])[H])C([H])([H])[H])C(C([H])([H])[H])(C([H])([H])[H])C([H])([H])[H])C([H])([H])c2c([H])c(OC([H])([H])C([H])([H])[N+]([H])([H])C([H])(C([H])([H])[H])C([H])(c3c(C([H])([H])[H])c([H])c(C([H])([H])[H])c(C([H])([H])[H])c3C([H])([H])[H])C3([H])C([H])([H])C([H])([H])N(C(=O)N4C([H])([H])C([H])([H])C([H])([H])C([H])(n5nc(-c6c([H])c([H])c(Oc7c([H])c([H])c(F)c([H])c7F)c([H])c6[H])c(C(=O)N([H])[H])c5N([H])[H])C4([H])[H])C([H])([H])C3([H])[H])c([H])c([H])c2C1([H])[H]

$$$$
32:0:0
     RDKit          3D

 92101  0  0  1  0  0  0  0  0999 V2000
  -30.4900  -15.4930   20.2620 C   0  0  0  0  0  0  0  0  0  0  0  0
  -30.4050  -13.0170   19.4170 C   0  0  0  0  0  2  0  0  0  0  0  0
  -29.4970  -12.6880   18.2090 C   0  0  0  0  0  2  0  0  0  0  0  0
  -28.0620  -12.4060   18.6770 C   0  0  0  0  0  2  0  0  0  0  0  0
  -27.5930  -13.4250   19.7440 C   0  0  0  0  0  3  0  0  0  0  0  0
  -28.6420  -13.7000   20.8430 C   0  0  0  0  0  2  0  0  0  0  0  0
  -29.8330  -14.2220   20.1450 N   0  0  0  0  0  0  0  0  0  0  0  0
  -31.7160  -15.2950   20.2030 O   0  0  0  0  0  0  0  0  0  0  0  0
  -29.5900  -19.9690   18.6370 C   0  0  0  0  0  0  0  0  0  0  0  0
  -29.2340  -19.9000   19.9930 C   0  0  0  0  0  0  0  0  0  0  0  0
  -29.5660  -21.2190   17.9160 C   0  0  0  0  0  0  0  0  0  0  0  0
  -28.7720  -21.2840   20.5300 C   0  0  0  0  0  0  0  0  0  0  0  0
  -29.2250  -22.5050   18.4950 C   0  0  0  0  0  0  0  0  0  0  0  0
  -28.7300  -22.6690   19.8240 C   0  0  0  0  0  0  0  0  0  0  0  0
  -29.9390  -18.6120   17.9670 C   0  0  0  0  0  2  0  0  0  0  0  0
  -29.3590  -18.2720   20.6400 C   0  0  0  0  0  2  0  0  0  0  0  0
  -30.7370  -17.5580   18.8200 C   0  0  0  0  0  3  0  0  0  0  0  0
  -29.8840  -21.1660   16.4200 C   0  0  0  0  0  1  0  0  0  0  0  0
  -28.2610  -21.2860   21.9550 C   0  0  0  0  0  1  0  0  0  0  0  0
  -29.3620  -23.7690   17.6490 C   0  0  0  0  0  1  0  0  0  0  0  0
  -32.0810  -18.1780   19.2870 C   0  0  0  0  0  1  0  0  0  0  0  0
  -29.9720  -16.8910   19.9240 N   0  0  0  0  0  0  0  0  0  0  0  0
  -25.2450  -13.9960   20.5350 C   0  0  0  0  0  0  0  0  0  0  0  0
  -24.1750  -13.2270   20.8980 C   0  0  0  0  0  0  0  0  0  0  0  0
  -24.6280  -11.8720   20.8540 C   0  0  0  0  0  0  0  0  0  0  0  0
  -26.2750  -13.1110   20.2770 N   0  0  0  0  0  0  0  0  0  0  0  0
  -25.9180  -11.8260   20.5380 N   0  0  0  0  0  0  0  0  0  0  0  0
  -23.8850  -10.6170   21.0320 C   0  0  0  0  0  0  0  0  0  0  0  0
  -24.2930   -9.6430   21.9690 C   0  0  0  0  0  3  0  0  0  0  0  0
  -23.5480   -8.4550   22.1380 C   0  0  0  0  0  3  0  0  0  0  0  0
  -22.3800   -8.2340   21.3700 C   0  0  0  0  0  0  0  0  0  0  0  0
  -21.9910   -9.1960   20.4220 C   0  0  0  0  0  3  0  0  0  0  0  0
  -22.7370  -10.3740   20.2510 C   0  0  0  0  0  3  0  0  0  0  0  0
  -21.6090   -7.0990   21.4490 O   0  0  0  0  0  0  0  0  0  0  0  0
  -21.5170   -6.3700   22.6080 C   0  0  0  0  0  0  0  0  0  0  0  0
  -21.0410   -6.9370   23.8100 C   0  0  0  0  0  3  0  0  0  0  0  0
  -20.8980   -6.1330   24.9590 C   0  0  0  0  0  3  0  0  0  0  0  0
  -21.2210   -4.7640   24.9060 C   0  0  0  0  0  0  0  0  0  0  0  0
  -21.6890   -4.1970   23.7080 C   0  0  0  0  0  3  0  0  0  0  0  0
  -21.8340   -4.9970   22.5620 C   0  0  0  0  0  0  0  0  0  0  0  0
  -22.2660   -4.4410   21.4050 F   0  0  0  0  0  0  0  0  0  0  0  0
  -21.0760   -3.9910   26.0070 F   0  0  0  0  0  0  0  0  0  0  0  0
  -22.7850  -13.7190   21.1700 C   0  0  0  0  0  0  0  0  0  0  0  0
  -22.0510  -13.0320   22.0380 N   0  0  0  0  0  0  0  0  0  0  0  0
  -22.3590  -14.7490   20.6490 O   0  0  0  0  0  0  0  0  0  0  0  0
  -22.4090  -12.2000   22.4820 H   0  0  0  0  0  0  0  0  0  0  0  0
  -21.1170  -13.3440   22.2630 H   0  0  0  0  0  0  0  0  0  0  0  0
  -25.4240  -15.3670   20.3700 N   0  0  0  0  0  0  0  0  0  0  0  0
  -24.6680  -16.0310   20.4940 H   0  0  0  0  0  0  0  0  0  0  0  0
  -26.2820  -15.7980   20.0490 H   0  0  0  0  0  0  0  0  0  0  0  0
  -28.0240  -24.2430   20.2940 C   0  0  0  0  0  2  0  0  0  0  0  0
  -28.2260  -25.8560   19.8730 O   0  0  0  0  0  0  0  0  0  0  0  0
  -24.6710  -31.8210   23.0550 C   0  0  0  0  0  0  0  0  0  0  0  0
  -27.2130  -26.9730   19.9180 C   0  0  0  0  0  0  0  0  0  0  0  0
  -23.4660  -30.4430   21.4130 C   0  0  0  0  0  3  0  0  0  0  0  0
  -24.9050  -28.8690   19.9430 C   0  0  0  0  0  0  0  0  0  0  0  0
  -26.0310  -30.6680   21.2310 C   0  0  0  0  0  2  0  0  0  0  0  0
  -26.1040  -29.2630   20.5500 C   0  0  0  0  0  0  0  0  0  0  0  0
  -27.2530  -28.3420   20.5060 C   0  0  0  0  0  3  0  0  0  0  0  0
  -25.9800  -26.7460   19.2690 C   0  0  0  0  0  3  0  0  0  0  0  0
  -24.8710  -27.6330   19.2790 C   0  0  0  0  0  3  0  0  0  0  0  0
  -23.6810  -29.7830   20.0230 C   0  0  0  0  0  2  0  0  0  0  0  0
  -24.7450  -31.0050   21.9520 N   0  0  0  0  0  0  0  0  0  0  0  0
  -23.5870  -32.0920   23.5980 O   0  0  0  0  0  0  0  0  0  0  0  0
  -22.7930  -29.4260   22.3730 C   0  0  0  0  0  0  0  0  0  0  0  0
  -21.4630  -29.2510   22.2680 N   0  0  0  0  0  0  0  0  0  0  0  0
  -23.4770  -28.7920   23.1810 O   0  0  0  0  0  0  0  0  0  0  0  0
  -20.9620  -29.8130   21.5930 H   0  0  0  0  0  0  0  0  0  0  0  0
  -18.0950  -28.0280   22.8500 C   0  0  0  0  0  0  0  0  0  0  0  0
  -20.6610  -28.2910   23.0370 C   0  0  0  0  0  3  0  0  0  0  0  0
  -20.7440  -26.8770   22.4160 C   0  0  0  0  0  2  0  0  0  0  0  0
  -19.6110  -26.5840   21.4290 C   0  0  0  0  0  2  0  0  0  0  0  0
  -18.2500  -26.7040   22.1220 C   0  0  0  0  0  2  0  0  0  0  0  0
  -19.2260  -28.7810   23.2650 C   0  0  0  0  0  0  0  0  0  0  0  0
  -19.0220  -30.0200   23.9110 C   0  0  0  0  0  3  0  0  0  0  0  0
  -17.7220  -30.5070   24.1410 C   0  0  0  0  0  3  0  0  0  0  0  0
  -16.6060  -29.7530   23.7390 C   0  0  0  0  0  3  0  0  0  0  0  0
  -16.7940  -28.5150   23.1000 C   0  0  0  0  0  3  0  0  0  0  0  0
  -25.9420  -32.4690   23.6800 C   0  0  0  0  0  3  0  0  0  0  0  0
  -25.6050  -33.8490   24.0750 N   0  0  0  0  0  0  0  0  0  0  0  0
  -25.8920  -34.9460   23.3610 C   0  0  0  0  0  0  0  0  0  0  0  0
  -26.5320  -34.9030   22.3070 O   0  0  0  0  0  0  0  0  0  0  0  0
  -25.0300  -33.9530   24.8980 H   0  0  0  0  0  0  0  0  0  0  0  0
  -24.1220  -36.7250   23.1480 C   0  0  0  0  0  1  0  0  0  0  0  0
  -25.3960  -36.3040   23.8990 C   0  0  0  0  0  3  0  0  0  0  0  0
  -27.5350  -37.1990   24.7110 C   0  0  0  0  0  1  0  0  0  0  0  0
  -26.4050  -37.3830   23.8040 N   0  0  0  0  0  0  0  0  0  0  0  0
  -25.9850  -38.2870   23.9990 H   0  0  0  0  0  0  0  0  0  0  0  0
  -26.4930  -31.6710   24.9260 C   0  0  1  0  0  0  0  0  0  0  0  0
  -25.4250  -31.3890   26.0100 C   0  0  0  0  0  1  0  0  0  0  0  0
  -27.0880  -30.3120   24.4950 C   0  0  0  0  0  1  0  0  0  0  0  0
  -27.6460  -32.4630   25.5880 C   0  0  0  0  0  1  0  0  0  0  0  0
  2  7  1  0
  3  4  1  0
  3  2  1  0
  5  4  1  0
  5 26  1  0
  5  6  1  0
  7  1  1  0
  7  6  1  0
  8  1  2  0
  9 10  1  0
 10 12  2  0
 10 16  1  0
 11 13  1  0
 11  9  2  0
 12 19  1  0
 13 14  2  0
 14 51  1  0
 14 12  1  0
 15  9  1  0
 15 17  1  0
 17 21  1  0
 17 22  1  0
 18 11  1  0
 20 13  1  0
 22  1  1  0
 22 16  1  0
 23 24  2  0
 24 43  1  0
 25 24  1  0
 25 28  1  0
 26 23  1  0
 26 27  1  0
 27 25  2  0
 28 29  1  0
 29 30  2  0
 31 34  1  0
 31 30  1  0
 32 31  2  0
 33 32  1  0
 33 28  2  0
 34 35  1  0
 35 36  1  0
 36 37  2  0
 38 37  1  0
 38 42  1  0
 39 38  2  0
 40 35  2  0
 40 39  1  0
 41 40  1  0
 43 44  1  0
 44 47  1  0
 44 46  1  0
 45 43  2  0
 48 49  1  0
 48 23  1  0
 50 48  1  0
 52 54  1  0
 52 51  1  0
 53 64  2  0
 54 59  1  0
 55 63  1  0
 55 65  1  0
 56 62  1  0
 56 58  1  0
 57 63  1  0
 58 57  1  0
 59 58  2  0
 60 61  1  0
 60 54  2  0
 61 56  2  0
 62 55  1  0
 63 53  1  0
 65 67  2  0
 66 65  1  0
 68 66  1  0
 69 78  2  0
 69 74  1  0
 70 66  1  0
 70 74  1  0
 71 70  1  0
 72 73  1  0
 72 71  1  0
 73 69  1  0
 74 75  2  0
 75 76  1  0
 77 76  2  0
 78 77  1  0
 79 53  1  0
 79 80  1  0
 79 89  1  0
 80 83  1  0
 81 85  1  0
 81 80  1  0
 82 81  2  0
 85 84  1  0
 87 85  1  0
 87 88  1  0
 87 86  1  0
 89 92  1  1
 89 90  1  0
 91 89  1  0
M  ISO  4   1 100  22 100  51 101  52 101
M  END
>  <TORSDO>  (33) 
F 16

>  <SCORE>  (33) 
-16.304

>  <name>  (33) 
32

>  <ligand_id>  (33) 
32

>  <original_smiles>  (33) 
[H]c1c([H])c([H])c2c(c1[H])C([H])([H])C([H])([H])C([H])([H])C2([H])N([H])C(=O)C1([H])N(C(=O)C([H])(N([H])C(=O)C([H])(N([H])C([H])([H])[H])C([H])([H])[H])C(C([H])([H])[H])(C([H])([H])[H])C([H])([H])[H])C([H])([H])c2c([H])c(OC([H])([H])c3c(C([H])([H])[H])c(C([H])([H])[H])c4c(c3C([H])([H])[H])C([H])([H])N(C(=O)N3C([H])([H])C([H])([H])C([H])([H])C([H])(n5nc(-c6c([H])c([H])c(Oc7c([H])c([H])c(F)c([H])c7F)c([H])c6[H])c(C(=O)N([H])[H])c5N([H])[H])C3([H])[H])C([H])(C([H])([H])[H])C4([H])[H])c([H])c([H])c2C1([H])[H]

>  <smiles>  (33) 
[H]c1c([H])c([H])c2c(c1[H])C([H])([H])C([H])([H])C([H])([H])C2([H])N([H])C(=O)C1([H])N(C(=O)C([H])(N([H])C(=O)C([H])(N([H])C([H])([H])[H])C([H])([H])[H])C(C([H])([H])[H])(C([H])([H])[H])C([H])([H])[H])C([H])([H])c2c([H])c(OC([H])([H])c3c(C([H])([H])[H])c(C([H])([H])[H])c4c(c3C([H])([H])[H])C([H])([H])N(C(=O)N3C([H])([H])C([H])([H])C([H])([H])C([H])(n5nc(-c6c([H])c([H])c(Oc7c([H])c([H])c(F)c([H])c7F)c([H])c6[H])c(C(=O)N([H])[H])c5N([H])[H])C3([H])[H])C([H])(C([H])([H])[H])C4([H])[H])c([H])c([H])c2C1([H])[H]

$$$$
33:0:0
     RDKit          3D

 96106  0  0  1  0  0  0  0  0999 V2000
  -29.7040  -22.1910   19.2610 C   0  0  0  0  0  3  0  0  0  0  0  0
  -29.7310  -20.7940   19.4760 C   0  0  0  0  0  3  0  0  0  0  0  0
  -29.9460  -22.5550   21.6370 C   0  0  0  0  0  3  0  0  0  0  0  0
  -29.8390  -23.1000   20.3370 C   0  0  0  0  0  0  0  0  0  0  0  0
  -29.8570  -20.2380   20.7750 C   0  0  0  0  0  0  0  0  0  0  0  0
  -29.9460  -21.1530   21.8660 C   0  0  0  0  0  0  0  0  0  0  0  0
  -30.0390  -20.6660   23.3040 C   0  0  0  0  0  1  0  0  0  0  0  0
  -30.9600  -14.6440   20.1310 C   0  0  0  0  0  0  0  0  0  0  0  0
  -30.5700  -12.4900   18.9750 C   0  0  0  0  0  2  0  0  0  0  0  0
  -29.5610  -12.6680   17.8230 C   0  0  0  0  0  2  0  0  0  0  0  0
  -28.1180  -12.4800   18.3320 C   0  0  0  0  0  2  0  0  0  0  0  0
  -27.8280  -13.3100   19.6080 C   0  0  0  0  0  3  0  0  0  0  0  0
  -28.9580  -13.1670   20.6590 C   0  0  0  0  0  2  0  0  0  0  0  0
  -30.2400  -13.4870   20.0070 N   0  0  0  0  0  0  0  0  0  0  0  0
  -32.1000  -14.7530   19.6700 O   0  0  0  0  0  0  0  0  0  0  0  0
  -29.3660  -17.8850   19.7800 C   0  0  0  0  0  2  0  0  0  0  0  0
  -31.1930  -18.0660   21.3890 C   0  0  0  0  0  2  0  0  0  0  0  0
  -29.2050  -16.3800   20.0810 C   0  0  0  0  0  2  0  0  0  0  0  0
  -31.0730  -16.5490   21.7250 C   0  0  0  0  0  2  0  0  0  0  0  0
  -29.8410  -18.6960   20.9930 C   0  0  0  0  0  3  0  0  0  0  0  0
  -30.3630  -15.7210   20.7210 N   0  0  0  0  0  0  0  0  0  0  0  0
  -25.4940  -13.9140   20.4980 C   0  0  0  0  0  0  0  0  0  0  0  0
  -24.4440  -13.1360   20.9010 C   0  0  0  0  0  0  0  0  0  0  0  0
  -24.8900  -11.7850   20.7870 C   0  0  0  0  0  0  0  0  0  0  0  0
  -26.5130  -13.0310   20.1670 N   0  0  0  0  0  0  0  0  0  0  0  0
  -26.1580  -11.7450   20.4010 N   0  0  0  0  0  0  0  0  0  0  0  0
  -24.1680  -10.5210   20.9700 C   0  0  0  0  0  0  0  0  0  0  0  0
  -24.5960   -9.5580   21.9090 C   0  0  0  0  0  3  0  0  0  0  0  0
  -23.8790   -8.3540   22.0740 C   0  0  0  0  0  3  0  0  0  0  0  0
  -22.7210   -8.1050   21.2990 C   0  0  0  0  0  0  0  0  0  0  0  0
  -22.3140   -9.0590   20.3500 C   0  0  0  0  0  3  0  0  0  0  0  0
  -23.0320  -10.2540   20.1830 C   0  0  0  0  0  3  0  0  0  0  0  0
  -21.9730   -6.9560   21.3770 O   0  0  0  0  0  0  0  0  0  0  0  0
  -21.8160   -6.2780   22.5580 C   0  0  0  0  0  0  0  0  0  0  0  0
  -21.2470   -6.8880   23.6980 C   0  0  0  0  0  3  0  0  0  0  0  0
  -21.0410   -6.1330   24.8690 C   0  0  0  0  0  3  0  0  0  0  0  0
  -21.3940   -4.7710   24.9020 C   0  0  0  0  0  0  0  0  0  0  0  0
  -21.9540   -4.1600   23.7660 C   0  0  0  0  0  3  0  0  0  0  0  0
  -22.1630   -4.9120   22.5970 C   0  0  0  0  0  0  0  0  0  0  0  0
  -22.6850   -4.3150   21.4990 F   0  0  0  0  0  0  0  0  0  0  0  0
  -21.1880   -4.0430   26.0250 F   0  0  0  0  0  0  0  0  0  0  0  0
  -23.0700  -13.6100   21.2770 C   0  0  0  0  0  0  0  0  0  0  0  0
  -22.3900  -12.8890   22.1620 N   0  0  0  0  0  0  0  0  0  0  0  0
  -22.6090  -14.6550   20.8200 O   0  0  0  0  0  0  0  0  0  0  0  0
  -22.7780  -12.0440   22.5560 H   0  0  0  0  0  0  0  0  0  0  0  0
  -21.4690  -13.1880   22.4500 H   0  0  0  0  0  0  0  0  0  0  0  0
  -25.6610  -15.2900   20.3610 N   0  0  0  0  0  0  0  0  0  0  0  0
  -24.9130  -15.9500   20.5450 H   0  0  0  0  0  0  0  0  0  0  0  0
  -26.4950  -15.7270   19.9950 H   0  0  0  0  0  0  0  0  0  0  0  0
  -30.8540  -25.0050   18.8880 C   0  0  0  0  0  2  0  0  0  0  0  0
  -31.0770  -25.2860   20.9510 C   0  0  0  0  0  2  0  0  0  0  0  0
  -31.5880  -26.0510   19.7270 C   0  0  0  0  0  3  0  0  0  0  0  0
  -29.9680  -24.6270   20.0990 C   0  0  2  0  0  0  0  0  0  0  0  0
  -33.0870  -26.2430   19.5300 C   0  0  0  0  0  1  0  0  0  0  0  0
  -28.5670  -25.3180   20.1390 C   0  0  0  0  0  2  0  0  0  0  0  0
  -28.6250  -26.7700   20.1520 O   0  0  0  0  0  0  0  0  0  0  0  0
  -24.7180  -31.8820   23.2750 C   0  0  0  0  0  0  0  0  0  0  0  0
  -27.4420  -27.4960   20.1420 C   0  0  0  0  0  0  0  0  0  0  0  0
  -23.5570  -30.5330   21.5590 C   0  0  0  0  0  3  0  0  0  0  0  0
  -25.0480  -29.0300   20.1310 C   0  0  0  0  0  0  0  0  0  0  0  0
  -26.0910  -30.8830   21.4470 C   0  0  0  0  0  2  0  0  0  0  0  0
  -26.1920  -29.5290   20.7640 C   0  0  0  0  0  0  0  0  0  0  0  0
  -27.3910  -28.7740   20.7590 C   0  0  0  0  0  3  0  0  0  0  0  0
  -26.2700  -27.0170   19.5120 C   0  0  0  0  0  3  0  0  0  0  0  0
  -25.0830  -27.7760   19.5010 C   0  0  0  0  0  3  0  0  0  0  0  0
  -23.8050  -29.8930   20.1660 C   0  0  0  0  0  2  0  0  0  0  0  0
  -24.8050  -31.1130   22.1520 N   0  0  0  0  0  0  0  0  0  0  0  0
  -23.6220  -32.1410   23.7910 O   0  0  0  0  0  0  0  0  0  0  0  0
  -22.8750  -29.4860   22.4710 C   0  0  0  0  0  0  0  0  0  0  0  0
  -21.5560  -29.3060   22.2980 N   0  0  0  0  0  0  0  0  0  0  0  0
  -23.5340  -28.8400   23.2900 O   0  0  0  0  0  0  0  0  0  0  0  0
  -21.0860  -29.8790   21.6110 H   0  0  0  0  0  0  0  0  0  0  0  0
  -18.1670  -28.1020   22.6650 C   0  0  0  0  0  0  0  0  0  0  0  0
  -20.7170  -28.3460   23.0160 C   0  0  0  0  0  3  0  0  0  0  0  0
  -20.8330  -26.9340   22.3980 C   0  0  0  0  0  2  0  0  0  0  0  0
  -19.7600  -26.6450   21.3440 C   0  0  0  0  0  2  0  0  0  0  0  0
  -18.3600  -26.7740   21.9510 C   0  0  0  0  0  2  0  0  0  0  0  0
  -19.2740  -28.8470   23.1490 C   0  0  0  0  0  0  0  0  0  0  0  0
  -19.0410  -30.0920   23.7730 C   0  0  0  0  0  3  0  0  0  0  0  0
  -17.7330  -30.5910   23.9190 C   0  0  0  0  0  3  0  0  0  0  0  0
  -16.6390  -29.8420   23.4500 C   0  0  0  0  0  3  0  0  0  0  0  0
  -16.8570  -28.5990   22.8300 C   0  0  0  0  0  3  0  0  0  0  0  0
  -25.9870  -32.4900   23.9480 C   0  0  0  0  0  3  0  0  0  0  0  0
  -25.6760  -33.8810   24.3040 N   0  0  0  0  0  0  0  0  0  0  0  0
  -25.9990  -34.9480   23.5590 C   0  0  0  0  0  0  0  0  0  0  0  0
  -26.6630  -34.8630   22.5220 O   0  0  0  0  0  0  0  0  0  0  0  0
  -25.0850  -34.0210   25.1100 H   0  0  0  0  0  0  0  0  0  0  0  0
  -24.2410  -36.7210   23.2690 C   0  0  0  0  0  1  0  0  0  0  0  0
  -25.5080  -36.3250   24.0430 C   0  0  0  0  0  3  0  0  0  0  0  0
  -27.6530  -37.2310   24.8250 C   0  0  0  0  0  1  0  0  0  0  0  0
  -26.5240  -37.3920   23.9110 N   0  0  0  0  0  0  0  0  0  0  0  0
  -26.1100  -38.3060   24.0740 H   0  0  0  0  0  0  0  0  0  0  0  0
  -26.4650  -31.6840   25.2190 C   0  0  1  0  0  0  0  0  0  0  0  0
  -25.3400  -31.4270   26.2480 C   0  0  0  0  0  1  0  0  0  0  0  0
  -27.0540  -30.3140   24.8110 C   0  0  0  0  0  1  0  0  0  0  0  0
  -27.6000  -32.4580   25.9320 C   0  0  0  0  0  1  0  0  0  0  0  0
  1  2  2  0
  1  4  1  0
  2  5  1  0
  3  6  1  0
  4  3  2  0
  5  6  2  0
  6  7  1  0
  8 21  1  0
  9 14  1  0
 10 11  1  0
 10  9  1  0
 12 11  1  0
 12 25  1  0
 12 13  1  0
 14  8  1  0
 14 13  1  0
 15  8  2  0
 16 18  1  0
 16 20  1  0
 17 19  1  0
 18 21  1  0
 20  5  1  0
 20 17  1  0
 21 19  1  0
 22 23  2  0
 23 42  1  0
 24 23  1  0
 24 27  1  0
 25 26  1  0
 25 22  1  0
 26 24  2  0
 27 28  1  0
 28 29  2  0
 30 33  1  0
 30 29  1  0
 31 30  2  0
 32 31  1  0
 32 27  2  0
 33 34  1  0
 34 39  2  0
 34 35  1  0
 35 36  2  0
 36 37  1  0
 37 41  1  0
 38 37  2  0
 39 38  1  0
 40 39  1  0
 42 43  1  0
 43 46  1  0
 43 45  1  0
 44 42  2  0
 47 22  1  0
 47 48  1  0
 49 47  1  0
 50 52  1  0
 50 53  1  0
 52 54  1  0
 52 51  1  0
 53 55  1  6
 53  4  1  0
 53 51  1  0
 55 56  1  0
 57 68  2  0
 58 56  1  0
 58 63  1  0
 59 67  1  0
 59 69  1  0
 60 66  1  0
 60 62  1  0
 61 67  1  0
 62 61  1  0
 63 62  2  0
 64 58  2  0
 65 64  1  0
 65 60  2  0
 66 59  1  0
 67 57  1  0
 69 71  2  0
 70 69  1  0
 72 70  1  0
 73 82  2  0
 73 78  1  0
 74 70  1  0
 74 78  1  0
 75 74  1  0
 76 77  1  0
 76 75  1  0
 77 73  1  0
 78 79  2  0
 79 80  1  0
 81 80  2  0
 82 81  1  0
 83 57  1  0
 83 84  1  0
 83 93  1  0
 84 87  1  0
 85 89  1  0
 85 84  1  0
 86 85  2  0
 89 88  1  0
 91 89  1  0
 91 92  1  0
 91 90  1  0
 93 96  1  1
 93 94  1  0
 95 93  1  0
M  ISO  4   8 100  21 100  55 101  56 101
M  END
>  <TORSDO>  (34) 
F 18

>  <SCORE>  (34) 
-14.362

>  <name>  (34) 
33

>  <ligand_id>  (34) 
33

>  <original_smiles>  (34) 
[H]c1c([H])c([H])c2c(c1[H])C([H])([H])C([H])([H])C([H])([H])C2([H])N([H])C(=O)C1([H])N(C(=O)C([H])(N([H])C(=O)C([H])(N([H])C([H])([H])[H])C([H])([H])[H])C(C([H])([H])[H])(C([H])([H])[H])C([H])([H])[H])C([H])([H])c2c([H])c(OC([H])([H])C3(c4c([H])c([H])c(C5([H])C([H])([H])C([H])([H])N(C(=O)N6C([H])([H])C([H])([H])C([H])([H])C([H])(n7nc(-c8c([H])c([H])c(Oc9c([H])c([H])c(F)c([H])c9F)c([H])c8[H])c(C(=O)N([H])[H])c7N([H])[H])C6([H])[H])C([H])([H])C5([H])[H])c(C([H])([H])[H])c4[H])C([H])([H])C([H])(C([H])([H])[H])C3([H])[H])c([H])c([H])c2C1([H])[H]

>  <smiles>  (34) 
[H]c1c([H])c([H])c2c(c1[H])C([H])([H])C([H])([H])C([H])([H])C2([H])N([H])C(=O)C1([H])N(C(=O)C([H])(N([H])C(=O)C([H])(N([H])C([H])([H])[H])C([H])([H])[H])C(C([H])([H])[H])(C([H])([H])[H])C([H])([H])[H])C([H])([H])c2c([H])c(OC([H])([H])C3(c4c([H])c([H])c(C5([H])C([H])([H])C([H])([H])N(C(=O)N6C([H])([H])C([H])([H])C([H])([H])C([H])(n7nc(-c8c([H])c([H])c(Oc9c([H])c([H])c(F)c([H])c9F)c([H])c8[H])c(C(=O)N([H])[H])c7N([H])[H])C6([H])[H])C([H])([H])C5([H])[H])c(C([H])([H])[H])c4[H])C([H])([H])C([H])(C([H])([H])[H])C3([H])[H])c([H])c([H])c2C1([H])[H]

$$$$
34:0:0
     RDKit          3D

 94104  0  0  1  0  0  0  0  0999 V2000
  -28.4760  -21.0940   19.3140 C   0  0  0  0  0  3  0  0  0  0  0  0
  -29.5060  -23.1500   20.9020 C   0  0  0  0  0  3  0  0  0  0  0  0
  -29.4280  -20.7040   20.2830 C   0  0  0  0  0  0  0  0  0  0  0  0
  -29.9370  -21.7830   21.0870 C   0  0  0  0  0  0  0  0  0  0  0  0
  -28.0450  -22.4430   19.1380 C   0  0  0  0  0  0  0  0  0  0  0  0
  -28.5490  -23.5330   19.9230 C   0  0  0  0  0  0  0  0  0  0  0  0
  -26.9740  -22.6780   18.0800 C   0  0  0  0  0  1  0  0  0  0  0  0
  -30.8180  -14.7650   20.0970 C   0  0  0  0  0  0  0  0  0  0  0  0
  -30.4780  -12.5250   19.0550 C   0  0  0  0  0  2  0  0  0  0  0  0
  -29.4900  -12.6050   17.8760 C   0  0  0  0  0  2  0  0  0  0  0  0
  -28.0460  -12.4260   18.3790 C   0  0  0  0  0  2  0  0  0  0  0  0
  -27.7280  -13.3040   19.6200 C   0  0  0  0  0  3  0  0  0  0  0  0
  -28.8450  -13.2310   20.6830 C   0  0  0  0  0  2  0  0  0  0  0  0
  -30.0970  -13.5930   20.0110 N   0  0  0  0  0  0  0  0  0  0  0  0
  -32.0070  -14.7320   19.7680 O   0  0  0  0  0  0  0  0  0  0  0  0
  -29.0490  -18.1550   21.1710 C   0  0  0  0  0  2  0  0  0  0  0  0
  -30.1250  -18.4490   19.0410 C   0  0  0  0  0  2  0  0  0  0  0  0
  -29.6440  -16.6830   21.3040 C   0  0  0  0  0  2  0  0  0  0  0  0
  -30.8050  -17.0420   19.1800 C   0  0  0  0  0  2  0  0  0  0  0  0
  -29.9210  -19.1840   20.3870 C   0  0  0  0  0  3  0  0  0  0  0  0
  -30.1800  -16.0140   20.0770 N   0  0  0  0  0  0  0  0  0  0  0  0
  -25.3840  -13.8580   20.4960 C   0  0  0  0  0  0  0  0  0  0  0  0
  -24.3390  -13.0690   20.8910 C   0  0  0  0  0  0  0  0  0  0  0  0
  -24.8020  -11.7200   20.7900 C   0  0  0  0  0  0  0  0  0  0  0  0
  -26.4150  -12.9920   20.1760 N   0  0  0  0  0  0  0  0  0  0  0  0
  -26.0760  -11.6980   20.4160 N   0  0  0  0  0  0  0  0  0  0  0  0
  -24.0860  -10.4500   20.9730 C   0  0  0  0  0  0  0  0  0  0  0  0
  -24.5170   -9.4860   21.9100 C   0  0  0  0  0  3  0  0  0  0  0  0
  -23.8000   -8.2820   22.0830 C   0  0  0  0  0  3  0  0  0  0  0  0
  -22.6370   -8.0340   21.3150 C   0  0  0  0  0  0  0  0  0  0  0  0
  -22.2260   -8.9850   20.3650 C   0  0  0  0  0  3  0  0  0  0  0  0
  -22.9450  -10.1810   20.1930 C   0  0  0  0  0  3  0  0  0  0  0  0
  -21.8920   -6.8820   21.3950 O   0  0  0  0  0  0  0  0  0  0  0  0
  -21.7650   -6.1870   22.5710 C   0  0  0  0  0  0  0  0  0  0  0  0
  -21.2210   -6.7780   23.7310 C   0  0  0  0  0  3  0  0  0  0  0  0
  -21.0450   -6.0090   24.8990 C   0  0  0  0  0  3  0  0  0  0  0  0
  -21.4030   -4.6470   24.9050 C   0  0  0  0  0  0  0  0  0  0  0  0
  -21.9390   -4.0540   23.7470 C   0  0  0  0  0  3  0  0  0  0  0  0
  -22.1160   -4.8220   22.5830 C   0  0  0  0  0  0  0  0  0  0  0  0
  -22.6140   -4.2400   21.4650 F   0  0  0  0  0  0  0  0  0  0  0  0
  -21.2260   -3.9040   26.0230 F   0  0  0  0  0  0  0  0  0  0  0  0
  -22.9570  -13.5320   21.2460 C   0  0  0  0  0  0  0  0  0  0  0  0
  -22.2770  -12.8110   22.1310 N   0  0  0  0  0  0  0  0  0  0  0  0
  -22.4890  -14.5680   20.7760 O   0  0  0  0  0  0  0  0  0  0  0  0
  -22.6710  -11.9730   22.5340 H   0  0  0  0  0  0  0  0  0  0  0  0
  -21.3530  -13.1030   22.4130 H   0  0  0  0  0  0  0  0  0  0  0  0
  -25.5400  -15.2350   20.3590 N   0  0  0  0  0  0  0  0  0  0  0  0
  -24.7850  -15.8870   20.5420 H   0  0  0  0  0  0  0  0  0  0  0  0
  -26.3840  -15.6860   20.0310 H   0  0  0  0  0  0  0  0  0  0  0  0
  -30.5910  -20.6980   23.3820 C   0  0  0  0  0  2  0  0  0  0  0  0
  -30.8950  -22.1700   23.5140 C   0  0  0  0  0  2  0  0  0  0  0  0
  -30.9540  -21.5050   22.1570 C   0  0  0  0  0  3  0  0  0  0  0  0
  -27.8580  -24.9620   19.7530 C   0  0  0  0  0  2  0  0  0  0  0  0
  -28.2540  -26.3280   20.2450 O   0  0  0  0  0  0  0  0  0  0  0  0
  -24.6570  -31.8920   23.2890 C   0  0  0  0  0  0  0  0  0  0  0  0
  -27.2160  -27.3050   20.1640 C   0  0  0  0  0  0  0  0  0  0  0  0
  -23.4530  -30.5390   21.6200 C   0  0  0  0  0  3  0  0  0  0  0  0
  -24.8950  -29.0140   20.1690 C   0  0  0  0  0  0  0  0  0  0  0  0
  -26.0070  -30.8080   21.4750 C   0  0  0  0  0  2  0  0  0  0  0  0
  -26.0720  -29.4410   20.7970 C   0  0  0  0  0  0  0  0  0  0  0  0
  -27.2350  -28.5970   20.7960 C   0  0  0  0  0  3  0  0  0  0  0  0
  -26.0180  -26.9880   19.4680 C   0  0  0  0  0  3  0  0  0  0  0  0
  -24.8740  -27.7930   19.4950 C   0  0  0  0  0  3  0  0  0  0  0  0
  -23.6720  -29.9040   20.2270 C   0  0  0  0  0  2  0  0  0  0  0  0
  -24.7250  -31.0960   22.1830 N   0  0  0  0  0  0  0  0  0  0  0  0
  -23.5710  -32.1740   23.8170 O   0  0  0  0  0  0  0  0  0  0  0  0
  -22.7710  -29.5060   22.5520 C   0  0  0  0  0  0  0  0  0  0  0  0
  -21.4440  -29.3430   22.4100 N   0  0  0  0  0  0  0  0  0  0  0  0
  -23.4360  -28.8580   23.3650 O   0  0  0  0  0  0  0  0  0  0  0  0
  -20.9670  -29.9160   21.7290 H   0  0  0  0  0  0  0  0  0  0  0  0
  -18.0470  -28.1880   22.8860 C   0  0  0  0  0  0  0  0  0  0  0  0
  -20.6080  -28.4020   23.1600 C   0  0  0  0  0  3  0  0  0  0  0  0
  -20.6880  -26.9810   22.5550 C   0  0  0  0  0  2  0  0  0  0  0  0
  -19.5810  -26.6980   21.5340 C   0  0  0  0  0  2  0  0  0  0  0  0
  -18.2020  -26.8510   22.1810 C   0  0  0  0  0  2  0  0  0  0  0  0
  -19.1770  -28.9230   23.3310 C   0  0  0  0  0  0  0  0  0  0  0  0
  -18.9770  -30.1760   23.9510 C   0  0  0  0  0  3  0  0  0  0  0  0
  -17.6800  -30.6940   24.1270 C   0  0  0  0  0  3  0  0  0  0  0  0
  -16.5640  -29.9550   23.6970 C   0  0  0  0  0  3  0  0  0  0  0  0
  -16.7480  -28.7040   23.0820 C   0  0  0  0  0  3  0  0  0  0  0  0
  -25.9400  -32.5020   23.9290 C   0  0  0  0  0  3  0  0  0  0  0  0
  -25.6480  -33.9050   24.2540 N   0  0  0  0  0  0  0  0  0  0  0  0
  -25.9730  -34.9520   23.4830 C   0  0  0  0  0  0  0  0  0  0  0  0
  -26.6210  -34.8350   22.4380 O   0  0  0  0  0  0  0  0  0  0  0  0
  -25.0700  -34.0700   25.0660 H   0  0  0  0  0  0  0  0  0  0  0  0
  -24.2370  -36.7450   23.1700 C   0  0  0  0  0  1  0  0  0  0  0  0
  -25.5060  -36.3470   23.9410 C   0  0  0  0  0  3  0  0  0  0  0  0
  -27.6700  -37.2380   24.6860 C   0  0  0  0  0  1  0  0  0  0  0  0
  -26.5370  -37.3950   23.7770 N   0  0  0  0  0  0  0  0  0  0  0  0
  -26.1380  -38.3190   23.9250 H   0  0  0  0  0  0  0  0  0  0  0  0
  -26.4210  -31.7230   25.2140 C   0  0  1  0  0  0  0  0  0  0  0  0
  -25.3050  -31.5020   26.2620 C   0  0  0  0  0  1  0  0  0  0  0  0
  -26.9900  -30.3350   24.8360 C   0  0  0  0  0  1  0  0  0  0  0  0
  -27.5720  -32.5000   25.8950 C   0  0  0  0  0  1  0  0  0  0  0  0
  1  3  1  0
  2  4  1  0
  3  4  2  0
  4 52  1  0
  5  1  2  0
  5  6  1  0
  6  2  2  0
  7  5  1  0
  9 14  1  0
 10 11  1  0
 10  9  1  0
 12 11  1  0
 12 25  1  0
 12 13  1  0
 14  8  1  0
 14 13  1  0
 15  8  2  0
 16 18  1  0
 17 19  1  0
 17 20  1  0
 19 21  1  0
 20  3  1  0
 20 16  1  0
 21  8  1  0
 21 18  1  0
 22 23  2  0
 23 42  1  0
 24 23  1  0
 24 27  1  0
 25 26  1  0
 25 22  1  0
 26 24  2  0
 27 28  1  0
 28 29  2  0
 30 33  1  0
 30 29  1  0
 31 30  2  0
 32 31  1  0
 32 27  2  0
 33 34  1  0
 34 39  2  0
 34 35  1  0
 35 36  2  0
 36 37  1  0
 37 41  1  0
 38 37  2  0
 39 38  1  0
 40 39  1  0
 42 43  1  0
 43 46  1  0
 43 45  1  0
 44 42  2  0
 47 22  1  0
 47 48  1  0
 49 47  1  0
 50 51  1  0
 52 50  1  0
 52 51  1  0
 53  6  1  0
 53 54  1  0
 55 66  2  0
 56 54  1  0
 56 61  1  0
 57 65  1  0
 57 67  1  0
 58 64  1  0
 58 60  1  0
 59 65  1  0
 60 59  1  0
 61 60  2  0
 62 63  1  0
 62 56  2  0
 63 58  2  0
 64 57  1  0
 65 55  1  0
 67 69  2  0
 68 67  1  0
 70 68  1  0
 71 80  2  0
 71 76  1  0
 72 68  1  0
 72 76  1  0
 73 72  1  0
 74 75  1  0
 74 73  1  0
 75 71  1  0
 76 77  2  0
 77 78  1  0
 79 78  2  0
 80 79  1  0
 81 55  1  0
 81 82  1  0
 81 91  1  0
 82 85  1  0
 83 87  1  0
 83 82  1  0
 84 83  2  0
 87 86  1  0
 89 90  1  0
 89 87  1  0
 89 88  1  0
 91 94  1  1
 91 92  1  0
 93 91  1  0
M  ISO  4   8 100  21 100  53 101  54 101
M  END
>  <TORSDO>  (35) 
F 18

>  <SCORE>  (35) 
-14.588

>  <name>  (35) 
34

>  <ligand_id>  (35) 
34

>  <original_smiles>  (35) 
[H]c1c([H])c([H])c2c(c1[H])C([H])([H])C([H])([H])C([H])([H])C2([H])N([H])C(=O)C1([H])N(C(=O)C([H])(N([H])C(=O)C([H])(N([H])C([H])([H])[H])C([H])([H])[H])C(C([H])([H])[H])(C([H])([H])[H])C([H])([H])[H])C([H])([H])c2c([H])c(OC([H])([H])c3c([H])c(C4([H])C([H])([H])C4([H])[H])c(C4([H])C([H])([H])C([H])([H])N(C(=O)N5C([H])([H])C([H])([H])C([H])([H])C([H])(n6nc(-c7c([H])c([H])c(Oc8c([H])c([H])c(F)c([H])c8F)c([H])c7[H])c(C(=O)N([H])[H])c6N([H])[H])C5([H])[H])C([H])([H])C4([H])[H])c([H])c3C([H])([H])[H])c([H])c([H])c2C1([H])[H]

>  <smiles>  (35) 
[H]c1c([H])c([H])c2c(c1[H])C([H])([H])C([H])([H])C([H])([H])C2([H])N([H])C(=O)C1([H])N(C(=O)C([H])(N([H])C(=O)C([H])(N([H])C([H])([H])[H])C([H])([H])[H])C(C([H])([H])[H])(C([H])([H])[H])C([H])([H])[H])C([H])([H])c2c([H])c(OC([H])([H])c3c([H])c(C4([H])C([H])([H])C4([H])[H])c(C4([H])C([H])([H])C([H])([H])N(C(=O)N5C([H])([H])C([H])([H])C([H])([H])C([H])(n6nc(-c7c([H])c([H])c(Oc8c([H])c([H])c(F)c([H])c8F)c([H])c7[H])c(C(=O)N([H])[H])c6N([H])[H])C5([H])[H])C([H])([H])C4([H])[H])c([H])c3C([H])([H])[H])c([H])c([H])c2C1([H])[H]

$$$$
35:0:0
     RDKit          3D

 95105  0  0  1  0  0  0  0  0999 V2000
  -31.1590  -21.7280   19.5610 C   0  0  0  0  0  3  0  0  0  0  0  0
  -33.1640  -21.1510   18.2690 C   0  0  0  0  0  0  0  0  0  0  0  0
  -32.0660  -19.4740   19.8890 C   0  0  0  0  0  0  0  0  0  0  0  0
  -32.1860  -22.0950   18.6740 C   0  0  0  0  0  0  0  0  0  0  0  0
  -33.0840  -19.8380   18.8990 C   0  0  0  0  0  0  0  0  0  0  0  0
  -31.0760  -20.4500   20.1580 C   0  0  0  0  0  0  0  0  0  0  0  0
  -32.1970  -23.5620   18.2490 C   0  0  0  0  0  1  0  0  0  0  0  0
  -34.1210  -18.8150   18.4510 C   0  0  0  0  0  1  0  0  0  0  0  0
  -30.8250  -14.3380   20.7620 C   0  0  0  0  0  0  0  0  0  0  0  0
  -31.5740  -12.0680   21.4350 C   0  0  0  0  0  2  0  0  0  0  0  0
  -32.9490  -12.0770   22.1230 C   0  0  0  0  0  2  0  0  0  0  0  0
  -34.0620  -11.9250   21.0740 C   0  0  0  0  0  2  0  0  0  0  0  0
  -33.8880  -12.8820   19.8620 C   0  0  0  0  0  3  0  0  0  0  0  0
  -32.4340  -12.9270   19.3410 C   0  0  0  0  0  2  0  0  0  0  0  0
  -31.5700  -13.2120   20.4970 N   0  0  0  0  0  0  0  0  0  0  0  0
  -29.7700  -14.1870   21.3780 O   0  0  0  0  0  0  0  0  0  0  0  0
  -30.8480  -17.8800   21.6120 C   0  0  0  0  0  2  0  0  0  0  0  0
  -31.0610  -16.4290   22.0840 C   0  0  0  0  0  2  0  0  0  0  0  0
  -31.8220  -16.6220   19.8930 C   0  0  0  0  0  2  0  0  0  0  0  0
  -31.9820  -18.0510   20.6160 C   0  0  0  0  0  3  0  0  0  0  0  0
  -31.4400  -15.5840   20.9160 N   0  0  0  0  0  0  0  0  0  0  0  0
  -36.1560  -13.0540   18.6840 C   0  0  0  0  0  0  0  0  0  0  0  0
  -36.6800  -12.4200   17.5940 C   0  0  0  0  0  0  0  0  0  0  0  0
  -35.6380  -11.5810   17.0840 C   0  0  0  0  0  0  0  0  0  0  0  0
  -34.8560  -12.5950   18.8070 N   0  0  0  0  0  0  0  0  0  0  0  0
  -34.5260  -11.7500   17.7930 N   0  0  0  0  0  0  0  0  0  0  0  0
  -35.6580  -10.5870   16.0050 C   0  0  0  0  0  0  0  0  0  0  0  0
  -35.3820  -10.9440   14.6670 C   0  0  0  0  0  3  0  0  0  0  0  0
  -35.4290   -9.9760   13.6420 C   0  0  0  0  0  3  0  0  0  0  0  0
  -35.7580   -8.6340   13.9480 C   0  0  0  0  0  0  0  0  0  0  0  0
  -36.0090   -8.2780   15.2850 C   0  0  0  0  0  3  0  0  0  0  0  0
  -35.9570   -9.2430   16.3040 C   0  0  0  0  0  3  0  0  0  0  0  0
  -35.8070   -7.6200   13.0210 O   0  0  0  0  0  0  0  0  0  0  0  0
  -36.7110   -7.6320   11.9890 C   0  0  0  0  0  0  0  0  0  0  0  0
  -38.0960   -7.4600   12.2080 C   0  0  0  0  0  3  0  0  0  0  0  0
  -38.9810   -7.4100   11.1120 C   0  0  0  0  0  3  0  0  0  0  0  0
  -38.4850   -7.5190    9.7990 C   0  0  0  0  0  0  0  0  0  0  0  0
  -37.1060   -7.6810    9.5790 C   0  0  0  0  0  3  0  0  0  0  0  0
  -36.2220   -7.7360   10.6710 C   0  0  0  0  0  0  0  0  0  0  0  0
  -34.8910   -7.8720   10.4530 F   0  0  0  0  0  0  0  0  0  0  0  0
  -39.3330   -7.4580    8.7460 F   0  0  0  0  0  0  0  0  0  0  0  0
  -38.0970  -12.5060   17.1050 C   0  0  0  0  0  0  0  0  0  0  0  0
  -38.3110  -12.3640   15.8030 N   0  0  0  0  0  0  0  0  0  0  0  0
  -39.0240  -12.7510   17.8790 O   0  0  0  0  0  0  0  0  0  0  0  0
  -37.5520  -12.1810   15.1610 H   0  0  0  0  0  0  0  0  0  0  0  0
  -39.2500  -12.4290   15.4390 H   0  0  0  0  0  0  0  0  0  0  0  0
  -36.6780  -13.9610   19.6060 N   0  0  0  0  0  0  0  0  0  0  0  0
  -37.6470  -14.2560   19.6000 H   0  0  0  0  0  0  0  0  0  0  0  0
  -36.1660  -14.3060   20.4070 H   0  0  0  0  0  0  0  0  0  0  0  0
  -34.0080  -22.0570   15.8220 C   0  0  0  0  0  2  0  0  0  0  0  0
  -34.2860  -21.6250   17.2580 C   0  0  0  0  0  3  0  0  0  0  0  0
  -34.5270  -23.1090   16.7700 C   0  0  0  0  0  3  0  0  0  0  0  0
  -35.8670  -23.6830   16.4530 O   0  0  0  0  0  0  0  0  0  0  0  0
  -41.0290  -28.4790   18.2590 C   0  0  0  0  0  0  0  0  0  0  0  0
  -36.2990  -24.7610   17.2520 C   0  0  0  0  0  0  0  0  0  0  0  0
  -39.2300  -28.0830   19.9000 C   0  0  0  0  0  3  0  0  0  0  0  0
  -37.1880  -26.8170   19.0360 C   0  0  0  0  0  0  0  0  0  0  0  0
  -38.7840  -27.7830   17.3870 C   0  0  0  0  0  2  0  0  0  0  0  0
  -37.7240  -26.7480   17.7430 C   0  0  0  0  0  0  0  0  0  0  0  0
  -37.2780  -25.7260   16.8450 C   0  0  0  0  0  3  0  0  0  0  0  0
  -35.7680  -24.9020   18.5550 C   0  0  0  0  0  3  0  0  0  0  0  0
  -36.2070  -25.9010   19.4370 C   0  0  0  0  0  3  0  0  0  0  0  0
  -37.6940  -27.8990   19.9620 C   0  0  0  0  0  2  0  0  0  0  0  0
  -39.7360  -28.1070   18.4890 N   0  0  0  0  0  0  0  0  0  0  0  0
  -41.7780  -28.8250   19.1840 O   0  0  0  0  0  0  0  0  0  0  0  0
  -39.9090  -27.0000   20.7750 C   0  0  0  0  0  0  0  0  0  0  0  0
  -39.9350  -27.2150   22.1030 N   0  0  0  0  0  0  0  0  0  0  0  0
  -40.3730  -25.9780   20.2610 O   0  0  0  0  0  0  0  0  0  0  0  0
  -39.5430  -28.0780   22.4480 H   0  0  0  0  0  0  0  0  0  0  0  0
  -40.4850  -26.7990   25.6530 C   0  0  0  0  0  0  0  0  0  0  0  0
  -40.4850  -26.3090   23.1130 C   0  0  0  0  0  3  0  0  0  0  0  0
  -39.4910  -25.1680   23.4380 C   0  0  0  0  0  2  0  0  0  0  0  0
  -38.5820  -25.4830   24.6300 C   0  0  0  0  0  2  0  0  0  0  0  0
  -39.4130  -25.7490   25.8880 C   0  0  0  0  0  2  0  0  0  0  0  0
  -40.9770  -27.0750   24.3490 C   0  0  0  0  0  0  0  0  0  0  0  0
  -41.9430  -28.0900   24.1860 C   0  0  0  0  0  3  0  0  0  0  0  0
  -42.4230  -28.8140   25.2940 C   0  0  0  0  0  3  0  0  0  0  0  0
  -41.9440  -28.5260   26.5830 C   0  0  0  0  0  3  0  0  0  0  0  0
  -40.9800  -27.5190   26.7610 C   0  0  0  0  0  3  0  0  0  0  0  0
  -41.6190  -28.5090   16.8160 C   0  0  0  0  0  3  0  0  0  0  0  0
  -41.9980  -29.8980   16.5180 N   0  0  0  0  0  0  0  0  0  0  0  0
  -41.3280  -30.7060   15.6850 C   0  0  0  0  0  0  0  0  0  0  0  0
  -40.3550  -30.3300   15.0260 O   0  0  0  0  0  0  0  0  0  0  0  0
  -42.7550  -30.2880   17.0600 H   0  0  0  0  0  0  0  0  0  0  0  0
  -40.9300  -33.0750   16.4270 C   0  0  0  0  0  1  0  0  0  0  0  0
  -41.8150  -32.1630   15.5640 C   0  0  0  0  0  3  0  0  0  0  0  0
  -42.8930  -32.0610   13.3610 C   0  0  0  0  0  1  0  0  0  0  0  0
  -41.8390  -32.6630   14.1720 N   0  0  0  0  0  0  0  0  0  0  0  0
  -41.9660  -33.6710   14.1570 H   0  0  0  0  0  0  0  0  0  0  0  0
  -42.8570  -27.5460   16.6270 C   0  0  1  0  0  0  0  0  0  0  0  0
  -43.9480  -27.7200   17.7080 C   0  0  0  0  0  1  0  0  0  0  0  0
  -42.4100  -26.0650   16.6360 C   0  0  0  0  0  1  0  0  0  0  0  0
  -43.5100  -27.7980   15.2470 C   0  0  0  0  0  1  0  0  0  0  0  0
  -28.7800  -20.7010   20.8060 C   0  0  0  0  0  1  0  0  0  0  0  0
  -30.0670  -20.1470   21.0430 O   0  0  0  0  0  0  0  0  0  0  0  0
  1  6  1  0
  2  4  1  0
  2  5  2  0
  3  6  2  0
  4  1  2  0
  5  3  1  0
  6 95  1  0
  7  4  1  0
  8  5  1  0
  9 21  1  0
  9 16  2  0
 10 11  1  0
 12 11  1  0
 13 25  1  0
 13 12  1  0
 14 13  1  0
 14 15  1  0
 15  9  1  0
 15 10  1  0
 17 18  1  0
 19 20  1  0
 19 21  1  0
 20  3  1  0
 20 17  1  0
 21 18  1  0
 22 25  1  0
 22 47  1  0
 23 22  2  0
 24 23  1  0
 24 26  2  0
 26 25  1  0
 27 32  1  0
 27 24  1  0
 28 27  2  0
 29 30  2  0
 29 28  1  0
 30 31  1  0
 31 32  2  0
 33 30  1  0
 34 35  1  0
 34 33  1  0
 36 35  2  0
 37 36  1  0
 38 37  2  0
 38 39  1  0
 39 34  2  0
 40 39  1  0
 41 37  1  0
 42 23  1  0
 42 44  2  0
 43 42  1  0
 45 43  1  0
 46 43  1  0
 47 49  1  0
 48 47  1  0
 50 52  1  0
 50 51  1  0
 51  2  1  0
 52 53  1  0
 52 51  1  0
 53 55  1  0
 54 64  1  0
 54 65  2  0
 55 61  1  0
 56 63  1  0
 56 66  1  0
 57 62  1  0
 57 63  1  0
 58 59  1  0
 58 64  1  0
 59 57  2  0
 60 55  2  0
 60 59  1  0
 61 62  2  0
 64 56  1  0
 66 67  1  0
 67 69  1  0
 68 66  2  0
 70 74  1  0
 70 79  1  0
 71 67  1  0
 71 72  1  0
 71 75  1  0
 72 73  1  0
 73 74  1  0
 75 70  2  0
 76 75  1  0
 76 77  2  0
 77 78  1  0
 78 79  2  0
 80 54  1  0
 81 80  1  0
 81 84  1  0
 82 81  1  0
 83 82  2  0
 86 82  1  0
 86 85  1  0
 87 88  1  0
 88 86  1  0
 89 88  1  0
 90 92  1  6
 90 80  1  0
 90 91  1  0
 93 90  1  0
 94 95  1  0
M  ISO  4   9 100  21 100  52 101  53 101
M  END
>  <TORSDO>  (36) 
F 18

>  <SCORE>  (36) 
-3.693

>  <name>  (36) 
35

>  <ligand_id>  (36) 
35

>  <original_smiles>  (36) 
[H]c1c([H])c([H])c2c(c1[H])C([H])([H])C([H])([H])C([H])([H])C2([H])N([H])C(=O)C1([H])N(C(=O)C([H])(N([H])C(=O)C([H])(N([H])C([H])([H])[H])C([H])([H])[H])C(C([H])([H])[H])(C([H])([H])[H])C([H])([H])[H])C([H])([H])c2c([H])c(OC3([H])C([H])([H])C3([H])c3c(C([H])([H])[H])c([H])c(OC([H])([H])[H])c(C4([H])C([H])([H])N(C(=O)N5C([H])([H])C([H])([H])C([H])([H])C([H])(n6nc(-c7c([H])c([H])c(Oc8c([H])c([H])c(F)c([H])c8F)c([H])c7[H])c(C(=O)N([H])[H])c6N([H])[H])C5([H])[H])C([H])([H])C4([H])[H])c3C([H])([H])[H])c([H])c([H])c2C1([H])[H]

>  <smiles>  (36) 
[H]c1c([H])c([H])c2c(c1[H])C([H])([H])C([H])([H])C([H])([H])C2([H])N([H])C(=O)C1([H])N(C(=O)C([H])(N([H])C(=O)C([H])(N([H])C([H])([H])[H])C([H])([H])[H])C(C([H])([H])[H])(C([H])([H])[H])C([H])([H])[H])C([H])([H])c2c([H])c(OC3([H])C([H])([H])C3([H])c3c(C([H])([H])[H])c([H])c(OC([H])([H])[H])c(C4([H])C([H])([H])N(C(=O)N5C([H])([H])C([H])([H])C([H])([H])C([H])(n6nc(-c7c([H])c([H])c(Oc8c([H])c([H])c(F)c([H])c8F)c([H])c7[H])c(C(=O)N([H])[H])c6N([H])[H])C5([H])[H])C([H])([H])C4([H])[H])c3C([H])([H])[H])c([H])c([H])c2C1([H])[H]

$$$$
36:0:0
     RDKit          3D

 94103  0  0  1  0  0  0  0  0999 V2000
  -28.2310  -22.2270   22.5350 C   0  0  0  0  0  3  0  0  0  0  0  0
  -27.7310  -22.5380   20.1720 C   0  0  0  0  0  3  0  0  0  0  0  0
  -29.8200  -21.5550   20.8410 C   0  0  0  0  0  0  0  0  0  0  0  0
  -27.2850  -22.4150   21.5070 C   0  0  0  0  0  0  0  0  0  0  0  0
  -29.5450  -21.8370   22.2040 C   0  0  0  0  0  0  0  0  0  0  0  0
  -29.1260  -22.5150   19.9540 C   0  0  0  0  0  0  0  0  0  0  0  0
  -25.8220  -22.5800   21.8510 C   0  0  0  0  0  1  0  0  0  0  0  0
  -30.5510  -21.5690   23.3190 C   0  0  0  0  0  1  0  0  0  0  0  0
  -31.4760  -15.5020   20.1560 C   0  0  0  0  0  0  0  0  0  0  0  0
  -31.3450  -13.1210   19.3080 C   0  0  0  0  0  2  0  0  0  0  0  0
  -30.4310  -12.9960   18.0680 C   0  0  0  0  0  2  0  0  0  0  0  0
  -28.9700  -12.7830   18.5010 C   0  0  0  0  0  2  0  0  0  0  0  0
  -28.5350  -13.7710   19.6170 C   0  0  0  0  0  3  0  0  0  0  0  0
  -29.5770  -13.8570   20.7550 C   0  0  0  0  0  2  0  0  0  0  0  0
  -30.8430  -14.2620   20.1340 N   0  0  0  0  0  0  0  0  0  0  0  0
  -32.6670  -15.5030   19.8140 O   0  0  0  0  0  0  0  0  0  0  0  0
  -29.4740  -18.8510   21.3280 C   0  0  0  0  0  2  0  0  0  0  0  0
  -30.5760  -19.3290   19.2620 C   0  0  0  0  0  2  0  0  0  0  0  0
  -29.9200  -17.2940   21.2660 C   0  0  0  0  0  2  0  0  0  0  0  0
  -31.3420  -17.9170   19.3630 C   0  0  0  0  0  2  0  0  0  0  0  0
  -30.3130  -19.9980   20.6320 C   0  0  0  0  0  3  0  0  0  0  0  0
  -30.7850  -16.7550   20.1600 N   0  0  0  0  0  0  0  0  0  0  0  0
  -26.1600  -14.3510   20.3740 C   0  0  0  0  0  0  0  0  0  0  0  0
  -25.0950  -13.5760   20.7400 C   0  0  0  0  0  0  0  0  0  0  0  0
  -25.5500  -12.2240   20.6860 C   0  0  0  0  0  0  0  0  0  0  0  0
  -27.1960  -13.4740   20.1140 N   0  0  0  0  0  0  0  0  0  0  0  0
  -26.8380  -12.1860   20.3650 N   0  0  0  0  0  0  0  0  0  0  0  0
  -24.8200  -10.9610   20.8640 C   0  0  0  0  0  0  0  0  0  0  0  0
  -25.1740  -10.0360   21.8710 C   0  0  0  0  0  3  0  0  0  0  0  0
  -24.4450   -8.8400   22.0330 C   0  0  0  0  0  3  0  0  0  0  0  0
  -23.3450   -8.5570   21.1890 C   0  0  0  0  0  0  0  0  0  0  0  0
  -23.0070   -9.4690   20.1750 C   0  0  0  0  0  3  0  0  0  0  0  0
  -23.7380  -10.6580   20.0110 C   0  0  0  0  0  3  0  0  0  0  0  0
  -22.5940   -7.4080   21.2570 O   0  0  0  0  0  0  0  0  0  0  0  0
  -22.3010   -6.8130   22.4570 C   0  0  0  0  0  0  0  0  0  0  0  0
  -21.6450   -7.5080   23.4940 C   0  0  0  0  0  3  0  0  0  0  0  0
  -21.3000   -6.8350   24.6830 C   0  0  0  0  0  3  0  0  0  0  0  0
  -21.6040   -5.4700   24.8340 C   0  0  0  0  0  0  0  0  0  0  0  0
  -22.2560   -4.7760   23.8000 C   0  0  0  0  0  3  0  0  0  0  0  0
  -22.6030   -5.4460   22.6150 C   0  0  0  0  0  0  0  0  0  0  0  0
  -23.2140   -4.7670   21.6130 F   0  0  0  0  0  0  0  0  0  0  0  0
  -21.2650   -4.8220   25.9740 F   0  0  0  0  0  0  0  0  0  0  0  0
  -23.7030  -14.0590   21.0290 C   0  0  0  0  0  0  0  0  0  0  0  0
  -22.9980  -13.3830   21.9270 N   0  0  0  0  0  0  0  0  0  0  0  0
  -23.2550  -15.0720   20.4930 O   0  0  0  0  0  0  0  0  0  0  0  0
  -23.3760  -12.5690   22.3880 H   0  0  0  0  0  0  0  0  0  0  0  0
  -22.0650  -13.6890   22.1670 H   0  0  0  0  0  0  0  0  0  0  0  0
  -26.3270  -15.7230   20.2170 N   0  0  0  0  0  0  0  0  0  0  0  0
  -25.5640  -16.3770   20.3470 H   0  0  0  0  0  0  0  0  0  0  0  0
  -27.1740  -16.1610   19.8780 H   0  0  0  0  0  0  0  0  0  0  0  0
  -30.5520  -24.0160   18.4480 C   0  0  0  0  0  1  0  0  0  0  0  0
  -29.6540  -24.0360   19.6840 C   0  0  0  0  0  3  0  0  0  0  0  0
  -28.6070  -25.3240   19.5650 C   0  0  0  0  0  2  0  0  0  0  0  0
  -28.9410  -26.8230   19.6070 O   0  0  0  0  0  0  0  0  0  0  0  0
  -25.3240  -31.6700   23.6940 C   0  0  0  0  0  0  0  0  0  0  0  0
  -27.8820  -27.7730   19.7280 C   0  0  0  0  0  0  0  0  0  0  0  0
  -24.1060  -30.6610   21.8010 C   0  0  0  0  0  3  0  0  0  0  0  0
  -25.5460  -29.4490   20.0570 C   0  0  0  0  0  0  0  0  0  0  0  0
  -26.6550  -30.9790   21.6770 C   0  0  0  0  0  2  0  0  0  0  0  0
  -26.7260  -29.7660   20.7440 C   0  0  0  0  0  0  0  0  0  0  0  0
  -27.8950  -28.9500   20.5670 C   0  0  0  0  0  3  0  0  0  0  0  0
  -26.6810  -27.5560   19.0120 C   0  0  0  0  0  3  0  0  0  0  0  0
  -25.5350  -28.3590   19.1770 C   0  0  0  0  0  3  0  0  0  0  0  0
  -24.3150  -30.3050   20.3030 C   0  0  0  0  0  2  0  0  0  0  0  0
  -25.3820  -31.1140   22.4480 N   0  0  0  0  0  0  0  0  0  0  0  0
  -24.2460  -31.8230   24.2870 O   0  0  0  0  0  0  0  0  0  0  0  0
  -23.4510  -29.4590   22.5240 C   0  0  0  0  0  0  0  0  0  0  0  0
  -22.1450  -29.2470   22.2880 N   0  0  0  0  0  0  0  0  0  0  0  0
  -24.1170  -28.7300   23.2620 O   0  0  0  0  0  0  0  0  0  0  0  0
  -21.6640  -29.8930   21.6780 H   0  0  0  0  0  0  0  0  0  0  0  0
  -18.8250  -27.8070   22.3410 C   0  0  0  0  0  0  0  0  0  0  0  0
  -21.3400  -28.1510   22.8290 C   0  0  0  0  0  3  0  0  0  0  0  0
  -21.5670  -26.8480   22.0270 C   0  0  0  0  0  2  0  0  0  0  0  0
  -20.5510  -26.6490   20.8980 C   0  0  0  0  0  2  0  0  0  0  0  0
  -19.1280  -26.6080   21.4590 C   0  0  0  0  0  2  0  0  0  0  0  0
  -19.8630  -28.5430   22.9700 C   0  0  0  0  0  0  0  0  0  0  0  0
  -19.5290  -29.6700   23.7520 C   0  0  0  0  0  3  0  0  0  0  0  0
  -18.1870  -30.0600   23.9150 C   0  0  0  0  0  3  0  0  0  0  0  0
  -17.1600  -29.3210   23.3020 C   0  0  0  0  0  3  0  0  0  0  0  0
  -17.4800  -28.1970   22.5190 C   0  0  0  0  0  3  0  0  0  0  0  0
  -26.6110  -32.1580   24.4280 C   0  0  0  0  0  3  0  0  0  0  0  0
  -26.3720  -33.5400   24.8730 N   0  0  0  0  0  0  0  0  0  0  0  0
  -26.7950  -34.6340   24.2250 C   0  0  0  0  0  0  0  0  0  0  0  0
  -27.4990  -34.5790   23.2140 O   0  0  0  0  0  0  0  0  0  0  0  0
  -25.7610  -33.6530   25.6680 H   0  0  0  0  0  0  0  0  0  0  0  0
  -25.2100  -36.5720   23.9670 C   0  0  0  0  0  1  0  0  0  0  0  0
  -26.3760  -36.0060   24.7920 C   0  0  0  0  0  3  0  0  0  0  0  0
  -28.5120  -36.6640   25.8140 C   0  0  0  0  0  1  0  0  0  0  0  0
  -27.4800  -36.9920   24.8320 N   0  0  0  0  0  0  0  0  0  0  0  0
  -27.1270  -37.9210   25.0400 H   0  0  0  0  0  0  0  0  0  0  0  0
  -27.0060  -31.2480   25.6590 C   0  0  1  0  0  0  0  0  0  0  0  0
  -25.8390  -30.9820   26.6400 C   0  0  0  0  0  1  0  0  0  0  0  0
  -27.5370  -29.8770   25.1800 C   0  0  0  0  0  1  0  0  0  0  0  0
  -28.1560  -31.9110   26.4520 C   0  0  0  0  0  1  0  0  0  0  0  0
  2  4  1  0
  3  5  2  0
  4  7  1  0
  4  1  2  0
  5  1  1  0
  5  8  1  0
  6  2  2  0
  6  3  1  0
  9 22  1  0
 10 15  1  0
 11 12  1  0
 11 10  1  0
 13 12  1  0
 13 26  1  0
 13 14  1  0
 15  9  1  0
 15 14  1  0
 16  9  2  0
 18 20  1  0
 18 21  1  0
 19 17  1  0
 20 22  1  0
 21  3  1  0
 21 17  1  0
 22 19  1  0
 23 24  2  0
 24 43  1  0
 25 24  1  0
 25 28  1  0
 26 27  1  0
 26 23  1  0
 27 25  2  0
 28 29  1  0
 29 30  2  0
 31 34  1  0
 31 30  1  0
 32 31  2  0
 33 32  1  0
 33 28  2  0
 34 35  1  0
 35 40  2  0
 35 36  1  0
 36 37  2  0
 37 38  1  0
 38 42  1  0
 39 38  2  0
 40 39  1  0
 41 40  1  0
 43 44  1  0
 44 47  1  0
 44 46  1  0
 45 43  2  0
 48 49  1  0
 48 23  1  0
 50 48  1  0
 52 51  1  0
 52  6  1  0
 53 54  1  0
 53 52  1  0
 54 56  1  0
 55 66  2  0
 56 61  1  0
 57 65  1  0
 57 67  1  0
 58 64  1  0
 58 60  1  0
 59 65  1  0
 60 59  1  0
 61 60  2  0
 62 63  1  0
 62 56  2  0
 63 58  2  0
 64 57  1  0
 65 55  1  0
 67 69  2  0
 68 67  1  0
 70 68  1  0
 71 80  2  0
 71 76  1  0
 72 68  1  0
 72 76  1  0
 73 72  1  0
 74 75  1  0
 74 73  1  0
 75 71  1  0
 76 77  2  0
 77 78  1  0
 79 78  2  0
 80 79  1  0
 81 55  1  0
 81 82  1  0
 81 91  1  0
 82 85  1  0
 83 87  1  0
 83 82  1  0
 84 83  2  0
 87 86  1  0
 87 89  1  0
 89 90  1  0
 89 88  1  0
 91 94  1  1
 91 92  1  0
 93 91  1  0
M  ISO  4   9 100  22 100  53 101  54 101
M  END
>  <TORSDO>  (37) 
F 18

>  <SCORE>  (37) 
-9.529

>  <name>  (37) 
36

>  <ligand_id>  (37) 
36

>  <original_smiles>  (37) 
[H]c1c([H])c([H])c2c(c1[H])C([H])([H])C([H])([H])C([H])([H])C2([H])N([H])C(=O)C1([H])N(C(=O)C([H])(N([H])C(=O)C([H])(N([H])C([H])([H])[H])C([H])([H])[H])C(C([H])([H])[H])(C([H])([H])[H])C([H])([H])[H])C([H])([H])c2c([H])c(OC([H])([H])C([H])(c3c([H])c(C([H])([H])[H])c([H])c(C([H])([H])[H])c3C3([H])C([H])([H])C([H])([H])N(C(=O)N4C([H])([H])C([H])([H])C([H])([H])C([H])(n5nc(-c6c([H])c([H])c(Oc7c([H])c([H])c(F)c([H])c7F)c([H])c6[H])c(C(=O)N([H])[H])c5N([H])[H])C4([H])[H])C([H])([H])C3([H])[H])C([H])([H])[H])c([H])c([H])c2C1([H])[H]

>  <smiles>  (37) 
[H]c1c([H])c([H])c2c(c1[H])C([H])([H])C([H])([H])C([H])([H])C2([H])N([H])C(=O)C1([H])N(C(=O)C([H])(N([H])C(=O)C([H])(N([H])C([H])([H])[H])C([H])([H])[H])C(C([H])([H])[H])(C([H])([H])[H])C([H])([H])[H])C([H])([H])c2c([H])c(OC([H])([H])C([H])(c3c([H])c(C([H])([H])[H])c([H])c(C([H])([H])[H])c3C3([H])C([H])([H])C([H])([H])N(C(=O)N4C([H])([H])C([H])([H])C([H])([H])C([H])(n5nc(-c6c([H])c([H])c(Oc7c([H])c([H])c(F)c([H])c7F)c([H])c6[H])c(C(=O)N([H])[H])c5N([H])[H])C4([H])[H])C([H])([H])C3([H])[H])C([H])([H])[H])c([H])c([H])c2C1([H])[H]

$$$$
37:0:0
     RDKit          3D

 95104  0  0  1  0  0  0  0  0999 V2000
  -28.7640  -22.2290   19.3710 C   0  0  0  0  0  3  0  0  0  0  0  0
  -29.6630  -20.5680   21.4260 C   0  0  0  0  0  3  0  0  0  0  0  0
  -28.7980  -20.8270   19.1940 C   0  0  0  0  0  0  0  0  0  0  0  0
  -29.2390  -22.8310   20.5560 C   0  0  0  0  0  0  0  0  0  0  0  0
  -29.2830  -19.9540   20.2080 C   0  0  0  0  0  0  0  0  0  0  0  0
  -29.6890  -21.9820   21.6000 C   0  0  0  0  0  0  0  0  0  0  0  0
  -28.3360  -20.2620   17.8570 C   0  0  0  0  0  1  0  0  0  0  0  0
  -30.6470  -17.8420   20.2540 C   0  0  0  0  0  2  0  0  0  0  0  0
  -28.6520  -17.5610   20.6570 C   0  0  0  0  0  2  0  0  0  0  0  0
  -29.7250  -16.6220   20.0750 C   0  0  0  0  0  3  0  0  0  0  0  0
  -29.4140  -18.5620   19.9130 N   0  0  0  0  0  0  0  0  0  0  0  0
  -30.7070  -14.4050   20.3090 C   0  0  0  0  0  0  0  0  0  0  0  0
  -30.3490  -12.2720   19.1210 C   0  0  0  0  0  2  0  0  0  0  0  0
  -29.3790  -12.5480   17.9510 C   0  0  0  0  0  2  0  0  0  0  0  0
  -27.9150  -12.4350   18.4130 C   0  0  0  0  0  2  0  0  0  0  0  0
  -27.6340  -13.2320   19.7110 C   0  0  0  0  0  3  0  0  0  0  0  0
  -28.7110  -12.9440   20.7860 C   0  0  0  0  0  2  0  0  0  0  0  0
  -30.0350  -13.2240   20.2010 N   0  0  0  0  0  0  0  0  0  0  0  0
  -31.7920  -14.6200   19.7670 O   0  0  0  0  0  0  0  0  0  0  0  0
  -29.9890  -15.4030   20.8490 N   0  0  0  0  0  0  0  0  0  0  0  0
  -29.2020  -15.0830   21.3940 H   0  0  0  0  0  0  0  0  0  0  0  0
  -25.2510  -13.8740   20.4380 C   0  0  0  0  0  0  0  0  0  0  0  0
  -24.1770  -13.1180   20.8250 C   0  0  0  0  0  0  0  0  0  0  0  0
  -24.6180  -11.7600   20.7910 C   0  0  0  0  0  0  0  0  0  0  0  0
  -26.2810  -12.9790   20.2010 N   0  0  0  0  0  0  0  0  0  0  0  0
  -25.9050  -11.7020   20.4670 N   0  0  0  0  0  0  0  0  0  0  0  0
  -23.8780  -10.5070   20.9900 C   0  0  0  0  0  0  0  0  0  0  0  0
  -24.3110   -9.5360   21.9190 C   0  0  0  0  0  3  0  0  0  0  0  0
  -23.5700   -8.3500   22.1100 C   0  0  0  0  0  3  0  0  0  0  0  0
  -22.3840   -8.1240   21.3710 C   0  0  0  0  0  0  0  0  0  0  0  0
  -21.9730   -9.0840   20.4290 C   0  0  0  0  0  3  0  0  0  0  0  0
  -22.7130  -10.2630   20.2360 C   0  0  0  0  0  3  0  0  0  0  0  0
  -21.6180   -6.9880   21.4680 O   0  0  0  0  0  0  0  0  0  0  0  0
  -21.5720   -6.2530   22.6260 C   0  0  0  0  0  0  0  0  0  0  0  0
  -21.1720   -6.8190   23.8560 C   0  0  0  0  0  3  0  0  0  0  0  0
  -21.0700   -6.0090   25.0040 C   0  0  0  0  0  3  0  0  0  0  0  0
  -21.3620   -4.6340   24.9270 C   0  0  0  0  0  0  0  0  0  0  0  0
  -21.7560   -4.0670   23.7020 C   0  0  0  0  0  3  0  0  0  0  0  0
  -21.8590   -4.8740   22.5550 C   0  0  0  0  0  0  0  0  0  0  0  0
  -22.2180   -4.3190   21.3740 F   0  0  0  0  0  0  0  0  0  0  0  0
  -21.2590   -3.8540   26.0280 F   0  0  0  0  0  0  0  0  0  0  0  0
  -22.7920  -13.6140   21.1160 C   0  0  0  0  0  0  0  0  0  0  0  0
  -22.0730  -12.9280   21.9990 N   0  0  0  0  0  0  0  0  0  0  0  0
  -22.3570  -14.6420   20.5990 O   0  0  0  0  0  0  0  0  0  0  0  0
  -22.4410  -12.0930   22.4340 H   0  0  0  0  0  0  0  0  0  0  0  0
  -21.1450  -13.2380   22.2430 H   0  0  0  0  0  0  0  0  0  0  0  0
  -25.4300  -15.2420   20.2470 N   0  0  0  0  0  0  0  0  0  0  0  0
  -24.6620  -15.8970   20.3440 H   0  0  0  0  0  0  0  0  0  0  0  0
  -26.2620  -15.6650   19.8620 H   0  0  0  0  0  0  0  0  0  0  0  0
  -30.7900  -24.7670   20.1880 C   0  0  0  0  0  1  0  0  0  0  0  0
  -29.3850  -24.3670   20.6760 C   0  0  0  0  0  3  0  0  0  0  0  0
  -28.2620  -25.2000   19.9840 C   0  0  0  0  0  2  0  0  0  0  0  0
  -28.3460  -26.6220   20.2450 O   0  0  0  0  0  0  0  0  0  0  0  0
  -24.5570  -31.8740   23.2380 C   0  0  0  0  0  0  0  0  0  0  0  0
  -27.1800  -27.3740   20.1900 C   0  0  0  0  0  0  0  0  0  0  0  0
  -23.3400  -30.4640   21.6130 C   0  0  0  0  0  3  0  0  0  0  0  0
  -24.7860  -28.9080   20.1910 C   0  0  0  0  0  0  0  0  0  0  0  0
  -25.8710  -30.8000   21.4130 C   0  0  0  0  0  2  0  0  0  0  0  0
  -25.9480  -29.4250   20.7760 C   0  0  0  0  0  0  0  0  0  0  0  0
  -27.1460  -28.6680   20.7690 C   0  0  0  0  0  3  0  0  0  0  0  0
  -26.0010  -26.8900   19.5760 C   0  0  0  0  0  3  0  0  0  0  0  0
  -24.8120  -27.6410   19.5810 C   0  0  0  0  0  3  0  0  0  0  0  0
  -23.5450  -29.7730   20.2380 C   0  0  0  0  0  2  0  0  0  0  0  0
  -24.6080  -31.0620   22.1460 N   0  0  0  0  0  0  0  0  0  0  0  0
  -23.4770  -32.1610   23.7750 O   0  0  0  0  0  0  0  0  0  0  0  0
  -22.6810  -29.4570   22.5840 C   0  0  0  0  0  0  0  0  0  0  0  0
  -21.3560  -29.2830   22.4590 N   0  0  0  0  0  0  0  0  0  0  0  0
  -23.3610  -28.8370   23.4060 O   0  0  0  0  0  0  0  0  0  0  0  0
  -20.8690  -29.8360   21.7690 H   0  0  0  0  0  0  0  0  0  0  0  0
  -17.9730  -28.1180   22.9750 C   0  0  0  0  0  0  0  0  0  0  0  0
  -20.5340  -28.3560   23.2380 C   0  0  0  0  0  3  0  0  0  0  0  0
  -20.6230  -26.9210   22.6690 C   0  0  0  0  0  2  0  0  0  0  0  0
  -19.5150  -26.6020   21.6610 C   0  0  0  0  0  2  0  0  0  0  0  0
  -18.1370  -26.7620   22.3070 C   0  0  0  0  0  2  0  0  0  0  0  0
  -19.0990  -28.8730   23.3980 C   0  0  0  0  0  0  0  0  0  0  0  0
  -18.8930  -30.1430   23.9800 C   0  0  0  0  0  3  0  0  0  0  0  0
  -17.5930  -30.6570   24.1450 C   0  0  0  0  0  3  0  0  0  0  0  0
  -16.4810  -29.8980   23.7390 C   0  0  0  0  0  3  0  0  0  0  0  0
  -16.6720  -28.6300   23.1610 C   0  0  0  0  0  3  0  0  0  0  0  0
  -25.8480  -32.5030   23.8510 C   0  0  0  0  0  3  0  0  0  0  0  0
  -26.3750  -31.7280   25.1190 C   0  0  1  0  0  0  0  0  0  0  0  0
  -25.2930  -31.4840   26.1960 C   0  0  0  0  0  1  0  0  0  0  0  0
  -26.9550  -30.3520   24.7160 C   0  0  0  0  0  1  0  0  0  0  0  0
  -27.5290  -32.5220   25.7750 C   0  0  0  0  0  1  0  0  0  0  0  0
  -25.5420  -33.9010   24.1860 N   0  0  0  0  0  0  0  0  0  0  0  0
  -25.8690  -34.9560   23.4280 C   0  0  0  0  0  0  0  0  0  0  0  0
  -26.5310  -34.8550   22.3910 O   0  0  0  0  0  0  0  0  0  0  0  0
  -24.9540  -34.0530   24.9920 H   0  0  0  0  0  0  0  0  0  0  0  0
  -24.1390  -36.7490   23.0870 C   0  0  0  0  0  1  0  0  0  0  0  0
  -25.3840  -36.3420   23.8920 C   0  0  0  0  0  3  0  0  0  0  0  0
  -27.5240  -37.2220   24.7150 C   0  0  0  0  0  1  0  0  0  0  0  0
  -26.4160  -37.3960   23.7780 N   0  0  0  0  0  0  0  0  0  0  0  0
  -26.0090  -38.3160   23.9330 H   0  0  0  0  0  0  0  0  0  0  0  0
  -30.9220  -21.7910   23.6540 C   0  0  0  0  0  1  0  0  0  0  0  0
  -30.1850  -22.5870   22.7360 O   0  0  0  0  0  0  0  0  0  0  0  0
  1  4  1  0
  2  6  1  0
  3  1  2  0
  3  5  1  0
  4 51  1  0
  4  6  2  0
  5  2  2  0
  6 95  1  0
  7  3  1  0
 10  8  1  0
 10  9  1  0
 10 20  1  0
 11  5  1  0
 11  8  1  0
 11  9  1  0
 12 20  1  0
 13 18  1  0
 14 15  1  0
 14 13  1  0
 16 15  1  0
 16 25  1  0
 16 17  1  0
 18 12  1  0
 18 17  1  0
 19 12  2  0
 20 21  1  0
 22 23  2  0
 23 42  1  0
 24 23  1  0
 24 27  1  0
 25 22  1  0
 25 26  1  0
 26 24  2  0
 27 28  1  0
 28 29  2  0
 30 33  1  0
 30 29  1  0
 31 30  2  0
 32 31  1  0
 32 27  2  0
 33 34  1  0
 34 35  1  0
 35 36  2  0
 37 36  1  0
 37 41  1  0
 38 37  2  0
 39 34  2  0
 39 38  1  0
 40 39  1  0
 42 43  1  0
 43 46  1  0
 43 45  1  0
 44 42  2  0
 47 48  1  0
 47 22  1  0
 49 47  1  0
 51 50  1  0
 52 53  1  0
 52 51  1  0
 54 65  2  0
 55 53  1  0
 55 60  1  0
 56 64  1  0
 56 66  1  0
 57 63  1  0
 57 59  1  0
 58 64  1  0
 59 58  1  0
 60 59  2  0
 61 62  1  0
 61 55  2  0
 62 57  2  0
 63 56  1  0
 64 54  1  0
 66 68  2  0
 67 66  1  0
 69 67  1  0
 70 79  2  0
 70 75  1  0
 71 67  1  0
 71 75  1  0
 72 71  1  0
 73 74  1  0
 73 72  1  0
 74 70  1  0
 75 76  2  0
 76 77  1  0
 78 77  2  0
 79 78  1  0
 80 54  1  0
 80 85  1  0
 80 81  1  0
 81 84  1  1
 81 82  1  0
 83 81  1  0
 85 88  1  0
 86 90  1  0
 86 85  1  0
 87 86  2  0
 90 89  1  0
 92 90  1  0
 92 93  1  0
 92 91  1  0
 95 94  1  0
M  ISO  4  12 100  20 100  52 101  53 101
M  END
>  <TORSDO>  (38) 
F 20

>  <SCORE>  (38) 
-14.333

>  <name>  (38) 
37

>  <ligand_id>  (38) 
37

>  <original_smiles>  (38) 
[H]c1c([H])c([H])c2c(c1[H])C([H])([H])C([H])([H])C([H])([H])C2([H])N([H])C(=O)C1([H])N(C(=O)C([H])(N([H])C(=O)C([H])(N([H])C([H])([H])[H])C([H])([H])[H])C(C([H])([H])[H])(C([H])([H])[H])C([H])([H])[H])C([H])([H])c2c([H])c(OC([H])([H])C([H])(c3c([H])c(C([H])([H])[H])c(N4C([H])([H])C([H])(N([H])C(=O)N5C([H])([H])C([H])([H])C([H])([H])C([H])(n6nc(-c7c([H])c([H])c(Oc8c([H])c([H])c(F)c([H])c8F)c([H])c7[H])c(C(=O)N([H])[H])c6N([H])[H])C5([H])[H])C4([H])[H])c([H])c3OC([H])([H])[H])C([H])([H])[H])c([H])c([H])c2C1([H])[H]

>  <smiles>  (38) 
[H]c1c([H])c([H])c2c(c1[H])C([H])([H])C([H])([H])C([H])([H])C2([H])N([H])C(=O)C1([H])N(C(=O)C([H])(N([H])C(=O)C([H])(N([H])C([H])([H])[H])C([H])([H])[H])C(C([H])([H])[H])(C([H])([H])[H])C([H])([H])[H])C([H])([H])c2c([H])c(OC([H])([H])C([H])(c3c([H])c(C([H])([H])[H])c(N4C([H])([H])C([H])(N([H])C(=O)N5C([H])([H])C([H])([H])C([H])([H])C([H])(n6nc(-c7c([H])c([H])c(Oc8c([H])c([H])c(F)c([H])c8F)c([H])c7[H])c(C(=O)N([H])[H])c6N([H])[H])C5([H])[H])C4([H])[H])c([H])c3OC([H])([H])[H])C([H])([H])[H])c([H])c([H])c2C1([H])[H]

$$$$
38:0:0
     RDKit          3D

 96106  0  0  1  0  0  0  0  0999 V2000
  -32.8750  -19.4860   20.7360 C   0  0  0  0  0  3  0  0  0  0  0  0
  -31.8600  -18.7290   20.1370 C   0  0  0  0  0  0  0  0  0  0  0  0
  -30.4990  -18.8600   20.5230 C   0  0  0  0  0  0  0  0  0  0  0  0
  -32.5520  -20.4260   21.7180 C   0  0  0  0  0  0  0  0  0  0  0  0
  -31.1950  -20.7600   21.9220 C   0  0  0  0  0  0  0  0  0  0  0  0
  -30.1650  -20.2180   21.0890 C   0  0  0  0  0  0  0  0  0  0  0  0
  -32.2660  -17.8440   18.9660 C   0  0  0  0  0  2  0  0  0  0  0  0
  -31.1330  -17.5160   17.9600 C   0  0  0  0  0  2  0  0  0  0  0  0
  -29.6890  -17.5730   18.5120 C   0  0  0  0  0  2  0  0  0  0  0  0
  -29.6330  -17.5690   20.0450 C   0  0  0  0  0  3  0  0  0  0  0  0
  -33.6730  -21.1440   22.4550 C   0  0  0  0  0  1  0  0  0  0  0  0
  -30.8760  -21.6980   23.0770 C   0  0  0  0  0  1  0  0  0  0  0  0
  -30.5210  -14.8910   20.2320 C   0  0  0  0  0  0  0  0  0  0  0  0
  -30.3060  -12.6020   19.1930 C   0  0  0  0  0  2  0  0  0  0  0  0
  -29.3290  -12.6710   17.9960 C   0  0  0  0  0  2  0  0  0  0  0  0
  -27.8770  -12.4630   18.4680 C   0  0  0  0  0  2  0  0  0  0  0  0
  -27.5360  -13.3040   19.7260 C   0  0  0  0  0  3  0  0  0  0  0  0
  -28.6380  -13.2300   20.8070 C   0  0  0  0  0  2  0  0  0  0  0  0
  -29.9000  -13.6460   20.1790 N   0  0  0  0  0  0  0  0  0  0  0  0
  -31.6830  -14.9350   19.8350 O   0  0  0  0  0  0  0  0  0  0  0  0
  -29.7760  -16.0600   20.5370 N   0  0  0  0  0  0  0  0  0  0  0  0
  -28.9300  -15.7900   21.0140 H   0  0  0  0  0  0  0  0  0  0  0  0
  -25.1740  -13.8380   20.5570 C   0  0  0  0  0  0  0  0  0  0  0  0
  -24.1320  -13.0420   20.9450 C   0  0  0  0  0  0  0  0  0  0  0  0
  -24.6080  -11.6970   20.8650 C   0  0  0  0  0  0  0  0  0  0  0  0
  -26.2170  -12.9780   20.2600 N   0  0  0  0  0  0  0  0  0  0  0  0
  -25.8890  -11.6840   20.5120 N   0  0  0  0  0  0  0  0  0  0  0  0
  -23.9010  -10.4230   21.0480 C   0  0  0  0  0  0  0  0  0  0  0  0
  -24.3600   -9.4450   21.9580 C   0  0  0  0  0  3  0  0  0  0  0  0
  -23.6490   -8.2370   22.1310 C   0  0  0  0  0  3  0  0  0  0  0  0
  -22.4650   -7.9970   21.3950 C   0  0  0  0  0  0  0  0  0  0  0  0
  -22.0250   -8.9640   20.4730 C   0  0  0  0  0  3  0  0  0  0  0  0
  -22.7350  -10.1630   20.2990 C   0  0  0  0  0  3  0  0  0  0  0  0
  -21.7230   -6.8440   21.4790 O   0  0  0  0  0  0  0  0  0  0  0  0
  -21.6890   -6.0920   22.6260 C   0  0  0  0  0  0  0  0  0  0  0  0
  -21.2400   -6.6250   23.8540 C   0  0  0  0  0  3  0  0  0  0  0  0
  -21.1550   -5.7980   24.9920 C   0  0  0  0  0  3  0  0  0  0  0  0
  -21.5090   -4.4390   24.9020 C   0  0  0  0  0  0  0  0  0  0  0  0
  -21.9480   -3.9030   23.6780 C   0  0  0  0  0  3  0  0  0  0  0  0
  -22.0350   -4.7280   22.5430 C   0  0  0  0  0  0  0  0  0  0  0  0
  -22.4400   -4.2030   21.3620 F   0  0  0  0  0  0  0  0  0  0  0  0
  -21.4200   -3.6410   25.9920 F   0  0  0  0  0  0  0  0  0  0  0  0
  -22.7400  -13.4970   21.2750 C   0  0  0  0  0  0  0  0  0  0  0  0
  -22.0490  -12.7750   22.1490 N   0  0  0  0  0  0  0  0  0  0  0  0
  -22.2740  -14.5270   20.7900 O   0  0  0  0  0  0  0  0  0  0  0  0
  -22.4420  -11.9440   22.5680 H   0  0  0  0  0  0  0  0  0  0  0  0
  -21.1130  -13.0570   22.4070 H   0  0  0  0  0  0  0  0  0  0  0  0
  -25.3200  -15.2130   20.4040 N   0  0  0  0  0  0  0  0  0  0  0  0
  -24.5490  -15.8570   20.5470 H   0  0  0  0  0  0  0  0  0  0  0  0
  -26.1410  -15.6570   20.0180 H   0  0  0  0  0  0  0  0  0  0  0  0
  -29.0500  -21.1200   20.8430 O   0  0  0  0  0  0  0  0  0  0  0  0
  -28.4790  -23.5620   19.6280 C   0  0  0  0  0  2  0  0  0  0  0  0
  -28.7450  -23.7700   21.7020 C   0  0  0  0  0  2  0  0  0  0  0  0
  -28.0060  -24.6860   20.6490 C   0  0  0  0  0  3  0  0  0  0  0  0
  -29.2500  -22.6560   20.6820 C   0  0  0  0  0  3  0  0  0  0  0  0
  -28.2970  -26.2000   20.5390 O   0  0  0  0  0  0  0  0  0  0  0  0
  -24.6460  -31.9390   23.3000 C   0  0  0  0  0  0  0  0  0  0  0  0
  -27.2370  -27.1600   20.4390 C   0  0  0  0  0  0  0  0  0  0  0  0
  -23.4590  -30.5100   21.6780 C   0  0  0  0  0  3  0  0  0  0  0  0
  -24.9170  -28.8890   20.3200 C   0  0  0  0  0  0  0  0  0  0  0  0
  -26.0140  -30.7610   21.5460 C   0  0  0  0  0  2  0  0  0  0  0  0
  -26.0880  -29.3550   20.9330 C   0  0  0  0  0  0  0  0  0  0  0  0
  -27.2510  -28.5050   20.9730 C   0  0  0  0  0  3  0  0  0  0  0  0
  -26.0460  -26.7880   19.7780 C   0  0  0  0  0  3  0  0  0  0  0  0
  -24.9080  -27.6170   19.7260 C   0  0  0  0  0  3  0  0  0  0  0  0
  -23.6950  -29.7930   20.3220 C   0  0  0  0  0  2  0  0  0  0  0  0
  -24.7250  -31.0920   22.2290 N   0  0  0  0  0  0  0  0  0  0  0  0
  -23.5540  -32.2470   23.8030 O   0  0  0  0  0  0  0  0  0  0  0  0
  -22.7570  -29.5330   22.6550 C   0  0  0  0  0  0  0  0  0  0  0  0
  -21.4310  -29.3690   22.5080 N   0  0  0  0  0  0  0  0  0  0  0  0
  -23.4100  -28.9260   23.5080 O   0  0  0  0  0  0  0  0  0  0  0  0
  -20.9640  -29.9140   21.7950 H   0  0  0  0  0  0  0  0  0  0  0  0
  -18.0250  -28.2360   22.9930 C   0  0  0  0  0  0  0  0  0  0  0  0
  -20.5850  -28.4630   23.2880 C   0  0  0  0  0  3  0  0  0  0  0  0
  -20.6690  -27.0180   22.7440 C   0  0  0  0  0  2  0  0  0  0  0  0
  -19.5750  -26.6910   21.7230 C   0  0  0  0  0  2  0  0  0  0  0  0
  -18.1880  -26.8700   22.3470 C   0  0  0  0  0  2  0  0  0  0  0  0
  -19.1510  -28.9910   23.4200 C   0  0  0  0  0  0  0  0  0  0  0  0
  -18.9440  -30.2680   23.9850 C   0  0  0  0  0  3  0  0  0  0  0  0
  -17.6440  -30.7900   24.1260 C   0  0  0  0  0  3  0  0  0  0  0  0
  -16.5330  -30.0330   23.7150 C   0  0  0  0  0  3  0  0  0  0  0  0
  -16.7250  -28.7580   23.1550 C   0  0  0  0  0  3  0  0  0  0  0  0
  -25.9210  -32.5770   23.9320 C   0  0  0  0  0  3  0  0  0  0  0  0
  -25.6110  -33.9810   24.2460 N   0  0  0  0  0  0  0  0  0  0  0  0
  -25.9350  -35.0270   23.4750 C   0  0  0  0  0  0  0  0  0  0  0  0
  -26.5950  -34.9120   22.4390 O   0  0  0  0  0  0  0  0  0  0  0  0
  -25.0250  -34.1430   25.0520 H   0  0  0  0  0  0  0  0  0  0  0  0
  -24.1940  -36.8090   23.1310 C   0  0  0  0  0  1  0  0  0  0  0  0
  -25.4530  -36.4200   23.9220 C   0  0  0  0  0  3  0  0  0  0  0  0
  -27.5970  -37.3300   24.7020 C   0  0  0  0  0  1  0  0  0  0  0  0
  -26.4800  -37.4750   23.7730 N   0  0  0  0  0  0  0  0  0  0  0  0
  -26.0720  -38.3960   23.9070 H   0  0  0  0  0  0  0  0  0  0  0  0
  -26.4160  -31.8210   25.2260 C   0  0  1  0  0  0  0  0  0  0  0  0
  -25.3080  -31.5970   26.2800 C   0  0  0  0  0  1  0  0  0  0  0  0
  -27.0040  -30.4370   24.8620 C   0  0  0  0  0  1  0  0  0  0  0  0
  -27.5590  -32.6210   25.8940 C   0  0  0  0  0  1  0  0  0  0  0  0
  1  4  1  0
  2  3  1  0
  2  1  2  0
  3  6  2  0
  4  5  2  0
  4 11  1  0
  5 12  1  0
  6  5  1  0
  7  2  1  0
  8  9  1  0
  8  7  1  0
  9 10  1  0
 10  3  1  0
 10 21  1  0
 13 21  1  0
 14 19  1  0
 15 16  1  0
 15 14  1  0
 17 16  1  0
 17 26  1  0
 17 18  1  0
 19 13  1  0
 19 18  1  0
 20 13  2  0
 21 22  1  0
 23 24  2  0
 24 43  1  0
 25 24  1  0
 25 28  1  0
 26 27  1  0
 26 23  1  0
 27 25  2  0
 28 29  1  0
 29 30  2  0
 31 34  1  0
 31 30  1  0
 32 31  2  0
 33 32  1  0
 33 28  2  0
 34 35  1  0
 35 36  1  0
 36 37  2  0
 38 37  1  0
 38 42  1  0
 39 38  2  0
 40 35  2  0
 40 39  1  0
 41 40  1  0
 43 44  1  0
 44 47  1  0
 44 46  1  0
 45 43  2  0
 48 49  1  0
 48 23  1  0
 50 48  1  0
 51  6  1  0
 52 54  1  0
 52 55  1  0
 54 56  1  0
 54 53  1  0
 55 51  1  0
 55 53  1  0
 57 68  2  0
 58 56  1  0
 58 63  1  0
 59 67  1  0
 59 69  1  0
 60 66  1  0
 60 62  1  0
 61 67  1  0
 62 63  2  0
 62 61  1  0
 64 58  2  0
 65 64  1  0
 65 60  2  0
 66 59  1  0
 67 57  1  0
 69 71  2  0
 70 69  1  0
 72 70  1  0
 73 82  2  0
 73 78  1  0
 74 70  1  0
 74 78  1  0
 75 74  1  0
 76 77  1  0
 76 75  1  0
 77 73  1  0
 78 79  2  0
 79 80  1  0
 81 80  2  0
 82 81  1  0
 83 57  1  0
 83 84  1  0
 83 93  1  0
 84 87  1  0
 85 89  1  0
 85 84  1  0
 86 85  2  0
 89 88  1  0
 91 92  1  0
 91 89  1  0
 91 90  1  0
 93 96  1  1
 93 94  1  0
 95 93  1  0
M  ISO  4  13 100  21 100  54 101  56 101
M  END
>  <TORSDO>  (39) 
F 18

>  <SCORE>  (39) 
-15.082

>  <name>  (39) 
38

>  <ligand_id>  (39) 
38

>  <original_smiles>  (39) 
[H]c1c([H])c([H])c2c(c1[H])C([H])([H])C([H])([H])C([H])([H])C2([H])N([H])C(=O)C1([H])N(C(=O)C([H])(N([H])C(=O)C([H])(N([H])C([H])([H])[H])C([H])([H])[H])C(C([H])([H])[H])(C([H])([H])[H])C([H])([H])[H])C([H])([H])c2c([H])c(OC3([H])C([H])([H])C([H])(Oc4c(C([H])([H])[H])c(C([H])([H])[H])c([H])c5c4C([H])(N([H])C(=O)N4C([H])([H])C([H])([H])C([H])([H])C([H])(n6nc(-c7c([H])c([H])c(Oc8c([H])c([H])c(F)c([H])c8F)c([H])c7[H])c(C(=O)N([H])[H])c6N([H])[H])C4([H])[H])C([H])([H])C([H])([H])C5([H])[H])C3([H])[H])c([H])c([H])c2C1([H])[H]

>  <smiles>  (39) 
[H]c1c([H])c([H])c2c(c1[H])C([H])([H])C([H])([H])C([H])([H])C2([H])N([H])C(=O)C1([H])N(C(=O)C([H])(N([H])C(=O)C([H])(N([H])C([H])([H])[H])C([H])([H])[H])C(C([H])([H])[H])(C([H])([H])[H])C([H])([H])[H])C([H])([H])c2c([H])c(OC3([H])C([H])([H])C([H])(Oc4c(C([H])([H])[H])c(C([H])([H])[H])c([H])c5c4C([H])(N([H])C(=O)N4C([H])([H])C([H])([H])C([H])([H])C([H])(n6nc(-c7c([H])c([H])c(Oc8c([H])c([H])c(F)c([H])c8F)c([H])c7[H])c(C(=O)N([H])[H])c6N([H])[H])C4([H])[H])C([H])([H])C([H])([H])C5([H])[H])C3([H])[H])c([H])c([H])c2C1([H])[H]

$$$$
39:0:0
     RDKit          3D

 94103  0  0  1  0  0  0  0  0999 V2000
  -30.7590  -14.6800   20.4430 C   0  0  0  0  0  0  0  0  0  0  0  0
  -30.5360  -12.3870   19.5170 C   0  0  0  0  0  2  0  0  0  0  0  0
  -29.6660  -12.3490   18.2450 C   0  0  0  0  0  2  0  0  0  0  0  0
  -28.1690  -12.2350   18.5930 C   0  0  0  0  0  2  0  0  0  0  0  0
  -27.7300  -13.1770   19.7490 C   0  0  0  0  0  3  0  0  0  0  0  0
  -28.7320  -13.1870   20.9230 C   0  0  0  0  0  2  0  0  0  0  0  0
  -30.0550  -13.5030   20.3670 N   0  0  0  0  0  0  0  0  0  0  0  0
  -31.9650  -14.6750   20.1790 O   0  0  0  0  0  0  0  0  0  0  0  0
  -30.1200  -20.3720   20.6620 C   0  0  0  0  0  3  0  0  0  0  0  0
  -27.7450  -20.3470   20.2280 C   0  0  0  0  0  3  0  0  0  0  0  0
  -30.1460  -18.9420   20.5830 C   0  0  0  0  0  0  0  0  0  0  0  0
  -28.9840  -18.1990   20.2660 C   0  0  0  0  0  0  0  0  0  0  0  0
  -28.9120  -21.1130   20.4800 C   0  0  0  0  0  0  0  0  0  0  0  0
  -27.7680  -18.9220   20.1380 C   0  0  0  0  0  0  0  0  0  0  0  0
  -31.3720  -18.1220   20.9610 C   0  0  0  0  0  2  0  0  0  0  0  0
  -30.9340  -16.8090   21.6700 C   0  0  0  0  0  2  0  0  0  0  0  0
  -29.0540  -16.6340   20.0690 C   0  0  0  0  0  3  0  0  0  0  0  0
  -30.1590  -15.8890   20.7950 N   0  0  0  0  0  0  0  0  0  0  0  0
  -25.3100  -13.8110   20.3030 C   0  0  0  0  0  0  0  0  0  0  0  0
  -24.2210  -13.0600   20.6470 C   0  0  0  0  0  0  0  0  0  0  0  0
  -24.6810  -11.7090   20.7050 C   0  0  0  0  0  0  0  0  0  0  0  0
  -26.3630  -12.9200   20.1790 N   0  0  0  0  0  0  0  0  0  0  0  0
  -25.9900  -11.6540   20.4840 N   0  0  0  0  0  0  0  0  0  0  0  0
  -23.9390  -10.4630   20.9100 C   0  0  0  0  0  0  0  0  0  0  0  0
  -24.3350   -9.5220   21.8850 C   0  0  0  0  0  3  0  0  0  0  0  0
  -23.5950   -8.3340   22.0730 C   0  0  0  0  0  3  0  0  0  0  0  0
  -22.4440   -8.0830   21.2870 C   0  0  0  0  0  0  0  0  0  0  0  0
  -22.0700   -9.0120   20.3010 C   0  0  0  0  0  3  0  0  0  0  0  0
  -22.8110  -10.1910   20.1120 C   0  0  0  0  0  3  0  0  0  0  0  0
  -21.6840   -6.9420   21.3790 O   0  0  0  0  0  0  0  0  0  0  0  0
  -21.6160   -6.2210   22.5420 C   0  0  0  0  0  0  0  0  0  0  0  0
  -21.2060   -6.8090   23.7580 C   0  0  0  0  0  3  0  0  0  0  0  0
  -21.0750   -6.0170   24.9160 C   0  0  0  0  0  3  0  0  0  0  0  0
  -21.3510   -4.6360   24.8580 C   0  0  0  0  0  0  0  0  0  0  0  0
  -21.7600   -4.0490   23.6460 C   0  0  0  0  0  3  0  0  0  0  0  0
  -21.8890   -4.8400   22.4910 C   0  0  0  0  0  0  0  0  0  0  0  0
  -22.2580   -4.2660   21.3200 F   0  0  0  0  0  0  0  0  0  0  0  0
  -21.2220   -3.8700   25.9660 F   0  0  0  0  0  0  0  0  0  0  0  0
  -22.8160  -13.5590   20.8040 C   0  0  0  0  0  0  0  0  0  0  0  0
  -22.0350  -12.9170   21.6650 N   0  0  0  0  0  0  0  0  0  0  0  0
  -22.4180  -14.5560   20.2060 O   0  0  0  0  0  0  0  0  0  0  0  0
  -22.3800  -12.1230   22.1840 H   0  0  0  0  0  0  0  0  0  0  0  0
  -21.0830  -13.2270   21.8040 H   0  0  0  0  0  0  0  0  0  0  0  0
  -25.4780  -15.1650   20.0570 N   0  0  0  0  0  0  0  0  0  0  0  0
  -24.6950  -15.8060   20.1000 H   0  0  0  0  0  0  0  0  0  0  0  0
  -26.3230  -15.6000   19.7210 H   0  0  0  0  0  0  0  0  0  0  0  0
  -29.9700  -17.1170   17.6440 C   0  0  0  0  0  1  0  0  0  0  0  0
  -28.9900  -16.3290   18.5340 C   0  0  0  0  0  2  0  0  0  0  0  0
  -25.5760  -18.5700   20.9100 C   0  0  0  0  0  1  0  0  0  0  0  0
  -26.6040  -18.2080   19.9940 O   0  0  0  0  0  0  0  0  0  0  0  0
  -28.7990  -22.6410   20.8320 C   0  0  0  0  0  2  0  0  0  0  0  0
  -28.5540  -23.7860   19.7540 C   0  0  0  0  0  2  0  0  0  0  0  0
  -28.5130  -25.2620   20.3700 C   0  0  0  0  0  2  0  0  0  0  0  0
  -28.3500  -26.4720   19.5510 O   0  0  0  0  0  0  0  0  0  0  0  0
  -24.5540  -31.6200   22.9610 C   0  0  0  0  0  0  0  0  0  0  0  0
  -27.1890  -27.2350   19.6770 C   0  0  0  0  0  0  0  0  0  0  0  0
  -23.3420  -30.2490   21.3040 C   0  0  0  0  0  3  0  0  0  0  0  0
  -24.7850  -28.7590   19.8070 C   0  0  0  0  0  0  0  0  0  0  0  0
  -25.8540  -30.6400   21.0410 C   0  0  0  0  0  2  0  0  0  0  0  0
  -25.9570  -29.2710   20.3750 C   0  0  0  0  0  0  0  0  0  0  0  0
  -27.1660  -28.5180   20.2990 C   0  0  0  0  0  3  0  0  0  0  0  0
  -25.9950  -26.7570   19.1000 C   0  0  0  0  0  3  0  0  0  0  0  0
  -24.8030  -27.5060   19.1640 C   0  0  0  0  0  3  0  0  0  0  0  0
  -23.5340  -29.6050   19.9040 C   0  0  0  0  0  2  0  0  0  0  0  0
  -24.6100  -30.8500   21.8310 N   0  0  0  0  0  0  0  0  0  0  0  0
  -23.4790  -31.8490   23.5310 O   0  0  0  0  0  0  0  0  0  0  0  0
  -22.7160  -29.1960   22.2500 C   0  0  0  0  0  0  0  0  0  0  0  0
  -21.3860  -29.0280   22.1720 N   0  0  0  0  0  0  0  0  0  0  0  0
  -23.4290  -28.5320   23.0110 O   0  0  0  0  0  0  0  0  0  0  0  0
  -20.8680  -29.6040   21.5200 H   0  0  0  0  0  0  0  0  0  0  0  0
  -18.0330  -27.8080   22.7690 C   0  0  0  0  0  0  0  0  0  0  0  0
  -20.6030  -28.0520   22.9310 C   0  0  0  0  0  3  0  0  0  0  0  0
  -20.6770  -26.6520   22.2790 C   0  0  0  0  0  2  0  0  0  0  0  0
  -19.5270  -26.3810   21.3010 C   0  0  0  0  0  2  0  0  0  0  0  0
  -18.1780  -26.4950   22.0170 C   0  0  0  0  0  2  0  0  0  0  0  0
  -19.1730  -28.5450   23.1890 C   0  0  0  0  0  0  0  0  0  0  0  0
  -18.9860  -29.7730   23.8610 C   0  0  0  0  0  3  0  0  0  0  0  0
  -17.6900  -30.2690   24.1090 C   0  0  0  0  0  3  0  0  0  0  0  0
  -16.5670  -29.5290   23.7040 C   0  0  0  0  0  3  0  0  0  0  0  0
  -16.7380  -28.2990   23.0440 C   0  0  0  0  0  3  0  0  0  0  0  0
  -25.8350  -32.2630   23.5740 C   0  0  0  0  0  3  0  0  0  0  0  0
  -26.4320  -31.4230   24.7690 C   0  0  1  0  0  0  0  0  0  0  0  0
  -25.4040  -31.0630   25.8660 C   0  0  0  0  0  1  0  0  0  0  0  0
  -27.0170  -30.0970   24.2360 C   0  0  0  0  0  1  0  0  0  0  0  0
  -27.5880  -32.2020   25.4370 C   0  0  0  0  0  1  0  0  0  0  0  0
  -25.4870  -33.6220   24.0170 N   0  0  0  0  0  0  0  0  0  0  0  0
  -25.7600  -34.7390   23.3290 C   0  0  0  0  0  0  0  0  0  0  0  0
  -26.4000  -34.7310   22.2750 O   0  0  0  0  0  0  0  0  0  0  0  0
  -24.9130  -33.6980   24.8450 H   0  0  0  0  0  0  0  0  0  0  0  0
  -23.9810  -36.5090   23.1470 C   0  0  0  0  0  1  0  0  0  0  0  0
  -25.2490  -36.0760   23.9000 C   0  0  0  0  0  3  0  0  0  0  0  0
  -27.3790  -36.9650   24.7400 C   0  0  0  0  0  1  0  0  0  0  0  0
  -26.2480  -37.1650   23.8390 N   0  0  0  0  0  0  0  0  0  0  0  0
  -25.8190  -38.0600   24.0570 H   0  0  0  0  0  0  0  0  0  0  0  0
  1 18  1  0
  2  7  1  0
  3  4  1  0
  3  2  1  0
  5  4  1  0
  5 22  1  0
  5  6  1  0
  7  1  1  0
  7  6  1  0
  8  1  2  0
 10 13  1  0
 11  9  1  0
 11 15  1  0
 12 11  2  0
 13  9  2  0
 13 51  1  0
 14 10  2  0
 14 12  1  0
 15 16  1  0
 17 48  1  0
 17 12  1  0
 17 18  1  0
 18 16  1  0
 19 20  2  0
 20 21  1  0
 20 39  1  0
 21 24  1  0
 22 19  1  0
 22 23  1  0
 23 21  2  0
 24 25  1  0
 25 26  2  0
 27 30  1  0
 27 26  1  0
 28 27  2  0
 29 28  1  0
 29 24  2  0
 30 31  1  0
 31 32  1  0
 32 33  2  0
 34 33  1  0
 34 38  1  0
 35 34  2  0
 36 31  2  0
 36 35  1  0
 37 36  1  0
 39 40  1  0
 40 43  1  0
 40 42  1  0
 41 39  2  0
 44 45  1  0
 44 19  1  0
 46 44  1  0
 47 48  1  0
 50 14  1  0
 50 49  1  0
 52 53  1  0
 52 51  1  0
 54 56  1  0
 54 53  1  0
 55 66  2  0
 56 61  1  0
 57 65  1  0
 57 67  1  0
 58 64  1  0
 58 60  1  0
 59 65  1  0
 60 59  1  0
 61 60  2  0
 62 63  1  0
 62 56  2  0
 63 58  2  0
 64 57  1  0
 65 55  1  0
 67 69  2  0
 68 67  1  0
 70 68  1  0
 71 80  2  0
 71 76  1  0
 72 68  1  0
 72 76  1  0
 73 72  1  0
 74 75  1  0
 74 73  1  0
 75 71  1  0
 76 77  2  0
 77 78  1  0
 79 78  2  0
 80 79  1  0
 81 55  1  0
 81 86  1  0
 81 82  1  0
 82 85  1  1
 82 83  1  0
 84 82  1  0
 86 89  1  0
 87 91  1  0
 87 86  1  0
 88 87  2  0
 91 90  1  0
 93 91  1  0
 93 94  1  0
 93 92  1  0
M  ISO  4   1 100  18 100  53 101  54 101
M  END
>  <TORSDO>  (40) 
F 20

>  <SCORE>  (40) 
-9.817

>  <name>  (40) 
39

>  <ligand_id>  (40) 
39

>  <original_smiles>  (40) 
[H]c1c([H])c([H])c2c(c1[H])C([H])([H])C([H])([H])C([H])([H])C2([H])N([H])C(=O)C1([H])N(C(=O)C([H])(N([H])C(=O)C([H])(N([H])C([H])([H])[H])C([H])([H])[H])C(C([H])([H])[H])(C([H])([H])[H])C([H])([H])[H])C([H])([H])c2c([H])c(OC([H])([H])C([H])([H])C([H])([H])c3c([H])c(OC([H])([H])[H])c4c(c3[H])C([H])([H])C([H])([H])N(C(=O)N3C([H])([H])C([H])([H])C([H])([H])C([H])(n5nc(-c6c([H])c([H])c(Oc7c([H])c([H])c(F)c([H])c7F)c([H])c6[H])c(C(=O)N([H])[H])c5N([H])[H])C3([H])[H])C4([H])C([H])([H])C([H])([H])[H])c([H])c([H])c2C1([H])[H]

>  <smiles>  (40) 
[H]c1c([H])c([H])c2c(c1[H])C([H])([H])C([H])([H])C([H])([H])C2([H])N([H])C(=O)C1([H])N(C(=O)C([H])(N([H])C(=O)C([H])(N([H])C([H])([H])[H])C([H])([H])[H])C(C([H])([H])[H])(C([H])([H])[H])C([H])([H])[H])C([H])([H])c2c([H])c(OC([H])([H])C([H])([H])C([H])([H])c3c([H])c(OC([H])([H])[H])c4c(c3[H])C([H])([H])C([H])([H])N(C(=O)N3C([H])([H])C([H])([H])C([H])([H])C([H])(n5nc(-c6c([H])c([H])c(Oc7c([H])c([H])c(F)c([H])c7F)c([H])c6[H])c(C(=O)N([H])[H])c5N([H])[H])C3([H])[H])C4([H])C([H])([H])C([H])([H])[H])c([H])c([H])c2C1([H])[H]

$$$$
40:0:0
     RDKit          3D

 95104  0  0  1  0  0  0  0  0999 V2000
  -27.9840  -22.2170   18.4080 C   0  0  0  0  0  2  0  0  0  0  0  0
  -27.5660  -23.5980   18.9370 C   0  0  0  0  0  2  0  0  0  0  0  0
  -29.4390  -21.9860   18.8530 C   0  0  0  0  0  3  0  0  0  0  0  0
  -28.8500  -24.3310   19.3630 C   0  0  0  0  0  3  0  0  0  0  0  0
  -29.8090  -23.1820   19.7720 C   0  0  0  0  0  3  0  0  0  0  0  0
  -31.2920  -23.5800   19.6660 C   0  0  0  0  0  1  0  0  0  0  0  0
  -29.5710  -18.7530   21.0660 C   0  0  0  0  0  3  0  0  0  0  0  0
  -31.1960  -18.5350   19.2950 C   0  0  0  0  0  3  0  0  0  0  0  0
  -29.7860  -20.5670   19.3980 C   0  0  0  0  0  0  0  0  0  0  0  0
  -30.6170  -18.0250   20.4700 C   0  0  0  0  0  0  0  0  0  0  0  0
  -29.1480  -20.0030   20.5460 C   0  0  0  0  0  0  0  0  0  0  0  0
  -30.7940  -19.7800   18.7600 C   0  0  0  0  0  0  0  0  0  0  0  0
  -27.9920  -20.6720   21.2780 C   0  0  0  0  0  1  0  0  0  0  0  0
  -31.4980  -20.2430   17.4950 C   0  0  0  0  0  1  0  0  0  0  0  0
  -31.1900  -16.7660   21.1360 C   0  0  0  0  0  2  0  0  0  0  0  0
  -31.1690  -14.4900   20.0650 C   0  0  0  0  0  0  0  0  0  0  0  0
  -30.7690  -12.3100   18.9700 C   0  0  0  0  0  2  0  0  0  0  0  0
  -29.8010  -12.4920   17.7850 C   0  0  0  0  0  2  0  0  0  0  0  0
  -28.3370  -12.3990   18.2600 C   0  0  0  0  0  2  0  0  0  0  0  0
  -28.0540  -13.3040   19.4900 C   0  0  0  0  0  3  0  0  0  0  0  0
  -29.1280  -13.0970   20.5800 C   0  0  0  0  0  2  0  0  0  0  0  0
  -30.4460  -13.3400   19.9680 N   0  0  0  0  0  0  0  0  0  0  0  0
  -32.2640  -14.6420   19.5170 O   0  0  0  0  0  0  0  0  0  0  0  0
  -30.5820  -15.4870   20.7500 N   0  0  0  0  0  0  0  0  0  0  0  0
  -29.6680  -15.2900   21.1280 H   0  0  0  0  0  0  0  0  0  0  0  0
  -25.7110  -14.0190   20.2690 C   0  0  0  0  0  0  0  0  0  0  0  0
  -24.6210  -13.2970   20.6740 C   0  0  0  0  0  0  0  0  0  0  0  0
  -25.0210  -11.9260   20.6340 C   0  0  0  0  0  0  0  0  0  0  0  0
  -26.7080  -13.0920   20.0100 N   0  0  0  0  0  0  0  0  0  0  0  0
  -26.2960  -11.8280   20.2860 N   0  0  0  0  0  0  0  0  0  0  0  0
  -24.2450  -10.6970   20.8510 C   0  0  0  0  0  0  0  0  0  0  0  0
  -24.6400   -9.7310   21.8010 C   0  0  0  0  0  3  0  0  0  0  0  0
  -23.8660   -8.5670   22.0040 C   0  0  0  0  0  3  0  0  0  0  0  0
  -22.6840   -8.3620   21.2560 C   0  0  0  0  0  0  0  0  0  0  0  0
  -22.3060   -9.3170   20.2940 C   0  0  0  0  0  3  0  0  0  0  0  0
  -23.0800  -10.4710   20.0900 C   0  0  0  0  0  3  0  0  0  0  0  0
  -21.8830   -7.2510   21.3670 O   0  0  0  0  0  0  0  0  0  0  0  0
  -21.7730   -6.5590   22.5480 C   0  0  0  0  0  0  0  0  0  0  0  0
  -21.3230   -7.1780   23.7350 C   0  0  0  0  0  3  0  0  0  0  0  0
  -21.1590   -6.4140   24.9070 C   0  0  0  0  0  3  0  0  0  0  0  0
  -21.4330   -5.0330   24.8930 C   0  0  0  0  0  0  0  0  0  0  0  0
  -21.8760   -4.4160   23.7100 C   0  0  0  0  0  3  0  0  0  0  0  0
  -22.0430   -5.1770   22.5400 C   0  0  0  0  0  0  0  0  0  0  0  0
  -22.4490   -4.5720   21.3980 F   0  0  0  0  0  0  0  0  0  0  0  0
  -21.2680   -4.2980   26.0170 F   0  0  0  0  0  0  0  0  0  0  0  0
  -23.2570  -13.8370   20.9910 C   0  0  0  0  0  0  0  0  0  0  0  0
  -22.5300  -13.1830   21.8900 N   0  0  0  0  0  0  0  0  0  0  0  0
  -22.8450  -14.8760   20.4750 O   0  0  0  0  0  0  0  0  0  0  0  0
  -22.8740  -12.3410   22.3280 H   0  0  0  0  0  0  0  0  0  0  0  0
  -21.6170  -13.5310   22.1450 H   0  0  0  0  0  0  0  0  0  0  0  0
  -25.9290  -15.3810   20.0800 N   0  0  0  0  0  0  0  0  0  0  0  0
  -25.1970  -16.0690   20.2140 H   0  0  0  0  0  0  0  0  0  0  0  0
  -26.7890  -15.7830   19.7260 H   0  0  0  0  0  0  0  0  0  0  0  0
  -28.6350  -25.4210   20.4560 C   0  0  0  0  0  2  0  0  0  0  0  0
  -28.6030  -26.7690   19.9570 O   0  0  0  0  0  0  0  0  0  0  0  0
  -24.5770  -31.7320   23.1400 C   0  0  0  0  0  0  0  0  0  0  0  0
  -27.3980  -27.4380   20.0050 C   0  0  0  0  0  0  0  0  0  0  0  0
  -23.4320  -30.3250   21.4560 C   0  0  0  0  0  3  0  0  0  0  0  0
  -24.9500  -28.8560   20.0260 C   0  0  0  0  0  0  0  0  0  0  0  0
  -25.9440  -30.7680   21.2940 C   0  0  0  0  0  2  0  0  0  0  0  0
  -26.0840  -29.4100   20.6350 C   0  0  0  0  0  0  0  0  0  0  0  0
  -27.3130  -28.7110   20.6180 C   0  0  0  0  0  3  0  0  0  0  0  0
  -26.2470  -26.8930   19.4020 C   0  0  0  0  0  3  0  0  0  0  0  0
  -25.0260  -27.5940   19.4090 C   0  0  0  0  0  3  0  0  0  0  0  0
  -23.6790  -29.6760   20.0680 C   0  0  0  0  0  2  0  0  0  0  0  0
  -24.6680  -30.9570   22.0210 N   0  0  0  0  0  0  0  0  0  0  0  0
  -23.4830  -31.9590   23.6730 O   0  0  0  0  0  0  0  0  0  0  0  0
  -22.8020  -29.2670   22.3910 C   0  0  0  0  0  0  0  0  0  0  0  0
  -21.4850  -29.0510   22.2500 N   0  0  0  0  0  0  0  0  0  0  0  0
  -23.4970  -28.6450   23.2000 O   0  0  0  0  0  0  0  0  0  0  0  0
  -20.9840  -29.6080   21.5710 H   0  0  0  0  0  0  0  0  0  0  0  0
  -18.1440  -27.7510   22.6920 C   0  0  0  0  0  0  0  0  0  0  0  0
  -20.6900  -28.0740   22.9930 C   0  0  0  0  0  3  0  0  0  0  0  0
  -20.8370  -26.6600   22.3870 C   0  0  0  0  0  2  0  0  0  0  0  0
  -19.7530  -26.3280   21.3570 C   0  0  0  0  0  2  0  0  0  0  0  0
  -18.3630  -26.4220   21.9900 C   0  0  0  0  0  2  0  0  0  0  0  0
  -19.2360  -28.5340   23.1500 C   0  0  0  0  0  0  0  0  0  0  0  0
  -18.9790  -29.7780   23.7640 C   0  0  0  0  0  3  0  0  0  0  0  0
  -17.6600  -30.2410   23.9290 C   0  0  0  0  0  3  0  0  0  0  0  0
  -16.5800  -29.4560   23.4870 C   0  0  0  0  0  3  0  0  0  0  0  0
  -16.8230  -28.2140   22.8750 C   0  0  0  0  0  3  0  0  0  0  0  0
  -25.8380  -32.3880   23.7860 C   0  0  0  0  0  3  0  0  0  0  0  0
  -26.3670  -31.6070   25.0510 C   0  0  1  0  0  0  0  0  0  0  0  0
  -25.2720  -31.3200   26.1040 C   0  0  0  0  0  1  0  0  0  0  0  0
  -26.9930  -30.2530   24.6390 C   0  0  0  0  0  1  0  0  0  0  0  0
  -27.4860  -32.4220   25.7390 C   0  0  0  0  0  1  0  0  0  0  0  0
  -25.4850  -33.7700   24.1360 N   0  0  0  0  0  0  0  0  0  0  0  0
  -25.7870  -34.8430   23.3930 C   0  0  0  0  0  0  0  0  0  0  0  0
  -26.4630  -34.7760   22.3620 O   0  0  0  0  0  0  0  0  0  0  0  0
  -24.8850  -33.8940   24.9390 H   0  0  0  0  0  0  0  0  0  0  0  0
  -24.0000  -36.5820   23.0620 C   0  0  0  0  0  1  0  0  0  0  0  0
  -25.2550  -36.2080   23.8680 C   0  0  0  0  0  3  0  0  0  0  0  0
  -27.3580  -37.1550   24.7080 C   0  0  0  0  0  1  0  0  0  0  0  0
  -26.2520  -37.2960   23.7660 N   0  0  0  0  0  0  0  0  0  0  0  0
  -25.8150  -38.2000   23.9190 H   0  0  0  0  0  0  0  0  0  0  0  0
  1  3  1  0
  1  2  1  0
  2  4  1  0
  3  9  1  0
  3  5  1  0
  4  5  1  0
  4 54  1  0
  5  6  1  0
  8 10  1  0
  9 11  2  0
 10  7  2  0
 10 15  1  0
 11  7  1  0
 11 13  1  0
 12  8  2  0
 12  9  1  0
 14 12  1  0
 16 24  1  0
 17 22  1  0
 18 19  1  0
 18 17  1  0
 20 19  1  0
 20 29  1  0
 20 21  1  0
 22 16  1  0
 22 21  1  0
 23 16  2  0
 24 25  1  0
 24 15  1  0
 26 27  2  0
 27 46  1  0
 28 27  1  0
 28 31  1  0
 29 26  1  0
 29 30  1  0
 30 28  2  0
 31 32  1  0
 32 33  2  0
 34 37  1  0
 34 33  1  0
 35 34  2  0
 36 35  1  0
 36 31  2  0
 37 38  1  0
 38 39  1  0
 39 40  2  0
 41 40  1  0
 41 45  1  0
 42 41  2  0
 43 38  2  0
 43 42  1  0
 44 43  1  0
 46 47  1  0
 47 50  1  0
 47 49  1  0
 48 46  2  0
 51 52  1  0
 51 26  1  0
 53 51  1  0
 55 57  1  0
 55 54  1  0
 56 67  2  0
 57 62  1  0
 58 66  1  0
 58 68  1  0
 59 65  1  0
 59 61  1  0
 60 66  1  0
 61 60  1  0
 62 61  2  0
 63 64  1  0
 63 57  2  0
 64 59  2  0
 65 58  1  0
 66 56  1  0
 68 70  2  0
 69 68  1  0
 71 69  1  0
 72 81  2  0
 72 77  1  0
 73 69  1  0
 73 77  1  0
 74 73  1  0
 75 76  1  0
 75 74  1  0
 76 72  1  0
 77 78  2  0
 78 79  1  0
 80 79  2  0
 81 80  1  0
 82 56  1  0
 82 87  1  0
 82 83  1  0
 83 86  1  1
 83 84  1  0
 85 83  1  0
 87 90  1  0
 88 92  1  0
 88 87  1  0
 89 88  2  0
 92 91  1  0
 94 92  1  0
 94 95  1  0
 94 93  1  0
M  ISO  4  16 100  24 100  54 101  55 101
M  END
>  <TORSDO>  (41) 
F 19

>  <SCORE>  (41) 
-13.420

>  <name>  (41) 
40

>  <ligand_id>  (41) 
40

>  <original_smiles>  (41) 
[H]c1c([H])c([H])c2c(c1[H])C([H])([H])C([H])([H])C([H])([H])C2([H])N([H])C(=O)C1([H])N(C(=O)C([H])(N([H])C(=O)C([H])(N([H])C([H])([H])[H])C([H])([H])[H])C(C([H])([H])[H])(C([H])([H])[H])C([H])([H])[H])C([H])([H])c2c([H])c(OC([H])([H])C3([H])C([H])([H])C([H])([H])C([H])(c4c(C([H])([H])[H])c([H])c(C([H])([H])N([H])C(=O)N5C([H])([H])C([H])([H])C([H])([H])C([H])(n6nc(-c7c([H])c([H])c(Oc8c([H])c([H])c(F)c([H])c8F)c([H])c7[H])c(C(=O)N([H])[H])c6N([H])[H])C5([H])[H])c([H])c4C([H])([H])[H])C3([H])C([H])([H])[H])c([H])c([H])c2C1([H])[H]

>  <smiles>  (41) 
[H]c1c([H])c([H])c2c(c1[H])C([H])([H])C([H])([H])C([H])([H])C2([H])N([H])C(=O)C1([H])N(C(=O)C([H])(N([H])C(=O)C([H])(N([H])C([H])([H])[H])C([H])([H])[H])C(C([H])([H])[H])(C([H])([H])[H])C([H])([H])[H])C([H])([H])c2c([H])c(OC([H])([H])C3([H])C([H])([H])C([H])([H])C([H])(c4c(C([H])([H])[H])c([H])c(C([H])([H])N([H])C(=O)N5C([H])([H])C([H])([H])C([H])([H])C([H])(n6nc(-c7c([H])c([H])c(Oc8c([H])c([H])c(F)c([H])c8F)c([H])c7[H])c(C(=O)N([H])[H])c6N([H])[H])C5([H])[H])c([H])c4C([H])([H])[H])C3([H])C([H])([H])[H])c([H])c([H])c2C1([H])[H]

$$$$
41:0:0
     RDKit          3D

 97106  0  0  1  0  0  0  0  0999 V2000
  -29.1040  -22.0380   20.0990 C   0  0  0  0  0  2  0  0  0  0  0  0
  -29.0470  -23.5070   19.6210 C   0  0  0  0  0  2  0  0  0  0  0  0
  -31.5700  -22.0010   19.7060 C   0  0  0  0  0  3  0  0  0  0  0  0
  -30.2320  -21.2820   19.3760 C   0  0  0  0  0  3  0  0  0  0  0  0
  -31.5470  -23.5520   19.4080 C   0  0  0  0  0  3  0  0  0  0  0  0
  -32.7350  -21.2850   18.9720 C   0  0  0  0  0  1  0  0  0  0  0  0
  -32.8170  -24.1950   20.0360 C   0  0  0  0  0  1  0  0  0  0  0  0
  -30.3010  -24.2790   19.8650 N   0  0  1  0  0  4  0  0  0  0  0  0
  -30.3850  -24.3810   20.8660 H   0  0  0  0  0  0  0  0  0  0  0  0
  -30.6290  -17.8070   21.1320 C   0  0  0  0  0  2  0  0  0  0  0  0
  -29.6000  -17.4720   18.8610 C   0  0  0  0  0  2  0  0  0  0  0  0
  -30.2950  -19.3240   21.0370 C   0  0  0  0  0  2  0  0  0  0  0  0
  -29.2960  -18.9960   18.8050 C   0  0  0  0  0  2  0  0  0  0  0  0
  -29.6210  -16.9740   20.3210 C   0  0  0  0  0  3  0  0  0  0  0  0
  -30.2680  -19.7890   19.6180 N   0  0  1  0  0  4  0  0  0  0  0  0
  -31.1710  -19.5310   19.2460 H   0  0  0  0  0  0  0  0  0  0  0  0
  -30.5470  -14.5530   20.0860 C   0  0  0  0  0  0  0  0  0  0  0  0
  -30.3830  -12.3050   19.0740 C   0  0  0  0  0  2  0  0  0  0  0  0
  -29.3760  -12.3880   17.9060 C   0  0  0  0  0  2  0  0  0  0  0  0
  -27.9260  -12.2000   18.3970 C   0  0  0  0  0  2  0  0  0  0  0  0
  -27.5930  -13.0900   19.6240 C   0  0  0  0  0  3  0  0  0  0  0  0
  -28.6990  -12.9570   20.6980 C   0  0  0  0  0  2  0  0  0  0  0  0
  -29.9890  -13.3110   20.0720 N   0  0  0  0  0  0  0  0  0  0  0  0
  -31.6420  -14.8110   19.5750 O   0  0  0  0  0  0  0  0  0  0  0  0
  -29.7020  -15.5100   20.5210 N   0  0  0  0  0  0  0  0  0  0  0  0
  -28.8680  -15.1110   20.9280 H   0  0  0  0  0  0  0  0  0  0  0  0
  -25.2310  -13.6630   20.4820 C   0  0  0  0  0  0  0  0  0  0  0  0
  -24.1920  -12.8700   20.8880 C   0  0  0  0  0  0  0  0  0  0  0  0
  -24.6590  -11.5240   20.7890 C   0  0  0  0  0  0  0  0  0  0  0  0
  -26.2690  -12.7960   20.1680 N   0  0  0  0  0  0  0  0  0  0  0  0
  -25.9310  -11.5040   20.4110 N   0  0  0  0  0  0  0  0  0  0  0  0
  -23.9540  -10.2510   20.9840 C   0  0  0  0  0  0  0  0  0  0  0  0
  -24.4050   -9.2920   21.9180 C   0  0  0  0  0  3  0  0  0  0  0  0
  -23.7020   -8.0830   22.1000 C   0  0  0  0  0  3  0  0  0  0  0  0
  -22.5320   -7.8230   21.3440 C   0  0  0  0  0  0  0  0  0  0  0  0
  -22.0990   -8.7700   20.4000 C   0  0  0  0  0  3  0  0  0  0  0  0
  -22.8040   -9.9730   20.2180 C   0  0  0  0  0  3  0  0  0  0  0  0
  -21.7980   -6.6640   21.4340 O   0  0  0  0  0  0  0  0  0  0  0  0
  -21.7050   -5.9590   22.6090 C   0  0  0  0  0  0  0  0  0  0  0  0
  -21.1650   -6.5330   23.7800 C   0  0  0  0  0  3  0  0  0  0  0  0
  -21.0210   -5.7520   24.9440 C   0  0  0  0  0  3  0  0  0  0  0  0
  -21.4110   -4.4000   24.9380 C   0  0  0  0  0  0  0  0  0  0  0  0
  -21.9460   -3.8250   23.7710 C   0  0  0  0  0  3  0  0  0  0  0  0
  -22.0900   -4.6030   22.6090 C   0  0  0  0  0  0  0  0  0  0  0  0
  -22.5830   -4.0410   21.4780 F   0  0  0  0  0  0  0  0  0  0  0  0
  -21.2680   -3.6460   26.0520 F   0  0  0  0  0  0  0  0  0  0  0  0
  -22.8070  -13.3270   21.2500 C   0  0  0  0  0  0  0  0  0  0  0  0
  -22.1370  -12.6070   22.1410 N   0  0  0  0  0  0  0  0  0  0  0  0
  -22.3290  -14.3580   20.7780 O   0  0  0  0  0  0  0  0  0  0  0  0
  -22.5360  -11.7740   22.5490 H   0  0  0  0  0  0  0  0  0  0  0  0
  -21.2100  -12.8950   22.4200 H   0  0  0  0  0  0  0  0  0  0  0  0
  -25.3750  -15.0400   20.3340 N   0  0  0  0  0  0  0  0  0  0  0  0
  -24.6030  -15.6790   20.4950 H   0  0  0  0  0  0  0  0  0  0  0  0
  -26.1910  -15.4960   19.9480 H   0  0  0  0  0  0  0  0  0  0  0  0
  -30.1880  -25.6740   19.2860 C   0  0  0  0  0  2  0  0  0  0  0  0
  -29.1050  -26.6180   19.8990 C   0  0  0  0  0  2  0  0  0  0  0  0
  -27.9090  -26.5550   19.1220 O   0  0  0  0  0  0  0  0  0  0  0  0
  -24.5980  -31.6040   23.0740 C   0  0  0  0  0  0  0  0  0  0  0  0
  -26.8360  -27.3840   19.3960 C   0  0  0  0  0  0  0  0  0  0  0  0
  -23.2120  -30.3890   21.4240 C   0  0  0  0  0  3  0  0  0  0  0  0
  -24.4940  -28.9420   19.7580 C   0  0  0  0  0  0  0  0  0  0  0  0
  -25.7230  -30.6900   21.0460 C   0  0  0  0  0  2  0  0  0  0  0  0
  -25.7130  -29.3760   20.2930 C   0  0  0  0  0  0  0  0  0  0  0  0
  -26.8890  -28.6010   20.1240 C   0  0  0  0  0  3  0  0  0  0  0  0
  -25.5980  -26.9740   18.8580 C   0  0  0  0  0  3  0  0  0  0  0  0
  -24.4290  -27.7360   19.0430 C   0  0  0  0  0  3  0  0  0  0  0  0
  -23.2880  -29.8300   19.9780 C   0  0  0  0  0  2  0  0  0  0  0  0
  -24.5340  -30.9050   21.9060 N   0  0  0  0  0  0  0  0  0  0  0  0
  -23.5760  -31.8550   23.7290 O   0  0  0  0  0  0  0  0  0  0  0  0
  -22.6050  -29.3060   22.3460 C   0  0  0  0  0  0  0  0  0  0  0  0
  -21.2800  -29.1100   22.2500 N   0  0  0  0  0  0  0  0  0  0  0  0
  -23.3230  -28.6460   23.1020 O   0  0  0  0  0  0  0  0  0  0  0  0
  -20.7600  -29.6920   21.6080 H   0  0  0  0  0  0  0  0  0  0  0  0
  -17.9610  -27.7550   22.6960 C   0  0  0  0  0  0  0  0  0  0  0  0
  -20.5030  -28.1190   22.9930 C   0  0  0  0  0  3  0  0  0  0  0  0
  -20.6730  -26.7080   22.3830 C   0  0  0  0  0  2  0  0  0  0  0  0
  -19.5940  -26.3620   21.3520 C   0  0  0  0  0  2  0  0  0  0  0  0
  -18.2020  -26.4320   21.9880 C   0  0  0  0  0  2  0  0  0  0  0  0
  -19.0410  -28.5530   23.1550 C   0  0  0  0  0  0  0  0  0  0  0  0
  -18.7630  -29.7890   23.7790 C   0  0  0  0  0  3  0  0  0  0  0  0
  -17.4370  -30.2270   23.9470 C   0  0  0  0  0  3  0  0  0  0  0  0
  -16.3690  -29.4240   23.5060 C   0  0  0  0  0  3  0  0  0  0  0  0
  -16.6320  -28.1910   22.8850 C   0  0  0  0  0  3  0  0  0  0  0  0
  -25.9530  -32.1400   23.6290 C   0  0  0  0  0  3  0  0  0  0  0  0
  -26.5370  -31.2600   24.8010 C   0  0  1  0  0  0  0  0  0  0  0  0
  -25.5260  -30.9950   25.9410 C   0  0  0  0  0  1  0  0  0  0  0  0
  -27.0180  -29.8890   24.2710 C   0  0  0  0  0  1  0  0  0  0  0  0
  -27.7750  -31.9570   25.4140 C   0  0  0  0  0  1  0  0  0  0  0  0
  -25.7320  -33.5210   24.0750 N   0  0  0  0  0  0  0  0  0  0  0  0
  -26.0480  -34.6100   23.3610 C   0  0  0  0  0  0  0  0  0  0  0  0
  -26.6260  -34.5520   22.2730 O   0  0  0  0  0  0  0  0  0  0  0  0
  -25.2030  -33.6400   24.9270 H   0  0  0  0  0  0  0  0  0  0  0  0
  -24.3660  -36.4790   23.2830 C   0  0  0  0  0  1  0  0  0  0  0  0
  -25.6590  -35.9810   23.9480 C   0  0  0  0  0  3  0  0  0  0  0  0
  -27.8900  -36.7410   24.6390 C   0  0  0  0  0  1  0  0  0  0  0  0
  -26.7180  -37.0050   23.8070 N   0  0  0  0  0  0  0  0  0  0  0  0
  -26.3600  -37.9260   24.0460 H   0  0  0  0  0  0  0  0  0  0  0  0
  2  8  1  0
  2  1  1  0
  3  6  1  0
  4 15  1  0
  4  3  1  0
  4  1  1  0
  5  3  1  0
  5  8  1  0
  5  7  1  0
  8  9  1  1
 11 14  1  0
 12 10  1  0
 13 11  1  0
 13 15  1  0
 14 25  1  0
 14 10  1  0
 15 16  1  6
 15 12  1  0
 17 25  1  0
 18 23  1  0
 19 20  1  0
 19 18  1  0
 21 20  1  0
 21 30  1  0
 21 22  1  0
 23 17  1  0
 23 22  1  0
 24 17  2  0
 25 26  1  0
 27 28  2  0
 28 47  1  0
 29 28  1  0
 29 32  1  0
 30 31  1  0
 30 27  1  0
 31 29  2  0
 32 33  1  0
 33 34  2  0
 35 38  1  0
 35 34  1  0
 36 35  2  0
 37 36  1  0
 37 32  2  0
 38 39  1  0
 39 44  2  0
 39 40  1  0
 40 41  2  0
 42 41  1  0
 42 46  1  0
 43 42  2  0
 44 43  1  0
 45 44  1  0
 47 48  1  0
 48 51  1  0
 48 50  1  0
 49 47  2  0
 52 27  1  0
 52 53  1  0
 54 52  1  0
 55  8  1  0
 55 56  1  0
 57 59  1  0
 57 56  1  0
 58 69  2  0
 59 64  1  0
 60 68  1  0
 60 70  1  0
 61 67  1  0
 61 63  1  0
 62 68  1  0
 63 62  1  0
 64 63  2  0
 65 66  1  0
 65 59  2  0
 66 61  2  0
 67 60  1  0
 68 58  1  0
 70 72  2  0
 71 70  1  0
 73 71  1  0
 74 83  2  0
 74 79  1  0
 75 71  1  0
 75 79  1  0
 76 75  1  0
 77 78  1  0
 77 76  1  0
 78 74  1  0
 79 80  2  0
 80 81  1  0
 82 81  2  0
 83 82  1  0
 84 58  1  0
 84 89  1  0
 84 85  1  0
 85 88  1  1
 85 86  1  0
 87 85  1  0
 89 92  1  0
 90 94  1  0
 90 89  1  0
 91 90  2  0
 94 93  1  0
 96 94  1  0
 96 97  1  0
 96 95  1  0
M  ISO  4  17 100  25 100  56 101  57 101
M  END
>  <TORSDO>  (42) 
F 19

>  <SCORE>  (42) 
-13.360

>  <name>  (42) 
41

>  <ligand_id>  (42) 
41

>  <original_smiles>  (42) 
[H]c1c([H])c([H])c2c(c1[H])C([H])([H])C([H])([H])C([H])([H])C2([H])N([H])C(=O)C1([H])N(C(=O)C([H])(N([H])C(=O)C([H])(N([H])C([H])([H])[H])C([H])([H])[H])C(C([H])([H])[H])(C([H])([H])[H])C([H])([H])[H])C([H])([H])c2c([H])c(OC([H])([H])C([H])([H])[N+]3([H])C([H])([H])C([H])([H])C([H])([N+]4([H])C([H])([H])C([H])([H])C([H])(N([H])C(=O)N5C([H])([H])C([H])([H])C([H])([H])C([H])(n6nc(-c7c([H])c([H])c(Oc8c([H])c([H])c(F)c([H])c8F)c([H])c7[H])c(C(=O)N([H])[H])c6N([H])[H])C5([H])[H])C([H])([H])C4([H])[H])C([H])(C([H])([H])[H])C3([H])C([H])([H])[H])c([H])c([H])c2C1([H])[H]

>  <smiles>  (42) 
[H]c1c([H])c([H])c2c(c1[H])C([H])([H])C([H])([H])C([H])([H])C2([H])N([H])C(=O)C1([H])N(C(=O)C([H])(N([H])C(=O)C([H])(N([H])C([H])([H])[H])C([H])([H])[H])C(C([H])([H])[H])(C([H])([H])[H])C([H])([H])[H])C([H])([H])c2c([H])c(OC([H])([H])C([H])([H])[N+]3([H])C([H])([H])C([H])([H])C([H])([N+]4([H])C([H])([H])C([H])([H])C([H])(N([H])C(=O)N5C([H])([H])C([H])([H])C([H])([H])C([H])(n6nc(-c7c([H])c([H])c(Oc8c([H])c([H])c(F)c([H])c8F)c([H])c7[H])c(C(=O)N([H])[H])c6N([H])[H])C5([H])[H])C([H])([H])C4([H])[H])C([H])(C([H])([H])[H])C3([H])C([H])([H])[H])c([H])c([H])c2C1([H])[H]

$$$$
42:0:0
     RDKit          3D

 94103  0  0  1  0  0  0  0  0999 V2000
  -29.6850  -20.9840   19.9050 C   0  0  0  0  0  0  0  0  0  0  0  0
  -30.0990  -21.7760   18.7760 C   0  0  0  0  0  0  0  0  0  0  0  0
  -28.9210  -21.7050   20.8830 C   0  0  0  0  0  0  0  0  0  0  0  0
  -29.7700  -23.1760   18.6350 C   0  0  0  0  0  0  0  0  0  0  0  0
  -28.6150  -23.1130   20.7480 C   0  0  0  0  0  0  0  0  0  0  0  0
  -28.9630  -23.8690   19.5850 C   0  0  0  0  0  0  0  0  0  0  0  0
  -30.8840  -21.1020   17.6470 C   0  0  0  0  0  1  0  0  0  0  0  0
  -28.3510  -20.9420   22.0760 C   0  0  0  0  0  1  0  0  0  0  0  0
  -30.2590  -23.9540   17.4160 C   0  0  0  0  0  1  0  0  0  0  0  0
  -27.8580  -23.8320   21.8640 C   0  0  0  0  0  1  0  0  0  0  0  0
  -30.9840  -15.0350   20.2350 C   0  0  0  0  0  0  0  0  0  0  0  0
  -30.7030  -12.7260   19.3450 C   0  0  0  0  0  2  0  0  0  0  0  0
  -29.7820  -12.7390   18.1080 C   0  0  0  0  0  2  0  0  0  0  0  0
  -28.3120  -12.5900   18.5410 C   0  0  0  0  0  2  0  0  0  0  0  0
  -27.9290  -13.5500   19.6990 C   0  0  0  0  0  3  0  0  0  0  0  0
  -28.9830  -13.5620   20.8280 C   0  0  0  0  0  2  0  0  0  0  0  0
  -30.2850  -13.8500   20.2140 N   0  0  0  0  0  0  0  0  0  0  0  0
  -32.1800  -15.0330   19.9280 O   0  0  0  0  0  0  0  0  0  0  0  0
  -30.3970  -18.7240   21.3670 C   0  0  0  0  0  2  0  0  0  0  0  0
  -29.1920  -18.3770   19.2940 C   0  0  0  0  0  2  0  0  0  0  0  0
  -31.0500  -17.2910   21.2240 C   0  0  0  0  0  2  0  0  0  0  0  0
  -29.8350  -16.9350   19.1620 C   0  0  0  0  0  2  0  0  0  0  0  0
  -30.0970  -19.4200   20.0060 C   0  0  0  0  0  3  0  0  0  0  0  0
  -30.3370  -16.2600   20.4010 N   0  0  0  0  0  0  0  0  0  0  0  0
  -25.5650  -14.1850   20.4560 C   0  0  0  0  0  0  0  0  0  0  0  0
  -24.4840  -13.4300   20.8180 C   0  0  0  0  0  0  0  0  0  0  0  0
  -24.9170  -12.0680   20.7640 C   0  0  0  0  0  0  0  0  0  0  0  0
  -26.5870  -13.2850   20.2000 N   0  0  0  0  0  0  0  0  0  0  0  0
  -26.2040  -12.0060   20.4490 N   0  0  0  0  0  0  0  0  0  0  0  0
  -24.1630  -10.8210   20.9390 C   0  0  0  0  0  0  0  0  0  0  0  0
  -24.5580   -9.8440   21.8790 C   0  0  0  0  0  3  0  0  0  0  0  0
  -23.8060   -8.6610   22.0430 C   0  0  0  0  0  3  0  0  0  0  0  0
  -22.6430   -8.4460   21.2640 C   0  0  0  0  0  0  0  0  0  0  0  0
  -22.2670   -9.4110   20.3130 C   0  0  0  0  0  3  0  0  0  0  0  0
  -23.0210  -10.5860   20.1480 C   0  0  0  0  0  3  0  0  0  0  0  0
  -21.8640   -7.3170   21.3370 O   0  0  0  0  0  0  0  0  0  0  0  0
  -21.7530   -6.5920   22.4960 C   0  0  0  0  0  0  0  0  0  0  0  0
  -21.2370   -7.1560   23.6820 C   0  0  0  0  0  3  0  0  0  0  0  0
  -21.0760   -6.3560   24.8320 C   0  0  0  0  0  3  0  0  0  0  0  0
  -21.4220   -4.9920   24.7940 C   0  0  0  0  0  0  0  0  0  0  0  0
  -21.9320   -4.4270   23.6120 C   0  0  0  0  0  3  0  0  0  0  0  0
  -22.0940   -5.2240   22.4660 C   0  0  0  0  0  0  0  0  0  0  0  0
  -22.5660   -4.6690   21.3230 F   0  0  0  0  0  0  0  0  0  0  0  0
  -21.2610   -4.2210   25.8950 F   0  0  0  0  0  0  0  0  0  0  0  0
  -23.1000  -13.9350   21.1040 C   0  0  0  0  0  0  0  0  0  0  0  0
  -22.3630  -13.2440   21.9660 N   0  0  0  0  0  0  0  0  0  0  0  0
  -22.6830  -14.9760   20.6000 O   0  0  0  0  0  0  0  0  0  0  0  0
  -22.7140  -12.3990   22.3950 H   0  0  0  0  0  0  0  0  0  0  0  0
  -21.4330  -13.5610   22.2020 H   0  0  0  0  0  0  0  0  0  0  0  0
  -25.7630  -15.5540   20.2990 N   0  0  0  0  0  0  0  0  0  0  0  0
  -25.0200  -16.2310   20.4320 H   0  0  0  0  0  0  0  0  0  0  0  0
  -26.6370  -15.9770   20.0120 H   0  0  0  0  0  0  0  0  0  0  0  0
  -28.1680  -25.2000   19.1870 C   0  0  0  0  0  2  0  0  0  0  0  0
  -28.4660  -26.6190   19.5800 O   0  0  0  0  0  0  0  0  0  0  0  0
  -24.5490  -31.6600   23.0620 C   0  0  0  0  0  0  0  0  0  0  0  0
  -27.3500  -27.5000   19.5820 C   0  0  0  0  0  0  0  0  0  0  0  0
  -23.4000  -30.3380   21.3290 C   0  0  0  0  0  3  0  0  0  0  0  0
  -24.9090  -29.0190   19.7460 C   0  0  0  0  0  0  0  0  0  0  0  0
  -25.9220  -30.8070   21.1450 C   0  0  0  0  0  2  0  0  0  0  0  0
  -26.0670  -29.4950   20.3760 C   0  0  0  0  0  0  0  0  0  0  0  0
  -27.2880  -28.7480   20.2920 C   0  0  0  0  0  3  0  0  0  0  0  0
  -26.1630  -27.1240   18.9000 C   0  0  0  0  0  3  0  0  0  0  0  0
  -24.9620  -27.8400   18.9980 C   0  0  0  0  0  3  0  0  0  0  0  0
  -23.6270  -29.8110   19.8910 C   0  0  0  0  0  2  0  0  0  0  0  0
  -24.6420  -30.9490   21.9010 N   0  0  0  0  0  0  0  0  0  0  0  0
  -23.4610  -31.8260   23.6310 O   0  0  0  0  0  0  0  0  0  0  0  0
  -22.8180  -29.2000   22.2020 C   0  0  0  0  0  0  0  0  0  0  0  0
  -21.4990  -28.9600   22.0880 N   0  0  0  0  0  0  0  0  0  0  0  0
  -23.5490  -28.5410   22.9470 O   0  0  0  0  0  0  0  0  0  0  0  0
  -20.9640  -29.5470   21.4640 H   0  0  0  0  0  0  0  0  0  0  0  0
  -18.2000  -27.5570   22.5790 C   0  0  0  0  0  0  0  0  0  0  0  0
  -20.7520  -27.9140   22.7900 C   0  0  0  0  0  3  0  0  0  0  0  0
  -20.8980  -26.5500   22.0770 C   0  0  0  0  0  2  0  0  0  0  0  0
  -19.7750  -26.2710   21.0730 C   0  0  0  0  0  2  0  0  0  0  0  0
  -18.4130  -26.2880   21.7720 C   0  0  0  0  0  2  0  0  0  0  0  0
  -19.2980  -28.3290   23.0440 C   0  0  0  0  0  0  0  0  0  0  0  0
  -19.0430  -29.5170   23.7630 C   0  0  0  0  0  3  0  0  0  0  0  0
  -17.7240  -29.9350   24.0200 C   0  0  0  0  0  3  0  0  0  0  0  0
  -16.6410  -29.1600   23.5690 C   0  0  0  0  0  3  0  0  0  0  0  0
  -16.8800  -27.9720   22.8550 C   0  0  0  0  0  3  0  0  0  0  0  0
  -25.8020  -32.3180   23.7160 C   0  0  0  0  0  3  0  0  0  0  0  0
  -25.4330  -33.6860   24.1050 N   0  0  0  0  0  0  0  0  0  0  0  0
  -25.6910  -34.7810   23.3770 C   0  0  0  0  0  0  0  0  0  0  0  0
  -26.3350  -34.7480   22.3250 O   0  0  0  0  0  0  0  0  0  0  0  0
  -24.8570  -33.7820   24.9280 H   0  0  0  0  0  0  0  0  0  0  0  0
  -23.8510  -36.4820   23.1570 C   0  0  0  0  0  1  0  0  0  0  0  0
  -25.1500  -36.1260   23.8990 C   0  0  0  0  0  3  0  0  0  0  0  0
  -27.2620  -37.1140   24.6700 C   0  0  0  0  0  1  0  0  0  0  0  0
  -26.1170  -37.2390   23.7710 N   0  0  0  0  0  0  0  0  0  0  0  0
  -25.6660  -38.1310   23.9550 H   0  0  0  0  0  0  0  0  0  0  0  0
  -26.3440  -31.5130   24.9610 C   0  0  1  0  0  0  0  0  0  0  0  0
  -25.2560  -31.1890   26.0120 C   0  0  0  0  0  1  0  0  0  0  0  0
  -26.9800  -30.1760   24.5160 C   0  0  0  0  0  1  0  0  0  0  0  0
  -27.4600  -32.3230   25.6600 C   0  0  0  0  0  1  0  0  0  0  0  0
  1  3  1  0
  2  1  2  0
  3  8  1  0
  4  2  1  0
  4  6  2  0
  5  3  2  0
  5 10  1  0
  6  5  1  0
  7  2  1  0
  9  4  1  0
 11 24  1  0
 12 17  1  0
 13 14  1  0
 13 12  1  0
 15 14  1  0
 15 28  1  0
 15 16  1  0
 17 11  1  0
 17 16  1  0
 18 11  2  0
 20 23  1  0
 21 19  1  0
 22 20  1  0
 22 24  1  0
 23  1  1  0
 23 19  1  0
 24 21  1  0
 25 26  2  0
 26 45  1  0
 27 26  1  0
 27 30  1  0
 28 29  1  0
 28 25  1  0
 29 27  2  0
 30 31  1  0
 31 32  2  0
 33 36  1  0
 33 32  1  0
 34 33  2  0
 35 34  1  0
 35 30  2  0
 36 37  1  0
 37 38  1  0
 38 39  2  0
 40 39  1  0
 40 44  1  0
 41 40  2  0
 42 37  2  0
 42 41  1  0
 43 42  1  0
 45 46  1  0
 46 49  1  0
 46 48  1  0
 47 45  2  0
 50 51  1  0
 50 25  1  0
 52 50  1  0
 53 54  1  0
 53  6  1  0
 54 56  1  0
 55 66  2  0
 56 61  1  0
 57 65  1  0
 57 67  1  0
 58 64  1  0
 58 60  1  0
 59 65  1  0
 60 59  1  0
 61 60  2  0
 62 63  1  0
 62 56  2  0
 63 58  2  0
 64 57  1  0
 65 55  1  0
 67 69  2  0
 68 67  1  0
 70 68  1  0
 71 80  2  0
 71 76  1  0
 72 68  1  0
 72 76  1  0
 73 72  1  0
 74 75  1  0
 74 73  1  0
 75 71  1  0
 76 77  2  0
 77 78  1  0
 79 78  2  0
 80 79  1  0
 81 55  1  0
 81 82  1  0
 81 91  1  0
 82 85  1  0
 83 87  1  0
 83 82  1  0
 84 83  2  0
 87 86  1  0
 89 87  1  0
 89 90  1  0
 89 88  1  0
 91 94  1  1
 91 92  1  0
 93 91  1  0
M  ISO  4  11 100  24 100  53 101  54 101
M  END
>  <TORSDO>  (43) 
F 17

>  <SCORE>  (43) 
-13.358

>  <name>  (43) 
42

>  <ligand_id>  (43) 
42

>  <original_smiles>  (43) 
[H]c1c([H])c([H])c2c(c1[H])C([H])([H])C([H])([H])C([H])([H])C2([H])N([H])C(=O)C1([H])N(C(=O)C([H])(N([H])C(=O)C([H])(N([H])C([H])([H])[H])C([H])([H])[H])C(C([H])([H])[H])(C([H])([H])[H])C([H])([H])[H])C([H])([H])c2c([H])c(OC([H])([H])c3c(C([H])([H])[H])c(C([H])([H])[H])c(C4([H])C([H])([H])C([H])([H])N(C(=O)N5C([H])([H])C([H])([H])C([H])([H])C([H])(n6nc(-c7c([H])c([H])c(Oc8c([H])c([H])c(F)c([H])c8F)c([H])c7[H])c(C(=O)N([H])[H])c6N([H])[H])C5([H])[H])C([H])([H])C4([H])[H])c(C([H])([H])[H])c3C([H])([H])[H])c([H])c([H])c2C1([H])[H]

>  <smiles>  (43) 
[H]c1c([H])c([H])c2c(c1[H])C([H])([H])C([H])([H])C([H])([H])C2([H])N([H])C(=O)C1([H])N(C(=O)C([H])(N([H])C(=O)C([H])(N([H])C([H])([H])[H])C([H])([H])[H])C(C([H])([H])[H])(C([H])([H])[H])C([H])([H])[H])C([H])([H])c2c([H])c(OC([H])([H])c3c(C([H])([H])[H])c(C([H])([H])[H])c(C4([H])C([H])([H])C([H])([H])N(C(=O)N5C([H])([H])C([H])([H])C([H])([H])C([H])(n6nc(-c7c([H])c([H])c(Oc8c([H])c([H])c(F)c([H])c8F)c([H])c7[H])c(C(=O)N([H])[H])c6N([H])[H])C5([H])[H])C([H])([H])C4([H])[H])c(C([H])([H])[H])c3C([H])([H])[H])c([H])c([H])c2C1([H])[H]

$$$$
43:0:0
     RDKit          3D

 94103  0  0  1  0  0  0  0  0999 V2000
  -31.1590  -21.7570   19.0130 C   0  0  0  0  0  3  0  0  0  0  0  0
  -30.2410  -24.0500   18.7680 C   0  0  0  0  0  3  0  0  0  0  0  0
  -30.0950  -21.4270   19.8650 C   0  0  0  0  0  0  0  0  0  0  0  0
  -29.0770  -22.4060   20.1060 C   0  0  0  0  0  0  0  0  0  0  0  0
  -31.1980  -23.0510   18.4330 C   0  0  0  0  0  0  0  0  0  0  0  0
  -29.1520  -23.7910   19.6340 C   0  0  0  0  0  0  0  0  0  0  0  0
  -28.4160  -20.1880   20.9760 C   0  0  0  0  0  2  0  0  0  0  0  0
  -27.9560  -21.6950   20.8640 C   0  0  0  0  0  3  0  0  0  0  0  0
  -29.9450  -20.1280   20.7320 C   0  0  2  0  0  0  0  0  0  0  0  0
  -32.2790  -23.3790   17.4210 C   0  0  0  0  0  1  0  0  0  0  0  0
  -27.6050  -22.2990   22.2320 C   0  0  0  0  0  1  0  0  0  0  0  0
  -30.6600  -20.5060   22.0570 C   0  0  0  0  0  1  0  0  0  0  0  0
  -28.1040  -24.9670   19.9280 C   0  0  0  0  0  2  0  0  0  0  0  0
  -28.3730  -26.4300   19.6190 O   0  0  0  0  0  0  0  0  0  0  0  0
  -24.6920  -31.7320   23.0550 C   0  0  0  0  0  0  0  0  0  0  0  0
  -27.2800  -27.3380   19.6740 C   0  0  0  0  0  0  0  0  0  0  0  0
  -23.4720  -30.4180   21.3630 C   0  0  0  0  0  3  0  0  0  0  0  0
  -24.9120  -28.9730   19.8110 C   0  0  0  0  0  0  0  0  0  0  0  0
  -26.0120  -30.7600   21.1530 C   0  0  0  0  0  2  0  0  0  0  0  0
  -26.0910  -29.4180   20.4200 C   0  0  0  0  0  0  0  0  0  0  0  0
  -27.2790  -28.6130   20.3440 C   0  0  0  0  0  3  0  0  0  0  0  0
  -26.0790  -26.9840   19.0220 C   0  0  0  0  0  3  0  0  0  0  0  0
  -24.9110  -27.7660   19.1010 C   0  0  0  0  0  3  0  0  0  0  0  0
  -23.6660  -29.8330   19.9400 C   0  0  0  0  0  2  0  0  0  0  0  0
  -24.7450  -30.9850   21.9130 N   0  0  0  0  0  0  0  0  0  0  0  0
  -23.6170  -31.9630   23.6260 O   0  0  0  0  0  0  0  0  0  0  0  0
  -22.8410  -29.3370   22.2730 C   0  0  0  0  0  0  0  0  0  0  0  0
  -21.5120  -29.1620   22.1790 N   0  0  0  0  0  0  0  0  0  0  0  0
  -23.5470  -28.6590   23.0260 O   0  0  0  0  0  0  0  0  0  0  0  0
  -20.9970  -29.7610   21.5490 H   0  0  0  0  0  0  0  0  0  0  0  0
  -18.1470  -27.9540   22.7550 C   0  0  0  0  0  0  0  0  0  0  0  0
  -20.7200  -28.1700   22.9110 C   0  0  0  0  0  3  0  0  0  0  0  0
  -20.7740  -26.7880   22.2190 C   0  0  0  0  0  2  0  0  0  0  0  0
  -19.6190  -26.5600   21.2380 C   0  0  0  0  0  2  0  0  0  0  0  0
  -18.2730  -26.6640   21.9610 C   0  0  0  0  0  2  0  0  0  0  0  0
  -19.2970  -28.6700   23.1860 C   0  0  0  0  0  0  0  0  0  0  0  0
  -19.1230  -29.8820   23.8880 C   0  0  0  0  0  3  0  0  0  0  0  0
  -17.8340  -30.3780   24.1620 C   0  0  0  0  0  3  0  0  0  0  0  0
  -16.7010  -29.6580   23.7490 C   0  0  0  0  0  3  0  0  0  0  0  0
  -16.8590  -28.4480   23.0490 C   0  0  0  0  0  3  0  0  0  0  0  0
  -25.9790  -32.3450   23.6880 C   0  0  0  0  0  3  0  0  0  0  0  0
  -26.5260  -31.5140   24.9130 C   0  0  1  0  0  0  0  0  0  0  0  0
  -25.4570  -31.2130   25.9890 C   0  0  0  0  0  1  0  0  0  0  0  0
  -27.1100  -30.1620   24.4450 C   0  0  0  0  0  1  0  0  0  0  0  0
  -27.6830  -32.2820   25.5920 C   0  0  0  0  0  1  0  0  0  0  0  0
  -25.6620  -33.7210   24.0990 N   0  0  0  0  0  0  0  0  0  0  0  0
  -25.9430  -34.8160   23.3790 C   0  0  0  0  0  0  0  0  0  0  0  0
  -26.5690  -34.7740   22.3160 O   0  0  0  0  0  0  0  0  0  0  0  0
  -25.1020  -33.8270   24.9310 H   0  0  0  0  0  0  0  0  0  0  0  0
  -24.1660  -36.5880   23.1970 C   0  0  0  0  0  1  0  0  0  0  0  0
  -25.4540  -36.1720   23.9230 C   0  0  0  0  0  3  0  0  0  0  0  0
  -27.6080  -37.0710   24.6850 C   0  0  0  0  0  1  0  0  0  0  0  0
  -26.4590  -37.2510   23.8030 N   0  0  0  0  0  0  0  0  0  0  0  0
  -26.0420  -38.1550   24.0080 H   0  0  0  0  0  0  0  0  0  0  0  0
  -30.6310  -18.6570   20.4190 C   0  0  0  0  0  2  0  0  0  0  0  0
  -30.0580  -17.3870   19.6190 C   0  0  0  0  0  2  0  0  0  0  0  0
  -30.9190  -14.8690   19.9170 C   0  0  0  0  0  0  0  0  0  0  0  0
  -30.6740  -12.5720   18.9790 C   0  0  0  0  0  2  0  0  0  0  0  0
  -29.6990  -12.6500   17.7830 C   0  0  0  0  0  2  0  0  0  0  0  0
  -28.2340  -12.5290   18.2510 C   0  0  0  0  0  2  0  0  0  0  0  0
  -27.9200  -13.4300   19.4750 C   0  0  0  0  0  3  0  0  0  0  0  0
  -29.0110  -13.3170   20.5660 C   0  0  0  0  0  2  0  0  0  0  0  0
  -30.3010  -13.6390   19.9380 N   0  0  0  0  0  0  0  0  0  0  0  0
  -32.0570  -14.9890   19.4550 O   0  0  0  0  0  0  0  0  0  0  0  0
  -30.1400  -15.9730   20.2150 N   0  0  0  0  0  0  0  0  0  0  0  0
  -29.2930  -15.7030   20.6940 H   0  0  0  0  0  0  0  0  0  0  0  0
  -25.5700  -14.0810   20.2840 C   0  0  0  0  0  0  0  0  0  0  0  0
  -24.4980  -13.3350   20.6930 C   0  0  0  0  0  0  0  0  0  0  0  0
  -24.9250  -11.9720   20.6430 C   0  0  0  0  0  0  0  0  0  0  0  0
  -26.5830  -13.1760   20.0100 N   0  0  0  0  0  0  0  0  0  0  0  0
  -26.2010  -11.9030   20.2840 N   0  0  0  0  0  0  0  0  0  0  0  0
  -24.1740  -10.7280   20.8580 C   0  0  0  0  0  0  0  0  0  0  0  0
  -24.5890   -9.7670   21.8080 C   0  0  0  0  0  3  0  0  0  0  0  0
  -23.8380   -8.5890   22.0100 C   0  0  0  0  0  3  0  0  0  0  0  0
  -22.6560   -8.3620   21.2660 C   0  0  0  0  0  0  0  0  0  0  0  0
  -22.2580   -9.3120   20.3080 C   0  0  0  0  0  3  0  0  0  0  0  0
  -23.0100  -10.4800   20.1020 C   0  0  0  0  0  3  0  0  0  0  0  0
  -21.8790   -7.2340   21.3760 O   0  0  0  0  0  0  0  0  0  0  0  0
  -21.7900   -6.5340   22.5540 C   0  0  0  0  0  0  0  0  0  0  0  0
  -21.3160   -7.1320   23.7410 C   0  0  0  0  0  3  0  0  0  0  0  0
  -21.1740   -6.3580   24.9110 C   0  0  0  0  0  3  0  0  0  0  0  0
  -21.4940   -4.9880   24.8920 C   0  0  0  0  0  0  0  0  0  0  0  0
  -21.9620   -4.3900   23.7100 C   0  0  0  0  0  3  0  0  0  0  0  0
  -22.1070   -5.1620   22.5430 C   0  0  0  0  0  0  0  0  0  0  0  0
  -22.5380   -4.5760   21.4000 F   0  0  0  0  0  0  0  0  0  0  0  0
  -21.3500   -4.2430   26.0140 F   0  0  0  0  0  0  0  0  0  0  0  0
  -23.1250  -13.8490   21.0160 C   0  0  0  0  0  0  0  0  0  0  0  0
  -22.4110  -13.1750   21.9100 N   0  0  0  0  0  0  0  0  0  0  0  0
  -22.6940  -14.8850   20.5100 O   0  0  0  0  0  0  0  0  0  0  0  0
  -22.7700  -12.3390   22.3480 H   0  0  0  0  0  0  0  0  0  0  0  0
  -21.4890  -13.5030   22.1650 H   0  0  0  0  0  0  0  0  0  0  0  0
  -25.7600  -15.4470   20.1010 N   0  0  0  0  0  0  0  0  0  0  0  0
  -25.0120  -16.1170   20.2340 H   0  0  0  0  0  0  0  0  0  0  0  0
  -26.5920  -15.8610   19.6990 H   0  0  0  0  0  0  0  0  0  0  0  0
  1  3  1  0
  2  6  2  0
  3  4  2  0
  3  9  1  0
  4  8  1  0
  5  2  1  0
  5  1  2  0
  6 13  1  0
  6  4  1  0
  8  7  1  0
  8 11  1  0
  9  7  1  0
  9 12  1  1
 10  5  1  0
 14 16  1  0
 14 13  1  0
 15 26  2  0
 16 21  1  0
 17 25  1  0
 17 27  1  0
 18 24  1  0
 18 20  1  0
 19 25  1  0
 20 19  1  0
 21 20  2  0
 22 23  1  0
 22 16  2  0
 23 18  2  0
 24 17  1  0
 25 15  1  0
 27 29  2  0
 28 27  1  0
 30 28  1  0
 31 40  2  0
 31 36  1  0
 32 28  1  0
 32 36  1  0
 33 32  1  0
 34 35  1  0
 34 33  1  0
 35 31  1  0
 36 37  2  0
 37 38  1  0
 39 38  2  0
 40 39  1  0
 41 15  1  0
 41 46  1  0
 41 42  1  0
 42 45  1  1
 42 43  1  0
 44 42  1  0
 46 49  1  0
 47 51  1  0
 47 46  1  0
 48 47  2  0
 51 50  1  0
 53 51  1  0
 53 54  1  0
 53 52  1  0
 55  9  1  0
 56 65  1  0
 56 55  1  0
 57 63  1  0
 57 65  1  0
 58 63  1  0
 59 60  1  0
 59 58  1  0
 61 60  1  0
 61 70  1  0
 61 62  1  0
 63 62  1  0
 64 57  2  0
 65 66  1  0
 67 68  2  0
 68 87  1  0
 69 68  1  0
 69 72  1  0
 70 71  1  0
 70 67  1  0
 71 69  2  0
 72 73  1  0
 73 74  2  0
 75 78  1  0
 75 74  1  0
 76 75  2  0
 77 76  1  0
 77 72  2  0
 78 79  1  0
 79 80  1  0
 80 81  2  0
 82 81  1  0
 82 86  1  0
 83 82  2  0
 84 79  2  0
 84 83  1  0
 85 84  1  0
 87 88  1  0
 88 91  1  0
 88 90  1  0
 89 87  2  0
 92 93  1  0
 92 67  1  0
 94 92  1  0
M  ISO  4  13 101  14 101  57 100  65 100
M  END
>  <TORSDO>  (44) 
F 19

>  <SCORE>  (44) 
-13.073

>  <name>  (44) 
43

>  <ligand_id>  (44) 
43

>  <original_smiles>  (44) 
[H]c1c([H])c([H])c2c(c1[H])C([H])([H])C([H])([H])C([H])([H])C2([H])N([H])C(=O)C1([H])N(C(=O)C([H])(N([H])C(=O)C([H])(N([H])C([H])([H])[H])C([H])([H])[H])C(C([H])([H])[H])(C([H])([H])[H])C([H])([H])[H])C([H])([H])c2c([H])c(OC([H])([H])c3c([H])c(C([H])([H])[H])c([H])c4c3C([H])(C([H])([H])[H])C([H])([H])C4(C([H])([H])[H])C([H])([H])C([H])([H])N([H])C(=O)N3C([H])([H])C([H])([H])C([H])([H])C([H])(n4nc(-c5c([H])c([H])c(Oc6c([H])c([H])c(F)c([H])c6F)c([H])c5[H])c(C(=O)N([H])[H])c4N([H])[H])C3([H])[H])c([H])c([H])c2C1([H])[H]

>  <smiles>  (44) 
[H]c1c([H])c([H])c2c(c1[H])C([H])([H])C([H])([H])C([H])([H])C2([H])N([H])C(=O)C1([H])N(C(=O)C([H])(N([H])C(=O)C([H])(N([H])C([H])([H])[H])C([H])([H])[H])C(C([H])([H])[H])(C([H])([H])[H])C([H])([H])[H])C([H])([H])c2c([H])c(OC([H])([H])c3c([H])c(C([H])([H])[H])c([H])c4c3C([H])(C([H])([H])[H])C([H])([H])C4(C([H])([H])[H])C([H])([H])C([H])([H])N([H])C(=O)N3C([H])([H])C([H])([H])C([H])([H])C([H])(n4nc(-c5c([H])c([H])c(Oc6c([H])c([H])c(F)c([H])c6F)c([H])c5[H])c(C(=O)N([H])[H])c4N([H])[H])C3([H])[H])c([H])c([H])c2C1([H])[H]

$$$$
44:0:0
     RDKit          3D

 96105  0  0  1  0  0  0  0  0999 V2000
  -27.4970  -20.1640   19.4170 C   0  0  0  0  0  3  0  0  0  0  0  0
  -28.8320  -20.2080   19.8470 C   0  0  0  0  0  0  0  0  0  0  0  0
  -29.3970  -21.5190   20.0310 C   0  0  0  0  0  0  0  0  0  0  0  0
  -28.6770  -22.7100   19.6120 C   0  0  0  0  0  0  0  0  0  0  0  0
  -27.3420  -22.4660   19.1860 C   0  0  0  0  0  0  0  0  0  0  0  0
  -30.7670  -21.6050   20.6990 C   0  0  0  0  0  1  0  0  0  0  0  0
  -26.7710  -21.2550   19.1280 N   0  0  0  0  0  0  0  0  0  0  0  0
  -26.4470  -23.4310   18.7770 N   0  0  0  0  0  0  0  0  0  0  0  0
  -26.8210  -24.2850   18.3880 H   0  0  0  0  0  0  0  0  0  0  0  0
  -25.6130  -23.1070   18.3070 H   0  0  0  0  0  0  0  0  0  0  0  0
  -30.8040  -14.6100   20.0160 C   0  0  0  0  0  0  0  0  0  0  0  0
  -30.4410  -12.4080   18.9610 C   0  0  0  0  0  2  0  0  0  0  0  0
  -29.4460  -12.5680   17.7940 C   0  0  0  0  0  2  0  0  0  0  0  0
  -27.9980  -12.4290   18.3010 C   0  0  0  0  0  2  0  0  0  0  0  0
  -27.7140  -13.2840   19.5670 C   0  0  0  0  0  3  0  0  0  0  0  0
  -28.8320  -13.1390   20.6220 C   0  0  0  0  0  2  0  0  0  0  0  0
  -30.1020  -13.4420   19.9550 N   0  0  0  0  0  0  0  0  0  0  0  0
  -31.9900  -14.6450   19.6760 O   0  0  0  0  0  0  0  0  0  0  0  0
  -29.1350  -17.9150   21.1510 C   0  0  0  0  0  2  0  0  0  0  0  0
  -29.5180  -17.9650   18.7430 C   0  0  0  0  0  2  0  0  0  0  0  0
  -29.9510  -16.5750   21.2540 C   0  0  0  0  0  2  0  0  0  0  0  0
  -30.3760  -16.6780   18.8470 C   0  0  0  0  0  2  0  0  0  0  0  0
  -29.6010  -18.8480   20.0060 C   0  0  0  0  0  3  0  0  0  0  0  0
  -30.0850  -15.7870   20.0010 N   0  0  0  0  0  0  0  0  0  0  0  0
  -25.3720  -13.8700   20.4420 C   0  0  0  0  0  0  0  0  0  0  0  0
  -24.3230  -13.0930   20.8490 C   0  0  0  0  0  0  0  0  0  0  0  0
  -24.7750  -11.7400   20.7570 C   0  0  0  0  0  0  0  0  0  0  0  0
  -26.3960  -12.9930   20.1260 N   0  0  0  0  0  0  0  0  0  0  0  0
  -26.0460  -11.7050   20.3780 N   0  0  0  0  0  0  0  0  0  0  0  0
  -24.0510  -10.4760   20.9520 C   0  0  0  0  0  0  0  0  0  0  0  0
  -24.4880   -9.5130   21.8880 C   0  0  0  0  0  3  0  0  0  0  0  0
  -23.7650   -8.3130   22.0700 C   0  0  0  0  0  3  0  0  0  0  0  0
  -22.5920   -8.0700   21.3170 C   0  0  0  0  0  0  0  0  0  0  0  0
  -22.1760   -9.0220   20.3700 C   0  0  0  0  0  3  0  0  0  0  0  0
  -22.8980  -10.2120   20.1850 C   0  0  0  0  0  3  0  0  0  0  0  0
  -21.8400   -6.9230   21.4110 O   0  0  0  0  0  0  0  0  0  0  0  0
  -21.7350   -6.2250   22.5860 C   0  0  0  0  0  0  0  0  0  0  0  0
  -21.2060   -6.8120   23.7570 C   0  0  0  0  0  3  0  0  0  0  0  0
  -21.0510   -6.0370   24.9230 C   0  0  0  0  0  3  0  0  0  0  0  0
  -21.4140   -4.6770   24.9210 C   0  0  0  0  0  0  0  0  0  0  0  0
  -21.9360   -4.0910   23.7550 C   0  0  0  0  0  3  0  0  0  0  0  0
  -22.0930   -4.8620   22.5910 C   0  0  0  0  0  0  0  0  0  0  0  0
  -22.5760   -4.2850   21.4630 F   0  0  0  0  0  0  0  0  0  0  0  0
  -21.2570   -3.9320   26.0400 F   0  0  0  0  0  0  0  0  0  0  0  0
  -22.9450  -13.5690   21.2090 C   0  0  0  0  0  0  0  0  0  0  0  0
  -22.2610  -12.8540   22.0950 N   0  0  0  0  0  0  0  0  0  0  0  0
  -22.4860  -14.6100   20.7400 O   0  0  0  0  0  0  0  0  0  0  0  0
  -22.6470  -12.0130   22.4960 H   0  0  0  0  0  0  0  0  0  0  0  0
  -21.3380  -13.1560   22.3780 H   0  0  0  0  0  0  0  0  0  0  0  0
  -25.5380  -15.2430   20.2910 N   0  0  0  0  0  0  0  0  0  0  0  0
  -24.7920  -15.9040   20.4750 H   0  0  0  0  0  0  0  0  0  0  0  0
  -26.3830  -15.6820   19.9500 H   0  0  0  0  0  0  0  0  0  0  0  0
  -30.6560  -24.0580   18.7000 C   0  0  0  0  0  1  0  0  0  0  0  0
  -29.3820  -24.1440   19.5800 C   0  0  0  0  0  3  0  0  0  0  0  0
  -28.6420  -25.4990   19.1330 C   0  0  0  0  0  2  0  0  0  0  0  0
  -28.4150  -26.5690   20.1050 O   0  0  0  0  0  0  0  0  0  0  0  0
  -24.5650  -31.8230   23.1480 C   0  0  0  0  0  0  0  0  0  0  0  0
  -27.2680  -27.3640   20.0470 C   0  0  0  0  0  0  0  0  0  0  0  0
  -23.4010  -30.4470   21.4620 C   0  0  0  0  0  3  0  0  0  0  0  0
  -24.8850  -28.9360   20.0400 C   0  0  0  0  0  0  0  0  0  0  0  0
  -25.9400  -30.7900   21.3330 C   0  0  0  0  0  2  0  0  0  0  0  0
  -26.0390  -29.4280   20.6630 C   0  0  0  0  0  0  0  0  0  0  0  0
  -27.2310  -28.6500   20.6640 C   0  0  0  0  0  3  0  0  0  0  0  0
  -26.0780  -26.9050   19.4400 C   0  0  0  0  0  3  0  0  0  0  0  0
  -24.9040  -27.6750   19.4290 C   0  0  0  0  0  3  0  0  0  0  0  0
  -23.6430  -29.7980   20.0760 C   0  0  0  0  0  2  0  0  0  0  0  0
  -24.6530  -31.0360   22.0380 N   0  0  0  0  0  0  0  0  0  0  0  0
  -23.4700  -32.0860   23.6650 O   0  0  0  0  0  0  0  0  0  0  0  0
  -22.7280  -29.4070   22.3890 C   0  0  0  0  0  0  0  0  0  0  0  0
  -21.4030  -29.2430   22.2490 N   0  0  0  0  0  0  0  0  0  0  0  0
  -23.3990  -28.7530   23.1920 O   0  0  0  0  0  0  0  0  0  0  0  0
  -20.9230  -29.8220   21.5740 H   0  0  0  0  0  0  0  0  0  0  0  0
  -18.0060  -28.0980   22.7220 C   0  0  0  0  0  0  0  0  0  0  0  0
  -20.5700  -28.2950   22.9900 C   0  0  0  0  0  3  0  0  0  0  0  0
  -20.6410  -26.8840   22.3630 C   0  0  0  0  0  2  0  0  0  0  0  0
  -19.5290  -26.6180   21.3440 C   0  0  0  0  0  2  0  0  0  0  0  0
  -18.1530  -26.7700   21.9990 C   0  0  0  0  0  2  0  0  0  0  0  0
  -19.1410  -28.8220   23.1730 C   0  0  0  0  0  0  0  0  0  0  0  0
  -18.9510  -30.0680   23.8090 C   0  0  0  0  0  3  0  0  0  0  0  0
  -17.6570  -30.5890   23.9980 C   0  0  0  0  0  3  0  0  0  0  0  0
  -16.5360  -29.8610   23.5630 C   0  0  0  0  0  3  0  0  0  0  0  0
  -16.7110  -28.6170   22.9310 C   0  0  0  0  0  3  0  0  0  0  0  0
  -25.8330  -32.4500   23.8060 C   0  0  0  0  0  3  0  0  0  0  0  0
  -25.5130  -33.8430   24.1450 N   0  0  0  0  0  0  0  0  0  0  0  0
  -25.8460  -34.9040   23.4000 C   0  0  0  0  0  0  0  0  0  0  0  0
  -26.5270  -34.8140   22.3730 O   0  0  0  0  0  0  0  0  0  0  0  0
  -24.9090  -33.9880   24.9410 H   0  0  0  0  0  0  0  0  0  0  0  0
  -24.1100  -36.6890   23.0430 C   0  0  0  0  0  1  0  0  0  0  0  0
  -25.3460  -36.2850   23.8640 C   0  0  0  0  0  3  0  0  0  0  0  0
  -27.4610  -37.1790   24.7300 C   0  0  0  0  0  1  0  0  0  0  0  0
  -26.3740  -37.3450   23.7720 N   0  0  0  0  0  0  0  0  0  0  0  0
  -25.9590  -38.2620   23.9170 H   0  0  0  0  0  0  0  0  0  0  0  0
  -26.3210  -31.6650   25.0850 C   0  0  1  0  0  0  0  0  0  0  0  0
  -25.2040  -31.4120   26.1240 C   0  0  0  0  0  1  0  0  0  0  0  0
  -26.9170  -30.2930   24.6900 C   0  0  0  0  0  1  0  0  0  0  0  0
  -27.4550  -32.4530   25.7820 C   0  0  0  0  0  1  0  0  0  0  0  0
  1  2  1  0
  2  3  2  0
  3  6  1  0
  4  3  1  0
  5  4  2  0
  7  5  1  0
  7  1  2  0
  8  5  1  0
  9  8  1  0
 10  8  1  0
 12 17  1  0
 13 14  1  0
 13 12  1  0
 15 14  1  0
 15 28  1  0
 15 16  1  0
 17 11  1  0
 17 16  1  0
 18 11  2  0
 19 21  1  0
 20 22  1  0
 20 23  1  0
 22 24  1  0
 23  2  1  0
 23 19  1  0
 24 11  1  0
 24 21  1  0
 25 26  2  0
 26 45  1  0
 27 26  1  0
 27 30  1  0
 28 29  1  0
 28 25  1  0
 29 27  2  0
 30 31  1  0
 31 32  2  0
 33 36  1  0
 33 32  1  0
 34 33  2  0
 35 34  1  0
 35 30  2  0
 36 37  1  0
 37 42  2  0
 37 38  1  0
 38 39  2  0
 40 39  1  0
 40 44  1  0
 41 40  2  0
 42 41  1  0
 43 42  1  0
 45 46  1  0
 46 49  1  0
 46 48  1  0
 47 45  2  0
 50 25  1  0
 50 51  1  0
 52 50  1  0
 54 53  1  0
 54  4  1  0
 55 54  1  0
 55 56  1  0
 57 68  2  0
 58 56  1  0
 58 63  1  0
 59 67  1  0
 59 69  1  0
 60 66  1  0
 60 62  1  0
 61 67  1  0
 62 63  2  0
 62 61  1  0
 64 58  2  0
 65 64  1  0
 65 60  2  0
 66 59  1  0
 67 57  1  0
 69 71  2  0
 70 69  1  0
 72 70  1  0
 73 82  2  0
 73 78  1  0
 74 70  1  0
 74 78  1  0
 75 74  1  0
 76 77  1  0
 76 75  1  0
 77 73  1  0
 78 79  2  0
 79 80  1  0
 81 80  2  0
 82 81  1  0
 83 57  1  0
 83 84  1  0
 83 93  1  0
 84 87  1  0
 85 89  1  0
 85 84  1  0
 86 85  2  0
 89 88  1  0
 91 89  1  0
 91 92  1  0
 91 90  1  0
 93 96  1  1
 93 94  1  0
 95 93  1  0
M  ISO  4  11 100  24 100  55 101  56 101
M  END
>  <TORSDO>  (45) 
F 18

>  <SCORE>  (45) 
-14.396

>  <name>  (45) 
44

>  <ligand_id>  (45) 
44

>  <original_smiles>  (45) 
[H]c1nc(N([H])[H])c(C([H])(C([H])([H])[H])C([H])([H])Oc2c([H])c([H])c3c(c2[H])C([H])([H])N(C(=O)C([H])(N([H])C(=O)C([H])(N([H])C([H])([H])[H])C([H])([H])[H])C(C([H])([H])[H])(C([H])([H])[H])C([H])([H])[H])C([H])(C(=O)N([H])C2([H])c4c([H])c([H])c([H])c([H])c4C([H])([H])C([H])([H])C2([H])[H])C3([H])[H])c(C([H])([H])[H])c1C1([H])C([H])([H])C([H])([H])N(C(=O)N2C([H])([H])C([H])([H])C([H])([H])C([H])(n3nc(-c4c([H])c([H])c(Oc5c([H])c([H])c(F)c([H])c5F)c([H])c4[H])c(C(=O)N([H])[H])c3N([H])[H])C2([H])[H])C([H])([H])C1([H])[H]

>  <smiles>  (45) 
[H]c1nc(N([H])[H])c(C([H])(C([H])([H])[H])C([H])([H])Oc2c([H])c([H])c3c(c2[H])C([H])([H])N(C(=O)C([H])(N([H])C(=O)C([H])(N([H])C([H])([H])[H])C([H])([H])[H])C(C([H])([H])[H])(C([H])([H])[H])C([H])([H])[H])C([H])(C(=O)N([H])C2([H])c4c([H])c([H])c([H])c([H])c4C([H])([H])C([H])([H])C2([H])[H])C3([H])[H])c(C([H])([H])[H])c1C1([H])C([H])([H])C([H])([H])N(C(=O)N2C([H])([H])C([H])([H])C([H])([H])C([H])(n3nc(-c4c([H])c([H])c(Oc5c([H])c([H])c(F)c([H])c5F)c([H])c4[H])c(C(=O)N([H])[H])c3N([H])[H])C2([H])[H])C([H])([H])C1([H])[H]

$$$$
45:0:0
     RDKit          3D

 99107  0  0  1  0  0  0  0  0999 V2000
  -31.7740  -14.2030   20.3930 C   0  0  0  0  0  0  0  0  0  0  0  0
  -31.5080  -11.7680   20.0180 C   0  0  0  0  0  2  0  0  0  0  0  0
  -30.7720  -11.5410   18.6810 C   0  0  0  0  0  2  0  0  0  0  0  0
  -29.2450  -11.5660   18.8940 C   0  0  0  0  0  2  0  0  0  0  0  0
  -28.7750  -12.7780   19.7440 C   0  0  0  0  0  3  0  0  0  0  0  0
  -29.6460  -12.9570   21.0060 C   0  0  0  0  0  2  0  0  0  0  0  0
  -31.0410  -13.0590   20.5630 N   0  0  0  0  0  0  0  0  0  0  0  0
  -32.9930  -14.1360   20.2030 O   0  0  0  0  0  0  0  0  0  0  0  0
  -30.5930  -17.1700   18.2740 C   0  0  0  0  0  2  0  0  0  0  0  0
  -30.6290  -17.7670   20.6700 C   0  0  0  0  0  2  0  0  0  0  0  0
  -31.5990  -16.0960   18.8110 C   0  0  0  0  0  2  0  0  0  0  0  0
  -30.3970  -16.2370   20.9400 C   0  0  0  0  0  2  0  0  0  0  0  0
  -30.1260  -18.3020   19.2740 C   0  0  2  0  0  0  0  0  0  0  0  0
  -31.1040  -15.3410   19.9920 N   0  0  0  0  0  0  0  0  0  0  0  0
  -27.9250  -19.5640   18.6750 C   0  0  0  0  0  3  0  0  0  0  0  0
  -27.7740  -17.5650   20.0260 C   0  0  0  0  0  3  0  0  0  0  0  0
  -28.5820  -18.4770   19.3050 C   0  0  0  0  0  0  0  0  0  0  0  0
  -26.5170  -19.6680   18.6570 C   0  0  0  0  0  0  0  0  0  0  0  0
  -25.7260  -18.6950   19.3150 C   0  0  0  0  0  0  0  0  0  0  0  0
  -26.3710  -17.6590   20.0290 C   0  0  0  0  0  3  0  0  0  0  0  0
  -25.8770  -20.8290   17.9160 C   0  0  0  0  0  1  0  0  0  0  0  0
  -24.2040  -18.7770   19.2790 C   0  0  0  0  0  1  0  0  0  0  0  0
  -25.4750  -16.4840   20.9280 Cl  0  0  0  0  0 15  0  0  0  0  0  0
  -26.3940  -13.6850   20.0440 C   0  0  0  0  0  0  0  0  0  0  0  0
  -25.2110  -13.0720   20.3560 C   0  0  0  0  0  0  0  0  0  0  0  0
  -25.5250  -11.6930   20.5640 C   0  0  0  0  0  0  0  0  0  0  0  0
  -27.3570  -12.6890   20.0690 N   0  0  0  0  0  0  0  0  0  0  0  0
  -26.8310  -11.4940   20.4430 N   0  0  0  0  0  0  0  0  0  0  0  0
  -24.6490  -10.5400   20.8130 C   0  0  0  0  0  0  0  0  0  0  0  0
  -24.9410   -9.5920   21.8180 C   0  0  0  0  0  3  0  0  0  0  0  0
  -24.0720   -8.5040   22.0510 C   0  0  0  0  0  3  0  0  0  0  0  0
  -22.8970   -8.3570   21.2770 C   0  0  0  0  0  0  0  0  0  0  0  0
  -22.6230   -9.2890   20.2610 C   0  0  0  0  0  3  0  0  0  0  0  0
  -23.4920  -10.3690   20.0270 C   0  0  0  0  0  3  0  0  0  0  0  0
  -22.0080   -7.3180   21.4140 O   0  0  0  0  0  0  0  0  0  0  0  0
  -21.9040   -6.6100   22.5850 C   0  0  0  0  0  0  0  0  0  0  0  0
  -21.4810   -7.2170   23.7880 C   0  0  0  0  0  3  0  0  0  0  0  0
  -21.3210   -6.4380   24.9510 C   0  0  0  0  0  3  0  0  0  0  0  0
  -21.5720   -5.0530   24.9120 C   0  0  0  0  0  0  0  0  0  0  0  0
  -21.9880   -4.4460   23.7140 C   0  0  0  0  0  3  0  0  0  0  0  0
  -22.1490   -5.2210   22.5530 C   0  0  0  0  0  0  0  0  0  0  0  0
  -22.5300   -4.6280   21.3960 F   0  0  0  0  0  0  0  0  0  0  0  0
  -21.4110   -4.3020   26.0270 F   0  0  0  0  0  0  0  0  0  0  0  0
  -23.8510  -13.7080   20.3650 C   0  0  0  0  0  0  0  0  0  0  0  0
  -22.9980  -13.3170   21.3050 N   0  0  0  0  0  0  0  0  0  0  0  0
  -23.5530  -14.5930   19.5640 O   0  0  0  0  0  0  0  0  0  0  0  0
  -23.2490  -12.6060   21.9750 H   0  0  0  0  0  0  0  0  0  0  0  0
  -22.0810  -13.7360   21.3530 H   0  0  0  0  0  0  0  0  0  0  0  0
  -26.7290  -14.9940   19.7230 N   0  0  0  0  0  0  0  0  0  0  0  0
  -26.0450  -15.7410   19.6910 H   0  0  0  0  0  0  0  0  0  0  0  0
  -27.6670  -15.3190   19.5240 H   0  0  0  0  0  0  0  0  0  0  0  0
  -30.7680  -19.7440   18.9950 C   0  0  0  0  0  2  0  0  0  0  0  0
  -30.0250  -20.8570   18.1650 C   0  0  0  0  0  0  0  0  0  0  0  0
  -29.8180  -22.0860   18.7260 N   0  0  0  0  0  0  0  0  0  0  0  0
  -29.6870  -20.6340   17.0020 O   0  0  0  0  0  0  0  0  0  0  0  0
  -30.1130  -22.1950   19.6880 H   0  0  0  0  0  0  0  0  0  0  0  0
  -29.3120  -23.3300   18.0580 C   0  0  0  0  0  3  0  0  0  0  0  0
  -28.9890  -24.5400   19.0210 C   0  0  0  0  0  3  0  0  0  0  0  0
  -28.8530  -25.8810   18.4410 O   0  0  0  0  0  0  0  0  0  0  0  0
  -25.2770  -29.9530   23.1590 C   0  0  0  0  0  0  0  0  0  0  0  0
  -27.7070  -26.6020   18.7530 C   0  0  0  0  0  0  0  0  0  0  0  0
  -23.9590  -29.0320   21.2810 C   0  0  0  0  0  3  0  0  0  0  0  0
  -25.3140  -28.0110   19.3660 C   0  0  0  0  0  0  0  0  0  0  0  0
  -26.4600  -29.5110   21.0010 C   0  0  0  0  0  2  0  0  0  0  0  0
  -26.5140  -28.3780   19.9890 C   0  0  0  0  0  0  0  0  0  0  0  0
  -27.7170  -27.6880   19.6720 C   0  0  0  0  0  3  0  0  0  0  0  0
  -26.4880  -26.2690   18.1290 C   0  0  0  0  0  3  0  0  0  0  0  0
  -25.3000  -26.9640   18.4290 C   0  0  0  0  0  3  0  0  0  0  0  0
  -24.0680  -28.7800   19.7520 C   0  0  0  0  0  2  0  0  0  0  0  0
  -25.2560  -29.4970   21.8730 N   0  0  0  0  0  0  0  0  0  0  0  0
  -24.2410  -30.0190   23.8360 O   0  0  0  0  0  0  0  0  0  0  0  0
  -23.4010  -27.7570   21.9580 C   0  0  0  0  0  0  0  0  0  0  0  0
  -22.1010  -27.4890   21.7580 N   0  0  0  0  0  0  0  0  0  0  0  0
  -24.1380  -27.0230   22.6220 O   0  0  0  0  0  0  0  0  0  0  0  0
  -21.5630  -28.1480   21.2120 H   0  0  0  0  0  0  0  0  0  0  0  0
  -18.9590  -25.7090   21.5800 C   0  0  0  0  0  0  0  0  0  0  0  0
  -21.3760  -26.3210   22.2600 C   0  0  0  0  0  3  0  0  0  0  0  0
  -21.8030  -25.0350   21.5130 C   0  0  0  0  0  2  0  0  0  0  0  0
  -20.9080  -24.7070   20.3130 C   0  0  0  0  0  2  0  0  0  0  0  0
  -19.4540  -24.5290   20.7600 C   0  0  0  0  0  2  0  0  0  0  0  0
  -19.8620  -26.5580   22.2720 C   0  0  0  0  0  0  0  0  0  0  0  0
  -19.3510  -27.6590   22.9920 C   0  0  0  0  0  3  0  0  0  0  0  0
  -17.9670  -27.9160   23.0290 C   0  0  0  0  0  3  0  0  0  0  0  0
  -17.0760  -27.0640   22.3540 C   0  0  0  0  0  3  0  0  0  0  0  0
  -17.5720  -25.9610   21.6360 C   0  0  0  0  0  3  0  0  0  0  0  0
  -26.6000  -30.4310   23.8360 C   0  0  0  0  0  3  0  0  0  0  0  0
  -27.1390  -29.4260   24.9260 C   0  0  1  0  0  0  0  0  0  0  0  0
  -26.0790  -29.0240   25.9780 C   0  0  0  0  0  1  0  0  0  0  0  0
  -27.6600  -28.1300   24.2640 C   0  0  0  0  0  1  0  0  0  0  0  0
  -28.3380  -30.0560   25.6740 C   0  0  0  0  0  1  0  0  0  0  0  0
  -26.3410  -31.7500   24.4300 N   0  0  0  0  0  0  0  0  0  0  0  0
  -26.9320  -32.8880   24.0440 C   0  0  0  0  0  0  0  0  0  0  0  0
  -27.8190  -32.9240   23.1860 O   0  0  0  0  0  0  0  0  0  0  0  0
  -25.5900  -31.8020   25.1030 H   0  0  0  0  0  0  0  0  0  0  0  0
  -25.7010  -35.0550   23.7070 C   0  0  0  0  0  1  0  0  0  0  0  0
  -26.4710  -34.1940   24.7200 C   0  0  0  0  0  3  0  0  0  0  0  0
  -28.1700  -34.3670   26.4870 C   0  0  0  0  0  1  0  0  0  0  0  0
  -27.5810  -34.9820   25.2990 N   0  0  0  0  0  0  0  0  0  0  0  0
  -27.2680  -35.9160   25.5490 H   0  0  0  0  0  0  0  0  0  0  0  0
  1  7  1  0
  2  7  1  0
  3  4  1  0
  3  2  1  0
  5  4  1  0
  5 27  1  0
  5  6  1  0
  7  6  1  0
  8  1  2  0
  9 11  1  0
  9 13  1  0
 10 12  1  0
 11 14  1  0
 13 52  1  6
 13 17  1  0
 13 10  1  0
 14  1  1  0
 14 12  1  0
 15 17  1  0
 16 20  1  0
 17 16  2  0
 18 15  2  0
 18 19  1  0
 19 20  2  0
 21 18  1  0
 22 19  1  0
 24 27  1  0
 24 25  2  0
 25 44  1  0
 25 26  1  0
 26 29  1  0
 27 28  1  0
 28 26  2  0
 29 30  1  0
 30 31  2  0
 32 35  1  0
 32 31  1  0
 33 32  2  0
 34 33  1  0
 34 29  2  0
 35 36  1  0
 36 37  1  0
 37 38  2  0
 39 38  1  0
 39 43  1  0
 40 39  2  0
 41 36  2  0
 41 40  1  0
 42 41  1  0
 44 45  1  0
 45 48  1  0
 45 47  1  0
 46 44  2  0
 49 24  1  0
 50 49  1  0
 51 49  1  0
 53 54  1  0
 53 52  1  0
 54 56  1  0
 55 53  2  0
 57 54  1  0
 57 58  2  0
 59 61  1  0
 59 58  1  0
 60 71  2  0
 61 66  1  0
 62 70  1  0
 62 72  1  0
 63 69  1  0
 63 65  1  0
 64 70  1  0
 65 64  1  0
 66 65  2  0
 67 68  1  0
 67 61  2  0
 68 63  2  0
 69 62  1  0
 70 60  1  0
 72 74  2  0
 73 72  1  0
 75 73  1  0
 76 85  2  0
 76 81  1  0
 77 73  1  0
 77 81  1  0
 78 77  1  0
 79 80  1  0
 79 78  1  0
 80 76  1  0
 81 82  2  0
 82 83  1  0
 84 83  2  0
 85 84  1  0
 86 60  1  0
 86 91  1  0
 86 87  1  0
 87 90  1  1
 87 88  1  0
 89 87  1  0
 91 94  1  0
 92 91  1  0
 92 96  1  0
 93 92  2  0
 96 95  1  0
 96 98  1  0
 98 99  1  0
 98 97  1  0
M  ISO  4   1 100  14 100  58 101  59 101
M  END
>  <TORSDO>  (46) 
F 20

>  <SCORE>  (46) 
-8.277

>  <name>  (46) 
45

>  <ligand_id>  (46) 
45

>  <original_smiles>  (46) 
[H]c1c([H])c([H])c2c(c1[H])C([H])([H])C([H])([H])C([H])([H])C2([H])N([H])C(=O)C1([H])N(C(=O)C([H])(N([H])C(=O)C([H])(N([H])C([H])([H])[H])C([H])([H])[H])C(C([H])([H])[H])(C([H])([H])[H])C([H])([H])[H])C([H])([H])c2c([H])c(OC([H])([H])C([H])([H])N([H])C(=O)C([H])([H])C3(c4c([H])c(Cl)c(C([H])([H])[H])c(C([H])([H])[H])c4[H])C([H])([H])C([H])([H])N(C(=O)N4C([H])([H])C([H])([H])C([H])([H])C([H])(n5nc(-c6c([H])c([H])c(Oc7c([H])c([H])c(F)c([H])c7F)c([H])c6[H])c(C(=O)N([H])[H])c5N([H])[H])C4([H])[H])C([H])([H])C3([H])[H])c([H])c([H])c2C1([H])[H]

>  <smiles>  (46) 
[H]c1c([H])c([H])c2c(c1[H])C([H])([H])C([H])([H])C([H])([H])C2([H])N([H])C(=O)C1([H])N(C(=O)C([H])(N([H])C(=O)C([H])(N([H])C([H])([H])[H])C([H])([H])[H])C(C([H])([H])[H])(C([H])([H])[H])C([H])([H])[H])C([H])([H])c2c([H])c(OC([H])([H])C([H])([H])N([H])C(=O)C([H])([H])C3(c4c([H])c(Cl)c(C([H])([H])[H])c(C([H])([H])[H])c4[H])C([H])([H])C([H])([H])N(C(=O)N4C([H])([H])C([H])([H])C([H])([H])C([H])(n5nc(-c6c([H])c([H])c(Oc7c([H])c([H])c(F)c([H])c7F)c([H])c6[H])c(C(=O)N([H])[H])c5N([H])[H])C4([H])[H])C([H])([H])C3([H])[H])c([H])c([H])c2C1([H])[H]

$$$$
46:0:0
     RDKit          3D

 99108  0  0  1  0  0  0  0  0999 V2000
  -30.9100  -21.7640   23.0510 C   0  0  0  0  0  3  0  0  0  0  0  0
  -31.6160  -20.7940   23.7850 C   0  0  0  0  0  0  0  0  0  0  0  0
  -31.3180  -19.4190   23.6150 C   0  0  0  0  0  0  0  0  0  0  0  0
  -30.3790  -19.0090   22.6200 C   0  0  0  0  0  0  0  0  0  0  0  0
  -29.6060  -20.0110   21.9560 C   0  0  0  0  0  0  0  0  0  0  0  0
  -29.8680  -21.3890   22.1880 C   0  0  0  0  0  0  0  0  0  0  0  0
  -32.6770  -21.2600   24.7690 C   0  0  0  0  0  1  0  0  0  0  0  0
  -31.9650  -18.3850   24.5320 C   0  0  0  0  0  1  0  0  0  0  0  0
  -28.4580  -19.6510   21.0120 C   0  0  0  0  0  1  0  0  0  0  0  0
  -29.0350  -22.3700   21.6290 N   0  0  0  0  0  0  0  0  0  0  0  0
  -28.2740  -21.9920   21.0760 H   0  0  0  0  0  0  0  0  0  0  0  0
  -29.0120  -24.8110   21.9160 C   0  0  0  0  0  2  0  0  0  0  0  0
  -29.2090  -23.6870   19.5960 C   0  0  0  0  0  2  0  0  0  0  0  0
  -29.1730  -26.1760   21.2220 C   0  0  0  0  0  2  0  0  0  0  0  0
  -29.3790  -25.0860   18.9890 C   0  0  0  0  0  2  0  0  0  0  0  0
  -29.5750  -23.6190   21.0970 C   0  0  0  0  0  3  0  0  0  0  0  0
  -28.5700  -26.0890   19.8150 C   0  0  0  0  0  3  0  0  0  0  0  0
  -28.5560  -27.3670   19.1850 O   0  0  0  0  0  0  0  0  0  0  0  0
  -24.7680  -31.5660   23.4640 C   0  0  0  0  0  0  0  0  0  0  0  0
  -27.3830  -28.0560   19.3670 C   0  0  0  0  0  0  0  0  0  0  0  0
  -23.5400  -30.6010   21.5460 C   0  0  0  0  0  3  0  0  0  0  0  0
  -24.9750  -29.4650   19.7740 C   0  0  0  0  0  0  0  0  0  0  0  0
  -26.0560  -31.0270   21.4010 C   0  0  0  0  0  2  0  0  0  0  0  0
  -26.1390  -29.8520   20.4510 C   0  0  0  0  0  0  0  0  0  0  0  0
  -27.3460  -29.1600   20.2410 C   0  0  0  0  0  3  0  0  0  0  0  0
  -26.2050  -27.6710   18.6850 C   0  0  0  0  0  3  0  0  0  0  0  0
  -24.9990  -28.3710   18.8910 C   0  0  0  0  0  3  0  0  0  0  0  0
  -23.7320  -30.2810   20.0390 C   0  0  0  0  0  2  0  0  0  0  0  0
  -24.8080  -31.0610   22.1990 N   0  0  0  0  0  0  0  0  0  0  0  0
  -23.6960  -31.6940   24.0710 O   0  0  0  0  0  0  0  0  0  0  0  0
  -22.9050  -29.3730   22.2360 C   0  0  0  0  0  0  0  0  0  0  0  0
  -21.5850  -29.2030   22.0620 N   0  0  0  0  0  0  0  0  0  0  0  0
  -23.5980  -28.5840   22.8840 O   0  0  0  0  0  0  0  0  0  0  0  0
  -21.0900  -29.9010   21.5270 H   0  0  0  0  0  0  0  0  0  0  0  0
  -18.2190  -27.9040   22.2800 C   0  0  0  0  0  0  0  0  0  0  0  0
  -20.7800  -28.1010   22.5880 C   0  0  0  0  0  3  0  0  0  0  0  0
  -20.8820  -26.8540   21.6790 C   0  0  0  0  0  2  0  0  0  0  0  0
  -19.7700  -26.7820   20.6270 C   0  0  0  0  0  2  0  0  0  0  0  0
  -18.3930  -26.7590   21.2960 C   0  0  0  0  0  2  0  0  0  0  0  0
  -19.3390  -28.5440   22.8740 C   0  0  0  0  0  0  0  0  0  0  0  0
  -19.1230  -29.6270   23.7520 C   0  0  0  0  0  3  0  0  0  0  0  0
  -17.8180  -30.0650   24.0470 C   0  0  0  0  0  3  0  0  0  0  0  0
  -16.7120  -29.4190   23.4660 C   0  0  0  0  0  3  0  0  0  0  0  0
  -16.9160  -28.3420   22.5880 C   0  0  0  0  0  3  0  0  0  0  0  0
  -26.0640  -32.0320   24.1990 C   0  0  0  0  0  3  0  0  0  0  0  0
  -26.5370  -31.0270   25.3190 C   0  0  1  0  0  0  0  0  0  0  0  0
  -25.4240  -30.6390   26.3210 C   0  0  0  0  0  1  0  0  0  0  0  0
  -27.0820  -29.7230   24.6870 C   0  0  0  0  0  1  0  0  0  0  0  0
  -27.7020  -31.6480   26.1270 C   0  0  0  0  0  1  0  0  0  0  0  0
  -25.8010  -33.3610   24.7680 N   0  0  0  0  0  0  0  0  0  0  0  0
  -26.1670  -34.5160   24.1990 C   0  0  0  0  0  0  0  0  0  0  0  0
  -26.8380  -34.5710   23.1630 O   0  0  0  0  0  0  0  0  0  0  0  0
  -25.2190  -33.3920   25.5930 H   0  0  0  0  0  0  0  0  0  0  0  0
  -24.4890  -36.3910   24.1590 C   0  0  0  0  0  1  0  0  0  0  0  0
  -25.7180  -35.8200   24.8850 C   0  0  0  0  0  3  0  0  0  0  0  0
  -27.8730  -36.4950   25.8520 C   0  0  0  0  0  1  0  0  0  0  0  0
  -26.7800  -36.8480   24.9490 N   0  0  0  0  0  0  0  0  0  0  0  0
  -26.3990  -37.7410   25.2490 H   0  0  0  0  0  0  0  0  0  0  0  0
  -30.2330  -17.5050   22.2880 C   0  0  0  0  0  2  0  0  0  0  0  0
  -31.4070  -17.7590   20.0000 C   0  0  0  0  0  1  0  0  0  0  0  0
  -31.3190  -16.9530   21.3140 C   0  0  0  0  0  3  0  0  0  0  0  0
  -31.6460  -14.7320   20.1250 C   0  0  0  0  0  0  0  0  0  0  0  0
  -31.2870  -12.6640   18.8080 C   0  0  0  0  0  2  0  0  0  0  0  0
  -30.2980  -12.9150   17.6510 C   0  0  0  0  0  2  0  0  0  0  0  0
  -28.8300  -12.8370   18.1210 C   0  0  0  0  0  2  0  0  0  0  0  0
  -28.5660  -13.6200   19.4370 C   0  0  0  0  0  3  0  0  0  0  0  0
  -29.6370  -13.2600   20.4850 C   0  0  0  0  0  2  0  0  0  0  0  0
  -30.9570  -13.5800   19.9080 N   0  0  0  0  0  0  0  0  0  0  0  0
  -32.6860  -15.0280   19.5290 O   0  0  0  0  0  0  0  0  0  0  0  0
  -31.0390  -15.5500   21.0020 N   0  0  0  0  0  0  0  0  0  0  0  0
  -30.2100  -15.1560   21.4190 H   0  0  0  0  0  0  0  0  0  0  0  0
  -26.1980  -14.2870   20.2060 C   0  0  0  0  0  0  0  0  0  0  0  0
  -25.1230  -13.5390   20.6100 C   0  0  0  0  0  0  0  0  0  0  0  0
  -25.5520  -12.1780   20.5610 C   0  0  0  0  0  0  0  0  0  0  0  0
  -27.2170  -13.3810   19.9470 N   0  0  0  0  0  0  0  0  0  0  0  0
  -26.8300  -12.1070   20.2110 N   0  0  0  0  0  0  0  0  0  0  0  0
  -24.8040  -10.9320   20.7760 C   0  0  0  0  0  0  0  0  0  0  0  0
  -25.1700  -10.0160   21.7850 C   0  0  0  0  0  3  0  0  0  0  0  0
  -24.4290   -8.8310   21.9800 C   0  0  0  0  0  3  0  0  0  0  0  0
  -23.3070   -8.5540   21.1630 C   0  0  0  0  0  0  0  0  0  0  0  0
  -22.9600   -9.4590   20.1450 C   0  0  0  0  0  3  0  0  0  0  0  0
  -23.7000  -10.6360   19.9500 C   0  0  0  0  0  3  0  0  0  0  0  0
  -22.5460   -7.4140   21.2630 O   0  0  0  0  0  0  0  0  0  0  0  0
  -22.2450   -6.8520   22.4790 C   0  0  0  0  0  0  0  0  0  0  0  0
  -21.6470   -7.5980   23.5180 C   0  0  0  0  0  3  0  0  0  0  0  0
  -21.2920   -6.9660   24.7250 C   0  0  0  0  0  3  0  0  0  0  0  0
  -21.5250   -5.5890   24.8950 C   0  0  0  0  0  0  0  0  0  0  0  0
  -22.1140   -4.8400   23.8580 C   0  0  0  0  0  3  0  0  0  0  0  0
  -22.4690   -5.4690   22.6530 C   0  0  0  0  0  0  0  0  0  0  0  0
  -23.0180   -4.7400   21.6520 F   0  0  0  0  0  0  0  0  0  0  0  0
  -21.1750   -4.9800   26.0510 F   0  0  0  0  0  0  0  0  0  0  0  0
  -23.7460  -14.0500   20.9280 C   0  0  0  0  0  0  0  0  0  0  0  0
  -23.0500  -13.4010   21.8550 N   0  0  0  0  0  0  0  0  0  0  0  0
  -23.2940  -15.0590   20.3880 O   0  0  0  0  0  0  0  0  0  0  0  0
  -23.4260  -12.5890   22.3180 H   0  0  0  0  0  0  0  0  0  0  0  0
  -22.1240  -13.7230   22.1020 H   0  0  0  0  0  0  0  0  0  0  0  0
  -26.3870  -15.6530   20.0170 N   0  0  0  0  0  0  0  0  0  0  0  0
  -25.6470  -16.3330   20.1540 H   0  0  0  0  0  0  0  0  0  0  0  0
  -27.2300  -16.0610   19.6360 H   0  0  0  0  0  0  0  0  0  0  0  0
  1  2  1  0
  2  7  1  0
  3  2  2  0
  3  8  1  0
  4  3  1  0
  5  6  1  0
  5  4  2  0
  6  1  2  0
  9  5  1  0
 10  6  1  0
 11 10  1  0
 13 16  1  0
 14 12  1  0
 15 13  1  0
 15 17  1  0
 16 10  1  0
 16 12  1  0
 17 18  1  0
 17 14  1  0
 18 20  1  0
 19 30  2  0
 20 25  1  0
 21 29  1  0
 21 31  1  0
 22 28  1  0
 22 24  1  0
 23 29  1  0
 24 23  1  0
 25 24  2  0
 26 27  1  0
 26 20  2  0
 27 22  2  0
 28 21  1  0
 29 19  1  0
 31 33  2  0
 32 31  1  0
 34 32  1  0
 35 44  2  0
 35 40  1  0
 36 32  1  0
 36 40  1  0
 37 36  1  0
 38 39  1  0
 38 37  1  0
 39 35  1  0
 40 41  2  0
 41 42  1  0
 43 42  2  0
 44 43  1  0
 45 19  1  0
 45 50  1  0
 45 46  1  0
 46 49  1  1
 46 47  1  0
 48 46  1  0
 50 53  1  0
 51 50  1  0
 51 55  1  0
 52 51  2  0
 55 54  1  0
 55 57  1  0
 57 58  1  0
 57 56  1  0
 59  4  1  0
 61 60  1  0
 61 59  1  0
 62 70  1  0
 63 68  1  0
 64 65  1  0
 64 63  1  0
 66 65  1  0
 66 75  1  0
 66 67  1  0
 68 62  1  0
 68 67  1  0
 69 62  2  0
 70 61  1  0
 70 71  1  0
 72 73  2  0
 73 92  1  0
 74 73  1  0
 74 77  1  0
 75 72  1  0
 75 76  1  0
 76 74  2  0
 77 78  1  0
 78 79  2  0
 80 83  1  0
 80 79  1  0
 81 80  2  0
 82 81  1  0
 82 77  2  0
 83 84  1  0
 84 89  2  0
 84 85  1  0
 85 86  2  0
 86 87  1  0
 87 91  1  0
 88 87  2  0
 89 88  1  0
 90 89  1  0
 92 93  1  0
 93 96  1  0
 93 95  1  0
 94 92  2  0
 97 98  1  0
 97 72  1  0
 99 97  1  0
M  ISO  4  17 101  18 101  62 100  70 100
M  END
>  <TORSDO>  (47) 
F 20

>  <SCORE>  (47) 
-5.648

>  <name>  (47) 
46

>  <ligand_id>  (47) 
46

>  <original_smiles>  (47) 
[H]c1c([H])c([H])c2c(c1[H])C([H])([H])C([H])([H])C([H])([H])C2([H])N([H])C(=O)C1([H])N(C(=O)C([H])(N([H])C(=O)C([H])(N([H])C([H])([H])[H])C([H])([H])[H])C(C([H])([H])[H])(C([H])([H])[H])C([H])([H])[H])C([H])([H])c2c([H])c(OC3([H])C([H])([H])C([H])([H])C([H])(N([H])c4c([H])c(C([H])([H])[H])c(C([H])([H])[H])c(C([H])([H])C([H])(N([H])C(=O)N5C([H])([H])C([H])([H])C([H])([H])C([H])(n6nc(-c7c([H])c([H])c(Oc8c([H])c([H])c(F)c([H])c8F)c([H])c7[H])c(C(=O)N([H])[H])c6N([H])[H])C5([H])[H])C([H])([H])[H])c4C([H])([H])[H])C([H])([H])C3([H])[H])c([H])c([H])c2C1([H])[H]

>  <smiles>  (47) 
[H]c1c([H])c([H])c2c(c1[H])C([H])([H])C([H])([H])C([H])([H])C2([H])N([H])C(=O)C1([H])N(C(=O)C([H])(N([H])C(=O)C([H])(N([H])C([H])([H])[H])C([H])([H])[H])C(C([H])([H])[H])(C([H])([H])[H])C([H])([H])[H])C([H])([H])c2c([H])c(OC3([H])C([H])([H])C([H])([H])C([H])(N([H])c4c([H])c(C([H])([H])[H])c(C([H])([H])[H])c(C([H])([H])C([H])(N([H])C(=O)N5C([H])([H])C([H])([H])C([H])([H])C([H])(n6nc(-c7c([H])c([H])c(Oc8c([H])c([H])c(F)c([H])c8F)c([H])c7[H])c(C(=O)N([H])[H])c6N([H])[H])C5([H])[H])C([H])([H])[H])c4C([H])([H])[H])C([H])([H])C3([H])[H])c([H])c([H])c2C1([H])[H]

$$$$
47:0:0
     RDKit          3D

100110  0  0  1  0  0  0  0  0999 V2000
  -29.8720  -23.6840   19.6930 C   0  0  0  0  0  0  0  0  0  0  0  0
  -30.7170  -23.9420   18.5690 C   0  0  0  0  0  0  0  0  0  0  0  0
  -29.8540  -26.0800   18.3990 C   0  0  0  0  0  0  0  0  0  0  0  0
  -29.0440  -25.8490   19.5260 C   0  0  0  0  0  0  0  0  0  0  0  0
  -29.9810  -27.4620   17.7970 C   0  0  0  0  0  1  0  0  0  0  0  0
  -30.6680  -25.1260   17.9050 N   0  0  0  0  0  0  0  0  0  0  0  0
  -29.0050  -24.6370   20.1350 N   0  0  0  0  0  0  0  0  0  0  0  0
  -31.6430  -22.5840   16.6230 C   0  0  0  0  0  1  0  0  0  0  0  0
  -31.8270  -23.0120   18.0840 C   0  0  0  0  0  3  0  0  0  0  0  0
  -32.9900  -23.6590   18.1870 F   0  0  0  0  0  0  0  0  0  0  0  0
  -29.5170  -22.6190   22.0110 C   0  0  0  0  0  1  0  0  0  0  0  0
  -29.9760  -22.4000   20.5470 C   0  0  0  0  0  3  0  0  0  0  0  0
  -27.8460  -20.9320   19.7080 C   0  0  0  0  0  2  0  0  0  0  0  0
  -27.9270  -19.7520   20.6750 C   0  0  0  0  0  2  0  0  0  0  0  0
  -29.3570  -21.1400   19.8850 C   0  0  0  0  0  3  0  0  0  0  0  0
  -29.3640  -19.9930   20.8140 N   0  0  2  0  0  4  0  0  0  0  0  0
  -29.5410  -20.3420   21.7450 H   0  0  0  0  0  0  0  0  0  0  0  0
  -30.4540  -17.7700   21.5630 C   0  0  0  0  0  2  0  0  0  0  0  0
  -29.9610  -17.7890   19.5050 C   0  0  0  0  0  2  0  0  0  0  0  0
  -30.8310  -16.8650   20.3800 C   0  0  0  0  0  3  0  0  0  0  0  0
  -30.3390  -18.8990   20.5170 C   0  0  0  0  0  3  0  0  0  0  0  0
  -31.0070  -14.4330   19.9580 C   0  0  0  0  0  0  0  0  0  0  0  0
  -30.6420  -12.2390   18.9100 C   0  0  0  0  0  2  0  0  0  0  0  0
  -29.6660  -12.4200   17.7310 C   0  0  0  0  0  2  0  0  0  0  0  0
  -28.2100  -12.3020   18.2240 C   0  0  0  0  0  2  0  0  0  0  0  0
  -27.9210  -13.1840   19.4670 C   0  0  0  0  0  3  0  0  0  0  0  0
  -29.0170  -12.9990   20.5410 C   0  0  0  0  0  2  0  0  0  0  0  0
  -30.3200  -13.2630   19.9130 N   0  0  0  0  0  0  0  0  0  0  0  0
  -32.1020  -14.5830   19.4110 O   0  0  0  0  0  0  0  0  0  0  0  0
  -30.3550  -15.4820   20.4860 N   0  0  0  0  0  0  0  0  0  0  0  0
  -29.4470  -15.3080   20.8930 H   0  0  0  0  0  0  0  0  0  0  0  0
  -25.5750  -13.8160   20.3200 C   0  0  0  0  0  0  0  0  0  0  0  0
  -24.5130  -13.0540   20.7290 C   0  0  0  0  0  0  0  0  0  0  0  0
  -24.9470  -11.6940   20.6450 C   0  0  0  0  0  0  0  0  0  0  0  0
  -26.5890  -12.9240   20.0130 N   0  0  0  0  0  0  0  0  0  0  0  0
  -26.2190  -11.6410   20.2690 N   0  0  0  0  0  0  0  0  0  0  0  0
  -24.2100  -10.4400   20.8480 C   0  0  0  0  0  0  0  0  0  0  0  0
  -24.6190   -9.4900   21.8080 C   0  0  0  0  0  3  0  0  0  0  0  0
  -23.8830   -8.3030   22.0010 C   0  0  0  0  0  3  0  0  0  0  0  0
  -22.7230   -8.0540   21.2320 C   0  0  0  0  0  0  0  0  0  0  0  0
  -22.3320   -8.9910   20.2600 C   0  0  0  0  0  3  0  0  0  0  0  0
  -23.0690  -10.1710   20.0660 C   0  0  0  0  0  3  0  0  0  0  0  0
  -21.9610   -6.9150   21.3310 O   0  0  0  0  0  0  0  0  0  0  0  0
  -21.8060   -6.2530   22.5210 C   0  0  0  0  0  0  0  0  0  0  0  0
  -21.2480   -6.8800   23.6560 C   0  0  0  0  0  3  0  0  0  0  0  0
  -21.0420   -6.1420   24.8380 C   0  0  0  0  0  3  0  0  0  0  0  0
  -21.3840   -4.7780   24.8870 C   0  0  0  0  0  0  0  0  0  0  0  0
  -21.9350   -4.1500   23.7570 C   0  0  0  0  0  3  0  0  0  0  0  0
  -22.1430   -4.8840   22.5750 C   0  0  0  0  0  0  0  0  0  0  0  0
  -22.6550   -4.2680   21.4830 F   0  0  0  0  0  0  0  0  0  0  0  0
  -21.1750   -4.0670   26.0210 F   0  0  0  0  0  0  0  0  0  0  0  0
  -23.1390  -13.5480   21.0780 C   0  0  0  0  0  0  0  0  0  0  0  0
  -22.4510  -12.8580   21.9810 N   0  0  0  0  0  0  0  0  0  0  0  0
  -22.6890  -14.5810   20.5850 O   0  0  0  0  0  0  0  0  0  0  0  0
  -22.8300  -12.0240   22.4080 H   0  0  0  0  0  0  0  0  0  0  0  0
  -21.5300  -13.1690   22.2520 H   0  0  0  0  0  0  0  0  0  0  0  0
  -25.7530  -15.1860   20.1590 N   0  0  0  0  0  0  0  0  0  0  0  0
  -24.9890  -15.8390   20.3040 H   0  0  0  0  0  0  0  0  0  0  0  0
  -26.5720  -15.6220   19.7550 H   0  0  0  0  0  0  0  0  0  0  0  0
  -28.6250  -26.9080   20.2820 O   0  0  0  0  0  0  0  0  0  0  0  0
  -24.6390  -31.8030   23.3290 C   0  0  0  0  0  0  0  0  0  0  0  0
  -27.4120  -27.5370   20.1690 C   0  0  0  0  0  0  0  0  0  0  0  0
  -23.4750  -30.4130   21.6420 C   0  0  0  0  0  3  0  0  0  0  0  0
  -24.9750  -28.9610   20.1710 C   0  0  0  0  0  0  0  0  0  0  0  0
  -25.9840  -30.8580   21.4600 C   0  0  0  0  0  2  0  0  0  0  0  0
  -26.1070  -29.5110   20.7830 C   0  0  0  0  0  0  0  0  0  0  0  0
  -27.3210  -28.8040   20.7750 C   0  0  0  0  0  3  0  0  0  0  0  0
  -26.2700  -26.9860   19.5440 C   0  0  0  0  0  3  0  0  0  0  0  0
  -25.0530  -27.7030   19.5430 C   0  0  0  0  0  3  0  0  0  0  0  0
  -23.7060  -29.7790   20.2420 C   0  0  0  0  0  2  0  0  0  0  0  0
  -24.7170  -31.0380   22.2030 N   0  0  0  0  0  0  0  0  0  0  0  0
  -23.5510  -32.0320   23.8750 O   0  0  0  0  0  0  0  0  0  0  0  0
  -22.8500  -29.3490   22.5730 C   0  0  0  0  0  0  0  0  0  0  0  0
  -21.5430  -29.1010   22.3990 N   0  0  0  0  0  0  0  0  0  0  0  0
  -23.5380  -28.7510   23.4030 O   0  0  0  0  0  0  0  0  0  0  0  0
  -21.0490  -29.6370   21.7000 H   0  0  0  0  0  0  0  0  0  0  0  0
  -18.2230  -27.7130   22.7380 C   0  0  0  0  0  0  0  0  0  0  0  0
  -20.7470  -28.1180   23.1320 C   0  0  0  0  0  3  0  0  0  0  0  0
  -20.9590  -26.6950   22.5640 C   0  0  0  0  0  2  0  0  0  0  0  0
  -19.9270  -26.3130   21.4970 C   0  0  0  0  0  2  0  0  0  0  0  0
  -18.5100  -26.3780   22.0740 C   0  0  0  0  0  2  0  0  0  0  0  0
  -19.2750  -28.5390   23.2180 C   0  0  0  0  0  0  0  0  0  0  0  0
  -18.9550  -29.7880   23.7950 C   0  0  0  0  0  3  0  0  0  0  0  0
  -17.6170  -30.2140   23.8940 C   0  0  0  0  0  3  0  0  0  0  0  0
  -16.5800  -29.3870   23.4300 C   0  0  0  0  0  3  0  0  0  0  0  0
  -16.8840  -28.1390   22.8580 C   0  0  0  0  0  3  0  0  0  0  0  0
  -25.9110  -32.4450   23.9700 C   0  0  0  0  0  3  0  0  0  0  0  0
  -26.3700  -31.7240   25.2980 C   0  0  1  0  0  0  0  0  0  0  0  0
  -25.2330  -31.5350   26.3290 C   0  0  0  0  0  1  0  0  0  0  0  0
  -26.9580  -30.3280   24.9850 C   0  0  0  0  0  1  0  0  0  0  0  0
  -27.5000  -32.5360   25.9720 C   0  0  0  0  0  1  0  0  0  0  0  0
  -25.6130  -33.8610   24.2210 N   0  0  0  0  0  0  0  0  0  0  0  0
  -25.9800  -34.8690   23.4180 C   0  0  0  0  0  0  0  0  0  0  0  0
  -26.6790  -34.7060   22.4130 O   0  0  0  0  0  0  0  0  0  0  0  0
  -24.9950  -34.0620   24.9950 H   0  0  0  0  0  0  0  0  0  0  0  0
  -24.2760  -36.6500   22.9240 C   0  0  0  0  0  1  0  0  0  0  0  0
  -25.4950  -36.2840   23.7860 C   0  0  0  0  0  3  0  0  0  0  0  0
  -27.6120  -37.1990   24.6250 C   0  0  0  0  0  1  0  0  0  0  0  0
  -26.5400  -37.3220   23.6410 N   0  0  0  0  0  0  0  0  0  0  0  0
  -26.1370  -38.2530   23.7260 H   0  0  0  0  0  0  0  0  0  0  0  0
  1  7  1  0
  1 12  1  0
  2  1  2  0
  3  4  1  0
  4  7  2  0
  4 60  1  0
  5  3  1  0
  6  3  2  0
  6  2  1  0
  9  8  1  0
  9 10  1  0
  9  2  1  0
 12 11  1  0
 13 15  1  0
 13 14  1  0
 14 16  1  0
 15 12  1  0
 15 16  1  0
 16 17  1  1
 19 20  1  0
 20 30  1  0
 20 18  1  0
 21 19  1  0
 21 16  1  0
 21 18  1  0
 22 30  1  0
 23 28  1  0
 24 25  1  0
 24 23  1  0
 26 25  1  0
 26 35  1  0
 26 27  1  0
 28 22  1  0
 28 27  1  0
 29 22  2  0
 30 31  1  0
 32 33  2  0
 33 52  1  0
 34 33  1  0
 34 37  1  0
 35 36  1  0
 35 32  1  0
 36 34  2  0
 37 38  1  0
 38 39  2  0
 40 43  1  0
 40 39  1  0
 41 40  2  0
 42 41  1  0
 42 37  2  0
 43 44  1  0
 44 49  2  0
 44 45  1  0
 45 46  2  0
 46 47  1  0
 47 51  1  0
 48 47  2  0
 49 48  1  0
 50 49  1  0
 52 53  1  0
 53 56  1  0
 53 55  1  0
 54 52  2  0
 57 58  1  0
 57 32  1  0
 59 57  1  0
 61 72  2  0
 62 60  1  0
 62 67  1  0
 63 71  1  0
 63 73  1  0
 64 70  1  0
 64 66  1  0
 65 71  1  0
 66 65  1  0
 67 66  2  0
 68 62  2  0
 69 68  1  0
 69 64  2  0
 70 63  1  0
 71 61  1  0
 73 75  2  0
 74 73  1  0
 76 74  1  0
 77 86  2  0
 77 82  1  0
 78 74  1  0
 78 82  1  0
 79 78  1  0
 80 81  1  0
 80 79  1  0
 81 77  1  0
 82 83  2  0
 83 84  1  0
 85 84  2  0
 86 85  1  0
 87 61  1  0
 87 92  1  0
 87 88  1  0
 88 91  1  1
 88 89  1  0
 90 88  1  0
 92 95  1  0
 93 97  1  0
 93 92  1  0
 94 93  2  0
 97 96  1  0
 99100  1  0
 99 97  1  0
 99 98  1  0
M  ISO  4   4 101  22 100  30 100  60 101
M  END
>  <TORSDO>  (48) 
F 20

>  <SCORE>  (48) 
-13.384

>  <name>  (48) 
47

>  <ligand_id>  (48) 
47

>  <original_smiles>  (48) 
[H]c1c([H])c([H])c2c(c1[H])C([H])([H])C([H])([H])C([H])([H])C2([H])N([H])C(=O)C1([H])N(C(=O)C([H])(N([H])C(=O)C([H])(N([H])C([H])([H])[H])C([H])([H])[H])C(C([H])([H])[H])(C([H])([H])[H])C([H])([H])[H])C([H])([H])c2c([H])c(Oc3nc(C([H])(C([H])([H])[H])C4([H])C([H])([H])C([H])([H])[N+]4([H])C4([H])C([H])([H])C([H])(N([H])C(=O)N5C([H])([H])C([H])([H])C([H])([H])C([H])(n6nc(-c7c([H])c([H])c(Oc8c([H])c([H])c(F)c([H])c8F)c([H])c7[H])c(C(=O)N([H])[H])c6N([H])[H])C5([H])[H])C4([H])[H])c(C([H])(F)C([H])([H])[H])nc3C([H])([H])[H])c([H])c([H])c2C1([H])[H]

>  <smiles>  (48) 
[H]c1c([H])c([H])c2c(c1[H])C([H])([H])C([H])([H])C([H])([H])C2([H])N([H])C(=O)C1([H])N(C(=O)C([H])(N([H])C(=O)C([H])(N([H])C([H])([H])[H])C([H])([H])[H])C(C([H])([H])[H])(C([H])([H])[H])C([H])([H])[H])C([H])([H])c2c([H])c(Oc3nc(C([H])(C([H])([H])[H])C4([H])C([H])([H])C([H])([H])[N+]4([H])C4([H])C([H])([H])C([H])(N([H])C(=O)N5C([H])([H])C([H])([H])C([H])([H])C([H])(n6nc(-c7c([H])c([H])c(Oc8c([H])c([H])c(F)c([H])c8F)c([H])c7[H])c(C(=O)N([H])[H])c6N([H])[H])C5([H])[H])C4([H])[H])c(C([H])(F)C([H])([H])[H])nc3C([H])([H])[H])c([H])c([H])c2C1([H])[H]

$$$$
48:0:0
     RDKit          3D

 95105  0  0  1  0  0  0  0  0999 V2000
  -30.1840  -21.8950   21.3290 C   0  0  0  0  0  2  0  0  0  0  0  0
  -28.9530  -18.3220   20.2260 C   0  0  0  0  0  2  0  0  0  0  0  0
  -31.5300  -17.9240   19.6590 C   0  0  0  0  0  2  0  0  0  0  0  0
  -28.9550  -19.6990   20.9680 C   0  0  0  0  0  2  0  0  0  0  0  0
  -31.3500  -18.1250   21.1250 C   0  0  0  0  0  3  0  0  0  0  0  0
  -31.3010  -19.6090   21.5840 C   0  0  0  0  0  3  0  0  0  0  0  0
  -30.2340  -17.4490   20.3170 C   0  0  1  0  0  0  0  0  0  0  0  0
  -32.7170  -20.2150   21.4930 C   0  0  0  0  0  1  0  0  0  0  0  0
  -30.2450  -20.4390   20.8780 N   0  0  2  0  0  4  0  0  0  0  0  0
  -30.4920  -20.4700   19.9000 H   0  0  0  0  0  0  0  0  0  0  0  0
  -30.7260  -14.8560   20.3020 C   0  0  0  0  0  0  0  0  0  0  0  0
  -30.5470  -12.5450   19.3980 C   0  0  0  0  0  2  0  0  0  0  0  0
  -29.6210  -12.4850   18.1610 C   0  0  0  0  0  2  0  0  0  0  0  0
  -28.1280  -12.4210   18.5640 C   0  0  0  0  0  2  0  0  0  0  0  0
  -27.7290  -13.3250   19.7640 C   0  0  0  0  0  3  0  0  0  0  0  0
  -28.7900  -13.3130   20.8840 C   0  0  0  0  0  2  0  0  0  0  0  0
  -30.0850  -13.6400   20.2710 N   0  0  0  0  0  0  0  0  0  0  0  0
  -31.9560  -14.9090   20.2730 O   0  0  0  0  0  0  0  0  0  0  0  0
  -29.2890  -16.0290   18.7230 C   0  0  0  0  0  1  0  0  0  0  0  0
  -29.9640  -15.9970   20.0420 N   0  0  0  0  0  0  0  0  0  0  0  0
  -25.3420  -13.9310   20.4780 C   0  0  0  0  0  0  0  0  0  0  0  0
  -24.2670  -13.1560   20.8190 C   0  0  0  0  0  0  0  0  0  0  0  0
  -24.7320  -11.8040   20.7820 C   0  0  0  0  0  0  0  0  0  0  0  0
  -26.3860  -13.0470   20.2520 N   0  0  0  0  0  0  0  0  0  0  0  0
  -26.0260  -11.7660   20.5010 N   0  0  0  0  0  0  0  0  0  0  0  0
  -24.0080  -10.5410   20.9390 C   0  0  0  0  0  0  0  0  0  0  0  0
  -24.4130   -9.5740   21.8860 C   0  0  0  0  0  3  0  0  0  0  0  0
  -23.6900   -8.3710   22.0320 C   0  0  0  0  0  3  0  0  0  0  0  0
  -22.5510   -8.1270   21.2300 C   0  0  0  0  0  0  0  0  0  0  0  0
  -22.1670   -9.0820   20.2720 C   0  0  0  0  0  3  0  0  0  0  0  0
  -22.8900  -10.2770   20.1230 C   0  0  0  0  0  3  0  0  0  0  0  0
  -21.8020   -6.9770   21.2880 O   0  0  0  0  0  0  0  0  0  0  0  0
  -21.6900   -6.2490   22.4440 C   0  0  0  0  0  0  0  0  0  0  0  0
  -21.1250   -6.7950   23.6170 C   0  0  0  0  0  3  0  0  0  0  0  0
  -20.9660   -5.9880   24.7630 C   0  0  0  0  0  3  0  0  0  0  0  0
  -21.3620   -4.6380   24.7340 C   0  0  0  0  0  0  0  0  0  0  0  0
  -21.9210   -4.0920   23.5650 C   0  0  0  0  0  3  0  0  0  0  0  0
  -22.0820   -4.8950   22.4220 C   0  0  0  0  0  0  0  0  0  0  0  0
  -22.6010   -4.3590   21.2910 F   0  0  0  0  0  0  0  0  0  0  0  0
  -21.2030   -3.8610   25.8310 F   0  0  0  0  0  0  0  0  0  0  0  0
  -22.8640  -13.6280   21.0660 C   0  0  0  0  0  0  0  0  0  0  0  0
  -22.1160  -12.9110   21.8970 N   0  0  0  0  0  0  0  0  0  0  0  0
  -22.4400  -14.6660   20.5610 O   0  0  0  0  0  0  0  0  0  0  0  0
  -22.4700  -12.0700   22.3280 H   0  0  0  0  0  0  0  0  0  0  0  0
  -21.1730  -13.2070   22.1060 H   0  0  0  0  0  0  0  0  0  0  0  0
  -25.5090  -15.3040   20.3200 N   0  0  0  0  0  0  0  0  0  0  0  0
  -24.7440  -15.9610   20.4320 H   0  0  0  0  0  0  0  0  0  0  0  0
  -26.3750  -15.7460   20.0440 H   0  0  0  0  0  0  0  0  0  0  0  0
  -29.1850  -23.1040   19.1790 C   0  0  0  0  0  2  0  0  0  0  0  0
  -28.6210  -24.5200   18.8700 C   0  0  0  0  0  2  0  0  0  0  0  0
  -29.1090  -22.8880   20.7040 C   0  0  0  0  0  3  0  0  0  0  0  0
  -29.1490  -24.3780   21.2080 C   0  0  0  0  0  3  0  0  0  0  0  0
  -28.2640  -25.1880   20.2100 C   0  0  0  0  0  3  0  0  0  0  0  0
  -28.6900  -24.5510   22.6630 C   0  0  0  0  0  1  0  0  0  0  0  0
  -28.4120  -26.6530   20.2000 O   0  0  0  0  0  0  0  0  0  0  0  0
  -24.6390  -31.9260   23.2710 C   0  0  0  0  0  0  0  0  0  0  0  0
  -27.2660  -27.4560   20.1440 C   0  0  0  0  0  0  0  0  0  0  0  0
  -23.4320  -30.5480   21.6120 C   0  0  0  0  0  3  0  0  0  0  0  0
  -24.8840  -29.0280   20.1570 C   0  0  0  0  0  0  0  0  0  0  0  0
  -25.9650  -30.8910   21.4210 C   0  0  0  0  0  2  0  0  0  0  0  0
  -26.0480  -29.5240   20.7570 C   0  0  0  0  0  0  0  0  0  0  0  0
  -27.2400  -28.7500   20.7390 C   0  0  0  0  0  3  0  0  0  0  0  0
  -26.0830  -27.0080   19.5130 C   0  0  0  0  0  3  0  0  0  0  0  0
  -24.9010  -27.7740   19.5260 C   0  0  0  0  0  3  0  0  0  0  0  0
  -23.6420  -29.8920   20.2210 C   0  0  0  0  0  2  0  0  0  0  0  0
  -24.6970  -31.1380   22.1590 N   0  0  0  0  0  0  0  0  0  0  0  0
  -23.5570  -32.1920   23.8160 O   0  0  0  0  0  0  0  0  0  0  0  0
  -22.7770  -29.5160   22.5590 C   0  0  0  0  0  0  0  0  0  0  0  0
  -21.4550  -29.3200   22.4190 N   0  0  0  0  0  0  0  0  0  0  0  0
  -23.4570  -28.8930   23.3800 O   0  0  0  0  0  0  0  0  0  0  0  0
  -20.9650  -29.8750   21.7310 H   0  0  0  0  0  0  0  0  0  0  0  0
  -18.0900  -28.0760   22.8740 C   0  0  0  0  0  0  0  0  0  0  0  0
  -20.6420  -28.3670   23.1740 C   0  0  0  0  0  3  0  0  0  0  0  0
  -20.7690  -26.9410   22.5910 C   0  0  0  0  0  2  0  0  0  0  0  0
  -19.6830  -26.6100   21.5630 C   0  0  0  0  0  2  0  0  0  0  0  0
  -18.2930  -26.7340   22.1920 C   0  0  0  0  0  2  0  0  0  0  0  0
  -19.1940  -28.8510   23.3210 C   0  0  0  0  0  0  0  0  0  0  0  0
  -18.9520  -30.1070   23.9170 C   0  0  0  0  0  3  0  0  0  0  0  0
  -17.6390  -30.5910   24.0710 C   0  0  0  0  0  3  0  0  0  0  0  0
  -16.5500  -29.8140   23.6410 C   0  0  0  0  0  3  0  0  0  0  0  0
  -16.7760  -28.5580   23.0480 C   0  0  0  0  0  3  0  0  0  0  0  0
  -25.9240  -32.5500   23.8980 C   0  0  0  0  0  3  0  0  0  0  0  0
  -25.6290  -33.9570   24.2040 N   0  0  0  0  0  0  0  0  0  0  0  0
  -25.9840  -34.9940   23.4330 C   0  0  0  0  0  0  0  0  0  0  0  0
  -26.6630  -34.8660   22.4110 O   0  0  0  0  0  0  0  0  0  0  0  0
  -25.0290  -34.1320   24.9970 H   0  0  0  0  0  0  0  0  0  0  0  0
  -24.3030  -36.8170   23.0130 C   0  0  0  0  0  1  0  0  0  0  0  0
  -25.5110  -36.3950   23.8650 C   0  0  0  0  0  3  0  0  0  0  0  0
  -27.6270  -37.2580   24.7660 C   0  0  0  0  0  1  0  0  0  0  0  0
  -26.5680  -37.4270   23.7740 N   0  0  0  0  0  0  0  0  0  0  0  0
  -26.1730  -38.3570   23.8870 H   0  0  0  0  0  0  0  0  0  0  0  0
  -26.4150  -31.7910   25.1920 C   0  0  1  0  0  0  0  0  0  0  0  0
  -25.3070  -31.5790   26.2480 C   0  0  0  0  0  1  0  0  0  0  0  0
  -26.9890  -30.4030   24.8250 C   0  0  0  0  0  1  0  0  0  0  0  0
  -27.5670  -32.5820   25.8570 C   0  0  0  0  0  1  0  0  0  0  0  0
  2  7  1  0
  2  4  1  0
  3  7  1  0
  5  3  1  0
  5  6  1  0
  6  8  1  0
  7 20  1  1
  7  5  1  0
  9  4  1  0
  9  1  1  0
  9  6  1  0
  9 10  1  6
 12 17  1  0
 13 14  1  0
 13 12  1  0
 15 14  1  0
 15 24  1  0
 15 16  1  0
 17 11  1  0
 17 16  1  0
 18 11  2  0
 19 20  1  0
 20 11  1  0
 21 22  2  0
 22 41  1  0
 23 22  1  0
 23 26  1  0
 24 21  1  0
 24 25  1  0
 25 23  2  0
 26 27  1  0
 27 28  2  0
 29 32  1  0
 29 28  1  0
 30 29  2  0
 31 30  1  0
 31 26  2  0
 32 33  1  0
 33 34  1  0
 34 35  2  0
 36 35  1  0
 36 40  1  0
 37 36  2  0
 38 33  2  0
 38 37  1  0
 39 38  1  0
 41 42  1  0
 42 45  1  0
 42 44  1  0
 43 41  2  0
 46 47  1  0
 46 21  1  0
 48 46  1  0
 49 51  1  0
 50 49  1  0
 50 53  1  0
 51 52  1  0
 51  1  1  0
 52 54  1  0
 53 55  1  0
 53 52  1  0
 56 67  2  0
 57 55  1  0
 57 62  1  0
 58 66  1  0
 58 68  1  0
 59 65  1  0
 59 61  1  0
 60 66  1  0
 61 60  1  0
 62 61  2  0
 63 64  1  0
 63 57  2  0
 64 59  2  0
 65 58  1  0
 66 56  1  0
 68 70  2  0
 69 68  1  0
 71 69  1  0
 72 81  2  0
 72 77  1  0
 73 69  1  0
 73 77  1  0
 74 73  1  0
 75 76  1  0
 75 74  1  0
 76 72  1  0
 77 78  2  0
 78 79  1  0
 80 79  2  0
 81 80  1  0
 82 56  1  0
 82 83  1  0
 82 92  1  0
 83 86  1  0
 84 88  1  0
 84 83  1  0
 85 84  2  0
 88 87  1  0
 90 88  1  0
 90 91  1  0
 90 89  1  0
 92 95  1  1
 92 93  1  0
 94 92  1  0
M  ISO  4  11 100  20 100  53 101  55 101
M  END
>  <TORSDO>  (49) 
F 18

>  <SCORE>  (49) 
-14.500

>  <name>  (49) 
48

>  <ligand_id>  (49) 
48

>  <original_smiles>  (49) 
[H]c1c([H])c([H])c2c(c1[H])C([H])([H])C([H])([H])C([H])([H])C2([H])N([H])C(=O)C1([H])N(C(=O)C([H])(N([H])C(=O)C([H])(N([H])C([H])([H])[H])C([H])([H])[H])C(C([H])([H])[H])(C([H])([H])[H])C([H])([H])[H])C([H])([H])c2c([H])c(OC3([H])C([H])([H])C([H])([H])C([H])(C([H])([H])[N+]4([H])C([H])([H])C([H])([H])C5(N(C(=O)N6C([H])([H])C([H])([H])C([H])([H])C([H])(n7nc(-c8c([H])c([H])c(Oc9c([H])c([H])c(F)c([H])c9F)c([H])c8[H])c(C(=O)N([H])[H])c7N([H])[H])C6([H])[H])C([H])([H])[H])C([H])([H])C5([H])C4([H])C([H])([H])[H])C3([H])C([H])([H])[H])c([H])c([H])c2C1([H])[H]

>  <smiles>  (49) 
[H]c1c([H])c([H])c2c(c1[H])C([H])([H])C([H])([H])C([H])([H])C2([H])N([H])C(=O)C1([H])N(C(=O)C([H])(N([H])C(=O)C([H])(N([H])C([H])([H])[H])C([H])([H])[H])C(C([H])([H])[H])(C([H])([H])[H])C([H])([H])[H])C([H])([H])c2c([H])c(OC3([H])C([H])([H])C([H])([H])C([H])(C([H])([H])[N+]4([H])C([H])([H])C([H])([H])C5(N(C(=O)N6C([H])([H])C([H])([H])C([H])([H])C([H])(n7nc(-c8c([H])c([H])c(Oc9c([H])c([H])c(F)c([H])c9F)c([H])c8[H])c(C(=O)N([H])[H])c7N([H])[H])C6([H])[H])C([H])([H])[H])C([H])([H])C5([H])C4([H])C([H])([H])[H])C3([H])C([H])([H])[H])c([H])c([H])c2C1([H])[H]

$$$$
49:0:0
     RDKit          3D

 95104  0  0  1  0  0  0  0  0999 V2000
  -29.7080  -23.2770   22.5520 C   0  0  0  0  0  3  0  0  0  0  0  0
  -30.4810  -20.9880   22.6120 C   0  0  0  0  0  3  0  0  0  0  0  0
  -30.0240  -22.1250   23.2960 C   0  0  0  0  0  0  0  0  0  0  0  0
  -29.8470  -23.2590   21.1440 C   0  0  0  0  0  0  0  0  0  0  0  0
  -30.5750  -21.0170   21.2130 C   0  0  0  0  0  0  0  0  0  0  0  0
  -29.9060  -22.1120   24.8070 C   0  0  0  0  0  1  0  0  0  0  0  0
  -30.2700  -22.1290   20.4990 N   0  0  0  0  0  0  0  0  0  0  0  0
  -29.6330  -24.3050   18.7960 C   0  0  0  0  0  1  0  0  0  0  0  0
  -29.6890  -24.5640   20.3160 C   0  0  0  0  0  3  0  0  0  0  0  0
  -28.4960  -25.4790   20.7400 C   0  0  0  0  0  2  0  0  0  0  0  0
  -28.5440  -26.7860   20.1270 O   0  0  0  0  0  0  0  0  0  0  0  0
  -24.6190  -31.8650   23.2450 C   0  0  0  0  0  0  0  0  0  0  0  0
  -27.3620  -27.4990   20.1420 C   0  0  0  0  0  0  0  0  0  0  0  0
  -23.4480  -30.4600   21.5800 C   0  0  0  0  0  3  0  0  0  0  0  0
  -24.9390  -28.9630   20.1470 C   0  0  0  0  0  0  0  0  0  0  0  0
  -25.9650  -30.8670   21.3960 C   0  0  0  0  0  2  0  0  0  0  0  0
  -26.0820  -29.5030   20.7480 C   0  0  0  0  0  0  0  0  0  0  0  0
  -27.2990  -28.7780   20.7400 C   0  0  0  0  0  3  0  0  0  0  0  0
  -26.2030  -26.9760   19.5270 C   0  0  0  0  0  3  0  0  0  0  0  0
  -24.9940  -27.7000   19.5310 C   0  0  0  0  0  3  0  0  0  0  0  0
  -23.6760  -29.7950   20.1940 C   0  0  0  0  0  2  0  0  0  0  0  0
  -24.6960  -31.0780   22.1330 N   0  0  0  0  0  0  0  0  0  0  0  0
  -23.5320  -32.1100   23.7850 O   0  0  0  0  0  0  0  0  0  0  0  0
  -22.8090  -29.4190   22.5270 C   0  0  0  0  0  0  0  0  0  0  0  0
  -21.4920  -29.2030   22.3810 N   0  0  0  0  0  0  0  0  0  0  0  0
  -23.4980  -28.8060   23.3460 O   0  0  0  0  0  0  0  0  0  0  0  0
  -20.9970  -29.7480   21.6900 H   0  0  0  0  0  0  0  0  0  0  0  0
  -18.1520  -27.8920   22.7970 C   0  0  0  0  0  0  0  0  0  0  0  0
  -20.6910  -28.2380   23.1330 C   0  0  0  0  0  3  0  0  0  0  0  0
  -20.8570  -26.8090   22.5640 C   0  0  0  0  0  2  0  0  0  0  0  0
  -19.7920  -26.4470   21.5220 C   0  0  0  0  0  2  0  0  0  0  0  0
  -18.3910  -26.5480   22.1310 C   0  0  0  0  0  2  0  0  0  0  0  0
  -19.2320  -28.6930   23.2540 C   0  0  0  0  0  0  0  0  0  0  0  0
  -18.9550  -29.9490   23.8330 C   0  0  0  0  0  3  0  0  0  0  0  0
  -17.6300  -30.4070   23.9630 C   0  0  0  0  0  3  0  0  0  0  0  0
  -16.5630  -29.6020   23.5240 C   0  0  0  0  0  3  0  0  0  0  0  0
  -16.8250  -28.3480   22.9470 C   0  0  0  0  0  3  0  0  0  0  0  0
  -25.8910  -32.5130   23.8760 C   0  0  0  0  0  3  0  0  0  0  0  0
  -26.4010  -31.7530   25.1600 C   0  0  1  0  0  0  0  0  0  0  0  0
  -25.2970  -31.5070   26.2150 C   0  0  0  0  0  1  0  0  0  0  0  0
  -27.0050  -30.3820   24.7770 C   0  0  0  0  0  1  0  0  0  0  0  0
  -27.5360  -32.5600   25.8330 C   0  0  0  0  0  1  0  0  0  0  0  0
  -25.5660  -33.9090   24.1950 N   0  0  0  0  0  0  0  0  0  0  0  0
  -25.9130  -34.9610   23.4410 C   0  0  0  0  0  0  0  0  0  0  0  0
  -26.6090  -34.8570   22.4270 O   0  0  0  0  0  0  0  0  0  0  0  0
  -24.9480  -34.0610   24.9780 H   0  0  0  0  0  0  0  0  0  0  0  0
  -24.1970  -36.7490   23.0240 C   0  0  0  0  0  1  0  0  0  0  0  0
  -25.4080  -36.3480   23.8800 C   0  0  0  0  0  3  0  0  0  0  0  0
  -27.5090  -37.2380   24.7890 C   0  0  0  0  0  1  0  0  0  0  0  0
  -26.4430  -37.4030   23.8030 N   0  0  0  0  0  0  0  0  0  0  0  0
  -26.0310  -38.3220   23.9340 H   0  0  0  0  0  0  0  0  0  0  0  0
  -31.0730  -19.9130   20.5030 N   0  0  0  0  0  0  0  0  0  0  0  0
  -32.0460  -19.7350   20.7240 H   0  0  0  0  0  0  0  0  0  0  0  0
  -30.8190  -14.6040   20.0720 C   0  0  0  0  0  0  0  0  0  0  0  0
  -30.4680  -12.4480   18.9420 C   0  0  0  0  0  2  0  0  0  0  0  0
  -29.4670  -12.6790   17.7920 C   0  0  0  0  0  2  0  0  0  0  0  0
  -28.0150  -12.5420   18.2910 C   0  0  0  0  0  2  0  0  0  0  0  0
  -27.7440  -13.3400   19.5970 C   0  0  0  0  0  3  0  0  0  0  0  0
  -28.8650  -13.1130   20.6400 C   0  0  0  0  0  2  0  0  0  0  0  0
  -30.1500  -13.4210   19.9960 N   0  0  0  0  0  0  0  0  0  0  0  0
  -31.9610  -14.7560   19.6270 O   0  0  0  0  0  0  0  0  0  0  0  0
  -30.7050  -17.6710   21.6320 C   0  0  0  0  0  2  0  0  0  0  0  0
  -30.4620  -17.9210   19.1670 C   0  0  0  0  0  2  0  0  0  0  0  0
  -29.9000  -16.3470   21.5680 C   0  0  0  0  0  2  0  0  0  0  0  0
  -29.6840  -16.5840   19.1400 C   0  0  0  0  0  2  0  0  0  0  0  0
  -30.2960  -18.6620   20.5110 C   0  0  0  0  0  3  0  0  0  0  0  0
  -30.0270  -15.6890   20.2620 N   0  0  0  0  0  0  0  0  0  0  0  0
  -25.3880  -13.9260   20.4460 C   0  0  0  0  0  0  0  0  0  0  0  0
  -24.3390  -13.1430   20.8500 C   0  0  0  0  0  0  0  0  0  0  0  0
  -24.8010  -11.7940   20.7690 C   0  0  0  0  0  0  0  0  0  0  0  0
  -26.4210  -13.0510   20.1440 N   0  0  0  0  0  0  0  0  0  0  0  0
  -26.0730  -11.7620   20.3940 N   0  0  0  0  0  0  0  0  0  0  0  0
  -24.0870  -10.5270   20.9740 C   0  0  0  0  0  0  0  0  0  0  0  0
  -24.5340   -9.5720   21.9130 C   0  0  0  0  0  3  0  0  0  0  0  0
  -23.8220   -8.3680   22.1040 C   0  0  0  0  0  3  0  0  0  0  0  0
  -22.6490   -8.1130   21.3550 C   0  0  0  0  0  0  0  0  0  0  0  0
  -22.2220   -9.0560   20.4040 C   0  0  0  0  0  3  0  0  0  0  0  0
  -22.9350  -10.2510   20.2100 C   0  0  0  0  0  3  0  0  0  0  0  0
  -21.9060   -6.9610   21.4540 O   0  0  0  0  0  0  0  0  0  0  0  0
  -21.8190   -6.2570   22.6290 C   0  0  0  0  0  0  0  0  0  0  0  0
  -21.3130   -6.8420   23.8110 C   0  0  0  0  0  3  0  0  0  0  0  0
  -21.1770   -6.0650   24.9790 C   0  0  0  0  0  3  0  0  0  0  0  0
  -21.5360   -4.7040   24.9640 C   0  0  0  0  0  0  0  0  0  0  0  0
  -22.0340   -4.1180   23.7870 C   0  0  0  0  0  3  0  0  0  0  0  0
  -22.1720   -4.8930   22.6220 C   0  0  0  0  0  0  0  0  0  0  0  0
  -22.6330   -4.3180   21.4850 F   0  0  0  0  0  0  0  0  0  0  0  0
  -21.3960   -3.9570   26.0840 F   0  0  0  0  0  0  0  0  0  0  0  0
  -22.9570  -13.6150   21.2000 C   0  0  0  0  0  0  0  0  0  0  0  0
  -22.2740  -12.9020   22.0900 N   0  0  0  0  0  0  0  0  0  0  0  0
  -22.4910  -14.6480   20.7220 O   0  0  0  0  0  0  0  0  0  0  0  0
  -22.6680  -12.0690   22.5000 H   0  0  0  0  0  0  0  0  0  0  0  0
  -21.3450  -13.1940   22.3610 H   0  0  0  0  0  0  0  0  0  0  0  0
  -25.5410  -15.3010   20.2890 N   0  0  0  0  0  0  0  0  0  0  0  0
  -24.7850  -15.9550   20.4570 H   0  0  0  0  0  0  0  0  0  0  0  0
  -26.3860  -15.7500   19.9610 H   0  0  0  0  0  0  0  0  0  0  0  0
  1  3  1  0
  2  3  2  0
  3  6  1  0
  4  1  2  0
  5  2  1  0
  7  4  1  0
  7  5  2  0
  9  8  1  0
  9 10  1  0
  9  4  1  0
 11 13  1  0
 11 10  1  0
 12 23  2  0
 13 18  1  0
 14 22  1  0
 14 24  1  0
 15 21  1  0
 15 17  1  0
 16 22  1  0
 17 16  1  0
 18 17  2  0
 19 20  1  0
 19 13  2  0
 20 15  2  0
 21 14  1  0
 22 12  1  0
 24 26  2  0
 25 24  1  0
 27 25  1  0
 28 37  2  0
 28 33  1  0
 29 25  1  0
 29 33  1  0
 30 29  1  0
 31 32  1  0
 31 30  1  0
 32 28  1  0
 33 34  2  0
 34 35  1  0
 36 35  2  0
 37 36  1  0
 38 12  1  0
 38 43  1  0
 38 39  1  0
 39 42  1  1
 39 40  1  0
 41 39  1  0
 43 46  1  0
 44 48  1  0
 44 43  1  0
 45 44  2  0
 48 47  1  0
 50 48  1  0
 50 51  1  0
 50 49  1  0
 52 53  1  0
 52  5  1  0
 54 67  1  0
 55 60  1  0
 56 57  1  0
 56 55  1  0
 58 57  1  0
 58 71  1  0
 58 59  1  0
 60 54  1  0
 60 59  1  0
 61 54  2  0
 63 66  1  0
 64 62  1  0
 65 63  1  0
 65 67  1  0
 66 52  1  0
 66 62  1  0
 67 64  1  0
 68 69  2  0
 69 88  1  0
 70 69  1  0
 70 73  1  0
 71 72  1  0
 71 68  1  0
 72 70  2  0
 73 74  1  0
 74 75  2  0
 76 79  1  0
 76 75  1  0
 77 76  2  0
 78 77  1  0
 78 73  2  0
 79 80  1  0
 80 81  1  0
 81 82  2  0
 83 82  1  0
 83 87  1  0
 84 83  2  0
 85 80  2  0
 85 84  1  0
 86 85  1  0
 88 89  1  0
 89 92  1  0
 89 91  1  0
 90 88  2  0
 93 68  1  0
 93 94  1  0
 95 93  1  0
M  ISO  4  10 101  11 101  54 100  67 100
M  END
>  <TORSDO>  (50) 
F 19

>  <SCORE>  (50) 
-14.601

>  <name>  (50) 
49

>  <ligand_id>  (50) 
49

>  <original_smiles>  (50) 
[H]c1c([H])c([H])c2c(c1[H])C([H])([H])C([H])([H])C([H])([H])C2([H])N([H])C(=O)C1([H])N(C(=O)C([H])(N([H])C(=O)C([H])(N([H])C([H])([H])[H])C([H])([H])[H])C(C([H])([H])[H])(C([H])([H])[H])C([H])([H])[H])C([H])([H])c2c([H])c(OC([H])([H])C([H])(c3nc(N([H])C4([H])C([H])([H])C([H])([H])N(C(=O)N5C([H])([H])C([H])([H])C([H])([H])C([H])(n6nc(-c7c([H])c([H])c(Oc8c([H])c([H])c(F)c([H])c8F)c([H])c7[H])c(C(=O)N([H])[H])c6N([H])[H])C5([H])[H])C([H])([H])C4([H])[H])c([H])c(C([H])([H])[H])c3[H])C([H])([H])[H])c([H])c([H])c2C1([H])[H]

>  <smiles>  (50) 
[H]c1c([H])c([H])c2c(c1[H])C([H])([H])C([H])([H])C([H])([H])C2([H])N([H])C(=O)C1([H])N(C(=O)C([H])(N([H])C(=O)C([H])(N([H])C([H])([H])[H])C([H])([H])[H])C(C([H])([H])[H])(C([H])([H])[H])C([H])([H])[H])C([H])([H])c2c([H])c(OC([H])([H])C([H])(c3nc(N([H])C4([H])C([H])([H])C([H])([H])N(C(=O)N5C([H])([H])C([H])([H])C([H])([H])C([H])(n6nc(-c7c([H])c([H])c(Oc8c([H])c([H])c(F)c([H])c8F)c([H])c7[H])c(C(=O)N([H])[H])c6N([H])[H])C5([H])[H])C([H])([H])C4([H])[H])c([H])c(C([H])([H])[H])c3[H])C([H])([H])[H])c([H])c([H])c2C1([H])[H]

$$$$
50:0:0
     RDKit          3D

 91100  0  0  1  0  0  0  0  0999 V2000
  -28.1680  -20.8180   19.4760 C   0  0  0  0  0  3  0  0  0  0  0  0
  -27.7890  -22.1990   19.4310 C   0  0  0  0  0  3  0  0  0  0  0  0
  -29.2720  -20.3050   20.2160 C   0  0  0  0  0  0  0  0  0  0  0  0
  -28.4380  -23.2640   20.1240 C   0  0  0  0  0  0  0  0  0  0  0  0
  -29.9360  -21.3570   20.9590 C   0  0  0  0  0  0  0  0  0  0  0  0
  -29.5220  -22.7750   20.9400 C   0  0  0  0  0  0  0  0  0  0  0  0
  -31.1670  -20.9500   21.7580 C   0  0  0  0  0  1  0  0  0  0  0  0
  -30.2450  -23.7870   21.8140 C   0  0  0  0  0  1  0  0  0  0  0  0
  -30.5520  -14.9240   20.5300 C   0  0  0  0  0  0  0  0  0  0  0  0
  -30.4110  -12.5750   19.6310 C   0  0  0  0  0  2  0  0  0  0  0  0
  -29.5210  -12.5240   18.3710 C   0  0  0  0  0  2  0  0  0  0  0  0
  -28.0440  -12.3310   18.7610 C   0  0  0  0  0  2  0  0  0  0  0  0
  -27.5970  -13.2800   19.9050 C   0  0  0  0  0  3  0  0  0  0  0  0
  -28.6190  -13.3270   21.0600 C   0  0  0  0  0  2  0  0  0  0  0  0
  -29.9150  -13.6920   20.4730 N   0  0  0  0  0  0  0  0  0  0  0  0
  -31.7820  -14.9470   20.4180 O   0  0  0  0  0  0  0  0  0  0  0  0
  -29.0430  -17.9760   18.8920 C   0  0  0  0  0  2  0  0  0  0  0  0
  -29.5250  -16.5030   18.9590 C   0  0  0  0  0  2  0  0  0  0  0  0
  -29.9310  -17.5150   21.0240 C   0  0  0  0  0  2  0  0  0  0  0  0
  -29.7890  -18.7550   19.9770 C   0  0  0  0  0  3  0  0  0  0  0  0
  -29.8120  -16.1200   20.3560 N   0  0  0  0  0  0  0  0  0  0  0  0
  -25.1930  -13.8680   20.5600 C   0  0  0  0  0  0  0  0  0  0  0  0
  -24.1170  -13.0950   20.9020 C   0  0  0  0  0  0  0  0  0  0  0  0
  -24.5860  -11.7460   20.9060 C   0  0  0  0  0  0  0  0  0  0  0  0
  -26.2450  -12.9890   20.3670 N   0  0  0  0  0  0  0  0  0  0  0  0
  -25.8870  -11.7080   20.6420 N   0  0  0  0  0  0  0  0  0  0  0  0
  -23.8560  -10.4840   21.0820 C   0  0  0  0  0  0  0  0  0  0  0  0
  -24.2670   -9.5200   22.0300 C   0  0  0  0  0  3  0  0  0  0  0  0
  -23.5370   -8.3240   22.1970 C   0  0  0  0  0  3  0  0  0  0  0  0
  -22.3820   -8.0820   21.4140 C   0  0  0  0  0  0  0  0  0  0  0  0
  -21.9910   -9.0340   20.4570 C   0  0  0  0  0  3  0  0  0  0  0  0
  -22.7220  -10.2220   20.2880 C   0  0  0  0  0  3  0  0  0  0  0  0
  -21.6260   -6.9350   21.4910 O   0  0  0  0  0  0  0  0  0  0  0  0
  -21.5550   -6.1930   22.6430 C   0  0  0  0  0  0  0  0  0  0  0  0
  -21.1090   -6.7500   23.8620 C   0  0  0  0  0  3  0  0  0  0  0  0
  -20.9890   -5.9350   25.0050 C   0  0  0  0  0  3  0  0  0  0  0  0
  -21.3020   -4.5640   24.9300 C   0  0  0  0  0  0  0  0  0  0  0  0
  -21.7390   -4.0070   23.7150 C   0  0  0  0  0  3  0  0  0  0  0  0
  -21.8630   -4.8200   22.5740 C   0  0  0  0  0  0  0  0  0  0  0  0
  -22.2660   -4.2750   21.4010 F   0  0  0  0  0  0  0  0  0  0  0  0
  -21.1800   -3.7770   26.0240 F   0  0  0  0  0  0  0  0  0  0  0  0
  -22.7090  -13.5720   21.1110 C   0  0  0  0  0  0  0  0  0  0  0  0
  -21.9530  -12.8910   21.9630 N   0  0  0  0  0  0  0  0  0  0  0  0
  -22.2880  -14.5850   20.5550 O   0  0  0  0  0  0  0  0  0  0  0  0
  -22.3060  -12.0730   22.4360 H   0  0  0  0  0  0  0  0  0  0  0  0
  -21.0070  -13.1940   22.1470 H   0  0  0  0  0  0  0  0  0  0  0  0
  -25.3640  -15.2360   20.3740 N   0  0  0  0  0  0  0  0  0  0  0  0
  -24.5990  -15.8970   20.4640 H   0  0  0  0  0  0  0  0  0  0  0  0
  -26.2360  -15.6700   20.0980 H   0  0  0  0  0  0  0  0  0  0  0  0
  -27.7460  -24.7410   19.9400 C   0  0  0  0  0  2  0  0  0  0  0  0
  -28.1910  -26.1920   20.2080 O   0  0  0  0  0  0  0  0  0  0  0  0
  -24.6190  -31.8710   23.2330 C   0  0  0  0  0  0  0  0  0  0  0  0
  -27.1620  -27.2020   20.1340 C   0  0  0  0  0  0  0  0  0  0  0  0
  -23.4020  -30.4880   21.6010 C   0  0  0  0  0  3  0  0  0  0  0  0
  -24.8360  -28.9410   20.1450 C   0  0  0  0  0  0  0  0  0  0  0  0
  -25.9560  -30.7580   21.4120 C   0  0  0  0  0  2  0  0  0  0  0  0
  -26.0220  -29.3760   20.7500 C   0  0  0  0  0  0  0  0  0  0  0  0
  -27.1870  -28.5200   20.7370 C   0  0  0  0  0  3  0  0  0  0  0  0
  -25.9490  -26.8870   19.4680 C   0  0  0  0  0  3  0  0  0  0  0  0
  -24.8110  -27.7080   19.4880 C   0  0  0  0  0  3  0  0  0  0  0  0
  -23.6080  -29.8290   20.2140 C   0  0  0  0  0  2  0  0  0  0  0  0
  -24.6790  -31.0590   22.1360 N   0  0  0  0  0  0  0  0  0  0  0  0
  -23.5380  -32.1510   23.7740 O   0  0  0  0  0  0  0  0  0  0  0  0
  -22.7370  -29.4680   22.5590 C   0  0  0  0  0  0  0  0  0  0  0  0
  -21.4090  -29.2900   22.4400 N   0  0  0  0  0  0  0  0  0  0  0  0
  -23.4170  -28.8390   23.3730 O   0  0  0  0  0  0  0  0  0  0  0  0
  -20.9170  -29.8480   21.7570 H   0  0  0  0  0  0  0  0  0  0  0  0
  -18.0370  -28.0700   22.9550 C   0  0  0  0  0  0  0  0  0  0  0  0
  -20.5950  -28.3480   23.2150 C   0  0  0  0  0  3  0  0  0  0  0  0
  -20.7050  -26.9160   22.6420 C   0  0  0  0  0  2  0  0  0  0  0  0
  -19.6020  -26.5840   21.6320 C   0  0  0  0  0  2  0  0  0  0  0  0
  -18.2210  -26.7210   22.2790 C   0  0  0  0  0  2  0  0  0  0  0  0
  -19.1520  -28.8410   23.3790 C   0  0  0  0  0  0  0  0  0  0  0  0
  -18.9250  -30.1020   23.9730 C   0  0  0  0  0  3  0  0  0  0  0  0
  -17.6170  -30.5910   24.1440 C   0  0  0  0  0  3  0  0  0  0  0  0
  -16.5160  -29.8190   23.7350 C   0  0  0  0  0  3  0  0  0  0  0  0
  -16.7280  -28.5590   23.1460 C   0  0  0  0  0  3  0  0  0  0  0  0
  -25.9030  -32.5030   23.8480 C   0  0  0  0  0  3  0  0  0  0  0  0
  -25.5950  -33.9020   24.1860 N   0  0  0  0  0  0  0  0  0  0  0  0
  -25.9140  -34.9590   23.4250 C   0  0  0  0  0  0  0  0  0  0  0  0
  -26.5680  -34.8580   22.3830 O   0  0  0  0  0  0  0  0  0  0  0  0
  -25.0160  -34.0540   24.9970 H   0  0  0  0  0  0  0  0  0  0  0  0
  -24.1810  -36.7570   23.1080 C   0  0  0  0  0  1  0  0  0  0  0  0
  -25.4360  -36.3460   23.8960 C   0  0  0  0  0  3  0  0  0  0  0  0
  -27.5860  -37.2310   24.6900 C   0  0  0  0  0  1  0  0  0  0  0  0
  -26.4660  -37.4010   23.7680 N   0  0  0  0  0  0  0  0  0  0  0  0
  -26.0620  -38.3210   23.9260 H   0  0  0  0  0  0  0  0  0  0  0  0
  -26.4240  -31.7310   25.1230 C   0  0  1  0  0  0  0  0  0  0  0  0
  -25.3370  -31.5010   26.1990 C   0  0  0  0  0  1  0  0  0  0  0  0
  -26.9980  -30.3490   24.7340 C   0  0  0  0  0  1  0  0  0  0  0  0
  -27.5830  -32.5210   25.7750 C   0  0  0  0  0  1  0  0  0  0  0  0
  1  3  1  0
  2  1  2  0
  2  4  1  0
  3  5  2  0
  4  6  2  0
  5  7  1  0
  6  5  1  0
  6  8  1  0
 10 15  1  0
 11 12  1  0
 11 10  1  0
 13 12  1  0
 13 25  1  0
 13 14  1  0
 15  9  1  0
 15 14  1  0
 16  9  2  0
 17 18  1  0
 17 20  1  0
 18 21  1  0
 20  3  1  0
 20 19  1  0
 21  9  1  0
 21 19  1  0
 22 23  2  0
 23 24  1  0
 23 42  1  0
 24 27  1  0
 25 22  1  0
 25 26  1  0
 26 24  2  0
 27 28  1  0
 28 29  2  0
 30 33  1  0
 30 29  1  0
 31 30  2  0
 32 31  1  0
 32 27  2  0
 33 34  1  0
 34 35  1  0
 35 36  2  0
 37 36  1  0
 37 41  1  0
 38 37  2  0
 39 34  2  0
 39 38  1  0
 40 39  1  0
 42 43  1  0
 43 46  1  0
 43 45  1  0
 44 42  2  0
 47 48  1  0
 47 22  1  0
 49 47  1  0
 50  4  1  0
 50 51  1  0
 52 63  2  0
 53 51  1  0
 53 58  1  0
 54 62  1  0
 54 64  1  0
 55 61  1  0
 55 57  1  0
 56 62  1  0
 57 56  1  0
 58 57  2  0
 59 60  1  0
 59 53  2  0
 60 55  2  0
 61 54  1  0
 62 52  1  0
 64 66  2  0
 65 64  1  0
 67 65  1  0
 68 77  2  0
 68 73  1  0
 69 65  1  0
 69 73  1  0
 70 69  1  0
 71 72  1  0
 71 70  1  0
 72 68  1  0
 73 74  2  0
 74 75  1  0
 76 75  2  0
 77 76  1  0
 78 52  1  0
 78 79  1  0
 78 88  1  0
 79 82  1  0
 80 84  1  0
 80 79  1  0
 81 80  2  0
 84 83  1  0
 86 84  1  0
 86 87  1  0
 86 85  1  0
 88 91  1  1
 88 89  1  0
 90 88  1  0
M  ISO  4   9 100  21 100  50 101  51 101
M  END
>  <TORSDO>  (51) 
F 17

>  <SCORE>  (51) 
-15.183

>  <name>  (51) 
50

>  <ligand_id>  (51) 
50

>  <original_smiles>  (51) 
[H]c1c([H])c([H])c2c(c1[H])C([H])([H])C([H])([H])C([H])([H])C2([H])N([H])C(=O)C1([H])N(C(=O)C([H])(N([H])C(=O)C([H])(N([H])C([H])([H])[H])C([H])([H])[H])C(C([H])([H])[H])(C([H])([H])[H])C([H])([H])[H])C([H])([H])c2c([H])c(OC([H])([H])c3c([H])c([H])c(C4([H])C([H])([H])N(C(=O)N5C([H])([H])C([H])([H])C([H])([H])C([H])(n6nc(-c7c([H])c([H])c(Oc8c([H])c([H])c(F)c([H])c8F)c([H])c7[H])c(C(=O)N([H])[H])c6N([H])[H])C5([H])[H])C([H])([H])C4([H])[H])c(C([H])([H])[H])c3C([H])([H])[H])c([H])c([H])c2C1([H])[H]

>  <smiles>  (51) 
[H]c1c([H])c([H])c2c(c1[H])C([H])([H])C([H])([H])C([H])([H])C2([H])N([H])C(=O)C1([H])N(C(=O)C([H])(N([H])C(=O)C([H])(N([H])C([H])([H])[H])C([H])([H])[H])C(C([H])([H])[H])(C([H])([H])[H])C([H])([H])[H])C([H])([H])c2c([H])c(OC([H])([H])c3c([H])c([H])c(C4([H])C([H])([H])N(C(=O)N5C([H])([H])C([H])([H])C([H])([H])C([H])(n6nc(-c7c([H])c([H])c(Oc8c([H])c([H])c(F)c([H])c8F)c([H])c7[H])c(C(=O)N([H])[H])c6N([H])[H])C5([H])[H])C([H])([H])C4([H])[H])c(C([H])([H])[H])c3C([H])([H])[H])c([H])c([H])c2C1([H])[H]

$$$$
51:0:0
     RDKit          3D

 96106  0  0  1  0  0  0  0  0999 V2000
  -30.6730  -22.9880   21.1690 C   0  0  0  0  0  3  0  0  0  0  0  0
  -31.4480  -21.9360   21.6870 C   0  0  0  0  0  3  0  0  0  0  0  0
  -29.1870  -21.3590   20.1540 C   0  0  0  0  0  3  0  0  0  0  0  0
  -29.5290  -22.7470   20.3830 C   0  0  0  0  0  0  0  0  0  0  0  0
  -29.9690  -20.2560   20.6620 C   0  0  0  0  0  0  0  0  0  0  0  0
  -31.1330  -20.5800   21.4240 C   0  0  0  0  0  0  0  0  0  0  0  0
  -30.7040  -14.7030   20.0560 C   0  0  0  0  0  0  0  0  0  0  0  0
  -30.3570  -12.5140   18.9320 C   0  0  0  0  0  2  0  0  0  0  0  0
  -29.3490  -12.6790   17.7750 C   0  0  0  0  0  2  0  0  0  0  0  0
  -27.9050  -12.5160   18.2880 C   0  0  0  0  0  2  0  0  0  0  0  0
  -27.6230  -13.3350   19.5770 C   0  0  0  0  0  3  0  0  0  0  0  0
  -28.7510  -13.1630   20.6180 C   0  0  0  0  0  2  0  0  0  0  0  0
  -30.0130  -13.5200   19.9580 N   0  0  0  0  0  0  0  0  0  0  0  0
  -31.8770  -14.7610   19.6730 O   0  0  0  0  0  0  0  0  0  0  0  0
  -30.5960  -18.2650   19.4070 C   0  0  0  0  0  2  0  0  0  0  0  0
  -29.4590  -17.9650   21.5100 C   0  0  0  0  0  2  0  0  0  0  0  0
  -30.1330  -16.8560   18.9470 C   0  0  0  0  0  2  0  0  0  0  0  0
  -29.1770  -16.4500   21.1550 C   0  0  0  0  0  2  0  0  0  0  0  0
  -29.6600  -18.8790   20.3590 N   0  0  0  0  0  0  0  0  0  0  0  0
  -29.9730  -15.8720   20.0430 N   0  0  0  0  0  0  0  0  0  0  0  0
  -25.2760  -13.8890   20.4580 C   0  0  0  0  0  0  0  0  0  0  0  0
  -24.2380  -13.0980   20.8660 C   0  0  0  0  0  0  0  0  0  0  0  0
  -24.7050  -11.7510   20.7670 C   0  0  0  0  0  0  0  0  0  0  0  0
  -26.3090  -13.0250   20.1350 N   0  0  0  0  0  0  0  0  0  0  0  0
  -25.9750  -11.7310   20.3800 N   0  0  0  0  0  0  0  0  0  0  0  0
  -23.9990  -10.4790   20.9610 C   0  0  0  0  0  0  0  0  0  0  0  0
  -24.4540   -9.5100   21.8830 C   0  0  0  0  0  3  0  0  0  0  0  0
  -23.7430   -8.3030   22.0630 C   0  0  0  0  0  3  0  0  0  0  0  0
  -22.5640   -8.0550   21.3230 C   0  0  0  0  0  0  0  0  0  0  0  0
  -22.1280   -9.0120   20.3880 C   0  0  0  0  0  3  0  0  0  0  0  0
  -22.8400  -10.2100   20.2060 C   0  0  0  0  0  3  0  0  0  0  0  0
  -21.8230   -6.9010   21.4130 O   0  0  0  0  0  0  0  0  0  0  0  0
  -21.7420   -6.1870   22.5840 C   0  0  0  0  0  0  0  0  0  0  0  0
  -21.2490   -6.7640   23.7740 C   0  0  0  0  0  3  0  0  0  0  0  0
  -21.1220   -5.9770   24.9370 C   0  0  0  0  0  3  0  0  0  0  0  0
  -21.4720   -4.6130   24.9070 C   0  0  0  0  0  0  0  0  0  0  0  0
  -21.9560   -4.0370   23.7210 C   0  0  0  0  0  3  0  0  0  0  0  0
  -22.0900   -4.8220   22.5620 C   0  0  0  0  0  0  0  0  0  0  0  0
  -22.5390   -4.2550   21.4150 F   0  0  0  0  0  0  0  0  0  0  0  0
  -21.3410   -3.8560   26.0210 F   0  0  0  0  0  0  0  0  0  0  0  0
  -22.8560  -13.5550   21.2340 C   0  0  0  0  0  0  0  0  0  0  0  0
  -22.1850  -12.8270   22.1170 N   0  0  0  0  0  0  0  0  0  0  0  0
  -22.3830  -14.5950   20.7730 O   0  0  0  0  0  0  0  0  0  0  0  0
  -22.5820  -11.9870   22.5110 H   0  0  0  0  0  0  0  0  0  0  0  0
  -21.2610  -13.1150   22.4060 H   0  0  0  0  0  0  0  0  0  0  0  0
  -25.4220  -15.2650   20.3110 N   0  0  0  0  0  0  0  0  0  0  0  0
  -24.6620  -15.9130   20.4880 H   0  0  0  0  0  0  0  0  0  0  0  0
  -26.2410  -15.7150   19.9240 H   0  0  0  0  0  0  0  0  0  0  0  0
  -33.3380  -19.8010   21.9660 C   0  0  0  0  0  1  0  0  0  0  0  0
  -31.9370  -19.5580   21.8870 O   0  0  0  0  0  0  0  0  0  0  0  0
  -28.8470  -24.0110   19.7160 C   0  0  0  0  0  3  0  0  0  0  0  0
  -27.4470  -24.5250   17.5430 C   0  0  0  0  0  2  0  0  0  0  0  0
  -28.1640  -23.2270   17.2840 C   0  0  0  0  0  2  0  0  0  0  0  0
  -27.7840  -23.6120   18.7010 C   0  0  0  0  0  3  0  0  0  0  0  0
  -28.3180  -25.1870   20.6620 C   0  0  0  0  0  2  0  0  0  0  0  0
  -28.4330  -26.5920   20.2140 O   0  0  0  0  0  0  0  0  0  0  0  0
  -24.6200  -31.9300   23.2430 C   0  0  0  0  0  0  0  0  0  0  0  0
  -27.2890  -27.3980   20.2230 C   0  0  0  0  0  0  0  0  0  0  0  0
  -23.4360  -30.5150   21.5970 C   0  0  0  0  0  3  0  0  0  0  0  0
  -24.9080  -28.9680   20.1930 C   0  0  0  0  0  0  0  0  0  0  0  0
  -25.9700  -30.8600   21.4220 C   0  0  0  0  0  2  0  0  0  0  0  0
  -26.0670  -29.4780   20.7910 C   0  0  0  0  0  0  0  0  0  0  0  0
  -27.2640  -28.7060   20.7940 C   0  0  0  0  0  3  0  0  0  0  0  0
  -26.1040  -26.9260   19.6220 C   0  0  0  0  0  3  0  0  0  0  0  0
  -24.9260  -27.6950   19.6030 C   0  0  0  0  0  3  0  0  0  0  0  0
  -23.6650  -29.8350   20.2200 C   0  0  0  0  0  2  0  0  0  0  0  0
  -24.6940  -31.1190   22.1460 N   0  0  0  0  0  0  0  0  0  0  0  0
  -23.5320  -32.2010   23.7720 O   0  0  0  0  0  0  0  0  0  0  0  0
  -22.7820  -29.4930   22.5570 C   0  0  0  0  0  0  0  0  0  0  0  0
  -21.4620  -29.2920   22.4140 N   0  0  0  0  0  0  0  0  0  0  0  0
  -23.4610  -28.8860   23.3900 O   0  0  0  0  0  0  0  0  0  0  0  0
  -20.9740  -29.8420   21.7190 H   0  0  0  0  0  0  0  0  0  0  0  0
  -18.1020  -28.0340   22.8630 C   0  0  0  0  0  0  0  0  0  0  0  0
  -20.6470  -28.3440   23.1770 C   0  0  0  0  0  3  0  0  0  0  0  0
  -20.7870  -26.9080   22.6220 C   0  0  0  0  0  2  0  0  0  0  0  0
  -19.7120  -26.5540   21.5900 C   0  0  0  0  0  2  0  0  0  0  0  0
  -18.3170  -26.6790   22.2080 C   0  0  0  0  0  2  0  0  0  0  0  0
  -19.1980  -28.8210   23.3050 C   0  0  0  0  0  0  0  0  0  0  0  0
  -18.9480  -30.0870   23.8790 C   0  0  0  0  0  3  0  0  0  0  0  0
  -17.6320  -30.5650   24.0190 C   0  0  0  0  0  3  0  0  0  0  0  0
  -16.5490  -29.7750   23.5940 C   0  0  0  0  0  3  0  0  0  0  0  0
  -16.7850  -28.5110   23.0220 C   0  0  0  0  0  3  0  0  0  0  0  0
  -25.8980  -32.5720   23.8710 C   0  0  0  0  0  3  0  0  0  0  0  0
  -26.4080  -31.8130   25.1590 C   0  0  1  0  0  0  0  0  0  0  0  0
  -25.3100  -31.5710   26.2190 C   0  0  0  0  0  1  0  0  0  0  0  0
  -27.0060  -30.4360   24.7800 C   0  0  0  0  0  1  0  0  0  0  0  0
  -27.5410  -32.6220   25.8330 C   0  0  0  0  0  1  0  0  0  0  0  0
  -25.5780  -33.9710   24.1900 N   0  0  0  0  0  0  0  0  0  0  0  0
  -25.9110  -35.0200   23.4270 C   0  0  0  0  0  0  0  0  0  0  0  0
  -26.5920  -34.9120   22.4040 O   0  0  0  0  0  0  0  0  0  0  0  0
  -24.9710  -34.1260   24.9830 H   0  0  0  0  0  0  0  0  0  0  0  0
  -24.1810  -36.8070   23.0390 C   0  0  0  0  0  1  0  0  0  0  0  0
  -25.4100  -36.4080   23.8720 C   0  0  0  0  0  3  0  0  0  0  0  0
  -27.5230  -37.3090   24.7380 C   0  0  0  0  0  1  0  0  0  0  0  0
  -26.4390  -37.4650   23.7730 N   0  0  0  0  0  0  0  0  0  0  0  0
  -26.0250  -38.3830   23.9100 H   0  0  0  0  0  0  0  0  0  0  0  0
  1  2  1  0
  3  4  1  0
  3  5  2  0
  4  1  2  0
  5  6  1  0
  6  2  2  0
  6 50  1  0
  8 13  1  0
  9 10  1  0
  9  8  1  0
 11 10  1  0
 11 24  1  0
 11 12  1  0
 13  7  1  0
 13 12  1  0
 14  7  2  0
 15 19  1  0
 17 15  1  0
 17 20  1  0
 18 16  1  0
 19  5  1  0
 19 16  1  0
 20  7  1  0
 20 18  1  0
 21 22  2  0
 22 41  1  0
 23 22  1  0
 23 26  1  0
 24 25  1  0
 24 21  1  0
 25 23  2  0
 26 27  1  0
 27 28  2  0
 29 32  1  0
 29 28  1  0
 30 29  2  0
 31 30  1  0
 31 26  2  0
 32 33  1  0
 33 34  1  0
 34 35  2  0
 36 35  1  0
 36 40  1  0
 37 36  2  0
 38 33  2  0
 38 37  1  0
 39 38  1  0
 41 42  1  0
 42 45  1  0
 42 44  1  0
 43 41  2  0
 46 21  1  0
 46 47  1  0
 48 46  1  0
 50 49  1  0
 51  4  1  0
 51 55  1  0
 52 54  1  0
 53 52  1  0
 53 54  1  0
 54 51  1  0
 56 58  1  0
 56 55  1  0
 57 68  2  0
 58 63  1  0
 59 67  1  0
 59 69  1  0
 60 66  1  0
 60 62  1  0
 61 67  1  0
 62 63  2  0
 62 61  1  0
 64 58  2  0
 65 64  1  0
 65 60  2  0
 66 59  1  0
 67 57  1  0
 69 71  2  0
 70 69  1  0
 72 70  1  0
 73 82  2  0
 73 78  1  0
 74 70  1  0
 74 78  1  0
 75 74  1  0
 76 77  1  0
 76 75  1  0
 77 73  1  0
 78 79  2  0
 79 80  1  0
 81 80  2  0
 82 81  1  0
 83 57  1  0
 83 88  1  0
 83 84  1  0
 84 87  1  1
 84 85  1  0
 86 84  1  0
 88 91  1  0
 89 93  1  0
 89 88  1  0
 90 89  2  0
 93 92  1  0
 95 93  1  0
 95 96  1  0
 95 94  1  0
M  ISO  4   7 100  20 100  55 101  56 101
M  END
>  <TORSDO>  (52) 
F 20

>  <SCORE>  (52) 
-13.713

>  <name>  (52) 
51

>  <ligand_id>  (52) 
51

>  <original_smiles>  (52) 
[H]c1c([H])c([H])c2c(c1[H])C([H])([H])C([H])([H])C([H])([H])C2([H])N([H])C(=O)C1([H])N(C(=O)C([H])(N([H])C(=O)C([H])(N([H])C([H])([H])[H])C([H])([H])[H])C(C([H])([H])[H])(C([H])([H])[H])C([H])([H])[H])C([H])([H])c2c([H])c(OC([H])([H])C([H])(c3c([H])c([H])c(OC([H])([H])[H])c(N4C([H])([H])C([H])([H])N(C(=O)N5C([H])([H])C([H])([H])C([H])([H])C([H])(n6nc(-c7c([H])c([H])c(Oc8c([H])c([H])c(F)c([H])c8F)c([H])c7[H])c(C(=O)N([H])[H])c6N([H])[H])C5([H])[H])C([H])([H])C4([H])[H])c3[H])C3([H])C([H])([H])C3([H])[H])c([H])c([H])c2C1([H])[H]

>  <smiles>  (52) 
[H]c1c([H])c([H])c2c(c1[H])C([H])([H])C([H])([H])C([H])([H])C2([H])N([H])C(=O)C1([H])N(C(=O)C([H])(N([H])C(=O)C([H])(N([H])C([H])([H])[H])C([H])([H])[H])C(C([H])([H])[H])(C([H])([H])[H])C([H])([H])[H])C([H])([H])c2c([H])c(OC([H])([H])C([H])(c3c([H])c([H])c(OC([H])([H])[H])c(N4C([H])([H])C([H])([H])N(C(=O)N5C([H])([H])C([H])([H])C([H])([H])C([H])(n6nc(-c7c([H])c([H])c(Oc8c([H])c([H])c(F)c([H])c8F)c([H])c7[H])c(C(=O)N([H])[H])c6N([H])[H])C5([H])[H])C([H])([H])C4([H])[H])c3[H])C3([H])C([H])([H])C3([H])[H])c([H])c([H])c2C1([H])[H]

$$$$
52:0:0
     RDKit          3D

 94103  0  0  1  0  0  0  0  0999 V2000
  -29.1750  -21.3680   20.5690 C   0  0  0  0  0  3  0  0  0  0  0  0
  -30.6400  -14.6680   20.1400 C   0  0  0  0  0  0  0  0  0  0  0  0
  -30.3470  -12.4410   19.1000 C   0  0  0  0  0  2  0  0  0  0  0  0
  -29.3730  -12.5680   17.9110 C   0  0  0  0  0  2  0  0  0  0  0  0
  -27.9190  -12.4010   18.3940 C   0  0  0  0  0  2  0  0  0  0  0  0
  -27.5910  -13.2770   19.6340 C   0  0  0  0  0  3  0  0  0  0  0  0
  -28.6850  -13.1690   20.7190 C   0  0  0  0  0  2  0  0  0  0  0  0
  -29.9680  -13.4790   20.0770 N   0  0  0  0  0  0  0  0  0  0  0  0
  -31.8370  -14.7290   19.8450 O   0  0  0  0  0  0  0  0  0  0  0  0
  -28.9980  -20.1650   19.5470 C   0  0  0  0  0  0  0  0  0  0  0  0
  -28.8970  -17.7630   18.8100 C   0  0  0  0  0  2  0  0  0  0  0  0
  -29.1550  -18.1280   21.1610 C   0  0  0  0  0  2  0  0  0  0  0  0
  -29.9440  -16.6160   18.8840 C   0  0  0  0  0  2  0  0  0  0  0  0
  -30.0510  -16.8220   21.2360 C   0  0  0  0  0  2  0  0  0  0  0  0
  -29.0970  -18.8070   19.8440 N   0  0  0  0  0  0  0  0  0  0  0  0
  -29.8910  -15.8310   20.1370 N   0  0  0  0  0  0  0  0  0  0  0  0
  -28.7780  -20.5130   18.3800 O   0  0  0  0  0  0  0  0  0  0  0  0
  -25.2260  -13.8620   20.4340 C   0  0  0  0  0  0  0  0  0  0  0  0
  -24.1690  -13.0830   20.8220 C   0  0  0  0  0  0  0  0  0  0  0  0
  -24.6340  -11.7330   20.7700 C   0  0  0  0  0  0  0  0  0  0  0  0
  -26.2630  -12.9860   20.1620 N   0  0  0  0  0  0  0  0  0  0  0  0
  -25.9160  -11.7000   20.4290 N   0  0  0  0  0  0  0  0  0  0  0  0
  -23.9160  -10.4670   20.9660 C   0  0  0  0  0  0  0  0  0  0  0  0
  -24.3590   -9.5030   21.8980 C   0  0  0  0  0  3  0  0  0  0  0  0
  -23.6400   -8.3030   22.0830 C   0  0  0  0  0  3  0  0  0  0  0  0
  -22.4630   -8.0570   21.3360 C   0  0  0  0  0  0  0  0  0  0  0  0
  -22.0400   -9.0100   20.3910 C   0  0  0  0  0  3  0  0  0  0  0  0
  -22.7600  -10.2020   20.2050 C   0  0  0  0  0  3  0  0  0  0  0  0
  -21.7160   -6.9070   21.4300 O   0  0  0  0  0  0  0  0  0  0  0  0
  -21.6580   -6.1780   22.5910 C   0  0  0  0  0  0  0  0  0  0  0  0
  -21.1850   -6.7360   23.7980 C   0  0  0  0  0  3  0  0  0  0  0  0
  -21.0780   -5.9330   24.9520 C   0  0  0  0  0  3  0  0  0  0  0  0
  -21.4340   -4.5720   24.8970 C   0  0  0  0  0  0  0  0  0  0  0  0
  -21.9000   -4.0130   23.6940 C   0  0  0  0  0  3  0  0  0  0  0  0
  -22.0090   -4.8140   22.5440 C   0  0  0  0  0  0  0  0  0  0  0  0
  -22.4390   -4.2660   21.3820 F   0  0  0  0  0  0  0  0  0  0  0  0
  -21.3240   -3.7970   26.0010 F   0  0  0  0  0  0  0  0  0  0  0  0
  -22.7790  -13.5550   21.1320 C   0  0  0  0  0  0  0  0  0  0  0  0
  -22.0720  -12.8480   22.0070 N   0  0  0  0  0  0  0  0  0  0  0  0
  -22.3280  -14.5850   20.6350 O   0  0  0  0  0  0  0  0  0  0  0  0
  -22.4490  -12.0110   22.4300 H   0  0  0  0  0  0  0  0  0  0  0  0
  -21.1400  -13.1460   22.2580 H   0  0  0  0  0  0  0  0  0  0  0  0
  -25.3840  -15.2350   20.2650 N   0  0  0  0  0  0  0  0  0  0  0  0
  -24.6240  -15.8900   20.4100 H   0  0  0  0  0  0  0  0  0  0  0  0
  -26.2390  -15.6780   19.9520 H   0  0  0  0  0  0  0  0  0  0  0  0
  -28.4910  -23.9180   20.4450 C   0  0  0  0  0  0  0  0  0  0  0  0
  -28.9740  -22.7350   19.9400 N   0  0  0  0  0  0  0  0  0  0  0  0
  -28.0160  -23.9750   21.5810 O   0  0  0  0  0  0  0  0  0  0  0  0
  -29.2840  -22.7670   18.9780 H   0  0  0  0  0  0  0  0  0  0  0  0
  -28.5500  -25.2340   19.5620 C   0  0  0  0  0  2  0  0  0  0  0  0
  -28.3940  -26.5350   20.2600 O   0  0  0  0  0  0  0  0  0  0  0  0
  -24.5900  -31.8970   23.2060 C   0  0  0  0  0  0  0  0  0  0  0  0
  -27.2420  -27.3350   20.1770 C   0  0  0  0  0  0  0  0  0  0  0  0
  -23.4000  -30.4890   21.5620 C   0  0  0  0  0  3  0  0  0  0  0  0
  -24.8640  -28.9340   20.1490 C   0  0  0  0  0  0  0  0  0  0  0  0
  -25.9350  -30.8180   21.3870 C   0  0  0  0  0  2  0  0  0  0  0  0
  -26.0240  -29.4330   20.7510 C   0  0  0  0  0  0  0  0  0  0  0  0
  -27.2110  -28.6410   20.7590 C   0  0  0  0  0  3  0  0  0  0  0  0
  -26.0520  -26.8810   19.5640 C   0  0  0  0  0  3  0  0  0  0  0  0
  -24.8800  -27.6630   19.5490 C   0  0  0  0  0  3  0  0  0  0  0  0
  -23.6230  -29.8050   20.1870 C   0  0  0  0  0  2  0  0  0  0  0  0
  -24.6620  -31.0840   22.1110 N   0  0  0  0  0  0  0  0  0  0  0  0
  -23.5020  -32.1720   23.7330 O   0  0  0  0  0  0  0  0  0  0  0  0
  -22.7330  -29.4750   22.5210 C   0  0  0  0  0  0  0  0  0  0  0  0
  -21.4060  -29.3070   22.3950 N   0  0  0  0  0  0  0  0  0  0  0  0
  -23.4100  -28.8420   23.3360 O   0  0  0  0  0  0  0  0  0  0  0  0
  -20.9200  -29.8700   21.7100 H   0  0  0  0  0  0  0  0  0  0  0  0
  -18.0160  -28.1620   22.9160 C   0  0  0  0  0  0  0  0  0  0  0  0
  -20.5800  -28.3740   23.1630 C   0  0  0  0  0  3  0  0  0  0  0  0
  -20.6520  -26.9480   22.5660 C   0  0  0  0  0  2  0  0  0  0  0  0
  -19.5340  -26.6580   21.5600 C   0  0  0  0  0  2  0  0  0  0  0  0
  -18.1620  -26.8190   22.2200 C   0  0  0  0  0  2  0  0  0  0  0  0
  -19.1520  -28.9000   23.3430 C   0  0  0  0  0  0  0  0  0  0  0  0
  -18.9600  -30.1590   23.9510 C   0  0  0  0  0  3  0  0  0  0  0  0
  -17.6660  -30.6810   24.1360 C   0  0  0  0  0  3  0  0  0  0  0  0
  -16.5450  -29.9390   23.7250 C   0  0  0  0  0  3  0  0  0  0  0  0
  -16.7210  -28.6820   23.1200 C   0  0  0  0  0  3  0  0  0  0  0  0
  -25.8670  -32.5320   23.8380 C   0  0  0  0  0  3  0  0  0  0  0  0
  -26.3740  -31.7650   25.1190 C   0  0  1  0  0  0  0  0  0  0  0  0
  -25.2720  -31.5200   26.1770 C   0  0  0  0  0  1  0  0  0  0  0  0
  -26.9650  -30.3900   24.7290 C   0  0  0  0  0  1  0  0  0  0  0  0
  -27.5160  -32.5630   25.7910 C   0  0  0  0  0  1  0  0  0  0  0  0
  -25.5530  -33.9320   24.1610 N   0  0  0  0  0  0  0  0  0  0  0  0
  -25.8940  -34.9820   23.4040 C   0  0  0  0  0  0  0  0  0  0  0  0
  -26.5750  -34.8760   22.3800 O   0  0  0  0  0  0  0  0  0  0  0  0
  -24.9510  -34.0880   24.9570 H   0  0  0  0  0  0  0  0  0  0  0  0
  -24.1780  -36.7800   23.0180 C   0  0  0  0  0  1  0  0  0  0  0  0
  -25.4030  -36.3730   23.8510 C   0  0  0  0  0  3  0  0  0  0  0  0
  -27.5210  -37.2550   24.7280 C   0  0  0  0  0  1  0  0  0  0  0  0
  -26.4410  -37.4220   23.7580 N   0  0  0  0  0  0  0  0  0  0  0  0
  -26.0340  -38.3440   23.8940 H   0  0  0  0  0  0  0  0  0  0  0  0
  -30.9950  -22.2880   22.3260 C   0  0  0  0  0  2  0  0  0  0  0  0
  -30.8150  -20.8280   22.6290 C   0  0  0  0  0  2  0  0  0  0  0  0
  -30.5830  -21.3400   21.2180 C   0  0  0  0  0  3  0  0  0  0  0  0
  1 10  1  0
  1 94  1  0
  3  8  1  0
  4  5  1  0
  4  3  1  0
  6  5  1  0
  6 21  1  0
  6  7  1  0
  8  2  1  0
  8  7  1  0
  9  2  2  0
 10 15  1  0
 11 13  1  0
 11 15  1  0
 12 14  1  0
 13 16  1  0
 15 12  1  0
 16  2  1  0
 16 14  1  0
 17 10  2  0
 18 19  2  0
 19 38  1  0
 20 19  1  0
 20 23  1  0
 21 22  1  0
 21 18  1  0
 22 20  2  0
 23 24  1  0
 24 25  2  0
 26 29  1  0
 26 25  1  0
 27 26  2  0
 28 27  1  0
 28 23  2  0
 29 30  1  0
 30 31  1  0
 31 32  2  0
 33 32  1  0
 33 37  1  0
 34 33  2  0
 35 30  2  0
 35 34  1  0
 36 35  1  0
 38 39  1  0
 39 42  1  0
 39 41  1  0
 40 38  2  0
 43 44  1  0
 43 18  1  0
 45 43  1  0
 46 48  2  0
 47 46  1  0
 47  1  1  0
 49 47  1  0
 50 51  1  0
 50 46  1  0
 52 63  2  0
 53 51  1  0
 53 58  1  0
 54 62  1  0
 54 64  1  0
 55 61  1  0
 55 57  1  0
 56 62  1  0
 57 58  2  0
 57 56  1  0
 59 53  2  0
 60 59  1  0
 60 55  2  0
 61 54  1  0
 62 52  1  0
 64 66  2  0
 65 64  1  0
 67 65  1  0
 68 77  2  0
 68 73  1  0
 69 65  1  0
 69 73  1  0
 70 69  1  0
 71 72  1  0
 71 70  1  0
 72 68  1  0
 73 74  2  0
 74 75  1  0
 76 75  2  0
 77 76  1  0
 78 52  1  0
 78 83  1  0
 78 79  1  0
 79 82  1  1
 79 80  1  0
 81 79  1  0
 83 86  1  0
 84 88  1  0
 84 83  1  0
 85 84  2  0
 88 87  1  0
 90 88  1  0
 90 91  1  0
 90 89  1  0
 92 93  1  0
 94 92  1  0
 94 93  1  0
M  ISO  4   2 100  16 100  50 101  51 101
M  END
>  <TORSDO>  (53) 
F 19

>  <SCORE>  (53) 
-14.302

>  <name>  (53) 
52

>  <ligand_id>  (53) 
52

>  <original_smiles>  (53) 
[H]c1c([H])c([H])c2c(c1[H])C([H])([H])C([H])([H])C([H])([H])C2([H])N([H])C(=O)C1([H])N(C(=O)C([H])(N([H])C(=O)C([H])(N([H])C([H])([H])[H])C([H])([H])[H])C(C([H])([H])[H])(C([H])([H])[H])C([H])([H])[H])C([H])([H])c2c([H])c(OC([H])([H])C(=O)N([H])C([H])(C(=O)N3C([H])([H])C([H])([H])N(C(=O)N4C([H])([H])C([H])([H])C([H])([H])C([H])(n5nc(-c6c([H])c([H])c(Oc7c([H])c([H])c(F)c([H])c7F)c([H])c6[H])c(C(=O)N([H])[H])c5N([H])[H])C4([H])[H])C([H])([H])C3([H])[H])C3([H])C([H])([H])C3([H])[H])c([H])c([H])c2C1([H])[H]

>  <smiles>  (53) 
[H]c1c([H])c([H])c2c(c1[H])C([H])([H])C([H])([H])C([H])([H])C2([H])N([H])C(=O)C1([H])N(C(=O)C([H])(N([H])C(=O)C([H])(N([H])C([H])([H])[H])C([H])([H])[H])C(C([H])([H])[H])(C([H])([H])[H])C([H])([H])[H])C([H])([H])c2c([H])c(OC([H])([H])C(=O)N([H])C([H])(C(=O)N3C([H])([H])C([H])([H])N(C(=O)N4C([H])([H])C([H])([H])C([H])([H])C([H])(n5nc(-c6c([H])c([H])c(Oc7c([H])c([H])c(F)c([H])c7F)c([H])c6[H])c(C(=O)N([H])[H])c5N([H])[H])C4([H])[H])C([H])([H])C3([H])[H])C3([H])C([H])([H])C3([H])[H])c([H])c([H])c2C1([H])[H]

$$$$
53:0:0
     RDKit          3D

 94104  0  0  1  0  0  0  0  0999 V2000
  -30.1080  -21.2920   18.6660 C   0  0  0  0  0  3  0  0  0  0  0  0
  -29.6250  -21.0460   19.9650 C   0  0  0  0  0  0  0  0  0  0  0  0
  -29.2010  -22.2720   20.6690 C   0  0  0  0  0  0  0  0  0  0  0  0
  -29.2390  -23.6160   20.0460 C   0  0  0  0  0  0  0  0  0  0  0  0
  -29.7390  -23.6170   18.7250 C   0  0  0  0  0  0  0  0  0  0  0  0
  -29.8150  -24.8860   17.8960 C   0  0  0  0  0  1  0  0  0  0  0  0
  -30.1660  -22.5070   18.0790 N   0  0  0  0  0  0  0  0  0  0  0  0
  -30.9310  -14.9820   20.2040 C   0  0  0  0  0  0  0  0  0  0  0  0
  -30.6610  -12.6720   19.2380 C   0  0  0  0  0  2  0  0  0  0  0  0
  -29.7030  -12.6580   18.0290 C   0  0  0  0  0  2  0  0  0  0  0  0
  -28.2510  -12.4630   18.5040 C   0  0  0  0  0  2  0  0  0  0  0  0
  -27.8850  -13.3920   19.6900 C   0  0  0  0  0  3  0  0  0  0  0  0
  -28.9730  -13.4180   20.7860 C   0  0  0  0  0  2  0  0  0  0  0  0
  -30.2350  -13.7810   20.1320 N   0  0  0  0  0  0  0  0  0  0  0  0
  -32.1370  -14.9450   19.9400 O   0  0  0  0  0  0  0  0  0  0  0  0
  -29.0730  -18.3900   19.4610 C   0  0  0  0  0  2  0  0  0  0  0  0
  -30.9910  -18.8350   20.8150 C   0  0  0  0  0  2  0  0  0  0  0  0
  -29.0920  -16.8360   19.8880 C   0  0  0  0  0  2  0  0  0  0  0  0
  -31.0150  -17.3080   21.2980 C   0  0  0  0  0  2  0  0  0  0  0  0
  -29.6070  -19.4850   20.4640 C   0  0  0  0  0  3  0  0  0  0  0  0
  -30.3300  -16.2380   20.4910 N   0  0  0  0  0  0  0  0  0  0  0  0
  -25.5400  -13.9920   20.5170 C   0  0  0  0  0  0  0  0  0  0  0  0
  -24.4750  -13.2240   20.8960 C   0  0  0  0  0  0  0  0  0  0  0  0
  -24.9190  -11.8680   20.8210 C   0  0  0  0  0  0  0  0  0  0  0  0
  -26.5620  -13.1040   20.2270 N   0  0  0  0  0  0  0  0  0  0  0  0
  -26.2000  -11.8200   20.4770 N   0  0  0  0  0  0  0  0  0  0  0  0
  -24.1800  -10.6120   20.9980 C   0  0  0  0  0  0  0  0  0  0  0  0
  -24.5830   -9.6430   21.9430 C   0  0  0  0  0  3  0  0  0  0  0  0
  -23.8430   -8.4530   22.1080 C   0  0  0  0  0  3  0  0  0  0  0  0
  -22.6850   -8.2230   21.3280 C   0  0  0  0  0  0  0  0  0  0  0  0
  -22.3010   -9.1800   20.3720 C   0  0  0  0  0  3  0  0  0  0  0  0
  -23.0420  -10.3610   20.2040 C   0  0  0  0  0  3  0  0  0  0  0  0
  -21.9180   -7.0850   21.4020 O   0  0  0  0  0  0  0  0  0  0  0  0
  -21.7770   -6.3890   22.5760 C   0  0  0  0  0  0  0  0  0  0  0  0
  -21.2530   -6.9920   23.7400 C   0  0  0  0  0  3  0  0  0  0  0  0
  -21.0590   -6.2220   24.9050 C   0  0  0  0  0  3  0  0  0  0  0  0
  -21.3780   -4.8500   24.9040 C   0  0  0  0  0  0  0  0  0  0  0  0
  -21.8950   -4.2480   23.7440 C   0  0  0  0  0  3  0  0  0  0  0  0
  -22.0910   -5.0160   22.5820 C   0  0  0  0  0  0  0  0  0  0  0  0
  -22.5690   -4.4260   21.4600 F   0  0  0  0  0  0  0  0  0  0  0  0
  -21.1850   -4.1090   26.0190 F   0  0  0  0  0  0  0  0  0  0  0  0
  -23.0930  -13.7150   21.2140 C   0  0  0  0  0  0  0  0  0  0  0  0
  -22.3790  -13.0130   22.0870 N   0  0  0  0  0  0  0  0  0  0  0  0
  -22.6560  -14.7550   20.7230 O   0  0  0  0  0  0  0  0  0  0  0  0
  -22.7470  -12.1710   22.5050 H   0  0  0  0  0  0  0  0  0  0  0  0
  -21.4530  -13.3230   22.3430 H   0  0  0  0  0  0  0  0  0  0  0  0
  -25.7160  -15.3650   20.3660 N   0  0  0  0  0  0  0  0  0  0  0  0
  -24.9600  -16.0230   20.5140 H   0  0  0  0  0  0  0  0  0  0  0  0
  -26.5590  -15.8000   20.0160 H   0  0  0  0  0  0  0  0  0  0  0  0
  -29.2530  -22.9990   23.1990 C   0  0  0  0  0  2  0  0  0  0  0  0
  -29.5130  -21.5190   23.1810 C   0  0  0  0  0  2  0  0  0  0  0  0
  -28.6870  -22.1510   22.0780 C   0  0  0  0  0  3  0  0  0  0  0  0
  -28.6610  -24.9950   20.7060 C   0  0  0  0  0  2  0  0  0  0  0  0
  -28.8480  -26.4140   20.1560 O   0  0  0  0  0  0  0  0  0  0  0  0
  -24.8870  -31.7480   23.2670 C   0  0  0  0  0  0  0  0  0  0  0  0
  -27.7390  -27.3130   20.1420 C   0  0  0  0  0  0  0  0  0  0  0  0
  -23.7820  -30.3500   21.5620 C   0  0  0  0  0  3  0  0  0  0  0  0
  -25.3270  -28.9010   20.1180 C   0  0  0  0  0  0  0  0  0  0  0  0
  -26.3170  -30.7590   21.4470 C   0  0  0  0  0  2  0  0  0  0  0  0
  -26.4690  -29.3980   20.7580 C   0  0  0  0  0  0  0  0  0  0  0  0
  -27.6810  -28.6200   20.7540 C   0  0  0  0  0  3  0  0  0  0  0  0
  -26.5740  -26.9050   19.4610 C   0  0  0  0  0  3  0  0  0  0  0  0
  -25.3870  -27.6650   19.4550 C   0  0  0  0  0  3  0  0  0  0  0  0
  -24.0550  -29.7290   20.1680 C   0  0  0  0  0  2  0  0  0  0  0  0
  -25.0140  -30.9700   22.1500 N   0  0  0  0  0  0  0  0  0  0  0  0
  -23.7820  -31.9620   23.7850 O   0  0  0  0  0  0  0  0  0  0  0  0
  -23.1400  -29.2790   22.4780 C   0  0  0  0  0  0  0  0  0  0  0  0
  -21.8310  -29.0330   22.3050 N   0  0  0  0  0  0  0  0  0  0  0  0
  -23.8240  -28.6730   23.3080 O   0  0  0  0  0  0  0  0  0  0  0  0
  -21.3330  -29.5760   21.6130 H   0  0  0  0  0  0  0  0  0  0  0  0
  -18.5160  -27.6190   22.6570 C   0  0  0  0  0  0  0  0  0  0  0  0
  -21.0420  -28.0320   23.0290 C   0  0  0  0  0  3  0  0  0  0  0  0
  -21.2530  -26.6200   22.4350 C   0  0  0  0  0  2  0  0  0  0  0  0
  -20.2130  -26.2490   21.3740 C   0  0  0  0  0  2  0  0  0  0  0  0
  -18.8010  -26.2960   21.9660 C   0  0  0  0  0  2  0  0  0  0  0  0
  -19.5670  -28.4410   23.1420 C   0  0  0  0  0  0  0  0  0  0  0  0
  -19.2470  -29.6750   23.7470 C   0  0  0  0  0  3  0  0  0  0  0  0
  -17.9080  -30.0890   23.8730 C   0  0  0  0  0  3  0  0  0  0  0  0
  -16.8700  -29.2660   23.4040 C   0  0  0  0  0  3  0  0  0  0  0  0
  -17.1750  -28.0320   22.8030 C   0  0  0  0  0  3  0  0  0  0  0  0
  -26.1250  -32.4200   23.9350 C   0  0  0  0  0  3  0  0  0  0  0  0
  -25.7390  -33.7870   24.3170 N   0  0  0  0  0  0  0  0  0  0  0  0
  -26.0000  -34.8840   23.5940 C   0  0  0  0  0  0  0  0  0  0  0  0
  -26.6590  -34.8560   22.5500 O   0  0  0  0  0  0  0  0  0  0  0  0
  -25.1480  -33.8790   25.1300 H   0  0  0  0  0  0  0  0  0  0  0  0
  -24.1530  -36.5760   23.3480 C   0  0  0  0  0  1  0  0  0  0  0  0
  -25.4430  -36.2260   24.1080 C   0  0  0  0  0  3  0  0  0  0  0  0
  -27.5430  -37.2220   24.9020 C   0  0  0  0  0  1  0  0  0  0  0  0
  -26.4040  -37.3450   23.9950 N   0  0  0  0  0  0  0  0  0  0  0  0
  -25.9460  -38.2340   24.1800 H   0  0  0  0  0  0  0  0  0  0  0  0
  -26.6580  -31.6270   25.1920 C   0  0  1  0  0  0  0  0  0  0  0  0
  -25.5620  -31.2990   26.2330 C   0  0  0  0  0  1  0  0  0  0  0  0
  -27.3120  -30.2920   24.7630 C   0  0  0  0  0  1  0  0  0  0  0  0
  -27.7610  -32.4490   25.9020 C   0  0  0  0  0  1  0  0  0  0  0  0
  1  2  1  0
  2  3  2  0
  3 52  1  0
  4  3  1  0
  4 53  1  0
  5  4  2  0
  6  5  1  0
  7  1  2  0
  7  5  1  0
  8 21  1  0
  9 14  1  0
 10 11  1  0
 10  9  1  0
 12 11  1  0
 12 25  1  0
 12 13  1  0
 14  8  1  0
 14 13  1  0
 15  8  2  0
 16 18  1  0
 16 20  1  0
 17 19  1  0
 18 21  1  0
 20  2  1  0
 20 17  1  0
 21 19  1  0
 22 23  2  0
 23 42  1  0
 24 23  1  0
 24 27  1  0
 25 26  1  0
 25 22  1  0
 26 24  2  0
 27 28  1  0
 28 29  2  0
 30 33  1  0
 30 29  1  0
 31 30  2  0
 32 31  1  0
 32 27  2  0
 33 34  1  0
 34 39  2  0
 34 35  1  0
 35 36  2  0
 37 36  1  0
 37 41  1  0
 38 37  2  0
 39 38  1  0
 40 39  1  0
 42 43  1  0
 43 46  1  0
 43 45  1  0
 44 42  2  0
 47 48  1  0
 47 22  1  0
 49 47  1  0
 51 50  1  0
 52 51  1  0
 52 50  1  0
 54 53  1  0
 55 66  2  0
 56 54  1  0
 56 61  1  0
 57 65  1  0
 57 67  1  0
 58 64  1  0
 58 60  1  0
 59 65  1  0
 60 59  1  0
 61 60  2  0
 62 56  2  0
 63 62  1  0
 63 58  2  0
 64 57  1  0
 65 55  1  0
 67 69  2  0
 68 67  1  0
 70 68  1  0
 71 80  2  0
 71 76  1  0
 72 68  1  0
 72 76  1  0
 73 72  1  0
 74 75  1  0
 74 73  1  0
 75 71  1  0
 76 77  2  0
 77 78  1  0
 79 78  2  0
 80 79  1  0
 81 55  1  0
 81 82  1  0
 81 91  1  0
 82 85  1  0
 83 87  1  0
 83 82  1  0
 84 83  2  0
 87 86  1  0
 89 87  1  0
 89 90  1  0
 89 88  1  0
 91 94  1  1
 91 92  1  0
 93 91  1  0
M  ISO  4   8 100  21 100  53 101  54 101
M  END
>  <TORSDO>  (54) 
F 18

>  <SCORE>  (54) 
-13.968

>  <name>  (54) 
53

>  <ligand_id>  (54) 
53

>  <original_smiles>  (54) 
[H]c1nc(C([H])([H])[H])c(C([H])([H])Oc2c([H])c([H])c3c(c2[H])C([H])([H])N(C(=O)C([H])(N([H])C(=O)C([H])(N([H])C([H])([H])[H])C([H])([H])[H])C(C([H])([H])[H])(C([H])([H])[H])C([H])([H])[H])C([H])(C(=O)N([H])C2([H])c4c([H])c([H])c([H])c([H])c4C([H])([H])C([H])([H])C2([H])[H])C3([H])[H])c(C2([H])C([H])([H])C2([H])[H])c1C1([H])C([H])([H])C([H])([H])N(C(=O)N2C([H])([H])C([H])([H])C([H])([H])C([H])(n3nc(-c4c([H])c([H])c(Oc5c([H])c([H])c(F)c([H])c5F)c([H])c4[H])c(C(=O)N([H])[H])c3N([H])[H])C2([H])[H])C([H])([H])C1([H])[H]

>  <smiles>  (54) 
[H]c1nc(C([H])([H])[H])c(C([H])([H])Oc2c([H])c([H])c3c(c2[H])C([H])([H])N(C(=O)C([H])(N([H])C(=O)C([H])(N([H])C([H])([H])[H])C([H])([H])[H])C(C([H])([H])[H])(C([H])([H])[H])C([H])([H])[H])C([H])(C(=O)N([H])C2([H])c4c([H])c([H])c([H])c([H])c4C([H])([H])C([H])([H])C2([H])[H])C3([H])[H])c(C2([H])C([H])([H])C2([H])[H])c1C1([H])C([H])([H])C([H])([H])N(C(=O)N2C([H])([H])C([H])([H])C([H])([H])C([H])(n3nc(-c4c([H])c([H])c(Oc5c([H])c([H])c(F)c([H])c5F)c([H])c4[H])c(C(=O)N([H])[H])c3N([H])[H])C2([H])[H])C([H])([H])C1([H])[H]

$$$$
54:0:0
     RDKit          3D

 97106  0  0  1  0  0  0  0  0999 V2000
  -31.7080  -23.7350   19.5430 C   0  0  0  0  0  3  0  0  0  0  0  0
  -30.7260  -24.6670   19.9300 C   0  0  0  0  0  0  0  0  0  0  0  0
  -29.1600  -22.8090   20.2360 C   0  0  0  0  0  0  0  0  0  0  0  0
  -29.4140  -24.2300   20.2500 C   0  0  0  0  0  0  0  0  0  0  0  0
  -30.1530  -21.8620   19.8020 C   0  0  0  0  0  0  0  0  0  0  0  0
  -31.4350  -22.3500   19.4410 C   0  0  0  0  0  0  0  0  0  0  0  0
  -31.1420  -26.1310   19.9860 C   0  0  0  0  0  1  0  0  0  0  0  0
  -27.7940  -22.2850   20.6650 C   0  0  0  0  0  1  0  0  0  0  0  0
  -33.6210  -21.9380   18.5020 C   0  0  0  0  0  1  0  0  0  0  0  0
  -32.3670  -21.4490   18.9710 O   0  0  0  0  0  0  0  0  0  0  0  0
  -29.8320  -20.3510   19.5420 C   0  0  0  0  0  2  0  0  0  0  0  0
  -31.6170  -17.5530   21.1850 C   0  0  0  0  0  2  0  0  0  0  0  0
  -31.4200  -19.0890   21.0910 C   0  0  0  0  0  2  0  0  0  0  0  0
  -29.4320  -17.9960   20.3820 C   0  0  0  0  0  2  0  0  0  0  0  0
  -30.1900  -16.9980   21.2920 C   0  0  0  0  0  3  0  0  0  0  0  0
  -30.0250  -19.3460   20.6470 N   0  0  2  0  0  4  0  0  0  0  0  0
  -29.5400  -19.7110   21.4520 H   0  0  0  0  0  0  0  0  0  0  0  0
  -30.6310  -14.5400   20.4830 C   0  0  0  0  0  0  0  0  0  0  0  0
  -30.3410  -12.3670   19.3270 C   0  0  0  0  0  2  0  0  0  0  0  0
  -29.3800  -12.5490   18.1320 C   0  0  0  0  0  2  0  0  0  0  0  0
  -27.9090  -12.4050   18.5740 C   0  0  0  0  0  2  0  0  0  0  0  0
  -27.5810  -13.2380   19.8420 C   0  0  0  0  0  3  0  0  0  0  0  0
  -28.6530  -13.0280   20.9390 C   0  0  0  0  0  2  0  0  0  0  0  0
  -29.9670  -13.3530   20.3540 N   0  0  0  0  0  0  0  0  0  0  0  0
  -31.7480  -14.7240   19.9940 O   0  0  0  0  0  0  0  0  0  0  0  0
  -29.9240  -15.5430   21.0570 N   0  0  0  0  0  0  0  0  0  0  0  0
  -29.0290  -15.2270   21.4060 H   0  0  0  0  0  0  0  0  0  0  0  0
  -25.1900  -13.8480   20.5710 C   0  0  0  0  0  0  0  0  0  0  0  0
  -24.1240  -13.0770   20.9480 C   0  0  0  0  0  0  0  0  0  0  0  0
  -24.5800  -11.7250   20.9110 C   0  0  0  0  0  0  0  0  0  0  0  0
  -26.2330  -12.9640   20.3320 N   0  0  0  0  0  0  0  0  0  0  0  0
  -25.8690  -11.6820   20.5940 N   0  0  0  0  0  0  0  0  0  0  0  0
  -23.8520  -10.4640   21.1040 C   0  0  0  0  0  0  0  0  0  0  0  0
  -24.3110   -9.4780   22.0050 C   0  0  0  0  0  3  0  0  0  0  0  0
  -23.5840   -8.2810   22.1870 C   0  0  0  0  0  3  0  0  0  0  0  0
  -22.3850   -8.0620   21.4690 C   0  0  0  0  0  0  0  0  0  0  0  0
  -21.9460   -9.0370   20.5550 C   0  0  0  0  0  3  0  0  0  0  0  0
  -22.6730  -10.2250   20.3700 C   0  0  0  0  0  3  0  0  0  0  0  0
  -21.6270   -6.9190   21.5610 O   0  0  0  0  0  0  0  0  0  0  0  0
  -21.6350   -6.1410   22.6900 C   0  0  0  0  0  0  0  0  0  0  0  0
  -21.3030   -6.6640   23.9600 C   0  0  0  0  0  3  0  0  0  0  0  0
  -21.2570   -5.8120   25.0820 C   0  0  0  0  0  3  0  0  0  0  0  0
  -21.5320   -4.4390   24.9370 C   0  0  0  0  0  0  0  0  0  0  0  0
  -21.8560   -3.9160   23.6730 C   0  0  0  0  0  3  0  0  0  0  0  0
  -21.9040   -4.7650   22.5530 C   0  0  0  0  0  0  0  0  0  0  0  0
  -22.1970   -4.2510   21.3340 F   0  0  0  0  0  0  0  0  0  0  0  0
  -21.4810   -3.6200   26.0120 F   0  0  0  0  0  0  0  0  0  0  0  0
  -22.7290  -13.5580   21.2340 C   0  0  0  0  0  0  0  0  0  0  0  0
  -22.0060  -12.8630   22.1050 N   0  0  0  0  0  0  0  0  0  0  0  0
  -22.2890  -14.5840   20.7180 O   0  0  0  0  0  0  0  0  0  0  0  0
  -22.3730  -12.0330   22.5470 H   0  0  0  0  0  0  0  0  0  0  0  0
  -21.0690  -13.1640   22.3320 H   0  0  0  0  0  0  0  0  0  0  0  0
  -25.3610  -15.2180   20.3910 N   0  0  0  0  0  0  0  0  0  0  0  0
  -24.6000  -15.8800   20.5010 H   0  0  0  0  0  0  0  0  0  0  0  0
  -26.2050  -15.6440   20.0340 H   0  0  0  0  0  0  0  0  0  0  0  0
  -28.2970  -25.2490   20.6470 C   0  0  0  0  0  2  0  0  0  0  0  0
  -28.3960  -26.6210   20.1600 O   0  0  0  0  0  0  0  0  0  0  0  0
  -24.6080  -31.8860   23.2320 C   0  0  0  0  0  0  0  0  0  0  0  0
  -27.2350  -27.3860   20.1760 C   0  0  0  0  0  0  0  0  0  0  0  0
  -23.3940  -30.4710   21.6070 C   0  0  0  0  0  3  0  0  0  0  0  0
  -24.8420  -28.9210   20.1840 C   0  0  0  0  0  0  0  0  0  0  0  0
  -25.9230  -30.8190   21.3980 C   0  0  0  0  0  2  0  0  0  0  0  0
  -26.0080  -29.4420   20.7630 C   0  0  0  0  0  0  0  0  0  0  0  0
  -27.2080  -28.6850   20.7490 C   0  0  0  0  0  3  0  0  0  0  0  0
  -26.0530  -26.9000   19.5740 C   0  0  0  0  0  3  0  0  0  0  0  0
  -24.8630  -27.6520   19.5840 C   0  0  0  0  0  3  0  0  0  0  0  0
  -23.5960  -29.7800   20.2330 C   0  0  0  0  0  2  0  0  0  0  0  0
  -24.6610  -31.0760   22.1360 N   0  0  0  0  0  0  0  0  0  0  0  0
  -23.5290  -32.1610   23.7760 O   0  0  0  0  0  0  0  0  0  0  0  0
  -22.7470  -29.4600   22.5800 C   0  0  0  0  0  0  0  0  0  0  0  0
  -21.4210  -29.2760   22.4600 N   0  0  0  0  0  0  0  0  0  0  0  0
  -23.4350  -28.8400   23.3960 O   0  0  0  0  0  0  0  0  0  0  0  0
  -20.9280  -29.8260   21.7700 H   0  0  0  0  0  0  0  0  0  0  0  0
  -18.0520  -28.0680   22.9720 C   0  0  0  0  0  0  0  0  0  0  0  0
  -20.6090  -28.3420   23.2400 C   0  0  0  0  0  3  0  0  0  0  0  0
  -20.7190  -26.9060   22.6790 C   0  0  0  0  0  2  0  0  0  0  0  0
  -19.6180  -26.5680   21.6680 C   0  0  0  0  0  2  0  0  0  0  0  0
  -18.2350  -26.7140   22.3100 C   0  0  0  0  0  2  0  0  0  0  0  0
  -19.1670  -28.8400   23.3940 C   0  0  0  0  0  0  0  0  0  0  0  0
  -18.9420  -30.1090   23.9710 C   0  0  0  0  0  3  0  0  0  0  0  0
  -17.6350  -30.6060   24.1310 C   0  0  0  0  0  3  0  0  0  0  0  0
  -16.5350  -29.8310   23.7270 C   0  0  0  0  0  3  0  0  0  0  0  0
  -16.7440  -28.5640   23.1550 C   0  0  0  0  0  3  0  0  0  0  0  0
  -25.8970  -32.5200   23.8420 C   0  0  0  0  0  3  0  0  0  0  0  0
  -26.4400  -31.7420   25.1020 C   0  0  1  0  0  0  0  0  0  0  0  0
  -25.3670  -31.4850   26.1840 C   0  0  0  0  0  1  0  0  0  0  0  0
  -27.0270  -30.3710   24.6880 C   0  0  0  0  0  1  0  0  0  0  0  0
  -27.5950  -32.5390   25.7530 C   0  0  0  0  0  1  0  0  0  0  0  0
  -25.5820  -33.9140   24.1890 N   0  0  0  0  0  0  0  0  0  0  0  0
  -25.8930  -34.9750   23.4330 C   0  0  0  0  0  0  0  0  0  0  0  0
  -26.5460  -34.8850   22.3890 O   0  0  0  0  0  0  0  0  0  0  0  0
  -24.9980  -34.0570   25.0000 H   0  0  0  0  0  0  0  0  0  0  0  0
  -24.1400  -36.7530   23.1260 C   0  0  0  0  0  1  0  0  0  0  0  0
  -25.4020  -36.3560   23.9100 C   0  0  0  0  0  3  0  0  0  0  0  0
  -27.5450  -37.2540   24.6990 C   0  0  0  0  0  1  0  0  0  0  0  0
  -26.4210  -37.4190   23.7820 N   0  0  0  0  0  0  0  0  0  0  0  0
  -26.0100  -38.3350   23.9450 H   0  0  0  0  0  0  0  0  0  0  0  0
  1  2  1  0
  2  7  1  0
  2  4  2  0
  3  4  1  0
  3  8  1  0
  4 56  1  0
  5  3  2  0
  6  1  2  0
  6  5  1  0
  9 10  1  0
 10  6  1  0
 11  5  1  0
 11 16  1  0
 12 15  1  0
 13 12  1  0
 14 16  1  0
 14 15  1  0
 15 26  1  0
 16 13  1  0
 16 17  1  1
 18 26  1  0
 19 24  1  0
 20 21  1  0
 20 19  1  0
 22 21  1  0
 22 31  1  0
 22 23  1  0
 24 18  1  0
 24 23  1  0
 25 18  2  0
 26 27  1  0
 28 29  2  0
 29 48  1  0
 30 29  1  0
 30 33  1  0
 31 28  1  0
 31 32  1  0
 32 30  2  0
 33 34  1  0
 34 35  2  0
 36 39  1  0
 36 35  1  0
 37 36  2  0
 38 37  1  0
 38 33  2  0
 39 40  1  0
 40 41  1  0
 41 42  2  0
 43 42  1  0
 43 47  1  0
 44 43  2  0
 45 40  2  0
 45 44  1  0
 46 45  1  0
 48 49  1  0
 49 52  1  0
 49 51  1  0
 50 48  2  0
 53 54  1  0
 53 28  1  0
 55 53  1  0
 57 59  1  0
 57 56  1  0
 58 69  2  0
 59 64  1  0
 60 68  1  0
 60 70  1  0
 61 67  1  0
 61 63  1  0
 62 68  1  0
 63 62  1  0
 64 63  2  0
 65 66  1  0
 65 59  2  0
 66 61  2  0
 67 60  1  0
 68 58  1  0
 70 72  2  0
 71 70  1  0
 73 71  1  0
 74 83  2  0
 74 79  1  0
 75 71  1  0
 75 79  1  0
 76 75  1  0
 77 78  1  0
 77 76  1  0
 78 74  1  0
 79 80  2  0
 80 81  1  0
 82 81  2  0
 83 82  1  0
 84 58  1  0
 84 89  1  0
 84 85  1  0
 85 88  1  1
 85 86  1  0
 87 85  1  0
 89 92  1  0
 90 94  1  0
 90 89  1  0
 91 90  2  0
 94 93  1  0
 96 94  1  0
 96 97  1  0
 96 95  1  0
M  ISO  4  18 100  26 100  56 101  57 101
M  END
>  <TORSDO>  (55) 
F 20

>  <SCORE>  (55) 
-14.152

>  <name>  (55) 
54

>  <ligand_id>  (55) 
54

>  <original_smiles>  (55) 
[H]c1c([H])c([H])c2c(c1[H])C([H])([H])C([H])([H])C([H])([H])C2([H])N([H])C(=O)C1([H])N(C(=O)C([H])(N([H])C(=O)C([H])(N([H])C([H])([H])[H])C([H])([H])[H])C(C([H])([H])[H])(C([H])([H])[H])C([H])([H])[H])C([H])([H])c2c([H])c(OC([H])([H])c3c(C([H])([H])[H])c([H])c(OC([H])([H])[H])c(C([H])([H])[N+]4([H])C([H])([H])C([H])([H])C([H])(N([H])C(=O)N5C([H])([H])C([H])([H])C([H])([H])C([H])(n6nc(-c7c([H])c([H])c(Oc8c([H])c([H])c(F)c([H])c8F)c([H])c7[H])c(C(=O)N([H])[H])c6N([H])[H])C5([H])[H])C4([H])[H])c3C([H])([H])[H])c([H])c([H])c2C1([H])[H]

>  <smiles>  (55) 
[H]c1c([H])c([H])c2c(c1[H])C([H])([H])C([H])([H])C([H])([H])C2([H])N([H])C(=O)C1([H])N(C(=O)C([H])(N([H])C(=O)C([H])(N([H])C([H])([H])[H])C([H])([H])[H])C(C([H])([H])[H])(C([H])([H])[H])C([H])([H])[H])C([H])([H])c2c([H])c(OC([H])([H])c3c(C([H])([H])[H])c([H])c(OC([H])([H])[H])c(C([H])([H])[N+]4([H])C([H])([H])C([H])([H])C([H])(N([H])C(=O)N5C([H])([H])C([H])([H])C([H])([H])C([H])(n6nc(-c7c([H])c([H])c(Oc8c([H])c([H])c(F)c([H])c8F)c([H])c7[H])c(C(=O)N([H])[H])c6N([H])[H])C5([H])[H])C4([H])[H])c3C([H])([H])[H])c([H])c([H])c2C1([H])[H]

$$$$
55:0:0
     RDKit          3D

101110  0  0  1  0  0  0  0  0999 V2000
  -29.4510  -18.5380   18.7740 C   0  0  0  0  0  2  0  0  0  0  0  0
  -29.7660  -19.4690   20.8020 C   0  0  0  0  0  2  0  0  0  0  0  0
  -29.4950  -20.1060   18.5640 C   0  0  0  0  0  3  0  0  0  0  0  0
  -30.3690  -18.1260   19.9910 C   0  0  2  0  0  0  0  0  0  0  0  0
  -28.4470  -20.5920   17.5350 C   0  0  0  0  0  1  0  0  0  0  0  0
  -29.2570  -20.6570   19.9200 N   0  0  2  0  0  4  0  0  0  0  0  0
  -28.2590  -20.5600   20.0200 H   0  0  0  0  0  0  0  0  0  0  0  0
  -32.2620  -17.5520   18.3590 C   0  0  0  0  0  3  0  0  0  0  0  0
  -31.8820  -18.2230   19.5570 C   0  0  0  0  0  0  0  0  0  0  0  0
  -32.9500  -18.7630   20.3530 C   0  0  0  0  0  0  0  0  0  0  0  0
  -34.3100  -18.4750   20.0180 C   0  0  0  0  0  0  0  0  0  0  0  0
  -34.6270  -17.6570   18.9010 C   0  0  0  0  0  0  0  0  0  0  0  0
  -33.6010  -17.2700   18.0180 C   0  0  0  0  0  0  0  0  0  0  0  0
  -32.6580  -19.6260   21.5830 C   0  0  0  0  0  1  0  0  0  0  0  0
  -35.4480  -19.0210   20.8810 C   0  0  0  0  0  1  0  0  0  0  0  0
  -36.0610  -17.1670   18.6610 C   0  0  0  0  0  1  0  0  0  0  0  0
  -33.9310  -16.5260   16.9020 O   0  0  0  0  0  0  0  0  0  0  0  0
  -34.1960  -17.0610   14.5890 C   0  0  0  0  0  1  0  0  0  0  0  0
  -33.1850  -16.7590   15.7060 C   0  0  0  0  0  2  0  0  0  0  0  0
  -29.4890  -22.1980   20.2680 C   0  0  0  0  0  2  0  0  0  0  0  0
  -28.7200  -23.5280   19.5470 C   0  0  0  0  0  2  0  0  0  0  0  0
  -27.2540  -24.8400   21.2910 C   0  0  0  0  0  1  0  0  0  0  0  0
  -28.4310  -25.0160   20.3060 C   0  0  0  0  0  3  0  0  0  0  0  0
  -28.3770  -26.4550   19.6890 O   0  0  0  0  0  0  0  0  0  0  0  0
  -24.5640  -31.8080   23.0750 C   0  0  0  0  0  0  0  0  0  0  0  0
  -27.2640  -27.3690   19.7600 C   0  0  0  0  0  0  0  0  0  0  0  0
  -23.3840  -30.4380   21.3960 C   0  0  0  0  0  3  0  0  0  0  0  0
  -24.8670  -29.0020   19.8670 C   0  0  0  0  0  0  0  0  0  0  0  0
  -25.9200  -30.8310   21.1880 C   0  0  0  0  0  2  0  0  0  0  0  0
  -26.0380  -29.4750   20.4680 C   0  0  0  0  0  0  0  0  0  0  0  0
  -27.2380  -28.6700   20.4020 C   0  0  0  0  0  3  0  0  0  0  0  0
  -26.0670  -27.0080   19.1080 C   0  0  0  0  0  3  0  0  0  0  0  0
  -24.8870  -27.7780   19.1810 C   0  0  0  0  0  3  0  0  0  0  0  0
  -23.6050  -29.8380   19.9840 C   0  0  0  0  0  2  0  0  0  0  0  0
  -24.6430  -31.0440   21.9420 N   0  0  0  0  0  0  0  0  0  0  0  0
  -23.4770  -32.0310   23.6300 O   0  0  0  0  0  0  0  0  0  0  0  0
  -22.7650  -29.3560   22.3210 C   0  0  0  0  0  0  0  0  0  0  0  0
  -21.4370  -29.1650   22.2330 N   0  0  0  0  0  0  0  0  0  0  0  0
  -23.4790  -28.6970   23.0820 O   0  0  0  0  0  0  0  0  0  0  0  0
  -20.9220  -29.7580   21.6010 H   0  0  0  0  0  0  0  0  0  0  0  0
  -18.0900  -27.8620   22.7390 C   0  0  0  0  0  0  0  0  0  0  0  0
  -20.6500  -28.1710   22.9670 C   0  0  0  0  0  3  0  0  0  0  0  0
  -20.7740  -26.7730   22.3190 C   0  0  0  0  0  2  0  0  0  0  0  0
  -19.6550  -26.4780   21.3160 C   0  0  0  0  0  2  0  0  0  0  0  0
  -18.2840  -26.5500   21.9970 C   0  0  0  0  0  2  0  0  0  0  0  0
  -19.2010  -28.6320   23.1790 C   0  0  0  0  0  0  0  0  0  0  0  0
  -18.9630  -29.8520   23.8450 C   0  0  0  0  0  3  0  0  0  0  0  0
  -17.6520  -30.3100   24.0700 C   0  0  0  0  0  3  0  0  0  0  0  0
  -16.5560  -29.5340   23.6520 C   0  0  0  0  0  3  0  0  0  0  0  0
  -16.7760  -28.3110   22.9940 C   0  0  0  0  0  3  0  0  0  0  0  0
  -25.8300  -32.4600   23.7110 C   0  0  0  0  0  3  0  0  0  0  0  0
  -25.4860  -33.8400   24.0880 N   0  0  0  0  0  0  0  0  0  0  0  0
  -25.7970  -34.9280   23.3710 C   0  0  0  0  0  0  0  0  0  0  0  0
  -26.4610  -34.8740   22.3330 O   0  0  0  0  0  0  0  0  0  0  0  0
  -24.8990  -33.9520   24.9030 H   0  0  0  0  0  0  0  0  0  0  0  0
  -24.0210  -36.6860   23.1010 C   0  0  0  0  0  1  0  0  0  0  0  0
  -25.2830  -36.2890   23.8830 C   0  0  0  0  0  3  0  0  0  0  0  0
  -27.4050  -37.1910   24.7120 C   0  0  0  0  0  1  0  0  0  0  0  0
  -26.2870  -37.3710   23.7940 N   0  0  0  0  0  0  0  0  0  0  0  0
  -25.8630  -38.2750   23.9880 H   0  0  0  0  0  0  0  0  0  0  0  0
  -26.3810  -31.6640   24.9560 C   0  0  1  0  0  0  0  0  0  0  0  0
  -25.3120  -31.3700   26.0340 C   0  0  0  0  0  1  0  0  0  0  0  0
  -26.9820  -30.3100   24.5140 C   0  0  0  0  0  1  0  0  0  0  0  0
  -27.5330  -32.4580   25.6180 C   0  0  0  0  0  1  0  0  0  0  0  0
  -30.0970  -16.6500   20.5040 O   0  0  0  0  0  0  0  0  0  0  0  0
  -30.9240  -15.3160   20.3240 C   0  0  0  0  0  0  0  0  0  0  0  0
  -30.7200  -12.9160   19.4380 C   0  0  0  0  0  2  0  0  0  0  0  0
  -29.8410  -12.8820   18.1680 C   0  0  0  0  0  2  0  0  0  0  0  0
  -28.3750  -12.6620   18.5750 C   0  0  0  0  0  2  0  0  0  0  0  0
  -27.9320  -13.6200   19.7090 C   0  0  0  0  0  3  0  0  0  0  0  0
  -28.9440  -13.6940   20.8670 C   0  0  0  0  0  2  0  0  0  0  0  0
  -30.2410  -14.0380   20.2950 N   0  0  0  0  0  0  0  0  0  0  0  0
  -32.1270  -15.2970   20.0770 O   0  0  0  0  0  0  0  0  0  0  0  0
  -25.5440  -14.1970   20.4000 C   0  0  0  0  0  0  0  0  0  0  0  0
  -24.4720  -13.4200   20.7560 C   0  0  0  0  0  0  0  0  0  0  0  0
  -24.9420  -12.0730   20.7510 C   0  0  0  0  0  0  0  0  0  0  0  0
  -26.5900  -13.3150   20.1870 N   0  0  0  0  0  0  0  0  0  0  0  0
  -26.2400  -12.0330   20.4720 N   0  0  0  0  0  0  0  0  0  0  0  0
  -24.2110  -10.8090   20.9370 C   0  0  0  0  0  0  0  0  0  0  0  0
  -24.6000   -9.8740   21.9200 C   0  0  0  0  0  3  0  0  0  0  0  0
  -23.8770   -8.6730   22.0940 C   0  0  0  0  0  3  0  0  0  0  0  0
  -22.7510   -8.4010   21.2810 C   0  0  0  0  0  0  0  0  0  0  0  0
  -22.3810   -9.3250   20.2880 C   0  0  0  0  0  3  0  0  0  0  0  0
  -23.1040  -10.5180   20.1140 C   0  0  0  0  0  3  0  0  0  0  0  0
  -21.9960   -7.2550   21.3630 O   0  0  0  0  0  0  0  0  0  0  0  0
  -21.8290   -6.5880   22.5490 C   0  0  0  0  0  0  0  0  0  0  0  0
  -21.2870   -7.2210   23.6890 C   0  0  0  0  0  3  0  0  0  0  0  0
  -21.0680   -6.4800   24.8660 C   0  0  0  0  0  3  0  0  0  0  0  0
  -21.3740   -5.1060   24.9060 C   0  0  0  0  0  0  0  0  0  0  0  0
  -21.9040   -4.4720   23.7680 C   0  0  0  0  0  3  0  0  0  0  0  0
  -22.1300   -5.2110   22.5920 C   0  0  0  0  0  0  0  0  0  0  0  0
  -22.6220   -4.5920   21.4930 F   0  0  0  0  0  0  0  0  0  0  0  0
  -21.1550   -4.3910   26.0350 F   0  0  0  0  0  0  0  0  0  0  0  0
  -23.0680  -13.8990   20.9860 C   0  0  0  0  0  0  0  0  0  0  0  0
  -22.3250  -13.2170   21.8540 N   0  0  0  0  0  0  0  0  0  0  0  0
  -22.6350  -14.9040   20.4290 O   0  0  0  0  0  0  0  0  0  0  0  0
  -22.6870  -12.4040   22.3270 H   0  0  0  0  0  0  0  0  0  0  0  0
  -21.3810  -13.5180   22.0560 H   0  0  0  0  0  0  0  0  0  0  0  0
  -25.7090  -15.5640   20.2230 N   0  0  0  0  0  0  0  0  0  0  0  0
  -24.9460  -16.2260   20.3330 H   0  0  0  0  0  0  0  0  0  0  0  0
  -26.5770  -16.0020   19.9450 H   0  0  0  0  0  0  0  0  0  0  0  0
  1  4  1  0
  3  5  1  0
  3  1  1  0
  3  6  1  0
  4 65  1  1
  4  2  1  0
  6  7  1  6
  6 20  1  0
  6  2  1  0
  8  9  1  0
  9  4  1  0
  9 10  2  0
 10 14  1  0
 11 10  1  0
 11 15  1  0
 12 11  2  0
 13  8  2  0
 13 12  1  0
 16 12  1  0
 17 13  1  0
 18 19  1  0
 19 17  1  0
 21 20  1  0
 21 23  1  0
 23 22  1  0
 24 26  1  0
 24 23  1  0
 25 36  2  0
 26 31  1  0
 27 35  1  0
 27 37  1  0
 28 34  1  0
 28 30  1  0
 29 35  1  0
 30 29  1  0
 31 30  2  0
 32 33  1  0
 32 26  2  0
 33 28  2  0
 34 27  1  0
 35 25  1  0
 37 39  2  0
 38 37  1  0
 40 38  1  0
 41 50  2  0
 41 46  1  0
 42 38  1  0
 42 46  1  0
 43 42  1  0
 44 45  1  0
 44 43  1  0
 45 41  1  0
 46 47  2  0
 47 48  1  0
 49 48  2  0
 50 49  1  0
 51 25  1  0
 51 52  1  0
 51 61  1  0
 52 55  1  0
 53 57  1  0
 53 52  1  0
 54 53  2  0
 57 56  1  0
 59 57  1  0
 59 60  1  0
 59 58  1  0
 61 64  1  1
 61 62  1  0
 63 61  1  0
 66 65  1  0
 67 72  1  0
 68 69  1  0
 68 67  1  0
 70 69  1  0
 70 77  1  0
 70 71  1  0
 72 66  1  0
 72 71  1  0
 73 66  2  0
 74 75  2  0
 75 94  1  0
 76 75  1  0
 76 79  1  0
 77 74  1  0
 77 78  1  0
 78 76  2  0
 79 80  1  0
 80 81  2  0
 82 85  1  0
 82 81  1  0
 83 82  2  0
 84 83  1  0
 84 79  2  0
 85 86  1  0
 86 91  2  0
 86 87  1  0
 87 88  2  0
 88 89  1  0
 89 93  1  0
 90 89  2  0
 91 90  1  0
 92 91  1  0
 94 95  1  0
 95 98  1  0
 95 97  1  0
 96 94  2  0
 99100  1  0
 99 74  1  0
101 99  1  0
M  ISO  4  23 101  24 101  65 100  66 100
M  END
>  <TORSDO>  (56) 
F 23

>  <SCORE>  (56) 
-13.617

>  <name>  (56) 
55

>  <ligand_id>  (56) 
55

>  <original_smiles>  (56) 
[H]c1c([H])c([H])c2c(c1[H])C([H])([H])C([H])([H])C([H])([H])C2([H])N([H])C(=O)C1([H])N(C(=O)C([H])(N([H])C(=O)C([H])(N([H])C([H])([H])[H])C([H])([H])[H])C(C([H])([H])[H])(C([H])([H])[H])C([H])([H])[H])C([H])([H])c2c([H])c(OC([H])(C([H])([H])[H])C([H])([H])C([H])([H])[N+]3([H])C([H])([H])C(OC(=O)N4C([H])([H])C([H])([H])C([H])([H])C([H])(n5nc(-c6c([H])c([H])c(Oc7c([H])c([H])c(F)c([H])c7F)c([H])c6[H])c(C(=O)N([H])[H])c5N([H])[H])C4([H])[H])(c4c([H])c(OC([H])([H])C([H])([H])[H])c(C([H])([H])[H])c(C([H])([H])[H])c4C([H])([H])[H])C([H])([H])C3([H])C([H])([H])[H])c([H])c([H])c2C1([H])[H]

>  <smiles>  (56) 
[H]c1c([H])c([H])c2c(c1[H])C([H])([H])C([H])([H])C([H])([H])C2([H])N([H])C(=O)C1([H])N(C(=O)C([H])(N([H])C(=O)C([H])(N([H])C([H])([H])[H])C([H])([H])[H])C(C([H])([H])[H])(C([H])([H])[H])C([H])([H])[H])C([H])([H])c2c([H])c(OC([H])(C([H])([H])[H])C([H])([H])C([H])([H])[N+]3([H])C([H])([H])C(OC(=O)N4C([H])([H])C([H])([H])C([H])([H])C([H])(n5nc(-c6c([H])c([H])c(Oc7c([H])c([H])c(F)c([H])c7F)c([H])c6[H])c(C(=O)N([H])[H])c5N([H])[H])C4([H])[H])(c4c([H])c(OC([H])([H])C([H])([H])[H])c(C([H])([H])[H])c(C([H])([H])[H])c4C([H])([H])[H])C([H])([H])C3([H])C([H])([H])[H])c([H])c([H])c2C1([H])[H]

$$$$
56:0:0
     RDKit          3D

 97107  0  0  1  0  0  0  0  0999 V2000
  -30.1920  -20.2440   19.8570 C   0  0  0  0  0  3  0  0  0  0  0  0
  -30.3140  -19.8570   21.2060 C   0  0  0  0  0  0  0  0  0  0  0  0
  -30.0770  -21.6100   19.5300 C   0  0  0  0  0  0  0  0  0  0  0  0
  -30.1000  -22.5640   20.5750 C   0  0  0  0  0  0  0  0  0  0  0  0
  -30.3470  -20.8800   22.1790 C   0  0  0  0  0  0  0  0  0  0  0  0
  -29.9240  -22.0090   18.0710 C   0  0  0  0  0  1  0  0  0  0  0  0
  -30.2430  -22.1910   21.8650 N   0  0  0  0  0  0  0  0  0  0  0  0
  -30.9830  -14.6040   20.1010 C   0  0  0  0  0  0  0  0  0  0  0  0
  -30.6010  -12.4850   18.8750 C   0  0  0  0  0  2  0  0  0  0  0  0
  -29.5790  -12.6770   17.7360 C   0  0  0  0  0  2  0  0  0  0  0  0
  -28.1390  -12.4950   18.2560 C   0  0  0  0  0  2  0  0  0  0  0  0
  -27.8750  -13.3150   19.5430 C   0  0  0  0  0  3  0  0  0  0  0  0
  -29.0000  -13.0650   20.5790 C   0  0  0  0  0  2  0  0  0  0  0  0
  -30.2800  -13.4380   19.9560 N   0  0  0  0  0  0  0  0  0  0  0  0
  -32.0000  -14.8180   19.4290 O   0  0  0  0  0  0  0  0  0  0  0  0
  -29.2840  -17.5390   20.8970 C   0  0  0  0  0  2  0  0  0  0  0  0
  -31.7370  -17.7090   21.3650 C   0  0  0  0  0  2  0  0  0  0  0  0
  -29.3330  -16.0690   21.3520 C   0  0  0  0  0  2  0  0  0  0  0  0
  -31.7090  -16.2250   21.8150 C   0  0  0  0  0  2  0  0  0  0  0  0
  -30.3680  -18.3750   21.5970 C   0  0  0  0  0  3  0  0  0  0  0  0
  -30.6580  -15.4540   21.1200 N   0  0  0  0  0  0  0  0  0  0  0  0
  -25.5360  -13.9230   20.4360 C   0  0  0  0  0  0  0  0  0  0  0  0
  -24.4880  -13.1450   20.8490 C   0  0  0  0  0  0  0  0  0  0  0  0
  -24.9330  -11.7930   20.7330 C   0  0  0  0  0  0  0  0  0  0  0  0
  -26.5540  -13.0420   20.1000 N   0  0  0  0  0  0  0  0  0  0  0  0
  -26.1980  -11.7540   20.3340 N   0  0  0  0  0  0  0  0  0  0  0  0
  -24.2120  -10.5280   20.9200 C   0  0  0  0  0  0  0  0  0  0  0  0
  -24.6160   -9.5860   21.8910 C   0  0  0  0  0  3  0  0  0  0  0  0
  -23.8960   -8.3850   22.0650 C   0  0  0  0  0  3  0  0  0  0  0  0
  -22.7600   -8.1170   21.2670 C   0  0  0  0  0  0  0  0  0  0  0  0
  -22.3760   -9.0480   20.2850 C   0  0  0  0  0  3  0  0  0  0  0  0
  -23.0970  -10.2400   20.1090 C   0  0  0  0  0  3  0  0  0  0  0  0
  -22.0140   -6.9660   21.3470 O   0  0  0  0  0  0  0  0  0  0  0  0
  -21.8010   -6.3290   22.5430 C   0  0  0  0  0  0  0  0  0  0  0  0
  -21.1590   -6.9710   23.6240 C   0  0  0  0  0  3  0  0  0  0  0  0
  -20.8990   -6.2580   24.8130 C   0  0  0  0  0  3  0  0  0  0  0  0
  -21.2700   -4.9040   24.9170 C   0  0  0  0  0  0  0  0  0  0  0  0
  -21.9040   -4.2620   23.8390 C   0  0  0  0  0  3  0  0  0  0  0  0
  -22.1670   -4.9730   22.6540 C   0  0  0  0  0  0  0  0  0  0  0  0
  -22.7600   -4.3440   21.6110 F   0  0  0  0  0  0  0  0  0  0  0  0
  -21.0120   -4.2150   26.0540 F   0  0  0  0  0  0  0  0  0  0  0  0
  -23.1170  -13.6190   21.2360 C   0  0  0  0  0  0  0  0  0  0  0  0
  -22.4510  -12.9010   22.1330 N   0  0  0  0  0  0  0  0  0  0  0  0
  -22.6480  -14.6610   20.7810 O   0  0  0  0  0  0  0  0  0  0  0  0
  -22.8440  -12.0570   22.5240 H   0  0  0  0  0  0  0  0  0  0  0  0
  -21.5340  -13.2000   22.4350 H   0  0  0  0  0  0  0  0  0  0  0  0
  -25.6990  -15.2990   20.2990 N   0  0  0  0  0  0  0  0  0  0  0  0
  -24.9460  -15.9500   20.4870 H   0  0  0  0  0  0  0  0  0  0  0  0
  -26.5230  -15.7450   19.9180 H   0  0  0  0  0  0  0  0  0  0  0  0
  -31.0860  -24.9140   20.9890 C   0  0  0  0  0  2  0  0  0  0  0  0
  -30.5310  -26.3450   21.0240 C   0  0  0  0  0  2  0  0  0  0  0  0
  -28.6880  -24.7290   20.8270 C   0  0  0  0  0  2  0  0  0  0  0  0
  -29.9860  -24.0770   20.3290 C   0  0  0  0  0  3  0  0  0  0  0  0
  -28.9980  -26.2350   20.9090 C   0  0  0  0  0  3  0  0  0  0  0  0
  -28.5880  -26.8790   19.7020 O   0  0  0  0  0  0  0  0  0  0  0  0
  -24.5690  -31.7320   23.0460 C   0  0  0  0  0  0  0  0  0  0  0  0
  -27.4000  -27.5630   19.7810 C   0  0  0  0  0  0  0  0  0  0  0  0
  -23.4270  -30.3740   21.3200 C   0  0  0  0  0  3  0  0  0  0  0  0
  -24.9490  -28.9580   19.8410 C   0  0  0  0  0  0  0  0  0  0  0  0
  -25.9370  -30.8330   21.1690 C   0  0  0  0  0  2  0  0  0  0  0  0
  -26.0780  -29.4980   20.4720 C   0  0  0  0  0  0  0  0  0  0  0  0
  -27.3060  -28.8040   20.4470 C   0  0  0  0  0  3  0  0  0  0  0  0
  -26.2620  -27.0310   19.1420 C   0  0  0  0  0  3  0  0  0  0  0  0
  -25.0340  -27.7200   19.1770 C   0  0  0  0  0  3  0  0  0  0  0  0
  -23.6740  -29.7670   19.9120 C   0  0  0  0  0  2  0  0  0  0  0  0
  -24.6610  -30.9920   21.9050 N   0  0  0  0  0  0  0  0  0  0  0  0
  -23.4750  -31.9400   23.5870 O   0  0  0  0  0  0  0  0  0  0  0  0
  -22.8030  -29.2860   22.2210 C   0  0  0  0  0  0  0  0  0  0  0  0
  -21.4790  -29.0980   22.1030 N   0  0  0  0  0  0  0  0  0  0  0  0
  -23.5060  -28.6150   22.9820 O   0  0  0  0  0  0  0  0  0  0  0  0
  -20.9720  -29.6930   21.4620 H   0  0  0  0  0  0  0  0  0  0  0  0
  -18.1190  -27.8670   22.5980 C   0  0  0  0  0  0  0  0  0  0  0  0
  -20.6820  -28.1040   22.8210 C   0  0  0  0  0  3  0  0  0  0  0  0
  -20.7670  -26.7210   22.1330 C   0  0  0  0  0  2  0  0  0  0  0  0
  -19.6380  -26.4780   21.1260 C   0  0  0  0  0  2  0  0  0  0  0  0
  -18.2740  -26.5750   21.8170 C   0  0  0  0  0  2  0  0  0  0  0  0
  -19.2500  -28.5940   23.0560 C   0  0  0  0  0  0  0  0  0  0  0  0
  -19.0510  -29.8090   23.7470 C   0  0  0  0  0  3  0  0  0  0  0  0
  -17.7520  -30.2980   23.9850 C   0  0  0  0  0  3  0  0  0  0  0  0
  -16.6350  -29.5670   23.5430 C   0  0  0  0  0  3  0  0  0  0  0  0
  -16.8200  -28.3530   22.8570 C   0  0  0  0  0  3  0  0  0  0  0  0
  -25.8290  -32.3720   23.7110 C   0  0  0  0  0  3  0  0  0  0  0  0
  -25.4730  -33.7400   24.1070 N   0  0  0  0  0  0  0  0  0  0  0  0
  -25.7670  -34.8380   23.3970 C   0  0  0  0  0  0  0  0  0  0  0  0
  -26.4370  -34.8060   22.3610 O   0  0  0  0  0  0  0  0  0  0  0  0
  -24.8750  -33.8370   24.9140 H   0  0  0  0  0  0  0  0  0  0  0  0
  -23.9680  -36.5750   23.1310 C   0  0  0  0  0  1  0  0  0  0  0  0
  -25.2300  -36.1840   23.9170 C   0  0  0  0  0  3  0  0  0  0  0  0
  -27.3300  -37.1170   24.7820 C   0  0  0  0  0  1  0  0  0  0  0  0
  -26.2210  -37.2800   23.8470 N   0  0  0  0  0  0  0  0  0  0  0  0
  -25.7790  -38.1770   24.0310 H   0  0  0  0  0  0  0  0  0  0  0  0
  -26.3640  -31.5520   24.9480 C   0  0  1  0  0  0  0  0  0  0  0  0
  -25.2730  -31.2240   25.9940 C   0  0  0  0  0  1  0  0  0  0  0  0
  -26.9940  -30.2170   24.4870 C   0  0  0  0  0  1  0  0  0  0  0  0
  -27.4840  -32.3480   25.6590 C   0  0  0  0  0  1  0  0  0  0  0  0
  -30.6350  -21.5980   24.4630 C   0  0  0  0  0  1  0  0  0  0  0  0
  -30.4830  -20.5480   23.5110 O   0  0  0  0  0  0  0  0  0  0  0  0
  1  2  2  0
  2  5  1  0
  3  1  1  0
  3  4  2  0
  4  7  1  0
  5 97  1  0
  6  3  1  0
  7  5  2  0
  8 21  1  0
  9 14  1  0
 10 11  1  0
 10  9  1  0
 12 11  1  0
 12 25  1  0
 12 13  1  0
 14  8  1  0
 14 13  1  0
 15  8  2  0
 16 18  1  0
 16 20  1  0
 17 20  1  0
 17 19  1  0
 20  2  1  0
 21 18  1  0
 21 19  1  0
 22 23  2  0
 23 42  1  0
 24 23  1  0
 24 27  1  0
 25 26  1  0
 25 22  1  0
 26 24  2  0
 27 28  1  0
 28 29  2  0
 30 33  1  0
 30 29  1  0
 31 30  2  0
 32 31  1  0
 32 27  2  0
 33 34  1  0
 34 39  2  0
 34 35  1  0
 35 36  2  0
 36 37  1  0
 37 41  1  0
 38 37  2  0
 39 38  1  0
 40 39  1  0
 42 43  1  0
 43 46  1  0
 43 45  1  0
 44 42  2  0
 47 22  1  0
 47 48  1  0
 49 47  1  0
 50 51  1  0
 52 54  1  0
 53  4  1  0
 53 52  1  0
 53 50  1  0
 54 55  1  0
 54 51  1  0
 55 57  1  0
 56 67  2  0
 57 62  1  0
 58 66  1  0
 58 68  1  0
 59 65  1  0
 59 61  1  0
 60 66  1  0
 61 60  1  0
 62 61  2  0
 63 64  1  0
 63 57  2  0
 64 59  2  0
 65 58  1  0
 66 56  1  0
 68 70  2  0
 69 68  1  0
 71 69  1  0
 72 81  2  0
 72 77  1  0
 73 69  1  0
 73 77  1  0
 74 73  1  0
 75 76  1  0
 75 74  1  0
 76 72  1  0
 77 78  2  0
 78 79  1  0
 80 79  2  0
 81 80  1  0
 82 56  1  0
 82 83  1  0
 82 92  1  0
 83 86  1  0
 84 88  1  0
 84 83  1  0
 85 84  2  0
 88 87  1  0
 90 88  1  0
 90 91  1  0
 90 89  1  0
 92 95  1  1
 92 93  1  0
 94 92  1  0
 97 96  1  0
M  ISO  4   8 100  21 100  54 101  55 101
M  END
>  <TORSDO>  (57) 
F 18

>  <SCORE>  (57) 
-13.718

>  <name>  (57) 
56

>  <ligand_id>  (57) 
56

>  <original_smiles>  (57) 
[H]c1c([H])c([H])c2c(c1[H])C([H])([H])C([H])([H])C([H])([H])C2([H])N([H])C(=O)C1([H])N(C(=O)C([H])(N([H])C(=O)C([H])(N([H])C([H])([H])[H])C([H])([H])[H])C(C([H])([H])[H])(C([H])([H])[H])C([H])([H])[H])C([H])([H])c2c([H])c(OC3([H])C([H])([H])C([H])([H])C([H])(c4nc(OC([H])([H])[H])c(C5([H])C([H])([H])C([H])([H])N(C(=O)N6C([H])([H])C([H])([H])C([H])([H])C([H])(n7nc(-c8c([H])c([H])c(Oc9c([H])c([H])c(F)c([H])c9F)c([H])c8[H])c(C(=O)N([H])[H])c7N([H])[H])C6([H])[H])C([H])([H])C5([H])[H])c([H])c4C([H])([H])[H])C3([H])[H])c([H])c([H])c2C1([H])[H]

>  <smiles>  (57) 
[H]c1c([H])c([H])c2c(c1[H])C([H])([H])C([H])([H])C([H])([H])C2([H])N([H])C(=O)C1([H])N(C(=O)C([H])(N([H])C(=O)C([H])(N([H])C([H])([H])[H])C([H])([H])[H])C(C([H])([H])[H])(C([H])([H])[H])C([H])([H])[H])C([H])([H])c2c([H])c(OC3([H])C([H])([H])C([H])([H])C([H])(c4nc(OC([H])([H])[H])c(C5([H])C([H])([H])C([H])([H])N(C(=O)N6C([H])([H])C([H])([H])C([H])([H])C([H])(n7nc(-c8c([H])c([H])c(Oc9c([H])c([H])c(F)c([H])c9F)c([H])c8[H])c(C(=O)N([H])[H])c7N([H])[H])C6([H])[H])C([H])([H])C5([H])[H])c([H])c4C([H])([H])[H])C3([H])[H])c([H])c([H])c2C1([H])[H]

$$$$
57:0:0
     RDKit          3D

 97106  0  0  1  0  0  0  0  0999 V2000
  -29.3690  -21.1590   19.1530 C   0  0  0  0  0  0  0  0  0  0  0  0
  -28.2930  -20.5210   19.8850 C   0  0  0  0  0  0  0  0  0  0  0  0
  -30.4230  -20.2060   18.7520 C   0  0  0  0  0  0  0  0  0  0  0  0
  -28.3800  -19.1990   20.3830 C   0  0  0  0  0  0  0  0  0  0  0  0
  -29.3290  -18.2930   19.8830 C   0  0  0  0  0  0  0  0  0  0  0  0
  -30.3910  -18.7570   19.0510 C   0  0  0  0  0  0  0  0  0  0  0  0
  -26.9280  -21.1720   20.1300 C   0  0  0  0  0  1  0  0  0  0  0  0
  -31.6370  -20.7200   17.9900 C   0  0  0  0  0  1  0  0  0  0  0  0
  -27.4260  -18.7340   21.5000 C   0  0  0  0  0  1  0  0  0  0  0  0
  -29.1280  -16.8130   20.2220 C   0  0  0  0  0  1  0  0  0  0  0  0
  -28.0840  -24.9910   19.0250 C   0  0  0  0  0  2  0  0  0  0  0  0
  -27.9490  -23.4900   19.2130 C   0  0  0  0  0  2  0  0  0  0  0  0
  -29.8670  -23.8340   17.9110 C   0  0  0  0  0  2  0  0  0  0  0  0
  -28.9770  -25.1940   17.8170 C   0  0  0  0  0  3  0  0  0  0  0  0
  -29.3470  -22.8240   19.0750 C   0  0  2  0  0  0  0  0  0  0  0  0
  -30.0750  -23.2710   20.2050 O   0  0  0  0  0  0  0  0  0  0  0  0
  -29.9820  -24.2150   20.2570 H   0  0  0  0  0  0  0  0  0  0  0  0
  -29.3960  -26.6490   17.7700 O   0  0  0  0  0  0  0  0  0  0  0  0
  -26.8750  -29.5880   23.9400 C   0  0  0  0  0  0  0  0  0  0  0  0
  -28.5280  -27.5910   18.3940 C   0  0  0  0  0  0  0  0  0  0  0  0
  -25.4000  -29.6380   21.9700 C   0  0  0  0  0  3  0  0  0  0  0  0
  -26.5100  -29.1620   19.7160 C   0  0  0  0  0  0  0  0  0  0  0  0
  -27.9510  -29.6780   21.6750 C   0  0  0  0  0  2  0  0  0  0  0  0
  -27.7640  -28.9990   20.3190 C   0  0  0  0  0  0  0  0  0  0  0  0
  -28.7750  -28.2220   19.6630 C   0  0  0  0  0  3  0  0  0  0  0  0
  -27.2850  -27.9040   17.7890 C   0  0  0  0  0  3  0  0  0  0  0  0
  -26.2780  -28.6280   18.4450 C   0  0  0  0  0  3  0  0  0  0  0  0
  -25.4490  -29.9490   20.4540 C   0  0  0  0  0  2  0  0  0  0  0  0
  -26.7660  -29.6130   22.5800 N   0  0  0  0  0  0  0  0  0  0  0  0
  -25.8720  -29.6120   24.6700 O   0  0  0  0  0  0  0  0  0  0  0  0
  -24.5960  -28.3330   22.1980 C   0  0  0  0  0  0  0  0  0  0  0  0
  -23.2910  -28.3620   21.8870 N   0  0  0  0  0  0  0  0  0  0  0  0
  -25.1540  -27.3190   22.6300 O   0  0  0  0  0  0  0  0  0  0  0  0
  -22.9060  -29.2410   21.5670 H   0  0  0  0  0  0  0  0  0  0  0  0
  -19.8810  -27.3280   21.2440 C   0  0  0  0  0  0  0  0  0  0  0  0
  -22.3610  -27.2370   21.9800 C   0  0  0  0  0  3  0  0  0  0  0  0
  -22.5640  -26.2510   20.8060 C   0  0  0  0  0  2  0  0  0  0  0  0
  -21.6450  -26.5250   19.6120 C   0  0  0  0  0  2  0  0  0  0  0  0
  -20.1740  -26.4570   20.0340 C   0  0  0  0  0  2  0  0  0  0  0  0
  -20.9110  -27.7050   22.1470 C   0  0  0  0  0  0  0  0  0  0  0  0
  -20.5860  -28.5400   23.2390 C   0  0  0  0  0  3  0  0  0  0  0  0
  -19.2680  -28.9920   23.4360 C   0  0  0  0  0  3  0  0  0  0  0  0
  -18.2560  -28.6160   22.5370 C   0  0  0  0  0  3  0  0  0  0  0  0
  -18.5600  -27.7770   21.4510 C   0  0  0  0  0  3  0  0  0  0  0  0
  -28.2660  -29.5510   24.6450 C   0  0  0  0  0  3  0  0  0  0  0  0
  -28.7020  -28.0970   25.0750 C   0  0  1  0  0  0  0  0  0  0  0  0
  -27.6100  -27.3190   25.8460 C   0  0  0  0  0  1  0  0  0  0  0  0
  -29.0910  -27.2550   23.8390 C   0  0  0  0  0  1  0  0  0  0  0  0
  -29.9590  -28.1750   25.9720 C   0  0  0  0  0  1  0  0  0  0  0  0
  -28.1960  -30.4350   25.8170 N   0  0  0  0  0  0  0  0  0  0  0  0
  -28.6180  -31.7080   25.8380 C   0  0  0  0  0  0  0  0  0  0  0  0
  -29.1850  -32.2390   24.8800 O   0  0  0  0  0  0  0  0  0  0  0  0
  -27.6940  -30.0830   26.6200 H   0  0  0  0  0  0  0  0  0  0  0  0
  -27.1430  -33.4060   26.9580 C   0  0  0  0  0  1  0  0  0  0  0  0
  -28.3820  -32.5120   27.1290 C   0  0  0  0  0  3  0  0  0  0  0  0
  -30.6830  -32.5500   27.9840 C   0  0  0  0  0  1  0  0  0  0  0  0
  -29.5420  -33.3400   27.5280 N   0  0  0  0  0  0  0  0  0  0  0  0
  -29.2860  -33.9870   28.2690 H   0  0  0  0  0  0  0  0  0  0  0  0
  -31.5250  -17.7110   18.5890 C   0  0  0  0  0  2  0  0  0  0  0  0
  -32.4130  -15.2080   18.9050 C   0  0  0  0  0  0  0  0  0  0  0  0
  -32.3130  -12.7710   18.3990 C   0  0  0  0  0  2  0  0  0  0  0  0
  -31.1550  -12.5370   17.4000 C   0  0  0  0  0  2  0  0  0  0  0  0
  -29.8110  -12.3590   18.1380 C   0  0  0  0  0  2  0  0  0  0  0  0
  -29.5750  -13.4450   19.2220 C   0  0  0  0  0  3  0  0  0  0  0  0
  -30.8310  -13.6330   20.1040 C   0  0  0  0  0  2  0  0  0  0  0  0
  -31.9490  -13.9530   19.2080 N   0  0  0  0  0  0  0  0  0  0  0  0
  -33.5150  -15.3640   18.3740 O   0  0  0  0  0  0  0  0  0  0  0  0
  -31.5020  -16.2390   18.9920 N   0  0  0  0  0  0  0  0  0  0  0  0
  -30.6090  -15.9560   19.3580 H   0  0  0  0  0  0  0  0  0  0  0  0
  -27.6070  -14.0530   20.7560 C   0  0  0  0  0  0  0  0  0  0  0  0
  -26.5570  -13.3180   21.2370 C   0  0  0  0  0  0  0  0  0  0  0  0
  -26.7490  -11.9920   20.7470 C   0  0  0  0  0  0  0  0  0  0  0  0
  -28.3810  -13.1740   20.0150 N   0  0  0  0  0  0  0  0  0  0  0  0
  -27.8840  -11.9110   20.0620 N   0  0  0  0  0  0  0  0  0  0  0  0
  -25.8790  -10.8110   20.8310 C   0  0  0  0  0  0  0  0  0  0  0  0
  -26.1600   -9.7440   21.7110 C   0  0  0  0  0  3  0  0  0  0  0  0
  -25.2960   -8.6310   21.7860 C   0  0  0  0  0  3  0  0  0  0  0  0
  -24.1360   -8.5760   20.9780 C   0  0  0  0  0  0  0  0  0  0  0  0
  -23.8700   -9.6310   20.0860 C   0  0  0  0  0  3  0  0  0  0  0  0
  -24.7350  -10.7360   20.0100 C   0  0  0  0  0  3  0  0  0  0  0  0
  -23.2530   -7.5240   20.9650 O   0  0  0  0  0  0  0  0  0  0  0  0
  -22.7150   -7.0250   22.1240 C   0  0  0  0  0  0  0  0  0  0  0  0
  -22.0250   -7.8470   23.0410 C   0  0  0  0  0  3  0  0  0  0  0  0
  -21.4320   -7.2800   24.1870 C   0  0  0  0  0  3  0  0  0  0  0  0
  -21.5170   -5.8920   24.4100 C   0  0  0  0  0  0  0  0  0  0  0  0
  -22.1990   -5.0710   23.4960 C   0  0  0  0  0  3  0  0  0  0  0  0
  -22.7940   -5.6370   22.3530 C   0  0  0  0  0  0  0  0  0  0  0  0
  -23.4330   -4.8390   21.4630 F   0  0  0  0  0  0  0  0  0  0  0  0
  -20.9400   -5.3440   25.5060 F   0  0  0  0  0  0  0  0  0  0  0  0
  -25.3900  -13.8440   22.0200 C   0  0  0  0  0  0  0  0  0  0  0  0
  -24.8430  -13.0350   22.9230 N   0  0  0  0  0  0  0  0  0  0  0  0
  -24.9880  -14.9960   21.8730 O   0  0  0  0  0  0  0  0  0  0  0  0
  -25.1830  -12.0960   23.0630 H   0  0  0  0  0  0  0  0  0  0  0  0
  -24.0720  -13.3630   23.4880 H   0  0  0  0  0  0  0  0  0  0  0  0
  -27.9400  -15.3980   20.8660 N   0  0  0  0  0  0  0  0  0  0  0  0
  -27.3300  -16.0420   21.3600 H   0  0  0  0  0  0  0  0  0  0  0  0
  -28.6640  -15.8700   20.3410 H   0  0  0  0  0  0  0  0  0  0  0  0
  1  2  1  0
  2  7  1  0
  2  4  2  0
  3  6  1  0
  3  1  2  0
  4  9  1  0
  5 10  1  0
  5  4  1  0
  6  5  2  0
  8  3  1  0
 11 12  1  0
 13 15  1  0
 14 18  1  0
 14 13  1  0
 14 11  1  0
 15  1  1  0
 15 12  1  0
 15 16  1  1
 16 17  1  0
 18 20  1  0
 19 30  2  0
 20 25  1  0
 21 31  1  0
 21 29  1  0
 22 24  1  0
 22 28  1  0
 23 29  1  0
 24 23  1  0
 25 24  2  0
 26 20  2  0
 26 27  1  0
 27 22  2  0
 28 21  1  0
 29 19  1  0
 31 33  2  0
 32 31  1  0
 34 32  1  0
 35 44  2  0
 35 40  1  0
 36 32  1  0
 36 40  1  0
 37 36  1  0
 38 39  1  0
 38 37  1  0
 39 35  1  0
 40 41  2  0
 41 42  1  0
 43 42  2  0
 44 43  1  0
 45 19  1  0
 45 46  1  0
 45 50  1  0
 46 47  1  1
 46 49  1  0
 48 46  1  0
 50 51  1  0
 50 53  1  0
 51 55  1  0
 52 51  2  0
 55 54  1  0
 55 57  1  0
 57 56  1  0
 57 58  1  0
 59 68  1  0
 59  6  1  0
 60 68  1  0
 60 66  1  0
 61 66  1  0
 62 63  1  0
 62 61  1  0
 64 63  1  0
 64 73  1  0
 64 65  1  0
 66 65  1  0
 67 60  2  0
 68 69  1  0
 70 95  1  0
 70 71  2  0
 71 90  1  0
 72 75  1  0
 72 71  1  0
 73 74  1  0
 73 70  1  0
 74 72  2  0
 75 76  1  0
 76 77  2  0
 78 77  1  0
 79 78  2  0
 80 79  1  0
 80 75  2  0
 81 78  1  0
 81 82  1  0
 82 87  2  0
 82 83  1  0
 83 84  2  0
 84 85  1  0
 85 89  1  0
 86 85  2  0
 87 86  1  0
 88 87  1  0
 90 91  1  0
 91 93  1  0
 91 94  1  0
 92 90  2  0
 95 96  1  0
 97 95  1  0
M  ISO  4  14 101  18 101  60 100  68 100
M  END
>  <TORSDO>  (58) 
F 19

>  <SCORE>  (58) 
-0.953

>  <name>  (58) 
57

>  <ligand_id>  (58) 
57

>  <original_smiles>  (58) 
[H]OC1(c2c(C([H])([H])[H])c(C([H])([H])[H])c(C([H])([H])[H])c(C([H])([H])N([H])C(=O)N3C([H])([H])C([H])([H])C([H])([H])C([H])(n4nc(-c5c([H])c([H])c(Oc6c([H])c([H])c(F)c([H])c6F)c([H])c5[H])c(C(=O)N([H])[H])c4N([H])[H])C3([H])[H])c2C([H])([H])[H])C([H])([H])C([H])([H])C([H])(Oc2c([H])c([H])c3c(c2[H])C([H])([H])N(C(=O)C([H])(N([H])C(=O)C([H])(N([H])C([H])([H])[H])C([H])([H])[H])C(C([H])([H])[H])(C([H])([H])[H])C([H])([H])[H])C([H])(C(=O)N([H])C2([H])c4c([H])c([H])c([H])c([H])c4C([H])([H])C([H])([H])C2([H])[H])C3([H])[H])C1([H])[H]

>  <smiles>  (58) 
[H]OC1(c2c(C([H])([H])[H])c(C([H])([H])[H])c(C([H])([H])[H])c(C([H])([H])N([H])C(=O)N3C([H])([H])C([H])([H])C([H])([H])C([H])(n4nc(-c5c([H])c([H])c(Oc6c([H])c([H])c(F)c([H])c6F)c([H])c5[H])c(C(=O)N([H])[H])c4N([H])[H])C3([H])[H])c2C([H])([H])[H])C([H])([H])C([H])([H])C([H])(Oc2c([H])c([H])c3c(c2[H])C([H])([H])N(C(=O)C([H])(N([H])C(=O)C([H])(N([H])C([H])([H])[H])C([H])([H])[H])C(C([H])([H])[H])(C([H])([H])[H])C([H])([H])[H])C([H])(C(=O)N([H])C2([H])c4c([H])c([H])c([H])c([H])c4C([H])([H])C([H])([H])C2([H])[H])C3([H])[H])C1([H])[H]

$$$$
58:0:0
     RDKit          3D

 94103  0  0  1  0  0  0  0  0999 V2000
  -30.5800  -14.7960   20.4470 C   0  0  0  0  0  0  0  0  0  0  0  0
  -30.3870  -12.5180   19.4340 C   0  0  0  0  0  2  0  0  0  0  0  0
  -29.4630  -12.5910   18.1990 C   0  0  0  0  0  2  0  0  0  0  0  0
  -27.9900  -12.4130   18.6170 C   0  0  0  0  0  2  0  0  0  0  0  0
  -27.6010  -13.3060   19.8250 C   0  0  0  0  0  3  0  0  0  0  0  0
  -28.6470  -13.2250   20.9570 C   0  0  0  0  0  2  0  0  0  0  0  0
  -29.9470  -13.5750   20.3730 N   0  0  0  0  0  0  0  0  0  0  0  0
  -31.7790  -14.8620   20.1520 O   0  0  0  0  0  0  0  0  0  0  0  0
  -29.2000  -18.4390   20.4190 C   0  0  0  0  0  3  0  0  0  0  0  0
  -29.5390  -19.8510   20.5360 C   0  0  0  0  0  0  0  0  0  0  0  0
  -30.8560  -20.1170   20.9770 C   0  0  0  0  0  0  0  0  0  0  0  0
  -31.7370  -19.0330   21.2060 C   0  0  0  0  0  0  0  0  0  0  0  0
  -30.1430  -17.3700   20.6870 C   0  0  0  0  0  0  0  0  0  0  0  0
  -31.3210  -21.5610   21.1720 C   0  0  0  0  0  2  0  0  0  0  0  0
  -30.1850  -22.5890   21.3620 C   0  0  0  0  0  2  0  0  0  0  0  0
  -28.5750  -21.0830   20.2030 C   0  0  0  0  0  3  0  0  0  0  0  0
  -33.1830  -19.2490   21.6110 C   0  0  0  0  0  1  0  0  0  0  0  0
  -27.9060  -20.8400   18.8360 C   0  0  0  0  0  1  0  0  0  0  0  0
  -31.3860  -17.7350   21.0710 N   0  0  0  0  0  0  0  0  0  0  0  0
  -29.7910  -15.9330   20.5920 N   0  0  0  0  0  0  0  0  0  0  0  0
  -29.2080  -22.4900   20.2540 N   0  0  1  0  0  4  0  0  0  0  0  0
  -28.8050  -15.7390   20.6420 H   0  0  0  0  0  0  0  0  0  0  0  0
  -29.8370  -22.4280   19.4690 H   0  0  0  0  0  0  0  0  0  0  0  0
  -25.2070  -13.8980   20.5300 C   0  0  0  0  0  0  0  0  0  0  0  0
  -24.1380  -13.1240   20.8900 C   0  0  0  0  0  0  0  0  0  0  0  0
  -24.6020  -11.7730   20.8650 C   0  0  0  0  0  0  0  0  0  0  0  0
  -26.2530  -13.0190   20.3040 N   0  0  0  0  0  0  0  0  0  0  0  0
  -25.8970  -11.7350   20.5710 N   0  0  0  0  0  0  0  0  0  0  0  0
  -23.8750  -10.5100   21.0480 C   0  0  0  0  0  0  0  0  0  0  0  0
  -24.2970   -9.5430   21.9870 C   0  0  0  0  0  3  0  0  0  0  0  0
  -23.5700   -8.3460   22.1580 C   0  0  0  0  0  3  0  0  0  0  0  0
  -22.4060   -8.1070   21.3890 C   0  0  0  0  0  0  0  0  0  0  0  0
  -22.0040   -9.0620   20.4390 C   0  0  0  0  0  3  0  0  0  0  0  0
  -22.7320  -10.2510   20.2660 C   0  0  0  0  0  3  0  0  0  0  0  0
  -21.6520   -6.9610   21.4670 O   0  0  0  0  0  0  0  0  0  0  0  0
  -21.5800   -6.2240   22.6230 C   0  0  0  0  0  0  0  0  0  0  0  0
  -21.1320   -6.7860   23.8370 C   0  0  0  0  0  3  0  0  0  0  0  0
  -21.0090   -5.9760   24.9840 C   0  0  0  0  0  3  0  0  0  0  0  0
  -21.3230   -4.6050   24.9160 C   0  0  0  0  0  0  0  0  0  0  0  0
  -21.7640   -4.0430   23.7060 C   0  0  0  0  0  3  0  0  0  0  0  0
  -21.8890   -4.8510   22.5610 C   0  0  0  0  0  0  0  0  0  0  0  0
  -22.2940   -4.3000   21.3910 F   0  0  0  0  0  0  0  0  0  0  0  0
  -21.1970   -3.8250   26.0150 F   0  0  0  0  0  0  0  0  0  0  0  0
  -22.7380  -13.6010   21.1440 C   0  0  0  0  0  0  0  0  0  0  0  0
  -22.0000  -12.9060   22.0040 N   0  0  0  0  0  0  0  0  0  0  0  0
  -22.3040  -14.6240   20.6150 O   0  0  0  0  0  0  0  0  0  0  0  0
  -22.3620  -12.0770   22.4510 H   0  0  0  0  0  0  0  0  0  0  0  0
  -21.0600  -13.2080   22.2160 H   0  0  0  0  0  0  0  0  0  0  0  0
  -25.3700  -15.2690   20.3480 N   0  0  0  0  0  0  0  0  0  0  0  0
  -24.5930  -15.9150   20.4310 H   0  0  0  0  0  0  0  0  0  0  0  0
  -26.2030  -15.7030   19.9760 H   0  0  0  0  0  0  0  0  0  0  0  0
  -28.4000  -23.7760   19.8840 C   0  0  0  0  0  2  0  0  0  0  0  0
  -28.3450  -25.1200   20.7990 C   0  0  0  0  0  2  0  0  0  0  0  0
  -28.3650  -26.5050   20.2180 O   0  0  0  0  0  0  0  0  0  0  0  0
  -24.6080  -31.9360   23.2530 C   0  0  0  0  0  0  0  0  0  0  0  0
  -27.2310  -27.3380   20.2440 C   0  0  0  0  0  0  0  0  0  0  0  0
  -23.4100  -30.5290   21.6150 C   0  0  0  0  0  3  0  0  0  0  0  0
  -24.8650  -28.9600   20.2080 C   0  0  0  0  0  0  0  0  0  0  0  0
  -25.9490  -30.8450   21.4330 C   0  0  0  0  0  2  0  0  0  0  0  0
  -26.0330  -29.4560   20.8010 C   0  0  0  0  0  0  0  0  0  0  0  0
  -27.2220  -28.6610   20.7990 C   0  0  0  0  0  3  0  0  0  0  0  0
  -26.0390  -26.8930   19.6360 C   0  0  0  0  0  3  0  0  0  0  0  0
  -24.8730  -27.6860   19.6140 C   0  0  0  0  0  3  0  0  0  0  0  0
  -23.6300  -29.8420   20.2420 C   0  0  0  0  0  2  0  0  0  0  0  0
  -24.6750  -31.1220   22.1580 N   0  0  0  0  0  0  0  0  0  0  0  0
  -23.5230  -32.2170   23.7850 O   0  0  0  0  0  0  0  0  0  0  0  0
  -22.7430  -29.5200   22.5820 C   0  0  0  0  0  0  0  0  0  0  0  0
  -21.4160  -29.3480   22.4570 N   0  0  0  0  0  0  0  0  0  0  0  0
  -23.4190  -28.8950   23.4020 O   0  0  0  0  0  0  0  0  0  0  0  0
  -20.9300  -29.9040   21.7680 H   0  0  0  0  0  0  0  0  0  0  0  0
  -18.0350  -28.1600   22.9560 C   0  0  0  0  0  0  0  0  0  0  0  0
  -20.5940  -28.4150   23.2290 C   0  0  0  0  0  3  0  0  0  0  0  0
  -20.6930  -26.9810   22.6570 C   0  0  0  0  0  2  0  0  0  0  0  0
  -19.5920  -26.6580   21.6440 C   0  0  0  0  0  2  0  0  0  0  0  0
  -18.2100  -26.8080   22.2850 C   0  0  0  0  0  2  0  0  0  0  0  0
  -19.1550  -28.9210   23.3850 C   0  0  0  0  0  0  0  0  0  0  0  0
  -18.9380  -30.1850   23.9730 C   0  0  0  0  0  3  0  0  0  0  0  0
  -17.6350  -30.6890   24.1370 C   0  0  0  0  0  3  0  0  0  0  0  0
  -16.5300  -29.9260   23.7250 C   0  0  0  0  0  3  0  0  0  0  0  0
  -16.7300  -28.6630   23.1390 C   0  0  0  0  0  3  0  0  0  0  0  0
  -25.8880  -32.5740   23.8770 C   0  0  0  0  0  3  0  0  0  0  0  0
  -25.5800  -33.9740   24.1990 N   0  0  0  0  0  0  0  0  0  0  0  0
  -25.9150  -35.0230   23.4350 C   0  0  0  0  0  0  0  0  0  0  0  0
  -26.5860  -34.9120   22.4060 O   0  0  0  0  0  0  0  0  0  0  0  0
  -24.9820  -34.1330   24.9970 H   0  0  0  0  0  0  0  0  0  0  0  0
  -24.1910  -36.8170   23.0660 C   0  0  0  0  0  1  0  0  0  0  0  0
  -25.4290  -36.4150   23.8840 C   0  0  0  0  0  3  0  0  0  0  0  0
  -27.5620  -37.3000   24.7140 C   0  0  0  0  0  1  0  0  0  0  0  0
  -26.4620  -37.4660   23.7680 N   0  0  0  0  0  0  0  0  0  0  0  0
  -26.0580  -38.3870   23.9100 H   0  0  0  0  0  0  0  0  0  0  0  0
  -26.3960  -31.8100   25.1620 C   0  0  1  0  0  0  0  0  0  0  0  0
  -25.2970  -31.5850   26.2280 C   0  0  0  0  0  1  0  0  0  0  0  0
  -26.9780  -30.4300   24.7820 C   0  0  0  0  0  1  0  0  0  0  0  0
  -27.5460  -32.6050   25.8240 C   0  0  0  0  0  1  0  0  0  0  0  0
  1 20  1  0
  2  7  1  0
  3  4  1  0
  3  2  1  0
  5  4  1  0
  5 27  1  0
  5  6  1  0
  7  1  1  0
  7  6  1  0
  8  1  2  0
  9 10  2  0
  9 13  1  0
 10 11  1  0
 11 14  1  0
 11 12  2  0
 12 17  1  0
 13 19  2  0
 14 15  1  0
 16 18  1  0
 16 21  1  0
 16 10  1  0
 19 12  1  0
 20 22  1  0
 20 13  1  0
 21 15  1  0
 21 23  1  6
 24 25  2  0
 25 44  1  0
 26 25  1  0
 26 29  1  0
 27 24  1  0
 27 28  1  0
 28 26  2  0
 29 30  1  0
 30 31  2  0
 32 35  1  0
 32 31  1  0
 33 32  2  0
 34 33  1  0
 34 29  2  0
 35 36  1  0
 36 37  1  0
 37 38  2  0
 39 38  1  0
 39 43  1  0
 40 39  2  0
 41 36  2  0
 41 40  1  0
 42 41  1  0
 44 45  1  0
 45 48  1  0
 45 47  1  0
 46 44  2  0
 49 50  1  0
 49 24  1  0
 51 49  1  0
 52 21  1  0
 52 53  1  0
 54 56  1  0
 54 53  1  0
 55 66  2  0
 56 61  1  0
 57 65  1  0
 57 67  1  0
 58 64  1  0
 58 60  1  0
 59 65  1  0
 60 59  1  0
 61 60  2  0
 62 56  2  0
 63 62  1  0
 63 58  2  0
 64 57  1  0
 65 55  1  0
 67 69  2  0
 68 67  1  0
 70 68  1  0
 71 80  2  0
 71 76  1  0
 72 68  1  0
 72 76  1  0
 73 72  1  0
 74 75  1  0
 74 73  1  0
 75 71  1  0
 76 77  2  0
 77 78  1  0
 79 78  2  0
 80 79  1  0
 81 55  1  0
 81 82  1  0
 81 91  1  0
 82 85  1  0
 83 87  1  0
 83 82  1  0
 84 83  2  0
 87 86  1  0
 89 87  1  0
 89 90  1  0
 89 88  1  0
 91 94  1  1
 91 92  1  0
 93 91  1  0
M  ISO  4   1 100  20 100  53 101  54 101
M  END
>  <TORSDO>  (59) 
F 17

>  <SCORE>  (59) 
-15.483

>  <name>  (59) 
58

>  <ligand_id>  (59) 
58

>  <original_smiles>  (59) 
[H]c1c([H])c([H])c2c(c1[H])C([H])([H])C([H])([H])C([H])([H])C2([H])N([H])C(=O)C1([H])N(C(=O)C([H])(N([H])C(=O)C([H])(N([H])C([H])([H])[H])C([H])([H])[H])C(C([H])([H])[H])(C([H])([H])[H])C([H])([H])[H])C([H])([H])c2c([H])c(OC([H])([H])C([H])([H])[N+]3([H])C([H])([H])C([H])([H])c4c(C([H])([H])[H])nc(N([H])C(=O)N5C([H])([H])C([H])([H])C([H])([H])C([H])(n6nc(-c7c([H])c([H])c(Oc8c([H])c([H])c(F)c([H])c8F)c([H])c7[H])c(C(=O)N([H])[H])c6N([H])[H])C5([H])[H])c([H])c4C3([H])C([H])([H])[H])c([H])c([H])c2C1([H])[H]

>  <smiles>  (59) 
[H]c1c([H])c([H])c2c(c1[H])C([H])([H])C([H])([H])C([H])([H])C2([H])N([H])C(=O)C1([H])N(C(=O)C([H])(N([H])C(=O)C([H])(N([H])C([H])([H])[H])C([H])([H])[H])C(C([H])([H])[H])(C([H])([H])[H])C([H])([H])[H])C([H])([H])c2c([H])c(OC([H])([H])C([H])([H])[N+]3([H])C([H])([H])C([H])([H])c4c(C([H])([H])[H])nc(N([H])C(=O)N5C([H])([H])C([H])([H])C([H])([H])C([H])(n6nc(-c7c([H])c([H])c(Oc8c([H])c([H])c(F)c([H])c8F)c([H])c7[H])c(C(=O)N([H])[H])c6N([H])[H])C5([H])[H])c([H])c4C3([H])C([H])([H])[H])c([H])c([H])c2C1([H])[H]

$$$$
59:0:0
     RDKit          3D

 95104  0  0  1  0  0  0  0  0999 V2000
  -30.2280  -23.8180   18.5050 C   0  0  0  0  0  3  0  0  0  0  0  0
  -30.4380  -21.0770   18.0930 C   0  0  0  0  0  3  0  0  0  0  0  0
  -30.8640  -23.3490   17.3450 C   0  0  0  0  0  0  0  0  0  0  0  0
  -29.6670  -22.9490   19.4710 C   0  0  0  0  0  0  0  0  0  0  0  0
  -30.9440  -21.9640   17.1240 C   0  0  0  0  0  0  0  0  0  0  0  0
  -29.8070  -21.5010   19.2980 C   0  0  0  0  0  0  0  0  0  0  0  0
  -31.4490  -24.3390   16.3520 C   0  0  0  0  0  1  0  0  0  0  0  0
  -31.5830  -21.4100   15.8600 C   0  0  0  0  0  1  0  0  0  0  0  0
  -29.9580  -24.0880   21.7380 C   0  0  0  0  0  1  0  0  0  0  0  0
  -28.9600  -23.7040   20.6380 C   0  0  0  0  0  3  0  0  0  0  0  0
  -28.0020  -24.9350   20.2420 C   0  0  0  0  0  2  0  0  0  0  0  0
  -28.3510  -26.3880   20.2680 O   0  0  0  0  0  0  0  0  0  0  0  0
  -24.5920  -31.8420   23.1980 C   0  0  0  0  0  0  0  0  0  0  0  0
  -27.2610  -27.2810   20.1770 C   0  0  0  0  0  0  0  0  0  0  0  0
  -23.4230  -30.4460   21.5340 C   0  0  0  0  0  3  0  0  0  0  0  0
  -24.9010  -28.9110   20.1270 C   0  0  0  0  0  0  0  0  0  0  0  0
  -25.9670  -30.7650   21.4000 C   0  0  0  0  0  2  0  0  0  0  0  0
  -26.0620  -29.3900   20.7480 C   0  0  0  0  0  0  0  0  0  0  0  0
  -27.2460  -28.5880   20.7640 C   0  0  0  0  0  3  0  0  0  0  0  0
  -26.0750  -26.8740   19.5170 C   0  0  0  0  0  3  0  0  0  0  0  0
  -24.9120  -27.6590   19.5020 C   0  0  0  0  0  3  0  0  0  0  0  0
  -23.6630  -29.7820   20.1550 C   0  0  0  0  0  2  0  0  0  0  0  0
  -24.6790  -31.0350   22.1000 N   0  0  0  0  0  0  0  0  0  0  0  0
  -23.4980  -32.1160   23.7110 O   0  0  0  0  0  0  0  0  0  0  0  0
  -22.7450  -29.4230   22.4770 C   0  0  0  0  0  0  0  0  0  0  0  0
  -21.4190  -29.2580   22.3400 N   0  0  0  0  0  0  0  0  0  0  0  0
  -23.4130  -28.7830   23.2940 O   0  0  0  0  0  0  0  0  0  0  0  0
  -20.9390  -29.8270   21.6560 H   0  0  0  0  0  0  0  0  0  0  0  0
  -18.0190  -28.1230   22.8450 C   0  0  0  0  0  0  0  0  0  0  0  0
  -20.5860  -28.3220   23.0980 C   0  0  0  0  0  3  0  0  0  0  0  0
  -20.6510  -26.9010   22.4900 C   0  0  0  0  0  2  0  0  0  0  0  0
  -19.5330  -26.6260   21.4780 C   0  0  0  0  0  2  0  0  0  0  0  0
  -18.1610  -26.7870   22.1380 C   0  0  0  0  0  2  0  0  0  0  0  0
  -19.1580  -28.8520   23.2820 C   0  0  0  0  0  0  0  0  0  0  0  0
  -18.9710  -30.1050   23.9040 C   0  0  0  0  0  3  0  0  0  0  0  0
  -17.6790  -30.6310   24.0930 C   0  0  0  0  0  3  0  0  0  0  0  0
  -16.5550  -29.8980   23.6710 C   0  0  0  0  0  3  0  0  0  0  0  0
  -16.7260  -28.6470   23.0540 C   0  0  0  0  0  3  0  0  0  0  0  0
  -25.8620  -32.4760   23.8440 C   0  0  0  0  0  3  0  0  0  0  0  0
  -26.3550  -31.7050   25.1300 C   0  0  1  0  0  0  0  0  0  0  0  0
  -25.2420  -31.4650   26.1770 C   0  0  0  0  0  1  0  0  0  0  0  0
  -26.9490  -30.3280   24.7510 C   0  0  0  0  0  1  0  0  0  0  0  0
  -27.4910  -32.5020   25.8140 C   0  0  0  0  0  1  0  0  0  0  0  0
  -25.5430  -33.8740   24.1710 N   0  0  0  0  0  0  0  0  0  0  0  0
  -25.8790  -34.9280   23.4150 C   0  0  0  0  0  0  0  0  0  0  0  0
  -26.5590  -34.8270   22.3900 O   0  0  0  0  0  0  0  0  0  0  0  0
  -24.9370  -34.0250   24.9630 H   0  0  0  0  0  0  0  0  0  0  0  0
  -24.1480  -36.7170   23.0420 C   0  0  0  0  0  1  0  0  0  0  0  0
  -25.3800  -36.3140   23.8680 C   0  0  0  0  0  3  0  0  0  0  0  0
  -27.4990  -37.2090   24.7290 C   0  0  0  0  0  1  0  0  0  0  0  0
  -26.4110  -37.3700   23.7680 N   0  0  0  0  0  0  0  0  0  0  0  0
  -26.0000  -38.2900   23.9070 H   0  0  0  0  0  0  0  0  0  0  0  0
  -29.3770  -20.5120   20.2200 O   0  0  0  0  0  0  0  0  0  0  0  0
  -30.7870  -14.6760   20.0480 C   0  0  0  0  0  0  0  0  0  0  0  0
  -30.3490  -12.4730   18.9780 C   0  0  0  0  0  2  0  0  0  0  0  0
  -29.3600  -12.5790   17.8030 C   0  0  0  0  0  2  0  0  0  0  0  0
  -27.9200  -12.4040   18.3160 C   0  0  0  0  0  2  0  0  0  0  0  0
  -27.6190  -13.2790   19.5630 C   0  0  0  0  0  3  0  0  0  0  0  0
  -28.7440  -13.1900   20.6200 C   0  0  0  0  0  2  0  0  0  0  0  0
  -29.9950  -13.5490   19.9410 N   0  0  0  0  0  0  0  0  0  0  0  0
  -31.9720  -14.5480   19.7370 O   0  0  0  0  0  0  0  0  0  0  0  0
  -30.9990  -18.5620   20.1360 C   0  0  0  0  0  2  0  0  0  0  0  0
  -28.7710  -18.0520   20.8270 C   0  0  0  0  0  2  0  0  0  0  0  0
  -31.2430  -17.0830   19.7000 C   0  0  0  0  0  2  0  0  0  0  0  0
  -28.9360  -16.5150   20.4560 C   0  0  0  0  0  2  0  0  0  0  0  0
  -29.5560  -19.0550   19.9370 C   0  0  0  0  0  3  0  0  0  0  0  0
  -30.3050  -15.9950   20.1520 N   0  0  0  0  0  0  0  0  0  0  0  0
  -25.2720  -13.8640   20.4080 C   0  0  0  0  0  0  0  0  0  0  0  0
  -24.2230  -13.0860   20.8130 C   0  0  0  0  0  0  0  0  0  0  0  0
  -24.6850  -11.7360   20.7530 C   0  0  0  0  0  0  0  0  0  0  0  0
  -26.3060  -12.9880   20.1210 N   0  0  0  0  0  0  0  0  0  0  0  0
  -25.9620  -11.7020   20.3920 N   0  0  0  0  0  0  0  0  0  0  0  0
  -23.9670  -10.4720   20.9610 C   0  0  0  0  0  0  0  0  0  0  0  0
  -24.4150   -9.5130   21.8960 C   0  0  0  0  0  3  0  0  0  0  0  0
  -23.6970   -8.3140   22.0910 C   0  0  0  0  0  3  0  0  0  0  0  0
  -22.5160   -8.0640   21.3530 C   0  0  0  0  0  0  0  0  0  0  0  0
  -22.0870   -9.0120   20.4070 C   0  0  0  0  0  3  0  0  0  0  0  0
  -22.8050  -10.2030   20.2090 C   0  0  0  0  0  3  0  0  0  0  0  0
  -21.7670   -6.9170   21.4590 O   0  0  0  0  0  0  0  0  0  0  0  0
  -21.7130   -6.1990   22.6270 C   0  0  0  0  0  0  0  0  0  0  0  0
  -21.2480   -6.7700   23.8330 C   0  0  0  0  0  3  0  0  0  0  0  0
  -21.1420   -5.9770   24.9920 C   0  0  0  0  0  3  0  0  0  0  0  0
  -21.4920   -4.6130   24.9490 C   0  0  0  0  0  0  0  0  0  0  0  0
  -21.9500   -4.0420   23.7480 C   0  0  0  0  0  3  0  0  0  0  0  0
  -22.0580   -4.8330   22.5910 C   0  0  0  0  0  0  0  0  0  0  0  0
  -22.4790   -4.2710   21.4320 F   0  0  0  0  0  0  0  0  0  0  0  0
  -21.3830   -3.8500   26.0610 F   0  0  0  0  0  0  0  0  0  0  0  0
  -22.8380  -13.5620   21.1430 C   0  0  0  0  0  0  0  0  0  0  0  0
  -22.1440  -12.8600   22.0320 N   0  0  0  0  0  0  0  0  0  0  0  0
  -22.3810  -14.5910   20.6480 O   0  0  0  0  0  0  0  0  0  0  0  0
  -22.5260  -12.0260   22.4560 H   0  0  0  0  0  0  0  0  0  0  0  0
  -21.2160  -13.1600   22.2940 H   0  0  0  0  0  0  0  0  0  0  0  0
  -25.4280  -15.2370   20.2340 N   0  0  0  0  0  0  0  0  0  0  0  0
  -24.6660  -15.8900   20.3870 H   0  0  0  0  0  0  0  0  0  0  0  0
  -26.2650  -15.6800   19.8810 H   0  0  0  0  0  0  0  0  0  0  0  0
  1  4  1  0
  2  6  1  0
  3  1  2  0
  4 10  1  0
  5  3  1  0
  5  2  2  0
  6  4  2  0
  6 53  1  0
  7  3  1  0
  8  5  1  0
 10  9  1  0
 11 12  1  0
 11 10  1  0
 13 24  2  0
 14 12  1  0
 14 19  1  0
 15 23  1  0
 15 25  1  0
 16 22  1  0
 16 18  1  0
 17 23  1  0
 18 19  2  0
 18 17  1  0
 20 14  2  0
 21 20  1  0
 21 16  2  0
 22 15  1  0
 23 13  1  0
 25 27  2  0
 26 25  1  0
 28 26  1  0
 29 38  2  0
 29 34  1  0
 30 26  1  0
 30 34  1  0
 31 30  1  0
 32 33  1  0
 32 31  1  0
 33 29  1  0
 34 35  2  0
 35 36  1  0
 37 36  2  0
 38 37  1  0
 39 13  1  0
 39 44  1  0
 39 40  1  0
 40 43  1  1
 40 41  1  0
 42 40  1  0
 44 47  1  0
 45 49  1  0
 45 44  1  0
 46 45  2  0
 49 48  1  0
 51 49  1  0
 51 52  1  0
 51 50  1  0
 54 67  1  0
 55 60  1  0
 56 57  1  0
 56 55  1  0
 58 57  1  0
 58 71  1  0
 58 59  1  0
 60 54  1  0
 60 59  1  0
 61 54  2  0
 64 62  1  0
 64 67  1  0
 65 63  1  0
 66 62  1  0
 66 53  1  0
 66 63  1  0
 67 65  1  0
 68 69  2  0
 69 88  1  0
 70 69  1  0
 70 73  1  0
 71 72  1  0
 71 68  1  0
 72 70  2  0
 73 74  1  0
 74 75  2  0
 76 79  1  0
 76 75  1  0
 77 76  2  0
 78 77  1  0
 78 73  2  0
 79 80  1  0
 80 81  1  0
 81 82  2  0
 83 82  1  0
 83 87  1  0
 84 83  2  0
 85 80  2  0
 85 84  1  0
 86 85  1  0
 88 89  1  0
 89 92  1  0
 89 91  1  0
 90 88  2  0
 93 94  1  0
 93 68  1  0
 95 93  1  0
M  ISO  4  11 101  12 101  54 100  67 100
M  END
>  <TORSDO>  (60) 
F 19

>  <SCORE>  (60) 
-14.289

>  <name>  (60) 
59

>  <ligand_id>  (60) 
59

>  <original_smiles>  (60) 
[H]c1c([H])c([H])c2c(c1[H])C([H])([H])C([H])([H])C([H])([H])C2([H])N([H])C(=O)C1([H])N(C(=O)C([H])(N([H])C(=O)C([H])(N([H])C([H])([H])[H])C([H])([H])[H])C(C([H])([H])[H])(C([H])([H])[H])C([H])([H])[H])C([H])([H])c2c([H])c(OC([H])([H])C([H])(c3c([H])c(C([H])([H])[H])c(C([H])([H])[H])c([H])c3OC3([H])C([H])([H])C([H])([H])N(C(=O)N4C([H])([H])C([H])([H])C([H])([H])C([H])(n5nc(-c6c([H])c([H])c(Oc7c([H])c([H])c(F)c([H])c7F)c([H])c6[H])c(C(=O)N([H])[H])c5N([H])[H])C4([H])[H])C([H])([H])C3([H])[H])C([H])([H])[H])c([H])c([H])c2C1([H])[H]

>  <smiles>  (60) 
[H]c1c([H])c([H])c2c(c1[H])C([H])([H])C([H])([H])C([H])([H])C2([H])N([H])C(=O)C1([H])N(C(=O)C([H])(N([H])C(=O)C([H])(N([H])C([H])([H])[H])C([H])([H])[H])C(C([H])([H])[H])(C([H])([H])[H])C([H])([H])[H])C([H])([H])c2c([H])c(OC([H])([H])C([H])(c3c([H])c(C([H])([H])[H])c(C([H])([H])[H])c([H])c3OC3([H])C([H])([H])C([H])([H])N(C(=O)N4C([H])([H])C([H])([H])C([H])([H])C([H])(n5nc(-c6c([H])c([H])c(Oc7c([H])c([H])c(F)c([H])c7F)c([H])c6[H])c(C(=O)N([H])[H])c5N([H])[H])C4([H])[H])C([H])([H])C3([H])[H])C([H])([H])[H])c([H])c([H])c2C1([H])[H]

$$$$
60:0:0
     RDKit          3D

 95104  0  0  1  0  0  0  0  0999 V2000
  -29.4150  -22.2050   20.8520 C   0  0  0  0  0  3  0  0  0  0  0  0
  -29.2790  -23.6070   20.6740 C   0  0  0  0  0  0  0  0  0  0  0  0
  -28.0910  -23.2080   18.5900 C   0  0  0  0  0  0  0  0  0  0  0  0
  -28.6470  -24.1440   19.5190 C   0  0  0  0  0  0  0  0  0  0  0  0
  -28.2030  -21.7900   18.7980 C   0  0  0  0  0  0  0  0  0  0  0  0
  -28.9260  -21.2660   19.9100 C   0  0  0  0  0  0  0  0  0  0  0  0
  -29.8610  -24.5220   21.7370 C   0  0  0  0  0  1  0  0  0  0  0  0
  -27.3940  -23.7420   17.3370 C   0  0  0  0  0  1  0  0  0  0  0  0
  -27.5170  -20.8270   17.8250 C   0  0  0  0  0  1  0  0  0  0  0  0
  -29.8710  -17.6690   19.0400 C   0  0  0  0  0  2  0  0  0  0  0  0
  -29.3370  -17.7790   21.4620 C   0  0  0  0  0  2  0  0  0  0  0  0
  -29.9640  -19.2230   19.0200 C   0  0  0  0  0  2  0  0  0  0  0  0
  -29.4610  -19.3280   21.4050 C   0  0  0  0  0  2  0  0  0  0  0  0
  -30.2210  -17.0500   20.4170 C   0  0  0  0  0  3  0  0  0  0  0  0
  -29.1540  -19.8600   20.0710 N   0  0  0  0  0  0  0  0  0  0  0  0
  -30.7720  -14.5650   20.0110 C   0  0  0  0  0  0  0  0  0  0  0  0
  -30.4710  -12.3830   18.8850 C   0  0  0  0  0  2  0  0  0  0  0  0
  -29.4640  -12.5860   17.7320 C   0  0  0  0  0  2  0  0  0  0  0  0
  -28.0120  -12.4430   18.2360 C   0  0  0  0  0  2  0  0  0  0  0  0
  -27.7400  -13.2680   19.5230 C   0  0  0  0  0  3  0  0  0  0  0  0
  -28.8530  -13.0330   20.5710 C   0  0  0  0  0  2  0  0  0  0  0  0
  -30.1390  -13.3590   19.9350 N   0  0  0  0  0  0  0  0  0  0  0  0
  -31.8920  -14.7620   19.5320 O   0  0  0  0  0  0  0  0  0  0  0  0
  -29.9980  -15.5790   20.4680 N   0  0  0  0  0  0  0  0  0  0  0  0
  -29.1030  -15.2840   20.8290 H   0  0  0  0  0  0  0  0  0  0  0  0
  -25.3870  -13.8810   20.3570 C   0  0  0  0  0  0  0  0  0  0  0  0
  -24.3340  -13.1100   20.7700 C   0  0  0  0  0  0  0  0  0  0  0  0
  -24.7820  -11.7570   20.7010 C   0  0  0  0  0  0  0  0  0  0  0  0
  -26.4110  -12.9950   20.0660 N   0  0  0  0  0  0  0  0  0  0  0  0
  -26.0550  -11.7120   20.3280 N   0  0  0  0  0  0  0  0  0  0  0  0
  -24.0590  -10.4970   20.9110 C   0  0  0  0  0  0  0  0  0  0  0  0
  -24.4850   -9.5510   21.8690 C   0  0  0  0  0  3  0  0  0  0  0  0
  -23.7610   -8.3540   22.0660 C   0  0  0  0  0  3  0  0  0  0  0  0
  -22.5970   -8.0960   21.3040 C   0  0  0  0  0  0  0  0  0  0  0  0
  -22.1900   -9.0320   20.3360 C   0  0  0  0  0  3  0  0  0  0  0  0
  -22.9140  -10.2180   20.1380 C   0  0  0  0  0  3  0  0  0  0  0  0
  -21.8460   -6.9510   21.4080 O   0  0  0  0  0  0  0  0  0  0  0  0
  -21.7280   -6.2740   22.5950 C   0  0  0  0  0  0  0  0  0  0  0  0
  -21.2030   -6.8860   23.7530 C   0  0  0  0  0  3  0  0  0  0  0  0
  -21.0340   -6.1350   24.9320 C   0  0  0  0  0  3  0  0  0  0  0  0
  -21.3790   -4.7700   24.9550 C   0  0  0  0  0  0  0  0  0  0  0  0
  -21.8970   -4.1560   23.7990 C   0  0  0  0  0  3  0  0  0  0  0  0
  -22.0680   -4.9060   22.6230 C   0  0  0  0  0  0  0  0  0  0  0  0
  -22.5470   -4.3050   21.5070 F   0  0  0  0  0  0  0  0  0  0  0  0
  -21.2110   -4.0440   26.0850 F   0  0  0  0  0  0  0  0  0  0  0  0
  -22.9540  -13.5930   21.1190 C   0  0  0  0  0  0  0  0  0  0  0  0
  -22.2670  -12.8910   22.0120 N   0  0  0  0  0  0  0  0  0  0  0  0
  -22.4980  -14.6290   20.6360 O   0  0  0  0  0  0  0  0  0  0  0  0
  -22.6470  -12.0500   22.4200 H   0  0  0  0  0  0  0  0  0  0  0  0
  -21.3450  -13.1990   22.2920 H   0  0  0  0  0  0  0  0  0  0  0  0
  -25.5510  -15.2520   20.1880 N   0  0  0  0  0  0  0  0  0  0  0  0
  -24.7920  -15.9060   20.3400 H   0  0  0  0  0  0  0  0  0  0  0  0
  -26.3720  -15.6880   19.7870 H   0  0  0  0  0  0  0  0  0  0  0  0
  -28.7190  -25.6760   19.1820 C   0  0  0  0  0  2  0  0  0  0  0  0
  -28.4470  -26.6640   20.2120 O   0  0  0  0  0  0  0  0  0  0  0  0
  -24.6120  -31.9100   23.2320 C   0  0  0  0  0  0  0  0  0  0  0  0
  -27.2770  -27.4150   20.1830 C   0  0  0  0  0  0  0  0  0  0  0  0
  -23.4200  -30.5020   21.5870 C   0  0  0  0  0  3  0  0  0  0  0  0
  -24.8820  -28.9520   20.1830 C   0  0  0  0  0  0  0  0  0  0  0  0
  -25.9520  -30.8430   21.4140 C   0  0  0  0  0  2  0  0  0  0  0  0
  -26.0400  -29.4680   20.7760 C   0  0  0  0  0  0  0  0  0  0  0  0
  -27.2370  -28.7050   20.7760 C   0  0  0  0  0  3  0  0  0  0  0  0
  -26.0880  -26.9140   19.6080 C   0  0  0  0  0  3  0  0  0  0  0  0
  -24.9030  -27.6730   19.6010 C   0  0  0  0  0  3  0  0  0  0  0  0
  -23.6410  -29.8190   20.2120 C   0  0  0  0  0  2  0  0  0  0  0  0
  -24.6790  -31.1030   22.1350 N   0  0  0  0  0  0  0  0  0  0  0  0
  -23.5260  -32.1840   23.7620 O   0  0  0  0  0  0  0  0  0  0  0  0
  -22.7610  -29.4860   22.5490 C   0  0  0  0  0  0  0  0  0  0  0  0
  -21.4400  -29.2920   22.4050 N   0  0  0  0  0  0  0  0  0  0  0  0
  -23.4360  -28.8750   23.3830 O   0  0  0  0  0  0  0  0  0  0  0  0
  -20.9560  -29.8330   21.7030 H   0  0  0  0  0  0  0  0  0  0  0  0
  -18.0720  -28.0650   22.8770 C   0  0  0  0  0  0  0  0  0  0  0  0
  -20.6230  -28.3550   23.1760 C   0  0  0  0  0  3  0  0  0  0  0  0
  -20.7510  -26.9180   22.6210 C   0  0  0  0  0  2  0  0  0  0  0  0
  -19.6660  -26.5690   21.5980 C   0  0  0  0  0  2  0  0  0  0  0  0
  -18.2710  -26.7100   22.2170 C   0  0  0  0  0  2  0  0  0  0  0  0
  -19.1770  -28.8430   23.3120 C   0  0  0  0  0  0  0  0  0  0  0  0
  -18.9370  -30.1110   23.8870 C   0  0  0  0  0  3  0  0  0  0  0  0
  -17.6250  -30.5990   24.0310 C   0  0  0  0  0  3  0  0  0  0  0  0
  -16.5360  -29.8190   23.6100 C   0  0  0  0  0  3  0  0  0  0  0  0
  -16.7590  -28.5530   23.0400 C   0  0  0  0  0  3  0  0  0  0  0  0
  -25.8930  -32.5500   23.8580 C   0  0  0  0  0  3  0  0  0  0  0  0
  -25.5760  -33.9470   24.1820 N   0  0  0  0  0  0  0  0  0  0  0  0
  -25.9150  -35.0000   23.4250 C   0  0  0  0  0  0  0  0  0  0  0  0
  -26.5990  -34.8960   22.4040 O   0  0  0  0  0  0  0  0  0  0  0  0
  -24.9860  -34.1040   24.9860 H   0  0  0  0  0  0  0  0  0  0  0  0
  -24.1990  -36.7940   23.0290 C   0  0  0  0  0  1  0  0  0  0  0  0
  -25.4170  -36.3860   23.8740 C   0  0  0  0  0  3  0  0  0  0  0  0
  -27.5250  -37.2690   24.7720 C   0  0  0  0  0  1  0  0  0  0  0  0
  -26.4530  -37.4390   23.7940 N   0  0  0  0  0  0  0  0  0  0  0  0
  -26.0430  -38.3590   23.9300 H   0  0  0  0  0  0  0  0  0  0  0  0
  -26.4080  -31.7860   25.1380 C   0  0  1  0  0  0  0  0  0  0  0  0
  -25.3090  -31.5370   26.1970 C   0  0  0  0  0  1  0  0  0  0  0  0
  -27.0130  -30.4160   24.7550 C   0  0  0  0  0  1  0  0  0  0  0  0
  -27.5460  -32.5930   25.8070 C   0  0  0  0  0  1  0  0  0  0  0  0
  2  1  1  0
  2  7  1  0
  3  5  2  0
  3  4  1  0
  4  2  2  0
  5  6  1  0
  6 15  1  0
  6  1  2  0
  8  3  1  0
  9  5  1  0
 10 14  1  0
 12 10  1  0
 12 15  1  0
 13 11  1  0
 14 24  1  0
 14 11  1  0
 15 13  1  0
 16 24  1  0
 17 22  1  0
 18 19  1  0
 18 17  1  0
 20 19  1  0
 20 29  1  0
 20 21  1  0
 22 16  1  0
 22 21  1  0
 23 16  2  0
 24 25  1  0
 26 27  2  0
 27 46  1  0
 28 27  1  0
 28 31  1  0
 29 30  1  0
 29 26  1  0
 30 28  2  0
 31 32  1  0
 32 33  2  0
 34 37  1  0
 34 33  1  0
 35 34  2  0
 36 35  1  0
 36 31  2  0
 37 38  1  0
 38 43  2  0
 38 39  1  0
 39 40  2  0
 40 41  1  0
 41 45  1  0
 42 41  2  0
 43 42  1  0
 44 43  1  0
 46 47  1  0
 47 50  1  0
 47 49  1  0
 48 46  2  0
 51 52  1  0
 51 26  1  0
 53 51  1  0
 54  4  1  0
 54 55  1  0
 56 67  2  0
 57 55  1  0
 57 62  1  0
 58 66  1  0
 58 68  1  0
 59 65  1  0
 59 61  1  0
 60 66  1  0
 61 60  1  0
 62 61  2  0
 63 57  2  0
 64 63  1  0
 64 59  2  0
 65 58  1  0
 66 56  1  0
 68 70  2  0
 69 68  1  0
 71 69  1  0
 72 81  2  0
 72 77  1  0
 73 69  1  0
 73 77  1  0
 74 73  1  0
 75 76  1  0
 75 74  1  0
 76 72  1  0
 77 78  2  0
 78 79  1  0
 80 79  2  0
 81 80  1  0
 82 56  1  0
 82 83  1  0
 82 92  1  0
 83 86  1  0
 84 88  1  0
 84 83  1  0
 85 84  2  0
 88 87  1  0
 90 88  1  0
 90 91  1  0
 90 89  1  0
 92 95  1  1
 92 93  1  0
 94 92  1  0
M  ISO  4  16 100  24 100  54 101  55 101
M  END
>  <TORSDO>  (61) 
F 18

>  <SCORE>  (61) 
-13.908

>  <name>  (61) 
60

>  <ligand_id>  (61) 
60

>  <original_smiles>  (61) 
[H]c1c([H])c([H])c2c(c1[H])C([H])([H])C([H])([H])C([H])([H])C2([H])N([H])C(=O)C1([H])N(C(=O)C([H])(N([H])C(=O)C([H])(N([H])C([H])([H])[H])C([H])([H])[H])C(C([H])([H])[H])(C([H])([H])[H])C([H])([H])[H])C([H])([H])c2c([H])c(OC([H])([H])c3c(C([H])([H])[H])c([H])c(N4C([H])([H])C([H])([H])C([H])(N([H])C(=O)N5C([H])([H])C([H])([H])C([H])([H])C([H])(n6nc(-c7c([H])c([H])c(Oc8c([H])c([H])c(F)c([H])c8F)c([H])c7[H])c(C(=O)N([H])[H])c6N([H])[H])C5([H])[H])C([H])([H])C4([H])[H])c(C([H])([H])[H])c3C([H])([H])[H])c([H])c([H])c2C1([H])[H]

>  <smiles>  (61) 
[H]c1c([H])c([H])c2c(c1[H])C([H])([H])C([H])([H])C([H])([H])C2([H])N([H])C(=O)C1([H])N(C(=O)C([H])(N([H])C(=O)C([H])(N([H])C([H])([H])[H])C([H])([H])[H])C(C([H])([H])[H])(C([H])([H])[H])C([H])([H])[H])C([H])([H])c2c([H])c(OC([H])([H])c3c(C([H])([H])[H])c([H])c(N4C([H])([H])C([H])([H])C([H])(N([H])C(=O)N5C([H])([H])C([H])([H])C([H])([H])C([H])(n6nc(-c7c([H])c([H])c(Oc8c([H])c([H])c(F)c([H])c8F)c([H])c7[H])c(C(=O)N([H])[H])c6N([H])[H])C5([H])[H])C([H])([H])C4([H])[H])c(C([H])([H])[H])c3C([H])([H])[H])c([H])c([H])c2C1([H])[H]

$$$$
62:0:0
     RDKit          3D

 94103  0  0  1  0  0  0  0  0999 V2000
  -29.3090  -22.1930   21.2990 C   0  0  0  0  0  3  0  0  0  0  0  0
  -28.7080  -20.4550   19.2590 C   0  0  0  0  0  3  0  0  0  0  0  0
  -29.7710  -20.7800   21.2850 C   0  0  0  0  0  0  0  0  0  0  0  0
  -29.5020  -19.7680   20.2620 C   0  0  0  0  0  0  0  0  0  0  0  0
  -28.5230  -22.8850   20.2930 C   0  0  0  0  0  0  0  0  0  0  0  0
  -28.2400  -21.8760   19.2670 C   0  0  0  0  0  0  0  0  0  0  0  0
  -30.6640  -20.3850   22.4540 C   0  0  0  0  0  2  0  0  0  0  0  0
  -31.0870  -18.9030   22.4940 C   0  0  0  0  0  2  0  0  0  0  0  0
  -30.3000  -18.2230   20.1520 C   0  0  0  0  0  3  0  0  0  0  0  0
  -31.4980  -18.3090   21.1370 C   0  0  0  0  0  3  0  0  0  0  0  0
  -30.6150  -15.3740   20.0670 C   0  0  0  0  0  0  0  0  0  0  0  0
  -30.5820  -12.9240   19.2600 C   0  0  0  0  0  2  0  0  0  0  0  0
  -29.6350  -12.6840   18.0600 C   0  0  0  0  0  2  0  0  0  0  0  0
  -28.2010  -12.4100   18.5470 C   0  0  0  0  0  2  0  0  0  0  0  0
  -27.7640  -13.3980   19.6590 C   0  0  0  0  0  3  0  0  0  0  0  0
  -28.8390  -13.5920   20.7500 C   0  0  0  0  0  2  0  0  0  0  0  0
  -30.0480  -14.0760   20.0670 N   0  0  0  0  0  0  0  0  0  0  0  0
  -31.8250  -15.3820   19.8140 O   0  0  0  0  0  0  0  0  0  0  0  0
  -29.8650  -16.6370   20.1550 N   0  0  0  0  0  0  0  0  0  0  0  0
  -28.8760  -16.4980   20.2880 H   0  0  0  0  0  0  0  0  0  0  0  0
  -25.4280  -13.9350   20.5300 C   0  0  0  0  0  0  0  0  0  0  0  0
  -24.3810  -13.1460   20.9150 C   0  0  0  0  0  0  0  0  0  0  0  0
  -24.8430  -11.7970   20.8200 C   0  0  0  0  0  0  0  0  0  0  0  0
  -26.4570  -13.0670   20.2140 N   0  0  0  0  0  0  0  0  0  0  0  0
  -26.1210  -11.7730   20.4570 N   0  0  0  0  0  0  0  0  0  0  0  0
  -24.1220  -10.5290   20.9960 C   0  0  0  0  0  0  0  0  0  0  0  0
  -24.5390   -9.5650   21.9400 C   0  0  0  0  0  3  0  0  0  0  0  0
  -23.8150   -8.3640   22.1030 C   0  0  0  0  0  3  0  0  0  0  0  0
  -22.6590   -8.1190   21.3250 C   0  0  0  0  0  0  0  0  0  0  0  0
  -22.2620   -9.0730   20.3720 C   0  0  0  0  0  3  0  0  0  0  0  0
  -22.9860  -10.2640   20.2040 C   0  0  0  0  0  3  0  0  0  0  0  0
  -21.9090   -6.9700   21.3990 O   0  0  0  0  0  0  0  0  0  0  0  0
  -21.7690   -6.2760   22.5740 C   0  0  0  0  0  0  0  0  0  0  0  0
  -21.1780   -6.8560   23.7160 C   0  0  0  0  0  3  0  0  0  0  0  0
  -20.9910   -6.0850   24.8810 C   0  0  0  0  0  3  0  0  0  0  0  0
  -21.3840   -4.7340   24.9020 C   0  0  0  0  0  0  0  0  0  0  0  0
  -21.9690   -4.1530   23.7620 C   0  0  0  0  0  3  0  0  0  0  0  0
  -22.1570   -4.9220   22.6010 C   0  0  0  0  0  0  0  0  0  0  0  0
  -22.7010   -4.3500   21.4990 F   0  0  0  0  0  0  0  0  0  0  0  0
  -21.1990   -3.9900   26.0170 F   0  0  0  0  0  0  0  0  0  0  0  0
  -22.9950  -13.6140   21.2540 C   0  0  0  0  0  0  0  0  0  0  0  0
  -22.3040  -12.8970   22.1320 N   0  0  0  0  0  0  0  0  0  0  0  0
  -22.5380  -14.6520   20.7760 O   0  0  0  0  0  0  0  0  0  0  0  0
  -22.6880  -12.0580   22.5390 H   0  0  0  0  0  0  0  0  0  0  0  0
  -21.3760  -13.1920   22.4010 H   0  0  0  0  0  0  0  0  0  0  0  0
  -25.5830  -15.3100   20.3910 N   0  0  0  0  0  0  0  0  0  0  0  0
  -24.8180  -15.9560   20.5510 H   0  0  0  0  0  0  0  0  0  0  0  0
  -26.4060  -15.7600   20.0110 H   0  0  0  0  0  0  0  0  0  0  0  0
  -26.9420  -21.4560   17.2680 C   0  0  0  0  0  1  0  0  0  0  0  0
  -27.4490  -22.3570   18.2450 O   0  0  0  0  0  0  0  0  0  0  0  0
  -32.5580  -19.0640   20.5770 O   0  0  0  0  0  0  0  0  0  0  0  0
  -32.2000  -19.9150   20.3420 H   0  0  0  0  0  0  0  0  0  0  0  0
  -27.7280  -24.4330   20.3870 C   0  0  0  0  0  2  0  0  0  0  0  0
  -28.1380  -26.0010   20.5400 O   0  0  0  0  0  0  0  0  0  0  0  0
  -24.6060  -32.0120   23.3830 C   0  0  0  0  0  0  0  0  0  0  0  0
  -27.1480  -27.1060   20.4490 C   0  0  0  0  0  0  0  0  0  0  0  0
  -23.4100  -30.6000   21.7620 C   0  0  0  0  0  3  0  0  0  0  0  0
  -24.8570  -28.9780   20.3690 C   0  0  0  0  0  0  0  0  0  0  0  0
  -25.9780  -30.8050   21.6210 C   0  0  0  0  0  2  0  0  0  0  0  0
  -26.0440  -29.3900   20.9860 C   0  0  0  0  0  0  0  0  0  0  0  0
  -27.1870  -28.4740   21.0050 C   0  0  0  0  0  3  0  0  0  0  0  0
  -25.9320  -26.8450   19.7770 C   0  0  0  0  0  3  0  0  0  0  0  0
  -24.8230  -27.7240   19.7430 C   0  0  0  0  0  3  0  0  0  0  0  0
  -23.6410  -29.8990   20.3960 C   0  0  0  0  0  2  0  0  0  0  0  0
  -24.6860  -31.1660   22.3080 N   0  0  0  0  0  0  0  0  0  0  0  0
  -23.5150  -32.3160   23.8960 O   0  0  0  0  0  0  0  0  0  0  0  0
  -22.7100  -29.6180   22.7380 C   0  0  0  0  0  0  0  0  0  0  0  0
  -21.3930  -29.4050   22.5660 N   0  0  0  0  0  0  0  0  0  0  0  0
  -23.3600  -29.0490   23.6190 O   0  0  0  0  0  0  0  0  0  0  0  0
  -20.9210  -29.9160   21.8320 H   0  0  0  0  0  0  0  0  0  0  0  0
  -18.0380  -28.0820   22.9600 C   0  0  0  0  0  0  0  0  0  0  0  0
  -20.5660  -28.4740   23.3420 C   0  0  0  0  0  3  0  0  0  0  0  0
  -20.7580  -27.0180   22.8530 C   0  0  0  0  0  2  0  0  0  0  0  0
  -19.7270  -26.5950   21.8020 C   0  0  0  0  0  2  0  0  0  0  0  0
  -18.3070  -26.7100   22.3650 C   0  0  0  0  0  2  0  0  0  0  0  0
  -19.0980  -28.9160   23.4040 C   0  0  0  0  0  0  0  0  0  0  0  0
  -18.7920  -30.1930   23.9210 C   0  0  0  0  0  3  0  0  0  0  0  0
  -17.4600  -30.6390   23.9970 C   0  0  0  0  0  3  0  0  0  0  0  0
  -16.4130  -29.8040   23.5690 C   0  0  0  0  0  3  0  0  0  0  0  0
  -16.7020  -28.5280   23.0550 C   0  0  0  0  0  3  0  0  0  0  0  0
  -25.8780  -32.6580   24.0100 C   0  0  0  0  0  3  0  0  0  0  0  0
  -26.3570  -31.9290   25.3260 C   0  0  1  0  0  0  0  0  0  0  0  0
  -25.2340  -31.7260   26.3700 C   0  0  0  0  0  1  0  0  0  0  0  0
  -26.9500  -30.5390   25.0030 C   0  0  0  0  0  1  0  0  0  0  0  0
  -27.4890  -32.7440   25.9940 C   0  0  0  0  0  1  0  0  0  0  0  0
  -25.5760  -34.0720   24.2950 N   0  0  0  0  0  0  0  0  0  0  0  0
  -25.9060  -35.1020   23.5050 C   0  0  0  0  0  0  0  0  0  0  0  0
  -26.5610  -34.9620   22.4690 O   0  0  0  0  0  0  0  0  0  0  0  0
  -24.9910  -34.2540   25.0980 H   0  0  0  0  0  0  0  0  0  0  0  0
  -24.1820  -36.9000   23.1340 C   0  0  0  0  0  1  0  0  0  0  0  0
  -25.4380  -36.5090   23.9290 C   0  0  0  0  0  3  0  0  0  0  0  0
  -27.5880  -37.4180   24.6950 C   0  0  0  0  0  1  0  0  0  0  0  0
  -26.4750  -37.5510   23.7590 N   0  0  0  0  0  0  0  0  0  0  0  0
  -26.0750  -38.4790   23.8720 H   0  0  0  0  0  0  0  0  0  0  0  0
  2  6  2  0
  2  4  1  0
  3  1  1  0
  3  7  1  0
  4  3  2  0
  5 53  1  0
  5  1  2  0
  6  5  1  0
  7  8  1  0
  9 19  1  0
  9  4  1  0
  9 10  1  0
 10 51  1  0
 10  8  1  0
 11 17  1  0
 11 19  1  0
 12 17  1  0
 13 14  1  0
 13 12  1  0
 15 14  1  0
 15 24  1  0
 15 16  1  0
 17 16  1  0
 18 11  2  0
 19 20  1  0
 21 22  2  0
 22 41  1  0
 23 22  1  0
 23 26  1  0
 24 25  1  0
 24 21  1  0
 25 23  2  0
 26 27  1  0
 27 28  2  0
 29 32  1  0
 29 28  1  0
 30 29  2  0
 31 30  1  0
 31 26  2  0
 32 33  1  0
 33 38  2  0
 33 34  1  0
 34 35  2  0
 35 36  1  0
 36 40  1  0
 37 36  2  0
 38 37  1  0
 39 38  1  0
 41 42  1  0
 42 45  1  0
 42 44  1  0
 43 41  2  0
 46 21  1  0
 46 47  1  0
 48 46  1  0
 49 50  1  0
 50  6  1  0
 52 51  1  0
 53 54  1  0
 55 66  2  0
 56 54  1  0
 56 61  1  0
 57 65  1  0
 57 67  1  0
 58 64  1  0
 58 60  1  0
 59 65  1  0
 60 61  2  0
 60 59  1  0
 62 56  2  0
 63 62  1  0
 63 58  2  0
 64 57  1  0
 65 55  1  0
 67 69  2  0
 68 67  1  0
 70 68  1  0
 71 80  2  0
 71 76  1  0
 72 68  1  0
 72 76  1  0
 73 72  1  0
 74 75  1  0
 74 73  1  0
 75 71  1  0
 76 77  2  0
 77 78  1  0
 79 78  2  0
 80 79  1  0
 81 55  1  0
 81 86  1  0
 81 82  1  0
 82 85  1  1
 82 83  1  0
 84 82  1  0
 86 89  1  0
 87 91  1  0
 87 86  1  0
 88 87  2  0
 91 90  1  0
 93 94  1  0
 93 91  1  0
 93 92  1  0
M  ISO  4  11 100  19 100  53 101  54 101
M  END
>  <TORSDO>  (62) 
F 19

>  <SCORE>  (62) 
-14.606

>  <name>  (62) 
62

>  <ligand_id>  (62) 
62

>  <original_smiles>  (62) 
[H]OC1([H])C([H])(N([H])C(=O)N2C([H])([H])C([H])([H])C([H])([H])C([H])(n3nc(-c4c([H])c([H])c(Oc5c([H])c([H])c(F)c([H])c5F)c([H])c4[H])c(C(=O)N([H])[H])c3N([H])[H])C2([H])[H])c2c([H])c(OC([H])([H])[H])c(C([H])([H])Oc3c([H])c([H])c4c(c3[H])C([H])([H])N(C(=O)C([H])(N([H])C(=O)C([H])(N([H])C([H])([H])[H])C([H])([H])[H])C(C([H])([H])[H])(C([H])([H])[H])C([H])([H])[H])C([H])(C(=O)N([H])C3([H])c5c([H])c([H])c([H])c([H])c5C([H])([H])C([H])([H])C3([H])[H])C4([H])[H])c([H])c2C([H])([H])C1([H])[H]

>  <smiles>  (62) 
[H]OC1([H])C([H])(N([H])C(=O)N2C([H])([H])C([H])([H])C([H])([H])C([H])(n3nc(-c4c([H])c([H])c(Oc5c([H])c([H])c(F)c([H])c5F)c([H])c4[H])c(C(=O)N([H])[H])c3N([H])[H])C2([H])[H])c2c([H])c(OC([H])([H])[H])c(C([H])([H])Oc3c([H])c([H])c4c(c3[H])C([H])([H])N(C(=O)C([H])(N([H])C(=O)C([H])(N([H])C([H])([H])[H])C([H])([H])[H])C(C([H])([H])[H])(C([H])([H])[H])C([H])([H])[H])C([H])(C(=O)N([H])C3([H])c5c([H])c([H])c([H])c([H])c5C([H])([H])C([H])([H])C3([H])[H])C4([H])[H])c([H])c2C([H])([H])C1([H])[H]

$$$$
63:0:0
     RDKit          3D

 97107  0  0  1  0  0  0  0  0999 V2000
  -30.3950  -21.6010   22.1200 C   0  0  0  0  0  3  0  0  0  0  0  0
  -30.1760  -20.2290   20.1430 C   0  0  0  0  0  3  0  0  0  0  0  0
  -29.8200  -22.6580   19.9730 C   0  0  0  0  0  0  0  0  0  0  0  0
  -30.0750  -22.7550   21.3750 C   0  0  0  0  0  0  0  0  0  0  0  0
  -29.8620  -21.3650   19.3690 C   0  0  0  0  0  0  0  0  0  0  0  0
  -30.4440  -20.3320   21.5230 C   0  0  0  0  0  0  0  0  0  0  0  0
  -29.9960  -24.0530   22.1690 C   0  0  0  0  0  1  0  0  0  0  0  0
  -29.5250  -21.1130   17.9000 C   0  0  0  0  0  1  0  0  0  0  0  0
  -28.0710  -24.5380   19.3800 C   0  0  0  0  0  2  0  0  0  0  0  0
  -30.0760  -25.2880   19.2180 C   0  0  0  0  0  2  0  0  0  0  0  0
  -29.4320  -23.8880   19.1290 C   0  0  0  0  0  3  0  0  0  0  0  0
  -28.6790  -25.9140   19.0760 C   0  0  0  0  0  3  0  0  0  0  0  0
  -28.4470  -26.9010   20.0830 O   0  0  0  0  0  0  0  0  0  0  0  0
  -24.5350  -31.9530   23.2210 C   0  0  0  0  0  0  0  0  0  0  0  0
  -27.2340  -27.5590   20.1020 C   0  0  0  0  0  0  0  0  0  0  0  0
  -23.3460  -30.5470   21.5700 C   0  0  0  0  0  3  0  0  0  0  0  0
  -24.8130  -29.0220   20.1460 C   0  0  0  0  0  0  0  0  0  0  0  0
  -25.8710  -30.9190   21.3900 C   0  0  0  0  0  2  0  0  0  0  0  0
  -25.9610  -29.5490   20.7490 C   0  0  0  0  0  0  0  0  0  0  0  0
  -27.1680  -28.8170   20.7410 C   0  0  0  0  0  3  0  0  0  0  0  0
  -26.0630  -27.0390   19.5020 C   0  0  0  0  0  3  0  0  0  0  0  0
  -24.8560  -27.7610   19.5310 C   0  0  0  0  0  3  0  0  0  0  0  0
  -23.5630  -29.8710   20.1890 C   0  0  0  0  0  2  0  0  0  0  0  0
  -24.6010  -31.1570   22.1170 N   0  0  0  0  0  0  0  0  0  0  0  0
  -23.4490  -32.2160   23.7570 O   0  0  0  0  0  0  0  0  0  0  0  0
  -22.6990  -29.5180   22.5230 C   0  0  0  0  0  0  0  0  0  0  0  0
  -21.3810  -29.3100   22.3690 N   0  0  0  0  0  0  0  0  0  0  0  0
  -23.3780  -28.9100   23.3550 O   0  0  0  0  0  0  0  0  0  0  0  0
  -20.8970  -29.8510   21.6670 H   0  0  0  0  0  0  0  0  0  0  0  0
  -18.0240  -28.0410   22.7860 C   0  0  0  0  0  0  0  0  0  0  0  0
  -20.5650  -28.3640   23.1300 C   0  0  0  0  0  3  0  0  0  0  0  0
  -20.7180  -26.9290   22.5750 C   0  0  0  0  0  2  0  0  0  0  0  0
  -19.6540  -26.5670   21.5330 C   0  0  0  0  0  2  0  0  0  0  0  0
  -18.2500  -26.6870   22.1340 C   0  0  0  0  0  2  0  0  0  0  0  0
  -19.1110  -28.8360   23.2370 C   0  0  0  0  0  0  0  0  0  0  0  0
  -18.8440  -30.1020   23.8020 C   0  0  0  0  0  3  0  0  0  0  0  0
  -17.5230  -30.5760   23.9170 C   0  0  0  0  0  3  0  0  0  0  0  0
  -16.4510  -29.7780   23.4810 C   0  0  0  0  0  3  0  0  0  0  0  0
  -16.7010  -28.5120   22.9240 C   0  0  0  0  0  3  0  0  0  0  0  0
  -25.8150  -32.5870   23.8490 C   0  0  0  0  0  3  0  0  0  0  0  0
  -25.5020  -33.9850   24.1740 N   0  0  0  0  0  0  0  0  0  0  0  0
  -25.8300  -35.0350   23.4080 C   0  0  0  0  0  0  0  0  0  0  0  0
  -26.5010  -34.9290   22.3780 O   0  0  0  0  0  0  0  0  0  0  0  0
  -24.9010  -34.1400   24.9690 H   0  0  0  0  0  0  0  0  0  0  0  0
  -24.0830  -36.8070   23.0470 C   0  0  0  0  0  1  0  0  0  0  0  0
  -25.3330  -36.4230   23.8580 C   0  0  0  0  0  3  0  0  0  0  0  0
  -27.4690  -37.3210   24.6660 C   0  0  0  0  0  1  0  0  0  0  0  0
  -26.3560  -37.4860   23.7350 N   0  0  0  0  0  0  0  0  0  0  0  0
  -25.9430  -38.4010   23.8930 H   0  0  0  0  0  0  0  0  0  0  0  0
  -26.3240  -31.8210   25.1310 C   0  0  1  0  0  0  0  0  0  0  0  0
  -25.2190  -31.5600   26.1800 C   0  0  0  0  0  1  0  0  0  0  0  0
  -26.9360  -30.4570   24.7400 C   0  0  0  0  0  1  0  0  0  0  0  0
  -27.4560  -32.6270   25.8090 C   0  0  0  0  0  1  0  0  0  0  0  0
  -30.7370  -19.2280   22.3400 N   0  0  0  0  0  0  0  0  0  0  0  0
  -30.9990  -19.3800   23.3110 H   0  0  0  0  0  0  0  0  0  0  0  0
  -30.6400  -14.4640   20.0690 C   0  0  0  0  0  0  0  0  0  0  0  0
  -30.1760  -12.4910   18.6550 C   0  0  0  0  0  2  0  0  0  0  0  0
  -29.1220  -12.8110   17.5780 C   0  0  0  0  0  2  0  0  0  0  0  0
  -27.6890  -12.6520   18.1270 C   0  0  0  0  0  2  0  0  0  0  0  0
  -27.4920  -13.3710   19.4870 C   0  0  0  0  0  3  0  0  0  0  0  0
  -28.6310  -12.9790   20.4580 C   0  0  0  0  0  2  0  0  0  0  0  0
  -29.9100  -13.3440   19.8210 N   0  0  0  0  0  0  0  0  0  0  0  0
  -31.6320  -14.7790   19.3960 O   0  0  0  0  0  0  0  0  0  0  0  0
  -29.1900  -17.3530   21.8540 C   0  0  0  0  0  2  0  0  0  0  0  0
  -31.4330  -16.8890   22.7090 C   0  0  0  0  0  2  0  0  0  0  0  0
  -29.0950  -16.0320   21.0880 C   0  0  0  0  0  2  0  0  0  0  0  0
  -31.3140  -15.4240   22.2190 C   0  0  0  0  0  2  0  0  0  0  0  0
  -30.6310  -17.8620   21.8480 C   0  0  0  0  0  3  0  0  0  0  0  0
  -30.2900  -15.1570   21.1780 N   0  0  0  0  0  0  0  0  0  0  0  0
  -25.1610  -13.9880   20.3940 C   0  0  0  0  0  0  0  0  0  0  0  0
  -24.1160  -13.2110   20.8200 C   0  0  0  0  0  0  0  0  0  0  0  0
  -24.5550  -11.8580   20.6990 C   0  0  0  0  0  0  0  0  0  0  0  0
  -26.1740  -13.1030   20.0540 N   0  0  0  0  0  0  0  0  0  0  0  0
  -25.8130  -11.8160   20.2840 N   0  0  0  0  0  0  0  0  0  0  0  0
  -23.8320  -10.5960   20.8990 C   0  0  0  0  0  0  0  0  0  0  0  0
  -24.3140   -9.5990   21.7760 C   0  0  0  0  0  3  0  0  0  0  0  0
  -23.5940   -8.4000   21.9630 C   0  0  0  0  0  3  0  0  0  0  0  0
  -22.3760   -8.1890   21.2750 C   0  0  0  0  0  0  0  0  0  0  0  0
  -21.9120   -9.1760   20.3870 C   0  0  0  0  0  3  0  0  0  0  0  0
  -22.6330  -10.3670   20.1970 C   0  0  0  0  0  3  0  0  0  0  0  0
  -21.6220   -7.0450   21.3750 O   0  0  0  0  0  0  0  0  0  0  0  0
  -21.6240   -6.2810   22.5140 C   0  0  0  0  0  0  0  0  0  0  0  0
  -21.2740   -6.8200   23.7710 C   0  0  0  0  0  3  0  0  0  0  0  0
  -21.2200   -5.9830   24.9050 C   0  0  0  0  0  3  0  0  0  0  0  0
  -21.5050   -4.6110   24.7820 C   0  0  0  0  0  0  0  0  0  0  0  0
  -21.8470   -4.0720   23.5290 C   0  0  0  0  0  3  0  0  0  0  0  0
  -21.9030   -4.9050   22.3970 C   0  0  0  0  0  0  0  0  0  0  0  0
  -22.2140   -4.3760   21.1900 F   0  0  0  0  0  0  0  0  0  0  0  0
  -21.4460   -3.8060   25.8690 F   0  0  0  0  0  0  0  0  0  0  0  0
  -22.7520  -13.6930   21.2240 C   0  0  0  0  0  0  0  0  0  0  0  0
  -22.0900  -12.9710   22.1230 N   0  0  0  0  0  0  0  0  0  0  0  0
  -22.2850  -14.7410   20.7830 O   0  0  0  0  0  0  0  0  0  0  0  0
  -22.4830  -12.1230   22.5030 H   0  0  0  0  0  0  0  0  0  0  0  0
  -21.1770  -13.2750   22.4320 H   0  0  0  0  0  0  0  0  0  0  0  0
  -25.3270  -15.3610   20.2530 N   0  0  0  0  0  0  0  0  0  0  0  0
  -24.5860  -16.0190   20.4650 H   0  0  0  0  0  0  0  0  0  0  0  0
  -26.1510  -15.8040   19.8680 H   0  0  0  0  0  0  0  0  0  0  0  0
  2  6  2  0
  3  4  1  0
  4  1  2  0
  4  7  1  0
  5  3  2  0
  5  2  1  0
  6  1  1  0
  6 54  1  0
  8  5  1  0
 11 10  1  0
 11  9  1  0
 11  3  1  0
 12 10  1  0
 12  9  1  0
 12 13  1  0
 13 15  1  0
 14 25  2  0
 15 20  1  0
 16 24  1  0
 16 26  1  0
 17 23  1  0
 17 19  1  0
 18 24  1  0
 19 18  1  0
 20 19  2  0
 21 22  1  0
 21 15  2  0
 22 17  2  0
 23 16  1  0
 24 14  1  0
 26 28  2  0
 27 26  1  0
 29 27  1  0
 30 39  2  0
 30 35  1  0
 31 27  1  0
 31 35  1  0
 32 31  1  0
 33 34  1  0
 33 32  1  0
 34 30  1  0
 35 36  2  0
 36 37  1  0
 38 37  2  0
 39 38  1  0
 40 14  1  0
 40 41  1  0
 40 50  1  0
 41 44  1  0
 42 46  1  0
 42 41  1  0
 43 42  2  0
 46 45  1  0
 48 46  1  0
 48 49  1  0
 48 47  1  0
 50 53  1  1
 50 51  1  0
 52 50  1  0
 54 55  1  0
 56 69  1  0
 57 62  1  0
 58 59  1  0
 58 57  1  0
 60 59  1  0
 60 73  1  0
 60 61  1  0
 62 56  1  0
 62 61  1  0
 63 56  2  0
 66 69  1  0
 66 64  1  0
 67 65  1  0
 68 64  1  0
 68 54  1  0
 68 65  1  0
 69 67  1  0
 70 71  2  0
 71 90  1  0
 72 71  1  0
 72 75  1  0
 73 74  1  0
 73 70  1  0
 74 72  2  0
 75 76  1  0
 76 77  2  0
 78 81  1  0
 78 77  1  0
 79 78  2  0
 80 79  1  0
 80 75  2  0
 81 82  1  0
 82 83  1  0
 83 84  2  0
 85 84  1  0
 85 89  1  0
 86 85  2  0
 87 82  2  0
 87 86  1  0
 88 87  1  0
 90 91  1  0
 91 94  1  0
 91 93  1  0
 92 90  2  0
 95 70  1  0
 95 96  1  0
 97 95  1  0
M  ISO  4  12 101  13 101  56 100  69 100
M  END
>  <TORSDO>  (63) 
F 18

>  <SCORE>  (63) 
-12.582

>  <name>  (63) 
63

>  <ligand_id>  (63) 
63

>  <original_smiles>  (63) 
[H]c1c([H])c([H])c2c(c1[H])C([H])([H])C([H])([H])C([H])([H])C2([H])N([H])C(=O)C1([H])N(C(=O)C([H])(N([H])C(=O)C([H])(N([H])C([H])([H])[H])C([H])([H])[H])C(C([H])([H])[H])(C([H])([H])[H])C([H])([H])[H])C([H])([H])c2c([H])c(OC3([H])C([H])([H])C([H])(c4c(C([H])([H])[H])c([H])c(N([H])C5([H])C([H])([H])C([H])([H])N(C(=O)N6C([H])([H])C([H])([H])C([H])([H])C([H])(n7nc(-c8c([H])c([H])c(Oc9c([H])c([H])c(F)c([H])c9F)c([H])c8[H])c(C(=O)N([H])[H])c7N([H])[H])C6([H])[H])C([H])([H])C5([H])[H])c([H])c4C([H])([H])[H])C3([H])[H])c([H])c([H])c2C1([H])[H]

>  <smiles>  (63) 
[H]c1c([H])c([H])c2c(c1[H])C([H])([H])C([H])([H])C([H])([H])C2([H])N([H])C(=O)C1([H])N(C(=O)C([H])(N([H])C(=O)C([H])(N([H])C([H])([H])[H])C([H])([H])[H])C(C([H])([H])[H])(C([H])([H])[H])C([H])([H])[H])C([H])([H])c2c([H])c(OC3([H])C([H])([H])C([H])(c4c(C([H])([H])[H])c([H])c(N([H])C5([H])C([H])([H])C([H])([H])N(C(=O)N6C([H])([H])C([H])([H])C([H])([H])C([H])(n7nc(-c8c([H])c([H])c(Oc9c([H])c([H])c(F)c([H])c9F)c([H])c8[H])c(C(=O)N([H])[H])c7N([H])[H])C6([H])[H])C([H])([H])C5([H])[H])c([H])c4C([H])([H])[H])C3([H])[H])c([H])c([H])c2C1([H])[H]

$$$$
64:0:0
     RDKit          3D

 96105  0  0  1  0  0  0  0  0999 V2000
  -28.7640  -23.0090   21.3460 C   0  0  0  0  0  0  0  0  0  0  0  0
  -28.7650  -23.1830   18.9410 C   0  0  0  0  0  0  0  0  0  0  0  0
  -28.5950  -23.8560   20.1950 C   0  0  0  0  0  0  0  0  0  0  0  0
  -29.1200  -21.6110   21.2620 C   0  0  0  0  0  0  0  0  0  0  0  0
  -29.1170  -21.7620   18.8460 C   0  0  0  0  0  0  0  0  0  0  0  0
  -29.2730  -20.9240   20.0180 C   0  0  0  0  0  0  0  0  0  0  0  0
  -28.5480  -23.6170   22.7390 C   0  0  0  0  0  1  0  0  0  0  0  0
  -28.5370  -24.0530   17.7080 C   0  0  0  0  0  1  0  0  0  0  0  0
  -29.3730  -20.8440   22.5640 C   0  0  0  0  0  1  0  0  0  0  0  0
  -30.9800  -15.1330   19.9190 C   0  0  0  0  0  0  0  0  0  0  0  0
  -30.6760  -12.8200   19.0020 C   0  0  0  0  0  2  0  0  0  0  0  0
  -29.6920  -12.7980   17.8160 C   0  0  0  0  0  2  0  0  0  0  0  0
  -28.2540  -12.6040   18.3290 C   0  0  0  0  0  2  0  0  0  0  0  0
  -27.9150  -13.5390   19.5210 C   0  0  0  0  0  3  0  0  0  0  0  0
  -29.0340  -13.5660   20.5860 C   0  0  0  0  0  2  0  0  0  0  0  0
  -30.2670  -13.9440   19.8890 N   0  0  0  0  0  0  0  0  0  0  0  0
  -32.1680  -15.0600   19.5900 O   0  0  0  0  0  0  0  0  0  0  0  0
  -30.9590  -18.9940   20.0700 C   0  0  0  0  0  2  0  0  0  0  0  0
  -28.5940  -18.3930   20.1330 C   0  0  0  0  0  2  0  0  0  0  0  0
  -31.1660  -17.5910   19.3800 C   0  0  0  0  0  2  0  0  0  0  0  0
  -29.1480  -16.9460   20.5790 C   0  0  0  0  0  2  0  0  0  0  0  0
  -29.5840  -19.4890   19.9670 N   0  0  0  0  0  0  0  0  0  0  0  0
  -30.3950  -16.4220   19.9330 N   0  0  0  0  0  0  0  0  0  0  0  0
  -25.5990  -14.1080   20.4520 C   0  0  0  0  0  0  0  0  0  0  0  0
  -24.5530  -13.3260   20.8560 C   0  0  0  0  0  0  0  0  0  0  0  0
  -24.9960  -11.9740   20.7230 C   0  0  0  0  0  0  0  0  0  0  0  0
  -26.6110  -13.2330   20.0980 N   0  0  0  0  0  0  0  0  0  0  0  0
  -26.2620  -11.9400   20.3240 N   0  0  0  0  0  0  0  0  0  0  0  0
  -24.2660  -10.7110   20.8930 C   0  0  0  0  0  0  0  0  0  0  0  0
  -24.6630   -9.7490   21.8470 C   0  0  0  0  0  3  0  0  0  0  0  0
  -23.9310   -8.5530   22.0060 C   0  0  0  0  0  3  0  0  0  0  0  0
  -22.7860   -8.3100   21.2110 C   0  0  0  0  0  0  0  0  0  0  0  0
  -22.4090   -9.2600   20.2440 C   0  0  0  0  0  3  0  0  0  0  0  0
  -23.1430  -10.4470   20.0840 C   0  0  0  0  0  3  0  0  0  0  0  0
  -22.0290   -7.1660   21.2780 O   0  0  0  0  0  0  0  0  0  0  0  0
  -21.8150   -6.5140   22.4670 C   0  0  0  0  0  0  0  0  0  0  0  0
  -21.1620   -7.1380   23.5510 C   0  0  0  0  0  3  0  0  0  0  0  0
  -20.9000   -6.4110   24.7290 C   0  0  0  0  0  3  0  0  0  0  0  0
  -21.2800   -5.0580   24.8210 C   0  0  0  0  0  0  0  0  0  0  0  0
  -21.9250   -4.4320   23.7390 C   0  0  0  0  0  3  0  0  0  0  0  0
  -22.1880   -5.1580   22.5640 C   0  0  0  0  0  0  0  0  0  0  0  0
  -22.7900   -4.5450   21.5160 F   0  0  0  0  0  0  0  0  0  0  0  0
  -21.0220   -4.3560   25.9490 F   0  0  0  0  0  0  0  0  0  0  0  0
  -23.1840  -13.8010   21.2440 C   0  0  0  0  0  0  0  0  0  0  0  0
  -22.5120  -13.0790   22.1330 N   0  0  0  0  0  0  0  0  0  0  0  0
  -22.7220  -14.8490   20.7960 O   0  0  0  0  0  0  0  0  0  0  0  0
  -22.8990  -12.2290   22.5160 H   0  0  0  0  0  0  0  0  0  0  0  0
  -21.5970  -13.3810   22.4350 H   0  0  0  0  0  0  0  0  0  0  0  0
  -25.7620  -15.4840   20.3260 N   0  0  0  0  0  0  0  0  0  0  0  0
  -24.9990  -16.1310   20.5020 H   0  0  0  0  0  0  0  0  0  0  0  0
  -26.5670  -15.9270   19.9080 H   0  0  0  0  0  0  0  0  0  0  0  0
  -30.4050  -21.7460   16.5810 C   0  0  0  0  0  1  0  0  0  0  0  0
  -28.0110  -20.7410   16.7520 C   0  0  0  0  0  1  0  0  0  0  0  0
  -29.3290  -21.0870   17.4700 C   0  0  0  0  0  3  0  0  0  0  0  0
  -28.1240  -25.3950   20.4240 C   0  0  0  0  0  2  0  0  0  0  0  0
  -28.2870  -26.5930   19.5270 O   0  0  0  0  0  0  0  0  0  0  0  0
  -24.7080  -31.8410   23.0890 C   0  0  0  0  0  0  0  0  0  0  0  0
  -27.2210  -27.5210   19.5950 C   0  0  0  0  0  0  0  0  0  0  0  0
  -23.4420  -30.5240   21.4310 C   0  0  0  0  0  3  0  0  0  0  0  0
  -24.8400  -29.1100   19.8150 C   0  0  0  0  0  0  0  0  0  0  0  0
  -25.9630  -30.9100   21.1250 C   0  0  0  0  0  2  0  0  0  0  0  0
  -26.0360  -29.5760   20.3800 C   0  0  0  0  0  0  0  0  0  0  0  0
  -27.2330  -28.7940   20.2600 C   0  0  0  0  0  3  0  0  0  0  0  0
  -26.0070  -27.1340   18.9920 C   0  0  0  0  0  3  0  0  0  0  0  0
  -24.8310  -27.8990   19.1060 C   0  0  0  0  0  3  0  0  0  0  0  0
  -23.5900  -29.9510   19.9970 C   0  0  0  0  0  2  0  0  0  0  0  0
  -24.7270  -31.1060   21.9380 N   0  0  0  0  0  0  0  0  0  0  0  0
  -23.6510  -32.0530   23.7030 O   0  0  0  0  0  0  0  0  0  0  0  0
  -22.8570  -29.4300   22.3570 C   0  0  0  0  0  0  0  0  0  0  0  0
  -21.5350  -29.1990   22.2650 N   0  0  0  0  0  0  0  0  0  0  0  0
  -23.5900  -28.7950   23.1190 O   0  0  0  0  0  0  0  0  0  0  0  0
  -20.9990  -29.7660   21.6240 H   0  0  0  0  0  0  0  0  0  0  0  0
  -18.2410  -27.7910   22.7860 C   0  0  0  0  0  0  0  0  0  0  0  0
  -20.7870  -28.1850   23.0120 C   0  0  0  0  0  3  0  0  0  0  0  0
  -20.9540  -26.7870   22.3730 C   0  0  0  0  0  2  0  0  0  0  0  0
  -19.8490  -26.4460   21.3700 C   0  0  0  0  0  2  0  0  0  0  0  0
  -18.4770  -26.4850   22.0480 C   0  0  0  0  0  2  0  0  0  0  0  0
  -19.3260  -28.5980   23.2250 C   0  0  0  0  0  0  0  0  0  0  0  0
  -19.0500  -29.8190   23.8770 C   0  0  0  0  0  3  0  0  0  0  0  0
  -17.7230  -30.2370   24.0930 C   0  0  0  0  0  3  0  0  0  0  0  0
  -16.6540  -29.4290   23.6690 C   0  0  0  0  0  3  0  0  0  0  0  0
  -16.9140  -28.2080   23.0220 C   0  0  0  0  0  3  0  0  0  0  0  0
  -26.0090  -32.4650   23.6800 C   0  0  0  0  0  3  0  0  0  0  0  0
  -25.7010  -33.8480   24.0740 N   0  0  0  0  0  0  0  0  0  0  0  0
  -26.0030  -34.9320   23.3470 C   0  0  0  0  0  0  0  0  0  0  0  0
  -26.6390  -34.8740   22.2920 O   0  0  0  0  0  0  0  0  0  0  0  0
  -25.1310  -33.9660   24.8980 H   0  0  0  0  0  0  0  0  0  0  0  0
  -24.2560  -36.7290   23.1180 C   0  0  0  0  0  1  0  0  0  0  0  0
  -25.5250  -36.2990   23.8750 C   0  0  0  0  0  3  0  0  0  0  0  0
  -27.6740  -37.1690   24.6850 C   0  0  0  0  0  1  0  0  0  0  0  0
  -26.5490  -37.3610   23.7730 N   0  0  0  0  0  0  0  0  0  0  0  0
  -26.1420  -38.2740   23.9590 H   0  0  0  0  0  0  0  0  0  0  0  0
  -26.5850  -31.6540   24.9060 C   0  0  1  0  0  0  0  0  0  0  0  0
  -25.5350  -31.3620   26.0040 C   0  0  0  0  0  1  0  0  0  0  0  0
  -27.1700  -30.3000   24.4430 C   0  0  0  0  0  1  0  0  0  0  0  0
  -27.7480  -32.4410   25.5540 C   0  0  0  0  0  1  0  0  0  0  0  0
  1  7  1  0
  2  3  1  0
  3 55  1  0
  3  1  2  0
  4  1  1  0
  4  9  1  0
  5  2  2  0
  5  6  1  0
  6  4  2  0
  8  2  1  0
 10 23  1  0
 11 16  1  0
 12 13  1  0
 12 11  1  0
 14 13  1  0
 14 27  1  0
 14 15  1  0
 16 10  1  0
 16 15  1  0
 17 10  2  0
 19 21  1  0
 20 23  1  0
 20 18  1  0
 22  6  1  0
 22 18  1  0
 22 19  1  0
 23 21  1  0
 24 25  2  0
 25 44  1  0
 26 25  1  0
 26 29  1  0
 27 28  1  0
 27 24  1  0
 28 26  2  0
 29 30  1  0
 30 31  2  0
 32 35  1  0
 32 31  1  0
 33 32  2  0
 34 33  1  0
 34 29  2  0
 35 36  1  0
 36 41  2  0
 36 37  1  0
 37 38  2  0
 38 39  1  0
 39 43  1  0
 40 39  2  0
 41 40  1  0
 42 41  1  0
 44 45  1  0
 45 48  1  0
 45 47  1  0
 46 44  2  0
 49 24  1  0
 49 50  1  0
 51 49  1  0
 52 54  1  0
 53 54  1  0
 54  5  1  0
 56 58  1  0
 56 55  1  0
 57 68  2  0
 58 63  1  0
 59 67  1  0
 59 69  1  0
 60 66  1  0
 60 62  1  0
 61 67  1  0
 62 61  1  0
 63 62  2  0
 64 65  1  0
 64 58  2  0
 65 60  2  0
 66 59  1  0
 67 57  1  0
 69 71  2  0
 70 69  1  0
 72 70  1  0
 73 82  2  0
 73 78  1  0
 74 70  1  0
 74 78  1  0
 75 74  1  0
 76 77  1  0
 76 75  1  0
 77 73  1  0
 78 79  2  0
 79 80  1  0
 81 80  2  0
 82 81  1  0
 83 57  1  0
 83 84  1  0
 83 93  1  0
 84 87  1  0
 85 89  1  0
 85 84  1  0
 86 85  2  0
 89 88  1  0
 91 89  1  0
 91 92  1  0
 91 90  1  0
 93 96  1  1
 93 94  1  0
 95 93  1  0
M  ISO  4  10 100  23 100  55 101  56 101
M  END
>  <TORSDO>  (64) 
F 18

>  <SCORE>  (64) 
-12.976

>  <name>  (64) 
64

>  <ligand_id>  (64) 
64

>  <original_smiles>  (64) 
[H]c1c([H])c([H])c2c(c1[H])C([H])([H])C([H])([H])C([H])([H])C2([H])N([H])C(=O)C1([H])N(C(=O)C([H])(N([H])C(=O)C([H])(N([H])C([H])([H])[H])C([H])([H])[H])C(C([H])([H])[H])(C([H])([H])[H])C([H])([H])[H])C([H])([H])c2c([H])c(OC([H])([H])c3c(C([H])([H])[H])c(C([H])([H])[H])c(N4C([H])([H])C([H])([H])N(C(=O)N5C([H])([H])C([H])([H])C([H])([H])C([H])(n6nc(-c7c([H])c([H])c(Oc8c([H])c([H])c(F)c([H])c8F)c([H])c7[H])c(C(=O)N([H])[H])c6N([H])[H])C5([H])[H])C([H])([H])C4([H])[H])c(C([H])(C([H])([H])[H])C([H])([H])[H])c3C([H])([H])[H])c([H])c([H])c2C1([H])[H]

>  <smiles>  (64) 
[H]c1c([H])c([H])c2c(c1[H])C([H])([H])C([H])([H])C([H])([H])C2([H])N([H])C(=O)C1([H])N(C(=O)C([H])(N([H])C(=O)C([H])(N([H])C([H])([H])[H])C([H])([H])[H])C(C([H])([H])[H])(C([H])([H])[H])C([H])([H])[H])C([H])([H])c2c([H])c(OC([H])([H])c3c(C([H])([H])[H])c(C([H])([H])[H])c(N4C([H])([H])C([H])([H])N(C(=O)N5C([H])([H])C([H])([H])C([H])([H])C([H])(n6nc(-c7c([H])c([H])c(Oc8c([H])c([H])c(F)c([H])c8F)c([H])c7[H])c(C(=O)N([H])[H])c6N([H])[H])C5([H])[H])C([H])([H])C4([H])[H])c(C([H])(C([H])([H])[H])C([H])([H])[H])c3C([H])([H])[H])c([H])c([H])c2C1([H])[H]

$$$$
65:0:0
     RDKit          3D

100109  0  0  1  0  0  0  0  0999 V2000
  -29.9280  -23.9930   19.9700 C   0  0  0  0  0  3  0  0  0  0  0  0
  -32.3510  -23.8320   20.0100 C   0  0  0  0  0  3  0  0  0  0  0  0
  -31.0900  -23.2900   20.3320 C   0  0  0  0  0  0  0  0  0  0  0  0
  -30.0160  -25.2440   19.3330 C   0  0  0  0  0  0  0  0  0  0  0  0
  -31.2810  -25.8110   19.0500 C   0  0  0  0  0  0  0  0  0  0  0  0
  -32.4590  -25.0790   19.3460 C   0  0  0  0  0  0  0  0  0  0  0  0
  -31.3800  -27.2060   18.4370 C   0  0  0  0  0  1  0  0  0  0  0  0
  -31.7960  -21.8820   22.3220 C   0  0  0  0  0  1  0  0  0  0  0  0
  -30.9560  -21.9400   21.0260 C   0  0  0  0  0  3  0  0  0  0  0  0
  -30.4850  -20.8650   18.7070 C   0  0  0  0  0  1  0  0  0  0  0  0
  -31.2400  -20.7640   20.0600 C   0  0  0  0  0  3  0  0  0  0  0  0
  -29.4680  -17.5790   21.4290 C   0  0  0  0  0  2  0  0  0  0  0  0
  -31.9000  -17.1430   21.1900 C   0  0  0  0  0  2  0  0  0  0  0  0
  -29.6250  -18.9340   20.7090 C   0  0  0  0  0  2  0  0  0  0  0  0
  -32.1000  -18.4780   20.4500 C   0  0  0  0  0  2  0  0  0  0  0  0
  -30.4990  -16.6270   20.8220 C   0  0  0  0  0  3  0  0  0  0  0  0
  -31.0290  -19.4680   20.7700 N   0  0  1  0  0  4  0  0  0  0  0  0
  -31.1910  -19.6950   21.7430 H   0  0  0  0  0  0  0  0  0  0  0  0
  -30.6830  -14.2990   20.1800 C   0  0  0  0  0  0  0  0  0  0  0  0
  -30.1830  -12.2810   18.8880 C   0  0  0  0  0  2  0  0  0  0  0  0
  -29.1780  -12.6130   17.7670 C   0  0  0  0  0  2  0  0  0  0  0  0
  -27.7430  -12.4450   18.2910 C   0  0  0  0  0  2  0  0  0  0  0  0
  -27.5040  -13.2230   19.6120 C   0  0  0  0  0  3  0  0  0  0  0  0
  -28.6160  -12.9190   20.6440 C   0  0  0  0  0  2  0  0  0  0  0  0
  -29.9280  -13.1820   20.0230 N   0  0  0  0  0  0  0  0  0  0  0  0
  -31.6660  -14.5410   19.4740 O   0  0  0  0  0  0  0  0  0  0  0  0
  -30.2500  -15.2040   21.0660 N   0  0  0  0  0  0  0  0  0  0  0  0
  -29.4990  -14.9430   21.6880 H   0  0  0  0  0  0  0  0  0  0  0  0
  -25.1440  -13.8180   20.4470 C   0  0  0  0  0  0  0  0  0  0  0  0
  -24.0960  -13.0380   20.8630 C   0  0  0  0  0  0  0  0  0  0  0  0
  -24.5610  -11.6890   20.7940 C   0  0  0  0  0  0  0  0  0  0  0  0
  -26.1770  -12.9420   20.1530 N   0  0  0  0  0  0  0  0  0  0  0  0
  -25.8310  -11.6540   20.4140 N   0  0  0  0  0  0  0  0  0  0  0  0
  -23.8520  -10.4200   21.0080 C   0  0  0  0  0  0  0  0  0  0  0  0
  -24.3300   -9.4480   21.9150 C   0  0  0  0  0  3  0  0  0  0  0  0
  -23.6190   -8.2440   22.1160 C   0  0  0  0  0  3  0  0  0  0  0  0
  -22.4170   -8.0050   21.4090 C   0  0  0  0  0  0  0  0  0  0  0  0
  -21.9590   -8.9640   20.4870 C   0  0  0  0  0  3  0  0  0  0  0  0
  -22.6720  -10.1580   20.2850 C   0  0  0  0  0  3  0  0  0  0  0  0
  -21.6760   -6.8550   21.5200 O   0  0  0  0  0  0  0  0  0  0  0  0
  -21.6680   -6.1100   22.6730 C   0  0  0  0  0  0  0  0  0  0  0  0
  -21.2920   -6.6660   23.9150 C   0  0  0  0  0  3  0  0  0  0  0  0
  -21.2350   -5.8500   25.0630 C   0  0  0  0  0  3  0  0  0  0  0  0
  -21.5410   -4.4790   24.9700 C   0  0  0  0  0  0  0  0  0  0  0  0
  -21.9100   -3.9240   23.7320 C   0  0  0  0  0  3  0  0  0  0  0  0
  -21.9710   -4.7370   22.5860 C   0  0  0  0  0  0  0  0  0  0  0  0
  -22.3080   -4.1940   21.3920 F   0  0  0  0  0  0  0  0  0  0  0  0
  -21.4770   -3.6900   26.0660 F   0  0  0  0  0  0  0  0  0  0  0  0
  -22.7160  -13.5060   21.2220 C   0  0  0  0  0  0  0  0  0  0  0  0
  -22.0450  -12.7920   22.1200 N   0  0  0  0  0  0  0  0  0  0  0  0
  -22.2460  -14.5400   20.7520 O   0  0  0  0  0  0  0  0  0  0  0  0
  -22.4400  -11.9530   22.5180 H   0  0  0  0  0  0  0  0  0  0  0  0
  -21.1240  -13.0850   22.4090 H   0  0  0  0  0  0  0  0  0  0  0  0
  -25.3040  -15.1880   20.2790 N   0  0  0  0  0  0  0  0  0  0  0  0
  -24.5580  -15.8600   20.4250 H   0  0  0  0  0  0  0  0  0  0  0  0
  -26.1570  -15.6180   19.9440 H   0  0  0  0  0  0  0  0  0  0  0  0
  -34.7320  -24.6930   18.7280 C   0  0  0  0  0  1  0  0  0  0  0  0
  -33.6710  -25.6100   18.9710 O   0  0  0  0  0  0  0  0  0  0  0  0
  -28.7200  -25.9630   19.0310 C   0  0  0  0  0  2  0  0  0  0  0  0
  -28.4230  -26.8240   20.1130 O   0  0  0  0  0  0  0  0  0  0  0  0
  -24.6170  -31.8800   23.2390 C   0  0  0  0  0  0  0  0  0  0  0  0
  -27.2230  -27.4880   20.1060 C   0  0  0  0  0  0  0  0  0  0  0  0
  -23.3860  -30.4890   21.6020 C   0  0  0  0  0  3  0  0  0  0  0  0
  -24.8220  -28.9650   20.1500 C   0  0  0  0  0  0  0  0  0  0  0  0
  -25.9050  -30.8550   21.3750 C   0  0  0  0  0  2  0  0  0  0  0  0
  -25.9790  -29.4890   20.7370 C   0  0  0  0  0  0  0  0  0  0  0  0
  -27.1780  -28.7520   20.7240 C   0  0  0  0  0  3  0  0  0  0  0  0
  -26.0450  -26.9620   19.5270 C   0  0  0  0  0  3  0  0  0  0  0  0
  -24.8470  -27.6970   19.5460 C   0  0  0  0  0  3  0  0  0  0  0  0
  -23.5770  -29.8200   20.2150 C   0  0  0  0  0  2  0  0  0  0  0  0
  -24.6540  -31.0910   22.1300 N   0  0  0  0  0  0  0  0  0  0  0  0
  -23.5420  -32.1500   23.7930 O   0  0  0  0  0  0  0  0  0  0  0  0
  -22.7520  -29.4580   22.5630 C   0  0  0  0  0  0  0  0  0  0  0  0
  -21.4280  -29.2660   22.4380 N   0  0  0  0  0  0  0  0  0  0  0  0
  -23.4440  -28.8370   23.3720 O   0  0  0  0  0  0  0  0  0  0  0  0
  -20.9330  -29.8170   21.7520 H   0  0  0  0  0  0  0  0  0  0  0  0
  -18.0600  -28.0490   22.9200 C   0  0  0  0  0  0  0  0  0  0  0  0
  -20.6160  -28.3250   23.2100 C   0  0  0  0  0  3  0  0  0  0  0  0
  -20.7330  -26.8930   22.6410 C   0  0  0  0  0  2  0  0  0  0  0  0
  -19.6410  -26.5580   21.6210 C   0  0  0  0  0  2  0  0  0  0  0  0
  -18.2510  -26.6980   22.2520 C   0  0  0  0  0  2  0  0  0  0  0  0
  -19.1710  -28.8200   23.3550 C   0  0  0  0  0  0  0  0  0  0  0  0
  -18.9410  -30.0870   23.9340 C   0  0  0  0  0  3  0  0  0  0  0  0
  -17.6330  -30.5820   24.0850 C   0  0  0  0  0  3  0  0  0  0  0  0
  -16.5350  -29.8060   23.6740 C   0  0  0  0  0  3  0  0  0  0  0  0
  -16.7500  -28.5420   23.0960 C   0  0  0  0  0  3  0  0  0  0  0  0
  -25.9120  -32.5010   23.8470 C   0  0  0  0  0  3  0  0  0  0  0  0
  -25.6130  -33.8960   24.1910 N   0  0  0  0  0  0  0  0  0  0  0  0
  -25.9230  -34.9520   23.4270 C   0  0  0  0  0  0  0  0  0  0  0  0
  -26.5690  -34.8570   22.3790 O   0  0  0  0  0  0  0  0  0  0  0  0
  -25.0370  -34.0450   25.0060 H   0  0  0  0  0  0  0  0  0  0  0  0
  -24.1730  -36.7300   23.1260 C   0  0  0  0  0  1  0  0  0  0  0  0
  -25.4380  -36.3350   23.9040 C   0  0  0  0  0  3  0  0  0  0  0  0
  -27.5890  -37.2230   24.6770 C   0  0  0  0  0  1  0  0  0  0  0  0
  -26.4570  -37.3970   23.7710 N   0  0  0  0  0  0  0  0  0  0  0  0
  -26.0480  -38.3120   23.9440 H   0  0  0  0  0  0  0  0  0  0  0  0
  -26.4490  -31.7150   25.1060 C   0  0  1  0  0  0  0  0  0  0  0  0
  -25.3740  -31.4630   26.1880 C   0  0  0  0  0  1  0  0  0  0  0  0
  -27.0240  -30.3420   24.6850 C   0  0  0  0  0  1  0  0  0  0  0  0
  -27.6120  -32.5000   25.7570 C   0  0  0  0  0  1  0  0  0  0  0  0
  1  3  1  0
  2  3  2  0
  3  9  1  0
  4  1  2  0
  5  4  1  0
  5  6  2  0
  6  2  1  0
  7  5  1  0
  9  8  1  0
 11 10  1  0
 11 17  1  0
 11  9  1  0
 14 17  1  0
 14 12  1  0
 15 17  1  0
 15 13  1  0
 16 27  1  0
 16 13  1  0
 16 12  1  0
 17 18  1  1
 19 27  1  0
 20 25  1  0
 21 22  1  0
 21 20  1  0
 23 22  1  0
 23 32  1  0
 23 24  1  0
 25 19  1  0
 25 24  1  0
 26 19  2  0
 27 28  1  0
 29 30  2  0
 30 49  1  0
 31 30  1  0
 31 34  1  0
 32 33  1  0
 32 29  1  0
 33 31  2  0
 34 35  1  0
 35 36  2  0
 37 40  1  0
 37 36  1  0
 38 37  2  0
 39 38  1  0
 39 34  2  0
 40 41  1  0
 41 42  1  0
 42 43  2  0
 44 43  1  0
 44 48  1  0
 45 44  2  0
 46 41  2  0
 46 45  1  0
 47 46  1  0
 49 50  1  0
 50 53  1  0
 50 52  1  0
 51 49  2  0
 54 55  1  0
 54 29  1  0
 56 54  1  0
 57 58  1  0
 58  6  1  0
 59  4  1  0
 59 60  1  0
 61 72  2  0
 62 60  1  0
 62 67  1  0
 63 71  1  0
 63 73  1  0
 64 70  1  0
 64 66  1  0
 65 71  1  0
 66 65  1  0
 67 66  2  0
 68 69  1  0
 68 62  2  0
 69 64  2  0
 70 63  1  0
 71 61  1  0
 73 75  2  0
 74 73  1  0
 76 74  1  0
 77 86  2  0
 77 82  1  0
 78 74  1  0
 78 82  1  0
 79 78  1  0
 80 81  1  0
 80 79  1  0
 81 77  1  0
 82 83  2  0
 83 84  1  0
 85 84  2  0
 86 85  1  0
 87 61  1  0
 87 88  1  0
 87 97  1  0
 88 91  1  0
 89 93  1  0
 89 88  1  0
 90 89  2  0
 93 92  1  0
 95 93  1  0
 95 96  1  0
 95 94  1  0
 97100  1  1
 97 98  1  0
 99 97  1  0
M  ISO  4  19 100  27 100  59 101  60 101
M  END
>  <TORSDO>  (65) 
F 21

>  <SCORE>  (65) 
-13.009

>  <name>  (65) 
65

>  <ligand_id>  (65) 
65

>  <original_smiles>  (65) 
[H]c1c([H])c([H])c2c(c1[H])C([H])([H])C([H])([H])C([H])([H])C2([H])N([H])C(=O)C1([H])N(C(=O)C([H])(N([H])C(=O)C([H])(N([H])C([H])([H])[H])C([H])([H])[H])C(C([H])([H])[H])(C([H])([H])[H])C([H])([H])[H])C([H])([H])c2c([H])c(OC([H])([H])c3c([H])c(C([H])(C([H])([H])[H])C([H])(C([H])([H])[H])[N+]4([H])C([H])([H])C([H])([H])C([H])(N([H])C(=O)N5C([H])([H])C([H])([H])C([H])([H])C([H])(n6nc(-c7c([H])c([H])c(Oc8c([H])c([H])c(F)c([H])c8F)c([H])c7[H])c(C(=O)N([H])[H])c6N([H])[H])C5([H])[H])C([H])([H])C4([H])[H])c([H])c(OC([H])([H])[H])c3C([H])([H])[H])c([H])c([H])c2C1([H])[H]

>  <smiles>  (65) 
[H]c1c([H])c([H])c2c(c1[H])C([H])([H])C([H])([H])C([H])([H])C2([H])N([H])C(=O)C1([H])N(C(=O)C([H])(N([H])C(=O)C([H])(N([H])C([H])([H])[H])C([H])([H])[H])C(C([H])([H])[H])(C([H])([H])[H])C([H])([H])[H])C([H])([H])c2c([H])c(OC([H])([H])c3c([H])c(C([H])(C([H])([H])[H])C([H])(C([H])([H])[H])[N+]4([H])C([H])([H])C([H])([H])C([H])(N([H])C(=O)N5C([H])([H])C([H])([H])C([H])([H])C([H])(n6nc(-c7c([H])c([H])c(Oc8c([H])c([H])c(F)c([H])c8F)c([H])c7[H])c(C(=O)N([H])[H])c6N([H])[H])C5([H])[H])C([H])([H])C4([H])[H])c([H])c(OC([H])([H])[H])c3C([H])([H])[H])c([H])c([H])c2C1([H])[H]

$$$$
66:0:0
     RDKit          3D

 96105  0  0  1  0  0  0  0  0999 V2000
  -30.7380  -22.4800   19.3670 C   0  0  0  0  0  2  0  0  0  0  0  0
  -29.4880  -20.9130   20.8420 C   0  0  0  0  0  2  0  0  0  0  0  0
  -30.8140  -21.2980   18.3890 C   0  0  0  0  0  2  0  0  0  0  0  0
  -29.8690  -19.6340   19.9020 C   0  0  1  0  0  0  0  0  0  0  0  0
  -28.6630  -19.3370   18.9930 C   0  0  0  0  0  1  0  0  0  0  0  0
  -29.6140  -22.3560   20.3260 N   0  0  2  0  0  4  0  0  0  0  0  0
  -30.9690  -20.0560   19.0860 O   0  0  0  0  0  0  0  0  0  0  0  0
  -29.9840  -22.8200   21.1450 H   0  0  0  0  0  0  0  0  0  0  0  0
  -30.5520  -17.0250   19.7620 C   0  0  0  0  0  3  0  0  0  0  0  0
  -30.7140  -16.7360   22.4970 C   0  0  0  0  0  3  0  0  0  0  0  0
  -30.9070  -15.7080   20.2820 C   0  0  0  0  0  0  0  0  0  0  0  0
  -30.2560  -18.2090   20.5670 C   0  0  0  0  0  0  0  0  0  0  0  0
  -31.0720  -15.6380   21.6930 C   0  0  0  0  0  0  0  0  0  0  0  0
  -30.2710  -17.9740   21.9760 C   0  0  0  0  0  0  0  0  0  0  0  0
  -31.6670  -14.4350   22.4220 C   0  0  0  0  0  1  0  0  0  0  0  0
  -29.8090  -18.9840   23.0160 C   0  0  0  0  0  1  0  0  0  0  0  0
  -31.2520  -14.4830   19.3700 C   0  0  0  0  0  0  0  0  0  0  0  0
  -30.5920  -12.4010   18.1380 C   0  0  0  0  0  2  0  0  0  0  0  0
  -29.4940  -12.7180   17.0980 C   0  0  0  0  0  2  0  0  0  0  0  0
  -28.0970  -12.6400   17.7410 C   0  0  0  0  0  2  0  0  0  0  0  0
  -28.0230  -13.4110   19.0810 C   0  0  0  0  0  3  0  0  0  0  0  0
  -29.2140  -13.0800   19.9990 C   0  0  0  0  0  2  0  0  0  0  0  0
  -30.4580  -13.3580   19.2660 N   0  0  0  0  0  0  0  0  0  0  0  0
  -32.2730  -14.5700   18.6800 O   0  0  0  0  0  0  0  0  0  0  0  0
  -25.8370  -14.1510   20.2050 C   0  0  0  0  0  0  0  0  0  0  0  0
  -24.7740  -13.4460   20.7010 C   0  0  0  0  0  0  0  0  0  0  0  0
  -25.1040  -12.0650   20.5330 C   0  0  0  0  0  0  0  0  0  0  0  0
  -26.7470  -13.2050   19.7620 N   0  0  0  0  0  0  0  0  0  0  0  0
  -26.3230  -11.9410   20.0220 N   0  0  0  0  0  0  0  0  0  0  0  0
  -24.3050  -10.8560   20.7770 C   0  0  0  0  0  0  0  0  0  0  0  0
  -24.7430   -9.8440   21.6580 C   0  0  0  0  0  3  0  0  0  0  0  0
  -23.9470   -8.7020   21.8910 C   0  0  0  0  0  3  0  0  0  0  0  0
  -22.6980   -8.5640   21.2410 C   0  0  0  0  0  0  0  0  0  0  0  0
  -22.2760   -9.5630   20.3460 C   0  0  0  0  0  3  0  0  0  0  0  0
  -23.0720  -10.6970   20.1120 C   0  0  0  0  0  3  0  0  0  0  0  0
  -21.8700   -7.4760   21.3840 O   0  0  0  0  0  0  0  0  0  0  0  0
  -21.8040   -6.7720   22.5580 C   0  0  0  0  0  0  0  0  0  0  0  0
  -21.4790   -7.3950   23.7840 C   0  0  0  0  0  3  0  0  0  0  0  0
  -21.3530   -6.6210   24.9550 C   0  0  0  0  0  3  0  0  0  0  0  0
  -21.5430   -5.2280   24.9020 C   0  0  0  0  0  0  0  0  0  0  0  0
  -21.8620   -4.6060   23.6830 C   0  0  0  0  0  3  0  0  0  0  0  0
  -21.9890   -5.3760   22.5140 C   0  0  0  0  0  0  0  0  0  0  0  0
  -22.2760   -4.7680   21.3370 F   0  0  0  0  0  0  0  0  0  0  0  0
  -21.4150   -4.4830   26.0260 F   0  0  0  0  0  0  0  0  0  0  0  0
  -23.4850  -14.0170   21.2130 C   0  0  0  0  0  0  0  0  0  0  0  0
  -22.8740  -13.3680   22.1980 N   0  0  0  0  0  0  0  0  0  0  0  0
  -23.0340  -15.0740   20.7720 O   0  0  0  0  0  0  0  0  0  0  0  0
  -23.2540  -12.5120   22.5720 H   0  0  0  0  0  0  0  0  0  0  0  0
  -22.0160  -13.7350   22.5850 H   0  0  0  0  0  0  0  0  0  0  0  0
  -26.1000  -15.5110   20.0740 N   0  0  0  0  0  0  0  0  0  0  0  0
  -25.4420  -16.2250   20.3650 H   0  0  0  0  0  0  0  0  0  0  0  0
  -26.9580  -15.8940   19.6960 H   0  0  0  0  0  0  0  0  0  0  0  0
  -28.4060  -23.2820   20.0530 C   0  0  0  0  0  2  0  0  0  0  0  0
  -29.3740  -24.8210   21.9310 C   0  0  0  0  0  1  0  0  0  0  0  0
  -28.2920  -24.6970   20.8490 C   0  0  0  0  0  3  0  0  0  0  0  0
  -28.3490  -26.0170   20.1480 O   0  0  0  0  0  0  0  0  0  0  0  0
  -24.6110  -31.5520   23.0030 C   0  0  0  0  0  0  0  0  0  0  0  0
  -27.2350  -26.8730   20.1400 C   0  0  0  0  0  0  0  0  0  0  0  0
  -23.4280  -30.1260   21.3720 C   0  0  0  0  0  3  0  0  0  0  0  0
  -24.8920  -28.5160   20.0210 C   0  0  0  0  0  0  0  0  0  0  0  0
  -25.9730  -30.4120   21.2330 C   0  0  0  0  0  2  0  0  0  0  0  0
  -26.0540  -29.0120   20.6300 C   0  0  0  0  0  0  0  0  0  0  0  0
  -27.2330  -28.2040   20.6690 C   0  0  0  0  0  3  0  0  0  0  0  0
  -26.0530  -26.4270   19.5160 C   0  0  0  0  0  3  0  0  0  0  0  0
  -24.8950  -27.2310   19.4530 C   0  0  0  0  0  3  0  0  0  0  0  0
  -23.6640  -29.4080   20.0150 C   0  0  0  0  0  2  0  0  0  0  0  0
  -24.6890  -30.7160   21.9260 N   0  0  0  0  0  0  0  0  0  0  0  0
  -23.5200  -31.8540   23.5080 O   0  0  0  0  0  0  0  0  0  0  0  0
  -22.7320  -29.1430   22.3420 C   0  0  0  0  0  0  0  0  0  0  0  0
  -21.3970  -29.0320   22.2380 N   0  0  0  0  0  0  0  0  0  0  0  0
  -23.3920  -28.4820   23.1480 O   0  0  0  0  0  0  0  0  0  0  0  0
  -20.9260  -29.6150   21.5600 H   0  0  0  0  0  0  0  0  0  0  0  0
  -17.9660  -28.0610   22.8520 C   0  0  0  0  0  0  0  0  0  0  0  0
  -20.5450  -28.1340   23.0210 C   0  0  0  0  0  3  0  0  0  0  0  0
  -20.5210  -26.7150   22.4070 C   0  0  0  0  0  2  0  0  0  0  0  0
  -19.3600  -26.4970   21.4330 C   0  0  0  0  0  2  0  0  0  0  0  0
  -18.0190  -26.7210   22.1380 C   0  0  0  0  0  2  0  0  0  0  0  0
  -19.1520  -28.7320   23.2520 C   0  0  0  0  0  0  0  0  0  0  0  0
  -19.0480  -29.9910   23.8820 C   0  0  0  0  0  3  0  0  0  0  0  0
  -17.7900  -30.5770   24.1160 C   0  0  0  0  0  3  0  0  0  0  0  0
  -16.6180  -29.9010   23.7310 C   0  0  0  0  0  3  0  0  0  0  0  0
  -16.7080  -28.6460   23.1040 C   0  0  0  0  0  3  0  0  0  0  0  0
  -25.8870  -32.1860   23.6400 C   0  0  0  0  0  3  0  0  0  0  0  0
  -26.4260  -31.3800   24.8860 C   0  0  1  0  0  0  0  0  0  0  0  0
  -25.3460  -31.0920   25.9540 C   0  0  0  0  0  1  0  0  0  0  0  0
  -27.0240  -30.0240   24.4430 C   0  0  0  0  0  1  0  0  0  0  0  0
  -27.5710  -32.1690   25.5640 C   0  0  0  0  0  1  0  0  0  0  0  0
  -25.5550  -33.5660   24.0220 N   0  0  0  0  0  0  0  0  0  0  0  0
  -25.8710  -34.6520   23.3040 C   0  0  0  0  0  0  0  0  0  0  0  0
  -26.5410  -34.5990   22.2700 O   0  0  0  0  0  0  0  0  0  0  0  0
  -24.9590  -33.6790   24.8290 H   0  0  0  0  0  0  0  0  0  0  0  0
  -24.1150  -36.4330   23.0210 C   0  0  0  0  0  1  0  0  0  0  0  0
  -25.3630  -36.0150   23.8160 C   0  0  0  0  0  3  0  0  0  0  0  0
  -27.4840  -36.8990   24.6830 C   0  0  0  0  0  1  0  0  0  0  0  0
  -26.3800  -37.0870   23.7450 N   0  0  0  0  0  0  0  0  0  0  0  0
  -25.9590  -37.9930   23.9280 H   0  0  0  0  0  0  0  0  0  0  0  0
  1  6  1  0
  3  7  1  0
  3  1  1  0
  4  5  1  6
  4 12  1  0
  4  2  1  0
  6  2  1  0
  6  8  1  1
  7  4  1  0
  9 11  2  0
  9 12  1  0
 11 13  1  0
 12 14  2  0
 13 15  1  0
 13 10  2  0
 14 10  1  0
 14 16  1  0
 17 11  1  0
 18 23  1  0
 19 20  1  0
 19 18  1  0
 21 20  1  0
 21 28  1  0
 21 22  1  0
 23 17  1  0
 23 22  1  0
 24 17  2  0
 25 26  2  0
 26 45  1  0
 27 26  1  0
 27 30  1  0
 28 29  1  0
 28 25  1  0
 29 27  2  0
 30 31  1  0
 31 32  2  0
 33 36  1  0
 33 32  1  0
 34 33  2  0
 35 34  1  0
 35 30  2  0
 36 37  1  0
 37 38  1  0
 38 39  2  0
 40 39  1  0
 40 44  1  0
 41 40  2  0
 42 37  2  0
 42 41  1  0
 43 42  1  0
 45 46  1  0
 46 48  1  0
 46 49  1  0
 47 45  2  0
 50 25  1  0
 50 51  1  0
 52 50  1  0
 53  6  1  0
 53 55  1  0
 55 54  1  0
 56 55  1  0
 57 68  2  0
 58 56  1  0
 58 63  1  0
 59 67  1  0
 59 69  1  0
 60 62  1  0
 61 67  1  0
 62 63  2  0
 62 61  1  0
 64 58  2  0
 65 64  1  0
 65 60  2  0
 66 60  1  0
 66 59  1  0
 67 57  1  0
 69 71  2  0
 70 69  1  0
 72 70  1  0
 73 82  2  0
 73 78  1  0
 74 70  1  0
 74 78  1  0
 75 74  1  0
 76 77  1  0
 76 75  1  0
 77 73  1  0
 78 79  2  0
 79 80  1  0
 81 80  2  0
 82 81  1  0
 83 57  1  0
 83 88  1  0
 83 84  1  0
 84 87  1  1
 84 85  1  0
 86 84  1  0
 88 91  1  0
 89 93  1  0
 89 88  1  0
 90 89  2  0
 93 92  1  0
 95 93  1  0
 95 96  1  0
 95 94  1  0
M  ISO  4  11 100  17 100  55 101  56 101
M  END
>  <TORSDO>  (66) 
F 19

>  <SCORE>  (66) 
-9.408

>  <name>  (66) 
66

>  <ligand_id>  (66) 
66

>  <original_smiles>  (66) 
[H]c1c([H])c([H])c2c(c1[H])C([H])([H])C([H])([H])C([H])([H])C2([H])N([H])C(=O)C1([H])N(C(=O)C([H])(N([H])C(=O)C([H])(N([H])C([H])([H])[H])C([H])([H])[H])C(C([H])([H])[H])(C([H])([H])[H])C([H])([H])[H])C([H])([H])c2c([H])c(OC([H])(C([H])([H])[H])C([H])([H])[N+]3([H])C([H])([H])C([H])([H])OC(c4c([H])c(C(=O)N5C([H])([H])C([H])([H])C([H])([H])C([H])(n6nc(-c7c([H])c([H])c(Oc8c([H])c([H])c(F)c([H])c8F)c([H])c7[H])c(C(=O)N([H])[H])c6N([H])[H])C5([H])[H])c(C([H])([H])[H])c([H])c4C([H])([H])[H])(C([H])([H])[H])C3([H])[H])c([H])c([H])c2C1([H])[H]

>  <smiles>  (66) 
[H]c1c([H])c([H])c2c(c1[H])C([H])([H])C([H])([H])C([H])([H])C2([H])N([H])C(=O)C1([H])N(C(=O)C([H])(N([H])C(=O)C([H])(N([H])C([H])([H])[H])C([H])([H])[H])C(C([H])([H])[H])(C([H])([H])[H])C([H])([H])[H])C([H])([H])c2c([H])c(OC([H])(C([H])([H])[H])C([H])([H])[N+]3([H])C([H])([H])C([H])([H])OC(c4c([H])c(C(=O)N5C([H])([H])C([H])([H])C([H])([H])C([H])(n6nc(-c7c([H])c([H])c(Oc8c([H])c([H])c(F)c([H])c8F)c([H])c7[H])c(C(=O)N([H])[H])c6N([H])[H])C5([H])[H])c(C([H])([H])[H])c([H])c4C([H])([H])[H])(C([H])([H])[H])C3([H])[H])c([H])c([H])c2C1([H])[H]

$$$$
67:0:0
     RDKit          3D

 96106  0  0  1  0  0  0  0  0999 V2000
  -30.1130  -23.1820   20.5490 C   0  0  0  0  0  3  0  0  0  0  0  0
  -32.3670  -21.9780   19.4010 C   0  0  0  0  0  3  0  0  0  0  0  0
  -30.8790  -23.9270   19.6210 C   0  0  0  0  0  0  0  0  0  0  0  0
  -30.4660  -21.8590   20.9140 C   0  0  0  0  0  0  0  0  0  0  0  0
  -32.0390  -23.3140   19.0780 C   0  0  0  0  0  0  0  0  0  0  0  0
  -31.5800  -21.2350   20.3020 C   0  0  0  0  0  0  0  0  0  0  0  0
  -32.9760  -24.0880   18.1660 C   0  0  0  0  0  1  0  0  0  0  0  0
  -28.7510  -20.0140   21.5800 C   0  0  0  0  0  2  0  0  0  0  0  0
  -28.1930  -21.3140   22.1020 C   0  0  0  0  0  2  0  0  0  0  0  0
  -29.6910  -21.1320   21.9810 C   0  0  2  0  0  0  0  0  0  0  0  0
  -30.5340  -20.9850   23.2330 C   0  0  0  0  0  1  0  0  0  0  0  0
  -29.6320  -25.5260   17.9880 C   0  0  0  0  0  2  0  0  0  0  0  0
  -30.4890  -25.3460   19.2230 C   0  0  0  0  0  3  0  0  0  0  0  0
  -29.0890  -25.9500   19.3280 C   0  0  0  0  0  3  0  0  0  0  0  0
  -29.0050  -27.3870   19.4270 O   0  0  0  0  0  0  0  0  0  0  0  0
  -24.5800  -31.6180   23.0670 C   0  0  0  0  0  0  0  0  0  0  0  0
  -27.7390  -27.9470   19.4790 C   0  0  0  0  0  0  0  0  0  0  0  0
  -23.5370  -30.2320   21.3040 C   0  0  0  0  0  3  0  0  0  0  0  0
  -25.1490  -29.0860   19.6920 C   0  0  0  0  0  0  0  0  0  0  0  0
  -25.9770  -30.9770   21.1020 C   0  0  0  0  0  2  0  0  0  0  0  0
  -26.2390  -29.7080   20.3120 C   0  0  0  0  0  0  0  0  0  0  0  0
  -27.5340  -29.1490   20.1990 C   0  0  0  0  0  3  0  0  0  0  0  0
  -26.6270  -27.3490   18.8420 C   0  0  0  0  0  3  0  0  0  0  0  0
  -25.3400  -27.9080   18.9490 C   0  0  0  0  0  3  0  0  0  0  0  0
  -23.7960  -29.7410   19.8550 C   0  0  0  0  0  2  0  0  0  0  0  0
  -24.7160  -30.9560   21.8840 N   0  0  0  0  0  0  0  0  0  0  0  0
  -23.4900  -31.6720   23.6530 O   0  0  0  0  0  0  0  0  0  0  0  0
  -23.0710  -29.0340   22.1620 C   0  0  0  0  0  0  0  0  0  0  0  0
  -21.8030  -28.6290   21.9880 N   0  0  0  0  0  0  0  0  0  0  0  0
  -23.8490  -28.4720   22.9380 O   0  0  0  0  0  0  0  0  0  0  0  0
  -21.2280  -29.1450   21.3390 H   0  0  0  0  0  0  0  0  0  0  0  0
  -18.7260  -26.7440   22.2140 C   0  0  0  0  0  0  0  0  0  0  0  0
  -21.1590  -27.4970   22.6550 C   0  0  0  0  0  3  0  0  0  0  0  0
  -21.5830  -26.1580   22.0070 C   0  0  0  0  0  2  0  0  0  0  0  0
  -20.6210  -25.6870   20.9140 C   0  0  0  0  0  2  0  0  0  0  0  0
  -19.2090  -25.5060   21.4780 C   0  0  0  0  0  2  0  0  0  0  0  0
  -19.6420  -27.6880   22.7520 C   0  0  0  0  0  0  0  0  0  0  0  0
  -19.1410  -28.8410   23.3940 C   0  0  0  0  0  3  0  0  0  0  0  0
  -17.7540  -29.0560   23.5090 C   0  0  0  0  0  3  0  0  0  0  0  0
  -16.8510  -28.1110   22.9900 C   0  0  0  0  0  3  0  0  0  0  0  0
  -17.3390  -26.9580   22.3480 C   0  0  0  0  0  3  0  0  0  0  0  0
  -25.7830  -32.3630   23.7310 C   0  0  0  0  0  3  0  0  0  0  0  0
  -25.3220  -33.7070   24.1040 N   0  0  0  0  0  0  0  0  0  0  0  0
  -25.6130  -34.8260   23.4250 C   0  0  0  0  0  0  0  0  0  0  0  0
  -26.3690  -34.8400   22.4480 O   0  0  0  0  0  0  0  0  0  0  0  0
  -24.6560  -33.7660   24.8610 H   0  0  0  0  0  0  0  0  0  0  0  0
  -23.7750  -36.4880   22.9940 C   0  0  0  0  0  1  0  0  0  0  0  0
  -24.9610  -36.1360   23.9060 C   0  0  0  0  0  3  0  0  0  0  0  0
  -26.9300  -37.1230   24.9920 C   0  0  0  0  0  1  0  0  0  0  0  0
  -25.8990  -37.2800   23.9680 N   0  0  0  0  0  0  0  0  0  0  0  0
  -25.3980  -38.1440   24.1570 H   0  0  0  0  0  0  0  0  0  0  0  0
  -26.3670  -31.6050   24.9860 C   0  0  1  0  0  0  0  0  0  0  0  0
  -25.2940  -31.1810   26.0160 C   0  0  0  0  0  1  0  0  0  0  0  0
  -27.1260  -30.3310   24.5490 C   0  0  0  0  0  1  0  0  0  0  0  0
  -27.3970  -32.5040   25.7110 C   0  0  0  0  0  1  0  0  0  0  0  0
  -31.9270  -19.9570   20.6900 O   0  0  0  0  0  0  0  0  0  0  0  0
  -32.0690  -18.9460   19.6870 C   0  0  0  0  0  2  0  0  0  0  0  0
  -32.9100  -17.8030   20.3000 C   0  0  0  0  0  2  0  0  0  0  0  0
  -32.8060  -15.3850   19.6480 C   0  0  0  0  0  0  0  0  0  0  0  0
  -32.3390  -13.0880   18.8810 C   0  0  0  0  0  2  0  0  0  0  0  0
  -31.3820  -13.1400   17.6740 C   0  0  0  0  0  2  0  0  0  0  0  0
  -29.9110  -13.1800   18.1340 C   0  0  0  0  0  2  0  0  0  0  0  0
  -29.6550  -14.2330   19.2470 C   0  0  0  0  0  3  0  0  0  0  0  0
  -30.7240  -14.1340   20.3560 C   0  0  0  0  0  2  0  0  0  0  0  0
  -32.0500  -14.2580   19.7220 N   0  0  0  0  0  0  0  0  0  0  0  0
  -33.8870  -15.4380   19.0570 O   0  0  0  0  0  0  0  0  0  0  0  0
  -32.2760  -16.4810   20.2070 N   0  0  0  0  0  0  0  0  0  0  0  0
  -31.3730  -16.3750   20.6400 H   0  0  0  0  0  0  0  0  0  0  0  0
  -27.3960  -15.1230   20.1020 C   0  0  0  0  0  0  0  0  0  0  0  0
  -26.2490  -14.4850   20.4900 C   0  0  0  0  0  0  0  0  0  0  0  0
  -26.5130  -13.0870   20.3660 C   0  0  0  0  0  0  0  0  0  0  0  0
  -28.2980  -14.1210   19.7790 N   0  0  0  0  0  0  0  0  0  0  0  0
  -27.7700  -12.8870   19.9920 N   0  0  0  0  0  0  0  0  0  0  0  0
  -25.6260  -11.9290   20.5330 C   0  0  0  0  0  0  0  0  0  0  0  0
  -25.8720  -10.9460   21.5160 C   0  0  0  0  0  3  0  0  0  0  0  0
  -24.9960   -9.8510   21.6720 C   0  0  0  0  0  3  0  0  0  0  0  0
  -23.8550   -9.7330   20.8440 C   0  0  0  0  0  0  0  0  0  0  0  0
  -23.6270  -10.7000   19.8510 C   0  0  0  0  0  3  0  0  0  0  0  0
  -24.5030  -11.7870   19.6940 C   0  0  0  0  0  3  0  0  0  0  0  0
  -22.9620   -8.6920   20.9050 O   0  0  0  0  0  0  0  0  0  0  0  0
  -22.5830   -8.1370   22.1010 C   0  0  0  0  0  0  0  0  0  0  0  0
  -21.9670   -8.9020   23.1160 C   0  0  0  0  0  3  0  0  0  0  0  0
  -21.5350   -8.2800   24.3040 C   0  0  0  0  0  3  0  0  0  0  0  0
  -21.7040   -6.8930   24.4730 C   0  0  0  0  0  0  0  0  0  0  0  0
  -22.3080   -6.1280   23.4600 C   0  0  0  0  0  3  0  0  0  0  0  0
  -22.7450   -6.7490   22.2770 C   0  0  0  0  0  0  0  0  0  0  0  0
  -23.3090   -6.0020   21.2960 F   0  0  0  0  0  0  0  0  0  0  0  0
  -21.2820   -6.2910   25.6100 F   0  0  0  0  0  0  0  0  0  0  0  0
  -24.9470  -15.1330   20.8600 C   0  0  0  0  0  0  0  0  0  0  0  0
  -24.1830  -14.5090   21.7490 N   0  0  0  0  0  0  0  0  0  0  0  0
  -24.6220  -16.2280   20.3990 O   0  0  0  0  0  0  0  0  0  0  0  0
  -24.4590  -13.6180   22.1410 H   0  0  0  0  0  0  0  0  0  0  0  0
  -23.3090  -14.9220   22.0410 H   0  0  0  0  0  0  0  0  0  0  0  0
  -27.7430  -16.4660   19.9790 N   0  0  0  0  0  0  0  0  0  0  0  0
  -27.0840  -17.2150   20.1630 H   0  0  0  0  0  0  0  0  0  0  0  0
  -28.6300  -16.7970   19.6230 H   0  0  0  0  0  0  0  0  0  0  0  0
  1  4  1  0
  2  6  1  0
  3  1  2  0
  4 10  1  0
  5  2  2  0
  5  3  1  0
  6 56  1  0
  6  4  2  0
  7  5  1  0
  8 10  1  0
  8  9  1  0
 10  9  1  0
 10 11  1  1
 12 13  1  0
 12 14  1  0
 13 14  1  0
 13  3  1  0
 14 15  1  0
 15 17  1  0
 16 27  2  0
 17 22  1  0
 18 26  1  0
 18 28  1  0
 19 25  1  0
 19 21  1  0
 20 26  1  0
 21 20  1  0
 22 21  2  0
 23 24  1  0
 23 17  2  0
 24 19  2  0
 25 18  1  0
 26 16  1  0
 28 30  2  0
 29 28  1  0
 31 29  1  0
 32 41  2  0
 32 37  1  0
 33 29  1  0
 33 37  1  0
 34 33  1  0
 35 36  1  0
 35 34  1  0
 36 32  1  0
 37 38  2  0
 38 39  1  0
 40 39  2  0
 41 40  1  0
 42 16  1  0
 42 43  1  0
 42 52  1  0
 43 46  1  0
 44 48  1  0
 44 43  1  0
 45 44  2  0
 48 47  1  0
 48 50  1  0
 50 51  1  0
 50 49  1  0
 52 55  1  1
 52 53  1  0
 54 52  1  0
 57 58  1  0
 57 56  1  0
 59 65  1  0
 59 67  1  0
 60 65  1  0
 61 62  1  0
 61 60  1  0
 63 62  1  0
 63 72  1  0
 63 64  1  0
 65 64  1  0
 66 59  2  0
 67 58  1  0
 67 68  1  0
 69 70  2  0
 70 89  1  0
 71 70  1  0
 71 74  1  0
 72 73  1  0
 72 69  1  0
 73 71  2  0
 74 75  1  0
 75 76  2  0
 77 80  1  0
 77 76  1  0
 78 77  2  0
 79 78  1  0
 79 74  2  0
 80 81  1  0
 81 86  2  0
 81 82  1  0
 82 83  2  0
 83 84  1  0
 84 88  1  0
 85 84  2  0
 86 85  1  0
 87 86  1  0
 89 90  1  0
 90 93  1  0
 90 92  1  0
 91 89  2  0
 94 69  1  0
 94 95  1  0
 96 94  1  0
M  ISO  4  14 101  15 101  59 100  67 100
M  END
>  <TORSDO>  (67) 
F 21

>  <SCORE>  (67) 
-6.885

>  <name>  (67) 
67

>  <ligand_id>  (67) 
67

>  <original_smiles>  (67) 
[H]c1c([H])c([H])c2c(c1[H])C([H])([H])C([H])([H])C([H])([H])C2([H])N([H])C(=O)C1([H])N(C(=O)C([H])(N([H])C(=O)C([H])(N([H])C([H])([H])[H])C([H])([H])[H])C(C([H])([H])[H])(C([H])([H])[H])C([H])([H])[H])C([H])([H])c2c([H])c(OC3([H])C([H])([H])C3([H])c3c([H])c(C4(C([H])([H])[H])C([H])([H])C4([H])[H])c(OC([H])([H])C([H])([H])N([H])C(=O)N4C([H])([H])C([H])([H])C([H])([H])C([H])(n5nc(-c6c([H])c([H])c(Oc7c([H])c([H])c(F)c([H])c7F)c([H])c6[H])c(C(=O)N([H])[H])c5N([H])[H])C4([H])[H])c([H])c3C([H])([H])[H])c([H])c([H])c2C1([H])[H]

>  <smiles>  (67) 
[H]c1c([H])c([H])c2c(c1[H])C([H])([H])C([H])([H])C([H])([H])C2([H])N([H])C(=O)C1([H])N(C(=O)C([H])(N([H])C(=O)C([H])(N([H])C([H])([H])[H])C([H])([H])[H])C(C([H])([H])[H])(C([H])([H])[H])C([H])([H])[H])C([H])([H])c2c([H])c(OC3([H])C([H])([H])C3([H])c3c([H])c(C4(C([H])([H])[H])C([H])([H])C4([H])[H])c(OC([H])([H])C([H])([H])N([H])C(=O)N4C([H])([H])C([H])([H])C([H])([H])C([H])(n5nc(-c6c([H])c([H])c(Oc7c([H])c([H])c(F)c([H])c7F)c([H])c6[H])c(C(=O)N([H])[H])c5N([H])[H])C4([H])[H])c([H])c3C([H])([H])[H])c([H])c([H])c2C1([H])[H]

$$$$
68:0:0
     RDKit          3D

 96105  0  0  1  0  0  0  0  0999 V2000
  -31.1940  -22.5740   19.9320 C   0  0  0  0  0  3  0  0  0  0  0  0
  -29.8820  -22.2010   19.5800 C   0  0  0  0  0  0  0  0  0  0  0  0
  -28.9480  -23.2360   19.2980 C   0  0  0  0  0  0  0  0  0  0  0  0
  -31.5380  -23.9340   19.9760 C   0  0  0  0  0  0  0  0  0  0  0  0
  -29.4150  -24.5800   19.2920 C   0  0  0  0  0  0  0  0  0  0  0  0
  -27.4840  -22.9300   18.9900 C   0  0  0  0  0  1  0  0  0  0  0  0
  -32.9220  -24.3830   20.3950 C   0  0  0  0  0  1  0  0  0  0  0  0
  -30.6760  -24.9090   19.6460 N   0  0  0  0  0  0  0  0  0  0  0  0
  -29.5620  -20.7040   19.4550 C   0  0  0  0  0  2  0  0  0  0  0  0
  -29.7520  -20.6370   21.9650 C   0  0  0  0  0  1  0  0  0  0  0  0
  -29.3840  -19.9120   20.7190 N   0  0  2  0  0  4  0  0  0  0  0  0
  -28.3860  -19.7850   20.7990 H   0  0  0  0  0  0  0  0  0  0  0  0
  -31.0100  -14.4500   20.0770 C   0  0  0  0  0  0  0  0  0  0  0  0
  -30.5730  -12.3420   18.8960 C   0  0  0  0  0  2  0  0  0  0  0  0
  -29.5680  -12.6190   17.7590 C   0  0  0  0  0  2  0  0  0  0  0  0
  -28.1220  -12.4930   18.2780 C   0  0  0  0  0  2  0  0  0  0  0  0
  -27.8790  -13.2900   19.5880 C   0  0  0  0  0  3  0  0  0  0  0  0
  -28.9990  -13.0360   20.6210 C   0  0  0  0  0  2  0  0  0  0  0  0
  -30.2870  -13.3070   19.9660 N   0  0  0  0  0  0  0  0  0  0  0  0
  -32.1620  -14.5570   19.6390 O   0  0  0  0  0  0  0  0  0  0  0  0
  -29.3440  -17.7410   19.4380 C   0  0  0  0  0  2  0  0  0  0  0  0
  -29.8710  -17.6150   21.8300 C   0  0  0  0  0  2  0  0  0  0  0  0
  -30.1410  -16.4570   19.1710 C   0  0  0  0  0  2  0  0  0  0  0  0
  -30.6210  -16.2760   21.6080 C   0  0  0  0  0  2  0  0  0  0  0  0
  -29.9780  -18.5390   20.5930 C   0  0  0  0  0  3  0  0  0  0  0  0
  -30.3000  -15.5740   20.3470 N   0  0  0  0  0  0  0  0  0  0  0  0
  -25.5460  -13.9000   20.4830 C   0  0  0  0  0  0  0  0  0  0  0  0
  -24.4870  -13.1290   20.8820 C   0  0  0  0  0  0  0  0  0  0  0  0
  -24.9190  -11.7730   20.7610 C   0  0  0  0  0  0  0  0  0  0  0  0
  -26.5560  -13.0150   20.1440 N   0  0  0  0  0  0  0  0  0  0  0  0
  -26.1870  -11.7270   20.3700 N   0  0  0  0  0  0  0  0  0  0  0  0
  -24.1820  -10.5150   20.9380 C   0  0  0  0  0  0  0  0  0  0  0  0
  -24.5790   -9.5540   21.8950 C   0  0  0  0  0  3  0  0  0  0  0  0
  -23.8430   -8.3610   22.0600 C   0  0  0  0  0  3  0  0  0  0  0  0
  -22.6960   -8.1190   21.2670 C   0  0  0  0  0  0  0  0  0  0  0  0
  -22.3180   -9.0680   20.3010 C   0  0  0  0  0  3  0  0  0  0  0  0
  -23.0540  -10.2530   20.1340 C   0  0  0  0  0  3  0  0  0  0  0  0
  -21.9350   -6.9770   21.3400 O   0  0  0  0  0  0  0  0  0  0  0  0
  -21.7410   -6.3180   22.5260 C   0  0  0  0  0  0  0  0  0  0  0  0
  -21.1270   -6.9420   23.6350 C   0  0  0  0  0  3  0  0  0  0  0  0
  -20.8840   -6.2060   24.8110 C   0  0  0  0  0  3  0  0  0  0  0  0
  -21.2430   -4.8460   24.8800 C   0  0  0  0  0  0  0  0  0  0  0  0
  -21.8480   -4.2220   23.7750 C   0  0  0  0  0  3  0  0  0  0  0  0
  -22.0940   -4.9550   22.6010 C   0  0  0  0  0  0  0  0  0  0  0  0
  -22.6580   -4.3440   21.5330 F   0  0  0  0  0  0  0  0  0  0  0  0
  -21.0020   -4.1360   26.0060 F   0  0  0  0  0  0  0  0  0  0  0  0
  -23.1200  -13.6170   21.2650 C   0  0  0  0  0  0  0  0  0  0  0  0
  -22.4350  -12.8970   22.1460 N   0  0  0  0  0  0  0  0  0  0  0  0
  -22.6680  -14.6720   20.8200 O   0  0  0  0  0  0  0  0  0  0  0  0
  -22.8130  -12.0420   22.5310 H   0  0  0  0  0  0  0  0  0  0  0  0
  -21.5210  -13.2050   22.4440 H   0  0  0  0  0  0  0  0  0  0  0  0
  -25.7310  -15.2750   20.3610 N   0  0  0  0  0  0  0  0  0  0  0  0
  -24.9950  -15.9440   20.5570 H   0  0  0  0  0  0  0  0  0  0  0  0
  -26.5820  -15.7050   20.0240 H   0  0  0  0  0  0  0  0  0  0  0  0
  -28.5630  -25.7650   18.8310 C   0  0  0  0  0  2  0  0  0  0  0  0
  -28.2860  -26.6860   19.8920 O   0  0  0  0  0  0  0  0  0  0  0  0
  -24.4990  -31.7660   23.1010 C   0  0  0  0  0  0  0  0  0  0  0  0
  -27.0990  -27.3860   19.8910 C   0  0  0  0  0  0  0  0  0  0  0  0
  -23.2700  -30.3950   21.4510 C   0  0  0  0  0  3  0  0  0  0  0  0
  -24.7000  -28.8860   19.9800 C   0  0  0  0  0  0  0  0  0  0  0  0
  -25.7940  -30.7540   21.2280 C   0  0  0  0  0  2  0  0  0  0  0  0
  -25.8660  -29.3960   20.5630 C   0  0  0  0  0  0  0  0  0  0  0  0
  -27.0640  -28.6500   20.5230 C   0  0  0  0  0  3  0  0  0  0  0  0
  -25.9020  -26.8750   19.3340 C   0  0  0  0  0  3  0  0  0  0  0  0
  -24.7120  -27.6210   19.3690 C   0  0  0  0  0  3  0  0  0  0  0  0
  -23.4590  -29.7440   20.0570 C   0  0  0  0  0  2  0  0  0  0  0  0
  -24.5390  -30.9850   21.9850 N   0  0  0  0  0  0  0  0  0  0  0  0
  -23.4250  -32.0300   23.6580 O   0  0  0  0  0  0  0  0  0  0  0  0
  -22.6310  -29.3560   22.3990 C   0  0  0  0  0  0  0  0  0  0  0  0
  -21.3050  -29.1780   22.2840 N   0  0  0  0  0  0  0  0  0  0  0  0
  -23.3230  -28.7140   23.1930 O   0  0  0  0  0  0  0  0  0  0  0  0
  -20.8080  -29.7480   21.6130 H   0  0  0  0  0  0  0  0  0  0  0  0
  -17.9320  -27.9900   22.8010 C   0  0  0  0  0  0  0  0  0  0  0  0
  -20.4940  -28.2290   23.0460 C   0  0  0  0  0  3  0  0  0  0  0  0
  -20.5830  -26.8100   22.4400 C   0  0  0  0  0  2  0  0  0  0  0  0
  -19.4660  -26.5130   21.4350 C   0  0  0  0  0  2  0  0  0  0  0  0
  -18.0930  -26.6530   22.0990 C   0  0  0  0  0  2  0  0  0  0  0  0
  -19.0610  -28.7380   23.2320 C   0  0  0  0  0  0  0  0  0  0  0  0
  -18.8560  -29.9920   23.8480 C   0  0  0  0  0  3  0  0  0  0  0  0
  -17.5570  -30.4980   24.0380 C   0  0  0  0  0  3  0  0  0  0  0  0
  -16.4430  -29.7460   23.6240 C   0  0  0  0  0  3  0  0  0  0  0  0
  -16.6320  -28.4950   23.0110 C   0  0  0  0  0  3  0  0  0  0  0  0
  -25.7930  -32.3820   23.7150 C   0  0  0  0  0  3  0  0  0  0  0  0
  -26.3330  -31.5810   24.9630 C   0  0  1  0  0  0  0  0  0  0  0  0
  -25.2570  -31.3140   26.0420 C   0  0  0  0  0  1  0  0  0  0  0  0
  -26.9120  -30.2160   24.5240 C   0  0  0  0  0  1  0  0  0  0  0  0
  -27.4920  -32.3620   25.6270 C   0  0  0  0  0  1  0  0  0  0  0  0
  -25.4900  -33.7720   24.0820 N   0  0  0  0  0  0  0  0  0  0  0  0
  -25.8250  -34.8420   23.3480 C   0  0  0  0  0  0  0  0  0  0  0  0
  -26.4950  -34.7620   22.3160 O   0  0  0  0  0  0  0  0  0  0  0  0
  -24.8950  -33.9080   24.8850 H   0  0  0  0  0  0  0  0  0  0  0  0
  -24.1190  -36.6590   23.0170 C   0  0  0  0  0  1  0  0  0  0  0  0
  -25.3400  -36.2190   23.8400 C   0  0  0  0  0  3  0  0  0  0  0  0
  -27.4590  -37.0620   24.7470 C   0  0  0  0  0  1  0  0  0  0  0  0
  -26.3840  -37.2650   23.7810 N   0  0  0  0  0  0  0  0  0  0  0  0
  -25.9810  -38.1850   23.9430 H   0  0  0  0  0  0  0  0  0  0  0  0
  1  4  1  0
  2  1  2  0
  3  2  1  0
  4  7  1  0
  5  3  2  0
  5  8  1  0
  6  3  1  0
  8  4  2  0
  9  2  1  0
  9 11  1  0
 11 12  1  1
 11 10  1  0
 13 26  1  0
 14 19  1  0
 15 16  1  0
 15 14  1  0
 17 16  1  0
 17 30  1  0
 17 18  1  0
 19 13  1  0
 19 18  1  0
 20 13  2  0
 21 25  1  0
 23 21  1  0
 23 26  1  0
 24 22  1  0
 25 11  1  0
 25 22  1  0
 26 24  1  0
 27 28  2  0
 28 47  1  0
 29 28  1  0
 29 32  1  0
 30 31  1  0
 30 27  1  0
 31 29  2  0
 32 33  1  0
 33 34  2  0
 35 38  1  0
 35 34  1  0
 36 35  2  0
 37 36  1  0
 37 32  2  0
 38 39  1  0
 39 44  2  0
 39 40  1  0
 40 41  2  0
 41 42  1  0
 42 46  1  0
 43 42  2  0
 44 43  1  0
 45 44  1  0
 47 48  1  0
 48 51  1  0
 48 50  1  0
 49 47  2  0
 52 27  1  0
 52 53  1  0
 54 52  1  0
 55  5  1  0
 55 56  1  0
 57 68  2  0
 58 56  1  0
 58 63  1  0
 59 67  1  0
 59 69  1  0
 60 66  1  0
 60 62  1  0
 61 67  1  0
 62 61  1  0
 63 62  2  0
 64 65  1  0
 64 58  2  0
 65 60  2  0
 66 59  1  0
 67 57  1  0
 69 71  2  0
 70 69  1  0
 72 70  1  0
 73 82  2  0
 73 78  1  0
 74 70  1  0
 74 78  1  0
 75 74  1  0
 76 77  1  0
 76 75  1  0
 77 73  1  0
 78 79  2  0
 79 80  1  0
 81 80  2  0
 82 81  1  0
 83 57  1  0
 83 88  1  0
 83 84  1  0
 84 87  1  1
 84 85  1  0
 86 84  1  0
 88 91  1  0
 89 93  1  0
 89 88  1  0
 90 89  2  0
 93 92  1  0
 95 93  1  0
 95 96  1  0
 95 94  1  0
M  ISO  4  13 100  26 100  55 101  56 101
M  END
>  <TORSDO>  (68) 
F 19

>  <SCORE>  (68) 
-13.486

>  <name>  (68) 
68

>  <ligand_id>  (68) 
68

>  <original_smiles>  (68) 
[H]c1c([H])c([H])c2c(c1[H])C([H])([H])C([H])([H])C([H])([H])C2([H])N([H])C(=O)C1([H])N(C(=O)C([H])(N([H])C(=O)C([H])(N([H])C([H])([H])[H])C([H])([H])[H])C(C([H])([H])[H])(C([H])([H])[H])C([H])([H])[H])C([H])([H])c2c([H])c(OC([H])([H])c3nc(C([H])([H])[H])c([H])c(C([H])([H])[N+]([H])(C([H])([H])[H])C4([H])C([H])([H])C([H])([H])N(C(=O)N5C([H])([H])C([H])([H])C([H])([H])C([H])(n6nc(-c7c([H])c([H])c(Oc8c([H])c([H])c(F)c([H])c8F)c([H])c7[H])c(C(=O)N([H])[H])c6N([H])[H])C5([H])[H])C([H])([H])C4([H])[H])c3C([H])([H])[H])c([H])c([H])c2C1([H])[H]

>  <smiles>  (68) 
[H]c1c([H])c([H])c2c(c1[H])C([H])([H])C([H])([H])C([H])([H])C2([H])N([H])C(=O)C1([H])N(C(=O)C([H])(N([H])C(=O)C([H])(N([H])C([H])([H])[H])C([H])([H])[H])C(C([H])([H])[H])(C([H])([H])[H])C([H])([H])[H])C([H])([H])c2c([H])c(OC([H])([H])c3nc(C([H])([H])[H])c([H])c(C([H])([H])[N+]([H])(C([H])([H])[H])C4([H])C([H])([H])C([H])([H])N(C(=O)N5C([H])([H])C([H])([H])C([H])([H])C([H])(n6nc(-c7c([H])c([H])c(Oc8c([H])c([H])c(F)c([H])c8F)c([H])c7[H])c(C(=O)N([H])[H])c6N([H])[H])C5([H])[H])C([H])([H])C4([H])[H])c3C([H])([H])[H])c([H])c([H])c2C1([H])[H]

$$$$
69:0:0
     RDKit          3D

 97106  0  0  1  0  0  0  0  0999 V2000
  -30.6230  -22.4430   22.7380 C   0  0  0  0  0  2  0  0  0  0  0  0
  -30.4610  -23.8920   22.2430 C   0  0  0  0  0  2  0  0  0  0  0  0
  -29.6960  -21.6170   21.8410 C   0  0  0  0  0  3  0  0  0  0  0  0
  -29.6970  -22.4380   20.5330 C   0  0  0  0  0  3  0  0  0  0  0  0
  -28.5630  -22.0610   19.5640 C   0  0  0  0  0  1  0  0  0  0  0  0
  -29.5970  -23.8390   21.0360 N   0  0  2  0  0  4  0  0  0  0  0  0
  -28.6590  -23.9500   21.3940 H   0  0  0  0  0  0  0  0  0  0  0  0
  -29.7950  -19.2680   20.7080 C   0  0  0  0  0  3  0  0  0  0  0  0
  -30.9750  -18.1630   22.9900 C   0  0  0  0  0  3  0  0  0  0  0  0
  -30.0020  -20.0980   21.8450 C   0  0  0  0  0  0  0  0  0  0  0  0
  -30.1800  -17.8970   20.6960 C   0  0  0  0  0  0  0  0  0  0  0  0
  -30.5790  -19.5120   23.0030 C   0  0  0  0  0  0  0  0  0  0  0  0
  -30.8150  -17.3600   21.8480 C   0  0  0  0  0  0  0  0  0  0  0  0
  -30.8220  -20.3040   24.2810 C   0  0  0  0  0  1  0  0  0  0  0  0
  -31.3830  -15.9490   21.9040 C   0  0  0  0  0  1  0  0  0  0  0  0
  -29.9730  -17.0680   19.4140 C   0  0  0  0  0  2  0  0  0  0  0  0
  -30.3180  -14.6150   19.1060 C   0  0  0  0  0  0  0  0  0  0  0  0
  -30.2180  -12.2220   18.5070 C   0  0  0  0  0  2  0  0  0  0  0  0
  -29.1550  -12.0000   17.4110 C   0  0  0  0  0  2  0  0  0  0  0  0
  -27.7620  -11.7920   18.0360 C   0  0  0  0  0  2  0  0  0  0  0  0
  -27.4160  -12.8690   19.0980 C   0  0  0  0  0  3  0  0  0  0  0  0
  -28.5840  -13.0620   20.0930 C   0  0  0  0  0  2  0  0  0  0  0  0
  -29.7950  -13.3750   19.3160 N   0  0  0  0  0  0  0  0  0  0  0  0
  -31.3280  -14.8070   18.4230 O   0  0  0  0  0  0  0  0  0  0  0  0
  -29.6150  -15.6520   19.5980 N   0  0  0  0  0  0  0  0  0  0  0  0
  -28.7770  -15.4470   20.1170 H   0  0  0  0  0  0  0  0  0  0  0  0
  -25.1630  -13.4150   20.2170 C   0  0  0  0  0  0  0  0  0  0  0  0
  -24.1800  -12.6150   20.7320 C   0  0  0  0  0  0  0  0  0  0  0  0
  -24.6420  -11.2720   20.5770 C   0  0  0  0  0  0  0  0  0  0  0  0
  -26.1650  -12.5580   19.7860 N   0  0  0  0  0  0  0  0  0  0  0  0
  -25.8630  -11.2620   20.0570 N   0  0  0  0  0  0  0  0  0  0  0  0
  -23.9710   -9.9930   20.8420 C   0  0  0  0  0  0  0  0  0  0  0  0
  -24.4820   -9.0700   21.7810 C   0  0  0  0  0  3  0  0  0  0  0  0
  -23.8070   -7.8550   22.0310 C   0  0  0  0  0  3  0  0  0  0  0  0
  -22.6070   -7.5550   21.3430 C   0  0  0  0  0  0  0  0  0  0  0  0
  -22.1160   -8.4660   20.3920 C   0  0  0  0  0  3  0  0  0  0  0  0
  -22.7910   -9.6720   20.1410 C   0  0  0  0  0  3  0  0  0  0  0  0
  -21.8980   -6.3890   21.5020 O   0  0  0  0  0  0  0  0  0  0  0  0
  -21.7810   -5.7790   22.7260 C   0  0  0  0  0  0  0  0  0  0  0  0
  -21.2170   -6.4420   23.8370 C   0  0  0  0  0  3  0  0  0  0  0  0
  -21.0510   -5.7560   25.0560 C   0  0  0  0  0  3  0  0  0  0  0  0
  -21.4400   -4.4070   25.1660 C   0  0  0  0  0  0  0  0  0  0  0  0
  -21.9970   -3.7430   24.0580 C   0  0  0  0  0  3  0  0  0  0  0  0
  -22.1640   -4.4270   22.8410 C   0  0  0  0  0  0  0  0  0  0  0  0
  -22.6830   -3.7770   21.7700 F   0  0  0  0  0  0  0  0  0  0  0  0
  -21.2740   -3.7450   26.3340 F   0  0  0  0  0  0  0  0  0  0  0  0
  -22.8430  -13.0610   21.2520 C   0  0  0  0  0  0  0  0  0  0  0  0
  -22.3110  -12.3650   22.2510 N   0  0  0  0  0  0  0  0  0  0  0  0
  -22.2850  -14.0610   20.8030 O   0  0  0  0  0  0  0  0  0  0  0  0
  -22.7810  -11.5570   22.6310 H   0  0  0  0  0  0  0  0  0  0  0  0
  -21.4230  -12.6460   22.6420 H   0  0  0  0  0  0  0  0  0  0  0  0
  -25.2810  -14.7930   20.0630 N   0  0  0  0  0  0  0  0  0  0  0  0
  -24.5380  -15.4310   20.3240 H   0  0  0  0  0  0  0  0  0  0  0  0
  -26.0650  -15.2590   19.6220 H   0  0  0  0  0  0  0  0  0  0  0  0
  -29.8140  -24.9530   20.0600 C   0  0  0  0  0  2  0  0  0  0  0  0
  -28.5150  -25.7340   19.7340 C   0  0  0  0  0  2  0  0  0  0  0  0
  -28.5690  -27.1180   20.1360 O   0  0  0  0  0  0  0  0  0  0  0  0
  -24.6910  -32.0880   23.4550 C   0  0  0  0  0  0  0  0  0  0  0  0
  -27.3870  -27.8440   20.1310 C   0  0  0  0  0  0  0  0  0  0  0  0
  -23.5040  -30.7700   21.7340 C   0  0  0  0  0  3  0  0  0  0  0  0
  -24.9760  -29.3380   20.2230 C   0  0  0  0  0  0  0  0  0  0  0  0
  -26.0280  -31.1630   21.5640 C   0  0  0  0  0  2  0  0  0  0  0  0
  -26.1280  -29.8330   20.8440 C   0  0  0  0  0  0  0  0  0  0  0  0
  -27.3350  -29.0950   20.7940 C   0  0  0  0  0  3  0  0  0  0  0  0
  -26.2110  -27.3760   19.4940 C   0  0  0  0  0  3  0  0  0  0  0  0
  -25.0120  -28.1090   19.5460 C   0  0  0  0  0  3  0  0  0  0  0  0
  -23.7210  -30.1780   20.3180 C   0  0  0  0  0  2  0  0  0  0  0  0
  -24.7580  -31.3530   22.3090 N   0  0  0  0  0  0  0  0  0  0  0  0
  -23.6050  -32.3180   24.0070 O   0  0  0  0  0  0  0  0  0  0  0  0
  -22.8640  -29.6860   22.6320 C   0  0  0  0  0  0  0  0  0  0  0  0
  -21.5500  -29.4640   22.4620 N   0  0  0  0  0  0  0  0  0  0  0  0
  -23.5490  -29.0470   23.4350 O   0  0  0  0  0  0  0  0  0  0  0  0
  -21.0570  -30.0360   21.7890 H   0  0  0  0  0  0  0  0  0  0  0  0
  -18.2080  -28.1390   22.8190 C   0  0  0  0  0  0  0  0  0  0  0  0
  -20.7480  -28.4680   23.1700 C   0  0  0  0  0  3  0  0  0  0  0  0
  -20.9130  -27.0680   22.5370 C   0  0  0  0  0  2  0  0  0  0  0  0
  -19.8500  -26.7530   21.4800 C   0  0  0  0  0  2  0  0  0  0  0  0
  -18.4470  -26.8260   22.0920 C   0  0  0  0  0  2  0  0  0  0  0  0
  -19.2890  -28.9170   23.3110 C   0  0  0  0  0  0  0  0  0  0  0  0
  -19.0140  -30.1470   23.9480 C   0  0  0  0  0  3  0  0  0  0  0  0
  -17.6900  -30.6000   24.0980 C   0  0  0  0  0  3  0  0  0  0  0  0
  -16.6230  -29.8170   23.6240 C   0  0  0  0  0  3  0  0  0  0  0  0
  -16.8820  -28.5890   22.9920 C   0  0  0  0  0  3  0  0  0  0  0  0
  -25.9680  -32.6970   24.1120 C   0  0  0  0  0  3  0  0  0  0  0  0
  -26.4770  -31.8790   25.3610 C   0  0  1  0  0  0  0  0  0  0  0  0
  -25.3680  -31.5630   26.3910 C   0  0  0  0  0  1  0  0  0  0  0  0
  -27.1040  -30.5360   24.9170 C   0  0  0  0  0  1  0  0  0  0  0  0
  -27.5940  -32.6680   26.0840 C   0  0  0  0  0  1  0  0  0  0  0  0
  -25.6530  -34.0820   24.4890 N   0  0  0  0  0  0  0  0  0  0  0  0
  -25.9970  -35.1630   23.7750 C   0  0  0  0  0  0  0  0  0  0  0  0
  -26.6840  -35.0980   22.7520 O   0  0  0  0  0  0  0  0  0  0  0  0
  -25.0420  -34.2080   25.2820 H   0  0  0  0  0  0  0  0  0  0  0  0
  -24.2540  -36.9520   23.4770 C   0  0  0  0  0  1  0  0  0  0  0  0
  -25.4990  -36.5320   24.2750 C   0  0  0  0  0  3  0  0  0  0  0  0
  -27.6250  -37.4100   25.1370 C   0  0  0  0  0  1  0  0  0  0  0  0
  -26.5240  -37.5950   24.1940 N   0  0  0  0  0  0  0  0  0  0  0  0
  -26.1110  -38.5090   24.3640 H   0  0  0  0  0  0  0  0  0  0  0  0
  2  1  1  0
  3 10  1  0
  3  1  1  0
  4  5  1  0
  4  6  1  0
  4  3  1  0
  6  7  1  1
  6  2  1  0
  8 10  1  0
  9 12  1  0
 10 12  2  0
 11  8  2  0
 11 13  1  0
 12 14  1  0
 13 15  1  0
 13  9  2  0
 16 25  1  0
 16 11  1  0
 17 23  1  0
 17 25  1  0
 18 23  1  0
 19 20  1  0
 19 18  1  0
 21 20  1  0
 21 30  1  0
 21 22  1  0
 23 22  1  0
 24 17  2  0
 25 26  1  0
 27 28  2  0
 28 47  1  0
 29 28  1  0
 29 32  1  0
 30 31  1  0
 30 27  1  0
 31 29  2  0
 32 33  1  0
 33 34  2  0
 35 38  1  0
 35 34  1  0
 36 35  2  0
 37 36  1  0
 37 32  2  0
 38 39  1  0
 39 44  2  0
 39 40  1  0
 40 41  2  0
 41 42  1  0
 42 46  1  0
 43 42  2  0
 44 43  1  0
 45 44  1  0
 47 48  1  0
 48 50  1  0
 48 51  1  0
 49 47  2  0
 52 27  1  0
 52 53  1  0
 54 52  1  0
 55  6  1  0
 56 55  1  0
 56 57  1  0
 58 69  2  0
 59 57  1  0
 59 64  1  0
 60 68  1  0
 60 70  1  0
 61 67  1  0
 61 63  1  0
 62 68  1  0
 63 62  1  0
 64 63  2  0
 65 66  1  0
 65 59  2  0
 66 61  2  0
 67 60  1  0
 68 58  1  0
 70 72  2  0
 71 70  1  0
 73 71  1  0
 74 83  2  0
 74 79  1  0
 75 71  1  0
 75 79  1  0
 76 75  1  0
 77 78  1  0
 77 76  1  0
 78 74  1  0
 79 80  2  0
 80 81  1  0
 82 81  2  0
 83 82  1  0
 84 58  1  0
 84 89  1  0
 84 85  1  0
 85 88  1  1
 85 86  1  0
 87 85  1  0
 89 92  1  0
 90 94  1  0
 90 89  1  0
 91 90  2  0
 94 93  1  0
 96 94  1  0
 96 97  1  0
 96 95  1  0
M  ISO  4  17 100  25 100  56 101  57 101
M  END
>  <TORSDO>  (69) 
F 20

>  <SCORE>  (69) 
-11.139

>  <name>  (69) 
69

>  <ligand_id>  (69) 
69

>  <original_smiles>  (69) 
[H]c1c([H])c([H])c2c(c1[H])C([H])([H])C([H])([H])C([H])([H])C2([H])N([H])C(=O)C1([H])N(C(=O)C([H])(N([H])C(=O)C([H])(N([H])C([H])([H])[H])C([H])([H])[H])C(C([H])([H])[H])(C([H])([H])[H])C([H])([H])[H])C([H])([H])c2c([H])c(OC([H])([H])C([H])([H])[N+]3([H])C([H])([H])C([H])([H])C([H])(c4c([H])c(C([H])([H])N([H])C(=O)N5C([H])([H])C([H])([H])C([H])([H])C([H])(n6nc(-c7c([H])c([H])c(Oc8c([H])c([H])c(F)c([H])c8F)c([H])c7[H])c(C(=O)N([H])[H])c6N([H])[H])C5([H])[H])c(C([H])([H])[H])c([H])c4C([H])([H])[H])C3([H])C([H])([H])[H])c([H])c([H])c2C1([H])[H]

>  <smiles>  (69) 
[H]c1c([H])c([H])c2c(c1[H])C([H])([H])C([H])([H])C([H])([H])C2([H])N([H])C(=O)C1([H])N(C(=O)C([H])(N([H])C(=O)C([H])(N([H])C([H])([H])[H])C([H])([H])[H])C(C([H])([H])[H])(C([H])([H])[H])C([H])([H])[H])C([H])([H])c2c([H])c(OC([H])([H])C([H])([H])[N+]3([H])C([H])([H])C([H])([H])C([H])(c4c([H])c(C([H])([H])N([H])C(=O)N5C([H])([H])C([H])([H])C([H])([H])C([H])(n6nc(-c7c([H])c([H])c(Oc8c([H])c([H])c(F)c([H])c8F)c([H])c7[H])c(C(=O)N([H])[H])c6N([H])[H])C5([H])[H])c(C([H])([H])[H])c([H])c4C([H])([H])[H])C3([H])C([H])([H])[H])c([H])c([H])c2C1([H])[H]

$$$$
70:0:0
     RDKit          3D

 95104  0  0  1  0  0  0  0  0999 V2000
  -29.8170  -23.8270   20.9610 C   0  0  0  0  0  0  0  0  0  0  0  0
  -28.8850  -24.0280   19.9080 C   0  0  0  0  0  0  0  0  0  0  0  0
  -30.1380  -22.4950   21.3750 C   0  0  0  0  0  0  0  0  0  0  0  0
  -28.3520  -22.8410   19.3210 C   0  0  0  0  0  0  0  0  0  0  0  0
  -29.5880  -21.3830   20.6830 C   0  0  0  0  0  0  0  0  0  0  0  0
  -30.4930  -25.0280   21.6170 C   0  0  0  0  0  1  0  0  0  0  0  0
  -31.0910  -22.2710   22.5510 C   0  0  0  0  0  1  0  0  0  0  0  0
  -27.3530  -22.8940   18.1800 C   0  0  0  0  0  1  0  0  0  0  0  0
  -28.6990  -21.5730   19.6900 N   0  0  0  0  0  0  0  0  0  0  0  0
  -29.9910  -20.0640   21.0290 N   0  0  0  0  0  0  0  0  0  0  0  0
  -30.7430  -20.0140   21.7060 H   0  0  0  0  0  0  0  0  0  0  0  0
  -30.6620  -14.5890   20.0300 C   0  0  0  0  0  0  0  0  0  0  0  0
  -30.3310  -12.3900   18.9380 C   0  0  0  0  0  2  0  0  0  0  0  0
  -29.3340  -12.5670   17.7730 C   0  0  0  0  0  2  0  0  0  0  0  0
  -27.8820  -12.4250   18.2720 C   0  0  0  0  0  2  0  0  0  0  0  0
  -27.6010  -13.2600   19.5510 C   0  0  0  0  0  3  0  0  0  0  0  0
  -28.7120  -13.0600   20.6040 C   0  0  0  0  0  2  0  0  0  0  0  0
  -29.9890  -13.3980   19.9610 N   0  0  0  0  0  0  0  0  0  0  0  0
  -31.8150  -14.6830   19.5960 O   0  0  0  0  0  0  0  0  0  0  0  0
  -29.5770  -17.6940   21.7040 C   0  0  0  0  0  2  0  0  0  0  0  0
  -30.2920  -18.1660   19.3920 C   0  0  0  0  0  2  0  0  0  0  0  0
  -29.2000  -16.2300   21.3090 C   0  0  0  0  0  2  0  0  0  0  0  0
  -29.8610  -16.7190   18.9990 C   0  0  0  0  0  2  0  0  0  0  0  0
  -29.4790  -18.7510   20.5690 C   0  0  0  0  0  3  0  0  0  0  0  0
  -29.8930  -15.7290   20.1040 N   0  0  0  0  0  0  0  0  0  0  0  0
  -25.2510  -13.8660   20.3950 C   0  0  0  0  0  0  0  0  0  0  0  0
  -24.1980  -13.0940   20.8070 C   0  0  0  0  0  0  0  0  0  0  0  0
  -24.6480  -11.7400   20.7340 C   0  0  0  0  0  0  0  0  0  0  0  0
  -26.2760  -12.9810   20.0970 N   0  0  0  0  0  0  0  0  0  0  0  0
  -25.9200  -11.6970   20.3590 N   0  0  0  0  0  0  0  0  0  0  0  0
  -23.9220  -10.4810   20.9410 C   0  0  0  0  0  0  0  0  0  0  0  0
  -24.3670   -9.5180   21.8740 C   0  0  0  0  0  3  0  0  0  0  0  0
  -23.6420   -8.3220   22.0690 C   0  0  0  0  0  3  0  0  0  0  0  0
  -22.4570   -8.0830   21.3330 C   0  0  0  0  0  0  0  0  0  0  0  0
  -22.0310   -9.0340   20.3900 C   0  0  0  0  0  3  0  0  0  0  0  0
  -22.7570  -10.2210   20.1920 C   0  0  0  0  0  3  0  0  0  0  0  0
  -21.7030   -6.9390   21.4380 O   0  0  0  0  0  0  0  0  0  0  0  0
  -21.6320   -6.2280   22.6090 C   0  0  0  0  0  0  0  0  0  0  0  0
  -21.1900   -6.8170   23.8130 C   0  0  0  0  0  3  0  0  0  0  0  0
  -21.0670   -6.0340   24.9770 C   0  0  0  0  0  3  0  0  0  0  0  0
  -21.3750   -4.6600   24.9380 C   0  0  0  0  0  0  0  0  0  0  0  0
  -21.8100   -4.0700   23.7390 C   0  0  0  0  0  3  0  0  0  0  0  0
  -21.9350   -4.8520   22.5770 C   0  0  0  0  0  0  0  0  0  0  0  0
  -22.3340   -4.2730   21.4180 F   0  0  0  0  0  0  0  0  0  0  0  0
  -21.2490   -3.9040   26.0540 F   0  0  0  0  0  0  0  0  0  0  0  0
  -22.8210  -13.5780   21.1560 C   0  0  0  0  0  0  0  0  0  0  0  0
  -22.1330  -12.8770   22.0510 N   0  0  0  0  0  0  0  0  0  0  0  0
  -22.3640  -14.6120   20.6700 O   0  0  0  0  0  0  0  0  0  0  0  0
  -22.5170  -12.0420   22.4660 H   0  0  0  0  0  0  0  0  0  0  0  0
  -21.2100  -13.1840   22.3260 H   0  0  0  0  0  0  0  0  0  0  0  0
  -25.4160  -15.2360   20.2280 N   0  0  0  0  0  0  0  0  0  0  0  0
  -24.6610  -15.8940   20.3870 H   0  0  0  0  0  0  0  0  0  0  0  0
  -26.2510  -15.6730   19.8600 H   0  0  0  0  0  0  0  0  0  0  0  0
  -28.5960  -25.4470   19.2980 C   0  0  0  0  0  2  0  0  0  0  0  0
  -28.3730  -26.5850   20.1890 O   0  0  0  0  0  0  0  0  0  0  0  0
  -24.5910  -31.8750   23.2100 C   0  0  0  0  0  0  0  0  0  0  0  0
  -27.2110  -27.3560   20.1350 C   0  0  0  0  0  0  0  0  0  0  0  0
  -23.3830  -30.4740   21.5730 C   0  0  0  0  0  3  0  0  0  0  0  0
  -24.8290  -28.9280   20.1460 C   0  0  0  0  0  0  0  0  0  0  0  0
  -25.9170  -30.8070   21.3790 C   0  0  0  0  0  2  0  0  0  0  0  0
  -25.9950  -29.4300   20.7350 C   0  0  0  0  0  0  0  0  0  0  0  0
  -27.1840  -28.6520   20.7250 C   0  0  0  0  0  3  0  0  0  0  0  0
  -26.0100  -26.8810   19.5560 C   0  0  0  0  0  3  0  0  0  0  0  0
  -24.8360  -27.6560   19.5540 C   0  0  0  0  0  3  0  0  0  0  0  0
  -23.5910  -29.7980   20.1930 C   0  0  0  0  0  2  0  0  0  0  0  0
  -24.6490  -31.0690   22.1110 N   0  0  0  0  0  0  0  0  0  0  0  0
  -23.5100  -32.1510   23.7480 O   0  0  0  0  0  0  0  0  0  0  0  0
  -22.7270  -29.4550   22.5350 C   0  0  0  0  0  0  0  0  0  0  0  0
  -21.3990  -29.2840   22.4170 N   0  0  0  0  0  0  0  0  0  0  0  0
  -23.4100  -28.8230   23.3450 O   0  0  0  0  0  0  0  0  0  0  0  0
  -20.9080  -29.8470   21.7370 H   0  0  0  0  0  0  0  0  0  0  0  0
  -18.0190  -28.1120   22.9370 C   0  0  0  0  0  0  0  0  0  0  0  0
  -20.5800  -28.3500   23.1910 C   0  0  0  0  0  3  0  0  0  0  0  0
  -20.6670  -26.9200   22.6110 C   0  0  0  0  0  2  0  0  0  0  0  0
  -19.5560  -26.6090   21.6030 C   0  0  0  0  0  2  0  0  0  0  0  0
  -18.1800  -26.7630   22.2570 C   0  0  0  0  0  2  0  0  0  0  0  0
  -19.1460  -28.8640   23.3610 C   0  0  0  0  0  0  0  0  0  0  0  0
  -18.9400  -30.1280   23.9560 C   0  0  0  0  0  3  0  0  0  0  0  0
  -17.6410  -30.6400   24.1320 C   0  0  0  0  0  3  0  0  0  0  0  0
  -16.5280  -29.8840   23.7240 C   0  0  0  0  0  3  0  0  0  0  0  0
  -16.7180  -28.6220   23.1320 C   0  0  0  0  0  3  0  0  0  0  0  0
  -25.8760  -32.5060   23.8280 C   0  0  0  0  0  3  0  0  0  0  0  0
  -25.5680  -33.9050   24.1560 N   0  0  0  0  0  0  0  0  0  0  0  0
  -25.8960  -34.9560   23.3920 C   0  0  0  0  0  0  0  0  0  0  0  0
  -26.5590  -34.8500   22.3570 O   0  0  0  0  0  0  0  0  0  0  0  0
  -24.9780  -34.0620   24.9600 H   0  0  0  0  0  0  0  0  0  0  0  0
  -24.1630  -36.7450   23.0460 C   0  0  0  0  0  1  0  0  0  0  0  0
  -25.4110  -36.3450   23.8480 C   0  0  0  0  0  3  0  0  0  0  0  0
  -27.5510  -37.2350   24.6570 C   0  0  0  0  0  1  0  0  0  0  0  0
  -26.4400  -37.4000   23.7240 N   0  0  0  0  0  0  0  0  0  0  0  0
  -26.0350  -38.3200   23.8720 H   0  0  0  0  0  0  0  0  0  0  0  0
  -26.3940  -31.7370   25.1050 C   0  0  1  0  0  0  0  0  0  0  0  0
  -25.3040  -31.5010   26.1750 C   0  0  0  0  0  1  0  0  0  0  0  0
  -26.9770  -30.3580   24.7130 C   0  0  0  0  0  1  0  0  0  0  0  0
  -27.5470  -32.5310   25.7640 C   0  0  0  0  0  1  0  0  0  0  0  0
  1  3  1  0
  1  6  1  0
  2  1  2  0
  3  7  1  0
  4  9  2  0
  4  2  1  0
  5 10  1  0
  5  3  2  0
  8  4  1  0
  9  5  1  0
 10 11  1  0
 12 25  1  0
 13 18  1  0
 14 15  1  0
 14 13  1  0
 16 15  1  0
 16 29  1  0
 16 17  1  0
 18 12  1  0
 18 17  1  0
 19 12  2  0
 21 24  1  0
 22 20  1  0
 23 21  1  0
 23 25  1  0
 24 10  1  0
 24 20  1  0
 25 22  1  0
 26 27  2  0
 27 46  1  0
 28 27  1  0
 28 31  1  0
 29 30  1  0
 29 26  1  0
 30 28  2  0
 31 32  1  0
 32 33  2  0
 34 37  1  0
 34 33  1  0
 35 34  2  0
 36 35  1  0
 36 31  2  0
 37 38  1  0
 38 39  1  0
 39 40  2  0
 41 40  1  0
 41 45  1  0
 42 41  2  0
 43 38  2  0
 43 42  1  0
 44 43  1  0
 46 47  1  0
 47 50  1  0
 47 49  1  0
 48 46  2  0
 51 52  1  0
 51 26  1  0
 53 51  1  0
 54  2  1  0
 54 55  1  0
 56 67  2  0
 57 55  1  0
 57 62  1  0
 58 66  1  0
 58 68  1  0
 59 65  1  0
 59 61  1  0
 60 66  1  0
 61 60  1  0
 62 61  2  0
 63 57  2  0
 64 63  1  0
 64 59  2  0
 65 58  1  0
 66 56  1  0
 68 70  2  0
 69 68  1  0
 71 69  1  0
 72 81  2  0
 72 77  1  0
 73 69  1  0
 73 77  1  0
 74 73  1  0
 75 76  1  0
 75 74  1  0
 76 72  1  0
 77 78  2  0
 78 79  1  0
 80 79  2  0
 81 80  1  0
 82 56  1  0
 82 83  1  0
 82 92  1  0
 83 86  1  0
 84 88  1  0
 84 83  1  0
 85 84  2  0
 88 87  1  0
 90 88  1  0
 90 91  1  0
 90 89  1  0
 92 95  1  1
 92 93  1  0
 94 92  1  0
M  ISO  4  12 100  25 100  54 101  55 101
M  END
>  <TORSDO>  (70) 
F 18

>  <SCORE>  (70) 
-14.278

>  <name>  (70) 
70

>  <ligand_id>  (70) 
70

>  <original_smiles>  (70) 
[H]c1c([H])c([H])c2c(c1[H])C([H])([H])C([H])([H])C([H])([H])C2([H])N([H])C(=O)C1([H])N(C(=O)C([H])(N([H])C(=O)C([H])(N([H])C([H])([H])[H])C([H])([H])[H])C(C([H])([H])[H])(C([H])([H])[H])C([H])([H])[H])C([H])([H])c2c([H])c(OC([H])([H])c3c(C([H])([H])[H])nc(N([H])C4([H])C([H])([H])C([H])([H])N(C(=O)N5C([H])([H])C([H])([H])C([H])([H])C([H])(n6nc(-c7c([H])c([H])c(Oc8c([H])c([H])c(F)c([H])c8F)c([H])c7[H])c(C(=O)N([H])[H])c6N([H])[H])C5([H])[H])C([H])([H])C4([H])[H])c(C([H])([H])[H])c3C([H])([H])[H])c([H])c([H])c2C1([H])[H]

>  <smiles>  (70) 
[H]c1c([H])c([H])c2c(c1[H])C([H])([H])C([H])([H])C([H])([H])C2([H])N([H])C(=O)C1([H])N(C(=O)C([H])(N([H])C(=O)C([H])(N([H])C([H])([H])[H])C([H])([H])[H])C(C([H])([H])[H])(C([H])([H])[H])C([H])([H])[H])C([H])([H])c2c([H])c(OC([H])([H])c3c(C([H])([H])[H])nc(N([H])C4([H])C([H])([H])C([H])([H])N(C(=O)N5C([H])([H])C([H])([H])C([H])([H])C([H])(n6nc(-c7c([H])c([H])c(Oc8c([H])c([H])c(F)c([H])c8F)c([H])c7[H])c(C(=O)N([H])[H])c6N([H])[H])C5([H])[H])C([H])([H])C4([H])[H])c(C([H])([H])[H])c3C([H])([H])[H])c([H])c([H])c2C1([H])[H]

$$$$
71:0:0
     RDKit          3D

 95104  0  0  1  0  0  0  0  0999 V2000
  -27.6770  -22.1900   19.6830 C   0  0  0  0  0  0  0  0  0  0  0  0
  -28.7010  -23.1660   19.4970 C   0  0  0  0  0  0  0  0  0  0  0  0
  -28.0210  -20.8700   20.1100 C   0  0  0  0  0  0  0  0  0  0  0  0
  -30.0120  -22.7690   19.8690 C   0  0  0  0  0  0  0  0  0  0  0  0
  -29.3750  -20.5690   20.4050 C   0  0  0  0  0  0  0  0  0  0  0  0
  -26.2210  -22.5480   19.3770 C   0  0  0  0  0  1  0  0  0  0  0  0
  -26.9450  -19.7860   20.2300 C   0  0  0  0  0  1  0  0  0  0  0  0
  -31.2070  -23.6920   19.7360 C   0  0  0  0  0  1  0  0  0  0  0  0
  -30.3200  -21.5280   20.3240 N   0  0  0  0  0  0  0  0  0  0  0  0
  -31.2180  -17.6220   21.7560 C   0  0  0  0  0  2  0  0  0  0  0  0
  -30.9860  -19.1350   21.6470 C   0  0  0  0  0  2  0  0  0  0  0  0
  -29.7130  -18.1210   19.9260 C   0  0  0  0  0  2  0  0  0  0  0  0
  -30.7960  -17.0910   20.3780 C   0  0  0  0  0  3  0  0  0  0  0  0
  -29.7870  -19.2760   20.8350 N   0  0  0  0  0  0  0  0  0  0  0  0
  -31.0400  -14.5930   19.9610 C   0  0  0  0  0  0  0  0  0  0  0  0
  -30.7150  -12.3540   18.9620 C   0  0  0  0  0  2  0  0  0  0  0  0
  -29.7330  -12.4770   17.7770 C   0  0  0  0  0  2  0  0  0  0  0  0
  -28.2750  -12.3560   18.2650 C   0  0  0  0  0  2  0  0  0  0  0  0
  -27.9760  -13.2660   19.4860 C   0  0  0  0  0  3  0  0  0  0  0  0
  -29.0700  -13.1330   20.5700 C   0  0  0  0  0  2  0  0  0  0  0  0
  -30.3680  -13.4060   19.9350 N   0  0  0  0  0  0  0  0  0  0  0  0
  -32.1600  -14.7220   19.4620 O   0  0  0  0  0  0  0  0  0  0  0  0
  -30.3520  -15.6700   20.4150 N   0  0  0  0  0  0  0  0  0  0  0  0
  -29.4310  -15.4890   20.7820 H   0  0  0  0  0  0  0  0  0  0  0  0
  -25.6390  -13.9260   20.3320 C   0  0  0  0  0  0  0  0  0  0  0  0
  -24.5660  -13.1800   20.7390 C   0  0  0  0  0  0  0  0  0  0  0  0
  -24.9810  -11.8150   20.6580 C   0  0  0  0  0  0  0  0  0  0  0  0
  -26.6410  -13.0170   20.0290 N   0  0  0  0  0  0  0  0  0  0  0  0
  -26.2520  -11.7420   20.2820 N   0  0  0  0  0  0  0  0  0  0  0  0
  -24.2230  -10.5730   20.8610 C   0  0  0  0  0  0  0  0  0  0  0  0
  -24.6120   -9.6220   21.8310 C   0  0  0  0  0  3  0  0  0  0  0  0
  -23.8610   -8.4430   22.0190 C   0  0  0  0  0  3  0  0  0  0  0  0
  -22.7070   -8.2040   21.2370 C   0  0  0  0  0  0  0  0  0  0  0  0
  -22.3370   -9.1420   20.2580 C   0  0  0  0  0  3  0  0  0  0  0  0
  -23.0890  -10.3140   20.0680 C   0  0  0  0  0  3  0  0  0  0  0  0
  -21.9290   -7.0750   21.3330 O   0  0  0  0  0  0  0  0  0  0  0  0
  -21.7540   -6.4210   22.5250 C   0  0  0  0  0  0  0  0  0  0  0  0
  -21.1880   -7.0600   23.6490 C   0  0  0  0  0  3  0  0  0  0  0  0
  -20.9610   -6.3300   24.8340 C   0  0  0  0  0  3  0  0  0  0  0  0
  -21.2900   -4.9630   24.8930 C   0  0  0  0  0  0  0  0  0  0  0  0
  -21.8470   -4.3230   23.7710 C   0  0  0  0  0  3  0  0  0  0  0  0
  -22.0760   -5.0490   22.5900 C   0  0  0  0  0  0  0  0  0  0  0  0
  -22.5950   -4.4230   21.5060 F   0  0  0  0  0  0  0  0  0  0  0  0
  -21.0640   -4.2600   26.0280 F   0  0  0  0  0  0  0  0  0  0  0  0
  -23.2000  -13.6950   21.0880 C   0  0  0  0  0  0  0  0  0  0  0  0
  -22.4930  -13.0090   21.9790 N   0  0  0  0  0  0  0  0  0  0  0  0
  -22.7690  -14.7420   20.6060 O   0  0  0  0  0  0  0  0  0  0  0  0
  -22.8540  -12.1630   22.3930 H   0  0  0  0  0  0  0  0  0  0  0  0
  -21.5770  -13.3370   22.2500 H   0  0  0  0  0  0  0  0  0  0  0  0
  -25.8390  -15.2940   20.1720 N   0  0  0  0  0  0  0  0  0  0  0  0
  -25.0870  -15.9640   20.2990 H   0  0  0  0  0  0  0  0  0  0  0  0
  -26.6670  -15.7040   19.7610 H   0  0  0  0  0  0  0  0  0  0  0  0
  -28.4130  -24.4720   18.6750 C   0  0  0  0  0  2  0  0  0  0  0  0
  -28.8910  -25.9300   19.0460 C   0  0  0  0  0  2  0  0  0  0  0  0
  -28.3930  -26.6820   20.1730 O   0  0  0  0  0  0  0  0  0  0  0  0
  -24.6200  -31.9050   23.2160 C   0  0  0  0  0  0  0  0  0  0  0  0
  -27.2510  -27.4610   20.0790 C   0  0  0  0  0  0  0  0  0  0  0  0
  -23.4100  -30.5150   21.5640 C   0  0  0  0  0  3  0  0  0  0  0  0
  -24.8610  -28.9950   20.1090 C   0  0  0  0  0  0  0  0  0  0  0  0
  -25.9370  -30.8680   21.3660 C   0  0  0  0  0  2  0  0  0  0  0  0
  -26.0180  -29.5010   20.7100 C   0  0  0  0  0  0  0  0  0  0  0  0
  -27.2130  -28.7350   20.7040 C   0  0  0  0  0  3  0  0  0  0  0  0
  -26.0720  -26.9830   19.4660 C   0  0  0  0  0  3  0  0  0  0  0  0
  -24.8820  -27.7360   19.4840 C   0  0  0  0  0  3  0  0  0  0  0  0
  -23.6180  -29.8560   20.1730 C   0  0  0  0  0  2  0  0  0  0  0  0
  -24.6740  -31.1140   22.1060 N   0  0  0  0  0  0  0  0  0  0  0  0
  -23.5420  -32.1670   23.7670 O   0  0  0  0  0  0  0  0  0  0  0  0
  -22.7660  -29.4820   22.5190 C   0  0  0  0  0  0  0  0  0  0  0  0
  -21.4440  -29.2860   22.3880 N   0  0  0  0  0  0  0  0  0  0  0  0
  -23.4530  -28.8640   23.3360 O   0  0  0  0  0  0  0  0  0  0  0  0
  -20.9500  -29.8410   21.7020 H   0  0  0  0  0  0  0  0  0  0  0  0
  -18.0890  -28.0220   22.8460 C   0  0  0  0  0  0  0  0  0  0  0  0
  -20.6360  -28.3360   23.1520 C   0  0  0  0  0  3  0  0  0  0  0  0
  -20.7780  -26.9030   22.5880 C   0  0  0  0  0  2  0  0  0  0  0  0
  -19.6980  -26.5520   21.5600 C   0  0  0  0  0  2  0  0  0  0  0  0
  -18.3030  -26.6730   22.1830 C   0  0  0  0  0  2  0  0  0  0  0  0
  -19.1850  -28.8100   23.2880 C   0  0  0  0  0  0  0  0  0  0  0  0
  -18.9320  -30.0710   23.8680 C   0  0  0  0  0  3  0  0  0  0  0  0
  -17.6160  -30.5460   24.0130 C   0  0  0  0  0  3  0  0  0  0  0  0
  -16.5340  -29.7550   23.5880 C   0  0  0  0  0  3  0  0  0  0  0  0
  -16.7700  -28.4950   23.0120 C   0  0  0  0  0  3  0  0  0  0  0  0
  -25.9070  -32.5380   23.8320 C   0  0  0  0  0  3  0  0  0  0  0  0
  -26.4380  -31.7580   25.0970 C   0  0  1  0  0  0  0  0  0  0  0  0
  -25.3580  -31.5010   26.1730 C   0  0  0  0  0  1  0  0  0  0  0  0
  -27.0290  -30.3890   24.6870 C   0  0  0  0  0  1  0  0  0  0  0  0
  -27.5870  -32.5540   25.7580 C   0  0  0  0  0  1  0  0  0  0  0  0
  -25.5950  -33.9330   24.1780 N   0  0  0  0  0  0  0  0  0  0  0  0
  -25.9170  -34.9930   23.4250 C   0  0  0  0  0  0  0  0  0  0  0  0
  -26.5790  -34.9010   22.3870 O   0  0  0  0  0  0  0  0  0  0  0  0
  -25.0140  -34.0750   24.9890 H   0  0  0  0  0  0  0  0  0  0  0  0
  -24.1820  -36.7810   23.0930 C   0  0  0  0  0  1  0  0  0  0  0  0
  -25.4280  -36.3750   23.8970 C   0  0  0  0  0  3  0  0  0  0  0  0
  -27.5620  -37.2620   24.7270 C   0  0  0  0  0  1  0  0  0  0  0  0
  -26.4550  -37.4330   23.7880 N   0  0  0  0  0  0  0  0  0  0  0  0
  -26.0480  -38.3500   23.9470 H   0  0  0  0  0  0  0  0  0  0  0  0
  1  3  1  0
  2  1  2  0
  2  4  1  0
  3  7  1  0
  3  5  2  0
  4  9  2  0
  5 14  1  0
  6  1  1  0
  8  4  1  0
  9  5  1  0
 11 10  1  0
 12 13  1  0
 12 14  1  0
 13 23  1  0
 13 10  1  0
 14 11  1  0
 15 23  1  0
 16 21  1  0
 17 18  1  0
 17 16  1  0
 19 18  1  0
 19 28  1  0
 19 20  1  0
 21 15  1  0
 21 20  1  0
 22 15  2  0
 23 24  1  0
 25 26  2  0
 26 45  1  0
 27 26  1  0
 27 30  1  0
 28 29  1  0
 28 25  1  0
 29 27  2  0
 30 31  1  0
 31 32  2  0
 33 36  1  0
 33 32  1  0
 34 33  2  0
 35 34  1  0
 35 30  2  0
 36 37  1  0
 37 42  2  0
 37 38  1  0
 38 39  2  0
 39 40  1  0
 40 44  1  0
 41 40  2  0
 42 41  1  0
 43 42  1  0
 45 46  1  0
 46 49  1  0
 46 48  1  0
 47 45  2  0
 50 51  1  0
 50 25  1  0
 52 50  1  0
 53 54  1  0
 53  2  1  0
 54 55  1  0
 56 67  2  0
 57 55  1  0
 57 62  1  0
 58 66  1  0
 58 68  1  0
 59 65  1  0
 59 61  1  0
 60 66  1  0
 61 60  1  0
 62 61  2  0
 63 64  1  0
 63 57  2  0
 64 59  2  0
 65 58  1  0
 66 56  1  0
 68 70  2  0
 69 68  1  0
 71 69  1  0
 72 81  2  0
 72 77  1  0
 73 69  1  0
 73 77  1  0
 74 73  1  0
 75 76  1  0
 75 74  1  0
 76 72  1  0
 77 78  2  0
 78 79  1  0
 80 79  2  0
 81 80  1  0
 82 56  1  0
 82 87  1  0
 82 83  1  0
 83 86  1  1
 83 84  1  0
 85 83  1  0
 87 90  1  0
 88 92  1  0
 88 87  1  0
 89 88  2  0
 92 91  1  0
 94 92  1  0
 94 95  1  0
 94 93  1  0
M  ISO  4  15 100  23 100  54 101  55 101
M  END
>  <TORSDO>  (71) 
F 19

>  <SCORE>  (71) 
-13.397

>  <name>  (71) 
71

>  <ligand_id>  (71) 
71

>  <original_smiles>  (71) 
[H]c1c([H])c([H])c2c(c1[H])C([H])([H])C([H])([H])C([H])([H])C2([H])N([H])C(=O)C1([H])N(C(=O)C([H])(N([H])C(=O)C([H])(N([H])C([H])([H])[H])C([H])([H])[H])C(C([H])([H])[H])(C([H])([H])[H])C([H])([H])[H])C([H])([H])c2c([H])c(OC([H])([H])C([H])([H])c3c(C([H])([H])[H])nc(N4C([H])([H])C([H])([H])C([H])(N([H])C(=O)N5C([H])([H])C([H])([H])C([H])([H])C([H])(n6nc(-c7c([H])c([H])c(Oc8c([H])c([H])c(F)c([H])c8F)c([H])c7[H])c(C(=O)N([H])[H])c6N([H])[H])C5([H])[H])C4([H])[H])c(C([H])([H])[H])c3C([H])([H])[H])c([H])c([H])c2C1([H])[H]

>  <smiles>  (71) 
[H]c1c([H])c([H])c2c(c1[H])C([H])([H])C([H])([H])C([H])([H])C2([H])N([H])C(=O)C1([H])N(C(=O)C([H])(N([H])C(=O)C([H])(N([H])C([H])([H])[H])C([H])([H])[H])C(C([H])([H])[H])(C([H])([H])[H])C([H])([H])[H])C([H])([H])c2c([H])c(OC([H])([H])C([H])([H])c3c(C([H])([H])[H])nc(N4C([H])([H])C([H])([H])C([H])(N([H])C(=O)N5C([H])([H])C([H])([H])C([H])([H])C([H])(n6nc(-c7c([H])c([H])c(Oc8c([H])c([H])c(F)c([H])c8F)c([H])c7[H])c(C(=O)N([H])[H])c6N([H])[H])C5([H])[H])C4([H])[H])c(C([H])([H])[H])c3C([H])([H])[H])c([H])c([H])c2C1([H])[H]

$$$$
72:0:0
     RDKit          3D

 98108  0  0  1  0  0  0  0  0999 V2000
  -31.2790  -23.7030   21.4660 C   0  0  0  0  0  3  0  0  0  0  0  0
  -31.2770  -24.8610   22.2610 C   0  0  0  0  0  3  0  0  0  0  0  0
  -29.6070  -24.7120   20.0090 C   0  0  0  0  0  3  0  0  0  0  0  0
  -30.4320  -23.6050   20.3390 C   0  0  0  0  0  0  0  0  0  0  0  0
  -30.4290  -25.9430   21.9510 C   0  0  0  0  0  0  0  0  0  0  0  0
  -29.5780  -25.8740   20.8170 C   0  0  0  0  0  0  0  0  0  0  0  0
  -30.4550  -27.1670   22.8510 C   0  0  0  0  0  1  0  0  0  0  0  0
  -29.0960  -22.0490   18.7870 C   0  0  0  0  0  2  0  0  0  0  0  0
  -28.9740  -20.5250   18.6880 C   0  0  0  0  0  2  0  0  0  0  0  0
  -30.5980  -21.0350   20.3300 C   0  0  0  0  0  2  0  0  0  0  0  0
  -30.4370  -22.3260   19.4870 C   0  0  2  0  0  0  0  0  0  0  0  0
  -31.5720  -22.4490   18.4440 C   0  0  0  0  0  1  0  0  0  0  0  0
  -30.0740  -19.9330   19.4920 N   0  0  1  0  0  4  0  0  0  0  0  0
  -30.8060  -19.7130   18.8340 H   0  0  0  0  0  0  0  0  0  0  0  0
  -30.4990  -14.6390   19.9300 C   0  0  0  0  0  0  0  0  0  0  0  0
  -30.1720  -12.4650   18.8120 C   0  0  0  0  0  2  0  0  0  0  0  0
  -29.1460  -12.5690   17.6660 C   0  0  0  0  0  2  0  0  0  0  0  0
  -27.7220  -12.3170   18.1990 C   0  0  0  0  0  2  0  0  0  0  0  0
  -27.3960  -13.1850   19.4350 C   0  0  0  0  0  3  0  0  0  0  0  0
  -28.5350  -13.1310   20.4880 C   0  0  0  0  0  2  0  0  0  0  0  0
  -29.8110  -13.4650   19.8280 N   0  0  0  0  0  0  0  0  0  0  0  0
  -31.6190  -14.8000   19.4380 O   0  0  0  0  0  0  0  0  0  0  0  0
  -30.9440  -17.9530   20.8310 C   0  0  0  0  0  2  0  0  0  0  0  0
  -29.0490  -17.6680   19.2490 C   0  0  0  0  0  2  0  0  0  0  0  0
  -30.5800  -16.5840   21.4700 C   0  0  0  0  0  2  0  0  0  0  0  0
  -28.7200  -16.3290   19.9090 C   0  0  0  0  0  2  0  0  0  0  0  0
  -29.7200  -18.6660   20.2060 C   0  0  0  0  0  3  0  0  0  0  0  0
  -29.8770  -15.6810   20.5420 N   0  0  0  0  0  0  0  0  0  0  0  0
  -25.0600  -13.7470   20.3370 C   0  0  0  0  0  0  0  0  0  0  0  0
  -24.0330  -12.9460   20.7560 C   0  0  0  0  0  0  0  0  0  0  0  0
  -24.5220  -11.6070   20.6670 C   0  0  0  0  0  0  0  0  0  0  0  0
  -26.0990  -12.8840   20.0140 N   0  0  0  0  0  0  0  0  0  0  0  0
  -25.7870  -11.5960   20.2760 N   0  0  0  0  0  0  0  0  0  0  0  0
  -23.8440  -10.3260   20.8690 C   0  0  0  0  0  0  0  0  0  0  0  0
  -24.3170   -9.3830   21.8080 C   0  0  0  0  0  3  0  0  0  0  0  0
  -23.6400   -8.1610   21.9950 C   0  0  0  0  0  3  0  0  0  0  0  0
  -22.4780   -7.8730   21.2400 C   0  0  0  0  0  0  0  0  0  0  0  0
  -22.0240   -8.8050   20.2900 C   0  0  0  0  0  3  0  0  0  0  0  0
  -22.7030  -10.0190   20.1020 C   0  0  0  0  0  3  0  0  0  0  0  0
  -21.7670   -6.7020   21.3380 O   0  0  0  0  0  0  0  0  0  0  0  0
  -21.7020   -5.9990   22.5140 C   0  0  0  0  0  0  0  0  0  0  0  0
  -21.1540   -6.5610   23.6880 C   0  0  0  0  0  3  0  0  0  0  0  0
  -21.0440   -5.7800   24.8560 C   0  0  0  0  0  3  0  0  0  0  0  0
  -21.4680   -4.4380   24.8490 C   0  0  0  0  0  0  0  0  0  0  0  0
  -22.0090   -3.8760   23.6800 C   0  0  0  0  0  3  0  0  0  0  0  0
  -22.1220   -4.6540   22.5140 C   0  0  0  0  0  0  0  0  0  0  0  0
  -22.6240   -4.1020   21.3830 F   0  0  0  0  0  0  0  0  0  0  0  0
  -21.3530   -3.6850   25.9680 F   0  0  0  0  0  0  0  0  0  0  0  0
  -22.6470  -13.3870   21.1260 C   0  0  0  0  0  0  0  0  0  0  0  0
  -21.9870  -12.6560   22.0160 N   0  0  0  0  0  0  0  0  0  0  0  0
  -22.1550  -14.4140   20.6590 O   0  0  0  0  0  0  0  0  0  0  0  0
  -22.3940  -11.8230   22.4160 H   0  0  0  0  0  0  0  0  0  0  0  0
  -21.0610  -12.9370   22.3060 H   0  0  0  0  0  0  0  0  0  0  0  0
  -25.1830  -15.1250   20.1790 N   0  0  0  0  0  0  0  0  0  0  0  0
  -24.4120  -15.7590   20.3550 H   0  0  0  0  0  0  0  0  0  0  0  0
  -25.9980  -15.5920   19.8040 H   0  0  0  0  0  0  0  0  0  0  0  0
  -28.6290  -27.0320   20.4960 C   0  0  0  0  0  2  0  0  0  0  0  0
  -27.5610  -26.7150   19.5930 O   0  0  0  0  0  0  0  0  0  0  0  0
  -23.9930  -31.8780   22.9880 C   0  0  0  0  0  0  0  0  0  0  0  0
  -26.4300  -27.5060   19.6780 C   0  0  0  0  0  0  0  0  0  0  0  0
  -22.6720  -30.5140   21.3960 C   0  0  0  0  0  3  0  0  0  0  0  0
  -24.0270  -28.9960   19.8520 C   0  0  0  0  0  0  0  0  0  0  0  0
  -25.1750  -30.8750   21.0420 C   0  0  0  0  0  2  0  0  0  0  0  0
  -25.2150  -29.5160   20.3790 C   0  0  0  0  0  0  0  0  0  0  0  0
  -26.4150  -28.7820   20.2910 C   0  0  0  0  0  3  0  0  0  0  0  0
  -25.2300  -27.0050   19.1320 C   0  0  0  0  0  3  0  0  0  0  0  0
  -24.0280  -27.7380   19.2220 C   0  0  0  0  0  3  0  0  0  0  0  0
  -22.7870  -29.8510   19.9940 C   0  0  0  0  0  2  0  0  0  0  0  0
  -23.9680  -31.1020   21.8660 N   0  0  0  0  0  0  0  0  0  0  0  0
  -22.9520  -32.1480   23.6030 O   0  0  0  0  0  0  0  0  0  0  0  0
  -22.0740  -29.4840   22.3800 C   0  0  0  0  0  0  0  0  0  0  0  0
  -20.7450  -29.3060   22.3230 N   0  0  0  0  0  0  0  0  0  0  0  0
  -22.8010  -28.8490   23.1490 O   0  0  0  0  0  0  0  0  0  0  0  0
  -20.2220  -29.8700   21.6690 H   0  0  0  0  0  0  0  0  0  0  0  0
  -17.4010  -28.1150   22.9850 C   0  0  0  0  0  0  0  0  0  0  0  0
  -19.9690  -28.3590   23.1240 C   0  0  0  0  0  3  0  0  0  0  0  0
  -20.0360  -26.9360   22.5230 C   0  0  0  0  0  2  0  0  0  0  0  0
  -18.8810  -26.6330   21.5630 C   0  0  0  0  0  2  0  0  0  0  0  0
  -17.5350  -26.7770   22.2780 C   0  0  0  0  0  2  0  0  0  0  0  0
  -18.5440  -28.8670   23.3660 C   0  0  0  0  0  0  0  0  0  0  0  0
  -18.3630  -30.1230   23.9850 C   0  0  0  0  0  3  0  0  0  0  0  0
  -17.0710  -30.6240   24.2300 C   0  0  0  0  0  3  0  0  0  0  0  0
  -15.9430  -29.8680   23.8660 C   0  0  0  0  0  3  0  0  0  0  0  0
  -16.1100  -28.6160   23.2470 C   0  0  0  0  0  3  0  0  0  0  0  0
  -25.3250  -32.4840   23.5370 C   0  0  0  0  0  3  0  0  0  0  0  0
  -25.0500  -33.8750   23.9200 N   0  0  0  0  0  0  0  0  0  0  0  0
  -25.4410  -34.9470   23.2190 C   0  0  0  0  0  0  0  0  0  0  0  0
  -26.1400  -34.8670   22.2060 O   0  0  0  0  0  0  0  0  0  0  0  0
  -24.4390  -34.0150   24.7110 H   0  0  0  0  0  0  0  0  0  0  0  0
  -23.7910  -36.8150   22.8770 C   0  0  0  0  0  1  0  0  0  0  0  0
  -24.9800  -36.3290   23.7210 C   0  0  0  0  0  3  0  0  0  0  0  0
  -27.1030  -37.0990   24.6890 C   0  0  0  0  0  1  0  0  0  0  0  0
  -26.0510  -37.3490   23.7060 N   0  0  0  0  0  0  0  0  0  0  0  0
  -25.6680  -38.2740   23.8810 H   0  0  0  0  0  0  0  0  0  0  0  0
  -25.9230  -31.6750   24.7530 C   0  0  1  0  0  0  0  0  0  0  0  0
  -24.9050  -31.4200   25.8890 C   0  0  0  0  0  1  0  0  0  0  0  0
  -26.4630  -30.3030   24.2860 C   0  0  0  0  0  1  0  0  0  0  0  0
  -27.1240  -32.4440   25.3520 C   0  0  0  0  0  1  0  0  0  0  0  0
  1  2  1  0
  3  4  1  0
  3  6  2  0
  4  1  2  0
  5  2  2  0
  5  7  1  0
  6  5  1  0
  8 11  1  0
  9  8  1  0
  9 13  1  0
 11 12  1  6
 11 10  1  0
 11  4  1  0
 13 14  1  6
 13 27  1  0
 13 10  1  0
 15 28  1  0
 16 21  1  0
 17 18  1  0
 17 16  1  0
 19 18  1  0
 19 32  1  0
 19 20  1  0
 21 15  1  0
 21 20  1  0
 22 15  2  0
 23 25  1  0
 24 26  1  0
 26 28  1  0
 27 24  1  0
 27 23  1  0
 28 25  1  0
 29 30  2  0
 30 49  1  0
 31 30  1  0
 31 34  1  0
 32 33  1  0
 32 29  1  0
 33 31  2  0
 34 35  1  0
 35 36  2  0
 37 40  1  0
 37 36  1  0
 38 37  2  0
 39 38  1  0
 39 34  2  0
 40 41  1  0
 41 46  2  0
 41 42  1  0
 42 43  2  0
 44 43  1  0
 44 48  1  0
 45 44  2  0
 46 45  1  0
 47 46  1  0
 49 50  1  0
 50 53  1  0
 50 52  1  0
 51 49  2  0
 54 29  1  0
 54 55  1  0
 56 54  1  0
 57  6  1  0
 58 60  1  0
 58 57  1  0
 59 70  2  0
 60 65  1  0
 61 69  1  0
 61 71  1  0
 62 68  1  0
 62 64  1  0
 63 69  1  0
 64 63  1  0
 65 64  2  0
 66 67  1  0
 66 60  2  0
 67 62  2  0
 68 61  1  0
 69 59  1  0
 71 73  2  0
 72 71  1  0
 74 72  1  0
 75 84  2  0
 75 80  1  0
 76 72  1  0
 76 80  1  0
 77 76  1  0
 78 79  1  0
 78 77  1  0
 79 75  1  0
 80 81  2  0
 81 82  1  0
 83 82  2  0
 84 83  1  0
 85 59  1  0
 85 86  1  0
 85 95  1  0
 86 89  1  0
 87 91  1  0
 87 86  1  0
 88 87  2  0
 91 90  1  0
 93 91  1  0
 93 94  1  0
 93 92  1  0
 95 98  1  1
 95 96  1  0
 97 95  1  0
M  ISO  4  15 100  28 100  57 101  58 101
M  END
>  <TORSDO>  (72) 
F 18

>  <SCORE>  (72) 
-11.357

>  <name>  (72) 
72

>  <ligand_id>  (72) 
72

>  <original_smiles>  (72) 
[H]c1c([H])c([H])c2c(c1[H])C([H])([H])C([H])([H])C([H])([H])C2([H])N([H])C(=O)C1([H])N(C(=O)C([H])(N([H])C(=O)C([H])(N([H])C([H])([H])[H])C([H])([H])[H])C(C([H])([H])[H])(C([H])([H])[H])C([H])([H])[H])C([H])([H])c2c([H])c(OC([H])([H])c3c([H])c(C4(C([H])([H])[H])C([H])([H])C([H])([H])[N+]([H])(C5([H])C([H])([H])C([H])([H])N(C(=O)N6C([H])([H])C([H])([H])C([H])([H])C([H])(n7nc(-c8c([H])c([H])c(Oc9c([H])c([H])c(F)c([H])c9F)c([H])c8[H])c(C(=O)N([H])[H])c7N([H])[H])C6([H])[H])C([H])([H])C5([H])[H])C4([H])[H])c([H])c([H])c3C([H])([H])[H])c([H])c([H])c2C1([H])[H]

>  <smiles>  (72) 
[H]c1c([H])c([H])c2c(c1[H])C([H])([H])C([H])([H])C([H])([H])C2([H])N([H])C(=O)C1([H])N(C(=O)C([H])(N([H])C(=O)C([H])(N([H])C([H])([H])[H])C([H])([H])[H])C(C([H])([H])[H])(C([H])([H])[H])C([H])([H])[H])C([H])([H])c2c([H])c(OC([H])([H])c3c([H])c(C4(C([H])([H])[H])C([H])([H])C([H])([H])[N+]([H])(C5([H])C([H])([H])C([H])([H])N(C(=O)N6C([H])([H])C([H])([H])C([H])([H])C([H])(n7nc(-c8c([H])c([H])c(Oc9c([H])c([H])c(F)c([H])c9F)c([H])c8[H])c(C(=O)N([H])[H])c7N([H])[H])C6([H])[H])C([H])([H])C5([H])[H])C4([H])[H])c([H])c([H])c3C([H])([H])[H])c([H])c([H])c2C1([H])[H]

$$$$
73:0:0
     RDKit          3D

 95104  0  0  1  0  0  0  0  0999 V2000
  -27.8550  -24.0940   21.0690 C   0  0  0  0  0  0  0  0  0  0  0  0
  -27.9760  -22.6830   21.2150 C   0  0  0  0  0  0  0  0  0  0  0  0
  -28.9740  -24.8430   20.6140 C   0  0  0  0  0  0  0  0  0  0  0  0
  -29.2290  -22.0550   20.9740 C   0  0  0  0  0  0  0  0  0  0  0  0
  -30.1520  -24.1060   20.3110 C   0  0  0  0  0  0  0  0  0  0  0  0
  -26.5480  -24.7740   21.4700 C   0  0  0  0  0  1  0  0  0  0  0  0
  -26.7870  -21.8550   21.7110 C   0  0  0  0  0  1  0  0  0  0  0  0
  -31.4060  -24.7870   19.7920 C   0  0  0  0  0  1  0  0  0  0  0  0
  -30.2780  -22.7680   20.5030 N   0  0  0  0  0  0  0  0  0  0  0  0
  -30.3460  -20.7630   22.7960 C   0  0  0  0  0  1  0  0  0  0  0  0
  -29.5200  -20.6180   21.5040 C   0  0  0  0  0  3  0  0  0  0  0  0
  -30.1570  -19.6830   20.5910 O   0  0  0  0  0  0  0  0  0  0  0  0
  -31.3800  -14.9620   19.9660 C   0  0  0  0  0  0  0  0  0  0  0  0
  -31.0300  -12.7500   18.9150 C   0  0  0  0  0  2  0  0  0  0  0  0
  -29.9940  -12.8850   17.7810 C   0  0  0  0  0  2  0  0  0  0  0  0
  -28.5640  -12.7280   18.3330 C   0  0  0  0  0  2  0  0  0  0  0  0
  -28.3060  -13.6110   19.5840 C   0  0  0  0  0  3  0  0  0  0  0  0
  -29.4500  -13.4630   20.6140 C   0  0  0  0  0  2  0  0  0  0  0  0
  -30.7180  -13.7690   19.9320 N   0  0  0  0  0  0  0  0  0  0  0  0
  -32.4260  -15.1570   19.3350 O   0  0  0  0  0  0  0  0  0  0  0  0
  -31.2560  -17.9180   21.9780 C   0  0  0  0  0  2  0  0  0  0  0  0
  -31.2720  -16.3840   21.9370 C   0  0  0  0  0  2  0  0  0  0  0  0
  -30.3280  -17.2200   19.9300 C   0  0  0  0  0  2  0  0  0  0  0  0
  -30.1280  -18.2950   21.0210 C   0  0  0  0  0  3  0  0  0  0  0  0
  -30.7660  -15.9810   20.6200 N   0  0  0  0  0  0  0  0  0  0  0  0
  -26.0330  -14.2180   20.6250 C   0  0  0  0  0  0  0  0  0  0  0  0
  -24.9750  -13.4460   21.0250 C   0  0  0  0  0  0  0  0  0  0  0  0
  -25.3630  -12.0910   20.7900 C   0  0  0  0  0  0  0  0  0  0  0  0
  -27.0020  -13.3320   20.1800 N   0  0  0  0  0  0  0  0  0  0  0  0
  -26.6080  -12.0410   20.3340 N   0  0  0  0  0  0  0  0  0  0  0  0
  -24.6000  -10.8440   20.9190 C   0  0  0  0  0  0  0  0  0  0  0  0
  -24.9880   -9.8310   21.8250 C   0  0  0  0  0  3  0  0  0  0  0  0
  -24.2280   -8.6470   21.9450 C   0  0  0  0  0  3  0  0  0  0  0  0
  -23.0640   -8.4690   21.1580 C   0  0  0  0  0  0  0  0  0  0  0  0
  -22.6970   -9.4690   20.2410 C   0  0  0  0  0  3  0  0  0  0  0  0
  -23.4570  -10.6430   20.1190 C   0  0  0  0  0  3  0  0  0  0  0  0
  -22.2790   -7.3410   21.1890 O   0  0  0  0  0  0  0  0  0  0  0  0
  -22.0610   -6.6470   22.3520 C   0  0  0  0  0  0  0  0  0  0  0  0
  -21.5000   -7.2620   23.4920 C   0  0  0  0  0  3  0  0  0  0  0  0
  -21.2280   -6.4950   24.6430 C   0  0  0  0  0  3  0  0  0  0  0  0
  -21.5060   -5.1160   24.6530 C   0  0  0  0  0  0  0  0  0  0  0  0
  -22.0590   -4.5010   23.5160 C   0  0  0  0  0  3  0  0  0  0  0  0
  -22.3320   -5.2650   22.3680 C   0  0  0  0  0  0  0  0  0  0  0  0
  -22.8450   -4.6620   21.2680 F   0  0  0  0  0  0  0  0  0  0  0  0
  -21.2380   -4.3770   25.7560 F   0  0  0  0  0  0  0  0  0  0  0  0
  -23.6400  -13.9390   21.5050 C   0  0  0  0  0  0  0  0  0  0  0  0
  -23.0090  -13.2110   22.4200 N   0  0  0  0  0  0  0  0  0  0  0  0
  -23.1700  -15.0020   21.1040 O   0  0  0  0  0  0  0  0  0  0  0  0
  -23.4070  -12.3520   22.7690 H   0  0  0  0  0  0  0  0  0  0  0  0
  -22.1150  -13.5180   22.7770 H   0  0  0  0  0  0  0  0  0  0  0  0
  -26.2460  -15.5930   20.5870 N   0  0  0  0  0  0  0  0  0  0  0  0
  -25.5340  -16.2570   20.8670 H   0  0  0  0  0  0  0  0  0  0  0  0
  -27.0860  -16.0340   20.2350 H   0  0  0  0  0  0  0  0  0  0  0  0
  -28.9620  -26.3990   20.5670 C   0  0  0  0  0  2  0  0  0  0  0  0
  -28.4190  -26.9880   19.3710 O   0  0  0  0  0  0  0  0  0  0  0  0
  -24.5170  -31.7290   23.0690 C   0  0  0  0  0  0  0  0  0  0  0  0
  -27.2480  -27.7030   19.5190 C   0  0  0  0  0  0  0  0  0  0  0  0
  -23.3150  -30.4090   21.3560 C   0  0  0  0  0  3  0  0  0  0  0  0
  -24.7860  -29.0790   19.7480 C   0  0  0  0  0  0  0  0  0  0  0  0
  -25.8110  -30.9140   21.1000 C   0  0  0  0  0  2  0  0  0  0  0  0
  -25.9400  -29.6050   20.3450 C   0  0  0  0  0  0  0  0  0  0  0  0
  -27.1760  -28.9220   20.2360 C   0  0  0  0  0  3  0  0  0  0  0  0
  -26.0850  -27.2060   18.9010 C   0  0  0  0  0  3  0  0  0  0  0  0
  -24.8540  -27.8760   19.0240 C   0  0  0  0  0  3  0  0  0  0  0  0
  -23.5020  -29.8620   19.9160 C   0  0  0  0  0  2  0  0  0  0  0  0
  -24.5670  -31.0300   21.9000 N   0  0  0  0  0  0  0  0  0  0  0  0
  -23.4470  -31.8950   23.6710 O   0  0  0  0  0  0  0  0  0  0  0  0
  -22.7560  -29.2780   22.2490 C   0  0  0  0  0  0  0  0  0  0  0  0
  -21.4490  -28.9970   22.1150 N   0  0  0  0  0  0  0  0  0  0  0  0
  -23.4940  -28.6570   23.0190 O   0  0  0  0  0  0  0  0  0  0  0  0
  -20.9090  -29.5580   21.4710 H   0  0  0  0  0  0  0  0  0  0  0  0
  -18.1990  -27.4650   22.4980 C   0  0  0  0  0  0  0  0  0  0  0  0
  -20.7170  -27.9480   22.8230 C   0  0  0  0  0  3  0  0  0  0  0  0
  -20.9610  -26.5650   22.1760 C   0  0  0  0  0  2  0  0  0  0  0  0
  -19.9050  -26.1940   21.1290 C   0  0  0  0  0  2  0  0  0  0  0  0
  -18.5090  -26.1760   21.7560 C   0  0  0  0  0  2  0  0  0  0  0  0
  -19.2350  -28.3050   22.9850 C   0  0  0  0  0  0  0  0  0  0  0  0
  -18.8910  -29.5100   23.6360 C   0  0  0  0  0  3  0  0  0  0  0  0
  -17.5430  -29.8760   23.8070 C   0  0  0  0  0  3  0  0  0  0  0  0
  -16.5200  -29.0340   23.3360 C   0  0  0  0  0  3  0  0  0  0  0  0
  -16.8490  -27.8310   22.6880 C   0  0  0  0  0  3  0  0  0  0  0  0
  -25.7950  -32.3730   23.6910 C   0  0  0  0  0  3  0  0  0  0  0  0
  -26.3690  -31.5580   24.9160 C   0  0  1  0  0  0  0  0  0  0  0  0
  -25.3100  -31.2220   25.9910 C   0  0  0  0  0  1  0  0  0  0  0  0
  -26.9970  -30.2270   24.4400 C   0  0  0  0  0  1  0  0  0  0  0  0
  -27.5020  -32.3630   25.5940 C   0  0  0  0  0  1  0  0  0  0  0  0
  -25.4490  -33.7420   24.0940 N   0  0  0  0  0  0  0  0  0  0  0  0
  -25.7660  -34.8430   23.3970 C   0  0  0  0  0  0  0  0  0  0  0  0
  -26.4500  -34.8110   22.3710 O   0  0  0  0  0  0  0  0  0  0  0  0
  -24.8420  -33.8400   24.8940 H   0  0  0  0  0  0  0  0  0  0  0  0
  -24.0080  -36.6180   23.1060 C   0  0  0  0  0  1  0  0  0  0  0  0
  -25.2380  -36.1910   23.9230 C   0  0  0  0  0  3  0  0  0  0  0  0
  -27.3350  -37.0660   24.8550 C   0  0  0  0  0  1  0  0  0  0  0  0
  -26.2510  -37.2690   23.8970 N   0  0  0  0  0  0  0  0  0  0  0  0
  -25.8220  -38.1700   24.0890 H   0  0  0  0  0  0  0  0  0  0  0  0
  1  2  1  0
  1  6  1  0
  2  7  1  0
  3  1  2  0
  4  2  2  0
  4 11  1  0
  5  9  2  0
  5  3  1  0
  8  5  1  0
  9  4  1  0
 11 10  1  0
 12 11  1  0
 13 25  1  0
 14 19  1  0
 15 16  1  0
 15 14  1  0
 17 16  1  0
 17 29  1  0
 17 18  1  0
 19 13  1  0
 19 18  1  0
 20 13  2  0
 22 21  1  0
 23 25  1  0
 23 24  1  0
 24 12  1  0
 24 21  1  0
 25 22  1  0
 26 27  2  0
 27 46  1  0
 28 31  1  0
 28 27  1  0
 29 30  1  0
 29 26  1  0
 30 28  2  0
 31 32  1  0
 32 33  2  0
 34 37  1  0
 34 33  1  0
 35 34  2  0
 36 35  1  0
 36 31  2  0
 37 38  1  0
 38 43  2  0
 38 39  1  0
 39 40  2  0
 40 41  1  0
 41 45  1  0
 42 41  2  0
 43 42  1  0
 44 43  1  0
 46 47  1  0
 47 49  1  0
 47 50  1  0
 48 46  2  0
 51 26  1  0
 51 52  1  0
 53 51  1  0
 54  3  1  0
 55 57  1  0
 55 54  1  0
 56 67  2  0
 57 62  1  0
 58 66  1  0
 58 68  1  0
 59 65  1  0
 59 61  1  0
 60 66  1  0
 61 60  1  0
 62 61  2  0
 63 64  1  0
 63 57  2  0
 64 59  2  0
 65 58  1  0
 66 56  1  0
 68 70  2  0
 69 68  1  0
 71 69  1  0
 72 81  2  0
 72 77  1  0
 73 69  1  0
 73 77  1  0
 74 73  1  0
 75 76  1  0
 75 74  1  0
 76 72  1  0
 77 78  2  0
 78 79  1  0
 80 79  2  0
 81 80  1  0
 82 56  1  0
 82 87  1  0
 82 83  1  0
 83 86  1  1
 83 84  1  0
 85 83  1  0
 87 90  1  0
 88 92  1  0
 88 87  1  0
 89 88  2  0
 92 91  1  0
 94 92  1  0
 94 95  1  0
 94 93  1  0
M  ISO  4  13 100  25 100  54 101  55 101
M  END
>  <TORSDO>  (73) 
F 19

>  <SCORE>  (73) 
-10.874

>  <name>  (73) 
73

>  <ligand_id>  (73) 
73

>  <original_smiles>  (73) 
[H]c1c([H])c([H])c2c(c1[H])C([H])([H])C([H])([H])C([H])([H])C2([H])N([H])C(=O)C1([H])N(C(=O)C([H])(N([H])C(=O)C([H])(N([H])C([H])([H])[H])C([H])([H])[H])C(C([H])([H])[H])(C([H])([H])[H])C([H])([H])[H])C([H])([H])c2c([H])c(OC([H])([H])c3c(C([H])([H])[H])nc(C([H])(OC4([H])C([H])([H])N(C(=O)N5C([H])([H])C([H])([H])C([H])([H])C([H])(n6nc(-c7c([H])c([H])c(Oc8c([H])c([H])c(F)c([H])c8F)c([H])c7[H])c(C(=O)N([H])[H])c6N([H])[H])C5([H])[H])C([H])([H])C4([H])[H])C([H])([H])[H])c(C([H])([H])[H])c3C([H])([H])[H])c([H])c([H])c2C1([H])[H]

>  <smiles>  (73) 
[H]c1c([H])c([H])c2c(c1[H])C([H])([H])C([H])([H])C([H])([H])C2([H])N([H])C(=O)C1([H])N(C(=O)C([H])(N([H])C(=O)C([H])(N([H])C([H])([H])[H])C([H])([H])[H])C(C([H])([H])[H])(C([H])([H])[H])C([H])([H])[H])C([H])([H])c2c([H])c(OC([H])([H])c3c(C([H])([H])[H])nc(C([H])(OC4([H])C([H])([H])N(C(=O)N5C([H])([H])C([H])([H])C([H])([H])C([H])(n6nc(-c7c([H])c([H])c(Oc8c([H])c([H])c(F)c([H])c8F)c([H])c7[H])c(C(=O)N([H])[H])c6N([H])[H])C5([H])[H])C([H])([H])C4([H])[H])C([H])([H])[H])c(C([H])([H])[H])c3C([H])([H])[H])c([H])c([H])c2C1([H])[H]

$$$$
74:0:0
     RDKit          3D

101110  0  0  1  0  0  0  0  0999 V2000
  -28.7950  -20.0030   20.6990 O   0  0  0  0  0  0  0  0  0  0  0  0
  -30.3810  -18.8410   22.2280 C   0  0  0  0  0  2  0  0  0  0  0  0
  -30.9560  -17.4590   22.5990 C   0  0  0  0  0  3  0  0  0  0  0  0
  -31.8640  -16.9320   21.4610 C   0  0  0  0  0  3  0  0  0  0  0  0
  -31.1130  -16.8690   20.1010 C   0  0  0  0  0  3  0  0  0  0  0  0
  -30.2540  -18.1460   19.7600 C   0  0  0  0  0  3  0  0  0  0  0  0
  -29.4970  -18.7630   20.9690 C   0  0  0  0  0  3  0  0  0  0  0  0
  -31.6930  -17.5210   23.9490 C   0  0  0  0  0  1  0  0  0  0  0  0
  -32.5630  -15.5940   21.8110 C   0  0  0  0  0  1  0  0  0  0  0  0
  -30.9030  -14.5130   19.2310 C   0  0  0  0  0  0  0  0  0  0  0  0
  -30.4640  -12.2150   18.4410 C   0  0  0  0  0  2  0  0  0  0  0  0
  -29.3640  -12.2250   17.3630 C   0  0  0  0  0  2  0  0  0  0  0  0
  -27.9690  -12.1540   18.0100 C   0  0  0  0  0  2  0  0  0  0  0  0
  -27.7870  -13.1770   19.1620 C   0  0  0  0  0  3  0  0  0  0  0  0
  -28.9860  -13.1380   20.1360 C   0  0  0  0  0  2  0  0  0  0  0  0
  -30.2160  -13.3450   19.3530 N   0  0  0  0  0  0  0  0  0  0  0  0
  -31.8800  -14.6370   18.4920 O   0  0  0  0  0  0  0  0  0  0  0  0
  -30.4230  -15.5660   19.9230 N   0  0  0  0  0  0  0  0  0  0  0  0
  -29.6360  -15.3690   20.5210 H   0  0  0  0  0  0  0  0  0  0  0  0
  -25.6230  -13.9120   20.3490 C   0  0  0  0  0  0  0  0  0  0  0  0
  -24.5610  -13.1990   20.8380 C   0  0  0  0  0  0  0  0  0  0  0  0
  -24.8630  -11.8240   20.6000 C   0  0  0  0  0  0  0  0  0  0  0  0
  -26.5150  -12.9730   19.8530 N   0  0  0  0  0  0  0  0  0  0  0  0
  -26.0690  -11.7060   20.0560 N   0  0  0  0  0  0  0  0  0  0  0  0
  -24.0530  -10.6170   20.8040 C   0  0  0  0  0  0  0  0  0  0  0  0
  -24.4950   -9.5620   21.6330 C   0  0  0  0  0  3  0  0  0  0  0  0
  -23.6890   -8.4210   21.8300 C   0  0  0  0  0  3  0  0  0  0  0  0
  -22.4260   -8.3260   21.1980 C   0  0  0  0  0  0  0  0  0  0  0  0
  -22.0000   -9.3680   20.3570 C   0  0  0  0  0  3  0  0  0  0  0  0
  -22.8060  -10.5020   20.1580 C   0  0  0  0  0  3  0  0  0  0  0  0
  -21.5860   -7.2430   21.3120 O   0  0  0  0  0  0  0  0  0  0  0  0
  -21.5440   -6.4810   22.4510 C   0  0  0  0  0  0  0  0  0  0  0  0
  -21.2040   -7.0340   23.7050 C   0  0  0  0  0  3  0  0  0  0  0  0
  -21.1050   -6.2020   24.8380 C   0  0  0  0  0  3  0  0  0  0  0  0
  -21.3360   -4.8190   24.7190 C   0  0  0  0  0  0  0  0  0  0  0  0
  -21.6690   -4.2650   23.4700 C   0  0  0  0  0  3  0  0  0  0  0  0
  -21.7700   -5.0940   22.3380 C   0  0  0  0  0  0  0  0  0  0  0  0
  -22.0700   -4.5540   21.1330 F   0  0  0  0  0  0  0  0  0  0  0  0
  -21.2340   -4.0180   25.8050 F   0  0  0  0  0  0  0  0  0  0  0  0
  -23.2920  -13.7650   21.4080 C   0  0  0  0  0  0  0  0  0  0  0  0
  -22.6940  -13.0750   22.3730 N   0  0  0  0  0  0  0  0  0  0  0  0
  -22.8510  -14.8490   21.0320 O   0  0  0  0  0  0  0  0  0  0  0  0
  -23.0670  -12.1930   22.6910 H   0  0  0  0  0  0  0  0  0  0  0  0
  -21.8510  -13.4330   22.7990 H   0  0  0  0  0  0  0  0  0  0  0  0
  -25.8970  -15.2720   20.2640 N   0  0  0  0  0  0  0  0  0  0  0  0
  -25.2250  -15.9740   20.5540 H   0  0  0  0  0  0  0  0  0  0  0  0
  -26.6930  -15.6650   19.7810 H   0  0  0  0  0  0  0  0  0  0  0  0
  -29.3100  -17.8620   18.6600 N   0  0  0  0  0  4  0  0  0  0  0  0
  -28.6480  -17.1580   18.9380 H   0  0  0  0  0  0  0  0  0  0  0  0
  -29.8030  -17.5290   17.8490 H   0  0  0  0  0  0  0  0  0  0  0  0
  -28.7970  -18.6900   18.4070 H   0  0  0  0  0  0  0  0  0  0  0  0
  -29.5060  -21.2470   20.5330 C   0  0  0  0  0  2  0  0  0  0  0  0
  -27.3190  -22.3340   21.2320 C   0  0  0  0  0  3  0  0  0  0  0  0
  -26.4750  -23.4450   21.4250 C   0  0  0  0  0  3  0  0  0  0  0  0
  -28.9810  -23.7850   20.2140 C   0  0  0  0  0  3  0  0  0  0  0  0
  -28.5840  -22.4820   20.6290 C   0  0  0  0  0  0  0  0  0  0  0  0
  -26.8760  -24.7380   21.0330 C   0  0  0  0  0  0  0  0  0  0  0  0
  -28.1390  -24.9220   20.4090 C   0  0  0  0  0  0  0  0  0  0  0  0
  -25.9460  -25.9080   21.3370 C   0  0  0  0  0  1  0  0  0  0  0  0
  -28.6320  -26.3330   20.0290 C   0  0  0  0  0  2  0  0  0  0  0  0
  -27.9230  -26.9580   18.9500 O   0  0  0  0  0  0  0  0  0  0  0  0
  -24.7350  -31.5630   23.4160 C   0  0  0  0  0  0  0  0  0  0  0  0
  -26.8470  -27.7630   19.2600 C   0  0  0  0  0  0  0  0  0  0  0  0
  -23.3210  -30.6220   21.6170 C   0  0  0  0  0  3  0  0  0  0  0  0
  -24.5660  -29.3540   19.7820 C   0  0  0  0  0  0  0  0  0  0  0  0
  -25.8440  -30.8810   21.2940 C   0  0  0  0  0  2  0  0  0  0  0  0
  -25.7940  -29.6770   20.3770 C   0  0  0  0  0  0  0  0  0  0  0  0
  -26.9400  -28.8860   20.1180 C   0  0  0  0  0  3  0  0  0  0  0  0
  -25.6110  -27.4690   18.6520 C   0  0  0  0  0  3  0  0  0  0  0  0
  -24.4680  -28.2480   18.9200 C   0  0  0  0  0  3  0  0  0  0  0  0
  -23.3860  -30.2440   20.1130 C   0  0  0  0  0  2  0  0  0  0  0  0
  -24.6550  -31.0220   22.1680 N   0  0  0  0  0  0  0  0  0  0  0  0
  -23.7170  -31.7700   24.0920 O   0  0  0  0  0  0  0  0  0  0  0  0
  -22.6670  -29.4550   22.3890 C   0  0  0  0  0  0  0  0  0  0  0  0
  -21.3340  -29.3350   22.2730 N   0  0  0  0  0  0  0  0  0  0  0  0
  -23.3530  -28.6690   23.0490 O   0  0  0  0  0  0  0  0  0  0  0  0
  -20.8400  -30.0230   21.7220 H   0  0  0  0  0  0  0  0  0  0  0  0
  -17.9610  -28.0720   22.5420 C   0  0  0  0  0  0  0  0  0  0  0  0
  -20.5130  -28.2880   22.8800 C   0  0  0  0  0  3  0  0  0  0  0  0
  -20.6270  -26.9630   22.0910 C   0  0  0  0  0  2  0  0  0  0  0  0
  -19.5380  -26.7990   21.0250 C   0  0  0  0  0  2  0  0  0  0  0  0
  -18.1480  -26.8430   21.6670 C   0  0  0  0  0  2  0  0  0  0  0  0
  -19.0720  -28.7590   23.0980 C   0  0  0  0  0  0  0  0  0  0  0  0
  -18.8440  -29.9150   23.8750 C   0  0  0  0  0  3  0  0  0  0  0  0
  -17.5370  -30.3850   24.1000 C   0  0  0  0  0  3  0  0  0  0  0  0
  -16.4400  -29.6930   23.5590 C   0  0  0  0  0  3  0  0  0  0  0  0
  -16.6520  -28.5370   22.7880 C   0  0  0  0  0  3  0  0  0  0  0  0
  -26.1040  -31.9710   24.0470 C   0  0  0  0  0  3  0  0  0  0  0  0
  -25.9710  -33.3500   24.5360 N   0  0  0  0  0  0  0  0  0  0  0  0
  -26.4340  -34.4310   23.8960 C   0  0  0  0  0  0  0  0  0  0  0  0
  -27.0920  -34.3630   22.8550 O   0  0  0  0  0  0  0  0  0  0  0  0
  -25.3960  -33.4820   25.3560 H   0  0  0  0  0  0  0  0  0  0  0  0
  -24.9590  -36.4640   23.7430 C   0  0  0  0  0  1  0  0  0  0  0  0
  -26.1180  -35.8080   24.5110 C   0  0  0  0  0  3  0  0  0  0  0  0
  -28.3310  -36.3040   25.4540 C   0  0  0  0  0  1  0  0  0  0  0  0
  -27.2800  -36.7250   24.5320 N   0  0  0  0  0  0  0  0  0  0  0  0
  -26.9890  -37.6630   24.7950 H   0  0  0  0  0  0  0  0  0  0  0  0
  -26.5670  -31.0080   25.2080 C   0  0  1  0  0  0  0  0  0  0  0  0
  -25.4940  -30.7910   26.3010 C   0  0  0  0  0  1  0  0  0  0  0  0
  -26.9630  -29.6210   24.6460 C   0  0  0  0  0  1  0  0  0  0  0  0
  -27.8300  -31.5820   25.8900 C   0  0  0  0  0  1  0  0  0  0  0  0
  2  3  1  0
  3  8  1  0
  4  9  1  0
  4  3  1  0
  5 18  1  0
  5  4  1  0
  6 48  1  0
  6  5  1  0
  6  7  1  0
  7  1  1  0
  7  2  1  0
 10 16  1  0
 10 18  1  0
 11 16  1  0
 12 13  1  0
 12 11  1  0
 14 13  1  0
 14 23  1  0
 14 15  1  0
 16 15  1  0
 17 10  2  0
 18 19  1  0
 20 21  2  0
 21 40  1  0
 22 25  1  0
 22 21  1  0
 23 24  1  0
 23 20  1  0
 24 22  2  0
 25 26  1  0
 26 27  2  0
 28 31  1  0
 28 27  1  0
 29 28  2  0
 30 29  1  0
 30 25  2  0
 31 32  1  0
 32 33  1  0
 33 34  2  0
 35 34  1  0
 35 39  1  0
 36 35  2  0
 37 32  2  0
 37 36  1  0
 38 37  1  0
 40 41  1  0
 41 43  1  0
 41 44  1  0
 42 40  2  0
 45 20  1  0
 45 46  1  0
 47 45  1  0
 48 49  1  0
 50 48  1  0
 51 48  1  0
 52 56  1  0
 52  1  1  0
 53 54  1  0
 55 58  2  0
 55 56  1  0
 56 53  2  0
 57 59  1  0
 57 54  2  0
 58 57  1  0
 60 58  1  0
 61 63  1  0
 61 60  1  0
 62 73  2  0
 63 68  1  0
 64 72  1  0
 64 74  1  0
 65 71  1  0
 65 67  1  0
 66 72  1  0
 67 66  1  0
 68 67  2  0
 69 70  1  0
 69 63  2  0
 70 65  2  0
 71 64  1  0
 72 62  1  0
 74 76  2  0
 75 74  1  0
 77 75  1  0
 78 87  2  0
 78 83  1  0
 79 75  1  0
 79 83  1  0
 80 79  1  0
 81 82  1  0
 81 80  1  0
 82 78  1  0
 83 84  2  0
 84 85  1  0
 86 85  2  0
 87 86  1  0
 88 62  1  0
 88 89  1  0
 88 98  1  0
 89 92  1  0
 90 94  1  0
 90 89  1  0
 91 90  2  0
 94 93  1  0
 94 96  1  0
 96 97  1  0
 96 95  1  0
 98101  1  1
 98 99  1  0
100 98  1  0
M  ISO  4  10 100  18 100  60 101  61 101
M  END
>  <TORSDO>  (74) 
F 21

>  <SCORE>  (74) 
-7.068

>  <name>  (74) 
74

>  <ligand_id>  (74) 
74

>  <original_smiles>  (74) 
[H]c1c([H])c([H])c2c(c1[H])C([H])([H])C([H])([H])C([H])([H])C2([H])N([H])C(=O)C1([H])N(C(=O)C([H])(N([H])C(=O)C([H])(N([H])C([H])([H])[H])C([H])([H])[H])C(C([H])([H])[H])(C([H])([H])[H])C([H])([H])[H])C([H])([H])c2c([H])c(OC([H])([H])c3c([H])c(C([H])([H])OC4([H])C([H])([H])C([H])(C([H])([H])[H])C([H])(C([H])([H])[H])C([H])(N([H])C(=O)N5C([H])([H])C([H])([H])C([H])([H])C([H])(n6nc(-c7c([H])c([H])c(Oc8c([H])c([H])c(F)c([H])c8F)c([H])c7[H])c(C(=O)N([H])[H])c6N([H])[H])C5([H])[H])C4([H])[N+]([H])([H])[H])c([H])c([H])c3C([H])([H])[H])c([H])c([H])c2C1([H])[H]

>  <smiles>  (74) 
[H]c1c([H])c([H])c2c(c1[H])C([H])([H])C([H])([H])C([H])([H])C2([H])N([H])C(=O)C1([H])N(C(=O)C([H])(N([H])C(=O)C([H])(N([H])C([H])([H])[H])C([H])([H])[H])C(C([H])([H])[H])(C([H])([H])[H])C([H])([H])[H])C([H])([H])c2c([H])c(OC([H])([H])c3c([H])c(C([H])([H])OC4([H])C([H])([H])C([H])(C([H])([H])[H])C([H])(C([H])([H])[H])C([H])(N([H])C(=O)N5C([H])([H])C([H])([H])C([H])([H])C([H])(n6nc(-c7c([H])c([H])c(Oc8c([H])c([H])c(F)c([H])c8F)c([H])c7[H])c(C(=O)N([H])[H])c6N([H])[H])C5([H])[H])C4([H])[N+]([H])([H])[H])c([H])c([H])c3C([H])([H])[H])c([H])c([H])c2C1([H])[H]

$$$$
75:0:0
     RDKit          3D

 95104  0  0  1  0  0  0  0  0999 V2000
  -29.3200  -23.5570   22.1180 C   0  0  0  0  0  0  0  0  0  0  0  0
  -29.2580  -22.1400   21.9470 C   0  0  0  0  0  0  0  0  0  0  0  0
  -29.1490  -24.4250   20.9970 C   0  0  0  0  0  0  0  0  0  0  0  0
  -28.9750  -21.6020   20.6650 C   0  0  0  0  0  0  0  0  0  0  0  0
  -29.0550  -23.7730   19.7350 C   0  0  0  0  0  0  0  0  0  0  0  0
  -29.5680  -24.1380   23.5140 C   0  0  0  0  0  1  0  0  0  0  0  0
  -29.4500  -21.2070   23.1430 C   0  0  0  0  0  1  0  0  0  0  0  0
  -29.0330  -24.5310   18.4230 C   0  0  0  0  0  1  0  0  0  0  0  0
  -28.9670  -22.4210   19.5840 N   0  0  0  0  0  0  0  0  0  0  0  0
  -27.2750  -20.0600   19.4950 C   0  0  0  0  0  1  0  0  0  0  0  0
  -28.4780  -20.1260   20.4590 C   0  0  0  0  0  3  0  0  0  0  0  0
  -31.0410  -14.7990   19.8570 C   0  0  0  0  0  0  0  0  0  0  0  0
  -30.7340  -12.5130   18.9610 C   0  0  0  0  0  2  0  0  0  0  0  0
  -29.7440  -12.5740   17.7790 C   0  0  0  0  0  2  0  0  0  0  0  0
  -28.2930  -12.4560   18.2850 C   0  0  0  0  0  2  0  0  0  0  0  0
  -27.9900  -13.3980   19.4830 C   0  0  0  0  0  3  0  0  0  0  0  0
  -29.0990  -13.3300   20.5550 C   0  0  0  0  0  2  0  0  0  0  0  0
  -30.3750  -13.6070   19.8840 N   0  0  0  0  0  0  0  0  0  0  0  0
  -32.1890  -14.8740   19.4060 O   0  0  0  0  0  0  0  0  0  0  0  0
  -29.4070  -18.1270   18.9600 C   0  0  0  0  0  2  0  0  0  0  0  0
  -29.3520  -17.8560   21.3980 C   0  0  0  0  0  2  0  0  0  0  0  0
  -30.4120  -16.9410   18.8920 C   0  0  0  0  0  2  0  0  0  0  0  0
  -30.3360  -16.6510   21.2910 C   0  0  0  0  0  2  0  0  0  0  0  0
  -29.5080  -18.9290   20.2800 C   0  0  0  0  0  3  0  0  0  0  0  0
  -30.2980  -15.9480   19.9920 N   0  0  0  0  0  0  0  0  0  0  0  0
  -25.6710  -14.0360   20.3820 C   0  0  0  0  0  0  0  0  0  0  0  0
  -24.6090  -13.2820   20.7990 C   0  0  0  0  0  0  0  0  0  0  0  0
  -25.0250  -11.9190   20.6900 C   0  0  0  0  0  0  0  0  0  0  0  0
  -26.6700  -13.1360   20.0490 N   0  0  0  0  0  0  0  0  0  0  0  0
  -26.2910  -11.8550   20.2920 N   0  0  0  0  0  0  0  0  0  0  0  0
  -24.2750  -10.6710   20.8860 C   0  0  0  0  0  0  0  0  0  0  0  0
  -24.6810   -9.7050   21.8300 C   0  0  0  0  0  3  0  0  0  0  0  0
  -23.9310   -8.5240   22.0150 C   0  0  0  0  0  3  0  0  0  0  0  0
  -22.7590   -8.3010   21.2540 C   0  0  0  0  0  0  0  0  0  0  0  0
  -22.3700   -9.2570   20.2990 C   0  0  0  0  0  3  0  0  0  0  0  0
  -23.1210  -10.4290   20.1130 C   0  0  0  0  0  3  0  0  0  0  0  0
  -21.9820   -7.1710   21.3470 O   0  0  0  0  0  0  0  0  0  0  0  0
  -21.8130   -6.5090   22.5370 C   0  0  0  0  0  0  0  0  0  0  0  0
  -21.3020   -7.1560   23.6840 C   0  0  0  0  0  3  0  0  0  0  0  0
  -21.0810   -6.4230   24.8670 C   0  0  0  0  0  3  0  0  0  0  0  0
  -21.3580   -5.0430   24.9020 C   0  0  0  0  0  0  0  0  0  0  0  0
  -21.8620   -4.3950   23.7600 C   0  0  0  0  0  3  0  0  0  0  0  0
  -22.0860   -5.1260   22.5800 C   0  0  0  0  0  0  0  0  0  0  0  0
  -22.5510   -4.4930   21.4760 F   0  0  0  0  0  0  0  0  0  0  0  0
  -21.1380   -4.3350   26.0350 F   0  0  0  0  0  0  0  0  0  0  0  0
  -23.2480  -13.7880   21.1830 C   0  0  0  0  0  0  0  0  0  0  0  0
  -22.5710  -13.0930   22.0900 N   0  0  0  0  0  0  0  0  0  0  0  0
  -22.8000  -14.8340   20.7140 O   0  0  0  0  0  0  0  0  0  0  0  0
  -22.9480  -12.2460   22.4890 H   0  0  0  0  0  0  0  0  0  0  0  0
  -21.6600  -13.4120   22.3890 H   0  0  0  0  0  0  0  0  0  0  0  0
  -25.8650  -15.4080   20.2390 N   0  0  0  0  0  0  0  0  0  0  0  0
  -25.1330  -16.0820   20.4310 H   0  0  0  0  0  0  0  0  0  0  0  0
  -26.7130  -15.8300   19.8850 H   0  0  0  0  0  0  0  0  0  0  0  0
  -29.0450  -25.9760   21.2460 C   0  0  0  0  0  2  0  0  0  0  0  0
  -28.8620  -26.9120   20.1560 O   0  0  0  0  0  0  0  0  0  0  0  0
  -24.6800  -31.8760   23.2820 C   0  0  0  0  0  0  0  0  0  0  0  0
  -27.6940  -27.6610   20.1780 C   0  0  0  0  0  0  0  0  0  0  0  0
  -23.6250  -30.4580   21.5550 C   0  0  0  0  0  3  0  0  0  0  0  0
  -25.2220  -29.0610   20.1390 C   0  0  0  0  0  0  0  0  0  0  0  0
  -26.1340  -30.9660   21.4660 C   0  0  0  0  0  2  0  0  0  0  0  0
  -26.3300  -29.6190   20.7920 C   0  0  0  0  0  0  0  0  0  0  0  0
  -27.5710  -28.9270   20.8130 C   0  0  0  0  0  3  0  0  0  0  0  0
  -26.5690  -27.1350   19.5130 C   0  0  0  0  0  3  0  0  0  0  0  0
  -25.3400  -27.8180   19.4960 C   0  0  0  0  0  3  0  0  0  0  0  0
  -23.9260  -29.8410   20.1640 C   0  0  0  0  0  2  0  0  0  0  0  0
  -24.8290  -31.1150   22.1600 N   0  0  0  0  0  0  0  0  0  0  0  0
  -23.5650  -32.0660   23.7870 O   0  0  0  0  0  0  0  0  0  0  0  0
  -23.0010  -29.3680   22.4580 C   0  0  0  0  0  0  0  0  0  0  0  0
  -21.6920  -29.1210   22.2850 N   0  0  0  0  0  0  0  0  0  0  0  0
  -23.6940  -28.7500   23.2700 O   0  0  0  0  0  0  0  0  0  0  0  0
  -21.1910  -29.6750   21.6030 H   0  0  0  0  0  0  0  0  0  0  0  0
  -18.3710  -27.7400   22.6550 C   0  0  0  0  0  0  0  0  0  0  0  0
  -20.9070  -28.1120   22.9960 C   0  0  0  0  0  3  0  0  0  0  0  0
  -21.0920  -26.7130   22.3630 C   0  0  0  0  0  2  0  0  0  0  0  0
  -20.0290  -26.3810   21.3100 C   0  0  0  0  0  2  0  0  0  0  0  0
  -18.6280  -26.4330   21.9250 C   0  0  0  0  0  2  0  0  0  0  0  0
  -19.4410  -28.5360   23.1420 C   0  0  0  0  0  0  0  0  0  0  0  0
  -19.1470  -29.7620   23.7800 C   0  0  0  0  0  3  0  0  0  0  0  0
  -17.8150  -30.1910   23.9380 C   0  0  0  0  0  3  0  0  0  0  0  0
  -16.7590  -29.3900   23.4670 C   0  0  0  0  0  3  0  0  0  0  0  0
  -17.0390  -28.1670   22.8330 C   0  0  0  0  0  3  0  0  0  0  0  0
  -25.9020  -32.5640   23.9670 C   0  0  0  0  0  3  0  0  0  0  0  0
  -25.5220  -33.9520   24.2590 N   0  0  0  0  0  0  0  0  0  0  0  0
  -25.8470  -35.0060   23.4980 C   0  0  0  0  0  0  0  0  0  0  0  0
  -26.5690  -34.9140   22.5020 O   0  0  0  0  0  0  0  0  0  0  0  0
  -24.8860  -34.0950   25.0300 H   0  0  0  0  0  0  0  0  0  0  0  0
  -24.0660  -36.7180   23.0280 C   0  0  0  0  0  1  0  0  0  0  0  0
  -25.2800  -36.3790   23.9080 C   0  0  0  0  0  3  0  0  0  0  0  0
  -27.3320  -37.3630   24.8280 C   0  0  0  0  0  1  0  0  0  0  0  0
  -26.2730  -37.4730   23.8290 N   0  0  0  0  0  0  0  0  0  0  0  0
  -25.8220  -38.3760   23.9450 H   0  0  0  0  0  0  0  0  0  0  0  0
  -26.3740  -31.8270   25.2800 C   0  0  1  0  0  0  0  0  0  0  0  0
  -25.2280  -31.5490   26.2800 C   0  0  0  0  0  1  0  0  0  0  0  0
  -27.0410  -30.4740   24.9400 C   0  0  0  0  0  1  0  0  0  0  0  0
  -27.4460  -32.6780   26.0020 C   0  0  0  0  0  1  0  0  0  0  0  0
  1  6  1  0
  2  1  1  0
  2  7  1  0
  3 54  1  0
  3  1  2  0
  4  2  2  0
  5  3  1  0
  8  5  1  0
  9  5  2  0
  9  4  1  0
 11 10  1  0
 11  4  1  0
 12 18  1  0
 12 25  1  0
 13 18  1  0
 14 15  1  0
 14 13  1  0
 16 15  1  0
 16 29  1  0
 16 17  1  0
 18 17  1  0
 19 12  2  0
 20 24  1  0
 22 20  1  0
 22 25  1  0
 23 21  1  0
 24 11  1  0
 24 21  1  0
 25 23  1  0
 26 27  2  0
 27 46  1  0
 28 27  1  0
 28 31  1  0
 29 30  1  0
 29 26  1  0
 30 28  2  0
 31 32  1  0
 32 33  2  0
 34 37  1  0
 34 33  1  0
 35 34  2  0
 36 35  1  0
 36 31  2  0
 37 38  1  0
 38 43  2  0
 38 39  1  0
 39 40  2  0
 40 41  1  0
 41 45  1  0
 42 41  2  0
 43 42  1  0
 44 43  1  0
 46 47  1  0
 47 50  1  0
 47 49  1  0
 48 46  2  0
 51 26  1  0
 51 52  1  0
 53 51  1  0
 55 57  1  0
 55 54  1  0
 56 67  2  0
 57 62  1  0
 58 66  1  0
 58 68  1  0
 59 65  1  0
 59 61  1  0
 60 66  1  0
 61 62  2  0
 61 60  1  0
 63 57  2  0
 64 63  1  0
 64 59  2  0
 65 58  1  0
 66 56  1  0
 68 70  2  0
 69 68  1  0
 71 69  1  0
 72 81  2  0
 72 77  1  0
 73 69  1  0
 73 77  1  0
 74 73  1  0
 75 76  1  0
 75 74  1  0
 76 72  1  0
 77 78  2  0
 78 79  1  0
 80 79  2  0
 81 80  1  0
 82 56  1  0
 82 83  1  0
 82 92  1  0
 83 86  1  0
 84 88  1  0
 84 83  1  0
 85 84  2  0
 88 87  1  0
 90 88  1  0
 90 91  1  0
 90 89  1  0
 92 95  1  1
 92 93  1  0
 94 92  1  0
M  ISO  4  12 100  25 100  54 101  55 101
M  END
>  <TORSDO>  (75) 
F 18

>  <SCORE>  (75) 
-13.598

>  <name>  (75) 
75

>  <ligand_id>  (75) 
75

>  <original_smiles>  (75) 
[H]c1c([H])c([H])c2c(c1[H])C([H])([H])C([H])([H])C([H])([H])C2([H])N([H])C(=O)C1([H])N(C(=O)C([H])(N([H])C(=O)C([H])(N([H])C([H])([H])[H])C([H])([H])[H])C(C([H])([H])[H])(C([H])([H])[H])C([H])([H])[H])C([H])([H])c2c([H])c(OC([H])([H])c3c(C([H])([H])[H])nc(C([H])(C([H])([H])[H])C4([H])C([H])([H])C([H])([H])N(C(=O)N5C([H])([H])C([H])([H])C([H])([H])C([H])(n6nc(-c7c([H])c([H])c(Oc8c([H])c([H])c(F)c([H])c8F)c([H])c7[H])c(C(=O)N([H])[H])c6N([H])[H])C5([H])[H])C([H])([H])C4([H])[H])c(C([H])([H])[H])c3C([H])([H])[H])c([H])c([H])c2C1([H])[H]

>  <smiles>  (75) 
[H]c1c([H])c([H])c2c(c1[H])C([H])([H])C([H])([H])C([H])([H])C2([H])N([H])C(=O)C1([H])N(C(=O)C([H])(N([H])C(=O)C([H])(N([H])C([H])([H])[H])C([H])([H])[H])C(C([H])([H])[H])(C([H])([H])[H])C([H])([H])[H])C([H])([H])c2c([H])c(OC([H])([H])c3c(C([H])([H])[H])nc(C([H])(C([H])([H])[H])C4([H])C([H])([H])C([H])([H])N(C(=O)N5C([H])([H])C([H])([H])C([H])([H])C([H])(n6nc(-c7c([H])c([H])c(Oc8c([H])c([H])c(F)c([H])c8F)c([H])c7[H])c(C(=O)N([H])[H])c6N([H])[H])C5([H])[H])C([H])([H])C4([H])[H])c(C([H])([H])[H])c3C([H])([H])[H])c([H])c([H])c2C1([H])[H]

$$$$
76:0:0
     RDKit          3D

 94103  0  0  1  0  0  0  0  0999 V2000
  -29.4680  -23.3180   19.1570 C   0  0  0  0  0  0  0  0  0  0  0  0
  -28.9620  -23.1210   21.5010 C   0  0  0  0  0  0  0  0  0  0  0  0
  -29.0190  -23.9800   20.3450 C   0  0  0  0  0  0  0  0  0  0  0  0
  -29.7920  -21.8980   19.1290 C   0  0  0  0  0  0  0  0  0  0  0  0
  -29.3500  -21.7250   21.4880 C   0  0  0  0  0  0  0  0  0  0  0  0
  -29.7470  -21.0440   20.2890 C   0  0  0  0  0  0  0  0  0  0  0  0
  -29.5820  -24.1520   17.8860 C   0  0  0  0  0  1  0  0  0  0  0  0
  -28.4610  -23.7170   22.8250 C   0  0  0  0  0  1  0  0  0  0  0  0
  -30.1980  -21.2720   17.7950 C   0  0  0  0  0  1  0  0  0  0  0  0
  -29.3270  -20.9640   22.8160 C   0  0  0  0  0  1  0  0  0  0  0  0
  -31.3740  -15.2660   20.2720 C   0  0  0  0  0  0  0  0  0  0  0  0
  -31.1120  -12.9440   19.3710 C   0  0  0  0  0  2  0  0  0  0  0  0
  -30.2120  -12.9180   18.1210 C   0  0  0  0  0  2  0  0  0  0  0  0
  -28.7400  -12.7380   18.5340 C   0  0  0  0  0  2  0  0  0  0  0  0
  -28.3260  -13.6940   19.6830 C   0  0  0  0  0  3  0  0  0  0  0  0
  -29.3670  -13.7390   20.8260 C   0  0  0  0  0  2  0  0  0  0  0  0
  -30.6600  -14.0790   20.2210 N   0  0  0  0  0  0  0  0  0  0  0  0
  -32.5810  -15.1980   20.0190 O   0  0  0  0  0  0  0  0  0  0  0  0
  -31.2170  -19.1110   21.0160 C   0  0  0  0  0  2  0  0  0  0  0  0
  -29.0370  -18.5710   20.1640 C   0  0  0  0  0  2  0  0  0  0  0  0
  -31.7580  -17.7110   20.5500 C   0  0  0  0  0  2  0  0  0  0  0  0
  -29.4710  -17.0320   20.0110 C   0  0  0  0  0  2  0  0  0  0  0  0
  -30.0880  -19.6150   20.2250 N   0  0  0  0  0  0  0  0  0  0  0  0
  -30.8130  -16.5500   20.4600 N   0  0  0  0  0  0  0  0  0  0  0  0
  -25.9460  -14.3020   20.4060 C   0  0  0  0  0  0  0  0  0  0  0  0
  -24.8690  -13.5370   20.7590 C   0  0  0  0  0  0  0  0  0  0  0  0
  -25.3190  -12.1810   20.7170 C   0  0  0  0  0  0  0  0  0  0  0  0
  -26.9810  -13.4130   20.1680 N   0  0  0  0  0  0  0  0  0  0  0  0
  -26.6120  -12.1320   20.4220 N   0  0  0  0  0  0  0  0  0  0  0  0
  -24.5760  -10.9240   20.8810 C   0  0  0  0  0  0  0  0  0  0  0  0
  -24.9190   -9.9900   21.8840 C   0  0  0  0  0  3  0  0  0  0  0  0
  -24.1760   -8.7990   22.0340 C   0  0  0  0  0  3  0  0  0  0  0  0
  -23.0780   -8.5350   21.1830 C   0  0  0  0  0  0  0  0  0  0  0  0
  -22.7550   -9.4570   20.1720 C   0  0  0  0  0  3  0  0  0  0  0  0
  -23.4980  -10.6400   20.0190 C   0  0  0  0  0  3  0  0  0  0  0  0
  -22.3140   -7.3940   21.2410 O   0  0  0  0  0  0  0  0  0  0  0  0
  -22.0220   -6.7830   22.4340 C   0  0  0  0  0  0  0  0  0  0  0  0
  -21.3170   -7.4500   23.4610 C   0  0  0  0  0  3  0  0  0  0  0  0
  -20.9780   -6.7630   24.6430 C   0  0  0  0  0  3  0  0  0  0  0  0
  -21.3340   -5.4090   24.7970 C   0  0  0  0  0  0  0  0  0  0  0  0
  -22.0300   -4.7420   23.7750 C   0  0  0  0  0  3  0  0  0  0  0  0
  -22.3710   -5.4270   22.5950 C   0  0  0  0  0  0  0  0  0  0  0  0
  -23.0240   -4.7730   21.6050 F   0  0  0  0  0  0  0  0  0  0  0  0
  -21.0000   -4.7470   25.9290 F   0  0  0  0  0  0  0  0  0  0  0  0
  -23.4760  -14.0280   21.0180 C   0  0  0  0  0  0  0  0  0  0  0  0
  -22.7380  -13.3500   21.8890 N   0  0  0  0  0  0  0  0  0  0  0  0
  -23.0500  -15.0510   20.4820 O   0  0  0  0  0  0  0  0  0  0  0  0
  -23.0930  -12.5230   22.3440 H   0  0  0  0  0  0  0  0  0  0  0  0
  -21.8020  -13.6640   22.1040 H   0  0  0  0  0  0  0  0  0  0  0  0
  -26.1220  -15.6720   20.2390 N   0  0  0  0  0  0  0  0  0  0  0  0
  -25.3550  -16.3270   20.3450 H   0  0  0  0  0  0  0  0  0  0  0  0
  -26.9630  -16.1010   19.8780 H   0  0  0  0  0  0  0  0  0  0  0  0
  -28.4880  -25.5060   20.4930 C   0  0  0  0  0  2  0  0  0  0  0  0
  -28.6270  -26.6840   19.5600 O   0  0  0  0  0  0  0  0  0  0  0  0
  -24.6530  -31.6900   23.0420 C   0  0  0  0  0  0  0  0  0  0  0  0
  -27.5200  -27.5660   19.5840 C   0  0  0  0  0  0  0  0  0  0  0  0
  -23.5230  -30.3380   21.3170 C   0  0  0  0  0  3  0  0  0  0  0  0
  -25.0550  -29.0320   19.7330 C   0  0  0  0  0  0  0  0  0  0  0  0
  -26.0320  -30.8570   21.1190 C   0  0  0  0  0  2  0  0  0  0  0  0
  -26.2030  -29.5440   20.3540 C   0  0  0  0  0  0  0  0  0  0  0  0
  -27.4420  -28.8250   20.2710 C   0  0  0  0  0  3  0  0  0  0  0  0
  -26.3530  -27.1400   18.9140 C   0  0  0  0  0  3  0  0  0  0  0  0
  -25.1360  -27.8400   18.9990 C   0  0  0  0  0  3  0  0  0  0  0  0
  -23.7560  -29.8000   19.8820 C   0  0  0  0  0  2  0  0  0  0  0  0
  -24.7540  -30.9770   21.8830 N   0  0  0  0  0  0  0  0  0  0  0  0
  -23.5650  -31.8370   23.6180 O   0  0  0  0  0  0  0  0  0  0  0  0
  -22.9660  -29.1970   22.2030 C   0  0  0  0  0  0  0  0  0  0  0  0
  -21.6540  -28.9220   22.0880 N   0  0  0  0  0  0  0  0  0  0  0  0
  -23.7100  -28.5650   22.9570 O   0  0  0  0  0  0  0  0  0  0  0  0
  -21.1060  -29.4890   21.4540 H   0  0  0  0  0  0  0  0  0  0  0  0
  -18.3980  -27.4060   22.5400 C   0  0  0  0  0  0  0  0  0  0  0  0
  -20.9310  -27.8630   22.7950 C   0  0  0  0  0  3  0  0  0  0  0  0
  -21.1420  -26.4930   22.1120 C   0  0  0  0  0  2  0  0  0  0  0  0
  -20.0520  -26.1530   21.0900 C   0  0  0  0  0  2  0  0  0  0  0  0
  -18.6760  -26.1310   21.7610 C   0  0  0  0  0  2  0  0  0  0  0  0
  -19.4570  -28.2280   23.0120 C   0  0  0  0  0  0  0  0  0  0  0  0
  -19.1430  -29.4170   23.7020 C   0  0  0  0  0  3  0  0  0  0  0  0
  -17.8030  -29.7900   23.9240 C   0  0  0  0  0  3  0  0  0  0  0  0
  -16.7600  -28.9660   23.4680 C   0  0  0  0  0  3  0  0  0  0  0  0
  -17.0590  -27.7750   22.7820 C   0  0  0  0  0  3  0  0  0  0  0  0
  -25.8970  -32.3740   23.6900 C   0  0  0  0  0  3  0  0  0  0  0  0
  -25.5040  -33.7390   24.0720 N   0  0  0  0  0  0  0  0  0  0  0  0
  -25.7870  -34.8400   23.3640 C   0  0  0  0  0  0  0  0  0  0  0  0
  -26.4750  -34.8180   22.3390 O   0  0  0  0  0  0  0  0  0  0  0  0
  -24.8900  -33.8250   24.8690 H   0  0  0  0  0  0  0  0  0  0  0  0
  -23.9760  -36.5600   23.0540 C   0  0  0  0  0  1  0  0  0  0  0  0
  -25.2190  -36.1800   23.8740 C   0  0  0  0  0  3  0  0  0  0  0  0
  -27.2820  -37.1360   24.8010 C   0  0  0  0  0  1  0  0  0  0  0  0
  -26.1980  -37.2890   23.8350 N   0  0  0  0  0  0  0  0  0  0  0  0
  -25.7400  -38.1800   24.0100 H   0  0  0  0  0  0  0  0  0  0  0  0
  -26.4570  -31.5880   24.9390 C   0  0  1  0  0  0  0  0  0  0  0  0
  -25.3810  -31.2560   25.9990 C   0  0  0  0  0  1  0  0  0  0  0  0
  -27.1130  -30.2570   24.5050 C   0  0  0  0  0  1  0  0  0  0  0  0
  -27.5630  -32.4220   25.6280 C   0  0  0  0  0  1  0  0  0  0  0  0
  1  3  1  0
  2  8  1  0
  3 53  1  0
  3  2  2  0
  4  1  2  0
  4  6  1  0
  5  2  1  0
  5 10  1  0
  6  5  2  0
  7  1  1  0
  9  4  1  0
 11 24  1  0
 12 17  1  0
 13 14  1  0
 13 12  1  0
 15 14  1  0
 15 28  1  0
 15 16  1  0
 17 11  1  0
 17 16  1  0
 18 11  2  0
 20 23  1  0
 21 19  1  0
 22 20  1  0
 22 24  1  0
 23  6  1  0
 23 19  1  0
 24 21  1  0
 25 26  2  0
 26 45  1  0
 27 26  1  0
 27 30  1  0
 28 25  1  0
 28 29  1  0
 29 27  2  0
 30 31  1  0
 31 32  2  0
 33 36  1  0
 33 32  1  0
 34 33  2  0
 35 34  1  0
 35 30  2  0
 36 37  1  0
 37 42  2  0
 37 38  1  0
 38 39  2  0
 39 40  1  0
 40 44  1  0
 41 40  2  0
 42 41  1  0
 43 42  1  0
 45 46  1  0
 46 49  1  0
 46 48  1  0
 47 45  2  0
 50 51  1  0
 50 25  1  0
 52 50  1  0
 54 56  1  0
 54 53  1  0
 55 66  2  0
 56 61  1  0
 57 65  1  0
 57 67  1  0
 58 64  1  0
 58 60  1  0
 59 65  1  0
 60 59  1  0
 61 60  2  0
 62 63  1  0
 62 56  2  0
 63 58  2  0
 64 57  1  0
 65 55  1  0
 67 69  2  0
 68 67  1  0
 70 68  1  0
 71 80  2  0
 71 76  1  0
 72 68  1  0
 72 76  1  0
 73 72  1  0
 74 75  1  0
 74 73  1  0
 75 71  1  0
 76 77  2  0
 77 78  1  0
 79 78  2  0
 80 79  1  0
 81 55  1  0
 81 82  1  0
 81 91  1  0
 82 85  1  0
 83 87  1  0
 83 82  1  0
 84 83  2  0
 87 86  1  0
 89 87  1  0
 89 90  1  0
 89 88  1  0
 91 94  1  1
 91 92  1  0
 93 91  1  0
M  ISO  4  11 100  24 100  53 101  54 101
M  END
>  <TORSDO>  (76) 
F 17

>  <SCORE>  (76) 
-12.470

>  <name>  (76) 
76

>  <ligand_id>  (76) 
76

>  <original_smiles>  (76) 
[H]c1c([H])c([H])c2c(c1[H])C([H])([H])C([H])([H])C([H])([H])C2([H])N([H])C(=O)C1([H])N(C(=O)C([H])(N([H])C(=O)C([H])(N([H])C([H])([H])[H])C([H])([H])[H])C(C([H])([H])[H])(C([H])([H])[H])C([H])([H])[H])C([H])([H])c2c([H])c(OC([H])([H])c3c(C([H])([H])[H])c(C([H])([H])[H])c(N4C([H])([H])C([H])([H])N(C(=O)N5C([H])([H])C([H])([H])C([H])([H])C([H])(n6nc(-c7c([H])c([H])c(Oc8c([H])c([H])c(F)c([H])c8F)c([H])c7[H])c(C(=O)N([H])[H])c6N([H])[H])C5([H])[H])C([H])([H])C4([H])[H])c(C([H])([H])[H])c3C([H])([H])[H])c([H])c([H])c2C1([H])[H]

>  <smiles>  (76) 
[H]c1c([H])c([H])c2c(c1[H])C([H])([H])C([H])([H])C([H])([H])C2([H])N([H])C(=O)C1([H])N(C(=O)C([H])(N([H])C(=O)C([H])(N([H])C([H])([H])[H])C([H])([H])[H])C(C([H])([H])[H])(C([H])([H])[H])C([H])([H])[H])C([H])([H])c2c([H])c(OC([H])([H])c3c(C([H])([H])[H])c(C([H])([H])[H])c(N4C([H])([H])C([H])([H])N(C(=O)N5C([H])([H])C([H])([H])C([H])([H])C([H])(n6nc(-c7c([H])c([H])c(Oc8c([H])c([H])c(F)c([H])c8F)c([H])c7[H])c(C(=O)N([H])[H])c6N([H])[H])C5([H])[H])C([H])([H])C4([H])[H])c(C([H])([H])[H])c3C([H])([H])[H])c([H])c([H])c2C1([H])[H]

$$$$
77:0:0
     RDKit          3D

 95104  0  0  1  0  0  0  0  0999 V2000
  -29.9700  -19.6610   22.5650 C   0  0  0  0  0  3  0  0  0  0  0  0
  -29.6400  -18.8370   21.4770 C   0  0  0  0  0  0  0  0  0  0  0  0
  -30.2200  -19.0430   20.1960 C   0  0  0  0  0  0  0  0  0  0  0  0
  -30.9250  -20.6750   22.3940 C   0  0  0  0  0  0  0  0  0  0  0  0
  -31.3040  -21.0450   21.0850 C   0  0  0  0  0  0  0  0  0  0  0  0
  -30.5810  -20.5100   19.9810 C   0  0  0  0  0  0  0  0  0  0  0  0
  -28.7130  -17.6610   21.7040 C   0  0  0  0  0  2  0  0  0  0  0  0
  -28.0710  -17.1580   20.3980 C   0  0  0  0  0  2  0  0  0  0  0  0
  -28.8670  -17.4810   19.0970 C   0  0  0  0  0  2  0  0  0  0  0  0
  -30.3970  -17.5990   19.3330 C   0  0  0  0  0  3  0  0  0  0  0  0
  -31.4770  -21.3980   23.6130 C   0  0  0  0  0  1  0  0  0  0  0  0
  -32.4320  -22.0490   20.8880 C   0  0  0  0  0  1  0  0  0  0  0  0
  -31.1740  -14.8110   19.4020 C   0  0  0  0  0  0  0  0  0  0  0  0
  -30.8840  -12.4290   18.5460 C   0  0  0  0  0  2  0  0  0  0  0  0
  -29.8550  -12.3890   17.3890 C   0  0  0  0  0  2  0  0  0  0  0  0
  -28.4180  -12.2660   17.9280 C   0  0  0  0  0  2  0  0  0  0  0  0
  -28.1470  -13.2220   19.1200 C   0  0  0  0  0  3  0  0  0  0  0  0
  -29.2920  -13.2060   20.1610 C   0  0  0  0  0  2  0  0  0  0  0  0
  -30.5340  -13.5630   19.4560 N   0  0  0  0  0  0  0  0  0  0  0  0
  -32.3130  -14.8240   18.9230 O   0  0  0  0  0  0  0  0  0  0  0  0
  -30.4700  -16.0210   19.7130 N   0  0  0  0  0  0  0  0  0  0  0  0
  -29.6300  -15.7820   20.2150 H   0  0  0  0  0  0  0  0  0  0  0  0
  -25.8550  -13.9130   20.0370 C   0  0  0  0  0  0  0  0  0  0  0  0
  -24.7900  -13.2000   20.5050 C   0  0  0  0  0  0  0  0  0  0  0  0
  -25.1700  -11.8270   20.4160 C   0  0  0  0  0  0  0  0  0  0  0  0
  -26.8350  -12.9870   19.7200 N   0  0  0  0  0  0  0  0  0  0  0  0
  -26.4320  -11.7220   20.0070 N   0  0  0  0  0  0  0  0  0  0  0  0
  -24.3780  -10.6120   20.6400 C   0  0  0  0  0  0  0  0  0  0  0  0
  -24.8090   -9.6030   21.5300 C   0  0  0  0  0  3  0  0  0  0  0  0
  -24.0170   -8.4540   21.7480 C   0  0  0  0  0  3  0  0  0  0  0  0
  -22.7810   -8.3080   21.0750 C   0  0  0  0  0  0  0  0  0  0  0  0
  -22.3680   -9.3030   20.1720 C   0  0  0  0  0  3  0  0  0  0  0  0
  -23.1600  -10.4420   19.9520 C   0  0  0  0  0  3  0  0  0  0  0  0
  -21.9600   -7.2150   21.2050 O   0  0  0  0  0  0  0  0  0  0  0  0
  -21.7760   -6.5950   22.4140 C   0  0  0  0  0  0  0  0  0  0  0  0
  -21.2740   -7.2870   23.5380 C   0  0  0  0  0  3  0  0  0  0  0  0
  -21.0360   -6.5960   24.7440 C   0  0  0  0  0  3  0  0  0  0  0  0
  -21.2880   -5.2130   24.8240 C   0  0  0  0  0  0  0  0  0  0  0  0
  -21.7820   -4.5200   23.7040 C   0  0  0  0  0  3  0  0  0  0  0  0
  -22.0230   -5.2100   22.5040 C   0  0  0  0  0  0  0  0  0  0  0  0
  -22.4790   -4.5340   21.4210 F   0  0  0  0  0  0  0  0  0  0  0  0
  -21.0520   -4.5470   25.9780 F   0  0  0  0  0  0  0  0  0  0  0  0
  -23.4550  -13.7610   20.8990 C   0  0  0  0  0  0  0  0  0  0  0  0
  -22.8080  -13.1590   21.8900 N   0  0  0  0  0  0  0  0  0  0  0  0
  -23.0020  -14.7730   20.3640 O   0  0  0  0  0  0  0  0  0  0  0  0
  -23.1880  -12.3420   22.3440 H   0  0  0  0  0  0  0  0  0  0  0  0
  -21.9160  -13.5200   22.1980 H   0  0  0  0  0  0  0  0  0  0  0  0
  -26.0340  -15.2680   19.8180 N   0  0  0  0  0  0  0  0  0  0  0  0
  -25.2980  -15.9420   20.0030 H   0  0  0  0  0  0  0  0  0  0  0  0
  -26.8450  -15.6810   19.3770 H   0  0  0  0  0  0  0  0  0  0  0  0
  -29.9370  -21.5740   19.1750 O   0  0  0  0  0  0  0  0  0  0  0  0
  -29.8180  -23.1010   19.5960 C   0  0  0  0  0  2  0  0  0  0  0  0
  -28.9550  -24.4000   17.5340 C   0  0  0  0  0  1  0  0  0  0  0  0
  -28.7840  -24.3470   19.0600 C   0  0  0  0  0  3  0  0  0  0  0  0
  -28.8020  -25.8660   19.4980 O   0  0  0  0  0  0  0  0  0  0  0  0
  -24.7150  -31.0600   22.8340 C   0  0  0  0  0  0  0  0  0  0  0  0
  -27.6610  -26.7690   19.4830 C   0  0  0  0  0  0  0  0  0  0  0  0
  -23.6230  -29.6760   21.1100 C   0  0  0  0  0  3  0  0  0  0  0  0
  -25.1890  -28.3270   19.5770 C   0  0  0  0  0  0  0  0  0  0  0  0
  -26.1480  -30.1600   20.9580 C   0  0  0  0  0  2  0  0  0  0  0  0
  -26.3330  -28.8240   20.2120 C   0  0  0  0  0  0  0  0  0  0  0  0
  -27.5640  -28.0620   20.1510 C   0  0  0  0  0  3  0  0  0  0  0  0
  -26.4790  -26.3830   18.8150 C   0  0  0  0  0  3  0  0  0  0  0  0
  -25.2770  -27.1240   18.8610 C   0  0  0  0  0  3  0  0  0  0  0  0
  -23.8900  -29.1120   19.6900 C   0  0  0  0  0  2  0  0  0  0  0  0
  -24.8460  -30.3200   21.6890 N   0  0  0  0  0  0  0  0  0  0  0  0
  -23.6140  -31.2170   23.3820 O   0  0  0  0  0  0  0  0  0  0  0  0
  -23.0390  -28.5550   22.0060 C   0  0  0  0  0  0  0  0  0  0  0  0
  -21.7220  -28.3040   21.8990 N   0  0  0  0  0  0  0  0  0  0  0  0
  -23.7740  -27.9150   22.7630 O   0  0  0  0  0  0  0  0  0  0  0  0
  -21.1780  -28.8790   21.2700 H   0  0  0  0  0  0  0  0  0  0  0  0
  -18.4460  -26.8320   22.3830 C   0  0  0  0  0  0  0  0  0  0  0  0
  -20.9870  -27.2570   22.6160 C   0  0  0  0  0  3  0  0  0  0  0  0
  -21.1730  -25.8800   21.9350 C   0  0  0  0  0  2  0  0  0  0  0  0
  -20.0690  -25.5550   20.9220 C   0  0  0  0  0  2  0  0  0  0  0  0
  -18.6990  -25.5530   21.6040 C   0  0  0  0  0  2  0  0  0  0  0  0
  -19.5210  -27.6400   22.8450 C   0  0  0  0  0  0  0  0  0  0  0  0
  -19.2270  -28.8350   23.5380 C   0  0  0  0  0  3  0  0  0  0  0  0
  -17.8950  -29.2250   23.7700 C   0  0  0  0  0  3  0  0  0  0  0  0
  -16.8370  -28.4150   23.3240 C   0  0  0  0  0  3  0  0  0  0  0  0
  -17.1140  -27.2190   22.6360 C   0  0  0  0  0  3  0  0  0  0  0  0
  -25.9400  -31.7610   23.4960 C   0  0  0  0  0  3  0  0  0  0  0  0
  -26.5350  -30.9510   24.7150 C   0  0  1  0  0  0  0  0  0  0  0  0
  -25.4840  -30.5730   25.7840 C   0  0  0  0  0  1  0  0  0  0  0  0
  -27.2020  -29.6410   24.2320 C   0  0  0  0  0  1  0  0  0  0  0  0
  -27.6430  -31.7820   25.4050 C   0  0  0  0  0  1  0  0  0  0  0  0
  -25.5090  -33.0990   23.9330 N   0  0  0  0  0  0  0  0  0  0  0  0
  -25.8150  -34.2430   23.3080 C   0  0  0  0  0  0  0  0  0  0  0  0
  -26.5540  -34.2870   22.3210 O   0  0  0  0  0  0  0  0  0  0  0  0
  -24.8550  -33.1330   24.7000 H   0  0  0  0  0  0  0  0  0  0  0  0
  -24.0060  -35.9670   23.0040 C   0  0  0  0  0  1  0  0  0  0  0  0
  -25.2080  -35.5450   23.8650 C   0  0  0  0  0  3  0  0  0  0  0  0
  -27.2030  -36.4640   24.9650 C   0  0  0  0  0  1  0  0  0  0  0  0
  -26.1750  -36.6620   23.9450 N   0  0  0  0  0  0  0  0  0  0  0  0
  -25.6990  -37.5370   24.1440 H   0  0  0  0  0  0  0  0  0  0  0  0
  2  7  1  0
  2  1  2  0
  3  2  1  0
  4  1  1  0
  4 11  1  0
  5  4  2  0
  6  3  2  0
  6  5  1  0
  8  7  1  0
  9 10  1  0
  9  8  1  0
 10 21  1  0
 10  3  1  0
 12  5  1  0
 13 19  1  0
 13 21  1  0
 14 19  1  0
 15 16  1  0
 15 14  1  0
 17 16  1  0
 17 26  1  0
 17 18  1  0
 19 18  1  0
 20 13  2  0
 21 22  1  0
 23 24  2  0
 24 43  1  0
 25 24  1  0
 25 28  1  0
 26 27  1  0
 26 23  1  0
 27 25  2  0
 28 29  1  0
 29 30  2  0
 31 34  1  0
 31 30  1  0
 32 31  2  0
 33 32  1  0
 33 28  2  0
 34 35  1  0
 35 40  2  0
 35 36  1  0
 36 37  2  0
 37 38  1  0
 38 42  1  0
 39 38  2  0
 40 39  1  0
 41 40  1  0
 43 44  1  0
 44 47  1  0
 44 46  1  0
 45 43  2  0
 48 49  1  0
 48 23  1  0
 50 48  1  0
 51 52  1  0
 51  6  1  0
 54 53  1  0
 54 55  1  0
 54 52  1  0
 56 67  2  0
 57 55  1  0
 57 62  1  0
 58 66  1  0
 58 68  1  0
 59 65  1  0
 59 61  1  0
 60 66  1  0
 61 60  1  0
 62 61  2  0
 63 64  1  0
 63 57  2  0
 64 59  2  0
 65 58  1  0
 66 56  1  0
 68 70  2  0
 69 68  1  0
 71 69  1  0
 72 81  2  0
 72 77  1  0
 73 69  1  0
 73 77  1  0
 74 73  1  0
 75 76  1  0
 75 74  1  0
 76 72  1  0
 77 78  2  0
 78 79  1  0
 80 79  2  0
 81 80  1  0
 82 56  1  0
 82 87  1  0
 82 83  1  0
 83 86  1  1
 83 84  1  0
 85 83  1  0
 87 90  1  0
 88 92  1  0
 88 87  1  0
 89 88  2  0
 92 91  1  0
 92 94  1  0
 94 95  1  0
 94 93  1  0
M  ISO  4  13 100  21 100  54 101  55 101
M  END
>  <TORSDO>  (77) 
F 19

>  <SCORE>  (77) 
-9.335

>  <name>  (77) 
77

>  <ligand_id>  (77) 
77

>  <original_smiles>  (77) 
[H]c1c([H])c([H])c2c(c1[H])C([H])([H])C([H])([H])C([H])([H])C2([H])N([H])C(=O)C1([H])N(C(=O)C([H])(N([H])C(=O)C([H])(N([H])C([H])([H])[H])C([H])([H])[H])C(C([H])([H])[H])(C([H])([H])[H])C([H])([H])[H])C([H])([H])c2c([H])c(OC([H])(C([H])([H])[H])C([H])([H])Oc3c(C([H])([H])[H])c(C([H])([H])[H])c([H])c4c3C([H])(N([H])C(=O)N3C([H])([H])C([H])([H])C([H])([H])C([H])(n5nc(-c6c([H])c([H])c(Oc7c([H])c([H])c(F)c([H])c7F)c([H])c6[H])c(C(=O)N([H])[H])c5N([H])[H])C3([H])[H])C([H])([H])C([H])([H])C4([H])[H])c([H])c([H])c2C1([H])[H]

>  <smiles>  (77) 
[H]c1c([H])c([H])c2c(c1[H])C([H])([H])C([H])([H])C([H])([H])C2([H])N([H])C(=O)C1([H])N(C(=O)C([H])(N([H])C(=O)C([H])(N([H])C([H])([H])[H])C([H])([H])[H])C(C([H])([H])[H])(C([H])([H])[H])C([H])([H])[H])C([H])([H])c2c([H])c(OC([H])(C([H])([H])[H])C([H])([H])Oc3c(C([H])([H])[H])c(C([H])([H])[H])c([H])c4c3C([H])(N([H])C(=O)N3C([H])([H])C([H])([H])C([H])([H])C([H])(n5nc(-c6c([H])c([H])c(Oc7c([H])c([H])c(F)c([H])c7F)c([H])c6[H])c(C(=O)N([H])[H])c5N([H])[H])C3([H])[H])C([H])([H])C([H])([H])C4([H])[H])c([H])c([H])c2C1([H])[H]

$$$$
78:0:0
     RDKit          3D

 94103  0  0  1  0  0  0  0  0999 V2000
  -29.5270  -23.9310   19.0430 C   0  0  0  0  0  3  0  0  0  0  0  0
  -28.8490  -24.4680   20.1660 C   0  0  0  0  0  0  0  0  0  0  0  0
  -29.5780  -22.5290   18.7820 C   0  0  0  0  0  0  0  0  0  0  0  0
  -28.2370  -23.5280   21.0520 C   0  0  0  0  0  0  0  0  0  0  0  0
  -28.2700  -22.1190   20.7820 C   0  0  0  0  0  0  0  0  0  0  0  0
  -28.9520  -21.5930   19.6520 C   0  0  0  0  0  0  0  0  0  0  0  0
  -30.2690  -22.0440   17.5210 C   0  0  0  0  0  1  0  0  0  0  0  0
  -27.5410  -24.0470   22.3100 C   0  0  0  0  0  1  0  0  0  0  0  0
  -27.5440  -21.1450   21.7070 C   0  0  0  0  0  1  0  0  0  0  0  0
  -28.8920  -26.0040   20.5000 C   0  0  0  0  0  2  0  0  0  0  0  0
  -28.6610  -26.9910   19.4560 O   0  0  0  0  0  0  0  0  0  0  0  0
  -24.5810  -31.6930   23.0760 C   0  0  0  0  0  0  0  0  0  0  0  0
  -27.4830  -27.7170   19.5650 C   0  0  0  0  0  0  0  0  0  0  0  0
  -23.4530  -30.3510   21.3330 C   0  0  0  0  0  3  0  0  0  0  0  0
  -24.9900  -29.0670   19.7470 C   0  0  0  0  0  0  0  0  0  0  0  0
  -25.9430  -30.9150   21.1300 C   0  0  0  0  0  2  0  0  0  0  0  0
  -26.1230  -29.6130   20.3650 C   0  0  0  0  0  0  0  0  0  0  0  0
  -27.3760  -28.9470   20.2710 C   0  0  0  0  0  3  0  0  0  0  0  0
  -26.3340  -27.2010   18.9390 C   0  0  0  0  0  3  0  0  0  0  0  0
  -25.0940  -27.8620   19.0280 C   0  0  0  0  0  3  0  0  0  0  0  0
  -23.6860  -29.8210   19.8940 C   0  0  0  0  0  2  0  0  0  0  0  0
  -24.6780  -30.9990   21.9050 N   0  0  0  0  0  0  0  0  0  0  0  0
  -23.4940  -31.8280   23.6550 O   0  0  0  0  0  0  0  0  0  0  0  0
  -22.9050  -29.1990   22.2080 C   0  0  0  0  0  0  0  0  0  0  0  0
  -21.6050  -28.8960   22.0570 N   0  0  0  0  0  0  0  0  0  0  0  0
  -23.6470  -28.5850   22.9790 O   0  0  0  0  0  0  0  0  0  0  0  0
  -21.0600  -29.4510   21.4120 H   0  0  0  0  0  0  0  0  0  0  0  0
  -18.3720  -27.3170   22.4260 C   0  0  0  0  0  0  0  0  0  0  0  0
  -20.8880  -27.8220   22.7460 C   0  0  0  0  0  3  0  0  0  0  0  0
  -21.1430  -26.4570   22.0670 C   0  0  0  0  0  2  0  0  0  0  0  0
  -20.0860  -26.0970   21.0180 C   0  0  0  0  0  2  0  0  0  0  0  0
  -18.6920  -26.0490   21.6540 C   0  0  0  0  0  2  0  0  0  0  0  0
  -19.4020  -28.1590   22.9250 C   0  0  0  0  0  0  0  0  0  0  0  0
  -19.0490  -29.3440   23.6050 C   0  0  0  0  0  3  0  0  0  0  0  0
  -17.6980  -29.6920   23.7920 C   0  0  0  0  0  3  0  0  0  0  0  0
  -16.6830  -28.8490   23.3100 C   0  0  0  0  0  3  0  0  0  0  0  0
  -17.0200  -27.6620   22.6320 C   0  0  0  0  0  3  0  0  0  0  0  0
  -25.8250  -32.3700   23.7300 C   0  0  0  0  0  3  0  0  0  0  0  0
  -25.4370  -33.7350   24.1130 N   0  0  0  0  0  0  0  0  0  0  0  0
  -25.7310  -34.8350   23.4080 C   0  0  0  0  0  0  0  0  0  0  0  0
  -26.4280  -34.8110   22.3880 O   0  0  0  0  0  0  0  0  0  0  0  0
  -24.8210  -33.8240   24.9070 H   0  0  0  0  0  0  0  0  0  0  0  0
  -23.9190  -36.5510   23.0910 C   0  0  0  0  0  1  0  0  0  0  0  0
  -25.1640  -36.1760   23.9130 C   0  0  0  0  0  3  0  0  0  0  0  0
  -27.2270  -37.1360   24.8320 C   0  0  0  0  0  1  0  0  0  0  0  0
  -26.1410  -37.2840   23.8670 N   0  0  0  0  0  0  0  0  0  0  0  0
  -25.6830  -38.1750   24.0400 H   0  0  0  0  0  0  0  0  0  0  0  0
  -26.3800  -31.5780   24.9780 C   0  0  1  0  0  0  0  0  0  0  0  0
  -25.2990  -31.2360   26.0290 C   0  0  0  0  0  1  0  0  0  0  0  0
  -27.0400  -30.2510   24.5340 C   0  0  0  0  0  1  0  0  0  0  0  0
  -27.4820  -32.4070   25.6770 C   0  0  0  0  0  1  0  0  0  0  0  0
  -28.8110  -20.2340   19.3370 O   0  0  0  0  0  0  0  0  0  0  0  0
  -31.4170  -15.1000   19.7970 C   0  0  0  0  0  0  0  0  0  0  0  0
  -31.1420  -12.7780   18.9900 C   0  0  0  0  0  2  0  0  0  0  0  0
  -30.1710  -12.7820   17.7920 C   0  0  0  0  0  2  0  0  0  0  0  0
  -28.7140  -12.6670   18.2810 C   0  0  0  0  0  2  0  0  0  0  0  0
  -28.3830  -13.6530   19.4340 C   0  0  0  0  0  3  0  0  0  0  0  0
  -29.4750  -13.6520   20.5240 C   0  0  0  0  0  2  0  0  0  0  0  0
  -30.7570  -13.9060   19.8600 N   0  0  0  0  0  0  0  0  0  0  0  0
  -32.5990  -15.1520   19.4410 O   0  0  0  0  0  0  0  0  0  0  0  0
  -29.8000  -18.4550   20.7870 C   0  0  0  0  0  2  0  0  0  0  0  0
  -29.7160  -18.1920   18.3550 C   0  0  0  0  0  2  0  0  0  0  0  0
  -30.7660  -17.2200   20.8720 C   0  0  0  0  0  2  0  0  0  0  0  0
  -30.7110  -17.0000   18.4750 C   0  0  0  0  0  2  0  0  0  0  0  0
  -29.8830  -19.2570   19.4610 C   0  0  0  0  0  3  0  0  0  0  0  0
  -30.6550  -16.2480   19.7560 N   0  0  0  0  0  0  0  0  0  0  0  0
  -26.0650  -14.3130   20.3190 C   0  0  0  0  0  0  0  0  0  0  0  0
  -24.9890  -13.5680   20.7190 C   0  0  0  0  0  0  0  0  0  0  0  0
  -25.3930  -12.2020   20.6100 C   0  0  0  0  0  0  0  0  0  0  0  0
  -27.0560  -13.4040   19.9900 N   0  0  0  0  0  0  0  0  0  0  0  0
  -26.6610  -12.1250   20.2270 N   0  0  0  0  0  0  0  0  0  0  0  0
  -24.6270  -10.9620   20.7940 C   0  0  0  0  0  0  0  0  0  0  0  0
  -24.9860  -10.0090   21.7710 C   0  0  0  0  0  3  0  0  0  0  0  0
  -24.2220   -8.8340   21.9420 C   0  0  0  0  0  3  0  0  0  0  0  0
  -23.0840   -8.6030   21.1310 C   0  0  0  0  0  0  0  0  0  0  0  0
  -22.7440   -9.5450   20.1430 C   0  0  0  0  0  3  0  0  0  0  0  0
  -23.5090  -10.7110   19.9720 C   0  0  0  0  0  3  0  0  0  0  0  0
  -22.2970   -7.4800   21.2080 O   0  0  0  0  0  0  0  0  0  0  0  0
  -22.0420   -6.8600   22.4050 C   0  0  0  0  0  0  0  0  0  0  0  0
  -21.3920   -7.5260   23.4660 C   0  0  0  0  0  3  0  0  0  0  0  0
  -21.0870   -6.8300   24.6530 C   0  0  0  0  0  3  0  0  0  0  0  0
  -21.4230   -5.4700   24.7790 C   0  0  0  0  0  0  0  0  0  0  0  0
  -22.0650   -4.8020   23.7210 C   0  0  0  0  0  3  0  0  0  0  0  0
  -22.3710   -5.4950   22.5360 C   0  0  0  0  0  0  0  0  0  0  0  0
  -22.9710   -4.8420   21.5110 F   0  0  0  0  0  0  0  0  0  0  0  0
  -21.1240   -4.7980   25.9150 F   0  0  0  0  0  0  0  0  0  0  0  0
  -23.6310  -14.0880   21.0890 C   0  0  0  0  0  0  0  0  0  0  0  0
  -22.9350  -13.3990   21.9880 N   0  0  0  0  0  0  0  0  0  0  0  0
  -23.1980  -15.1400   20.6190 O   0  0  0  0  0  0  0  0  0  0  0  0
  -23.3000  -12.5470   22.3880 H   0  0  0  0  0  0  0  0  0  0  0  0
  -22.0260  -13.7290   22.2800 H   0  0  0  0  0  0  0  0  0  0  0  0
  -26.2790  -15.6820   20.1860 N   0  0  0  0  0  0  0  0  0  0  0  0
  -25.5550  -16.3670   20.3750 H   0  0  0  0  0  0  0  0  0  0  0  0
  -27.1430  -16.0960   19.8600 H   0  0  0  0  0  0  0  0  0  0  0  0
  1  2  1  0
  2 10  1  0
  2  4  2  0
  3  1  2  0
  3  6  1  0
  4  8  1  0
  5  4  1  0
  5  9  1  0
  6  5  2  0
  7  3  1  0
 11 13  1  0
 11 10  1  0
 12 23  2  0
 13 18  1  0
 14 22  1  0
 14 24  1  0
 15 21  1  0
 15 17  1  0
 16 22  1  0
 17 16  1  0
 18 17  2  0
 19 20  1  0
 19 13  2  0
 20 15  2  0
 21 14  1  0
 22 12  1  0
 24 26  2  0
 25 24  1  0
 27 25  1  0
 28 37  2  0
 28 33  1  0
 29 25  1  0
 29 33  1  0
 30 29  1  0
 31 32  1  0
 31 30  1  0
 32 28  1  0
 33 34  2  0
 34 35  1  0
 36 35  2  0
 37 36  1  0
 38 12  1  0
 38 39  1  0
 38 48  1  0
 39 42  1  0
 40 44  1  0
 40 39  1  0
 41 40  2  0
 44 43  1  0
 46 44  1  0
 46 47  1  0
 46 45  1  0
 48 51  1  1
 48 49  1  0
 50 48  1  0
 52  6  1  0
 53 59  1  0
 54 59  1  0
 55 56  1  0
 55 54  1  0
 57 56  1  0
 57 70  1  0
 57 58  1  0
 59 58  1  0
 60 53  2  0
 61 63  1  0
 62 64  1  0
 62 65  1  0
 64 66  1  0
 65 52  1  0
 65 61  1  0
 66 53  1  0
 66 63  1  0
 67 68  2  0
 68 87  1  0
 69 68  1  0
 69 72  1  0
 70 71  1  0
 70 67  1  0
 71 69  2  0
 72 73  1  0
 73 74  2  0
 75 78  1  0
 75 74  1  0
 76 75  2  0
 77 76  1  0
 77 72  2  0
 78 79  1  0
 79 84  2  0
 79 80  1  0
 80 81  2  0
 81 82  1  0
 82 86  1  0
 83 82  2  0
 84 83  1  0
 85 84  1  0
 87 88  1  0
 88 91  1  0
 88 90  1  0
 89 87  2  0
 92 67  1  0
 92 93  1  0
 94 92  1  0
M  ISO  4  10 101  11 101  53 100  66 100
M  END
>  <TORSDO>  (78) 
F 18

>  <SCORE>  (78) 
-11.311

>  <name>  (78) 
78

>  <ligand_id>  (78) 
78

>  <original_smiles>  (78) 
[H]c1c([H])c([H])c2c(c1[H])C([H])([H])C([H])([H])C([H])([H])C2([H])N([H])C(=O)C1([H])N(C(=O)C([H])(N([H])C(=O)C([H])(N([H])C([H])([H])[H])C([H])([H])[H])C(C([H])([H])[H])(C([H])([H])[H])C([H])([H])[H])C([H])([H])c2c([H])c(OC([H])([H])c3c([H])c(C([H])([H])[H])c(OC4([H])C([H])([H])C([H])([H])N(C(=O)N5C([H])([H])C([H])([H])C([H])([H])C([H])(n6nc(-c7c([H])c([H])c(Oc8c([H])c([H])c(F)c([H])c8F)c([H])c7[H])c(C(=O)N([H])[H])c6N([H])[H])C5([H])[H])C([H])([H])C4([H])[H])c(C([H])([H])[H])c3C([H])([H])[H])c([H])c([H])c2C1([H])[H]

>  <smiles>  (78) 
[H]c1c([H])c([H])c2c(c1[H])C([H])([H])C([H])([H])C([H])([H])C2([H])N([H])C(=O)C1([H])N(C(=O)C([H])(N([H])C(=O)C([H])(N([H])C([H])([H])[H])C([H])([H])[H])C(C([H])([H])[H])(C([H])([H])[H])C([H])([H])[H])C([H])([H])c2c([H])c(OC([H])([H])c3c([H])c(C([H])([H])[H])c(OC4([H])C([H])([H])C([H])([H])N(C(=O)N5C([H])([H])C([H])([H])C([H])([H])C([H])(n6nc(-c7c([H])c([H])c(Oc8c([H])c([H])c(F)c([H])c8F)c([H])c7[H])c(C(=O)N([H])[H])c6N([H])[H])C5([H])[H])C([H])([H])C4([H])[H])c(C([H])([H])[H])c3C([H])([H])[H])c([H])c([H])c2C1([H])[H]

$$$$
79:0:0
     RDKit          3D

 98108  0  0  1  0  0  0  0  0999 V2000
  -29.8550  -22.3360   21.9120 C   0  0  0  0  0  3  0  0  0  0  0  0
  -31.0120  -21.9570   22.6050 C   0  0  0  0  0  3  0  0  0  0  0  0
  -29.4520  -21.6880   20.7230 C   0  0  0  0  0  0  0  0  0  0  0  0
  -30.2710  -20.6110   20.2140 C   0  0  0  0  0  0  0  0  0  0  0  0
  -31.5460  -20.3760   20.8280 C   0  0  0  0  0  0  0  0  0  0  0  0
  -31.8620  -20.9790   22.0650 C   0  0  0  0  0  0  0  0  0  0  0  0
  -28.5890  -20.7050   18.1830 C   0  0  0  0  0  2  0  0  0  0  0  0
  -29.8240  -19.7480   19.0090 C   0  0  0  0  0  3  0  0  0  0  0  0
  -28.1150  -22.2280   20.1310 C   0  0  0  0  0  3  0  0  0  0  0  0
  -26.9110  -21.5840   20.8410 C   0  0  0  0  0  1  0  0  0  0  0  0
  -27.9410  -22.1410   18.6600 N   0  0  1  0  0  4  0  0  0  0  0  0
  -26.9790  -21.8380   18.6240 H   0  0  0  0  0  0  0  0  0  0  0  0
  -30.9700  -17.0620   19.7680 C   0  0  0  0  0  0  0  0  0  0  0  0
  -31.4850  -14.5150   19.8680 C   0  0  0  0  0  2  0  0  0  0  0  0
  -30.8400  -13.6920   18.7240 C   0  0  0  0  0  2  0  0  0  0  0  0
  -29.3850  -13.3160   19.0600 C   0  0  0  0  0  2  0  0  0  0  0  0
  -28.6040  -14.4930   19.6990 C   0  0  0  0  0  3  0  0  0  0  0  0
  -29.4070  -15.2340   20.7860 C   0  0  0  0  0  2  0  0  0  0  0  0
  -30.6280  -15.7280   20.1310 N   0  0  0  0  0  0  0  0  0  0  0  0
  -32.1960  -17.2400   19.7490 O   0  0  0  0  0  0  0  0  0  0  0  0
  -30.0070  -18.0910   19.2880 N   0  0  0  0  0  0  0  0  0  0  0  0
  -29.1000  -17.6590   19.2230 H   0  0  0  0  0  0  0  0  0  0  0  0
  -26.1650  -14.9280   20.3030 C   0  0  0  0  0  0  0  0  0  0  0  0
  -25.1310  -14.0990   20.6340 C   0  0  0  0  0  0  0  0  0  0  0  0
  -25.6780  -12.7780   20.6730 C   0  0  0  0  0  0  0  0  0  0  0  0
  -27.2710  -14.1110   20.1460 N   0  0  0  0  0  0  0  0  0  0  0  0
  -26.9870  -12.8140   20.4390 N   0  0  0  0  0  0  0  0  0  0  0  0
  -25.0150  -11.4800   20.8580 C   0  0  0  0  0  0  0  0  0  0  0  0
  -25.3590  -10.6170   21.9220 C   0  0  0  0  0  3  0  0  0  0  0  0
  -24.6880   -9.3870   22.0900 C   0  0  0  0  0  3  0  0  0  0  0  0
  -23.6600   -9.0100   21.1920 C   0  0  0  0  0  0  0  0  0  0  0  0
  -23.3380   -9.8620   20.1230 C   0  0  0  0  0  3  0  0  0  0  0  0
  -24.0090  -11.0840   19.9530 C   0  0  0  0  0  3  0  0  0  0  0  0
  -22.9740   -7.8220   21.2620 O   0  0  0  0  0  0  0  0  0  0  0  0
  -22.3440   -7.4210   22.4140 C   0  0  0  0  0  0  0  0  0  0  0  0
  -21.3960   -8.2380   23.0670 C   0  0  0  0  0  3  0  0  0  0  0  0
  -20.7180   -7.7590   24.2070 C   0  0  0  0  0  3  0  0  0  0  0  0
  -20.9830   -6.4640   24.6920 C   0  0  0  0  0  0  0  0  0  0  0  0
  -21.9250   -5.6460   24.0390 C   0  0  0  0  0  3  0  0  0  0  0  0
  -22.6000   -6.1240   22.9020 C   0  0  0  0  0  0  0  0  0  0  0  0
  -23.4890   -5.3240   22.2650 F   0  0  0  0  0  0  0  0  0  0  0  0
  -20.3290   -6.0010   25.7820 F   0  0  0  0  0  0  0  0  0  0  0  0
  -23.6950  -14.4990   20.7990 C   0  0  0  0  0  0  0  0  0  0  0  0
  -22.9830  -13.8680   21.7250 N   0  0  0  0  0  0  0  0  0  0  0  0
  -23.2080  -15.4140   20.1370 O   0  0  0  0  0  0  0  0  0  0  0  0
  -23.3870  -13.1330   22.2880 H   0  0  0  0  0  0  0  0  0  0  0  0
  -22.0190  -14.1260   21.8780 H   0  0  0  0  0  0  0  0  0  0  0  0
  -26.2520  -16.3020   20.0920 N   0  0  0  0  0  0  0  0  0  0  0  0
  -25.4320  -16.8980   20.1490 H   0  0  0  0  0  0  0  0  0  0  0  0
  -27.0740  -16.7890   19.7620 H   0  0  0  0  0  0  0  0  0  0  0  0
  -33.9380  -20.1270   19.7310 C   0  0  0  0  0  2  0  0  0  0  0  0
  -32.9440  -19.6090   18.7320 C   0  0  0  0  0  2  0  0  0  0  0  0
  -32.6260  -19.5250   20.2120 C   0  0  0  0  0  3  0  0  0  0  0  0
  -33.2380  -21.2180   23.9750 C   0  0  0  0  0  1  0  0  0  0  0  0
  -33.0290  -20.6260   22.7000 O   0  0  0  0  0  0  0  0  0  0  0  0
  -27.6810  -23.5960   17.8460 C   0  0  0  0  0  2  0  0  0  0  0  0
  -26.8080  -25.1210   18.3110 C   0  0  0  0  0  2  0  0  0  0  0  0
  -27.0970  -26.7550   18.1710 O   0  0  0  0  0  0  0  0  0  0  0  0
  -25.5590  -31.1600   24.1440 C   0  0  0  0  0  0  0  0  0  0  0  0
  -26.3850  -27.8890   18.8420 C   0  0  0  0  0  0  0  0  0  0  0  0
  -23.8360  -30.8680   22.4110 C   0  0  0  0  0  3  0  0  0  0  0  0
  -24.6320  -29.9070   20.1440 C   0  0  0  0  0  0  0  0  0  0  0  0
  -26.3300  -30.7340   21.7580 C   0  0  0  0  0  2  0  0  0  0  0  0
  -25.9610  -29.7950   20.5720 C   0  0  0  0  0  0  0  0  0  0  0  0
  -26.8360  -28.8220   19.9040 C   0  0  0  0  0  3  0  0  0  0  0  0
  -25.0560  -28.1630   18.4480 C   0  0  0  0  0  3  0  0  0  0  0  0
  -24.2060  -29.1150   19.0660 C   0  0  0  0  0  3  0  0  0  0  0  0
  -23.6910  -30.8700   20.8640 C   0  0  0  0  0  2  0  0  0  0  0  0
  -25.2780  -30.9200   22.8240 N   0  0  0  0  0  0  0  0  0  0  0  0
  -24.6610  -31.3340   24.9830 O   0  0  0  0  0  0  0  0  0  0  0  0
  -23.0770  -29.6520   22.9980 C   0  0  0  0  0  0  0  0  0  0  0  0
  -21.7440  -29.5940   22.8080 N   0  0  0  0  0  0  0  0  0  0  0  0
  -23.6940  -28.7660   23.5960 O   0  0  0  0  0  0  0  0  0  0  0  0
  -21.2990  -30.3660   22.3310 H   0  0  0  0  0  0  0  0  0  0  0  0
  -18.4110  -28.2020   22.4660 C   0  0  0  0  0  0  0  0  0  0  0  0
  -20.8650  -28.4980   23.2300 C   0  0  0  0  0  3  0  0  0  0  0  0
  -21.1560  -27.2060   22.4280 C   0  0  0  0  0  2  0  0  0  0  0  0
  -20.2690  -27.0520   21.1880 C   0  0  0  0  0  2  0  0  0  0  0  0
  -18.7920  -27.0190   21.5890 C   0  0  0  0  0  2  0  0  0  0  0  0
  -19.3870  -28.9060   23.2220 C   0  0  0  0  0  0  0  0  0  0  0  0
  -18.9830  -30.0150   23.9940 C   0  0  0  0  0  3  0  0  0  0  0  0
  -17.6370  -30.4270   24.0170 C   0  0  0  0  0  3  0  0  0  0  0  0
  -16.6740  -29.7190   23.2780 C   0  0  0  0  0  3  0  0  0  0  0  0
  -17.0600  -28.6050   22.5120 C   0  0  0  0  0  3  0  0  0  0  0  0
  -27.0270  -31.2460   24.6670 C   0  0  0  0  0  3  0  0  0  0  0  0
  -27.3950  -30.0930   25.6810 C   0  0  1  0  0  0  0  0  0  0  0  0
  -26.3910  -29.9480   26.8490 C   0  0  0  0  0  1  0  0  0  0  0  0
  -27.4790  -28.7240   24.9670 C   0  0  0  0  0  1  0  0  0  0  0  0
  -28.7940  -30.3600   26.2900 C   0  0  0  0  0  1  0  0  0  0  0  0
  -27.2020  -32.5600   25.3120 N   0  0  0  0  0  0  0  0  0  0  0  0
  -27.8110  -33.6150   24.7530 C   0  0  0  0  0  0  0  0  0  0  0  0
  -28.3420  -33.5640   23.6410 O   0  0  0  0  0  0  0  0  0  0  0  0
  -26.7390  -32.6930   26.2000 H   0  0  0  0  0  0  0  0  0  0  0  0
  -26.7720  -35.8990   24.9990 C   0  0  0  0  0  1  0  0  0  0  0  0
  -27.8350  -34.9350   25.5520 C   0  0  0  0  0  3  0  0  0  0  0  0
  -30.1720  -34.8770   26.3080 C   0  0  0  0  0  1  0  0  0  0  0  0
  -29.1560  -35.6030   25.5500 N   0  0  0  0  0  0  0  0  0  0  0  0
  -29.0850  -36.5400   25.9350 H   0  0  0  0  0  0  0  0  0  0  0  0
  1  2  1  0
  3  1  2  0
  4  3  1  0
  4  5  2  0
  5  6  1  0
  6  2  2  0
  6 55  1  0
  7 11  1  0
  7  8  1  0
  8 21  1  0
  8  4  1  0
  9  3  1  0
  9 10  1  0
 11  9  1  0
 11 12  1  1
 13 19  1  0
 14 19  1  0
 15 16  1  0
 15 14  1  0
 17 16  1  0
 17 26  1  0
 17 18  1  0
 19 18  1  0
 20 13  2  0
 21 13  1  0
 22 21  1  0
 23 24  2  0
 24 25  1  0
 24 43  1  0
 25 28  1  0
 26 23  1  0
 26 27  1  0
 27 25  2  0
 28 29  1  0
 29 30  2  0
 31 34  1  0
 31 30  1  0
 32 31  2  0
 33 32  1  0
 33 28  2  0
 34 35  1  0
 35 40  2  0
 35 36  1  0
 36 37  2  0
 37 38  1  0
 38 42  1  0
 39 38  2  0
 40 39  1  0
 41 40  1  0
 43 44  1  0
 44 47  1  0
 44 46  1  0
 45 43  2  0
 48 49  1  0
 48 23  1  0
 50 48  1  0
 51 53  1  0
 52 51  1  0
 52 53  1  0
 53  5  1  0
 55 54  1  0
 56 57  1  0
 56 11  1  0
 58 57  1  0
 58 60  1  0
 59 70  2  0
 60 65  1  0
 61 69  1  0
 61 71  1  0
 62 64  1  0
 62 68  1  0
 63 69  1  0
 64 63  1  0
 65 64  2  0
 66 60  2  0
 66 67  1  0
 67 62  2  0
 68 61  1  0
 69 59  1  0
 71 73  2  0
 72 71  1  0
 74 72  1  0
 75 84  2  0
 75 80  1  0
 76 72  1  0
 77 76  1  0
 78 79  1  0
 78 77  1  0
 79 75  1  0
 80 76  1  0
 80 81  2  0
 81 82  1  0
 83 82  2  0
 84 83  1  0
 85 59  1  0
 85 90  1  0
 85 86  1  0
 86 89  1  1
 86 87  1  0
 88 86  1  0
 90 93  1  0
 91 90  1  0
 91 95  1  0
 92 91  2  0
 95 94  1  0
 97 95  1  0
 97 98  1  0
 97 96  1  0
M  ISO  4  13 100  21 100  57 101  58 101
M  END
>  <TORSDO>  (79) 
F 20

>  <SCORE>  (79) 
-10.072

>  <name>  (79) 
79

>  <ligand_id>  (79) 
79

>  <original_smiles>  (79) 
[H]c1c([H])c([H])c2c(c1[H])C([H])([H])C([H])([H])C([H])([H])C2([H])N([H])C(=O)C1([H])N(C(=O)C([H])(N([H])C(=O)C([H])(N([H])C([H])([H])[H])C([H])([H])[H])C(C([H])([H])[H])(C([H])([H])[H])C([H])([H])[H])C([H])([H])c2c([H])c(OC([H])([H])C([H])([H])[N+]3([H])C([H])([H])C([H])(N([H])C(=O)N4C([H])([H])C([H])([H])C([H])([H])C([H])(n5nc(-c6c([H])c([H])c(Oc7c([H])c([H])c(F)c([H])c7F)c([H])c6[H])c(C(=O)N([H])[H])c5N([H])[H])C4([H])[H])c4c(C5([H])C([H])([H])C5([H])[H])c(OC([H])([H])[H])c([H])c([H])c4C3([H])C([H])([H])[H])c([H])c([H])c2C1([H])[H]

>  <smiles>  (79) 
[H]c1c([H])c([H])c2c(c1[H])C([H])([H])C([H])([H])C([H])([H])C2([H])N([H])C(=O)C1([H])N(C(=O)C([H])(N([H])C(=O)C([H])(N([H])C([H])([H])[H])C([H])([H])[H])C(C([H])([H])[H])(C([H])([H])[H])C([H])([H])[H])C([H])([H])c2c([H])c(OC([H])([H])C([H])([H])[N+]3([H])C([H])([H])C([H])(N([H])C(=O)N4C([H])([H])C([H])([H])C([H])([H])C([H])(n5nc(-c6c([H])c([H])c(Oc7c([H])c([H])c(F)c([H])c7F)c([H])c6[H])c(C(=O)N([H])[H])c5N([H])[H])C4([H])[H])c4c(C5([H])C([H])([H])C5([H])[H])c(OC([H])([H])[H])c([H])c([H])c4C3([H])C([H])([H])[H])c([H])c([H])c2C1([H])[H]

$$$$
80:0:0
     RDKit          3D

 95104  0  0  1  0  0  0  0  0999 V2000
  -31.3400  -20.5210   20.7160 C   0  0  0  0  0  3  0  0  0  0  0  0
  -31.8420  -21.8340   20.7750 C   0  0  0  0  0  0  0  0  0  0  0  0
  -31.0270  -22.9420   20.4210 C   0  0  0  0  0  0  0  0  0  0  0  0
  -29.6700  -22.7500   20.0040 C   0  0  0  0  0  0  0  0  0  0  0  0
  -30.0160  -20.2380   20.3300 C   0  0  0  0  0  0  0  0  0  0  0  0
  -29.1780  -21.3730   19.9990 C   0  0  0  0  0  0  0  0  0  0  0  0
  -33.2960  -22.0180   21.1980 C   0  0  0  0  0  1  0  0  0  0  0  0
  -31.6750  -24.3330   20.4280 C   0  0  0  0  0  1  0  0  0  0  0  0
  -27.5340  -21.0140   19.5940 Cl  0  0  0  0  0  0  0  0  0  0  0  0
  -30.6530  -14.6690   20.0180 C   0  0  0  0  0  0  0  0  0  0  0  0
  -30.3460  -12.4530   18.9360 C   0  0  0  0  0  2  0  0  0  0  0  0
  -29.3400  -12.6140   17.7760 C   0  0  0  0  0  2  0  0  0  0  0  0
  -27.8940  -12.4530   18.2860 C   0  0  0  0  0  2  0  0  0  0  0  0
  -27.6110  -13.2810   19.5690 C   0  0  0  0  0  3  0  0  0  0  0  0
  -28.7340  -13.1240   20.6180 C   0  0  0  0  0  2  0  0  0  0  0  0
  -29.9990  -13.4660   19.9560 N   0  0  0  0  0  0  0  0  0  0  0  0
  -31.8180  -14.7680   19.6150 O   0  0  0  0  0  0  0  0  0  0  0  0
  -30.1130  -18.1720   19.0450 C   0  0  0  0  0  2  0  0  0  0  0  0
  -29.9400  -18.0070   21.4270 C   0  0  0  0  0  2  0  0  0  0  0  0
  -29.6530  -16.6820   18.9010 C   0  0  0  0  0  2  0  0  0  0  0  0
  -29.4680  -16.5080   21.3220 C   0  0  0  0  0  2  0  0  0  0  0  0
  -29.6170  -18.8490   20.2540 N   0  0  0  0  0  0  0  0  0  0  0  0
  -29.8700  -15.8070   20.0810 N   0  0  0  0  0  0  0  0  0  0  0  0
  -25.2690  -13.8560   20.4440 C   0  0  0  0  0  0  0  0  0  0  0  0
  -24.2230  -13.0710   20.8520 C   0  0  0  0  0  0  0  0  0  0  0  0
  -24.6800  -11.7200   20.7550 C   0  0  0  0  0  0  0  0  0  0  0  0
  -26.2950  -12.9820   20.1260 N   0  0  0  0  0  0  0  0  0  0  0  0
  -25.9510  -11.6920   20.3730 N   0  0  0  0  0  0  0  0  0  0  0  0
  -23.9630  -10.4520   20.9480 C   0  0  0  0  0  0  0  0  0  0  0  0
  -24.4060   -9.4880   21.8820 C   0  0  0  0  0  3  0  0  0  0  0  0
  -23.6880   -8.2850   22.0640 C   0  0  0  0  0  3  0  0  0  0  0  0
  -22.5130   -8.0400   21.3130 C   0  0  0  0  0  0  0  0  0  0  0  0
  -22.0890   -8.9940   20.3710 C   0  0  0  0  0  3  0  0  0  0  0  0
  -22.8080  -10.1860   20.1860 C   0  0  0  0  0  3  0  0  0  0  0  0
  -21.7660   -6.8910   21.4050 O   0  0  0  0  0  0  0  0  0  0  0  0
  -21.6740   -6.1830   22.5770 C   0  0  0  0  0  0  0  0  0  0  0  0
  -21.1700   -6.7660   23.7610 C   0  0  0  0  0  3  0  0  0  0  0  0
  -21.0310   -5.9840   24.9250 C   0  0  0  0  0  3  0  0  0  0  0  0
  -21.3830   -4.6210   24.9060 C   0  0  0  0  0  0  0  0  0  0  0  0
  -21.8800   -4.0380   23.7260 C   0  0  0  0  0  3  0  0  0  0  0  0
  -22.0230   -4.8180   22.5640 C   0  0  0  0  0  0  0  0  0  0  0  0
  -22.4820   -4.2470   21.4250 F   0  0  0  0  0  0  0  0  0  0  0  0
  -21.2410   -3.8670   26.0200 F   0  0  0  0  0  0  0  0  0  0  0  0
  -22.8440  -13.5400   21.2140 C   0  0  0  0  0  0  0  0  0  0  0  0
  -22.1630  -12.8140   22.0950 N   0  0  0  0  0  0  0  0  0  0  0  0
  -22.3820  -14.5830   20.7550 O   0  0  0  0  0  0  0  0  0  0  0  0
  -22.5510  -11.9700   22.4890 H   0  0  0  0  0  0  0  0  0  0  0  0
  -21.2410  -13.1080   22.3820 H   0  0  0  0  0  0  0  0  0  0  0  0
  -25.4300  -15.2290   20.2960 N   0  0  0  0  0  0  0  0  0  0  0  0
  -24.6840  -15.8910   20.4760 H   0  0  0  0  0  0  0  0  0  0  0  0
  -26.2770  -15.6670   19.9580 H   0  0  0  0  0  0  0  0  0  0  0  0
  -27.8980  -23.8170   18.3220 C   0  0  0  0  0  1  0  0  0  0  0  0
  -28.9030  -24.0440   19.4630 C   0  0  0  0  0  3  0  0  0  0  0  0
  -28.3140  -25.0920   20.5080 C   0  0  0  0  0  2  0  0  0  0  0  0
  -28.4380  -26.5280   20.1750 O   0  0  0  0  0  0  0  0  0  0  0  0
  -24.6140  -31.8410   23.1970 C   0  0  0  0  0  0  0  0  0  0  0  0
  -27.2920  -27.3270   20.1660 C   0  0  0  0  0  0  0  0  0  0  0  0
  -23.4370  -30.4390   21.5400 C   0  0  0  0  0  3  0  0  0  0  0  0
  -24.9110  -28.8980   20.1330 C   0  0  0  0  0  0  0  0  0  0  0  0
  -25.9720  -30.7830   21.3800 C   0  0  0  0  0  2  0  0  0  0  0  0
  -26.0710  -29.4060   20.7360 C   0  0  0  0  0  0  0  0  0  0  0  0
  -27.2660  -28.6350   20.7370 C   0  0  0  0  0  3  0  0  0  0  0  0
  -26.1120  -26.8570   19.5540 C   0  0  0  0  0  3  0  0  0  0  0  0
  -24.9320  -27.6260   19.5350 C   0  0  0  0  0  3  0  0  0  0  0  0
  -23.6680  -29.7620   20.1640 C   0  0  0  0  0  2  0  0  0  0  0  0
  -24.6930  -31.0370   22.0980 N   0  0  0  0  0  0  0  0  0  0  0  0
  -23.5240  -32.1120   23.7210 O   0  0  0  0  0  0  0  0  0  0  0  0
  -22.7700  -29.4170   22.4920 C   0  0  0  0  0  0  0  0  0  0  0  0
  -21.4420  -29.2560   22.3690 N   0  0  0  0  0  0  0  0  0  0  0  0
  -23.4470  -28.7730   23.2980 O   0  0  0  0  0  0  0  0  0  0  0  0
  -20.9570  -29.8270   21.6900 H   0  0  0  0  0  0  0  0  0  0  0  0
  -18.0490  -28.1160   22.8870 C   0  0  0  0  0  0  0  0  0  0  0  0
  -20.6150  -28.3190   23.1300 C   0  0  0  0  0  3  0  0  0  0  0  0
  -20.6820  -26.8990   22.5220 C   0  0  0  0  0  2  0  0  0  0  0  0
  -19.5610  -26.6200   21.5160 C   0  0  0  0  0  2  0  0  0  0  0  0
  -18.1900  -26.7790   22.1810 C   0  0  0  0  0  2  0  0  0  0  0  0
  -19.1870  -28.8470   23.3170 C   0  0  0  0  0  0  0  0  0  0  0  0
  -19.0020  -30.1030   23.9370 C   0  0  0  0  0  3  0  0  0  0  0  0
  -17.7090  -30.6260   24.1300 C   0  0  0  0  0  3  0  0  0  0  0  0
  -16.5850  -29.8900   23.7160 C   0  0  0  0  0  3  0  0  0  0  0  0
  -16.7560  -28.6380   23.1000 C   0  0  0  0  0  3  0  0  0  0  0  0
  -25.8870  -32.4780   23.8360 C   0  0  0  0  0  3  0  0  0  0  0  0
  -25.5690  -33.8740   24.1670 N   0  0  0  0  0  0  0  0  0  0  0  0
  -25.9010  -34.9300   23.4120 C   0  0  0  0  0  0  0  0  0  0  0  0
  -26.5770  -34.8320   22.3850 O   0  0  0  0  0  0  0  0  0  0  0  0
  -24.9660  -34.0240   24.9640 H   0  0  0  0  0  0  0  0  0  0  0  0
  -24.1670  -36.7160   23.0460 C   0  0  0  0  0  1  0  0  0  0  0  0
  -25.4030  -36.3150   23.8690 C   0  0  0  0  0  3  0  0  0  0  0  0
  -27.5240  -37.2080   24.7240 C   0  0  0  0  0  1  0  0  0  0  0  0
  -26.4310  -37.3740   23.7690 N   0  0  0  0  0  0  0  0  0  0  0  0
  -26.0200  -38.2910   23.9140 H   0  0  0  0  0  0  0  0  0  0  0  0
  -26.3920  -31.7060   25.1170 C   0  0  1  0  0  0  0  0  0  0  0  0
  -25.2880  -31.4600   26.1710 C   0  0  0  0  0  1  0  0  0  0  0  0
  -26.9870  -30.3320   24.7280 C   0  0  0  0  0  1  0  0  0  0  0  0
  -27.5330  -32.5020   25.7940 C   0  0  0  0  0  1  0  0  0  0  0  0
  1  2  1  0
  2  7  1  0
  3  8  1  0
  3  2  2  0
  4  3  1  0
  5  1  2  0
  6  4  2  0
  6  5  1  0
  9  6  1  0
 10 23  1  0
 11 16  1  0
 12 13  1  0
 12 11  1  0
 14 13  1  0
 14 27  1  0
 14 15  1  0
 16 10  1  0
 16 15  1  0
 17 10  2  0
 18 22  1  0
 20 18  1  0
 20 23  1  0
 21 19  1  0
 22  5  1  0
 22 19  1  0
 23 21  1  0
 24 25  2  0
 25 44  1  0
 26 25  1  0
 26 29  1  0
 27 28  1  0
 27 24  1  0
 28 26  2  0
 29 30  1  0
 30 31  2  0
 32 35  1  0
 32 31  1  0
 33 32  2  0
 34 33  1  0
 34 29  2  0
 35 36  1  0
 36 37  1  0
 37 38  2  0
 39 38  1  0
 39 43  1  0
 40 39  2  0
 41 36  2  0
 41 40  1  0
 42 41  1  0
 44 45  1  0
 45 48  1  0
 45 47  1  0
 46 44  2  0
 49 24  1  0
 49 50  1  0
 51 49  1  0
 53 52  1  0
 53  4  1  0
 53 54  1  0
 55 54  1  0
 56 67  2  0
 57 55  1  0
 57 62  1  0
 58 66  1  0
 58 68  1  0
 59 65  1  0
 59 61  1  0
 60 66  1  0
 61 62  2  0
 61 60  1  0
 63 57  2  0
 64 63  1  0
 64 59  2  0
 65 58  1  0
 66 56  1  0
 68 70  2  0
 69 68  1  0
 71 69  1  0
 72 81  2  0
 72 77  1  0
 73 69  1  0
 73 77  1  0
 74 73  1  0
 75 76  1  0
 75 74  1  0
 76 72  1  0
 77 78  2  0
 78 79  1  0
 80 79  2  0
 81 80  1  0
 82 56  1  0
 82 83  1  0
 82 92  1  0
 83 86  1  0
 84 88  1  0
 84 83  1  0
 85 84  2  0
 88 87  1  0
 90 88  1  0
 90 91  1  0
 90 89  1  0
 92 95  1  1
 92 93  1  0
 94 92  1  0
M  ISO  4  10 100  23 100  54 101  55 101
M  END
>  <TORSDO>  (80) 
F 18

>  <SCORE>  (80) 
-14.242

>  <name>  (80) 
80

>  <ligand_id>  (80) 
80

>  <original_smiles>  (80) 
[H]c1c([H])c([H])c2c(c1[H])C([H])([H])C([H])([H])C([H])([H])C2([H])N([H])C(=O)C1([H])N(C(=O)C([H])(N([H])C(=O)C([H])(N([H])C([H])([H])[H])C([H])([H])[H])C(C([H])([H])[H])(C([H])([H])[H])C([H])([H])[H])C([H])([H])c2c([H])c(OC([H])([H])C([H])(c3c(Cl)c(N4C([H])([H])C([H])([H])N(C(=O)N5C([H])([H])C([H])([H])C([H])([H])C([H])(n6nc(-c7c([H])c([H])c(Oc8c([H])c([H])c(F)c([H])c8F)c([H])c7[H])c(C(=O)N([H])[H])c6N([H])[H])C5([H])[H])C([H])([H])C4([H])[H])c([H])c(C([H])([H])[H])c3C([H])([H])[H])C([H])([H])[H])c([H])c([H])c2C1([H])[H]

>  <smiles>  (80) 
[H]c1c([H])c([H])c2c(c1[H])C([H])([H])C([H])([H])C([H])([H])C2([H])N([H])C(=O)C1([H])N(C(=O)C([H])(N([H])C(=O)C([H])(N([H])C([H])([H])[H])C([H])([H])[H])C(C([H])([H])[H])(C([H])([H])[H])C([H])([H])[H])C([H])([H])c2c([H])c(OC([H])([H])C([H])(c3c(Cl)c(N4C([H])([H])C([H])([H])N(C(=O)N5C([H])([H])C([H])([H])C([H])([H])C([H])(n6nc(-c7c([H])c([H])c(Oc8c([H])c([H])c(F)c([H])c8F)c([H])c7[H])c(C(=O)N([H])[H])c6N([H])[H])C5([H])[H])C([H])([H])C4([H])[H])c([H])c(C([H])([H])[H])c3C([H])([H])[H])C([H])([H])[H])c([H])c([H])c2C1([H])[H]

$$$$
81:0:0
     RDKit          3D

 93102  0  0  1  0  0  0  0  0999 V2000
  -30.8030  -22.5320   18.8200 C   0  0  0  0  0  0  0  0  0  0  0  0
  -30.1240  -23.6930   19.2980 C   0  0  0  0  0  0  0  0  0  0  0  0
  -30.2990  -21.2330   19.1140 C   0  0  0  0  0  0  0  0  0  0  0  0
  -28.9590  -23.5530   20.0960 C   0  0  0  0  0  0  0  0  0  0  0  0
  -29.2210  -21.0920   20.0110 C   0  0  0  0  0  0  0  0  0  0  0  0
  -32.0530  -22.6820   17.9560 C   0  0  0  0  0  1  0  0  0  0  0  0
  -30.6180  -25.0960   18.9390 C   0  0  0  0  0  1  0  0  0  0  0  0
  -30.8330  -20.0090   18.3730 C   0  0  0  0  0  1  0  0  0  0  0  0
  -28.5640  -22.2510   20.4420 N   0  0  0  0  0  0  0  0  0  0  0  0
  -28.0840  -24.8290   20.6040 C   0  0  0  0  0  2  0  0  0  0  0  0
  -28.3510  -26.3000   20.2660 O   0  0  0  0  0  0  0  0  0  0  0  0
  -24.6370  -31.8690   23.2540 C   0  0  0  0  0  0  0  0  0  0  0  0
  -27.2700  -27.2280   20.2370 C   0  0  0  0  0  0  0  0  0  0  0  0
  -23.4510  -30.4640   21.6090 C   0  0  0  0  0  3  0  0  0  0  0  0
  -24.9180  -28.9040   20.1910 C   0  0  0  0  0  0  0  0  0  0  0  0
  -25.9980  -30.7600   21.4540 C   0  0  0  0  0  2  0  0  0  0  0  0
  -26.0860  -29.3730   20.8090 C   0  0  0  0  0  0  0  0  0  0  0  0
  -27.2670  -28.5510   20.8140 C   0  0  0  0  0  3  0  0  0  0  0  0
  -26.0830  -26.8490   19.5740 C   0  0  0  0  0  3  0  0  0  0  0  0
  -24.9250  -27.6530   19.5570 C   0  0  0  0  0  3  0  0  0  0  0  0
  -23.6800  -29.7850   20.2340 C   0  0  0  0  0  2  0  0  0  0  0  0
  -24.7140  -31.0510   22.1610 N   0  0  0  0  0  0  0  0  0  0  0  0
  -23.5470  -32.1500   23.7740 O   0  0  0  0  0  0  0  0  0  0  0  0
  -22.7760  -29.4530   22.5680 C   0  0  0  0  0  0  0  0  0  0  0  0
  -21.4490  -29.2800   22.4330 N   0  0  0  0  0  0  0  0  0  0  0  0
  -23.4460  -28.8270   23.3930 O   0  0  0  0  0  0  0  0  0  0  0  0
  -20.9670  -29.8440   21.7480 H   0  0  0  0  0  0  0  0  0  0  0  0
  -18.0630  -28.0940   22.9240 C   0  0  0  0  0  0  0  0  0  0  0  0
  -20.6220  -28.3410   23.1950 C   0  0  0  0  0  3  0  0  0  0  0  0
  -20.7170  -26.9130   22.6120 C   0  0  0  0  0  2  0  0  0  0  0  0
  -19.6140  -26.6010   21.5960 C   0  0  0  0  0  2  0  0  0  0  0  0
  -18.2320  -26.7480   22.2390 C   0  0  0  0  0  2  0  0  0  0  0  0
  -19.1850  -28.8480   23.3580 C   0  0  0  0  0  0  0  0  0  0  0  0
  -18.9730  -30.1090   23.9580 C   0  0  0  0  0  3  0  0  0  0  0  0
  -17.6710  -30.6170   24.1260 C   0  0  0  0  0  3  0  0  0  0  0  0
  -16.5630  -29.8590   23.7080 C   0  0  0  0  0  3  0  0  0  0  0  0
  -16.7590  -28.5990   23.1160 C   0  0  0  0  0  3  0  0  0  0  0  0
  -25.9100  -32.5050   23.8890 C   0  0  0  0  0  3  0  0  0  0  0  0
  -25.5990  -33.9080   24.2050 N   0  0  0  0  0  0  0  0  0  0  0  0
  -25.9400  -34.9560   23.4430 C   0  0  0  0  0  0  0  0  0  0  0  0
  -26.6190  -34.8430   22.4190 O   0  0  0  0  0  0  0  0  0  0  0  0
  -24.9920  -34.0700   24.9950 H   0  0  0  0  0  0  0  0  0  0  0  0
  -24.2200  -36.7540   23.0670 C   0  0  0  0  0  1  0  0  0  0  0  0
  -25.4550  -36.3500   23.8870 C   0  0  0  0  0  3  0  0  0  0  0  0
  -27.5860  -37.2370   24.7250 C   0  0  0  0  0  1  0  0  0  0  0  0
  -26.4920  -37.3980   23.7710 N   0  0  0  0  0  0  0  0  0  0  0  0
  -26.0890  -38.3230   23.9040 H   0  0  0  0  0  0  0  0  0  0  0  0
  -26.4060  -31.7450   25.1810 C   0  0  1  0  0  0  0  0  0  0  0  0
  -25.2950  -31.5200   26.2350 C   0  0  0  0  0  1  0  0  0  0  0  0
  -26.9900  -30.3610   24.8130 C   0  0  0  0  0  1  0  0  0  0  0  0
  -27.5470  -32.5440   25.8510 C   0  0  0  0  0  1  0  0  0  0  0  0
  -28.6430  -19.8200   20.3430 O   0  0  0  0  0  0  0  0  0  0  0  0
  -30.6090  -14.8180   20.3550 C   0  0  0  0  0  0  0  0  0  0  0  0
  -30.3860  -12.5200   19.3650 C   0  0  0  0  0  2  0  0  0  0  0  0
  -29.4590  -12.5600   18.1310 C   0  0  0  0  0  2  0  0  0  0  0  0
  -27.9940  -12.3760   18.5640 C   0  0  0  0  0  2  0  0  0  0  0  0
  -27.6100  -13.2790   19.7670 C   0  0  0  0  0  3  0  0  0  0  0  0
  -28.6650  -13.2380   20.8940 C   0  0  0  0  0  2  0  0  0  0  0  0
  -29.9540  -13.6000   20.2910 N   0  0  0  0  0  0  0  0  0  0  0  0
  -31.7810  -14.8640   19.9670 O   0  0  0  0  0  0  0  0  0  0  0  0
  -30.5630  -18.3500   21.5300 C   0  0  0  0  0  2  0  0  0  0  0  0
  -30.6750  -16.8160   21.8310 C   0  0  0  0  0  2  0  0  0  0  0  0
  -29.2780  -17.0740   19.9770 C   0  0  0  0  0  2  0  0  0  0  0  0
  -29.2640  -18.4860   20.7530 C   0  0  0  0  0  3  0  0  0  0  0  0
  -29.9770  -15.9960   20.8030 N   0  0  0  0  0  0  0  0  0  0  0  0
  -25.2270  -13.8590   20.5020 C   0  0  0  0  0  0  0  0  0  0  0  0
  -24.1620  -13.0810   20.8680 C   0  0  0  0  0  0  0  0  0  0  0  0
  -24.6270  -11.7310   20.8350 C   0  0  0  0  0  0  0  0  0  0  0  0
  -26.2710  -12.9810   20.2610 N   0  0  0  0  0  0  0  0  0  0  0  0
  -25.9180  -11.6970   20.5250 N   0  0  0  0  0  0  0  0  0  0  0  0
  -23.9000  -10.4670   21.0220 C   0  0  0  0  0  0  0  0  0  0  0  0
  -24.3220   -9.5040   21.9640 C   0  0  0  0  0  3  0  0  0  0  0  0
  -23.5930   -8.3070   22.1390 C   0  0  0  0  0  3  0  0  0  0  0  0
  -22.4300   -8.0660   21.3700 C   0  0  0  0  0  0  0  0  0  0  0  0
  -22.0270   -9.0190   20.4190 C   0  0  0  0  0  3  0  0  0  0  0  0
  -22.7560  -10.2070   20.2420 C   0  0  0  0  0  3  0  0  0  0  0  0
  -21.6730   -6.9210   21.4530 O   0  0  0  0  0  0  0  0  0  0  0  0
  -21.6030   -6.1890   22.6110 C   0  0  0  0  0  0  0  0  0  0  0  0
  -21.1330   -6.7490   23.8200 C   0  0  0  0  0  3  0  0  0  0  0  0
  -21.0100   -5.9410   24.9680 C   0  0  0  0  0  3  0  0  0  0  0  0
  -21.3480   -4.5760   24.9100 C   0  0  0  0  0  0  0  0  0  0  0  0
  -21.8130   -4.0160   23.7060 C   0  0  0  0  0  3  0  0  0  0  0  0
  -21.9370   -4.8210   22.5600 C   0  0  0  0  0  0  0  0  0  0  0  0
  -22.3640   -4.2700   21.3980 F   0  0  0  0  0  0  0  0  0  0  0  0
  -21.2240   -3.7990   26.0120 F   0  0  0  0  0  0  0  0  0  0  0  0
  -22.7660  -13.5590   21.1400 C   0  0  0  0  0  0  0  0  0  0  0  0
  -22.0360  -12.8580   22.0020 N   0  0  0  0  0  0  0  0  0  0  0  0
  -22.3290  -14.5860   20.6230 O   0  0  0  0  0  0  0  0  0  0  0  0
  -22.4040  -12.0270   22.4420 H   0  0  0  0  0  0  0  0  0  0  0  0
  -21.0990  -13.1590   22.2270 H   0  0  0  0  0  0  0  0  0  0  0  0
  -25.3900  -15.2290   20.3300 N   0  0  0  0  0  0  0  0  0  0  0  0
  -24.6300  -15.8870   20.4640 H   0  0  0  0  0  0  0  0  0  0  0  0
  -26.2450  -15.6710   20.0160 H   0  0  0  0  0  0  0  0  0  0  0  0
  1  3  2  0
  1  2  1  0
  2  4  2  0
  3  5  1  0
  4  9  1  0
  4 10  1  0
  5 52  1  0
  5  9  2  0
  6  1  1  0
  7  2  1  0
  8  3  1  0
 11 10  1  0
 12 23  2  0
 13 11  1  0
 13 18  1  0
 14 22  1  0
 14 24  1  0
 15 21  1  0
 15 17  1  0
 16 22  1  0
 17 18  2  0
 17 16  1  0
 19 13  2  0
 20 19  1  0
 20 15  2  0
 21 14  1  0
 22 12  1  0
 24 26  2  0
 25 24  1  0
 27 25  1  0
 28 37  2  0
 28 33  1  0
 29 25  1  0
 29 33  1  0
 30 29  1  0
 31 32  1  0
 31 30  1  0
 32 28  1  0
 33 34  2  0
 34 35  1  0
 36 35  2  0
 37 36  1  0
 38 12  1  0
 38 39  1  0
 38 48  1  0
 39 42  1  0
 40 44  1  0
 40 39  1  0
 41 40  2  0
 44 43  1  0
 46 44  1  0
 46 47  1  0
 46 45  1  0
 48 51  1  1
 48 49  1  0
 50 48  1  0
 53 65  1  0
 54 59  1  0
 55 56  1  0
 55 54  1  0
 57 56  1  0
 57 69  1  0
 57 58  1  0
 59 53  1  0
 59 58  1  0
 60 53  2  0
 61 62  1  0
 63 64  1  0
 63 65  1  0
 64 52  1  0
 64 61  1  0
 65 62  1  0
 66 67  2  0
 67 86  1  0
 68 67  1  0
 68 71  1  0
 69 66  1  0
 69 70  1  0
 70 68  2  0
 71 72  1  0
 72 73  2  0
 74 77  1  0
 74 73  1  0
 75 74  2  0
 76 75  1  0
 76 71  2  0
 77 78  1  0
 78 79  1  0
 79 80  2  0
 81 80  1  0
 81 85  1  0
 82 81  2  0
 83 78  2  0
 83 82  1  0
 84 83  1  0
 86 87  1  0
 87 90  1  0
 87 89  1  0
 88 86  2  0
 91 92  1  0
 91 66  1  0
 93 91  1  0
M  ISO  4  10 101  11 101  53 100  65 100
M  END
>  <TORSDO>  (81) 
F 18

>  <SCORE>  (81) 
-14.834

>  <name>  (81) 
81

>  <ligand_id>  (81) 
81

>  <original_smiles>  (81) 
[H]c1c([H])c([H])c2c(c1[H])C([H])([H])C([H])([H])C([H])([H])C2([H])N([H])C(=O)C1([H])N(C(=O)C([H])(N([H])C(=O)C([H])(N([H])C([H])([H])[H])C([H])([H])[H])C(C([H])([H])[H])(C([H])([H])[H])C([H])([H])[H])C([H])([H])c2c([H])c(OC([H])([H])c3nc(OC4([H])C([H])([H])N(C(=O)N5C([H])([H])C([H])([H])C([H])([H])C([H])(n6nc(-c7c([H])c([H])c(Oc8c([H])c([H])c(F)c([H])c8F)c([H])c7[H])c(C(=O)N([H])[H])c6N([H])[H])C5([H])[H])C([H])([H])C4([H])[H])c(C([H])([H])[H])c(C([H])([H])[H])c3C([H])([H])[H])c([H])c([H])c2C1([H])[H]

>  <smiles>  (81) 
[H]c1c([H])c([H])c2c(c1[H])C([H])([H])C([H])([H])C([H])([H])C2([H])N([H])C(=O)C1([H])N(C(=O)C([H])(N([H])C(=O)C([H])(N([H])C([H])([H])[H])C([H])([H])[H])C(C([H])([H])[H])(C([H])([H])[H])C([H])([H])[H])C([H])([H])c2c([H])c(OC([H])([H])c3nc(OC4([H])C([H])([H])N(C(=O)N5C([H])([H])C([H])([H])C([H])([H])C([H])(n6nc(-c7c([H])c([H])c(Oc8c([H])c([H])c(F)c([H])c8F)c([H])c7[H])c(C(=O)N([H])[H])c6N([H])[H])C5([H])[H])C([H])([H])C4([H])[H])c(C([H])([H])[H])c(C([H])([H])[H])c3C([H])([H])[H])c([H])c([H])c2C1([H])[H]

$$$$
82:0:0
     RDKit          3D

 92101  0  0  1  0  0  0  0  0999 V2000
  -27.4380  -21.6860   20.8110 C   0  0  0  0  0  3  0  0  0  0  0  0
  -29.7170  -23.1480   20.7670 C   0  0  0  0  0  3  0  0  0  0  0  0
  -27.3350  -23.1020   20.8990 C   0  0  0  0  0  0  0  0  0  0  0  0
  -28.5060  -23.9140   20.8840 C   0  0  0  0  0  0  0  0  0  0  0  0
  -28.6830  -21.0240   20.7510 C   0  0  0  0  0  0  0  0  0  0  0  0
  -25.9500  -23.6920   21.0910 C   0  0  0  0  0  1  0  0  0  0  0  0
  -29.8180  -21.7680   20.7110 N   0  0  0  0  0  0  0  0  0  0  0  0
  -29.6520  -25.8860   22.1170 C   0  0  0  0  0  1  0  0  0  0  0  0
  -28.4590  -25.4780   21.2420 C   0  0  0  0  0  3  0  0  0  0  0  0
  -28.3830  -26.5330   20.2050 O   0  0  0  0  0  0  0  0  0  0  0  0
  -24.6310  -31.9590   23.2620 C   0  0  0  0  0  0  0  0  0  0  0  0
  -27.2870  -27.4110   20.2270 C   0  0  0  0  0  0  0  0  0  0  0  0
  -23.4450  -30.5520   21.6140 C   0  0  0  0  0  3  0  0  0  0  0  0
  -24.9140  -29.0080   20.1990 C   0  0  0  0  0  0  0  0  0  0  0  0
  -25.9830  -30.8820   21.4500 C   0  0  0  0  0  2  0  0  0  0  0  0
  -26.0750  -29.5000   20.8110 C   0  0  0  0  0  0  0  0  0  0  0  0
  -27.2660  -28.7090   20.8270 C   0  0  0  0  0  3  0  0  0  0  0  0
  -26.1190  -26.9840   19.5680 C   0  0  0  0  0  3  0  0  0  0  0  0
  -24.9380  -27.7520   19.5690 C   0  0  0  0  0  3  0  0  0  0  0  0
  -23.6720  -29.8750   20.2360 C   0  0  0  0  0  2  0  0  0  0  0  0
  -24.7040  -31.1500   22.1640 N   0  0  0  0  0  0  0  0  0  0  0  0
  -23.5450  -32.2300   23.7930 O   0  0  0  0  0  0  0  0  0  0  0  0
  -22.7840  -29.5320   22.5730 C   0  0  0  0  0  0  0  0  0  0  0  0
  -21.4600  -29.3450   22.4390 N   0  0  0  0  0  0  0  0  0  0  0  0
  -23.4620  -28.9130   23.3960 O   0  0  0  0  0  0  0  0  0  0  0  0
  -20.9700  -29.8980   21.7500 H   0  0  0  0  0  0  0  0  0  0  0  0
  -18.0880  -28.1300   22.9330 C   0  0  0  0  0  0  0  0  0  0  0  0
  -20.6450  -28.4010   23.2070 C   0  0  0  0  0  3  0  0  0  0  0  0
  -20.7530  -26.9710   22.6290 C   0  0  0  0  0  2  0  0  0  0  0  0
  -19.6550  -26.6470   21.6110 C   0  0  0  0  0  2  0  0  0  0  0  0
  -18.2710  -26.7840   22.2540 C   0  0  0  0  0  2  0  0  0  0  0  0
  -19.2020  -28.8980   23.3660 C   0  0  0  0  0  0  0  0  0  0  0  0
  -18.9770  -30.1580   23.9600 C   0  0  0  0  0  3  0  0  0  0  0  0
  -17.6690  -30.6520   24.1260 C   0  0  0  0  0  3  0  0  0  0  0  0
  -16.5690  -29.8830   23.7080 C   0  0  0  0  0  3  0  0  0  0  0  0
  -16.7800  -28.6240   23.1170 C   0  0  0  0  0  3  0  0  0  0  0  0
  -25.9090  -32.5990   23.8880 C   0  0  0  0  0  3  0  0  0  0  0  0
  -26.4130  -31.8440   25.1800 C   0  0  1  0  0  0  0  0  0  0  0  0
  -25.3100  -31.6240   26.2400 C   0  0  0  0  0  1  0  0  0  0  0  0
  -27.0000  -30.4610   24.8170 C   0  0  0  0  0  1  0  0  0  0  0  0
  -27.5570  -32.6480   25.8430 C   0  0  0  0  0  1  0  0  0  0  0  0
  -25.5980  -34.0010   24.1970 N   0  0  0  0  0  0  0  0  0  0  0  0
  -25.9430  -35.0450   23.4320 C   0  0  0  0  0  0  0  0  0  0  0  0
  -26.6260  -34.9300   22.4110 O   0  0  0  0  0  0  0  0  0  0  0  0
  -24.9910  -34.1650   24.9880 H   0  0  0  0  0  0  0  0  0  0  0  0
  -24.2310  -36.8450   23.0260 C   0  0  0  0  0  1  0  0  0  0  0  0
  -25.4510  -36.4400   23.8670 C   0  0  0  0  0  3  0  0  0  0  0  0
  -27.5690  -37.3240   24.7420 C   0  0  0  0  0  1  0  0  0  0  0  0
  -26.4900  -37.4880   23.7710 N   0  0  0  0  0  0  0  0  0  0  0  0
  -26.0840  -38.4100   23.9020 H   0  0  0  0  0  0  0  0  0  0  0  0
  -28.6620  -19.6060   20.7500 O   0  0  0  0  0  0  0  0  0  0  0  0
  -29.7700  -18.6330   20.7730 C   0  0  0  0  0  2  0  0  0  0  0  0
  -30.7000  -14.8690   20.4280 C   0  0  0  0  0  0  0  0  0  0  0  0
  -30.5160  -12.5780   19.4510 C   0  0  0  0  0  2  0  0  0  0  0  0
  -29.5980  -12.6070   18.2100 C   0  0  0  0  0  2  0  0  0  0  0  0
  -28.1170  -12.4570   18.6160 C   0  0  0  0  0  2  0  0  0  0  0  0
  -27.7210  -13.3450   19.8250 C   0  0  0  0  0  3  0  0  0  0  0  0
  -28.7680  -13.3030   20.9570 C   0  0  0  0  0  2  0  0  0  0  0  0
  -30.0600  -13.6530   20.3570 N   0  0  0  0  0  0  0  0  0  0  0  0
  -31.9170  -14.9200   20.2360 O   0  0  0  0  0  0  0  0  0  0  0  0
  -28.5290  -17.0910   19.1090 C   0  0  0  0  0  2  0  0  0  0  0  0
  -29.8430  -16.4580   18.6470 C   0  0  0  0  0  2  0  0  0  0  0  0
  -29.1500  -17.1750   20.5050 C   0  0  0  0  0  3  0  0  0  0  0  0
  -29.9640  -15.9740   20.0180 N   0  0  0  0  0  0  0  0  0  0  0  0
  -25.3180  -13.9250   20.5190 C   0  0  0  0  0  0  0  0  0  0  0  0
  -24.2520  -13.1440   20.8700 C   0  0  0  0  0  0  0  0  0  0  0  0
  -24.7270  -11.7960   20.8520 C   0  0  0  0  0  0  0  0  0  0  0  0
  -26.3730  -13.0530   20.3020 N   0  0  0  0  0  0  0  0  0  0  0  0
  -26.0230  -11.7680   20.5670 N   0  0  0  0  0  0  0  0  0  0  0  0
  -24.0100  -10.5290   21.0330 C   0  0  0  0  0  0  0  0  0  0  0  0
  -24.4320   -9.5730   21.9820 C   0  0  0  0  0  3  0  0  0  0  0  0
  -23.7150   -8.3690   22.1520 C   0  0  0  0  0  3  0  0  0  0  0  0
  -22.5620   -8.1130   21.3710 C   0  0  0  0  0  0  0  0  0  0  0  0
  -22.1600   -9.0600   20.4120 C   0  0  0  0  0  3  0  0  0  0  0  0
  -22.8770  -10.2550   20.2400 C   0  0  0  0  0  3  0  0  0  0  0  0
  -21.8180   -6.9610   21.4490 O   0  0  0  0  0  0  0  0  0  0  0  0
  -21.7380   -6.2340   22.6100 C   0  0  0  0  0  0  0  0  0  0  0  0
  -21.2500   -6.7940   23.8100 C   0  0  0  0  0  3  0  0  0  0  0  0
  -21.1200   -5.9910   24.9600 C   0  0  0  0  0  3  0  0  0  0  0  0
  -21.4700   -4.6280   24.9100 C   0  0  0  0  0  0  0  0  0  0  0  0
  -21.9510   -4.0670   23.7140 C   0  0  0  0  0  3  0  0  0  0  0  0
  -22.0820   -4.8680   22.5670 C   0  0  0  0  0  0  0  0  0  0  0  0
  -22.5270   -4.3170   21.4110 F   0  0  0  0  0  0  0  0  0  0  0  0
  -21.3380   -3.8540   26.0130 F   0  0  0  0  0  0  0  0  0  0  0  0
  -22.8460  -13.6110   21.1140 C   0  0  0  0  0  0  0  0  0  0  0  0
  -22.1090  -12.9110   21.9680 N   0  0  0  0  0  0  0  0  0  0  0  0
  -22.4100  -14.6320   20.5830 O   0  0  0  0  0  0  0  0  0  0  0  0
  -22.4760  -12.0870   22.4210 H   0  0  0  0  0  0  0  0  0  0  0  0
  -21.1640  -13.2040   22.1730 H   0  0  0  0  0  0  0  0  0  0  0  0
  -25.4710  -15.2970   20.3450 N   0  0  0  0  0  0  0  0  0  0  0  0
  -24.6970  -15.9420   20.4580 H   0  0  0  0  0  0  0  0  0  0  0  0
  -26.3320  -15.7480   20.0670 H   0  0  0  0  0  0  0  0  0  0  0  0
  1  3  2  0
  2  4  2  0
  3  6  1  0
  4  3  1  0
  4  9  1  0
  5  1  1  0
  7  5  2  0
  7  2  1  0
  9  8  1  0
 10 12  1  0
 10  9  1  0
 11 22  2  0
 12 17  1  0
 13 21  1  0
 13 23  1  0
 14 20  1  0
 14 16  1  0
 15 21  1  0
 16 17  2  0
 16 15  1  0
 18 19  1  0
 18 12  2  0
 19 14  2  0
 20 13  1  0
 21 11  1  0
 23 25  2  0
 24 23  1  0
 26 24  1  0
 27 36  2  0
 27 32  1  0
 28 24  1  0
 28 32  1  0
 29 28  1  0
 30 31  1  0
 30 29  1  0
 31 27  1  0
 32 33  2  0
 33 34  1  0
 35 34  2  0
 36 35  1  0
 37 11  1  0
 37 42  1  0
 37 38  1  0
 38 41  1  1
 38 39  1  0
 40 38  1  0
 42 45  1  0
 43 47  1  0
 43 42  1  0
 44 43  2  0
 47 46  1  0
 49 47  1  0
 49 50  1  0
 49 48  1  0
 51  5  1  0
 51 52  1  0
 54 59  1  0
 55 56  1  0
 55 54  1  0
 57 56  1  0
 57 68  1  0
 57 58  1  0
 59 53  1  0
 59 58  1  0
 60 53  2  0
 61 63  1  0
 62 61  1  0
 62 64  1  0
 63 52  1  0
 64 53  1  0
 64 63  1  0
 65 66  2  0
 66 85  1  0
 67 66  1  0
 67 70  1  0
 68 65  1  0
 68 69  1  0
 69 67  2  0
 70 71  1  0
 71 72  2  0
 73 76  1  0
 73 72  1  0
 74 73  2  0
 75 74  1  0
 75 70  2  0
 76 77  1  0
 77 78  1  0
 78 79  2  0
 80 79  1  0
 80 84  1  0
 81 80  2  0
 82 77  2  0
 82 81  1  0
 83 82  1  0
 85 86  1  0
 86 89  1  0
 86 88  1  0
 87 85  2  0
 90 91  1  0
 90 65  1  0
 92 90  1  0
M  ISO  4   9 101  10 101  53 100  64 100
M  END
>  <TORSDO>  (82) 
F 19

>  <SCORE>  (82) 
-14.311

>  <name>  (82) 
82

>  <ligand_id>  (82) 
82

>  <original_smiles>  (82) 
[H]c1nc(OC([H])([H])C2([H])N(C(=O)N3C([H])([H])C([H])([H])C([H])([H])C([H])(n4nc(-c5c([H])c([H])c(Oc6c([H])c([H])c(F)c([H])c6F)c([H])c5[H])c(C(=O)N([H])[H])c4N([H])[H])C3([H])[H])C([H])([H])C2([H])[H])c([H])c(C([H])([H])[H])c1C([H])(Oc1c([H])c([H])c2c(c1[H])C([H])([H])N(C(=O)C([H])(N([H])C(=O)C([H])(N([H])C([H])([H])[H])C([H])([H])[H])C(C([H])([H])[H])(C([H])([H])[H])C([H])([H])[H])C([H])(C(=O)N([H])C1([H])c3c([H])c([H])c([H])c([H])c3C([H])([H])C([H])([H])C1([H])[H])C2([H])[H])C([H])([H])[H]

>  <smiles>  (82) 
[H]c1nc(OC([H])([H])C2([H])N(C(=O)N3C([H])([H])C([H])([H])C([H])([H])C([H])(n4nc(-c5c([H])c([H])c(Oc6c([H])c([H])c(F)c([H])c6F)c([H])c5[H])c(C(=O)N([H])[H])c4N([H])[H])C3([H])[H])C([H])([H])C2([H])[H])c([H])c(C([H])([H])[H])c1C([H])(Oc1c([H])c([H])c2c(c1[H])C([H])([H])N(C(=O)C([H])(N([H])C(=O)C([H])(N([H])C([H])([H])[H])C([H])([H])[H])C(C([H])([H])[H])(C([H])([H])[H])C([H])([H])[H])C([H])(C(=O)N([H])C1([H])c3c([H])c([H])c([H])c([H])c3C([H])([H])C([H])([H])C1([H])[H])C2([H])[H])C([H])([H])[H]

$$$$
83:0:0
     RDKit          3D

 97107  0  0  1  0  0  0  0  0999 V2000
  -28.9660  -24.5240   23.4250 C   0  0  0  0  0  3  0  0  0  0  0  0
  -30.0160  -24.5330   20.8270 C   0  0  0  0  0  3  0  0  0  0  0  0
  -29.4200  -23.3160   22.8540 C   0  0  0  0  0  0  0  0  0  0  0  0
  -29.9470  -23.3210   21.5440 C   0  0  0  0  0  0  0  0  0  0  0  0
  -29.0400  -25.7400   22.7090 C   0  0  0  0  0  0  0  0  0  0  0  0
  -29.5750  -25.7440   21.3970 C   0  0  0  0  0  0  0  0  0  0  0  0
  -29.3190  -22.0240   23.6540 C   0  0  0  0  0  2  0  0  0  0  0  0
  -30.4890  -22.0550   20.8950 C   0  0  0  0  0  2  0  0  0  0  0  0
  -30.1930  -20.8820   23.1070 C   0  0  0  0  0  2  0  0  0  0  0  0
  -30.0620  -20.7300   21.5770 C   0  0  0  0  0  3  0  0  0  0  0  0
  -28.5470  -27.0190   23.3680 C   0  0  0  0  0  1  0  0  0  0  0  0
  -30.9360  -17.9610   19.2120 C   0  0  0  0  0  2  0  0  0  0  0  0
  -30.8420  -19.4580   19.5540 C   0  0  0  0  0  2  0  0  0  0  0  0
  -30.4960  -18.2230   21.5440 C   0  0  0  0  0  2  0  0  0  0  0  0
  -31.1900  -17.2720   20.5580 C   0  0  0  0  0  3  0  0  0  0  0  0
  -30.8390  -19.5730   21.0350 N   0  0  2  0  0  4  0  0  0  0  0  0
  -31.8040  -19.7210   21.2960 H   0  0  0  0  0  0  0  0  0  0  0  0
  -31.3830  -14.8620   20.0070 C   0  0  0  0  0  0  0  0  0  0  0  0
  -31.0200  -12.7080   18.8730 C   0  0  0  0  0  2  0  0  0  0  0  0
  -30.0200  -12.9060   17.7160 C   0  0  0  0  0  2  0  0  0  0  0  0
  -28.5700  -12.7710   18.2190 C   0  0  0  0  0  2  0  0  0  0  0  0
  -28.2930  -13.6160   19.4920 C   0  0  0  0  0  3  0  0  0  0  0  0
  -29.4000  -13.4000   20.5480 C   0  0  0  0  0  2  0  0  0  0  0  0
  -30.6970  -13.6930   19.9150 N   0  0  0  0  0  0  0  0  0  0  0  0
  -32.4680  -15.0500   19.4530 O   0  0  0  0  0  0  0  0  0  0  0  0
  -30.7360  -15.8740   20.6100 N   0  0  0  0  0  0  0  0  0  0  0  0
  -29.8370  -15.6710   21.0220 H   0  0  0  0  0  0  0  0  0  0  0  0
  -25.9480  -14.2250   20.3610 C   0  0  0  0  0  0  0  0  0  0  0  0
  -24.8920  -13.4520   20.7630 C   0  0  0  0  0  0  0  0  0  0  0  0
  -25.3310  -12.0970   20.6510 C   0  0  0  0  0  0  0  0  0  0  0  0
  -26.9650  -13.3420   20.0350 N   0  0  0  0  0  0  0  0  0  0  0  0
  -26.5990  -12.0540   20.2660 N   0  0  0  0  0  0  0  0  0  0  0  0
  -24.5990  -10.8360   20.8330 C   0  0  0  0  0  0  0  0  0  0  0  0
  -24.9790   -9.8980   21.8170 C   0  0  0  0  0  3  0  0  0  0  0  0
  -24.2500   -8.7010   21.9850 C   0  0  0  0  0  3  0  0  0  0  0  0
  -23.1260   -8.4350   21.1690 C   0  0  0  0  0  0  0  0  0  0  0  0
  -22.7650   -9.3630   20.1750 C   0  0  0  0  0  3  0  0  0  0  0  0
  -23.4960  -10.5500   20.0050 C   0  0  0  0  0  3  0  0  0  0  0  0
  -22.3730   -7.2880   21.2430 O   0  0  0  0  0  0  0  0  0  0  0  0
  -22.0920   -6.6880   22.4440 C   0  0  0  0  0  0  0  0  0  0  0  0
  -21.4270   -7.3750   23.4830 C   0  0  0  0  0  3  0  0  0  0  0  0
  -21.0970   -6.6990   24.6750 C   0  0  0  0  0  3  0  0  0  0  0  0
  -21.4230   -5.3380   24.8260 C   0  0  0  0  0  0  0  0  0  0  0  0
  -22.0800   -4.6500   23.7900 C   0  0  0  0  0  3  0  0  0  0  0  0
  -22.4110   -5.3240   22.6020 C   0  0  0  0  0  0  0  0  0  0  0  0
  -23.0250   -4.6520   21.5990 F   0  0  0  0  0  0  0  0  0  0  0  0
  -21.0990   -4.6860   25.9680 F   0  0  0  0  0  0  0  0  0  0  0  0
  -23.5190  -13.9340   21.1370 C   0  0  0  0  0  0  0  0  0  0  0  0
  -22.8450  -13.2270   22.0360 N   0  0  0  0  0  0  0  0  0  0  0  0
  -23.0570  -14.9730   20.6660 O   0  0  0  0  0  0  0  0  0  0  0  0
  -23.2330  -12.3860   22.4380 H   0  0  0  0  0  0  0  0  0  0  0  0
  -21.9270  -13.5320   22.3290 H   0  0  0  0  0  0  0  0  0  0  0  0
  -26.1210  -15.6000   20.2260 N   0  0  0  0  0  0  0  0  0  0  0  0
  -25.3660  -16.2550   20.3940 H   0  0  0  0  0  0  0  0  0  0  0  0
  -26.9450  -16.0370   19.8330 H   0  0  0  0  0  0  0  0  0  0  0  0
  -29.7200  -27.0150   20.5660 C   0  0  0  0  0  2  0  0  0  0  0  0
  -28.8030  -27.0370   19.4720 O   0  0  0  0  0  0  0  0  0  0  0  0
  -24.7340  -31.6400   23.1200 C   0  0  0  0  0  0  0  0  0  0  0  0
  -27.6000  -27.6770   19.6490 C   0  0  0  0  0  0  0  0  0  0  0  0
  -23.5750  -30.2770   21.4080 C   0  0  0  0  0  3  0  0  0  0  0  0
  -25.0890  -28.9590   19.8370 C   0  0  0  0  0  0  0  0  0  0  0  0
  -26.0510  -30.8490   21.1630 C   0  0  0  0  0  2  0  0  0  0  0  0
  -26.2180  -29.5370   20.4300 C   0  0  0  0  0  0  0  0  0  0  0  0
  -27.4730  -28.9060   20.3370 C   0  0  0  0  0  3  0  0  0  0  0  0
  -26.4580  -27.1080   19.0500 C   0  0  0  0  0  3  0  0  0  0  0  0
  -25.2030  -27.7390   19.1440 C   0  0  0  0  0  3  0  0  0  0  0  0
  -23.7870  -29.7130   19.9760 C   0  0  0  0  0  2  0  0  0  0  0  0
  -24.8050  -30.9340   21.9570 N   0  0  0  0  0  0  0  0  0  0  0  0
  -23.6570  -31.7880   23.7130 O   0  0  0  0  0  0  0  0  0  0  0  0
  -23.0350  -29.1410   22.3070 C   0  0  0  0  0  0  0  0  0  0  0  0
  -21.7380  -28.8300   22.1600 N   0  0  0  0  0  0  0  0  0  0  0  0
  -23.7800  -28.5450   23.0900 O   0  0  0  0  0  0  0  0  0  0  0  0
  -21.1940  -29.3700   21.5010 H   0  0  0  0  0  0  0  0  0  0  0  0
  -18.5270  -27.2110   22.4870 C   0  0  0  0  0  0  0  0  0  0  0  0
  -21.0210  -27.7710   22.8690 C   0  0  0  0  0  3  0  0  0  0  0  0
  -21.3230  -26.3860   22.2520 C   0  0  0  0  0  2  0  0  0  0  0  0
  -20.3060  -25.9660   21.1870 C   0  0  0  0  0  2  0  0  0  0  0  0
  -18.8950  -25.9170   21.7790 C   0  0  0  0  0  2  0  0  0  0  0  0
  -19.5260  -28.0890   22.9840 C   0  0  0  0  0  0  0  0  0  0  0  0
  -19.1310  -29.2940   23.6040 C   0  0  0  0  0  3  0  0  0  0  0  0
  -17.7700  -29.6260   23.7320 C   0  0  0  0  0  3  0  0  0  0  0  0
  -16.7850  -28.7460   23.2540 C   0  0  0  0  0  3  0  0  0  0  0  0
  -17.1630  -27.5400   22.6370 C   0  0  0  0  0  3  0  0  0  0  0  0
  -25.9960  -32.3130   23.7480 C   0  0  0  0  0  3  0  0  0  0  0  0
  -25.6300  -33.6890   24.1100 N   0  0  0  0  0  0  0  0  0  0  0  0
  -25.9210  -34.7700   23.3750 C   0  0  0  0  0  0  0  0  0  0  0  0
  -26.6000  -34.7190   22.3450 O   0  0  0  0  0  0  0  0  0  0  0  0
  -25.0280  -33.8000   24.9120 H   0  0  0  0  0  0  0  0  0  0  0  0
  -24.1190  -36.4910   23.0460 C   0  0  0  0  0  1  0  0  0  0  0  0
  -25.3720  -36.1250   23.8580 C   0  0  0  0  0  3  0  0  0  0  0  0
  -27.4590  -37.0860   24.7200 C   0  0  0  0  0  1  0  0  0  0  0  0
  -26.3570  -37.2250   23.7740 N   0  0  0  0  0  0  0  0  0  0  0  0
  -25.9100  -38.1220   23.9370 H   0  0  0  0  0  0  0  0  0  0  0  0
  -26.5590  -31.5370   25.0010 C   0  0  1  0  0  0  0  0  0  0  0  0
  -25.4860  -31.2160   26.0670 C   0  0  0  0  0  1  0  0  0  0  0  0
  -27.2100  -30.2020   24.5660 C   0  0  0  0  0  1  0  0  0  0  0  0
  -27.6710  -32.3710   25.6800 C   0  0  0  0  0  1  0  0  0  0  0  0
  2  6  2  0
  2  4  1  0
  3  1  1  0
  3  7  1  0
  4  3  2  0
  5 11  1  0
  5  1  2  0
  6  5  1  0
  8  4  1  0
  9  7  1  0
 10  8  1  0
 10  9  1  0
 12 13  1  0
 12 15  1  0
 13 16  1  0
 15 26  1  0
 15 14  1  0
 16 17  1  1
 16 14  1  0
 16 10  1  0
 18 26  1  0
 19 24  1  0
 20 21  1  0
 20 19  1  0
 22 21  1  0
 22 31  1  0
 22 23  1  0
 24 18  1  0
 24 23  1  0
 25 18  2  0
 26 27  1  0
 28 29  2  0
 29 48  1  0
 30 29  1  0
 30 33  1  0
 31 32  1  0
 31 28  1  0
 32 30  2  0
 33 34  1  0
 34 35  2  0
 36 39  1  0
 36 35  1  0
 37 36  2  0
 38 37  1  0
 38 33  2  0
 39 40  1  0
 40 45  2  0
 40 41  1  0
 41 42  2  0
 42 43  1  0
 43 47  1  0
 44 43  2  0
 45 44  1  0
 46 45  1  0
 48 49  1  0
 49 52  1  0
 49 51  1  0
 50 48  2  0
 53 28  1  0
 53 54  1  0
 55 53  1  0
 56  6  1  0
 57 59  1  0
 57 56  1  0
 58 69  2  0
 59 64  1  0
 60 68  1  0
 60 70  1  0
 61 67  1  0
 61 63  1  0
 62 68  1  0
 63 62  1  0
 64 63  2  0
 65 66  1  0
 65 59  2  0
 66 61  2  0
 67 60  1  0
 68 58  1  0
 70 72  2  0
 71 70  1  0
 73 71  1  0
 74 83  2  0
 74 79  1  0
 75 71  1  0
 75 79  1  0
 76 75  1  0
 77 78  1  0
 77 76  1  0
 78 74  1  0
 79 80  2  0
 80 81  1  0
 82 81  2  0
 83 82  1  0
 84 58  1  0
 84 85  1  0
 84 94  1  0
 85 88  1  0
 86 90  1  0
 86 85  1  0
 87 86  2  0
 90 89  1  0
 92 90  1  0
 92 93  1  0
 92 91  1  0
 94 97  1  1
 94 95  1  0
 96 94  1  0
M  ISO  4  18 100  26 100  56 101  57 101
M  END
>  <TORSDO>  (83) 
F 18

>  <SCORE>  (83) 
-12.209

>  <name>  (83) 
83

>  <ligand_id>  (83) 
83

>  <original_smiles>  (83) 
[H]c1c([H])c([H])c2c(c1[H])C([H])([H])C([H])([H])C([H])([H])C2([H])N([H])C(=O)C1([H])N(C(=O)C([H])(N([H])C(=O)C([H])(N([H])C([H])([H])[H])C([H])([H])[H])C(C([H])([H])[H])(C([H])([H])[H])C([H])([H])[H])C([H])([H])c2c([H])c(OC([H])([H])c3c([H])c4c(c([H])c3C([H])([H])[H])C([H])([H])C([H])([H])C([H])([N+]3([H])C([H])([H])C([H])([H])C([H])(N([H])C(=O)N5C([H])([H])C([H])([H])C([H])([H])C([H])(n6nc(-c7c([H])c([H])c(Oc8c([H])c([H])c(F)c([H])c8F)c([H])c7[H])c(C(=O)N([H])[H])c6N([H])[H])C5([H])[H])C3([H])[H])C4([H])[H])c([H])c([H])c2C1([H])[H]

>  <smiles>  (83) 
[H]c1c([H])c([H])c2c(c1[H])C([H])([H])C([H])([H])C([H])([H])C2([H])N([H])C(=O)C1([H])N(C(=O)C([H])(N([H])C(=O)C([H])(N([H])C([H])([H])[H])C([H])([H])[H])C(C([H])([H])[H])(C([H])([H])[H])C([H])([H])[H])C([H])([H])c2c([H])c(OC([H])([H])c3c([H])c4c(c([H])c3C([H])([H])[H])C([H])([H])C([H])([H])C([H])([N+]3([H])C([H])([H])C([H])([H])C([H])(N([H])C(=O)N5C([H])([H])C([H])([H])C([H])([H])C([H])(n6nc(-c7c([H])c([H])c(Oc8c([H])c([H])c(F)c([H])c8F)c([H])c7[H])c(C(=O)N([H])[H])c6N([H])[H])C5([H])[H])C3([H])[H])C4([H])[H])c([H])c([H])c2C1([H])[H]

$$$$
84:0:0
     RDKit          3D

 99109  0  0  1  0  0  0  0  0999 V2000
  -30.6140  -21.3460   20.2020 C   0  0  0  0  0  0  0  0  0  0  0  0
  -30.6610  -19.8790   20.2930 C   0  0  0  0  0  0  0  0  0  0  0  0
  -31.9140  -21.7760   20.0260 C   0  0  0  0  0  0  0  0  0  0  0  0
  -31.9890  -19.5410   20.1930 C   0  0  0  0  0  0  0  0  0  0  0  0
  -32.5460  -23.1240   19.8620 C   0  0  0  0  0  1  0  0  0  0  0  0
  -32.7260  -20.6770   20.0130 N   0  0  0  0  0  0  0  0  0  0  0  0
  -33.7310  -20.7010   19.8850 H   0  0  0  0  0  0  0  0  0  0  0  0
  -30.8240  -14.6460   20.0060 C   0  0  0  0  0  0  0  0  0  0  0  0
  -30.4630  -12.4510   18.9360 C   0  0  0  0  0  2  0  0  0  0  0  0
  -29.4510  -12.6270   17.7860 C   0  0  0  0  0  2  0  0  0  0  0  0
  -28.0100  -12.4660   18.3100 C   0  0  0  0  0  2  0  0  0  0  0  0
  -27.7350  -13.2970   19.5950 C   0  0  0  0  0  3  0  0  0  0  0  0
  -28.8740  -13.1570   20.6320 C   0  0  0  0  0  2  0  0  0  0  0  0
  -30.1360  -13.4680   19.9510 N   0  0  0  0  0  0  0  0  0  0  0  0
  -31.9760  -14.7340   19.5720 O   0  0  0  0  0  0  0  0  0  0  0  0
  -29.6520  -17.8810   21.6960 C   0  0  0  0  0  2  0  0  0  0  0  0
  -30.3730  -16.5060   21.4930 C   0  0  0  0  0  2  0  0  0  0  0  0
  -30.0960  -16.7290   19.0700 C   0  0  0  0  0  2  0  0  0  0  0  0
  -29.5250  -18.8410   20.4750 C   0  0  0  0  0  3  0  0  0  0  0  0
  -29.2060  -17.9940   19.2160 C   0  0  0  0  0  3  0  0  0  0  0  0
  -27.7200  -17.6090   19.1760 C   0  0  0  0  0  1  0  0  0  0  0  0
  -30.1070  -15.7940   20.2230 N   0  0  0  0  0  0  0  0  0  0  0  0
  -25.4000  -13.8350   20.5240 C   0  0  0  0  0  0  0  0  0  0  0  0
  -24.3680  -13.0380   20.9330 C   0  0  0  0  0  0  0  0  0  0  0  0
  -24.8320  -11.6930   20.7970 C   0  0  0  0  0  0  0  0  0  0  0  0
  -26.4290  -12.9790   20.1670 N   0  0  0  0  0  0  0  0  0  0  0  0
  -26.0970  -11.6810   20.3930 N   0  0  0  0  0  0  0  0  0  0  0  0
  -24.1250  -10.4190   20.9710 C   0  0  0  0  0  0  0  0  0  0  0  0
  -24.5520   -9.4600   21.9150 C   0  0  0  0  0  3  0  0  0  0  0  0
  -23.8440   -8.2510   22.0780 C   0  0  0  0  0  3  0  0  0  0  0  0
  -22.6930   -7.9910   21.2960 C   0  0  0  0  0  0  0  0  0  0  0  0
  -22.2840   -8.9400   20.3420 C   0  0  0  0  0  3  0  0  0  0  0  0
  -22.9950  -10.1400   20.1770 C   0  0  0  0  0  3  0  0  0  0  0  0
  -21.9580   -6.8330   21.3670 O   0  0  0  0  0  0  0  0  0  0  0  0
  -21.7770   -6.1670   22.5530 C   0  0  0  0  0  0  0  0  0  0  0  0
  -21.1570   -6.7770   23.6660 C   0  0  0  0  0  3  0  0  0  0  0  0
  -20.9300   -6.0320   24.8410 C   0  0  0  0  0  3  0  0  0  0  0  0
  -21.3150   -4.6790   24.9050 C   0  0  0  0  0  0  0  0  0  0  0  0
  -21.9290   -4.0710   23.7970 C   0  0  0  0  0  3  0  0  0  0  0  0
  -22.1570   -4.8110   22.6230 C   0  0  0  0  0  0  0  0  0  0  0  0
  -22.7300   -4.2130   21.5520 F   0  0  0  0  0  0  0  0  0  0  0  0
  -21.0930   -3.9620   26.0310 F   0  0  0  0  0  0  0  0  0  0  0  0
  -22.9950  -13.4910   21.3370 C   0  0  0  0  0  0  0  0  0  0  0  0
  -22.3430  -12.7560   22.2310 N   0  0  0  0  0  0  0  0  0  0  0  0
  -22.5090  -14.5310   20.8930 O   0  0  0  0  0  0  0  0  0  0  0  0
  -22.7500  -11.9110   22.6070 H   0  0  0  0  0  0  0  0  0  0  0  0
  -21.4260  -13.0410   22.5450 H   0  0  0  0  0  0  0  0  0  0  0  0
  -25.5400  -15.2120   20.4010 N   0  0  0  0  0  0  0  0  0  0  0  0
  -24.7850  -15.8570   20.6070 H   0  0  0  0  0  0  0  0  0  0  0  0
  -26.3640  -15.6660   20.0270 H   0  0  0  0  0  0  0  0  0  0  0  0
  -29.2390  -23.1620   18.9540 C   0  0  0  0  0  2  0  0  0  0  0  0
  -29.4910  -23.2930   21.4930 C   0  0  0  0  0  2  0  0  0  0  0  0
  -29.2940  -24.7130   19.1160 C   0  0  0  0  0  2  0  0  0  0  0  0
  -28.4780  -24.4840   21.5050 C   0  0  0  0  0  2  0  0  0  0  0  0
  -29.4160  -22.3330   20.2660 C   0  0  0  0  0  3  0  0  0  0  0  0
  -28.2780  -25.2270   20.1540 C   0  0  0  0  0  3  0  0  0  0  0  0
  -28.3340  -26.6860   20.2770 O   0  0  0  0  0  0  0  0  0  0  0  0
  -24.6200  -31.9900   23.3770 C   0  0  0  0  0  0  0  0  0  0  0  0
  -27.1700  -27.4570   20.2750 C   0  0  0  0  0  0  0  0  0  0  0  0
  -23.3870  -30.6050   21.7480 C   0  0  0  0  0  3  0  0  0  0  0  0
  -24.8060  -29.0510   20.3090 C   0  0  0  0  0  0  0  0  0  0  0  0
  -25.9230  -30.9150   21.5330 C   0  0  0  0  0  2  0  0  0  0  0  0
  -25.9820  -29.5400   20.8880 C   0  0  0  0  0  0  0  0  0  0  0  0
  -27.1650  -28.7540   20.8620 C   0  0  0  0  0  3  0  0  0  0  0  0
  -25.9670  -27.0120   19.6750 C   0  0  0  0  0  3  0  0  0  0  0  0
  -24.7980  -27.7910   19.6960 C   0  0  0  0  0  3  0  0  0  0  0  0
  -23.5760  -29.9290   20.3660 C   0  0  0  0  0  2  0  0  0  0  0  0
  -24.6630  -31.1860   22.2760 N   0  0  0  0  0  0  0  0  0  0  0  0
  -23.5460  -32.2750   23.9240 O   0  0  0  0  0  0  0  0  0  0  0  0
  -22.7290  -29.5890   22.7140 C   0  0  0  0  0  0  0  0  0  0  0  0
  -21.4180  -29.3520   22.5350 N   0  0  0  0  0  0  0  0  0  0  0  0
  -23.3960  -29.0180   23.5800 O   0  0  0  0  0  0  0  0  0  0  0  0
  -20.9390  -29.8690   21.8100 H   0  0  0  0  0  0  0  0  0  0  0  0
  -18.0910  -27.9730   22.8640 C   0  0  0  0  0  0  0  0  0  0  0  0
  -20.6030  -28.4080   23.2990 C   0  0  0  0  0  3  0  0  0  0  0  0
  -20.8310  -26.9560   22.8170 C   0  0  0  0  0  2  0  0  0  0  0  0
  -19.8270  -26.5090   21.7480 C   0  0  0  0  0  2  0  0  0  0  0  0
  -18.3950  -26.6020   22.2830 C   0  0  0  0  0  2  0  0  0  0  0  0
  -19.1280  -28.8270   23.3250 C   0  0  0  0  0  0  0  0  0  0  0  0
  -18.7910  -30.1040   23.8230 C   0  0  0  0  0  3  0  0  0  0  0  0
  -17.4500  -30.5310   23.8640 C   0  0  0  0  0  3  0  0  0  0  0  0
  -16.4270  -29.6750   23.4200 C   0  0  0  0  0  3  0  0  0  0  0  0
  -16.7470  -28.3980   22.9260 C   0  0  0  0  0  3  0  0  0  0  0  0
  -25.9170  -32.6080   23.9890 C   0  0  0  0  0  3  0  0  0  0  0  0
  -25.6300  -34.0130   24.3090 N   0  0  0  0  0  0  0  0  0  0  0  0
  -25.9360  -35.0510   23.5190 C   0  0  0  0  0  0  0  0  0  0  0  0
  -26.5640  -34.9250   22.4630 O   0  0  0  0  0  0  0  0  0  0  0  0
  -25.0720  -34.1860   25.1320 H   0  0  0  0  0  0  0  0  0  0  0  0
  -24.1880  -36.8340   23.2270 C   0  0  0  0  0  1  0  0  0  0  0  0
  -25.4760  -36.4500   23.9720 C   0  0  0  0  0  3  0  0  0  0  0  0
  -27.6510  -37.3580   24.6590 C   0  0  0  0  0  1  0  0  0  0  0  0
  -26.4990  -37.5000   23.7720 N   0  0  0  0  0  0  0  0  0  0  0  0
  -26.1000  -38.4240   23.9140 H   0  0  0  0  0  0  0  0  0  0  0  0
  -26.4290  -31.8390   25.2670 C   0  0  1  0  0  0  0  0  0  0  0  0
  -25.3330  -31.6040   26.3340 C   0  0  0  0  0  1  0  0  0  0  0  0
  -27.0080  -30.4590   24.8770 C   0  0  0  0  0  1  0  0  0  0  0  0
  -27.5820  -32.6300   25.9260 C   0  0  0  0  0  1  0  0  0  0  0  0
  -33.9790  -18.2830   20.4280 C   0  0  0  0  0  1  0  0  0  0  0  0
  -32.5700  -18.3180   20.2290 O   0  0  0  0  0  0  0  0  0  0  0  0
  1  2  1  0
  3  1  2  0
  4 99  1  0
  4  2  2  0
  5  3  1  0
  6  3  1  0
  6  4  1  0
  7  6  1  0
  8 22  1  0
  9 14  1  0
 10 11  1  0
 10  9  1  0
 12 11  1  0
 12 26  1  0
 12 13  1  0
 14  8  1  0
 14 13  1  0
 15  8  2  0
 17 16  1  0
 18 20  1  0
 18 22  1  0
 19  2  1  0
 19 16  1  0
 20 21  1  0
 20 19  1  0
 22 17  1  0
 23 24  2  0
 24 43  1  0
 25 24  1  0
 25 28  1  0
 26 27  1  0
 26 23  1  0
 27 25  2  0
 28 29  1  0
 29 30  2  0
 31 34  1  0
 31 30  1  0
 32 31  2  0
 33 32  1  0
 33 28  2  0
 34 35  1  0
 35 40  2  0
 35 36  1  0
 36 37  2  0
 37 38  1  0
 38 42  1  0
 39 38  2  0
 40 39  1  0
 41 40  1  0
 43 44  1  0
 44 47  1  0
 44 46  1  0
 45 43  2  0
 48 23  1  0
 48 49  1  0
 50 48  1  0
 51 53  1  0
 51 55  1  0
 52 54  1  0
 53 56  1  0
 55  1  1  0
 55 52  1  0
 56 57  1  0
 56 54  1  0
 58 69  2  0
 59 57  1  0
 59 64  1  0
 60 68  1  0
 60 70  1  0
 61 67  1  0
 61 63  1  0
 62 68  1  0
 63 62  1  0
 64 63  2  0
 65 66  1  0
 65 59  2  0
 66 61  2  0
 67 60  1  0
 68 58  1  0
 70 72  2  0
 71 70  1  0
 73 71  1  0
 74 83  2  0
 74 79  1  0
 75 71  1  0
 75 79  1  0
 76 75  1  0
 77 78  1  0
 77 76  1  0
 78 74  1  0
 79 80  2  0
 80 81  1  0
 82 81  2  0
 83 82  1  0
 84 58  1  0
 84 85  1  0
 84 94  1  0
 85 88  1  0
 86 90  1  0
 86 85  1  0
 87 86  2  0
 90 89  1  0
 92 93  1  0
 92 90  1  0
 92 91  1  0
 94 97  1  1
 94 95  1  0
 96 94  1  0
 99 98  1  0
M  ISO  4   8 100  22 100  56 101  57 101
M  END
>  <TORSDO>  (84) 
F 18

>  <SCORE>  (84) 
-14.330

>  <name>  (84) 
84

>  <ligand_id>  (84) 
84

>  <original_smiles>  (84) 
[H]c1c([H])c([H])c2c(c1[H])C([H])([H])C([H])([H])C([H])([H])C2([H])N([H])C(=O)C1([H])N(C(=O)C([H])(N([H])C(=O)C([H])(N([H])C([H])([H])[H])C([H])([H])[H])C(C([H])([H])[H])(C([H])([H])[H])C([H])([H])[H])C([H])([H])c2c([H])c(OC3([H])C([H])([H])C([H])([H])C([H])(c4c(C5([H])C([H])([H])C([H])([H])N(C(=O)N6C([H])([H])C([H])([H])C([H])([H])C([H])(n7nc(-c8c([H])c([H])c(Oc9c([H])c([H])c(F)c([H])c9F)c([H])c8[H])c(C(=O)N([H])[H])c7N([H])[H])C6([H])[H])C([H])([H])C5([H])C([H])([H])[H])c(OC([H])([H])[H])n([H])c4C([H])([H])[H])C([H])([H])C3([H])[H])c([H])c([H])c2C1([H])[H]

>  <smiles>  (84) 
[H]c1c([H])c([H])c2c(c1[H])C([H])([H])C([H])([H])C([H])([H])C2([H])N([H])C(=O)C1([H])N(C(=O)C([H])(N([H])C(=O)C([H])(N([H])C([H])([H])[H])C([H])([H])[H])C(C([H])([H])[H])(C([H])([H])[H])C([H])([H])[H])C([H])([H])c2c([H])c(OC3([H])C([H])([H])C([H])([H])C([H])(c4c(C5([H])C([H])([H])C([H])([H])N(C(=O)N6C([H])([H])C([H])([H])C([H])([H])C([H])(n7nc(-c8c([H])c([H])c(Oc9c([H])c([H])c(F)c([H])c9F)c([H])c8[H])c(C(=O)N([H])[H])c7N([H])[H])C6([H])[H])C([H])([H])C5([H])C([H])([H])[H])c(OC([H])([H])[H])n([H])c4C([H])([H])[H])C([H])([H])C3([H])[H])c([H])c([H])c2C1([H])[H]

$$$$
85:0:0
     RDKit          3D

103113  0  0  1  0  0  0  0  0999 V2000
  -30.8500  -19.6550   19.8090 C   0  0  0  0  0  0  0  0  0  0  0  0
  -29.8550  -20.6000   19.4480 C   0  0  0  0  0  0  0  0  0  0  0  0
  -32.1100  -20.2230   20.2010 C   0  0  0  0  0  0  0  0  0  0  0  0
  -30.1990  -21.9370   19.3210 C   0  0  0  0  0  0  0  0  0  0  0  0
  -32.3180  -21.6240   20.0910 C   0  0  0  0  0  0  0  0  0  0  0  0
  -28.4030  -20.4220   19.0390 C   0  0  0  0  0  2  0  0  0  0  0  0
  -27.8660  -21.8760   18.9320 C   0  0  0  0  0  2  0  0  0  0  0  0
  -29.1210  -22.7240   18.6450 C   0  0  0  0  0  3  0  0  0  0  0  0
  -33.2890  -19.3620   20.6670 C   0  0  0  0  0  1  0  0  0  0  0  0
  -34.0150  -23.3450   19.6480 C   0  0  0  0  0  1  0  0  0  0  0  0
  -31.3840  -22.4790   19.6360 N   0  0  0  0  0  0  0  0  0  0  0  0
  -33.5620  -22.1830   20.4030 N   0  0  0  0  0  0  0  0  0  0  0  0
  -34.2840  -21.5260   20.6720 H   0  0  0  0  0  0  0  0  0  0  0  0
  -30.9400  -14.7450   20.9470 C   0  0  0  0  0  0  0  0  0  0  0  0
  -30.7000  -12.4500   20.1360 C   0  0  0  0  0  2  0  0  0  0  0  0
  -29.8670  -12.3910   18.8310 C   0  0  0  0  0  2  0  0  0  0  0  0
  -28.3670  -12.3420   19.1340 C   0  0  0  0  0  2  0  0  0  0  0  0
  -27.9050  -13.3620   20.2110 C   0  0  0  0  0  3  0  0  0  0  0  0
  -28.8590  -13.3950   21.4270 C   0  0  0  0  0  2  0  0  0  0  0  0
  -30.2230  -13.5920   20.9220 N   0  0  0  0  0  0  0  0  0  0  0  0
  -32.1560  -14.7660   21.1380 O   0  0  0  0  0  0  0  0  0  0  0  0
  -30.4970  -16.3910   17.6490 C   0  0  0  0  0  2  0  0  0  0  0  0
  -30.2030  -17.8400   18.0620 C   0  0  0  0  0  2  0  0  0  0  0  0
  -31.2020  -15.6150   18.7690 C   0  0  0  0  0  2  0  0  0  0  0  0
  -30.7320  -18.1470   19.4790 C   0  0  0  0  0  3  0  0  0  0  0  0
  -30.1020  -17.0900   20.4650 C   0  0  0  0  0  3  0  0  0  0  0  0
  -30.2130  -17.4150   21.9730 C   0  0  0  0  0  1  0  0  0  0  0  0
  -30.4830  -15.6830   20.0750 N   0  0  0  0  0  0  0  0  0  0  0  0
  -25.4550  -13.9840   20.6890 C   0  0  0  0  0  0  0  0  0  0  0  0
  -24.3570  -13.2140   20.9670 C   0  0  0  0  0  0  0  0  0  0  0  0
  -24.8220  -11.8650   21.0300 C   0  0  0  0  0  0  0  0  0  0  0  0
  -26.5200  -13.1020   20.5950 N   0  0  0  0  0  0  0  0  0  0  0  0
  -26.1380  -11.8270   20.8700 N   0  0  0  0  0  0  0  0  0  0  0  0
  -24.0840  -10.6030   21.1760 C   0  0  0  0  0  0  0  0  0  0  0  0
  -24.4430   -9.6480   22.1520 C   0  0  0  0  0  3  0  0  0  0  0  0
  -23.7060   -8.4520   22.2880 C   0  0  0  0  0  3  0  0  0  0  0  0
  -22.5970   -8.2020   21.4450 C   0  0  0  0  0  0  0  0  0  0  0  0
  -22.2610   -9.1450   20.4570 C   0  0  0  0  0  3  0  0  0  0  0  0
  -22.9980  -10.3320   20.3210 C   0  0  0  0  0  3  0  0  0  0  0  0
  -21.8390   -7.0570   21.4870 O   0  0  0  0  0  0  0  0  0  0  0  0
  -21.7080   -6.3220   22.6400 C   0  0  0  0  0  0  0  0  0  0  0  0
  -21.1520   -6.8760   23.8140 C   0  0  0  0  0  3  0  0  0  0  0  0
  -20.9710   -6.0690   24.9550 C   0  0  0  0  0  3  0  0  0  0  0  0
  -21.3340   -4.7080   24.9210 C   0  0  0  0  0  0  0  0  0  0  0  0
  -21.8820   -4.1530   23.7510 C   0  0  0  0  0  3  0  0  0  0  0  0
  -22.0660   -4.9590   22.6130 C   0  0  0  0  0  0  0  0  0  0  0  0
  -22.5740   -4.4150   21.4800 F   0  0  0  0  0  0  0  0  0  0  0  0
  -21.1510   -3.9310   26.0140 F   0  0  0  0  0  0  0  0  0  0  0  0
  -22.9380  -13.6890   21.0720 C   0  0  0  0  0  0  0  0  0  0  0  0
  -22.1280  -13.0180   21.8810 N   0  0  0  0  0  0  0  0  0  0  0  0
  -22.5520  -14.6940   20.4730 O   0  0  0  0  0  0  0  0  0  0  0  0
  -22.4520  -12.2050   22.3850 H   0  0  0  0  0  0  0  0  0  0  0  0
  -21.1710  -13.3170   21.9990 H   0  0  0  0  0  0  0  0  0  0  0  0
  -25.6360  -15.3480   20.4840 N   0  0  0  0  0  0  0  0  0  0  0  0
  -24.8640  -16.0070   20.4910 H   0  0  0  0  0  0  0  0  0  0  0  0
  -26.5220  -15.7800   20.2580 H   0  0  0  0  0  0  0  0  0  0  0  0
  -29.1180  -24.1340   19.0780 N   0  0  0  0  0  4  0  0  0  0  0  0
  -30.1020  -24.3320   19.1990 H   0  0  0  0  0  0  0  0  0  0  0  0
  -28.7120  -24.1910   20.0000 H   0  0  0  0  0  0  0  0  0  0  0  0
  -28.9860  -25.0090   16.6900 C   0  0  0  0  0  1  0  0  0  0  0  0
  -28.4930  -25.1260   18.1530 C   0  0  0  0  0  3  0  0  0  0  0  0
  -28.7330  -26.5710   18.6490 C   0  0  0  0  0  2  0  0  0  0  0  0
  -28.2350  -26.7990   19.9660 O   0  0  0  0  0  0  0  0  0  0  0  0
  -24.5310  -31.9290   23.2080 C   0  0  0  0  0  0  0  0  0  0  0  0
  -27.0660  -27.5180   20.0240 C   0  0  0  0  0  0  0  0  0  0  0  0
  -23.2720  -30.5400   21.5950 C   0  0  0  0  0  3  0  0  0  0  0  0
  -24.6760  -29.0100   20.1210 C   0  0  0  0  0  0  0  0  0  0  0  0
  -25.7880  -30.9010   21.3190 C   0  0  0  0  0  2  0  0  0  0  0  0
  -25.8510  -29.5330   20.6780 C   0  0  0  0  0  0  0  0  0  0  0  0
  -27.0490  -28.7870   20.6370 C   0  0  0  0  0  3  0  0  0  0  0  0
  -25.8690  -26.9910   19.4910 C   0  0  0  0  0  3  0  0  0  0  0  0
  -24.6770  -27.7340   19.5330 C   0  0  0  0  0  3  0  0  0  0  0  0
  -23.4380  -29.8720   20.2040 C   0  0  0  0  0  2  0  0  0  0  0  0
  -24.5510  -31.1370   22.0990 N   0  0  0  0  0  0  0  0  0  0  0  0
  -23.4680  -32.1980   23.7830 O   0  0  0  0  0  0  0  0  0  0  0  0
  -22.6530  -29.5100   22.5680 C   0  0  0  0  0  0  0  0  0  0  0  0
  -21.3290  -29.3070   22.4590 N   0  0  0  0  0  0  0  0  0  0  0  0
  -23.3580  -28.8970   23.3740 O   0  0  0  0  0  0  0  0  0  0  0  0
  -20.8200  -29.8540   21.7780 H   0  0  0  0  0  0  0  0  0  0  0  0
  -17.9840  -28.0530   22.9910 C   0  0  0  0  0  0  0  0  0  0  0  0
  -20.5380  -28.3610   23.2440 C   0  0  0  0  0  3  0  0  0  0  0  0
  -20.6650  -26.9260   22.6830 C   0  0  0  0  0  2  0  0  0  0  0  0
  -19.5640  -26.5710   21.6790 C   0  0  0  0  0  2  0  0  0  0  0  0
  -18.1830  -26.6980   22.3290 C   0  0  0  0  0  2  0  0  0  0  0  0
  -19.0910  -28.8400   23.4060 C   0  0  0  0  0  0  0  0  0  0  0  0
  -18.8530  -30.1060   23.9840 C   0  0  0  0  0  3  0  0  0  0  0  0
  -17.5400  -30.5860   24.1500 C   0  0  0  0  0  3  0  0  0  0  0  0
  -16.4480  -29.7970   23.7500 C   0  0  0  0  0  3  0  0  0  0  0  0
  -16.6700  -28.5320   23.1770 C   0  0  0  0  0  3  0  0  0  0  0  0
  -25.8380  -32.5540   23.7900 C   0  0  0  0  0  3  0  0  0  0  0  0
  -26.3980  -31.7710   25.0390 C   0  0  1  0  0  0  0  0  0  0  0  0
  -25.3430  -31.5220   26.1400 C   0  0  0  0  0  1  0  0  0  0  0  0
  -26.9670  -30.3970   24.6110 C   0  0  0  0  0  1  0  0  0  0  0  0
  -27.5680  -32.5600   25.6710 C   0  0  0  0  0  1  0  0  0  0  0  0
  -25.5400  -33.9490   24.1380 N   0  0  0  0  0  0  0  0  0  0  0  0
  -25.8710  -35.0060   23.3850 C   0  0  0  0  0  0  0  0  0  0  0  0
  -26.5310  -34.9110   22.3460 O   0  0  0  0  0  0  0  0  0  0  0  0
  -24.9520  -34.0990   24.9440 H   0  0  0  0  0  0  0  0  0  0  0  0
  -24.1700  -36.8280   23.0400 C   0  0  0  0  0  1  0  0  0  0  0  0
  -25.3940  -36.3930   23.8610 C   0  0  0  0  0  3  0  0  0  0  0  0
  -27.5240  -37.2380   24.7440 C   0  0  0  0  0  1  0  0  0  0  0  0
  -26.4430  -37.4340   23.7830 N   0  0  0  0  0  0  0  0  0  0  0  0
  -26.0450  -38.3570   23.9360 H   0  0  0  0  0  0  0  0  0  0  0  0
  1  3  1  0
  2  1  2  0
  3  9  1  0
  4  2  1  0
  4 11  2  0
  5  3  2  0
  5 12  1  0
  6  2  1  0
  7  6  1  0
  8  7  1  0
  8 57  1  0
  8  4  1  0
 10 12  1  0
 11  5  1  0
 12 13  1  0
 14 21  2  0
 15 20  1  0
 16 17  1  0
 16 15  1  0
 18 17  1  0
 18 32  1  0
 18 19  1  0
 20 14  1  0
 20 19  1  0
 22 23  1  0
 22 24  1  0
 23 25  1  0
 24 28  1  0
 25  1  1  0
 25 26  1  0
 26 27  1  0
 28 26  1  0
 28 14  1  0
 29 30  2  0
 30 31  1  0
 30 49  1  0
 31 34  1  0
 32 29  1  0
 32 33  1  0
 33 31  2  0
 34 35  1  0
 35 36  2  0
 37 40  1  0
 37 36  1  0
 38 37  2  0
 39 38  1  0
 39 34  2  0
 40 41  1  0
 41 42  1  0
 42 43  2  0
 44 43  1  0
 44 48  1  0
 45 44  2  0
 46 41  2  0
 46 45  1  0
 47 46  1  0
 49 50  1  0
 50 53  1  0
 50 52  1  0
 51 49  2  0
 54 55  1  0
 54 29  1  0
 56 54  1  0
 57 58  1  0
 57 59  1  0
 61 60  1  0
 61 62  1  0
 61 57  1  0
 62 63  1  0
 63 65  1  0
 64 75  2  0
 65 70  1  0
 66 74  1  0
 66 76  1  0
 67 73  1  0
 67 69  1  0
 68 74  1  0
 69 68  1  0
 70 69  2  0
 71 72  1  0
 71 65  2  0
 72 67  2  0
 73 66  1  0
 74 64  1  0
 76 78  2  0
 77 76  1  0
 79 77  1  0
 80 89  2  0
 80 85  1  0
 81 77  1  0
 81 85  1  0
 82 81  1  0
 83 84  1  0
 83 82  1  0
 84 80  1  0
 85 86  2  0
 86 87  1  0
 88 87  2  0
 89 88  1  0
 90 64  1  0
 90 95  1  0
 90 91  1  0
 91 94  1  1
 91 92  1  0
 93 91  1  0
 95 98  1  0
 96100  1  0
 96 95  1  0
 97 96  2  0
100 99  1  0
102100  1  0
102103  1  0
102101  1  0
M  ISO  4  14 100  28 100  62 101  63 101
M  END
>  <TORSDO>  (85) 
F 19

>  <SCORE>  (85) 
-13.636

>  <name>  (85) 
85

>  <ligand_id>  (85) 
85

>  <original_smiles>  (85) 
[H]c1c([H])c([H])c2c(c1[H])C([H])([H])C([H])([H])C([H])([H])C2([H])N([H])C(=O)C1([H])N(C(=O)C([H])(N([H])C(=O)C([H])(N([H])C([H])([H])[H])C([H])([H])[H])C(C([H])([H])[H])(C([H])([H])[H])C([H])([H])[H])C([H])([H])c2c([H])c(OC([H])([H])C([H])(C([H])([H])[H])[N+]([H])([H])C3([H])c4nc(N([H])C([H])([H])[H])c(C([H])([H])[H])c(C5([H])C([H])([H])C([H])([H])C([H])([H])N(C(=O)N6C([H])([H])C([H])([H])C([H])([H])C([H])(n7nc(-c8c([H])c([H])c(Oc9c([H])c([H])c(F)c([H])c9F)c([H])c8[H])c(C(=O)N([H])[H])c7N([H])[H])C6([H])[H])C5([H])C([H])([H])[H])c4C([H])([H])C3([H])[H])c([H])c([H])c2C1([H])[H]

>  <smiles>  (85) 
[H]c1c([H])c([H])c2c(c1[H])C([H])([H])C([H])([H])C([H])([H])C2([H])N([H])C(=O)C1([H])N(C(=O)C([H])(N([H])C(=O)C([H])(N([H])C([H])([H])[H])C([H])([H])[H])C(C([H])([H])[H])(C([H])([H])[H])C([H])([H])[H])C([H])([H])c2c([H])c(OC([H])([H])C([H])(C([H])([H])[H])[N+]([H])([H])C3([H])c4nc(N([H])C([H])([H])[H])c(C([H])([H])[H])c(C5([H])C([H])([H])C([H])([H])C([H])([H])N(C(=O)N6C([H])([H])C([H])([H])C([H])([H])C([H])(n7nc(-c8c([H])c([H])c(Oc9c([H])c([H])c(F)c([H])c9F)c([H])c8[H])c(C(=O)N([H])[H])c7N([H])[H])C6([H])[H])C5([H])C([H])([H])[H])c4C([H])([H])C3([H])[H])c([H])c([H])c2C1([H])[H]

$$$$
86:0:0
     RDKit          3D

 96105  0  0  1  0  0  0  0  0999 V2000
  -30.2940  -19.6010   20.0640 C   0  0  0  0  0  3  0  0  0  0  0  0
  -30.5280  -19.7520   22.8290 C   0  0  0  0  0  3  0  0  0  0  0  0
  -30.1910  -20.8770   20.6890 C   0  0  0  0  0  0  0  0  0  0  0  0
  -30.5390  -18.3960   20.7870 C   0  0  0  0  0  0  0  0  0  0  0  0
  -30.6440  -18.4890   22.2000 C   0  0  0  0  0  0  0  0  0  0  0  0
  -30.3330  -20.9500   22.0950 C   0  0  0  0  0  0  0  0  0  0  0  0
  -30.9270  -17.2830   23.0820 C   0  0  0  0  0  1  0  0  0  0  0  0
  -30.5830  -24.4500   19.6980 C   0  0  0  0  0  2  0  0  0  0  0  0
  -30.0320  -22.1590   19.8300 C   0  0  0  0  0  3  0  0  0  0  0  0
  -29.1780  -24.2470   19.1320 C   0  0  0  0  0  3  0  0  0  0  0  0
  -28.7230  -22.9970   19.9140 C   0  0  0  0  0  3  0  0  0  0  0  0
  -27.5010  -22.2760   19.3230 C   0  0  0  0  0  1  0  0  0  0  0  0
  -31.0470  -23.1420   20.0710 O   0  0  0  0  0  0  0  0  0  0  0  0
  -28.2840  -25.5240   18.9400 C   0  0  0  0  0  2  0  0  0  0  0  0
  -28.0720  -26.4340   20.0480 O   0  0  0  0  0  0  0  0  0  0  0  0
  -24.6020  -31.7400   23.3720 C   0  0  0  0  0  0  0  0  0  0  0  0
  -26.9500  -27.2570   20.0560 C   0  0  0  0  0  0  0  0  0  0  0  0
  -23.2950  -30.4590   21.7130 C   0  0  0  0  0  3  0  0  0  0  0  0
  -24.6380  -28.9120   20.1900 C   0  0  0  0  0  0  0  0  0  0  0  0
  -25.8350  -30.6900   21.4710 C   0  0  0  0  0  2  0  0  0  0  0  0
  -25.8360  -29.3420   20.7720 C   0  0  0  0  0  0  0  0  0  0  0  0
  -26.9900  -28.5190   20.7090 C   0  0  0  0  0  3  0  0  0  0  0  0
  -25.7180  -26.8490   19.4890 C   0  0  0  0  0  3  0  0  0  0  0  0
  -24.5760  -27.6670   19.5470 C   0  0  0  0  0  3  0  0  0  0  0  0
  -23.4380  -29.8260   20.3040 C   0  0  0  0  0  2  0  0  0  0  0  0
  -24.5980  -30.9770   22.2420 N   0  0  0  0  0  0  0  0  0  0  0  0
  -23.5480  -32.0440   23.9480 O   0  0  0  0  0  0  0  0  0  0  0  0
  -22.6160  -29.4350   22.6510 C   0  0  0  0  0  0  0  0  0  0  0  0
  -21.2900  -29.2750   22.5100 N   0  0  0  0  0  0  0  0  0  0  0  0
  -23.2810  -28.7860   23.4630 O   0  0  0  0  0  0  0  0  0  0  0  0
  -20.8140  -29.8500   21.8280 H   0  0  0  0  0  0  0  0  0  0  0  0
  -17.9060  -28.0680   22.8970 C   0  0  0  0  0  0  0  0  0  0  0  0
  -20.4520  -28.3400   23.2580 C   0  0  0  0  0  3  0  0  0  0  0  0
  -20.5810  -26.9050   22.6950 C   0  0  0  0  0  2  0  0  0  0  0  0
  -19.5180  -26.5710   21.6450 C   0  0  0  0  0  2  0  0  0  0  0  0
  -18.1130  -26.7140   22.2380 C   0  0  0  0  0  2  0  0  0  0  0  0
  -19.0050  -28.8390   23.3610 C   0  0  0  0  0  0  0  0  0  0  0  0
  -18.7600  -30.1060   23.9340 C   0  0  0  0  0  3  0  0  0  0  0  0
  -17.4480  -30.6030   24.0450 C   0  0  0  0  0  3  0  0  0  0  0  0
  -16.3630  -29.8300   23.5980 C   0  0  0  0  0  3  0  0  0  0  0  0
  -16.5920  -28.5640   23.0310 C   0  0  0  0  0  3  0  0  0  0  0  0
  -25.9300  -32.2880   23.9810 C   0  0  0  0  0  3  0  0  0  0  0  0
  -26.4350  -31.4530   25.2200 C   0  0  1  0  0  0  0  0  0  0  0  0
  -25.3570  -31.2370   26.3070 C   0  0  0  0  0  1  0  0  0  0  0  0
  -26.9370  -30.0600   24.7710 C   0  0  0  0  0  1  0  0  0  0  0  0
  -27.6420  -32.1650   25.8740 C   0  0  0  0  0  1  0  0  0  0  0  0
  -25.6990  -33.6880   24.3610 N   0  0  0  0  0  0  0  0  0  0  0  0
  -26.0660  -34.7470   23.6260 C   0  0  0  0  0  0  0  0  0  0  0  0
  -26.7080  -34.6420   22.5760 O   0  0  0  0  0  0  0  0  0  0  0  0
  -25.1290  -33.8470   25.1790 H   0  0  0  0  0  0  0  0  0  0  0  0
  -24.4110  -36.6220   23.3760 C   0  0  0  0  0  1  0  0  0  0  0  0
  -25.6580  -36.1420   24.1360 C   0  0  0  0  0  3  0  0  0  0  0  0
  -27.8580  -36.9020   24.9180 C   0  0  0  0  0  1  0  0  0  0  0  0
  -26.7340  -37.1500   24.0190 N   0  0  0  0  0  0  0  0  0  0  0  0
  -26.3750  -38.0810   24.2100 H   0  0  0  0  0  0  0  0  0  0  0  0
  -30.9300  -22.3560   23.9500 C   0  0  0  0  0  1  0  0  0  0  0  0
  -30.3000  -22.1950   22.6850 O   0  0  0  0  0  0  0  0  0  0  0  0
  -30.7950  -17.1000   19.9690 C   0  0  0  0  0  2  0  0  0  0  0  0
  -31.0570  -14.6280   20.2470 C   0  0  0  0  0  0  0  0  0  0  0  0
  -30.7310  -12.3720   19.3070 C   0  0  0  0  0  2  0  0  0  0  0  0
  -29.8140  -12.4830   18.0700 C   0  0  0  0  0  2  0  0  0  0  0  0
  -28.3330  -12.3980   18.4910 C   0  0  0  0  0  2  0  0  0  0  0  0
  -27.9860  -13.3400   19.6750 C   0  0  0  0  0  3  0  0  0  0  0  0
  -29.0270  -13.2290   20.8140 C   0  0  0  0  0  2  0  0  0  0  0  0
  -30.3580  -13.4580   20.2320 N   0  0  0  0  0  0  0  0  0  0  0  0
  -32.2260  -14.6900   19.8620 O   0  0  0  0  0  0  0  0  0  0  0  0
  -30.3460  -15.7630   20.4490 N   0  0  0  0  0  0  0  0  0  0  0  0
  -29.3800  -15.6680   20.7160 H   0  0  0  0  0  0  0  0  0  0  0  0
  -25.6180  -14.0370   20.3920 C   0  0  0  0  0  0  0  0  0  0  0  0
  -24.5190  -13.3070   20.7580 C   0  0  0  0  0  0  0  0  0  0  0  0
  -24.9250  -11.9380   20.7270 C   0  0  0  0  0  0  0  0  0  0  0  0
  -26.6260  -13.1140   20.1580 N   0  0  0  0  0  0  0  0  0  0  0  0
  -26.2150  -11.8460   20.4210 N   0  0  0  0  0  0  0  0  0  0  0  0
  -24.1490  -10.7040   20.9140 C   0  0  0  0  0  0  0  0  0  0  0  0
  -24.5470   -9.7160   21.8410 C   0  0  0  0  0  3  0  0  0  0  0  0
  -23.7750   -8.5480   22.0170 C   0  0  0  0  0  3  0  0  0  0  0  0
  -22.5920   -8.3610   21.2660 C   0  0  0  0  0  0  0  0  0  0  0  0
  -22.2110   -9.3370   20.3290 C   0  0  0  0  0  3  0  0  0  0  0  0
  -22.9830  -10.4970   20.1510 C   0  0  0  0  0  3  0  0  0  0  0  0
  -21.7920   -7.2480   21.3510 O   0  0  0  0  0  0  0  0  0  0  0  0
  -21.7250   -6.4960   22.4970 C   0  0  0  0  0  0  0  0  0  0  0  0
  -21.3400   -7.0580   23.7330 C   0  0  0  0  0  3  0  0  0  0  0  0
  -21.2160   -6.2360   24.8720 C   0  0  0  0  0  3  0  0  0  0  0  0
  -21.4670   -4.8540   24.7730 C   0  0  0  0  0  0  0  0  0  0  0  0
  -21.8440   -4.2920   23.5410 C   0  0  0  0  0  3  0  0  0  0  0  0
  -21.9700   -5.1110   22.4050 C   0  0  0  0  0  0  0  0  0  0  0  0
  -22.3140   -4.5610   21.2160 F   0  0  0  0  0  0  0  0  0  0  0  0
  -21.3380   -4.0630   25.8620 F   0  0  0  0  0  0  0  0  0  0  0  0
  -23.1430  -13.8400   21.0250 C   0  0  0  0  0  0  0  0  0  0  0  0
  -22.3890  -13.1840   21.9020 N   0  0  0  0  0  0  0  0  0  0  0  0
  -22.7440  -14.8750   20.4930 O   0  0  0  0  0  0  0  0  0  0  0  0
  -22.7230  -12.3500   22.3630 H   0  0  0  0  0  0  0  0  0  0  0  0
  -21.4640  -13.5270   22.1180 H   0  0  0  0  0  0  0  0  0  0  0  0
  -25.8360  -15.4000   20.2140 N   0  0  0  0  0  0  0  0  0  0  0  0
  -25.0910  -16.0800   20.3230 H   0  0  0  0  0  0  0  0  0  0  0  0
  -26.6950  -15.8100   19.8680 H   0  0  0  0  0  0  0  0  0  0  0  0
  1  3  2  0
  1  4  1  0
  3  6  1  0
  4  5  2  0
  5  2  1  0
  5  7  1  0
  6 57  1  0
  6  2  2  0
  8 13  1  0
  9 11  1  0
  9 13  1  0
  9  3  1  0
 10 14  1  0
 10  8  1  0
 10 11  1  0
 11 12  1  0
 14 15  1  0
 15 17  1  0
 16 27  2  0
 17 22  1  0
 18 26  1  0
 18 28  1  0
 19 25  1  0
 19 21  1  0
 20 26  1  0
 21 20  1  0
 22 21  2  0
 23 24  1  0
 23 17  2  0
 24 19  2  0
 25 18  1  0
 26 16  1  0
 28 30  2  0
 29 28  1  0
 31 29  1  0
 32 41  2  0
 32 37  1  0
 33 29  1  0
 33 37  1  0
 34 33  1  0
 35 36  1  0
 35 34  1  0
 36 32  1  0
 37 38  2  0
 38 39  1  0
 40 39  2  0
 41 40  1  0
 42 16  1  0
 42 47  1  0
 42 43  1  0
 43 46  1  1
 43 44  1  0
 45 43  1  0
 47 50  1  0
 48 52  1  0
 48 47  1  0
 49 48  2  0
 52 51  1  0
 54 52  1  0
 54 55  1  0
 54 53  1  0
 57 56  1  0
 58 67  1  0
 58  4  1  0
 59 67  1  0
 60 65  1  0
 61 62  1  0
 61 60  1  0
 63 62  1  0
 63 72  1  0
 63 64  1  0
 65 59  1  0
 65 64  1  0
 66 59  2  0
 67 68  1  0
 69 70  2  0
 70 89  1  0
 71 70  1  0
 71 74  1  0
 72 69  1  0
 72 73  1  0
 73 71  2  0
 74 75  1  0
 75 76  2  0
 77 80  1  0
 77 76  1  0
 78 77  2  0
 79 78  1  0
 79 74  2  0
 80 81  1  0
 81 82  1  0
 82 83  2  0
 84 83  1  0
 84 88  1  0
 85 84  2  0
 86 81  2  0
 86 85  1  0
 87 86  1  0
 89 90  1  0
 90 93  1  0
 90 92  1  0
 91 89  2  0
 94 95  1  0
 94 69  1  0
 96 94  1  0
M  ISO  4  14 101  15 101  59 100  67 100
M  END
>  <TORSDO>  (86) 
F 20

>  <SCORE>  (86) 
-12.726

>  <name>  (86) 
86

>  <ligand_id>  (86) 
86

>  <original_smiles>  (86) 
[H]c1c([H])c([H])c2c(c1[H])C([H])([H])C([H])([H])C([H])([H])C2([H])N([H])C(=O)C1([H])N(C(=O)C([H])(N([H])C(=O)C([H])(N([H])C([H])([H])[H])C([H])([H])[H])C(C([H])([H])[H])(C([H])([H])[H])C([H])([H])[H])C([H])([H])c2c([H])c(OC([H])([H])C3([H])C([H])([H])OC([H])(c4c([H])c(C([H])([H])N([H])C(=O)N5C([H])([H])C([H])([H])C([H])([H])C([H])(n6nc(-c7c([H])c([H])c(Oc8c([H])c([H])c(F)c([H])c8F)c([H])c7[H])c(C(=O)N([H])[H])c6N([H])[H])C5([H])[H])c(C([H])([H])[H])c([H])c4OC([H])([H])[H])C3([H])C([H])([H])[H])c([H])c([H])c2C1([H])[H]

>  <smiles>  (86) 
[H]c1c([H])c([H])c2c(c1[H])C([H])([H])C([H])([H])C([H])([H])C2([H])N([H])C(=O)C1([H])N(C(=O)C([H])(N([H])C(=O)C([H])(N([H])C([H])([H])[H])C([H])([H])[H])C(C([H])([H])[H])(C([H])([H])[H])C([H])([H])[H])C([H])([H])c2c([H])c(OC([H])([H])C3([H])C([H])([H])OC([H])(c4c([H])c(C([H])([H])N([H])C(=O)N5C([H])([H])C([H])([H])C([H])([H])C([H])(n6nc(-c7c([H])c([H])c(Oc8c([H])c([H])c(F)c([H])c8F)c([H])c7[H])c(C(=O)N([H])[H])c6N([H])[H])C5([H])[H])c(C([H])([H])[H])c([H])c4OC([H])([H])[H])C3([H])C([H])([H])[H])c([H])c([H])c2C1([H])[H]

$$$$
87:0:0
     RDKit          3D

 94103  0  0  1  0  0  0  0  0999 V2000
  -29.8010  -19.6640   17.9720 C   0  0  0  0  0  3  0  0  0  0  0  0
  -30.9040  -18.8010   17.6300 C   0  0  0  0  0  0  0  0  0  0  0  0
  -31.9110  -18.5890   18.5470 C   0  0  0  0  0  0  0  0  0  0  0  0
  -29.6740  -20.3350   19.2530 C   0  0  0  0  0  0  0  0  0  0  0  0
  -31.8260  -19.1730   19.8440 C   0  0  0  0  0  0  0  0  0  0  0  0
  -30.7100  -20.0200   20.2010 C   0  0  0  0  0  0  0  0  0  0  0  0
  -31.2360  -18.0260   16.3200 C   0  0  0  0  0  2  0  0  0  0  0  0
  -33.0170  -17.7010   17.9440 C   0  0  0  0  0  2  0  0  0  0  0  0
  -32.7600  -17.5290   16.3890 C   0  0  2  0  0  0  0  0  0  0  0  0
  -32.9430  -18.8790   20.8440 C   0  0  0  0  0  1  0  0  0  0  0  0
  -30.6290  -20.5890   21.6160 C   0  0  0  0  0  1  0  0  0  0  0  0
  -33.6180  -18.5760   15.6550 C   0  0  0  0  0  1  0  0  0  0  0  0
  -27.5110  -21.2100   18.2540 C   0  0  0  0  0  1  0  0  0  0  0  0
  -28.4500  -21.3770   19.4660 C   0  0  0  0  0  3  0  0  0  0  0  0
  -27.5380  -23.7430   20.1610 C   0  0  0  0  0  0  0  0  0  0  0  0
  -26.1400  -25.6930   19.4330 C   0  0  0  0  0  2  0  0  0  0  0  0
  -25.7260  -25.4940   17.9570 C   0  0  0  0  0  2  0  0  0  0  0  0
  -26.8150  -26.0230   17.0040 C   0  0  0  0  0  2  0  0  0  0  0  0
  -28.2340  -25.5420   17.4060 C   0  0  0  0  0  3  0  0  0  0  0  0
  -28.5010  -25.7350   18.9150 C   0  0  0  0  0  2  0  0  0  0  0  0
  -27.4460  -25.0150   19.6390 N   0  0  0  0  0  0  0  0  0  0  0  0
  -26.6130  -23.3140   20.8620 O   0  0  0  0  0  0  0  0  0  0  0  0
  -28.5420  -22.8970   19.6910 N   0  0  0  0  0  0  0  0  0  0  0  0
  -29.2840  -23.3600   19.1900 H   0  0  0  0  0  0  0  0  0  0  0  0
  -30.0220  -25.6110   15.5720 C   0  0  0  0  0  0  0  0  0  0  0  0
  -30.7960  -26.6290   15.0810 C   0  0  0  0  0  0  0  0  0  0  0  0
  -30.4610  -27.7860   15.8490 C   0  0  0  0  0  0  0  0  0  0  0  0
  -29.2690  -26.1700   16.5910 N   0  0  0  0  0  0  0  0  0  0  0  0
  -29.5830  -27.4750   16.7940 N   0  0  0  0  0  0  0  0  0  0  0  0
  -30.8840  -29.1850   15.7030 C   0  0  0  0  0  0  0  0  0  0  0  0
  -31.6740  -29.8250   16.6830 C   0  0  0  0  0  3  0  0  0  0  0  0
  -32.0850  -31.1630   16.5090 C   0  0  0  0  0  3  0  0  0  0  0  0
  -31.7070  -31.8760   15.3460 C   0  0  0  0  0  0  0  0  0  0  0  0
  -30.9000  -31.2410   14.3850 C   0  0  0  0  0  3  0  0  0  0  0  0
  -30.4890  -29.9100   14.5630 C   0  0  0  0  0  3  0  0  0  0  0  0
  -32.0370  -33.1870   15.1030 O   0  0  0  0  0  0  0  0  0  0  0  0
  -33.0070  -33.8320   15.8300 C   0  0  0  0  0  0  0  0  0  0  0  0
  -34.3810  -33.6540   15.5610 C   0  0  0  0  0  3  0  0  0  0  0  0
  -35.3420  -34.3880   16.2850 C   0  0  0  0  0  3  0  0  0  0  0  0
  -34.9310  -35.3070   17.2690 C   0  0  0  0  0  0  0  0  0  0  0  0
  -33.5620  -35.4910   17.5340 C   0  0  0  0  0  3  0  0  0  0  0  0
  -32.6040  -34.7570   16.8140 C   0  0  0  0  0  0  0  0  0  0  0  0
  -31.2850  -34.9540   17.0580 F   0  0  0  0  0  0  0  0  0  0  0  0
  -35.8530  -36.0180   17.9600 F   0  0  0  0  0  0  0  0  0  0  0  0
  -31.7210  -26.5560   13.9020 C   0  0  0  0  0  0  0  0  0  0  0  0
  -32.9770  -26.9490   14.0870 N   0  0  0  0  0  0  0  0  0  0  0  0
  -31.3460  -26.1030   12.8220 O   0  0  0  0  0  0  0  0  0  0  0  0
  -33.2880  -27.3020   14.9780 H   0  0  0  0  0  0  0  0  0  0  0  0
  -33.6350  -26.8970   13.3220 H   0  0  0  0  0  0  0  0  0  0  0  0
  -29.8780  -24.2700   15.2260 N   0  0  0  0  0  0  0  0  0  0  0  0
  -30.3690  -23.8610   14.4380 H   0  0  0  0  0  0  0  0  0  0  0  0
  -29.1950  -23.6440   15.6310 H   0  0  0  0  0  0  0  0  0  0  0  0
  -33.2170  -16.0330   15.8740 C   0  0  0  0  0  2  0  0  0  0  0  0
  -34.4070  -15.6230   15.0450 O   0  0  0  0  0  0  0  0  0  0  0  0
  -37.7670   -9.3640   13.3760 C   0  0  0  0  0  0  0  0  0  0  0  0
  -35.1920  -14.5080   15.4050 C   0  0  0  0  0  0  0  0  0  0  0  0
  -37.3610   -9.8330   15.7660 C   0  0  0  0  0  3  0  0  0  0  0  0
  -36.6800  -12.2360   16.3350 C   0  0  0  0  0  0  0  0  0  0  0  0
  -37.6810  -11.7640   14.1040 C   0  0  0  0  0  2  0  0  0  0  0  0
  -36.7810  -12.6250   14.9920 C   0  0  0  0  0  0  0  0  0  0  0  0
  -36.0520  -13.7660   14.5240 C   0  0  0  0  0  3  0  0  0  0  0  0
  -35.1840  -14.1110   16.7570 C   0  0  0  0  0  3  0  0  0  0  0  0
  -35.8940  -12.9870   17.2210 C   0  0  0  0  0  3  0  0  0  0  0  0
  -37.4440  -11.0040   16.7810 C   0  0  0  0  0  2  0  0  0  0  0  0
  -37.5930  -10.2950   14.3590 N   0  0  0  0  0  0  0  0  0  0  0  0
  -37.7650   -8.1510   13.6300 O   0  0  0  0  0  0  0  0  0  0  0  0
  -36.0120   -9.0960   15.9520 C   0  0  0  0  0  0  0  0  0  0  0  0
  -35.9600   -8.1600   16.9170 N   0  0  0  0  0  0  0  0  0  0  0  0
  -35.0360   -9.3850   15.2560 O   0  0  0  0  0  0  0  0  0  0  0  0
  -36.8070   -7.9730   17.4350 H   0  0  0  0  0  0  0  0  0  0  0  0
  -34.7120   -4.7950   17.3950 C   0  0  0  0  0  0  0  0  0  0  0  0
  -34.7810   -7.3770   17.2990 C   0  0  0  0  0  3  0  0  0  0  0  0
  -34.6120   -7.3360   18.8350 C   0  0  0  0  0  2  0  0  0  0  0  0
  -35.2710   -6.1140   19.4810 C   0  0  0  0  0  2  0  0  0  0  0  0
  -34.6740   -4.8210   18.9140 C   0  0  0  0  0  2  0  0  0  0  0  0
  -34.7770   -5.9950   16.6380 C   0  0  0  0  0  0  0  0  0  0  0  0
  -34.8420   -5.9170   15.2300 C   0  0  0  0  0  3  0  0  0  0  0  0
  -34.8450   -4.6680   14.5800 C   0  0  0  0  0  3  0  0  0  0  0  0
  -34.7650   -3.4840   15.3320 C   0  0  0  0  0  3  0  0  0  0  0  0
  -34.6910   -3.5490   16.7350 C   0  0  0  0  0  3  0  0  0  0  0  0
  -37.9970   -9.7800   11.8900 C   0  0  0  0  0  3  0  0  0  0  0  0
  -39.1950   -9.0770   11.4110 N   0  0  0  0  0  0  0  0  0  0  0  0
  -40.4410   -9.5620   11.4820 C   0  0  0  0  0  0  0  0  0  0  0  0
  -40.6970  -10.6940   11.9010 O   0  0  0  0  0  0  0  0  0  0  0  0
  -39.0680   -8.1190   11.1210 H   0  0  0  0  0  0  0  0  0  0  0  0
  -42.4140   -8.1890   12.2300 C   0  0  0  0  0  1  0  0  0  0  0  0
  -41.5900   -8.6470   11.0150 C   0  0  0  0  0  3  0  0  0  0  0  0
  -41.8630   -9.4380    8.7090 C   0  0  0  0  0  1  0  0  0  0  0  0
  -42.4830   -9.2830   10.0220 N   0  0  0  0  0  0  0  0  0  0  0  0
  -43.3360   -8.7410    9.9060 H   0  0  0  0  0  0  0  0  0  0  0  0
  -36.7600   -9.4680   10.9590 C   0  0  1  0  0  0  0  0  0  0  0  0
  -36.7190   -8.0060   10.4490 C   0  0  0  0  0  1  0  0  0  0  0  0
  -35.4350   -9.7440   11.7090 C   0  0  0  0  0  1  0  0  0  0  0  0
  -36.7790  -10.4090    9.7310 C   0  0  0  0  0  1  0  0  0  0  0  0
  1  4  1  0
  2  1  2  0
  2  3  1  0
  3  5  2  0
  4 14  1  0
  4  6  2  0
  5  6  1  0
  5 10  1  0
  6 11  1  0
  7  9  1  0
  7  2  1  0
  8  3  1  0
  9 12  1  6
  9  8  1  0
 14 13  1  0
 14 23  1  0
 15 22  2  0
 16 21  1  0
 17 16  1  0
 18 19  1  0
 18 17  1  0
 19 28  1  0
 19 20  1  0
 20 21  1  0
 21 15  1  0
 23 15  1  0
 24 23  1  0
 25 28  1  0
 26 25  2  0
 26 27  1  0
 27 29  2  0
 28 29  1  0
 30 27  1  0
 30 31  1  0
 32 31  2  0
 33 32  1  0
 34 35  1  0
 34 33  2  0
 35 30  2  0
 36 33  1  0
 36 37  1  0
 37 42  1  0
 38 37  2  0
 38 39  1  0
 39 40  2  0
 40 41  1  0
 40 44  1  0
 42 43  1  0
 42 41  2  0
 45 46  1  0
 45 26  1  0
 46 48  1  0
 47 45  2  0
 49 46  1  0
 50 25  1  0
 50 52  1  0
 51 50  1  0
 53  9  1  0
 54 56  1  0
 54 53  1  0
 55 66  2  0
 55 65  1  0
 56 62  1  0
 57 67  1  0
 57 64  1  0
 58 64  1  0
 58 63  1  0
 59 65  1  0
 59 60  1  0
 60 58  2  0
 61 60  1  0
 61 56  2  0
 62 63  2  0
 65 57  1  0
 67 68  1  0
 68 70  1  0
 69 67  2  0
 71 75  1  0
 72 68  1  0
 72 73  1  0
 73 74  1  0
 75 74  1  0
 76 72  1  0
 76 71  2  0
 77 76  1  0
 78 77  2  0
 78 79  1  0
 79 80  2  0
 80 71  1  0
 81 55  1  0
 82 83  1  0
 82 81  1  0
 83 84  2  0
 85 82  1  0
 87 83  1  0
 87 86  1  0
 88 89  1  0
 89 87  1  0
 90 89  1  0
 91 93  1  1
 91 81  1  0
 92 91  1  0
 94 91  1  0
M  ISO  4  15 100  23 100  53 101  54 101
M  END
>  <TORSDO>  (87) 
F 18

>  <SCORE>  (87) 
-4.975

>  <name>  (87) 
87

>  <ligand_id>  (87) 
87

>  <original_smiles>  (87) 
[H]c1c([H])c([H])c2c(c1[H])C([H])([H])C([H])([H])C([H])([H])C2([H])N([H])C(=O)C1([H])N(C(=O)C([H])(N([H])C(=O)C([H])(N([H])C([H])([H])[H])C([H])([H])[H])C(C([H])([H])[H])(C([H])([H])[H])C([H])([H])[H])C([H])([H])c2c([H])c(OC([H])([H])C3(C([H])([H])[H])C([H])([H])c4c([H])c(C([H])(N([H])C(=O)N5C([H])([H])C([H])([H])C([H])([H])C([H])(n6nc(-c7c([H])c([H])c(Oc8c([H])c([H])c(F)c([H])c8F)c([H])c7[H])c(C(=O)N([H])[H])c6N([H])[H])C5([H])[H])C([H])([H])[H])c(C([H])([H])[H])c(C([H])([H])[H])c4C3([H])[H])c([H])c([H])c2C1([H])[H]

>  <smiles>  (87) 
[H]c1c([H])c([H])c2c(c1[H])C([H])([H])C([H])([H])C([H])([H])C2([H])N([H])C(=O)C1([H])N(C(=O)C([H])(N([H])C(=O)C([H])(N([H])C([H])([H])[H])C([H])([H])[H])C(C([H])([H])[H])(C([H])([H])[H])C([H])([H])[H])C([H])([H])c2c([H])c(OC([H])([H])C3(C([H])([H])[H])C([H])([H])c4c([H])c(C([H])(N([H])C(=O)N5C([H])([H])C([H])([H])C([H])([H])C([H])(n6nc(-c7c([H])c([H])c(Oc8c([H])c([H])c(F)c([H])c8F)c([H])c7[H])c(C(=O)N([H])[H])c6N([H])[H])C5([H])[H])C([H])([H])[H])c(C([H])([H])[H])c(C([H])([H])[H])c4C3([H])[H])c([H])c([H])c2C1([H])[H]

$$$$
88:0:0
     RDKit          3D

100110  0  0  1  0  0  0  0  0999 V2000
  -29.2180  -23.7030   19.1490 C   0  0  0  0  0  3  0  0  0  0  0  0
  -27.8550  -22.9710   20.9590 C   0  0  0  0  0  3  0  0  0  0  0  0
  -28.5010  -24.0370   20.3140 C   0  0  0  0  0  0  0  0  0  0  0  0
  -29.3650  -22.3470   18.7140 C   0  0  0  0  0  0  0  0  0  0  0  0
  -27.9860  -21.6190   20.5470 C   0  0  0  0  0  0  0  0  0  0  0  0
  -28.8630  -21.2250   19.4720 C   0  0  0  0  0  0  0  0  0  0  0  0
  -29.9780  -22.1790   17.3310 C   0  0  0  0  0  1  0  0  0  0  0  0
  -27.0710  -20.6710   21.3020 C   0  0  0  0  0  1  0  0  0  0  0  0
  -28.9470  -18.6260   19.9630 C   0  0  0  0  0  2  0  0  0  0  0  0
  -30.4130  -19.4880   18.3730 C   0  0  0  0  0  2  0  0  0  0  0  0
  -30.3040  -17.9110   20.1180 C   0  0  0  0  0  3  0  0  0  0  0  0
  -30.7750  -17.9980   18.6750 C   0  0  0  0  0  3  0  0  0  0  0  0
  -29.1900  -19.8400   19.1360 N   0  0  0  0  0  0  0  0  0  0  0  0
  -30.5960  -14.5100   19.5260 C   0  0  0  0  0  0  0  0  0  0  0  0
  -30.0590  -12.5210   18.1270 C   0  0  0  0  0  2  0  0  0  0  0  0
  -28.9370  -12.7930   17.1040 C   0  0  0  0  0  2  0  0  0  0  0  0
  -27.5410  -12.6260   17.7350 C   0  0  0  0  0  2  0  0  0  0  0  0
  -27.4200  -13.3690   19.0890 C   0  0  0  0  0  3  0  0  0  0  0  0
  -28.6070  -13.0150   19.9980 C   0  0  0  0  0  2  0  0  0  0  0  0
  -29.8560  -13.3800   19.3010 N   0  0  0  0  0  0  0  0  0  0  0  0
  -31.4800  -14.9000   18.7530 O   0  0  0  0  0  0  0  0  0  0  0  0
  -31.6760  -15.3290   22.6380 C   0  0  0  0  0  2  0  0  0  0  0  0
  -31.6010  -16.6980   21.9850 C   0  0  0  0  0  2  0  0  0  0  0  0
  -30.6130  -14.4960   21.9230 C   0  0  0  0  0  2  0  0  0  0  0  0
  -30.3890  -16.6340   21.0460 C   0  0  0  0  0  3  0  0  0  0  0  0
  -30.2780  -15.1920   20.6640 N   0  0  0  0  0  0  0  0  0  0  0  0
  -25.1680  -13.9870   20.1640 C   0  0  0  0  0  0  0  0  0  0  0  0
  -24.1540  -13.2140   20.6660 C   0  0  0  0  0  0  0  0  0  0  0  0
  -24.5820  -11.8590   20.5220 C   0  0  0  0  0  0  0  0  0  0  0  0
  -26.1480  -13.0980   19.7490 N   0  0  0  0  0  0  0  0  0  0  0  0
  -25.8090  -11.8130   20.0200 N   0  0  0  0  0  0  0  0  0  0  0  0
  -23.8730  -10.5990   20.7790 C   0  0  0  0  0  0  0  0  0  0  0  0
  -24.3790   -9.6350   21.6770 C   0  0  0  0  0  3  0  0  0  0  0  0
  -23.6670   -8.4390   21.9190 C   0  0  0  0  0  3  0  0  0  0  0  0
  -22.4340   -8.2020   21.2650 C   0  0  0  0  0  0  0  0  0  0  0  0
  -21.9500   -9.1550   20.3500 C   0  0  0  0  0  3  0  0  0  0  0  0
  -22.6630  -10.3400   20.1060 C   0  0  0  0  0  3  0  0  0  0  0  0
  -21.6850   -7.0600   21.4220 O   0  0  0  0  0  0  0  0  0  0  0  0
  -21.6850   -6.3560   22.6010 C   0  0  0  0  0  0  0  0  0  0  0  0
  -21.3110   -6.9520   23.8260 C   0  0  0  0  0  3  0  0  0  0  0  0
  -21.2540   -6.1730   24.9990 C   0  0  0  0  0  3  0  0  0  0  0  0
  -21.5600   -4.8000   24.9490 C   0  0  0  0  0  0  0  0  0  0  0  0
  -21.9260   -4.2040   23.7300 C   0  0  0  0  0  3  0  0  0  0  0  0
  -21.9860   -4.9790   22.5580 C   0  0  0  0  0  0  0  0  0  0  0  0
  -22.3170   -4.3960   21.3820 F   0  0  0  0  0  0  0  0  0  0  0  0
  -21.4990   -4.0490   26.0740 F   0  0  0  0  0  0  0  0  0  0  0  0
  -22.8220  -13.7010   21.1550 C   0  0  0  0  0  0  0  0  0  0  0  0
  -22.2350  -13.0060   22.1230 N   0  0  0  0  0  0  0  0  0  0  0  0
  -22.3130  -14.7290   20.7110 O   0  0  0  0  0  0  0  0  0  0  0  0
  -22.6630  -12.1750   22.5070 H   0  0  0  0  0  0  0  0  0  0  0  0
  -21.3470  -13.3140   22.4910 H   0  0  0  0  0  0  0  0  0  0  0  0
  -25.3320  -15.3590   20.0090 N   0  0  0  0  0  0  0  0  0  0  0  0
  -24.6120  -16.0330   20.2480 H   0  0  0  0  0  0  0  0  0  0  0  0
  -26.1380  -15.7870   19.5690 H   0  0  0  0  0  0  0  0  0  0  0  0
  -32.1910  -17.6330   18.4660 N   0  0  0  0  0  4  0  0  0  0  0  0
  -32.8000  -18.0810   19.1280 H   0  0  0  0  0  0  0  0  0  0  0  0
  -32.4920  -17.8490   17.5320 H   0  0  0  0  0  0  0  0  0  0  0  0
  -32.2600  -16.6230   18.5700 H   0  0  0  0  0  0  0  0  0  0  0  0
  -28.4350  -25.4530   20.9510 C   0  0  0  0  0  2  0  0  0  0  0  0
  -28.5330  -26.6240   20.1010 O   0  0  0  0  0  0  0  0  0  0  0  0
  -24.6580  -31.8720   23.1110 C   0  0  0  0  0  0  0  0  0  0  0  0
  -27.3960  -27.4130   20.0920 C   0  0  0  0  0  0  0  0  0  0  0  0
  -23.5020  -30.4410   21.4630 C   0  0  0  0  0  3  0  0  0  0  0  0
  -24.9930  -28.9140   20.0650 C   0  0  0  0  0  0  0  0  0  0  0  0
  -26.0290  -30.8180   21.3070 C   0  0  0  0  0  2  0  0  0  0  0  0
  -26.1410  -29.4440   20.6740 C   0  0  0  0  0  0  0  0  0  0  0  0
  -27.3510  -28.7050   20.6780 C   0  0  0  0  0  3  0  0  0  0  0  0
  -26.2360  -26.9050   19.4800 C   0  0  0  0  0  3  0  0  0  0  0  0
  -25.0420  -27.6460   19.4620 C   0  0  0  0  0  3  0  0  0  0  0  0
  -23.7400  -29.7610   20.0870 C   0  0  0  0  0  2  0  0  0  0  0  0
  -24.7470  -31.0620   22.0160 N   0  0  0  0  0  0  0  0  0  0  0  0
  -23.5620  -32.1310   23.6280 O   0  0  0  0  0  0  0  0  0  0  0  0
  -22.8500  -29.4160   22.4180 C   0  0  0  0  0  0  0  0  0  0  0  0
  -21.5250  -29.2470   22.2950 N   0  0  0  0  0  0  0  0  0  0  0  0
  -23.5310  -28.7800   23.2260 O   0  0  0  0  0  0  0  0  0  0  0  0
  -21.0440  -29.8160   21.6110 H   0  0  0  0  0  0  0  0  0  0  0  0
  -18.1300  -28.1090   22.8300 C   0  0  0  0  0  0  0  0  0  0  0  0
  -20.6980  -28.3100   23.0530 C   0  0  0  0  0  3  0  0  0  0  0  0
  -20.7590  -26.8930   22.4380 C   0  0  0  0  0  2  0  0  0  0  0  0
  -19.6270  -26.6170   21.4410 C   0  0  0  0  0  2  0  0  0  0  0  0
  -18.2630  -26.7720   22.1190 C   0  0  0  0  0  2  0  0  0  0  0  0
  -19.2740  -28.8390   23.2520 C   0  0  0  0  0  0  0  0  0  0  0  0
  -19.0920  -30.0900   23.8780 C   0  0  0  0  0  3  0  0  0  0  0  0
  -17.8010  -30.6090   24.0910 C   0  0  0  0  0  3  0  0  0  0  0  0
  -16.6730  -29.8760   23.6820 C   0  0  0  0  0  3  0  0  0  0  0  0
  -16.8390  -28.6290   23.0550 C   0  0  0  0  0  3  0  0  0  0  0  0
  -25.9210  -32.5230   23.7530 C   0  0  0  0  0  3  0  0  0  0  0  0
  -26.4530  -31.7410   25.0200 C   0  0  1  0  0  0  0  0  0  0  0  0
  -25.3590  -31.4450   26.0740 C   0  0  0  0  0  1  0  0  0  0  0  0
  -27.0800  -30.3900   24.6050 C   0  0  0  0  0  1  0  0  0  0  0  0
  -27.5720  -32.5590   25.7060 C   0  0  0  0  0  1  0  0  0  0  0  0
  -25.5710  -33.9070   24.1090 N   0  0  0  0  0  0  0  0  0  0  0  0
  -25.8610  -34.9830   23.3660 C   0  0  0  0  0  0  0  0  0  0  0  0
  -26.5290  -34.9200   22.3290 O   0  0  0  0  0  0  0  0  0  0  0  0
  -24.9730  -34.0250   24.9140 H   0  0  0  0  0  0  0  0  0  0  0  0
  -24.0680  -36.7250   23.0590 C   0  0  0  0  0  1  0  0  0  0  0  0
  -25.3300  -36.3470   23.8510 C   0  0  0  0  0  3  0  0  0  0  0  0
  -27.4450  -37.2860   24.6740 C   0  0  0  0  0  1  0  0  0  0  0  0
  -26.3270  -37.4350   23.7450 N   0  0  0  0  0  0  0  0  0  0  0  0
  -25.8960  -38.3390   23.9110 H   0  0  0  0  0  0  0  0  0  0  0  0
  1  3  1  0
  3 59  1  0
  3  2  2  0
  4  1  2  0
  4  6  1  0
  5  2  1  0
  5  8  1  0
  6  5  2  0
  7  4  1  0
 10 12  1  0
 10 13  1  0
 11  9  1  0
 11 25  1  0
 12 55  1  0
 12 11  1  0
 13  6  1  0
 13  9  1  0
 14 26  1  0
 15 20  1  0
 16 17  1  0
 16 15  1  0
 18 17  1  0
 18 30  1  0
 18 19  1  0
 20 14  1  0
 20 19  1  0
 21 14  2  0
 23 22  1  0
 24 22  1  0
 25 23  1  0
 26 25  1  0
 26 24  1  0
 27 28  2  0
 28 47  1  0
 29 28  1  0
 29 32  1  0
 30 31  1  0
 30 27  1  0
 31 29  2  0
 32 33  1  0
 33 34  2  0
 35 38  1  0
 35 34  1  0
 36 35  2  0
 37 36  1  0
 37 32  2  0
 38 39  1  0
 39 40  1  0
 40 41  2  0
 42 41  1  0
 42 46  1  0
 43 42  2  0
 44 39  2  0
 44 43  1  0
 45 44  1  0
 47 48  1  0
 48 51  1  0
 48 50  1  0
 49 47  2  0
 52 27  1  0
 52 53  1  0
 54 52  1  0
 55 58  1  0
 55 56  1  0
 57 55  1  0
 60 59  1  0
 61 72  2  0
 62 60  1  0
 62 67  1  0
 63 71  1  0
 63 73  1  0
 64 70  1  0
 64 66  1  0
 65 71  1  0
 66 67  2  0
 66 65  1  0
 68 62  2  0
 69 68  1  0
 69 64  2  0
 70 63  1  0
 71 61  1  0
 73 75  2  0
 74 73  1  0
 76 74  1  0
 77 86  2  0
 77 82  1  0
 78 74  1  0
 78 82  1  0
 79 78  1  0
 80 81  1  0
 80 79  1  0
 81 77  1  0
 82 83  2  0
 83 84  1  0
 85 84  2  0
 86 85  1  0
 87 61  1  0
 87 92  1  0
 87 88  1  0
 88 91  1  1
 88 89  1  0
 90 88  1  0
 92 95  1  0
 93 97  1  0
 93 92  1  0
 94 93  2  0
 97 96  1  0
 99 97  1  0
 99100  1  0
 99 98  1  0
M  ISO  4  14 100  26 100  59 101  60 101
M  END
>  <TORSDO>  (88) 
F 19

>  <SCORE>  (88) 
-8.414

>  <name>  (88) 
88

>  <ligand_id>  (88) 
88

>  <original_smiles>  (88) 
[H]c1c([H])c([H])c2c(c1[H])C([H])([H])C([H])([H])C([H])([H])C2([H])N([H])C(=O)C1([H])N(C(=O)C([H])(N([H])C(=O)C([H])(N([H])C([H])([H])[H])C([H])([H])[H])C(C([H])([H])[H])(C([H])([H])[H])C([H])([H])[H])C([H])([H])c2c([H])c(OC([H])([H])c3c([H])c(C([H])([H])[H])c(N4C([H])([H])C([H])(C5([H])N(C(=O)N6C([H])([H])C([H])([H])C([H])([H])C([H])(n7nc(-c8c([H])c([H])c(Oc9c([H])c([H])c(F)c([H])c9F)c([H])c8[H])c(C(=O)N([H])[H])c7N([H])[H])C6([H])[H])C([H])([H])C([H])([H])C5([H])[H])C([H])([N+]([H])([H])[H])C4([H])[H])c(C([H])([H])[H])c3[H])c([H])c([H])c2C1([H])[H]

>  <smiles>  (88) 
[H]c1c([H])c([H])c2c(c1[H])C([H])([H])C([H])([H])C([H])([H])C2([H])N([H])C(=O)C1([H])N(C(=O)C([H])(N([H])C(=O)C([H])(N([H])C([H])([H])[H])C([H])([H])[H])C(C([H])([H])[H])(C([H])([H])[H])C([H])([H])[H])C([H])([H])c2c([H])c(OC([H])([H])c3c([H])c(C([H])([H])[H])c(N4C([H])([H])C([H])(C5([H])N(C(=O)N6C([H])([H])C([H])([H])C([H])([H])C([H])(n7nc(-c8c([H])c([H])c(Oc9c([H])c([H])c(F)c([H])c9F)c([H])c8[H])c(C(=O)N([H])[H])c7N([H])[H])C6([H])[H])C([H])([H])C([H])([H])C5([H])[H])C([H])([N+]([H])([H])[H])C4([H])[H])c(C([H])([H])[H])c3[H])c([H])c([H])c2C1([H])[H]

$$$$
89:0:0
     RDKit          3D

 96103  0  0  1  0  0  0  0  0999 V2000
  -26.8020  -27.7360   11.0740 C   0  0  0  0  0  2  0  0  0  0  0  0
  -25.8560  -28.2490    9.6800 C   0  0  1  0  0  0  0  0  0  0  0  0
  -27.8410  -27.8790   10.1050 C   0  0  0  0  0  3  0  0  0  0  0  0
  -26.1460  -28.6780    8.0820 C   0  0  0  0  0  2  0  0  0  0  0  0
  -29.6410  -29.2780    9.8970 C   0  0  0  0  0  2  0  0  0  0  0  0
  -28.6440  -29.5980    8.7380 C   0  0  0  0  0  2  0  0  0  0  0  0
  -29.4040  -27.8140   10.3470 C   0  0  0  0  0  3  0  0  0  0  0  0
  -24.4150  -28.4320   10.1450 C   0  0  0  0  0  1  0  0  0  0  0  0
  -27.4820  -28.7100    8.8840 N   0  0  1  0  0  4  0  0  0  0  0  0
  -26.8430  -26.7070   19.8800 C   0  0  0  0  0  0  0  0  0  0  0  0
  -27.6140  -25.8210   22.5250 C   0  0  0  0  0  2  0  0  0  0  0  0
  -29.0460  -25.2220   22.8470 C   0  0  0  0  0  2  0  0  0  0  0  0
  -29.2240  -23.8350   22.2180 C   0  0  0  0  0  2  0  0  0  0  0  0
  -28.4450  -23.8200   20.8930 C   0  0  0  0  0  3  0  0  0  0  0  0
  -26.9900  -24.2660   20.9800 C   0  0  0  0  0  2  0  0  0  0  0  0
  -27.1460  -25.7020   20.9980 N   0  0  0  0  0  0  0  0  0  0  0  0
  -26.5910  -27.6550   20.7180 O   0  0  0  0  0  0  0  0  0  0  0  0
  -27.8480  -27.5100   14.8420 C   0  0  0  0  0  2  0  0  0  0  0  0
  -25.8460  -27.3050   14.8280 C   0  0  0  0  0  2  0  0  0  0  0  0
  -27.8970  -27.0190   16.7270 C   0  0  0  0  0  2  0  0  0  0  0  0
  -25.8610  -26.7870   16.7000 C   0  0  0  0  0  2  0  0  0  0  0  0
  -26.8770  -27.2110   13.2780 C   0  0  0  0  0  2  0  0  0  0  0  0
  -26.8750  -26.7560   18.0980 N   0  0  0  0  0  0  0  0  0  0  0  0
  -28.4740  -22.5450   18.7800 C   0  0  0  0  0  0  0  0  0  0  0  0
  -28.5240  -21.2170   18.5130 C   0  0  0  0  0  0  0  0  0  0  0  0
  -28.4970  -20.5570   19.7820 C   0  0  0  0  0  0  0  0  0  0  0  0
  -28.4700  -22.6210   20.1520 N   0  0  0  0  0  0  0  0  0  0  0  0
  -28.3880  -21.4280   20.7700 N   0  0  0  0  0  0  0  0  0  0  0  0
  -28.6510  -19.1470   20.1180 C   0  0  0  0  0  0  0  0  0  0  0  0
  -27.6220  -18.2130   19.8770 C   0  0  0  0  0  3  0  0  0  0  0  0
  -27.8120  -16.8540   20.1970 C   0  0  0  0  0  3  0  0  0  0  0  0
  -29.0400  -16.4260   20.7580 C   0  0  0  0  0  0  0  0  0  0  0  0
  -30.0480  -17.3690   21.0200 C   0  0  0  0  0  3  0  0  0  0  0  0
  -29.8550  -18.7220   20.7060 C   0  0  0  0  0  3  0  0  0  0  0  0
  -29.3100  -15.1310   21.1190 O   0  0  0  0  0  0  0  0  0  0  0  0
  -29.1440  -14.0930   20.2390 C   0  0  0  0  0  0  0  0  0  0  0  0
  -30.0370  -13.8750   19.1660 C   0  0  0  0  0  3  0  0  0  0  0  0
  -29.8680  -12.7550   18.3300 C   0  0  0  0  0  3  0  0  0  0  0  0
  -28.8160  -11.8490   18.5680 C   0  0  0  0  0  0  0  0  0  0  0  0
  -27.9290  -12.0640   19.6380 C   0  0  0  0  0  3  0  0  0  0  0  0
  -28.0950  -13.1820   20.4720 C   0  0  0  0  0  0  0  0  0  0  0  0
  -27.2510  -13.3760   21.5150 F   0  0  0  0  0  0  0  0  0  0  0  0
  -28.6580  -10.7680   17.7700 F   0  0  0  0  0  0  0  0  0  0  0  0
  -28.6980  -20.6120   17.1590 C   0  0  0  0  0  0  0  0  0  0  0  0
  -27.9320  -19.5740   16.8540 N   0  0  0  0  0  0  0  0  0  0  0  0
  -29.4860  -21.0960   16.3460 O   0  0  0  0  0  0  0  0  0  0  0  0
  -27.2740  -19.1980   17.5200 H   0  0  0  0  0  0  0  0  0  0  0  0
  -28.0020  -19.1490   15.9410 H   0  0  0  0  0  0  0  0  0  0  0  0
  -28.4550  -23.6870   17.9810 N   0  0  0  0  0  0  0  0  0  0  0  0
  -28.5070  -23.6260   16.9700 H   0  0  0  0  0  0  0  0  0  0  0  0
  -28.4790  -24.6370   18.3230 H   0  0  0  0  0  0  0  0  0  0  0  0
  -24.9400  -27.6530    3.8320 C   0  0  0  0  0  2  0  0  0  0  0  0
  -24.9350  -26.2950    4.5580 C   0  0  0  0  0  2  0  0  0  0  0  0
  -25.4840  -27.5570    5.2950 C   0  0  0  0  0  2  0  0  0  0  0  0
  -30.5380  -26.8840    9.5610 C   0  0  0  0  0  2  0  0  0  0  0  0
  -31.5620  -25.7930    9.9600 O   0  0  0  0  0  0  0  0  0  0  0  0
  -38.2460  -25.8410    9.3690 C   0  0  0  0  0  0  0  0  0  0  0  0
  -32.3010  -25.5590    8.8360 C   0  0  0  0  0  0  0  0  0  0  0  0
  -36.8990  -27.3640    8.0150 C   0  0  0  0  0  3  0  0  0  0  0  0
  -34.4780  -26.6920    7.5310 C   0  0  0  0  0  0  0  0  0  0  0  0
  -36.0880  -24.9890    8.4230 C   0  0  0  0  0  2  0  0  0  0  0  0
  -34.6680  -25.5180    8.2770 C   0  0  0  0  0  0  0  0  0  0  0  0
  -33.5650  -24.9220    8.9340 C   0  0  0  0  0  3  0  0  0  0  0  0
  -32.0810  -26.5730    7.8990 C   0  0  0  0  0  3  0  0  0  0  0  0
  -33.1860  -27.1950    7.3030 C   0  0  0  0  0  3  0  0  0  0  0  0
  -35.7250  -27.3640    6.9980 C   0  0  0  0  0  2  0  0  0  0  0  0
  -37.1210  -26.0300    8.6220 N   0  0  0  0  0  0  0  0  0  0  0  0
  -39.0990  -26.7340    9.4960 O   0  0  0  0  0  0  0  0  0  0  0  0
  -36.6180  -28.3480    9.1410 C   0  0  0  0  0  0  0  0  0  0  0  0
  -37.3360  -29.4330    9.1820 N   0  0  0  0  0  0  0  0  0  0  0  0
  -35.7360  -28.1370    9.9650 O   0  0  0  0  0  0  0  0  0  0  0  0
  -38.1040  -29.5640    8.5380 H   0  0  0  0  0  0  0  0  0  0  0  0
  -38.2930  -32.4340   11.3720 C   0  0  0  0  0  0  0  0  0  0  0  0
  -36.7200  -30.5980    9.7380 C   0  0  0  0  0  2  0  0  0  0  0  0
  -36.3340  -31.6630    7.9900 C   0  0  0  0  0 15  0  0  0  0  0  0
  -36.9350  -33.8470    8.4230 C   0  0  0  0  0 15  0  0  0  0  0  0
  -37.5900  -33.8670   10.4200 C   0  0  0  0  0  1  0  0  0  0  0  0
  -37.8430  -30.9980   11.0840 C   0  0  0  0  0  0  0  0  0  0  0  0
  -38.7120  -29.9190   11.6150 C   0  0  0  0  0  3  0  0  0  0  0  0
  -39.9710  -30.0800   12.2750 C   0  0  0  0  0  3  0  0  0  0  0  0
  -40.4380  -31.3860   12.4770 C   0  0  0  0  0  3  0  0  0  0  0  0
  -39.6160  -32.4930   12.0510 C   0  0  0  0  0  3  0  0  0  0  0  0
  -38.5160  -24.4880   10.0740 C   0  0  0  0  0  3  0  0  0  0  0  0
  -39.8760  -24.0880    9.7020 N   0  0  0  0  0  0  0  0  0  0  0  0
  -40.1660  -23.2730    8.6790 C   0  0  0  0  0  0  0  0  0  0  0  0
  -39.2980  -22.7110    8.0060 O   0  0  0  0  0  0  0  0  0  0  0  0
  -40.6370  -24.5490   10.1810 H   0  0  0  0  0  0  0  0  0  0  0  0
  -42.0160  -23.7400    7.0410 C   0  0  0  0  0  1  0  0  0  0  0  0
  -41.6550  -23.0400    8.3610 C   0  0  0  0  0  3  0  0  0  0  0  0
  -42.0210  -20.9430    9.5830 C   0  0  0  0  0  1  0  0  0  0  0  0
  -42.0210  -21.6110    8.2830 N   0  0  0  0  0  0  0  0  0  0  0  0
  -42.9430  -21.4990    7.8700 H   0  0  0  0  0  0  0  0  0  0  0  0
  -38.3560  -24.5530   11.6410 C   0  0  1  0  0  0  0  0  0  0  0  0
  -39.6120  -25.0720   12.3800 C   0  0  0  0  0  1  0  0  0  0  0  0
  -37.1660  -25.4580   12.0390 C   0  0  0  0  0  1  0  0  0  0  0  0
  -38.0340  -23.1410   12.1810 C   0  0  0  0  0  1  0  0  0  0  0  0
  2  8  1  6
  2  1  1  0
  3  7  1  0
  3  1  1  0
  4  2  1  0
  5  7  1  0
  9  6  1  1
  6  5  1  0
  7 55  1  0
  9  4  1  0
  9  2  1  0
  9  3  1  0
 10 17  2  0
 10 16  1  0
 11 12  1  0
 13 12  1  0
 14 27  1  0
 14 15  1  0
 14 13  1  0
 15 16  1  0
 16 11  1  0
 18 20  1  0
 19 21  1  0
 20 23  1  0
 21 23  1  0
 22 19  1  0
 22 18  1  0
 23 10  1  0
 24 27  1  0
 25 24  2  0
 25 26  1  0
 26 29  1  0
 26 28  2  0
 27 28  1  0
 29 34  1  0
 30 29  2  0
 30 31  1  0
 31 32  2  0
 32 33  1  0
 32 35  1  0
 34 33  2  0
 36 41  1  0
 36 35  1  0
 37 36  2  0
 38 39  2  0
 38 37  1  0
 39 40  1  0
 40 41  2  0
 41 42  1  0
 43 39  1  0
 44 25  1  0
 45 44  1  0
 45 47  1  0
 46 44  2  0
 48 45  1  0
 49 51  1  0
 49 24  1  0
 50 49  1  0
 52 53  1  0
 52 54  1  0
 53 54  1  0
 55 56  1  0
 57 68  2  0
 58 63  1  0
 58 56  1  0
 59 67  1  0
 59 69  1  0
 60 62  1  0
 61 67  1  0
 62 61  1  0
 62 63  2  0
 64 58  2  0
 65 60  2  0
 65 64  1  0
 66 60  1  0
 66 59  1  0
 67 57  1  0
 69 70  1  0
 69 71  2  0
 70 74  1  0
 72 70  1  0
 73 82  1  0
 74 78  1  0
 77 73  1  0
 78 73  2  0
 78 79  1  0
 79 80  2  0
 80 81  1  0
 82 81  2  0
 83 57  1  0
 83 93  1  0
 84 83  1  0
 84 87  1  0
 85 84  1  0
 86 85  2  0
 89 88  1  0
 89 85  1  0
 91 89  1  0
 91 90  1  0
 92 91  1  0
 93 95  1  6
 93 96  1  0
 93 94  1  0
M  ISO  4  10 100  23 100  55 101  56 101
M  END
>  <TORSDO>  (89) 
F 18

>  <SCORE>  (89) 
-6.061

>  <name>  (89) 
89

>  <ligand_id>  (89) 
89

>  <original_smiles>  (89) 
[H]c1c([H])c([H])c2c(c1[H])C([H])([H])C([H])([H])C([H])([H])C2([H])N([H])C(=O)C1([H])N(C(=O)C([H])(N([H])C(=O)C([H])(N([H])C([H])([H])[H])C([H])([H])[H])C(C([H])([H])[H])(C([H])([H])[H])C([H])([H])[H])C([H])([H])c2c([H])c(OC([H])([H])C3([H])c4c(C5([H])C([H])([H])C([H])([H])N(C(=O)N6C([H])([H])C([H])([H])C([H])([H])C([H])(n7nc(-c8c([H])c([H])c(Oc9c([H])c([H])c(F)c([H])c9F)c([H])c8[H])c(C(=O)N([H])[H])c7N([H])[H])C6([H])[H])C([H])([H])C5([H])[H])c(C([H])([H])[H])c(C5([H])C([H])([H])C5([H])[H])n4C([H])([H])C3([H])[H])c([H])c([H])c2C1([H])[H]

>  <smiles>  (89) 
[H]c1c([H])c([H])c2c(c1[H])C([H])([H])C([H])([H])C([H])([H])C2([H])N([H])C(=O)C1([H])N(C(=O)C([H])(N([H])C(=O)C([H])(N([H])C([H])([H])[H])C([H])([H])[H])C(C([H])([H])[H])(C([H])([H])[H])C([H])([H])[H])C([H])([H])c2c([H])c(OC([H])([H])C3([H])c4c(C5([H])C([H])([H])C([H])([H])N(C(=O)N6C([H])([H])C([H])([H])C([H])([H])C([H])(n7nc(-c8c([H])c([H])c(Oc9c([H])c([H])c(F)c([H])c9F)c([H])c8[H])c(C(=O)N([H])[H])c7N([H])[H])C6([H])[H])C([H])([H])C5([H])[H])c(C([H])([H])[H])c(C5([H])C([H])([H])C5([H])[H])n4C([H])([H])C3([H])[H])c([H])c([H])c2C1([H])[H]

$$$$
90:0:0
     RDKit          3D

 94103  0  0  1  0  0  0  0  0999 V2000
  -28.6740  -21.7650   19.2830 C   0  0  0  0  0  0  0  0  0  0  0  0
  -28.8870  -22.7040   20.3360 C   0  0  0  0  0  0  0  0  0  0  0  0
  -29.1810  -20.4300   19.4000 C   0  0  0  0  0  0  0  0  0  0  0  0
  -29.6960  -22.2380   21.4010 C   0  0  0  0  0  0  0  0  0  0  0  0
  -30.0230  -20.0640   20.4900 C   0  0  0  0  0  0  0  0  0  0  0  0
  -27.8670  -22.1750   18.0450 C   0  0  0  0  0  1  0  0  0  0  0  0
  -28.7410  -19.3890   18.3690 C   0  0  0  0  0  1  0  0  0  0  0  0
  -29.9920  -23.0640   22.6390 C   0  0  0  0  0  1  0  0  0  0  0  0
  -30.2500  -20.9990   21.4350 N   0  0  0  0  0  0  0  0  0  0  0  0
  -30.1230  -17.8490   21.6770 C   0  0  0  0  0  2  0  0  0  0  0  0
  -31.1120  -17.7990   19.7970 C   0  0  0  0  0  2  0  0  0  0  0  0
  -31.0240  -16.8060   20.9820 C   0  0  0  0  0  3  0  0  0  0  0  0
  -30.7230  -18.8280   20.7710 N   0  0  0  0  0  0  0  0  0  0  0  0
  -30.9290  -14.4510   20.0780 C   0  0  0  0  0  0  0  0  0  0  0  0
  -30.4900  -12.2850   18.9590 C   0  0  0  0  0  2  0  0  0  0  0  0
  -29.5020  -12.4820   17.7950 C   0  0  0  0  0  2  0  0  0  0  0  0
  -28.0490  -12.3750   18.2920 C   0  0  0  0  0  2  0  0  0  0  0  0
  -27.7820  -13.2280   19.5620 C   0  0  0  0  0  3  0  0  0  0  0  0
  -28.8920  -13.0300   20.6190 C   0  0  0  0  0  2  0  0  0  0  0  0
  -30.1940  -13.3030   19.9820 N   0  0  0  0  0  0  0  0  0  0  0  0
  -32.0170  -14.5850   19.5140 O   0  0  0  0  0  0  0  0  0  0  0  0
  -30.3790  -15.4890   20.7390 N   0  0  0  0  0  0  0  0  0  0  0  0
  -29.4860  -15.3320   21.1840 H   0  0  0  0  0  0  0  0  0  0  0  0
  -25.4420  -13.8600   20.4290 C   0  0  0  0  0  0  0  0  0  0  0  0
  -24.3790  -13.1050   20.8410 C   0  0  0  0  0  0  0  0  0  0  0  0
  -24.8060  -11.7420   20.7550 C   0  0  0  0  0  0  0  0  0  0  0  0
  -26.4540  -12.9650   20.1160 N   0  0  0  0  0  0  0  0  0  0  0  0
  -26.0770  -11.6840   20.3690 N   0  0  0  0  0  0  0  0  0  0  0  0
  -24.0630  -10.4920   20.9600 C   0  0  0  0  0  0  0  0  0  0  0  0
  -24.5030   -9.5090   21.8760 C   0  0  0  0  0  3  0  0  0  0  0  0
  -23.7580   -8.3280   22.0730 C   0  0  0  0  0  3  0  0  0  0  0  0
  -22.5570   -8.1180   21.3540 C   0  0  0  0  0  0  0  0  0  0  0  0
  -22.1330   -9.0870   20.4270 C   0  0  0  0  0  3  0  0  0  0  0  0
  -22.8790  -10.2610   20.2300 C   0  0  0  0  0  3  0  0  0  0  0  0
  -21.7850   -6.9840   21.4570 O   0  0  0  0  0  0  0  0  0  0  0  0
  -21.7340   -6.2530   22.6160 C   0  0  0  0  0  0  0  0  0  0  0  0
  -21.3040   -6.8220   23.8350 C   0  0  0  0  0  3  0  0  0  0  0  0
  -21.1970   -6.0180   24.9880 C   0  0  0  0  0  3  0  0  0  0  0  0
  -21.5080   -4.6460   24.9200 C   0  0  0  0  0  0  0  0  0  0  0  0
  -21.9300   -4.0760   23.7070 C   0  0  0  0  0  3  0  0  0  0  0  0
  -22.0380   -4.8780   22.5560 C   0  0  0  0  0  0  0  0  0  0  0  0
  -22.4240   -4.3210   21.3830 F   0  0  0  0  0  0  0  0  0  0  0  0
  -21.3990   -3.8720   26.0230 F   0  0  0  0  0  0  0  0  0  0  0  0
  -23.0090  -13.6060   21.2000 C   0  0  0  0  0  0  0  0  0  0  0  0
  -22.3110  -12.9110   22.0900 N   0  0  0  0  0  0  0  0  0  0  0  0
  -22.5680  -14.6500   20.7200 O   0  0  0  0  0  0  0  0  0  0  0  0
  -22.6790  -12.0710   22.5040 H   0  0  0  0  0  0  0  0  0  0  0  0
  -21.3960  -13.2320   22.3680 H   0  0  0  0  0  0  0  0  0  0  0  0
  -25.6270  -15.2340   20.2720 N   0  0  0  0  0  0  0  0  0  0  0  0
  -24.8890  -15.9060   20.4500 H   0  0  0  0  0  0  0  0  0  0  0  0
  -26.4740  -15.6560   19.9160 H   0  0  0  0  0  0  0  0  0  0  0  0
  -28.1390  -24.0880   20.3660 C   0  0  0  0  0  2  0  0  0  0  0  0
  -28.8790  -25.3890   20.8280 C   0  0  0  0  0  2  0  0  0  0  0  0
  -28.6320  -26.6480   20.1450 O   0  0  0  0  0  0  0  0  0  0  0  0
  -24.6870  -31.8330   23.2240 C   0  0  0  0  0  0  0  0  0  0  0  0
  -27.4300  -27.3300   20.2630 C   0  0  0  0  0  0  0  0  0  0  0  0
  -23.5270  -30.4110   21.5670 C   0  0  0  0  0  3  0  0  0  0  0  0
  -25.0220  -28.8430   20.2080 C   0  0  0  0  0  0  0  0  0  0  0  0
  -26.0590  -30.7630   21.4270 C   0  0  0  0  0  2  0  0  0  0  0  0
  -26.1660  -29.3760   20.8180 C   0  0  0  0  0  0  0  0  0  0  0  0
  -27.3740  -28.6310   20.8330 C   0  0  0  0  0  3  0  0  0  0  0  0
  -26.2630  -26.8160   19.6570 C   0  0  0  0  0  3  0  0  0  0  0  0
  -25.0650  -27.5610   19.6320 C   0  0  0  0  0  3  0  0  0  0  0  0
  -23.7770  -29.7040   20.2080 C   0  0  0  0  0  2  0  0  0  0  0  0
  -24.7750  -31.0210   22.1320 N   0  0  0  0  0  0  0  0  0  0  0  0
  -23.5920  -32.1040   23.7380 O   0  0  0  0  0  0  0  0  0  0  0  0
  -22.8530  -29.4000   22.5260 C   0  0  0  0  0  0  0  0  0  0  0  0
  -21.5250  -29.2380   22.3950 N   0  0  0  0  0  0  0  0  0  0  0  0
  -23.5250  -28.7620   23.3390 O   0  0  0  0  0  0  0  0  0  0  0  0
  -21.0420  -29.8030   21.7120 H   0  0  0  0  0  0  0  0  0  0  0  0
  -18.1280  -28.1170   22.9140 C   0  0  0  0  0  0  0  0  0  0  0  0
  -20.6950  -28.3080   23.1610 C   0  0  0  0  0  3  0  0  0  0  0  0
  -20.7580  -26.8830   22.5620 C   0  0  0  0  0  2  0  0  0  0  0  0
  -19.6380  -26.6060   21.5530 C   0  0  0  0  0  2  0  0  0  0  0  0
  -18.2670  -26.7760   22.2130 C   0  0  0  0  0  2  0  0  0  0  0  0
  -19.2690  -28.8430   23.3460 C   0  0  0  0  0  0  0  0  0  0  0  0
  -19.0900  -30.1030   23.9570 C   0  0  0  0  0  3  0  0  0  0  0  0
  -17.8000  -30.6360   24.1420 C   0  0  0  0  0  3  0  0  0  0  0  0
  -16.6730  -29.9040   23.7300 C   0  0  0  0  0  3  0  0  0  0  0  0
  -16.8380  -28.6470   23.1210 C   0  0  0  0  0  3  0  0  0  0  0  0
  -25.9520  -32.4820   23.8670 C   0  0  0  0  0  3  0  0  0  0  0  0
  -26.4570  -31.7140   25.1480 C   0  0  1  0  0  0  0  0  0  0  0  0
  -25.3500  -31.4540   26.1980 C   0  0  0  0  0  1  0  0  0  0  0  0
  -27.0620  -30.3470   24.7560 C   0  0  0  0  0  1  0  0  0  0  0  0
  -27.5900  -32.5150   25.8310 C   0  0  0  0  0  1  0  0  0  0  0  0
  -25.6220  -33.8770   24.1970 N   0  0  0  0  0  0  0  0  0  0  0  0
  -25.9380  -34.9340   23.4360 C   0  0  0  0  0  0  0  0  0  0  0  0
  -26.6080  -34.8370   22.4040 O   0  0  0  0  0  0  0  0  0  0  0  0
  -25.0310  -34.0210   25.0030 H   0  0  0  0  0  0  0  0  0  0  0  0
  -24.1830  -36.6970   23.0770 C   0  0  0  0  0  1  0  0  0  0  0  0
  -25.4310  -36.3170   23.8890 C   0  0  0  0  0  3  0  0  0  0  0  0
  -27.5510  -37.2400   24.7180 C   0  0  0  0  0  1  0  0  0  0  0  0
  -26.4500  -37.3850   23.7690 N   0  0  0  0  0  0  0  0  0  0  0  0
  -26.0310  -38.3000   23.9080 H   0  0  0  0  0  0  0  0  0  0  0  0
  1  3  2  0
  1  2  1  0
  2 52  1  0
  2  4  2  0
  3  5  1  0
  4  9  1  0
  4  8  1  0
  5 13  1  0
  5  9  2  0
  6  1  1  0
  7  3  1  0
 11 13  1  0
 11 12  1  0
 12 22  1  0
 12 10  1  0
 13 10  1  0
 14 22  1  0
 15 20  1  0
 16 17  1  0
 16 15  1  0
 18 17  1  0
 18 27  1  0
 18 19  1  0
 20 14  1  0
 20 19  1  0
 21 14  2  0
 22 23  1  0
 24 25  2  0
 25 44  1  0
 26 25  1  0
 26 29  1  0
 27 28  1  0
 27 24  1  0
 28 26  2  0
 29 30  1  0
 30 31  2  0
 32 35  1  0
 32 31  1  0
 33 32  2  0
 34 33  1  0
 34 29  2  0
 35 36  1  0
 36 37  1  0
 37 38  2  0
 39 38  1  0
 39 43  1  0
 40 39  2  0
 41 36  2  0
 41 40  1  0
 42 41  1  0
 44 45  1  0
 45 48  1  0
 45 47  1  0
 46 44  2  0
 49 24  1  0
 49 50  1  0
 51 49  1  0
 52 53  1  0
 54 56  1  0
 54 53  1  0
 55 66  2  0
 56 61  1  0
 57 65  1  0
 57 67  1  0
 58 60  1  0
 59 65  1  0
 60 61  2  0
 60 59  1  0
 62 56  2  0
 63 62  1  0
 63 58  2  0
 64 58  1  0
 64 57  1  0
 65 55  1  0
 67 69  2  0
 68 67  1  0
 70 68  1  0
 71 80  2  0
 71 76  1  0
 72 68  1  0
 72 76  1  0
 73 72  1  0
 74 75  1  0
 74 73  1  0
 75 71  1  0
 76 77  2  0
 77 78  1  0
 79 78  2  0
 80 79  1  0
 81 55  1  0
 81 86  1  0
 81 82  1  0
 82 85  1  1
 82 83  1  0
 84 82  1  0
 86 89  1  0
 87 91  1  0
 87 86  1  0
 88 87  2  0
 91 90  1  0
 93 91  1  0
 93 94  1  0
 93 92  1  0
M  ISO  4  14 100  22 100  53 101  54 101
M  END
>  <TORSDO>  (90) 
F 19

>  <SCORE>  (90) 
-14.376

>  <name>  (90) 
90

>  <ligand_id>  (90) 
90

>  <original_smiles>  (90) 
[H]c1c([H])c([H])c2c(c1[H])C([H])([H])C([H])([H])C([H])([H])C2([H])N([H])C(=O)C1([H])N(C(=O)C([H])(N([H])C(=O)C([H])(N([H])C([H])([H])[H])C([H])([H])[H])C(C([H])([H])[H])(C([H])([H])[H])C([H])([H])[H])C([H])([H])c2c([H])c(OC([H])([H])C([H])([H])c3c(C([H])([H])[H])nc(N4C([H])([H])C([H])(N([H])C(=O)N5C([H])([H])C([H])([H])C([H])([H])C([H])(n6nc(-c7c([H])c([H])c(Oc8c([H])c([H])c(F)c([H])c8F)c([H])c7[H])c(C(=O)N([H])[H])c6N([H])[H])C5([H])[H])C4([H])[H])c(C([H])([H])[H])c3C([H])([H])[H])c([H])c([H])c2C1([H])[H]

>  <smiles>  (90) 
[H]c1c([H])c([H])c2c(c1[H])C([H])([H])C([H])([H])C([H])([H])C2([H])N([H])C(=O)C1([H])N(C(=O)C([H])(N([H])C(=O)C([H])(N([H])C([H])([H])[H])C([H])([H])[H])C(C([H])([H])[H])(C([H])([H])[H])C([H])([H])[H])C([H])([H])c2c([H])c(OC([H])([H])C([H])([H])c3c(C([H])([H])[H])nc(N4C([H])([H])C([H])(N([H])C(=O)N5C([H])([H])C([H])([H])C([H])([H])C([H])(n6nc(-c7c([H])c([H])c(Oc8c([H])c([H])c(F)c([H])c8F)c([H])c7[H])c(C(=O)N([H])[H])c6N([H])[H])C5([H])[H])C4([H])[H])c(C([H])([H])[H])c3C([H])([H])[H])c([H])c([H])c2C1([H])[H]

$$$$
91:0:0
     RDKit          3D

 96105  0  0  1  0  0  0  0  0999 V2000
  -30.7750  -25.4370   19.2270 C   0  0  0  0  0  2  0  0  0  0  0  0
  -30.2520  -24.1960   21.2610 C   0  0  0  0  0  2  0  0  0  0  0  0
  -30.4490  -25.6320   20.7220 C   0  0  0  0  0  3  0  0  0  0  0  0
  -31.2360  -23.9730   19.0560 C   0  0  0  0  0  3  0  0  0  0  0  0
  -31.3290  -23.4050   20.4850 C   0  0  0  0  0  3  0  0  0  0  0  0
  -32.5540  -23.8900   18.2740 C   0  0  0  0  0  1  0  0  0  0  0  0
  -32.1350  -21.4450   21.8980 C   0  0  0  0  0  1  0  0  0  0  0  0
  -31.3810  -21.8470   20.6120 C   0  0  0  0  0  3  0  0  0  0  0  0
  -30.0290  -21.0830   20.4570 C   0  0  0  0  0  2  0  0  0  0  0  0
  -30.6810  -14.5160   20.4120 C   0  0  0  0  0  0  0  0  0  0  0  0
  -30.3350  -12.3170   19.3650 C   0  0  0  0  0  2  0  0  0  0  0  0
  -29.3970  -12.4880   18.1540 C   0  0  0  0  0  2  0  0  0  0  0  0
  -27.9240  -12.3720   18.5930 C   0  0  0  0  0  2  0  0  0  0  0  0
  -27.5850  -13.2280   19.8430 C   0  0  0  0  0  3  0  0  0  0  0  0
  -28.6600  -13.0870   20.9470 C   0  0  0  0  0  2  0  0  0  0  0  0
  -29.9710  -13.3560   20.3380 N   0  0  0  0  0  0  0  0  0  0  0  0
  -31.8770  -14.5690   20.1260 O   0  0  0  0  0  0  0  0  0  0  0  0
  -30.0760  -19.9030   19.4570 C   0  0  0  0  0  0  0  0  0  0  0  0
  -29.9960  -18.1600   21.2720 C   0  0  0  0  0  2  0  0  0  0  0  0
  -30.5470  -16.7180   21.4970 C   0  0  0  0  0  2  0  0  0  0  0  0
  -29.2160  -16.2460   19.4970 C   0  0  0  0  0  2  0  0  0  0  0  0
  -29.8620  -17.5070   18.8760 C   0  0  0  0  0  3  0  0  0  0  0  0
  -31.1970  -17.1960   18.1660 C   0  0  0  0  0  1  0  0  0  0  0  0
  -30.0100  -18.5970   19.8620 N   0  0  0  0  0  0  0  0  0  0  0  0
  -29.9850  -15.6700   20.6150 N   0  0  0  0  0  0  0  0  0  0  0  0
  -30.1330  -20.2030   18.2600 O   0  0  0  0  0  0  0  0  0  0  0  0
  -25.1980  -13.8390   20.5610 C   0  0  0  0  0  0  0  0  0  0  0  0
  -24.1290  -13.0670   20.9240 C   0  0  0  0  0  0  0  0  0  0  0  0
  -24.5920  -11.7170   20.8990 C   0  0  0  0  0  0  0  0  0  0  0  0
  -26.2430  -12.9560   20.3340 N   0  0  0  0  0  0  0  0  0  0  0  0
  -25.8840  -11.6760   20.5980 N   0  0  0  0  0  0  0  0  0  0  0  0
  -23.8690  -10.4560   21.0850 C   0  0  0  0  0  0  0  0  0  0  0  0
  -24.3150   -9.4760   21.9980 C   0  0  0  0  0  3  0  0  0  0  0  0
  -23.5870   -8.2790   22.1740 C   0  0  0  0  0  3  0  0  0  0  0  0
  -22.3990   -8.0570   21.4370 C   0  0  0  0  0  0  0  0  0  0  0  0
  -21.9770   -9.0240   20.5090 C   0  0  0  0  0  3  0  0  0  0  0  0
  -22.7040  -10.2120   20.3310 C   0  0  0  0  0  3  0  0  0  0  0  0
  -21.6420   -6.9130   21.5240 O   0  0  0  0  0  0  0  0  0  0  0  0
  -21.6270   -6.1450   22.6590 C   0  0  0  0  0  0  0  0  0  0  0  0
  -21.2640   -6.6790   23.9150 C   0  0  0  0  0  3  0  0  0  0  0  0
  -21.1940   -5.8420   25.0450 C   0  0  0  0  0  3  0  0  0  0  0  0
  -21.4800   -4.4680   24.9210 C   0  0  0  0  0  0  0  0  0  0  0  0
  -21.8370   -3.9320   23.6710 C   0  0  0  0  0  3  0  0  0  0  0  0
  -21.9070   -4.7670   22.5430 C   0  0  0  0  0  0  0  0  0  0  0  0
  -22.2330   -4.2420   21.3380 F   0  0  0  0  0  0  0  0  0  0  0  0
  -21.4040   -3.6610   26.0050 F   0  0  0  0  0  0  0  0  0  0  0  0
  -22.7320  -13.5450   21.1910 C   0  0  0  0  0  0  0  0  0  0  0  0
  -22.0070  -12.8450   22.0560 N   0  0  0  0  0  0  0  0  0  0  0  0
  -22.2930  -14.5700   20.6700 O   0  0  0  0  0  0  0  0  0  0  0  0
  -22.3780  -12.0100   22.4870 H   0  0  0  0  0  0  0  0  0  0  0  0
  -21.0700  -13.1420   22.2920 H   0  0  0  0  0  0  0  0  0  0  0  0
  -25.3630  -15.2090   20.3840 N   0  0  0  0  0  0  0  0  0  0  0  0
  -24.5990  -15.8710   20.4950 H   0  0  0  0  0  0  0  0  0  0  0  0
  -26.2230  -15.6420   20.0770 H   0  0  0  0  0  0  0  0  0  0  0  0
  -29.3700  -26.7110   21.0130 C   0  0  0  0  0  2  0  0  0  0  0  0
  -28.3190  -26.6070   20.0620 O   0  0  0  0  0  0  0  0  0  0  0  0
  -24.6220  -31.8810   23.2320 C   0  0  0  0  0  0  0  0  0  0  0  0
  -27.2210  -27.4330   20.1410 C   0  0  0  0  0  0  0  0  0  0  0  0
  -23.3970  -30.4840   21.6000 C   0  0  0  0  0  3  0  0  0  0  0  0
  -24.8360  -28.9490   20.1600 C   0  0  0  0  0  0  0  0  0  0  0  0
  -25.9190  -30.8400   21.3740 C   0  0  0  0  0  2  0  0  0  0  0  0
  -25.9970  -29.4650   20.7480 C   0  0  0  0  0  0  0  0  0  0  0  0
  -27.1950  -28.7110   20.7500 C   0  0  0  0  0  3  0  0  0  0  0  0
  -26.0470  -26.9380   19.5370 C   0  0  0  0  0  3  0  0  0  0  0  0
  -24.8540  -27.6810   19.5530 C   0  0  0  0  0  3  0  0  0  0  0  0
  -23.5920  -29.8070   20.2160 C   0  0  0  0  0  2  0  0  0  0  0  0
  -24.6660  -31.0820   22.1280 N   0  0  0  0  0  0  0  0  0  0  0  0
  -23.5480  -32.1540   23.7840 O   0  0  0  0  0  0  0  0  0  0  0  0
  -22.7530  -29.4620   22.5640 C   0  0  0  0  0  0  0  0  0  0  0  0
  -21.4280  -29.2790   22.4470 N   0  0  0  0  0  0  0  0  0  0  0  0
  -23.4440  -28.8370   23.3740 O   0  0  0  0  0  0  0  0  0  0  0  0
  -20.9310  -29.8320   21.7630 H   0  0  0  0  0  0  0  0  0  0  0  0
  -18.0620  -28.0720   22.9560 C   0  0  0  0  0  0  0  0  0  0  0  0
  -20.6190  -28.3430   23.2260 C   0  0  0  0  0  3  0  0  0  0  0  0
  -20.7270  -26.9080   22.6590 C   0  0  0  0  0  2  0  0  0  0  0  0
  -19.6270  -26.5760   21.6460 C   0  0  0  0  0  2  0  0  0  0  0  0
  -18.2450  -26.7200   22.2890 C   0  0  0  0  0  2  0  0  0  0  0  0
  -19.1770  -28.8410   23.3830 C   0  0  0  0  0  0  0  0  0  0  0  0
  -18.9540  -30.1090   23.9650 C   0  0  0  0  0  3  0  0  0  0  0  0
  -17.6470  -30.6070   24.1250 C   0  0  0  0  0  3  0  0  0  0  0  0
  -16.5470  -29.8350   23.7160 C   0  0  0  0  0  3  0  0  0  0  0  0
  -16.7540  -28.5690   23.1390 C   0  0  0  0  0  3  0  0  0  0  0  0
  -25.9180  -32.5080   23.8350 C   0  0  0  0  0  3  0  0  0  0  0  0
  -26.4590  -31.7230   25.0930 C   0  0  1  0  0  0  0  0  0  0  0  0
  -25.3860  -31.4750   26.1780 C   0  0  0  0  0  1  0  0  0  0  0  0
  -27.0320  -30.3490   24.6720 C   0  0  0  0  0  1  0  0  0  0  0  0
  -27.6220  -32.5080   25.7450 C   0  0  0  0  0  1  0  0  0  0  0  0
  -25.6140  -33.9020   24.1830 N   0  0  0  0  0  0  0  0  0  0  0  0
  -25.9350  -34.9600   23.4270 C   0  0  0  0  0  0  0  0  0  0  0  0
  -26.5880  -34.8650   22.3840 O   0  0  0  0  0  0  0  0  0  0  0  0
  -25.0300  -34.0480   24.9930 H   0  0  0  0  0  0  0  0  0  0  0  0
  -24.1950  -36.7500   23.1160 C   0  0  0  0  0  1  0  0  0  0  0  0
  -25.4520  -36.3440   23.9010 C   0  0  0  0  0  3  0  0  0  0  0  0
  -27.6020  -37.2250   24.6940 C   0  0  0  0  0  1  0  0  0  0  0  0
  -26.4800  -37.4000   23.7780 N   0  0  0  0  0  0  0  0  0  0  0  0
  -26.0740  -38.3170   23.9460 H   0  0  0  0  0  0  0  0  0  0  0  0
  1  3  1  0
  3 55  1  0
  3  2  1  0
  4  6  1  0
  4  1  1  0
  4  5  1  0
  5  8  1  0
  5  2  1  0
  8  7  1  0
  9  8  1  0
 10 25  1  0
 11 16  1  0
 12 13  1  0
 12 11  1  0
 14 13  1  0
 14 30  1  0
 14 15  1  0
 16 10  1  0
 16 15  1  0
 17 10  2  0
 18 24  1  0
 18  9  1  0
 19 20  1  0
 21 25  1  0
 22 23  1  0
 22 21  1  0
 22 24  1  0
 24 19  1  0
 25 20  1  0
 26 18  2  0
 27 28  2  0
 28 47  1  0
 29 28  1  0
 29 32  1  0
 30 27  1  0
 30 31  1  0
 31 29  2  0
 32 33  1  0
 33 34  2  0
 35 38  1  0
 35 34  1  0
 36 35  2  0
 37 36  1  0
 37 32  2  0
 38 39  1  0
 39 40  1  0
 40 41  2  0
 42 41  1  0
 42 46  1  0
 43 42  2  0
 44 39  2  0
 44 43  1  0
 45 44  1  0
 47 48  1  0
 48 51  1  0
 48 50  1  0
 49 47  2  0
 52 53  1  0
 52 27  1  0
 54 52  1  0
 56 58  1  0
 56 55  1  0
 57 68  2  0
 58 63  1  0
 59 67  1  0
 59 69  1  0
 60 66  1  0
 60 62  1  0
 61 67  1  0
 62 63  2  0
 62 61  1  0
 64 65  1  0
 64 58  2  0
 65 60  2  0
 66 59  1  0
 67 57  1  0
 69 71  2  0
 70 69  1  0
 72 70  1  0
 73 82  2  0
 73 78  1  0
 74 70  1  0
 74 78  1  0
 75 74  1  0
 76 77  1  0
 76 75  1  0
 77 73  1  0
 78 79  2  0
 79 80  1  0
 81 80  2  0
 82 81  1  0
 83 57  1  0
 83 88  1  0
 83 84  1  0
 84 87  1  1
 84 85  1  0
 86 84  1  0
 88 91  1  0
 89 93  1  0
 89 88  1  0
 90 89  2  0
 93 92  1  0
 95 93  1  0
 95 96  1  0
 95 94  1  0
M  ISO  4  10 100  25 100  55 101  56 101
M  END
>  <TORSDO>  (91) 
F 19

>  <SCORE>  (91) 
-14.469

>  <name>  (91) 
91

>  <ligand_id>  (91) 
91

>  <original_smiles>  (91) 
[H]c1c([H])c([H])c2c(c1[H])C([H])([H])C([H])([H])C([H])([H])C2([H])N([H])C(=O)C1([H])N(C(=O)C([H])(N([H])C(=O)C([H])(N([H])C([H])([H])[H])C([H])([H])[H])C(C([H])([H])[H])(C([H])([H])[H])C([H])([H])[H])C([H])([H])c2c([H])c(OC([H])([H])C3([H])C([H])([H])C([H])(C([H])([H])[H])C([H])(C([H])(C([H])([H])[H])C([H])([H])C(=O)N4C([H])([H])C([H])([H])N(C(=O)N5C([H])([H])C([H])([H])C([H])([H])C([H])(n6nc(-c7c([H])c([H])c(Oc8c([H])c([H])c(F)c([H])c8F)c([H])c7[H])c(C(=O)N([H])[H])c6N([H])[H])C5([H])[H])C([H])([H])C4([H])C([H])([H])[H])C3([H])[H])c([H])c([H])c2C1([H])[H]

>  <smiles>  (91) 
[H]c1c([H])c([H])c2c(c1[H])C([H])([H])C([H])([H])C([H])([H])C2([H])N([H])C(=O)C1([H])N(C(=O)C([H])(N([H])C(=O)C([H])(N([H])C([H])([H])[H])C([H])([H])[H])C(C([H])([H])[H])(C([H])([H])[H])C([H])([H])[H])C([H])([H])c2c([H])c(OC([H])([H])C3([H])C([H])([H])C([H])(C([H])([H])[H])C([H])(C([H])(C([H])([H])[H])C([H])([H])C(=O)N4C([H])([H])C([H])([H])N(C(=O)N5C([H])([H])C([H])([H])C([H])([H])C([H])(n6nc(-c7c([H])c([H])c(Oc8c([H])c([H])c(F)c([H])c8F)c([H])c7[H])c(C(=O)N([H])[H])c6N([H])[H])C5([H])[H])C([H])([H])C4([H])C([H])([H])[H])C3([H])[H])c([H])c([H])c2C1([H])[H]

$$$$
92:0:0
     RDKit          3D

 91100  0  0  1  0  0  0  0  0999 V2000
  -31.1440  -21.8340   20.8390 C   0  0  0  0  0  3  0  0  0  0  0  0
  -28.6060  -21.2270   20.1160 C   0  0  0  0  0  3  0  0  0  0  0  0
  -30.8350  -20.4620   20.6100 C   0  0  0  0  0  0  0  0  0  0  0  0
  -29.5410  -19.9920   20.2830 C   0  0  0  0  0  0  0  0  0  0  0  0
  -30.2370  -22.9260   20.7090 C   0  0  0  0  0  0  0  0  0  0  0  0
  -28.8850  -22.7520   20.3100 C   0  0  0  0  0  0  0  0  0  0  0  0
  -31.9730  -19.4550   20.5600 C   0  0  0  0  0  2  0  0  0  0  0  0
  -32.0030  -18.6740   19.2260 C   0  0  0  0  0  2  0  0  0  0  0  0
  -30.6010  -18.3350   18.6580 C   0  0  0  0  0  2  0  0  0  0  0  0
  -29.5310  -18.2920   19.7610 C   0  0  0  0  0  3  0  0  0  0  0  0
  -30.7870  -24.3250   20.9520 C   0  0  0  0  0  1  0  0  0  0  0  0
  -30.3720  -15.4100   20.2030 C   0  0  0  0  0  0  0  0  0  0  0  0
  -30.3570  -12.9360   19.3730 C   0  0  0  0  0  2  0  0  0  0  0  0
  -29.4260  -12.6610   18.1600 C   0  0  0  0  0  2  0  0  0  0  0  0
  -28.0050  -12.3420   18.6420 C   0  0  0  0  0  2  0  0  0  0  0  0
  -27.5340  -13.3530   19.7110 C   0  0  0  0  0  3  0  0  0  0  0  0
  -28.5830  -13.5730   20.8280 C   0  0  0  0  0  2  0  0  0  0  0  0
  -29.8070  -14.0930   20.1930 N   0  0  0  0  0  0  0  0  0  0  0  0
  -31.5660  -15.3790   19.8770 O   0  0  0  0  0  0  0  0  0  0  0  0
  -29.6460  -16.7180   20.4050 N   0  0  0  0  0  0  0  0  0  0  0  0
  -28.8030  -16.5300   20.9230 H   0  0  0  0  0  0  0  0  0  0  0  0
  -25.1710  -13.9140   20.4830 C   0  0  0  0  0  0  0  0  0  0  0  0
  -24.1090  -13.1390   20.8610 C   0  0  0  0  0  0  0  0  0  0  0  0
  -24.5740  -11.7880   20.8290 C   0  0  0  0  0  0  0  0  0  0  0  0
  -26.2110  -13.0370   20.2320 N   0  0  0  0  0  0  0  0  0  0  0  0
  -25.8640  -11.7530   20.5090 N   0  0  0  0  0  0  0  0  0  0  0  0
  -23.8470  -10.5260   21.0230 C   0  0  0  0  0  0  0  0  0  0  0  0
  -24.2870   -9.5550   21.9490 C   0  0  0  0  0  3  0  0  0  0  0  0
  -23.5570   -8.3620   22.1370 C   0  0  0  0  0  3  0  0  0  0  0  0
  -22.3740   -8.1310   21.3950 C   0  0  0  0  0  0  0  0  0  0  0  0
  -21.9530   -9.0890   20.4570 C   0  0  0  0  0  3  0  0  0  0  0  0
  -22.6840  -10.2740   20.2680 C   0  0  0  0  0  3  0  0  0  0  0  0
  -21.6140   -6.9900   21.4920 O   0  0  0  0  0  0  0  0  0  0  0  0
  -21.5800   -6.2420   22.6410 C   0  0  0  0  0  0  0  0  0  0  0  0
  -21.1750   -6.7930   23.8770 C   0  0  0  0  0  3  0  0  0  0  0  0
  -21.0840   -5.9700   25.0170 C   0  0  0  0  0  3  0  0  0  0  0  0
  -21.3940   -4.6000   24.9250 C   0  0  0  0  0  0  0  0  0  0  0  0
  -21.7940   -4.0510   23.6960 C   0  0  0  0  0  3  0  0  0  0  0  0
  -21.8840   -4.8690   22.5550 C   0  0  0  0  0  0  0  0  0  0  0  0
  -22.2480   -4.3300   21.3690 F   0  0  0  0  0  0  0  0  0  0  0  0
  -21.3020   -3.8090   26.0190 F   0  0  0  0  0  0  0  0  0  0  0  0
  -22.7130  -13.6180   21.1300 C   0  0  0  0  0  0  0  0  0  0  0  0
  -21.9840  -12.9310   22.0000 N   0  0  0  0  0  0  0  0  0  0  0  0
  -22.2770  -14.6400   20.5970 O   0  0  0  0  0  0  0  0  0  0  0  0
  -22.3540  -12.1130   22.4600 H   0  0  0  0  0  0  0  0  0  0  0  0
  -21.0460  -13.2340   22.2200 H   0  0  0  0  0  0  0  0  0  0  0  0
  -25.3300  -15.2830   20.2970 N   0  0  0  0  0  0  0  0  0  0  0  0
  -24.5590  -15.9290   20.4340 H   0  0  0  0  0  0  0  0  0  0  0  0
  -26.1320  -15.7120   19.8540 H   0  0  0  0  0  0  0  0  0  0  0  0
  -27.9190  -24.2130   20.0430 C   0  0  0  0  0  2  0  0  0  0  0  0
  -28.1730  -25.8340   20.3230 O   0  0  0  0  0  0  0  0  0  0  0  0
  -24.6410  -31.8680   23.2360 C   0  0  0  0  0  0  0  0  0  0  0  0
  -27.1780  -26.9530   20.2440 C   0  0  0  0  0  0  0  0  0  0  0  0
  -23.4400  -30.4710   21.5990 C   0  0  0  0  0  3  0  0  0  0  0  0
  -24.8870  -28.8540   20.1860 C   0  0  0  0  0  0  0  0  0  0  0  0
  -26.0060  -30.6730   21.4500 C   0  0  0  0  0  2  0  0  0  0  0  0
  -26.0750  -29.2560   20.8070 C   0  0  0  0  0  0  0  0  0  0  0  0
  -27.2140  -28.3240   20.8160 C   0  0  0  0  0  3  0  0  0  0  0  0
  -25.9550  -26.7110   19.5770 C   0  0  0  0  0  3  0  0  0  0  0  0
  -24.8510  -27.6030   19.5520 C   0  0  0  0  0  3  0  0  0  0  0  0
  -23.6710  -29.7800   20.2270 C   0  0  0  0  0  2  0  0  0  0  0  0
  -24.7170  -31.0330   22.1490 N   0  0  0  0  0  0  0  0  0  0  0  0
  -23.5540  -32.1650   23.7580 O   0  0  0  0  0  0  0  0  0  0  0  0
  -22.7420  -29.4830   22.5700 C   0  0  0  0  0  0  0  0  0  0  0  0
  -21.4110  -29.3250   22.4470 N   0  0  0  0  0  0  0  0  0  0  0  0
  -23.4050  -28.8560   23.4000 O   0  0  0  0  0  0  0  0  0  0  0  0
  -20.9290  -29.8810   21.7550 H   0  0  0  0  0  0  0  0  0  0  0  0
  -18.0240  -28.1280   22.9470 C   0  0  0  0  0  0  0  0  0  0  0  0
  -20.5830  -28.3960   23.2210 C   0  0  0  0  0  3  0  0  0  0  0  0
  -20.6870  -26.9600   22.6550 C   0  0  0  0  0  2  0  0  0  0  0  0
  -19.5900  -26.6320   21.6360 C   0  0  0  0  0  2  0  0  0  0  0  0
  -18.2050  -26.7770   22.2740 C   0  0  0  0  0  2  0  0  0  0  0  0
  -19.1410  -28.8950   23.3760 C   0  0  0  0  0  0  0  0  0  0  0  0
  -18.9160  -30.1560   23.9690 C   0  0  0  0  0  3  0  0  0  0  0  0
  -17.6100  -30.6550   24.1340 C   0  0  0  0  0  3  0  0  0  0  0  0
  -16.5080  -29.8860   23.7190 C   0  0  0  0  0  3  0  0  0  0  0  0
  -16.7150  -28.6250   23.1320 C   0  0  0  0  0  3  0  0  0  0  0  0
  -25.9170  -32.5050   23.8670 C   0  0  0  0  0  3  0  0  0  0  0  0
  -25.6060  -33.9060   24.2060 N   0  0  0  0  0  0  0  0  0  0  0  0
  -25.9160  -34.9640   23.4470 C   0  0  0  0  0  0  0  0  0  0  0  0
  -26.5570  -34.8670   22.3970 O   0  0  0  0  0  0  0  0  0  0  0  0
  -25.0330  -34.0550   25.0220 H   0  0  0  0  0  0  0  0  0  0  0  0
  -24.1640  -36.7550   23.1770 C   0  0  0  0  0  1  0  0  0  0  0  0
  -25.4450  -36.3530   23.9270 C   0  0  0  0  0  3  0  0  0  0  0  0
  -27.6080  -37.2580   24.6560 C   0  0  0  0  0  1  0  0  0  0  0  0
  -26.4620  -37.4140   23.7640 N   0  0  0  0  0  0  0  0  0  0  0  0
  -26.0550  -38.3300   23.9290 H   0  0  0  0  0  0  0  0  0  0  0  0
  -26.4240  -31.7340   25.1500 C   0  0  1  0  0  0  0  0  0  0  0  0
  -25.3220  -31.5100   26.2120 C   0  0  0  0  0  1  0  0  0  0  0  0
  -26.9990  -30.3500   24.7700 C   0  0  0  0  0  1  0  0  0  0  0  0
  -27.5770  -32.5200   25.8150 C   0  0  0  0  0  1  0  0  0  0  0  0
  2  4  2  0
  2  6  1  0
  3  1  2  0
  4  3  1  0
  5  1  1  0
  5 11  1  0
  6  5  2  0
  7  3  1  0
  8  7  1  0
  9  8  1  0
  9 10  1  0
 10  4  1  0
 10 20  1  0
 12 20  1  0
 13 18  1  0
 14 15  1  0
 14 13  1  0
 16 15  1  0
 16 25  1  0
 16 17  1  0
 18 12  1  0
 18 17  1  0
 19 12  2  0
 20 21  1  0
 22 23  2  0
 23 42  1  0
 24 23  1  0
 24 27  1  0
 25 22  1  0
 25 26  1  0
 26 24  2  0
 27 28  1  0
 28 29  2  0
 30 33  1  0
 30 29  1  0
 31 30  2  0
 32 31  1  0
 32 27  2  0
 33 34  1  0
 34 35  1  0
 35 36  2  0
 37 36  1  0
 37 41  1  0
 38 37  2  0
 39 34  2  0
 39 38  1  0
 40 39  1  0
 42 43  1  0
 43 46  1  0
 43 45  1  0
 44 42  2  0
 47 48  1  0
 47 22  1  0
 49 47  1  0
 50  6  1  0
 50 51  1  0
 52 63  2  0
 53 51  1  0
 53 58  1  0
 54 62  1  0
 54 64  1  0
 55 61  1  0
 55 57  1  0
 56 62  1  0
 57 58  2  0
 57 56  1  0
 59 53  2  0
 60 59  1  0
 60 55  2  0
 61 54  1  0
 62 52  1  0
 64 66  2  0
 65 64  1  0
 67 65  1  0
 68 77  2  0
 68 73  1  0
 69 65  1  0
 69 73  1  0
 70 69  1  0
 71 72  1  0
 71 70  1  0
 72 68  1  0
 73 74  2  0
 74 75  1  0
 76 75  2  0
 77 76  1  0
 78 52  1  0
 78 79  1  0
 78 88  1  0
 79 82  1  0
 80 84  1  0
 80 79  1  0
 81 80  2  0
 84 83  1  0
 86 84  1  0
 86 87  1  0
 86 85  1  0
 88 91  1  1
 88 89  1  0
 90 88  1  0
M  ISO  4  12 100  20 100  50 101  51 101
M  END
>  <TORSDO>  (92) 
F 17

>  <SCORE>  (92) 
-16.950

>  <name>  (92) 
92

>  <ligand_id>  (92) 
92

>  <original_smiles>  (92) 
[H]c1c([H])c([H])c2c(c1[H])C([H])([H])C([H])([H])C([H])([H])C2([H])N([H])C(=O)C1([H])N(C(=O)C([H])(N([H])C(=O)C([H])(N([H])C([H])([H])[H])C([H])([H])[H])C(C([H])([H])[H])(C([H])([H])[H])C([H])([H])[H])C([H])([H])c2c([H])c(OC([H])([H])c3c([H])c4c(c([H])c3C([H])([H])[H])C([H])([H])C([H])([H])C([H])([H])C4([H])N([H])C(=O)N3C([H])([H])C([H])([H])C([H])([H])C([H])(n4nc(-c5c([H])c([H])c(Oc6c([H])c([H])c(F)c([H])c6F)c([H])c5[H])c(C(=O)N([H])[H])c4N([H])[H])C3([H])[H])c([H])c([H])c2C1([H])[H]

>  <smiles>  (92) 
[H]c1c([H])c([H])c2c(c1[H])C([H])([H])C([H])([H])C([H])([H])C2([H])N([H])C(=O)C1([H])N(C(=O)C([H])(N([H])C(=O)C([H])(N([H])C([H])([H])[H])C([H])([H])[H])C(C([H])([H])[H])(C([H])([H])[H])C([H])([H])[H])C([H])([H])c2c([H])c(OC([H])([H])c3c([H])c4c(c([H])c3C([H])([H])[H])C([H])([H])C([H])([H])C([H])([H])C4([H])N([H])C(=O)N3C([H])([H])C([H])([H])C([H])([H])C([H])(n4nc(-c5c([H])c([H])c(Oc6c([H])c([H])c(F)c([H])c6F)c([H])c5[H])c(C(=O)N([H])[H])c4N([H])[H])C3([H])[H])c([H])c([H])c2C1([H])[H]

$$$$
93:0:0
     RDKit          3D

 96105  0  0  1  0  0  0  0  0999 V2000
  -30.4690  -23.7600   20.1940 C   0  0  0  0  0  0  0  0  0  0  0  0
  -30.5160  -22.3360   20.4190 C   0  0  0  0  0  0  0  0  0  0  0  0
  -29.2120  -24.1270   19.7650 C   0  0  0  0  0  0  0  0  0  0  0  0
  -29.2740  -21.8330   20.1200 C   0  0  0  0  0  0  0  0  0  0  0  0
  -31.6460  -24.6950   20.3390 C   0  0  0  0  0  1  0  0  0  0  0  0
  -31.7350  -21.5760   20.8840 C   0  0  0  0  0  1  0  0  0  0  0  0
  -28.4420  -22.9340   19.7930 N   0  0  0  0  0  0  0  0  0  0  0  0
  -26.1410  -22.5210   20.6820 C   0  0  0  0  0  1  0  0  0  0  0  0
  -26.7490  -21.9590   18.2560 C   0  0  0  0  0  1  0  0  0  0  0  0
  -27.0120  -22.8720   19.4630 C   0  0  0  0  0  3  0  0  0  0  0  0
  -28.8510  -20.4520   20.1650 N   0  0  0  0  0  0  0  0  0  0  0  0
  -27.8560  -20.3170   20.0320 H   0  0  0  0  0  0  0  0  0  0  0  0
  -30.8470  -14.8750   19.9480 C   0  0  0  0  0  0  0  0  0  0  0  0
  -30.5500  -12.6110   18.9750 C   0  0  0  0  0  2  0  0  0  0  0  0
  -29.5520  -12.6840   17.8010 C   0  0  0  0  0  2  0  0  0  0  0  0
  -28.1070  -12.5210   18.3140 C   0  0  0  0  0  2  0  0  0  0  0  0
  -27.7970  -13.4200   19.5420 C   0  0  0  0  0  3  0  0  0  0  0  0
  -28.9170  -13.3570   20.6030 C   0  0  0  0  0  2  0  0  0  0  0  0
  -30.1790  -13.6790   19.9270 N   0  0  0  0  0  0  0  0  0  0  0  0
  -32.0230  -14.9330   19.5720 O   0  0  0  0  0  0  0  0  0  0  0  0
  -28.9460  -18.1350   19.1000 C   0  0  0  0  0  2  0  0  0  0  0  0
  -29.9490  -18.4130   21.2810 C   0  0  0  0  0  2  0  0  0  0  0  0
  -29.7390  -16.7890   18.9100 C   0  0  0  0  0  2  0  0  0  0  0  0
  -30.7310  -17.0580   21.0840 C   0  0  0  0  0  2  0  0  0  0  0  0
  -29.6630  -19.2000   19.9720 C   0  0  0  0  0  3  0  0  0  0  0  0
  -30.1440  -16.0560   20.1450 N   0  0  0  0  0  0  0  0  0  0  0  0
  -25.4710  -14.0040   20.4500 C   0  0  0  0  0  0  0  0  0  0  0  0
  -24.4210  -13.2270   20.8560 C   0  0  0  0  0  0  0  0  0  0  0  0
  -24.8640  -11.8730   20.7440 C   0  0  0  0  0  0  0  0  0  0  0  0
  -26.4860  -13.1250   20.1110 N   0  0  0  0  0  0  0  0  0  0  0  0
  -26.1330  -11.8360   20.3510 N   0  0  0  0  0  0  0  0  0  0  0  0
  -24.1370  -10.6120   20.9330 C   0  0  0  0  0  0  0  0  0  0  0  0
  -24.5510   -9.6550   21.8860 C   0  0  0  0  0  3  0  0  0  0  0  0
  -23.8230   -8.4580   22.0620 C   0  0  0  0  0  3  0  0  0  0  0  0
  -22.6690   -8.2090   21.2840 C   0  0  0  0  0  0  0  0  0  0  0  0
  -22.2730   -9.1540   20.3200 C   0  0  0  0  0  3  0  0  0  0  0  0
  -23.0020  -10.3420   20.1430 C   0  0  0  0  0  3  0  0  0  0  0  0
  -21.9150   -7.0630   21.3670 O   0  0  0  0  0  0  0  0  0  0  0  0
  -21.7720   -6.3800   22.5470 C   0  0  0  0  0  0  0  0  0  0  0  0
  -21.1990   -6.9790   23.6900 C   0  0  0  0  0  3  0  0  0  0  0  0
  -21.0060   -6.2210   24.8620 C   0  0  0  0  0  3  0  0  0  0  0  0
  -21.3770   -4.8630   24.8910 C   0  0  0  0  0  0  0  0  0  0  0  0
  -21.9440   -4.2630   23.7530 C   0  0  0  0  0  3  0  0  0  0  0  0
  -22.1370   -5.0190   22.5840 C   0  0  0  0  0  0  0  0  0  0  0  0
  -22.6650   -4.4310   21.4840 F   0  0  0  0  0  0  0  0  0  0  0  0
  -21.1860   -4.1320   26.0140 F   0  0  0  0  0  0  0  0  0  0  0  0
  -23.0490  -13.7070   21.2340 C   0  0  0  0  0  0  0  0  0  0  0  0
  -22.3620  -12.9770   22.1060 N   0  0  0  0  0  0  0  0  0  0  0  0
  -22.5990  -14.7640   20.7950 O   0  0  0  0  0  0  0  0  0  0  0  0
  -22.7420  -12.1230   22.4860 H   0  0  0  0  0  0  0  0  0  0  0  0
  -21.4450  -13.2810   22.4010 H   0  0  0  0  0  0  0  0  0  0  0  0
  -25.6430  -15.3790   20.3180 N   0  0  0  0  0  0  0  0  0  0  0  0
  -24.8990  -16.0410   20.5160 H   0  0  0  0  0  0  0  0  0  0  0  0
  -26.4900  -15.8190   19.9830 H   0  0  0  0  0  0  0  0  0  0  0  0
  -28.7500  -25.4860   19.1320 C   0  0  0  0  0  2  0  0  0  0  0  0
  -28.5580  -26.6510   20.0320 O   0  0  0  0  0  0  0  0  0  0  0  0
  -24.5420  -31.8240   23.1100 C   0  0  0  0  0  0  0  0  0  0  0  0
  -27.4000  -27.4540   19.9620 C   0  0  0  0  0  0  0  0  0  0  0  0
  -23.4280  -30.4180   21.4180 C   0  0  0  0  0  3  0  0  0  0  0  0
  -24.9640  -28.9780   19.9730 C   0  0  0  0  0  0  0  0  0  0  0  0
  -25.9570  -30.8480   21.2850 C   0  0  0  0  0  2  0  0  0  0  0  0
  -26.1050  -29.4930   20.5990 C   0  0  0  0  0  0  0  0  0  0  0  0
  -27.3210  -28.7410   20.5900 C   0  0  0  0  0  3  0  0  0  0  0  0
  -26.2170  -26.9920   19.3360 C   0  0  0  0  0  3  0  0  0  0  0  0
  -25.0230  -27.7330   19.3380 C   0  0  0  0  0  3  0  0  0  0  0  0
  -23.6910  -29.7960   20.0230 C   0  0  0  0  0  2  0  0  0  0  0  0
  -24.6600  -31.0470   21.9940 N   0  0  0  0  0  0  0  0  0  0  0  0
  -23.4390  -32.0390   23.6330 O   0  0  0  0  0  0  0  0  0  0  0  0
  -22.7990  -29.3450   22.3380 C   0  0  0  0  0  0  0  0  0  0  0  0
  -21.4730  -29.1510   22.2230 N   0  0  0  0  0  0  0  0  0  0  0  0
  -23.5000  -28.6930   23.1160 O   0  0  0  0  0  0  0  0  0  0  0  0
  -20.9640  -29.7310   21.5710 H   0  0  0  0  0  0  0  0  0  0  0  0
  -18.1120  -27.9360   22.7830 C   0  0  0  0  0  0  0  0  0  0  0  0
  -20.6810  -28.1670   22.9620 C   0  0  0  0  0  3  0  0  0  0  0  0
  -20.7500  -26.7770   22.2880 C   0  0  0  0  0  2  0  0  0  0  0  0
  -19.6050  -26.5270   21.3020 C   0  0  0  0  0  2  0  0  0  0  0  0
  -18.2510  -26.6350   22.0110 C   0  0  0  0  0  2  0  0  0  0  0  0
  -19.2520  -28.6630   23.2150 C   0  0  0  0  0  0  0  0  0  0  0  0
  -19.0660  -29.8850   23.8990 C   0  0  0  0  0  3  0  0  0  0  0  0
  -17.7730  -30.3780   24.1530 C   0  0  0  0  0  3  0  0  0  0  0  0
  -16.6480  -29.6460   23.7360 C   0  0  0  0  0  3  0  0  0  0  0  0
  -16.8180  -28.4270   23.0560 C   0  0  0  0  0  3  0  0  0  0  0  0
  -25.7850  -32.4970   23.7690 C   0  0  0  0  0  3  0  0  0  0  0  0
  -26.2900  -31.7380   25.0580 C   0  0  1  0  0  0  0  0  0  0  0  0
  -25.1750  -31.4570   26.0910 C   0  0  0  0  0  1  0  0  0  0  0  0
  -26.9350  -30.3840   24.6790 C   0  0  0  0  0  1  0  0  0  0  0  0
  -27.3900  -32.5700   25.7570 C   0  0  0  0  0  1  0  0  0  0  0  0
  -25.4180  -33.8820   24.0960 N   0  0  0  0  0  0  0  0  0  0  0  0
  -25.7470  -34.9520   23.3590 C   0  0  0  0  0  0  0  0  0  0  0  0
  -26.4610  -34.8770   22.3550 O   0  0  0  0  0  0  0  0  0  0  0  0
  -24.7870  -34.0110   24.8730 H   0  0  0  0  0  0  0  0  0  0  0  0
  -23.9950  -36.7050   22.9330 C   0  0  0  0  0  1  0  0  0  0  0  0
  -25.1990  -36.3210   23.8060 C   0  0  0  0  0  3  0  0  0  0  0  0
  -27.2550  -37.2530   24.7720 C   0  0  0  0  0  1  0  0  0  0  0  0
  -26.2090  -37.4020   23.7640 N   0  0  0  0  0  0  0  0  0  0  0  0
  -25.7700  -38.3090   23.8940 H   0  0  0  0  0  0  0  0  0  0  0  0
  1  5  1  0
  1  2  1  0
  2  6  1  0
  3  7  1  0
  3  1  2  0
  4 11  1  0
  4  2  2  0
  7  4  1  0
  9 10  1  0
 10  7  1  0
 10  8  1  0
 12 11  1  0
 13 26  1  0
 14 19  1  0
 15 16  1  0
 15 14  1  0
 17 16  1  0
 17 30  1  0
 17 18  1  0
 19 13  1  0
 19 18  1  0
 20 13  2  0
 21 25  1  0
 23 21  1  0
 23 26  1  0
 24 22  1  0
 25 11  1  0
 25 22  1  0
 26 24  1  0
 27 28  2  0
 28 47  1  0
 29 28  1  0
 29 32  1  0
 30 31  1  0
 30 27  1  0
 31 29  2  0
 32 33  1  0
 33 34  2  0
 35 38  1  0
 35 34  1  0
 36 35  2  0
 37 36  1  0
 37 32  2  0
 38 39  1  0
 39 44  2  0
 39 40  1  0
 40 41  2  0
 41 42  1  0
 42 46  1  0
 43 42  2  0
 44 43  1  0
 45 44  1  0
 47 48  1  0
 48 51  1  0
 48 50  1  0
 49 47  2  0
 52 27  1  0
 52 53  1  0
 54 52  1  0
 55  3  1  0
 55 56  1  0
 57 68  2  0
 58 56  1  0
 58 63  1  0
 59 67  1  0
 59 69  1  0
 60 66  1  0
 60 62  1  0
 61 67  1  0
 62 61  1  0
 63 62  2  0
 64 65  1  0
 64 58  2  0
 65 60  2  0
 66 59  1  0
 67 57  1  0
 69 71  2  0
 70 69  1  0
 72 70  1  0
 73 82  2  0
 73 78  1  0
 74 70  1  0
 74 78  1  0
 75 74  1  0
 76 77  1  0
 76 75  1  0
 77 73  1  0
 78 79  2  0
 79 80  1  0
 81 80  2  0
 82 81  1  0
 83 57  1  0
 83 88  1  0
 83 84  1  0
 84 87  1  1
 84 85  1  0
 86 84  1  0
 88 91  1  0
 89 93  1  0
 89 88  1  0
 90 89  2  0
 93 92  1  0
 95 93  1  0
 95 96  1  0
 95 94  1  0
M  ISO  4  13 100  26 100  55 101  56 101
M  END
>  <TORSDO>  (93) 
F 19

>  <SCORE>  (93) 
-13.745

>  <name>  (93) 
93

>  <ligand_id>  (93) 
93

>  <original_smiles>  (93) 
[H]c1c([H])c([H])c2c(c1[H])C([H])([H])C([H])([H])C([H])([H])C2([H])N([H])C(=O)C1([H])N(C(=O)C([H])(N([H])C(=O)C([H])(N([H])C([H])([H])[H])C([H])([H])[H])C(C([H])([H])[H])(C([H])([H])[H])C([H])([H])[H])C([H])([H])c2c([H])c(OC([H])([H])c3c(C([H])([H])[H])c(C([H])([H])[H])c(N([H])C4([H])C([H])([H])C([H])([H])N(C(=O)N5C([H])([H])C([H])([H])C([H])([H])C([H])(n6nc(-c7c([H])c([H])c(Oc8c([H])c([H])c(F)c([H])c8F)c([H])c7[H])c(C(=O)N([H])[H])c6N([H])[H])C5([H])[H])C([H])([H])C4([H])[H])n3C([H])(C([H])([H])[H])C([H])([H])[H])c([H])c([H])c2C1([H])[H]

>  <smiles>  (93) 
[H]c1c([H])c([H])c2c(c1[H])C([H])([H])C([H])([H])C([H])([H])C2([H])N([H])C(=O)C1([H])N(C(=O)C([H])(N([H])C(=O)C([H])(N([H])C([H])([H])[H])C([H])([H])[H])C(C([H])([H])[H])(C([H])([H])[H])C([H])([H])[H])C([H])([H])c2c([H])c(OC([H])([H])c3c(C([H])([H])[H])c(C([H])([H])[H])c(N([H])C4([H])C([H])([H])C([H])([H])N(C(=O)N5C([H])([H])C([H])([H])C([H])([H])C([H])(n6nc(-c7c([H])c([H])c(Oc8c([H])c([H])c(F)c([H])c8F)c([H])c7[H])c(C(=O)N([H])[H])c6N([H])[H])C5([H])[H])C([H])([H])C4([H])[H])n3C([H])(C([H])([H])[H])C([H])([H])[H])c([H])c([H])c2C1([H])[H]

$$$$
94:0:0
     RDKit          3D

100110  0  0  1  0  0  0  0  0999 V2000
  -29.4390  -24.7820   17.1160 C   0  0  0  0  0  3  0  0  0  0  0  0
  -29.0800  -25.0530   18.4510 C   0  0  0  0  0  0  0  0  0  0  0  0
  -29.8170  -23.4960   16.7050 C   0  0  0  0  0  0  0  0  0  0  0  0
  -29.0270  -23.9800   19.3920 C   0  0  0  0  0  0  0  0  0  0  0  0
  -29.3580  -22.6640   18.9580 C   0  0  0  0  0  0  0  0  0  0  0  0
  -29.8410  -22.4460   17.6440 C   0  0  0  0  0  0  0  0  0  0  0  0
  -30.1830  -23.2610   15.2500 C   0  0  0  0  0  1  0  0  0  0  0  0
  -28.6660  -24.2310   20.8570 C   0  0  0  0  0  1  0  0  0  0  0  0
  -29.2050  -21.4670   19.8870 C   0  0  0  0  0  1  0  0  0  0  0  0
  -28.8290  -26.5330   18.7560 C   0  0  0  0  0  2  0  0  0  0  0  0
  -28.3360  -26.8520   20.0500 O   0  0  0  0  0  0  0  0  0  0  0  0
  -24.5350  -31.9490   23.2000 C   0  0  0  0  0  0  0  0  0  0  0  0
  -27.1530  -27.5440   20.0770 C   0  0  0  0  0  0  0  0  0  0  0  0
  -23.3080  -30.5460   21.5680 C   0  0  0  0  0  3  0  0  0  0  0  0
  -24.7480  -29.0080   20.1300 C   0  0  0  0  0  0  0  0  0  0  0  0
  -25.8250  -30.9150   21.3380 C   0  0  0  0  0  2  0  0  0  0  0  0
  -25.9060  -29.5410   20.7090 C   0  0  0  0  0  0  0  0  0  0  0  0
  -27.1100  -28.8080   20.6960 C   0  0  0  0  0  3  0  0  0  0  0  0
  -25.9810  -27.0040   19.5060 C   0  0  0  0  0  3  0  0  0  0  0  0
  -24.7760  -27.7330   19.5330 C   0  0  0  0  0  3  0  0  0  0  0  0
  -23.5010  -29.8620   20.1880 C   0  0  0  0  0  2  0  0  0  0  0  0
  -24.5750  -31.1510   22.0950 N   0  0  0  0  0  0  0  0  0  0  0  0
  -23.4610  -32.2220   23.7510 O   0  0  0  0  0  0  0  0  0  0  0  0
  -22.6700  -29.5250   22.5350 C   0  0  0  0  0  0  0  0  0  0  0  0
  -21.3430  -29.3500   22.4250 N   0  0  0  0  0  0  0  0  0  0  0  0
  -23.3620  -28.8960   23.3400 O   0  0  0  0  0  0  0  0  0  0  0  0
  -20.8460  -29.9100   21.7470 H   0  0  0  0  0  0  0  0  0  0  0  0
  -17.9730  -28.1650   22.9560 C   0  0  0  0  0  0  0  0  0  0  0  0
  -20.5340  -28.4140   23.2030 C   0  0  0  0  0  3  0  0  0  0  0  0
  -20.6260  -26.9830   22.6240 C   0  0  0  0  0  2  0  0  0  0  0  0
  -19.5130  -26.6650   21.6200 C   0  0  0  0  0  2  0  0  0  0  0  0
  -18.1380  -26.8160   22.2770 C   0  0  0  0  0  2  0  0  0  0  0  0
  -19.0980  -28.9220   23.3770 C   0  0  0  0  0  0  0  0  0  0  0  0
  -18.8900  -30.1860   23.9690 C   0  0  0  0  0  3  0  0  0  0  0  0
  -17.5900  -30.6930   24.1470 C   0  0  0  0  0  3  0  0  0  0  0  0
  -16.4800  -29.9310   23.7440 C   0  0  0  0  0  3  0  0  0  0  0  0
  -16.6720  -28.6710   23.1530 C   0  0  0  0  0  3  0  0  0  0  0  0
  -25.8320  -32.5750   23.8060 C   0  0  0  0  0  3  0  0  0  0  0  0
  -26.3670  -31.7960   25.0690 C   0  0  1  0  0  0  0  0  0  0  0  0
  -25.2880  -31.5470   26.1490 C   0  0  0  0  0  1  0  0  0  0  0  0
  -26.9470  -30.4230   24.6550 C   0  0  0  0  0  1  0  0  0  0  0  0
  -27.5240  -32.5870   25.7240 C   0  0  0  0  0  1  0  0  0  0  0  0
  -25.5280  -33.9720   24.1440 N   0  0  0  0  0  0  0  0  0  0  0  0
  -25.8710  -35.0270   23.3950 C   0  0  0  0  0  0  0  0  0  0  0  0
  -26.5450  -34.9300   22.3670 O   0  0  0  0  0  0  0  0  0  0  0  0
  -24.9260  -34.1240   24.9400 H   0  0  0  0  0  0  0  0  0  0  0  0
  -24.1580  -36.8350   23.0340 C   0  0  0  0  0  1  0  0  0  0  0  0
  -25.3830  -36.4130   23.8600 C   0  0  0  0  0  3  0  0  0  0  0  0
  -27.5130  -37.2680   24.7320 C   0  0  0  0  0  1  0  0  0  0  0  0
  -26.4250  -37.4610   23.7770 N   0  0  0  0  0  0  0  0  0  0  0  0
  -26.0230  -38.3800   23.9380 H   0  0  0  0  0  0  0  0  0  0  0  0
  -30.3330  -21.2160   17.2830 O   0  0  0  0  0  0  0  0  0  0  0  0
  -32.2260  -20.2100   16.2000 C   0  0  0  0  0  2  0  0  0  0  0  0
  -31.9050  -18.8250   16.7560 C   0  0  0  0  0  2  0  0  0  0  0  0
  -32.1970  -20.3410   18.5700 C   0  0  0  0  0  2  0  0  0  0  0  0
  -31.7640  -21.1220   17.3230 C   0  0  0  0  0  3  0  0  0  0  0  0
  -32.0770  -18.8970   18.2350 N   0  0  1  0  0  4  0  0  0  0  0  0
  -32.9730  -18.4730   18.4390 H   0  0  0  0  0  0  0  0  0  0  0  0
  -30.8180  -14.7630   20.9900 C   0  0  0  0  0  0  0  0  0  0  0  0
  -30.6390  -12.4860   20.1130 C   0  0  0  0  0  2  0  0  0  0  0  0
  -29.8390  -12.5180   18.7960 C   0  0  0  0  0  2  0  0  0  0  0  0
  -28.3150  -12.4620   19.0630 C   0  0  0  0  0  2  0  0  0  0  0  0
  -27.8220  -13.3650   20.2320 C   0  0  0  0  0  3  0  0  0  0  0  0
  -28.7830  -13.3280   21.4420 C   0  0  0  0  0  2  0  0  0  0  0  0
  -30.1470  -13.5820   20.9510 N   0  0  0  0  0  0  0  0  0  0  0  0
  -32.0470  -14.8420   20.9430 O   0  0  0  0  0  0  0  0  0  0  0  0
  -31.4500  -17.9980   20.5320 C   0  0  0  0  0  2  0  0  0  0  0  0
  -30.6920  -16.7760   18.4800 C   0  0  0  0  0  2  0  0  0  0  0  0
  -30.4200  -17.1700   21.3600 C   0  0  0  0  0  2  0  0  0  0  0  0
  -29.6160  -16.1210   19.3570 C   0  0  0  0  0  2  0  0  0  0  0  0
  -31.0450  -18.1670   19.0410 C   0  0  0  0  0  3  0  0  0  0  0  0
  -30.0880  -15.8780   20.7330 N   0  0  0  0  0  0  0  0  0  0  0  0
  -25.3660  -13.9490   20.6950 C   0  0  0  0  0  0  0  0  0  0  0  0
  -24.2780  -13.1690   20.9690 C   0  0  0  0  0  0  0  0  0  0  0  0
  -24.7610  -11.8250   21.0230 C   0  0  0  0  0  0  0  0  0  0  0  0
  -26.4410  -13.0770   20.5980 N   0  0  0  0  0  0  0  0  0  0  0  0
  -26.0760  -11.7980   20.8550 N   0  0  0  0  0  0  0  0  0  0  0  0
  -24.0430  -10.5550   21.1670 C   0  0  0  0  0  0  0  0  0  0  0  0
  -24.4090   -9.6100   22.1500 C   0  0  0  0  0  3  0  0  0  0  0  0
  -23.6910   -8.4040   22.2840 C   0  0  0  0  0  3  0  0  0  0  0  0
  -22.5940   -8.1330   21.4310 C   0  0  0  0  0  0  0  0  0  0  0  0
  -22.2490   -9.0670   20.4390 C   0  0  0  0  0  3  0  0  0  0  0  0
  -22.9680  -10.2660   20.3040 C   0  0  0  0  0  3  0  0  0  0  0  0
  -21.8540   -6.9760   21.4730 O   0  0  0  0  0  0  0  0  0  0  0  0
  -21.7280   -6.2430   22.6250 C   0  0  0  0  0  0  0  0  0  0  0  0
  -21.1970   -6.8020   23.8090 C   0  0  0  0  0  3  0  0  0  0  0  0
  -21.0200   -5.9950   24.9500 C   0  0  0  0  0  3  0  0  0  0  0  0
  -21.3640   -4.6300   24.9090 C   0  0  0  0  0  0  0  0  0  0  0  0
  -21.8880   -4.0710   23.7310 C   0  0  0  0  0  3  0  0  0  0  0  0
  -22.0660   -4.8750   22.5910 C   0  0  0  0  0  0  0  0  0  0  0  0
  -22.5510   -4.3260   21.4510 F   0  0  0  0  0  0  0  0  0  0  0  0
  -21.1860   -3.8540   26.0050 F   0  0  0  0  0  0  0  0  0  0  0  0
  -22.8530  -13.6270   21.0790 C   0  0  0  0  0  0  0  0  0  0  0  0
  -22.0500  -12.9400   21.8830 N   0  0  0  0  0  0  0  0  0  0  0  0
  -22.4560  -14.6310   20.4890 O   0  0  0  0  0  0  0  0  0  0  0  0
  -22.3760  -12.1240   22.3810 H   0  0  0  0  0  0  0  0  0  0  0  0
  -21.0910  -13.2320   22.0040 H   0  0  0  0  0  0  0  0  0  0  0  0
  -25.5240  -15.3200   20.4980 N   0  0  0  0  0  0  0  0  0  0  0  0
  -24.7420  -15.9660   20.5090 H   0  0  0  0  0  0  0  0  0  0  0  0
  -26.4090  -15.7740   20.3040 H   0  0  0  0  0  0  0  0  0  0  0  0
  1  2  1  0
  2 10  1  0
  2  4  2  0
  3  1  2  0
  3  6  1  0
  4  8  1  0
  5  4  1  0
  5  9  1  0
  6  5  2  0
  7  3  1  0
 10 11  1  0
 11 13  1  0
 12 23  2  0
 13 18  1  0
 14 22  1  0
 14 24  1  0
 15 21  1  0
 15 17  1  0
 16 22  1  0
 17 16  1  0
 18 17  2  0
 19 20  1  0
 19 13  2  0
 20 15  2  0
 21 14  1  0
 22 12  1  0
 24 26  2  0
 25 24  1  0
 27 25  1  0
 28 37  2  0
 28 33  1  0
 29 25  1  0
 29 33  1  0
 30 29  1  0
 31 32  1  0
 31 30  1  0
 32 28  1  0
 33 34  2  0
 34 35  1  0
 36 35  2  0
 37 36  1  0
 38 12  1  0
 38 43  1  0
 38 39  1  0
 39 42  1  1
 39 40  1  0
 41 39  1  0
 43 46  1  0
 44 48  1  0
 44 43  1  0
 45 44  2  0
 48 47  1  0
 50 48  1  0
 50 51  1  0
 50 49  1  0
 52  6  1  0
 53 54  1  0
 53 56  1  0
 54 57  1  0
 56 52  1  0
 56 55  1  0
 57 58  1  6
 57 55  1  0
 57 71  1  0
 60 65  1  0
 61 62  1  0
 61 60  1  0
 63 62  1  0
 63 76  1  0
 63 64  1  0
 65 59  1  0
 65 64  1  0
 66 59  2  0
 67 69  1  0
 68 70  1  0
 70 72  1  0
 71 68  1  0
 71 67  1  0
 72 59  1  0
 72 69  1  0
 73 74  2  0
 74 75  1  0
 74 93  1  0
 75 78  1  0
 76 73  1  0
 76 77  1  0
 77 75  2  0
 78 79  1  0
 79 80  2  0
 81 84  1  0
 81 80  1  0
 82 81  2  0
 83 82  1  0
 83 78  2  0
 84 85  1  0
 85 86  1  0
 86 87  2  0
 88 87  1  0
 88 92  1  0
 89 88  2  0
 90 85  2  0
 90 89  1  0
 91 90  1  0
 93 94  1  0
 94 97  1  0
 94 96  1  0
 95 93  2  0
 98 99  1  0
 98 73  1  0
100 98  1  0
M  ISO  4  10 101  11 101  59 100  72 100
M  END
>  <TORSDO>  (94) 
F 19

>  <SCORE>  (94) 
-14.172

>  <name>  (94) 
94

>  <ligand_id>  (94) 
94

>  <original_smiles>  (94) 
[H]c1c([H])c([H])c2c(c1[H])C([H])([H])C([H])([H])C([H])([H])C2([H])N([H])C(=O)C1([H])N(C(=O)C([H])(N([H])C(=O)C([H])(N([H])C([H])([H])[H])C([H])([H])[H])C(C([H])([H])[H])(C([H])([H])[H])C([H])([H])[H])C([H])([H])c2c([H])c(OC([H])([H])c3c([H])c(C([H])([H])[H])c(OC4([H])C([H])([H])C([H])([H])[N+]([H])(C5([H])C([H])([H])C([H])([H])N(C(=O)N6C([H])([H])C([H])([H])C([H])([H])C([H])(n7nc(-c8c([H])c([H])c(Oc9c([H])c([H])c(F)c([H])c9F)c([H])c8[H])c(C(=O)N([H])[H])c7N([H])[H])C6([H])[H])C([H])([H])C5([H])[H])C4([H])[H])c(C([H])([H])[H])c3C([H])([H])[H])c([H])c([H])c2C1([H])[H]

>  <smiles>  (94) 
[H]c1c([H])c([H])c2c(c1[H])C([H])([H])C([H])([H])C([H])([H])C2([H])N([H])C(=O)C1([H])N(C(=O)C([H])(N([H])C(=O)C([H])(N([H])C([H])([H])[H])C([H])([H])[H])C(C([H])([H])[H])(C([H])([H])[H])C([H])([H])[H])C([H])([H])c2c([H])c(OC([H])([H])c3c([H])c(C([H])([H])[H])c(OC4([H])C([H])([H])C([H])([H])[N+]([H])(C5([H])C([H])([H])C([H])([H])N(C(=O)N6C([H])([H])C([H])([H])C([H])([H])C([H])(n7nc(-c8c([H])c([H])c(Oc9c([H])c([H])c(F)c([H])c9F)c([H])c8[H])c(C(=O)N([H])[H])c7N([H])[H])C6([H])[H])C([H])([H])C5([H])[H])C4([H])[H])c(C([H])([H])[H])c3C([H])([H])[H])c([H])c([H])c2C1([H])[H]

$$$$
95:0:0
     RDKit          3D

 99108  0  0  1  0  0  0  0  0999 V2000
  -30.2770  -22.6390   18.9320 C   0  0  0  0  0  0  0  0  0  0  0  0
  -31.3650  -23.3300   18.3210 C   0  0  0  0  0  0  0  0  0  0  0  0
  -30.3020  -21.2000   18.9220 C   0  0  0  0  0  0  0  0  0  0  0  0
  -32.4170  -22.5810   17.7530 C   0  0  0  0  0  0  0  0  0  0  0  0
  -31.3430  -20.5740   18.1810 C   0  0  0  0  0  0  0  0  0  0  0  0
  -31.4310  -24.8570   18.2330 C   0  0  0  0  0  1  0  0  0  0  0  0
  -33.6470  -23.2280   17.1440 C   0  0  0  0  0  1  0  0  0  0  0  0
  -31.3590  -19.0980   17.8070 C   0  0  0  0  0  1  0  0  0  0  0  0
  -32.3830  -21.2450   17.6610 N   0  0  0  0  0  0  0  0  0  0  0  0
  -29.0750  -23.4640   19.4550 C   0  0  0  0  0  3  0  0  0  0  0  0
  -29.3550  -24.4190   20.6530 C   0  0  0  0  0  3  0  0  0  0  0  0
  -28.2400  -25.4680   20.9340 C   0  0  0  0  0  2  0  0  0  0  0  0
  -28.3600  -26.7050   20.1970 O   0  0  0  0  0  0  0  0  0  0  0  0
  -24.5930  -31.9050   23.3410 C   0  0  0  0  0  0  0  0  0  0  0  0
  -27.2160  -27.4820   20.2050 C   0  0  0  0  0  0  0  0  0  0  0  0
  -23.3810  -30.5360   21.6770 C   0  0  0  0  0  3  0  0  0  0  0  0
  -24.8290  -29.0110   20.2290 C   0  0  0  0  0  0  0  0  0  0  0  0
  -25.9090  -30.8820   21.4840 C   0  0  0  0  0  2  0  0  0  0  0  0
  -25.9910  -29.5190   20.8250 C   0  0  0  0  0  0  0  0  0  0  0  0
  -27.1910  -28.7650   20.8050 C   0  0  0  0  0  3  0  0  0  0  0  0
  -26.0390  -26.9950   19.5980 C   0  0  0  0  0  3  0  0  0  0  0  0
  -24.8500  -27.7470   19.6110 C   0  0  0  0  0  3  0  0  0  0  0  0
  -23.5890  -29.8750   20.2880 C   0  0  0  0  0  2  0  0  0  0  0  0
  -24.6460  -31.1210   22.2260 N   0  0  0  0  0  0  0  0  0  0  0  0
  -23.5130  -32.1750   23.8840 O   0  0  0  0  0  0  0  0  0  0  0  0
  -22.7210  -29.5050   22.6220 C   0  0  0  0  0  0  0  0  0  0  0  0
  -21.3970  -29.3250   22.4840 N   0  0  0  0  0  0  0  0  0  0  0  0
  -23.3990  -28.8690   23.4340 O   0  0  0  0  0  0  0  0  0  0  0  0
  -20.9120  -29.8900   21.8010 H   0  0  0  0  0  0  0  0  0  0  0  0
  -18.0210  -28.1170   22.9370 C   0  0  0  0  0  0  0  0  0  0  0  0
  -20.5750  -28.3790   23.2380 C   0  0  0  0  0  3  0  0  0  0  0  0
  -20.6870  -26.9530   22.6500 C   0  0  0  0  0  2  0  0  0  0  0  0
  -19.5960  -26.6380   21.6220 C   0  0  0  0  0  2  0  0  0  0  0  0
  -18.2070  -26.7740   22.2520 C   0  0  0  0  0  2  0  0  0  0  0  0
  -19.1330  -28.8780   23.3860 C   0  0  0  0  0  0  0  0  0  0  0  0
  -18.9050  -30.1360   23.9850 C   0  0  0  0  0  3  0  0  0  0  0  0
  -17.5970  -30.6330   24.1390 C   0  0  0  0  0  3  0  0  0  0  0  0
  -16.5000  -29.8690   23.7060 C   0  0  0  0  0  3  0  0  0  0  0  0
  -16.7120  -28.6130   23.1110 C   0  0  0  0  0  3  0  0  0  0  0  0
  -25.8810  -32.5200   23.9710 C   0  0  0  0  0  3  0  0  0  0  0  0
  -25.5790  -33.9130   24.3230 N   0  0  0  0  0  0  0  0  0  0  0  0
  -25.9100  -34.9760   23.5760 C   0  0  0  0  0  0  0  0  0  0  0  0
  -26.5730  -34.8840   22.5380 O   0  0  0  0  0  0  0  0  0  0  0  0
  -24.9890  -34.0590   25.1300 H   0  0  0  0  0  0  0  0  0  0  0  0
  -24.1790  -36.7720   23.2650 C   0  0  0  0  0  1  0  0  0  0  0  0
  -25.4310  -36.3590   24.0550 C   0  0  0  0  0  3  0  0  0  0  0  0
  -27.5800  -37.2310   24.8630 C   0  0  0  0  0  1  0  0  0  0  0  0
  -26.4630  -37.4130   23.9380 N   0  0  0  0  0  0  0  0  0  0  0  0
  -26.0620  -38.3310   24.1040 H   0  0  0  0  0  0  0  0  0  0  0  0
  -26.3960  -31.7240   25.2320 C   0  0  1  0  0  0  0  0  0  0  0  0
  -25.3030  -31.4740   26.2980 C   0  0  0  0  0  1  0  0  0  0  0  0
  -26.9690  -30.3510   24.8130 C   0  0  0  0  0  1  0  0  0  0  0  0
  -27.5520  -32.5000   25.9050 C   0  0  0  0  0  1  0  0  0  0  0  0
  -29.1950  -20.3510   19.6050 C   0  0  0  0  0  2  0  0  0  0  0  0
  -28.9800  -17.9130   20.2670 C   0  0  0  0  0  0  0  0  0  0  0  0
  -30.6020  -19.1300   21.3910 C   0  0  0  0  0  2  0  0  0  0  0  0
  -29.5250  -17.0000   21.3610 C   0  0  0  0  0  3  0  0  0  0  0  0
  -30.8660  -17.6400   21.7310 C   0  0  0  0  0  3  0  0  0  0  0  0
  -31.3100  -17.4020   23.1800 C   0  0  0  0  0  1  0  0  0  0  0  0
  -29.5840  -19.1190   20.3330 N   0  0  0  0  0  0  0  0  0  0  0  0
  -28.0880  -17.5690   19.4870 O   0  0  0  0  0  0  0  0  0  0  0  0
  -30.1940  -14.6420   20.5070 C   0  0  0  0  0  0  0  0  0  0  0  0
  -30.0330  -12.4660   19.3370 C   0  0  0  0  0  2  0  0  0  0  0  0
  -29.0610  -12.6030   18.1450 C   0  0  0  0  0  2  0  0  0  0  0  0
  -27.6010  -12.3860   18.5960 C   0  0  0  0  0  2  0  0  0  0  0  0
  -27.2350  -13.2150   19.8560 C   0  0  0  0  0  3  0  0  0  0  0  0
  -28.3070  -13.0280   20.9520 C   0  0  0  0  0  2  0  0  0  0  0  0
  -29.6110  -13.4180   20.3770 N   0  0  0  0  0  0  0  0  0  0  0  0
  -31.2730  -14.9300   19.9810 O   0  0  0  0  0  0  0  0  0  0  0  0
  -29.4340  -15.5390   21.1590 N   0  0  0  0  0  0  0  0  0  0  0  0
  -28.5710  -15.1450   21.4990 H   0  0  0  0  0  0  0  0  0  0  0  0
  -24.8210  -13.7300   20.5900 C   0  0  0  0  0  0  0  0  0  0  0  0
  -23.7870  -12.9140   20.9670 C   0  0  0  0  0  0  0  0  0  0  0  0
  -24.3000  -11.5820   20.9230 C   0  0  0  0  0  0  0  0  0  0  0  0
  -25.8970  -12.8900   20.3430 N   0  0  0  0  0  0  0  0  0  0  0  0
  -25.5860  -11.5940   20.5980 N   0  0  0  0  0  0  0  0  0  0  0  0
  -23.6270  -10.2900   21.1130 C   0  0  0  0  0  0  0  0  0  0  0  0
  -24.1240   -9.3270   22.0180 C   0  0  0  0  0  3  0  0  0  0  0  0
  -23.4500   -8.0990   22.1980 C   0  0  0  0  0  3  0  0  0  0  0  0
  -22.2660   -7.8270   21.4720 C   0  0  0  0  0  0  0  0  0  0  0  0
  -21.7890   -8.7810   20.5550 C   0  0  0  0  0  3  0  0  0  0  0  0
  -22.4640  -10.0000   20.3740 C   0  0  0  0  0  3  0  0  0  0  0  0
  -21.5590   -6.6520   21.5610 O   0  0  0  0  0  0  0  0  0  0  0  0
  -21.5970   -5.8750   22.6910 C   0  0  0  0  0  0  0  0  0  0  0  0
  -21.2230   -6.3790   23.9550 C   0  0  0  0  0  3  0  0  0  0  0  0
  -21.2090   -5.5270   25.0770 C   0  0  0  0  0  3  0  0  0  0  0  0
  -21.5590   -4.1700   24.9360 C   0  0  0  0  0  0  0  0  0  0  0  0
  -21.9270   -3.6650   23.6770 C   0  0  0  0  0  3  0  0  0  0  0  0
  -21.9430   -4.5150   22.5570 C   0  0  0  0  0  0  0  0  0  0  0  0
  -22.2780   -4.0190   21.3420 F   0  0  0  0  0  0  0  0  0  0  0  0
  -21.5380   -3.3490   26.0120 F   0  0  0  0  0  0  0  0  0  0  0  0
  -22.3750  -13.3340   21.2570 C   0  0  0  0  0  0  0  0  0  0  0  0
  -21.6880  -12.6110   22.1350 N   0  0  0  0  0  0  0  0  0  0  0  0
  -21.8870  -14.3390   20.7420 O   0  0  0  0  0  0  0  0  0  0  0  0
  -22.0970  -11.8010   22.5770 H   0  0  0  0  0  0  0  0  0  0  0  0
  -20.7420  -12.8740   22.3710 H   0  0  0  0  0  0  0  0  0  0  0  0
  -24.9320  -15.1060   20.4210 N   0  0  0  0  0  0  0  0  0  0  0  0
  -24.1430  -15.7310   20.5440 H   0  0  0  0  0  0  0  0  0  0  0  0
  -25.7630  -15.5850   20.0920 H   0  0  0  0  0  0  0  0  0  0  0  0
  1 10  1  0
  2  1  2  0
  3  1  1  0
  3 54  1  0
  4  2  1  0
  5  3  2  0
  6  2  1  0
  7  4  1  0
  8  5  1  0
  9  4  2  0
  9  5  1  0
 10 11  2  0
 11 12  1  0
 13 15  1  0
 13 12  1  0
 14 25  2  0
 15 20  1  0
 16 24  1  0
 16 26  1  0
 17 23  1  0
 17 19  1  0
 18 24  1  0
 19 18  1  0
 20 19  2  0
 21 22  1  0
 21 15  2  0
 22 17  2  0
 23 16  1  0
 24 14  1  0
 26 28  2  0
 27 26  1  0
 29 27  1  0
 30 39  2  0
 30 35  1  0
 31 27  1  0
 31 35  1  0
 32 31  1  0
 33 34  1  0
 33 32  1  0
 34 30  1  0
 35 36  2  0
 36 37  1  0
 38 37  2  0
 39 38  1  0
 40 14  1  0
 40 41  1  0
 40 50  1  0
 41 44  1  0
 42 46  1  0
 42 41  1  0
 43 42  2  0
 46 45  1  0
 48 46  1  0
 48 49  1  0
 48 47  1  0
 50 53  1  1
 50 51  1  0
 52 50  1  0
 54 60  1  0
 55 60  1  0
 55 57  1  0
 56 58  1  0
 57 70  1  0
 57 58  1  0
 58 59  1  0
 60 56  1  0
 61 55  2  0
 62 70  1  0
 63 68  1  0
 64 65  1  0
 64 63  1  0
 66 65  1  0
 66 75  1  0
 66 67  1  0
 68 62  1  0
 68 67  1  0
 69 62  2  0
 70 71  1  0
 72 73  2  0
 73 92  1  0
 74 73  1  0
 74 77  1  0
 75 72  1  0
 75 76  1  0
 76 74  2  0
 77 78  1  0
 78 79  2  0
 80 83  1  0
 80 79  1  0
 81 80  2  0
 82 81  1  0
 82 77  2  0
 83 84  1  0
 84 85  1  0
 85 86  2  0
 87 86  1  0
 87 91  1  0
 88 87  2  0
 89 84  2  0
 89 88  1  0
 90 89  1  0
 92 93  1  0
 93 96  1  0
 93 95  1  0
 94 92  2  0
 97 98  1  0
 97 72  1  0
 99 97  1  0
M  ISO  4  12 101  13 101  62 100  70 100
M  END
>  <TORSDO>  (95) 
F 21

>  <SCORE>  (95) 
-12.848

>  <name>  (95) 
95

>  <ligand_id>  (95) 
95

>  <original_smiles>  (95) 
[H]c1c([H])c([H])c2c(c1[H])C([H])([H])C([H])([H])C([H])([H])C2([H])N([H])C(=O)C1([H])N(C(=O)C([H])(N([H])C(=O)C([H])(N([H])C([H])([H])[H])C([H])([H])[H])C(C([H])([H])[H])(C([H])([H])[H])C([H])([H])[H])C([H])([H])c2c([H])c(OC([H])([H])C([H])([H])C([H])([H])c3c(C([H])([H])[H])c(C([H])([H])[H])nc(C([H])([H])[H])c3C([H])([H])N3C(=O)C([H])(N([H])C(=O)N4C([H])([H])C([H])([H])C([H])([H])C([H])(n5nc(-c6c([H])c([H])c(Oc7c([H])c([H])c(F)c([H])c7F)c([H])c6[H])c(C(=O)N([H])[H])c5N([H])[H])C4([H])[H])C([H])(C([H])([H])[H])C3([H])[H])c([H])c([H])c2C1([H])[H]

>  <smiles>  (95) 
[H]c1c([H])c([H])c2c(c1[H])C([H])([H])C([H])([H])C([H])([H])C2([H])N([H])C(=O)C1([H])N(C(=O)C([H])(N([H])C(=O)C([H])(N([H])C([H])([H])[H])C([H])([H])[H])C(C([H])([H])[H])(C([H])([H])[H])C([H])([H])[H])C([H])([H])c2c([H])c(OC([H])([H])C([H])([H])C([H])([H])c3c(C([H])([H])[H])c(C([H])([H])[H])nc(C([H])([H])[H])c3C([H])([H])N3C(=O)C([H])(N([H])C(=O)N4C([H])([H])C([H])([H])C([H])([H])C([H])(n5nc(-c6c([H])c([H])c(Oc7c([H])c([H])c(F)c([H])c7F)c([H])c6[H])c(C(=O)N([H])[H])c5N([H])[H])C4([H])[H])C([H])(C([H])([H])[H])C3([H])[H])c([H])c([H])c2C1([H])[H]

$$$$
96:0:0
     RDKit          3D

 94103  0  0  1  0  0  0  0  0999 V2000
  -30.3890  -21.5520   21.9060 C   0  0  0  0  0  3  0  0  0  0  0  0
  -28.4550  -21.8260   20.4830 C   0  0  0  0  0  3  0  0  0  0  0  0
  -29.2040  -19.5490   21.0800 C   0  0  0  0  0  0  0  0  0  0  0  0
  -29.4850  -22.3970   21.2460 C   0  0  0  0  0  0  0  0  0  0  0  0
  -30.2650  -20.1470   21.8320 C   0  0  0  0  0  0  0  0  0  0  0  0
  -28.3180  -20.4270   20.3830 C   0  0  0  0  0  0  0  0  0  0  0  0
  -31.3160  -19.3460   22.5760 C   0  0  0  0  0  1  0  0  0  0  0  0
  -27.1920  -19.9230   19.4880 C   0  0  0  0  0  1  0  0  0  0  0  0
  -31.2690  -14.4910   19.9500 C   0  0  0  0  0  0  0  0  0  0  0  0
  -30.8930  -12.2890   18.9230 C   0  0  0  0  0  2  0  0  0  0  0  0
  -29.8900  -12.4560   17.7620 C   0  0  0  0  0  2  0  0  0  0  0  0
  -28.4410  -12.3540   18.2750 C   0  0  0  0  0  2  0  0  0  0  0  0
  -28.1760  -13.2500   19.5180 C   0  0  0  0  0  3  0  0  0  0  0  0
  -29.2880  -13.0710   20.5760 C   0  0  0  0  0  2  0  0  0  0  0  0
  -30.5810  -13.3200   19.9210 N   0  0  0  0  0  0  0  0  0  0  0  0
  -32.3800  -14.6320   19.4240 O   0  0  0  0  0  0  0  0  0  0  0  0
  -29.1350  -17.4700   19.5210 C   0  0  0  0  0  2  0  0  0  0  0  0
  -29.5790  -17.0800   22.0540 C   0  0  0  0  0  2  0  0  0  0  0  0
  -30.3940  -16.6260   19.2790 C   0  0  0  0  0  2  0  0  0  0  0  0
  -30.7500  -16.1630   21.6240 C   0  0  0  0  0  2  0  0  0  0  0  0
  -28.9920  -18.0140   20.9590 C   0  0  0  0  0  3  0  0  0  0  0  0
  -30.5400  -15.5760   20.2960 N   0  0  0  0  0  0  0  0  0  0  0  0
  -25.8630  -13.9170   20.4260 C   0  0  0  0  0  0  0  0  0  0  0  0
  -24.7910  -13.1710   20.8380 C   0  0  0  0  0  0  0  0  0  0  0  0
  -25.1910  -11.8060   20.7140 C   0  0  0  0  0  0  0  0  0  0  0  0
  -26.8490  -13.0080   20.0800 N   0  0  0  0  0  0  0  0  0  0  0  0
  -26.4520  -11.7310   20.3100 N   0  0  0  0  0  0  0  0  0  0  0  0
  -24.4280  -10.5660   20.9020 C   0  0  0  0  0  0  0  0  0  0  0  0
  -24.8340   -9.5830   21.8330 C   0  0  0  0  0  3  0  0  0  0  0  0
  -24.0730   -8.4070   22.0100 C   0  0  0  0  0  3  0  0  0  0  0  0
  -22.8940   -8.2050   21.2550 C   0  0  0  0  0  0  0  0  0  0  0  0
  -22.5060   -9.1750   20.3150 C   0  0  0  0  0  3  0  0  0  0  0  0
  -23.2660  -10.3440   20.1370 C   0  0  0  0  0  3  0  0  0  0  0  0
  -22.1070   -7.0810   21.3400 O   0  0  0  0  0  0  0  0  0  0  0  0
  -21.9220   -6.4210   22.5280 C   0  0  0  0  0  0  0  0  0  0  0  0
  -21.4150   -7.0730   23.6730 C   0  0  0  0  0  3  0  0  0  0  0  0
  -21.1730   -6.3420   24.8520 C   0  0  0  0  0  3  0  0  0  0  0  0
  -21.4310   -4.9580   24.8880 C   0  0  0  0  0  0  0  0  0  0  0  0
  -21.9310   -4.3050   23.7480 C   0  0  0  0  0  3  0  0  0  0  0  0
  -22.1740   -5.0350   22.5710 C   0  0  0  0  0  0  0  0  0  0  0  0
  -22.6350   -4.3960   21.4680 F   0  0  0  0  0  0  0  0  0  0  0  0
  -21.1920   -4.2530   26.0180 F   0  0  0  0  0  0  0  0  0  0  0  0
  -23.4390  -13.6910   21.2320 C   0  0  0  0  0  0  0  0  0  0  0  0
  -22.7580  -13.0020   22.1410 N   0  0  0  0  0  0  0  0  0  0  0  0
  -22.9980  -14.7430   20.7690 O   0  0  0  0  0  0  0  0  0  0  0  0
  -23.1290  -12.1510   22.5380 H   0  0  0  0  0  0  0  0  0  0  0  0
  -21.8540  -13.3320   22.4470 H   0  0  0  0  0  0  0  0  0  0  0  0
  -26.0720  -15.2860   20.2990 N   0  0  0  0  0  0  0  0  0  0  0  0
  -25.3450  -15.9650   20.4960 H   0  0  0  0  0  0  0  0  0  0  0  0
  -26.9260  -15.7010   19.9510 H   0  0  0  0  0  0  0  0  0  0  0  0
  -29.6020  -23.9110   21.3520 C   0  0  0  0  0  2  0  0  0  0  0  0
  -29.4780  -24.6150   19.9910 C   0  0  0  0  0  2  0  0  0  0  0  0
  -29.4800  -26.1460   20.1060 C   0  0  0  0  0  2  0  0  0  0  0  0
  -28.9350  -26.6950   18.9100 O   0  0  0  0  0  0  0  0  0  0  0  0
  -25.0110  -31.0830   22.9000 C   0  0  0  0  0  0  0  0  0  0  0  0
  -27.7410  -27.3420   19.0890 C   0  0  0  0  0  0  0  0  0  0  0  0
  -23.8060  -29.8880   21.0980 C   0  0  0  0  0  3  0  0  0  0  0  0
  -25.2750  -28.6620   19.4110 C   0  0  0  0  0  0  0  0  0  0  0  0
  -26.2970  -30.4140   20.8780 C   0  0  0  0  0  2  0  0  0  0  0  0
  -26.4230  -29.1610   20.0380 C   0  0  0  0  0  0  0  0  0  0  0  0
  -27.6600  -28.5040   19.8830 C   0  0  0  0  0  3  0  0  0  0  0  0
  -26.5850  -26.8460   18.4570 C   0  0  0  0  0  3  0  0  0  0  0  0
  -25.3470  -27.4990   18.6220 C   0  0  0  0  0  3  0  0  0  0  0  0
  -23.9920  -29.4330   19.6250 C   0  0  0  0  0  2  0  0  0  0  0  0
  -25.0570  -30.4670   21.6860 N   0  0  0  0  0  0  0  0  0  0  0  0
  -23.9400  -31.2130   23.5110 O   0  0  0  0  0  0  0  0  0  0  0  0
  -23.2420  -28.7010   21.9110 C   0  0  0  0  0  0  0  0  0  0  0  0
  -21.9280  -28.4570   21.7780 N   0  0  0  0  0  0  0  0  0  0  0  0
  -23.9820  -28.0070   22.6140 O   0  0  0  0  0  0  0  0  0  0  0  0
  -21.3910  -29.0740   21.1860 H   0  0  0  0  0  0  0  0  0  0  0  0
  -18.6550  -26.9630   22.0940 C   0  0  0  0  0  0  0  0  0  0  0  0
  -21.1870  -27.3690   22.4150 C   0  0  0  0  0  3  0  0  0  0  0  0
  -21.3940  -26.0380   21.6580 C   0  0  0  0  0  2  0  0  0  0  0  0
  -20.3150  -25.7700   20.6040 C   0  0  0  0  0  2  0  0  0  0  0  0
  -18.9280  -25.7290   21.2510 C   0  0  0  0  0  2  0  0  0  0  0  0
  -19.7160  -27.7420   22.6280 C   0  0  0  0  0  0  0  0  0  0  0  0
  -19.4070  -28.9010   23.3740 C   0  0  0  0  0  3  0  0  0  0  0  0
  -18.0690  -29.2800   23.5940 C   0  0  0  0  0  3  0  0  0  0  0  0
  -17.0230  -28.4960   23.0770 C   0  0  0  0  0  3  0  0  0  0  0  0
  -17.3160  -27.3400   22.3320 C   0  0  0  0  0  3  0  0  0  0  0  0
  -26.2910  -31.6760   23.5690 C   0  0  0  0  0  3  0  0  0  0  0  0
  -26.9290  -30.7200   24.6480 C   0  0  1  0  0  0  0  0  0  0  0  0
  -25.9210  -30.2170   25.7080 C   0  0  0  0  0  1  0  0  0  0  0  0
  -27.5620  -29.4810   23.9740 C   0  0  0  0  0  1  0  0  0  0  0  0
  -28.0750  -31.4540   25.3860 C   0  0  0  0  0  1  0  0  0  0  0  0
  -25.9210  -32.9660   24.1670 N   0  0  0  0  0  0  0  0  0  0  0  0
  -26.1990  -34.1610   23.6290 C   0  0  0  0  0  0  0  0  0  0  0  0
  -26.8670  -34.2930   22.5990 O   0  0  0  0  0  0  0  0  0  0  0  0
  -25.3260  -32.9330   24.9830 H   0  0  0  0  0  0  0  0  0  0  0  0
  -24.3970  -35.9160   23.6140 C   0  0  0  0  0  1  0  0  0  0  0  0
  -25.6500  -35.4090   24.3460 C   0  0  0  0  0  3  0  0  0  0  0  0
  -27.7410  -36.1950   25.3670 C   0  0  0  0  0  1  0  0  0  0  0  0
  -26.6380  -36.5040   24.4600 N   0  0  0  0  0  0  0  0  0  0  0  0
  -26.1920  -37.3570   24.7840 H   0  0  0  0  0  0  0  0  0  0  0  0
  2  4  1  0
  3  5  2  0
  4 51  1  0
  4  1  2  0
  5  1  1  0
  5  7  1  0
  6  2  2  0
  6  3  1  0
  8  6  1  0
  9 22  1  0
 10 15  1  0
 11 12  1  0
 11 10  1  0
 13 12  1  0
 13 26  1  0
 13 14  1  0
 15  9  1  0
 15 14  1  0
 16  9  2  0
 17 21  1  0
 19 17  1  0
 19 22  1  0
 20 18  1  0
 21  3  1  0
 21 18  1  0
 22 20  1  0
 23 24  2  0
 24 43  1  0
 25 24  1  0
 25 28  1  0
 26 27  1  0
 26 23  1  0
 27 25  2  0
 28 29  1  0
 29 30  2  0
 31 34  1  0
 31 30  1  0
 32 31  2  0
 33 32  1  0
 33 28  2  0
 34 35  1  0
 35 40  2  0
 35 36  1  0
 36 37  2  0
 37 38  1  0
 38 42  1  0
 39 38  2  0
 40 39  1  0
 41 40  1  0
 43 44  1  0
 44 47  1  0
 44 46  1  0
 45 43  2  0
 48 23  1  0
 48 49  1  0
 50 48  1  0
 52 53  1  0
 52 51  1  0
 54 56  1  0
 54 53  1  0
 55 66  2  0
 56 61  1  0
 57 65  1  0
 57 67  1  0
 58 64  1  0
 58 60  1  0
 59 65  1  0
 60 59  1  0
 61 60  2  0
 62 63  1  0
 62 56  2  0
 63 58  2  0
 64 57  1  0
 65 55  1  0
 67 69  2  0
 68 67  1  0
 70 68  1  0
 71 80  2  0
 71 76  1  0
 72 68  1  0
 72 76  1  0
 73 72  1  0
 74 75  1  0
 74 73  1  0
 75 71  1  0
 76 77  2  0
 77 78  1  0
 79 78  2  0
 80 79  1  0
 81 55  1  0
 81 86  1  0
 81 82  1  0
 82 85  1  1
 82 83  1  0
 84 82  1  0
 86 89  1  0
 87 86  1  0
 87 91  1  0
 88 87  2  0
 91 90  1  0
 91 93  1  0
 93 94  1  0
 93 92  1  0
M  ISO  4   9 100  22 100  53 101  54 101
M  END
>  <TORSDO>  (96) 
F 19

>  <SCORE>  (96) 
-10.448

>  <name>  (96) 
96

>  <ligand_id>  (96) 
96

>  <original_smiles>  (96) 
[H]c1c([H])c([H])c2c(c1[H])C([H])([H])C([H])([H])C([H])([H])C2([H])N([H])C(=O)C1([H])N(C(=O)C([H])(N([H])C(=O)C([H])(N([H])C([H])([H])[H])C([H])([H])[H])C(C([H])([H])[H])(C([H])([H])[H])C([H])([H])[H])C([H])([H])c2c([H])c(OC([H])([H])C([H])([H])C([H])([H])c3c([H])c(C([H])([H])[H])c(C4([H])C([H])([H])C([H])([H])N(C(=O)N5C([H])([H])C([H])([H])C([H])([H])C([H])(n6nc(-c7c([H])c([H])c(Oc8c([H])c([H])c(F)c([H])c8F)c([H])c7[H])c(C(=O)N([H])[H])c6N([H])[H])C5([H])[H])C([H])([H])C4([H])[H])c(C([H])([H])[H])c3[H])c([H])c([H])c2C1([H])[H]

>  <smiles>  (96) 
[H]c1c([H])c([H])c2c(c1[H])C([H])([H])C([H])([H])C([H])([H])C2([H])N([H])C(=O)C1([H])N(C(=O)C([H])(N([H])C(=O)C([H])(N([H])C([H])([H])[H])C([H])([H])[H])C(C([H])([H])[H])(C([H])([H])[H])C([H])([H])[H])C([H])([H])c2c([H])c(OC([H])([H])C([H])([H])C([H])([H])c3c([H])c(C([H])([H])[H])c(C4([H])C([H])([H])C([H])([H])N(C(=O)N5C([H])([H])C([H])([H])C([H])([H])C([H])(n6nc(-c7c([H])c([H])c(Oc8c([H])c([H])c(F)c([H])c8F)c([H])c7[H])c(C(=O)N([H])[H])c6N([H])[H])C5([H])[H])C([H])([H])C4([H])[H])c(C([H])([H])[H])c3[H])c([H])c([H])c2C1([H])[H]

$$$$
